=
 OpenBabel11112417193D

 37 43  0  0  1  0  0  0  0  0999 V2000
  195.1520  175.9260  143.2300 C   0  0  0  0  0  0  0  0  0  0  0  0
  191.6420  176.2520  145.5040 C   0  0  0  0  0  0  0  0  0  0  0  0
  188.4960  177.3310  143.4760 O   0  0  0  0  0  0  0  0  0  0  0  0
  194.0410  175.9930  145.5570 C   0  0  0  0  0  0  0  0  0  0  0  0
  190.5890  176.2200  144.4500 C   0  0  1  0  0  3  0  0  0  0  0  0
  192.8230  175.9630  144.8910 C   0  0  0  0  0  0  0  0  0  0  0  0
  189.3940  177.2330  144.5950 C   0  0  2  0  0  3  0  0  0  0  0  0
  194.0250  176.1770  146.9470 C   0  0  0  0  0  3  0  0  0  0  0  0
  192.6480  175.7670  143.4490 C   0  0  2  0  0  3  0  0  0  0  0  0
  195.3160  174.4830  142.7830 C   0  0  0  0  0  1  0  0  0  0  0  0
  190.3760  176.7110  147.5960 N   0  0  0  0  0  2  0  0  0  0  0  0
  192.7990  176.3690  147.6160 C   0  0  0  0  0  3  0  0  0  0  0  0
  193.7930  176.4770  142.7340 C   0  0  0  0  0  2  0  0  0  0  0  0
  188.0670  176.0680  141.3400 C   0  0  1  0  0  3  0  0  0  0  0  0
  188.5380  176.1260  142.7660 C   0  0  1  0  0  3  0  0  0  0  0  0
  191.5900  176.4330  146.8950 C   0  0  0  0  0  0  0  0  0  0  0  0
  191.3360  176.3560  143.1710 N   0  0  1  0  0  0  0  0  0  0  0  0
  195.3270  176.0000  144.7700 C   0  0  0  0  0  2  0  0  0  0  0  0
  188.6160  176.9440  145.8920 C   0  0  1  0  0  3  0  0  0  0  0  0
  196.2550  176.7420  142.5910 C   0  0  0  0  0  1  0  0  0  0  0  0
  189.5140  176.4420  141.6460 C   0  0  1  0  0  3  0  0  0  0  0  0
  190.6670  175.5820  142.1190 C   0  0  0  0  0  2  0  0  0  0  0  0
  189.3230  177.5720  147.0820 C   0  0  0  0  0  2  0  0  0  0  0  0
  186.2180  176.7080  146.5640 C   0  0  0  0  0  3  0  0  0  0  0  0
  187.1910  177.4180  145.8510 C   0  0  0  0  0  0  0  0  0  0  0  0
  186.8150  178.5420  145.0980 C   0  0  0  0  0  3  0  0  0  0  0  0
  185.1120  180.0630  144.3200 O   0  0  0  0  0  1  0  0  0  0  0  0
  184.5130  178.2390  145.7810 C   0  0  0  0  0  3  0  0  0  0  0  0
  185.4790  178.9510  145.0640 C   0  0  0  0  0  0  0  0  0  0  0  0
  184.8820  177.1180  146.5300 C   0  0  0  0  0  3  0  0  0  0  0  0
  187.9110  172.0230  139.6330 O   0  0  0  0  0  0  0  0  0  0  0  0
  188.2790  173.0130  138.9460 C   0  0  0  0  0  0  0  0  0  0  0  0
  187.9680  174.6510  140.8720 C   0  0  0  0  0  0  0  0  0  0  0  0
  188.3200  174.3260  139.5210 N   0  0  0  0  0  2  0  0  0  0  0  0
  187.5390  173.7630  141.6590 O   0  0  0  0  0  0  0  0  0  0  0  0
  189.4350  173.7590  136.9090 C   0  0  0  0  0  1  0  0  0  0  0  0
  188.6480  172.8130  137.6170 O   0  0  0  0  0  0  0  0  0  0  0  0
  1 18  1  0  0  0  0
  2 16  1  0  0  0  0
  4  8  2  0  0  0  0
  5  7  1  0  0  0  0
  5  2  1  1  0  0  0
  6  2  2  0  0  0  0
  6  4  1  0  0  0  0
  7  3  1  6  0  0  0
  7 19  1  0  0  0  0
  8 12  1  0  0  0  0
  9 13  1  6  0  0  0
  9  6  1  0  0  0  0
 10  1  1  0  0  0  0
 13  1  1  0  0  0  0
 14 33  1  6  0  0  0
 14 21  1  0  0  0  0
 14 15  1  0  0  0  0
 15  3  1  1  0  0  0
 16 11  1  0  0  0  0
 16 12  2  0  0  0  0
 17 22  1  6  0  0  0
 17  9  1  0  0  0  0
 17  5  1  0  0  0  0
 18  4  1  0  0  0  0
 19 25  1  6  0  0  0
 19 23  1  0  0  0  0
 20  1  1  0  0  0  0
 21 22  1  6  0  0  0
 21 15  1  0  0  0  0
 23 11  1  0  0  0  0
 25 24  2  0  0  0  0
 26 25  1  0  0  0  0
 27 29  1  0  0  0  0
 28 30  2  0  0  0  0
 29 26  2  0  0  0  0
 29 28  1  0  0  0  0
 30 24  1  0  0  0  0
 32 34  1  0  0  0  0
 32 31  2  0  0  0  0
 33 35  2  0  0  0  0
 34 33  1  0  0  0  0
 36 37  1  0  0  0  0
 37 32  1  0  0  0  0
M  END
>  <MODEL>
1

>  <REMARK>
 VINA RESULT:      -8.5      0.000      0.000
  Name = 
  3 active torsions:
  status: ('A' for Active; 'I' for Inactive)
    1  A    between atoms: C_4  and  O_37
    2  A    between atoms: C_8  and  C_18
    3  A    between atoms: C_23  and  C_30
                            x       y       z     vdW  Elec       q    Type
                         _______ _______ _______ _____ _____    ______ ____

>  <TORSDO>
F 3

$$$$
=
 OpenBabel11112417193D

 37 43  0  0  1  0  0  0  0  0999 V2000
  186.3600  177.6320  143.4860 C   0  0  0  0  0  0  0  0  0  0  0  0
  189.9820  175.5490  143.8570 C   0  0  0  0  0  0  0  0  0  0  0  0
  190.1010  172.1590  141.9410 O   0  0  0  0  0  0  0  0  0  0  0  0
  188.6400  177.3860  144.6640 C   0  0  0  0  0  0  0  0  0  0  0  0
  189.9040  174.5930  142.7160 C   0  0  1  0  0  3  0  0  0  0  0  0
  188.9350  176.4100  143.7220 C   0  0  0  0  0  0  0  0  0  0  0  0
  190.3660  173.1130  142.9850 C   0  0  2  0  0  3  0  0  0  0  0  0
  189.5530  177.5860  145.7100 C   0  0  0  0  0  3  0  0  0  0  0  0
  188.1090  176.0760  142.5590 C   0  0  2  0  0  3  0  0  0  0  0  0
  186.4780  178.6260  142.3430 C   0  0  0  0  0  1  0  0  0  0  0  0
  192.0500  174.8720  145.0630 N   0  0  0  0  0  2  0  0  0  0  0  0
  190.7020  176.7740  145.8040 C   0  0  0  0  0  3  0  0  0  0  0  0
  186.6450  176.2020  142.9690 C   0  0  0  0  0  2  0  0  0  0  0  0
  189.3400  172.2150  139.5420 C   0  0  1  0  0  3  0  0  0  0  0  0
  190.0240  172.8420  140.7230 C   0  0  1  0  0  3  0  0  0  0  0  0
  190.9180  175.7250  144.8880 C   0  0  0  0  0  0  0  0  0  0  0  0
  188.5030  174.7030  142.2300 N   0  0  1  0  0  0  0  0  0  0  0  0
  187.2990  178.0740  144.6390 C   0  0  0  0  0  2  0  0  0  0  0  0
  191.8550  173.0910  143.3740 C   0  0  1  0  0  3  0  0  0  0  0  0
  184.9350  177.6750  143.9970 C   0  0  0  0  0  1  0  0  0  0  0  0
  188.5260  173.0250  140.5470 C   0  0  1  0  0  3  0  0  0  0  0  0
  188.4650  174.5210  140.7750 C   0  0  0  0  0  2  0  0  0  0  0  0
  192.0200  173.4340  144.8460 C   0  0  0  0  0  2  0  0  0  0  0  0
  193.3390  171.6620  141.9550 C   0  0  0  0  0  3  0  0  0  0  0  0
  192.5280  171.7780  143.0890 C   0  0  0  0  0  0  0  0  0  0  0  0
  192.3410  170.6650  143.9240 C   0  0  0  0  0  3  0  0  0  0  0  0
  192.7800  168.3520  144.4560 O   0  0  0  0  0  1  0  0  0  0  0  0
  193.7770  169.3420  142.4930 C   0  0  0  0  0  3  0  0  0  0  0  0
  192.9660  169.4500  143.6260 C   0  0  0  0  0  0  0  0  0  0  0  0
  193.9630  170.4460  141.6580 C   0  0  0  0  0  3  0  0  0  0  0  0
  190.4430  174.5830  136.0110 O   0  0  0  0  0  0  0  0  0  0  0  0
  191.2590  174.3840  136.9500 C   0  0  0  0  0  0  0  0  0  0  0  0
  189.5950  173.0040  138.2980 C   0  0  0  0  0  0  0  0  0  0  0  0
  190.8780  173.6100  138.0960 N   0  0  0  0  0  2  0  0  0  0  0  0
  188.6670  173.1610  137.4580 O   0  0  0  0  0  0  0  0  0  0  0  0
  192.7940  176.1270  136.1470 C   0  0  0  0  0  1  0  0  0  0  0  0
  192.5400  174.9250  136.8570 O   0  0  0  0  0  0  0  0  0  0  0  0
  1 20  1  0  0  0  0
  1 18  1  0  0  0  0
  2 16  1  0  0  0  0
  4  8  2  0  0  0  0
  5  7  1  0  0  0  0
  5  2  1  1  0  0  0
  6  2  2  0  0  0  0
  6  4  1  0  0  0  0
  7  3  1  6  0  0  0
  7 19  1  0  0  0  0
  8 12  1  0  0  0  0
  9 13  1  1  0  0  0
  9  6  1  0  0  0  0
 10  1  1  0  0  0  0
 13  1  1  0  0  0  0
 14 33  1  6  0  0  0
 14 21  1  0  0  0  0
 14 15  1  0  0  0  0
 15  3  1  1  0  0  0
 16 11  1  0  0  0  0
 16 12  2  0  0  0  0
 17 22  1  6  0  0  0
 17  9  1  0  0  0  0
 17  5  1  0  0  0  0
 18  4  1  0  0  0  0
 19 25  1  1  0  0  0
 19 23  1  0  0  0  0
 21 15  1  0  0  0  0
 21 22  1  6  0  0  0
 23 11  1  0  0  0  0
 24 25  1  0  0  0  0
 25 26  2  0  0  0  0
 28 29  2  0  0  0  0
 29 26  1  0  0  0  0
 29 27  1  0  0  0  0
 30 24  2  0  0  0  0
 30 28  1  0  0  0  0
 31 32  2  0  0  0  0
 32 34  1  0  0  0  0
 34 33  1  0  0  0  0
 35 33  2  0  0  0  0
 36 37  1  0  0  0  0
 37 32  1  0  0  0  0
M  END
>  <MODEL>
2

>  <REMARK>
 VINA RESULT:      -8.3      3.049      6.956
  Name = 
  3 active torsions:
  status: ('A' for Active; 'I' for Inactive)
    1  A    between atoms: C_4  and  O_37
    2  A    between atoms: C_8  and  C_18
    3  A    between atoms: C_23  and  C_30
                            x       y       z     vdW  Elec       q    Type
                         _______ _______ _______ _____ _____    ______ ____

>  <TORSDO>
F 3

$$$$
=
 OpenBabel11112417193D

 37 43  0  0  1  0  0  0  0  0999 V2000
  190.8490  169.9350  139.0140 C   0  0  0  0  0  0  0  0  0  0  0  0
  189.5950  173.5550  140.7230 C   0  0  0  0  0  0  0  0  0  0  0  0
  190.1990  173.8250  144.5620 O   0  0  0  0  0  0  0  0  0  0  0  0
  189.5470  172.1470  138.7630 C   0  0  0  0  0  0  0  0  0  0  0  0
  190.3320  173.5550  142.0180 C   0  0  1  0  0  3  0  0  0  0  0  0
  190.0730  172.5070  139.9960 C   0  0  0  0  0  0  0  0  0  0  0  0
  189.5420  174.0180  143.2970 C   0  0  2  0  0  3  0  0  0  0  0  0
  188.5920  172.9950  138.1840 C   0  0  0  0  0  3  0  0  0  0  0  0
  191.0870  171.7540  140.7400 C   0  0  2  0  0  3  0  0  0  0  0  0
  192.2600  170.1080  138.4760 C   0  0  0  0  0  1  0  0  0  0  0  0
  188.1270  175.5580  140.8740 N   0  0  0  0  0  2  0  0  0  0  0  0
  188.1630  174.1460  138.8760 C   0  0  0  0  0  3  0  0  0  0  0  0
  190.8200  170.2670  140.5250 C   0  0  0  0  0  2  0  0  0  0  0  0
  192.5020  173.2030  145.3680 C   0  0  1  0  0  3  0  0  0  0  0  0
  191.5810  173.8100  144.3480 C   0  0  1  0  0  3  0  0  0  0  0  0
  188.6440  174.4270  140.1700 C   0  0  0  0  0  0  0  0  0  0  0  0
  190.8960  172.1820  142.1280 N   0  0  1  0  0  0  0  0  0  0  0  0
  189.8770  170.8010  138.1700 C   0  0  0  0  0  2  0  0  0  0  0  0
  189.0950  175.4820  143.1360 C   0  0  1  0  0  3  0  0  0  0  0  0
  190.4570  168.4830  138.8410 C   0  0  0  0  0  1  0  0  0  0  0  0
  191.8850  172.3230  144.2850 C   0  0  1  0  0  3  0  0  0  0  0  0
  192.1960  172.2310  142.8060 C   0  0  0  0  0  2  0  0  0  0  0  0
  187.8290  175.5580  142.2980 C   0  0  0  0  0  2  0  0  0  0  0  0
  189.9270  176.8970  145.0230 C   0  0  0  0  0  3  0  0  0  0  0  0
  188.8710  176.1860  144.4440 C   0  0  0  0  0  0  0  0  0  0  0  0
  187.6320  176.1250  145.1030 C   0  0  0  0  0  3  0  0  0  0  0  0
  186.2290  176.7150  146.9760 O   0  0  0  0  0  1  0  0  0  0  0  0
  188.5140  177.4870  146.9000 C   0  0  0  0  0  3  0  0  0  0  0  0
  187.4560  176.7760  146.3280 C   0  0  0  0  0  0  0  0  0  0  0  0
  189.7490  177.5480  146.2490 C   0  0  0  0  0  3  0  0  0  0  0  0
  196.5750  174.4720  144.3200 O   0  0  0  0  0  0  0  0  0  0  0  0
  195.5780  175.2110  144.0990 C   0  0  0  0  0  0  0  0  0  0  0  0
  193.9290  173.5210  145.0520 C   0  0  0  0  0  0  0  0  0  0  0  0
  194.2560  174.7770  144.4460 N   0  0  0  0  0  2  0  0  0  0  0  0
  194.8240  172.6640  145.2880 O   0  0  0  0  0  0  0  0  0  0  0  0
  197.0700  176.8970  143.1120 C   0  0  0  0  0  1  0  0  0  0  0  0
  195.7810  176.4590  143.5130 O   0  0  0  0  0  0  0  0  0  0  0  0
  1 13  1  0  0  0  0
  4  6  1  0  0  0  0
  5  2  1  6  0  0  0
  5 17  1  0  0  0  0
  5  7  1  0  0  0  0
  6  2  2  0  0  0  0
  6  9  1  0  0  0  0
  7  3  1  1  0  0  0
  8  4  2  0  0  0  0
  8 12  1  0  0  0  0
  9 13  1  1  0  0  0
  9 17  1  0  0  0  0
 10  1  1  0  0  0  0
 11 23  1  0  0  0  0
 12 16  2  0  0  0  0
 14 33  1  6  0  0  0
 15  3  1  1  0  0  0
 15 14  1  0  0  0  0
 16  2  1  0  0  0  0
 16 11  1  0  0  0  0
 17 22  1  1  0  0  0
 18  4  1  0  0  0  0
 18  1  1  0  0  0  0
 19  7  1  0  0  0  0
 19 25  1  1  0  0  0
 20  1  1  0  0  0  0
 21 22  1  6  0  0  0
 21 15  1  0  0  0  0
 21 14  1  0  0  0  0
 23 19  1  0  0  0  0
 24 30  1  0  0  0  0
 25 24  2  0  0  0  0
 25 26  1  0  0  0  0
 26 29  2  0  0  0  0
 29 28  1  0  0  0  0
 29 27  1  0  0  0  0
 30 28  2  0  0  0  0
 32 31  2  0  0  0  0
 32 34  1  0  0  0  0
 33 35  2  0  0  0  0
 34 33  1  0  0  0  0
 36 37  1  0  0  0  0
 37 32  1  0  0  0  0
M  END
>  <MODEL>
3

>  <REMARK>
 VINA RESULT:      -8.3      3.460      6.937
  Name = 
  3 active torsions:
  status: ('A' for Active; 'I' for Inactive)
    1  A    between atoms: C_4  and  O_37
    2  A    between atoms: C_8  and  C_18
    3  A    between atoms: C_23  and  C_30
                            x       y       z     vdW  Elec       q    Type
                         _______ _______ _______ _____ _____    ______ ____

>  <TORSDO>
F 3

$$$$
=
 OpenBabel11112417193D

 37 43  0  0  1  0  0  0  0  0999 V2000
  189.4280  173.0340  139.0820 C   0  0  0  0  0  0  0  0  0  0  0  0
  187.5770  176.1390  141.2100 C   0  0  0  0  0  0  0  0  0  0  0  0
  187.5770  175.6720  145.0770 O   0  0  0  0  0  0  0  0  0  0  0  0
  187.9620  175.1550  139.0390 C   0  0  0  0  0  0  0  0  0  0  0  0
  188.1120  175.9300  142.5850 C   0  0  1  0  0  3  0  0  0  0  0  0
  188.2610  175.2950  140.3880 C   0  0  0  0  0  0  0  0  0  0  0  0
  187.0980  176.0700  143.7800 C   0  0  2  0  0  3  0  0  0  0  0  0
  187.0230  176.0340  138.4810 C   0  0  0  0  0  3  0  0  0  0  0  0
  189.2240  174.4800  141.1340 C   0  0  2  0  0  3  0  0  0  0  0  0
  190.8780  173.4090  138.8260 C   0  0  0  0  0  1  0  0  0  0  0  0
  185.9090  177.9640  141.4900 N   0  0  0  0  0  2  0  0  0  0  0  0
  186.3830  176.9900  139.2960 C   0  0  0  0  0  3  0  0  0  0  0  0
  189.1430  173.0520  140.6030 C   0  0  0  0  0  2  0  0  0  0  0  0
  189.7860  175.0620  146.1200 C   0  0  1  0  0  3  0  0  0  0  0  0
  188.9700  175.7970  145.0950 C   0  0  1  0  0  3  0  0  0  0  0  0
  186.6360  177.0370  140.6810 C   0  0  0  0  0  0  0  0  0  0  0  0
  188.7880  174.6060  142.5270 N   0  0  1  0  0  0  0  0  0  0  0  0
  188.5100  173.9820  138.2670 C   0  0  0  0  0  2  0  0  0  0  0  0
  186.5360  177.5020  143.8260 C   0  0  1  0  0  3  0  0  0  0  0  0
  189.2140  171.6230  138.5770 C   0  0  0  0  0  1  0  0  0  0  0  0
  189.4270  174.3780  144.8040 C   0  0  1  0  0  3  0  0  0  0  0  0
  189.9610  174.6070  143.4060 C   0  0  0  0  0  2  0  0  0  0  0  0
  185.4060  177.6570  142.8200 C   0  0  0  0  0  2  0  0  0  0  0  0
  184.6770  177.8940  145.4530 C   0  0  0  0  0  3  0  0  0  0  0  0
  186.0500  177.9110  145.1870 C   0  0  0  0  0  0  0  0  0  0  0  0
  186.9440  178.3290  146.1870 C   0  0  0  0  0  3  0  0  0  0  0  0
  187.3510  179.1300  148.4260 O   0  0  0  0  0  1  0  0  0  0  0  0
  185.0910  178.6980  147.7000 C   0  0  0  0  0  3  0  0  0  0  0  0
  186.4640  178.7200  147.4400 C   0  0  0  0  0  0  0  0  0  0  0  0
  184.1980  178.2850  146.7070 C   0  0  0  0  0  3  0  0  0  0  0  0
  194.0550  176.0930  146.0460 O   0  0  0  0  0  0  0  0  0  0  0  0
  193.6670  174.8960  145.9860 C   0  0  0  0  0  0  0  0  0  0  0  0
  191.2040  175.5350  146.1090 C   0  0  0  0  0  0  0  0  0  0  0  0
  192.2680  174.5800  146.0150 N   0  0  0  0  0  2  0  0  0  0  0  0
  191.4500  176.7680  146.2210 O   0  0  0  0  0  0  0  0  0  0  0  0
  194.3150  172.6280  145.2980 C   0  0  0  0  0  1  0  0  0  0  0  0
  194.6180  173.8820  145.8900 O   0  0  0  0  0  0  0  0  0  0  0  0
  1 13  1  0  0  0  0
  4  6  1  0  0  0  0
  5  2  1  6  0  0  0
  5  7  1  0  0  0  0
  6  9  1  0  0  0  0
  6  2  2  0  0  0  0
  7 19  1  0  0  0  0
  7  3  1  1  0  0  0
  8  4  2  0  0  0  0
  8 12  1  0  0  0  0
  9 13  1  6  0  0  0
  9 17  1  0  0  0  0
 10  1  1  0  0  0  0
 11 23  1  0  0  0  0
 12 16  2  0  0  0  0
 14 33  1  6  0  0  0
 15  3  1  1  0  0  0
 15 14  1  0  0  0  0
 16  2  1  0  0  0  0
 16 11  1  0  0  0  0
 17  5  1  0  0  0  0
 17 22  1  1  0  0  0
 18  4  1  0  0  0  0
 18  1  1  0  0  0  0
 19 25  1  1  0  0  0
 20  1  1  0  0  0  0
 21 22  1  6  0  0  0
 21 15  1  0  0  0  0
 21 14  1  0  0  0  0
 23 19  1  0  0  0  0
 24 30  1  0  0  0  0
 25 24  2  0  0  0  0
 25 26  1  0  0  0  0
 26 29  2  0  0  0  0
 29 28  1  0  0  0  0
 29 27  1  0  0  0  0
 30 28  2  0  0  0  0
 32 34  1  0  0  0  0
 32 31  2  0  0  0  0
 33 35  2  0  0  0  0
 34 33  1  0  0  0  0
 36 37  1  0  0  0  0
 37 32  1  0  0  0  0
M  END
>  <MODEL>
4

>  <REMARK>
 VINA RESULT:      -8.2      2.861      6.443
  Name = 
  3 active torsions:
  status: ('A' for Active; 'I' for Inactive)
    1  A    between atoms: C_4  and  O_37
    2  A    between atoms: C_8  and  C_18
    3  A    between atoms: C_23  and  C_30
                            x       y       z     vdW  Elec       q    Type
                         _______ _______ _______ _____ _____    ______ ____

>  <TORSDO>
F 3

$$$$
=
 OpenBabel11112417193D

 37 43  0  0  1  0  0  0  0  0999 V2000
  186.1650  177.8310  143.7020 C   0  0  0  0  0  0  0  0  0  0  0  0
  189.7590  175.6910  144.0120 C   0  0  0  0  0  0  0  0  0  0  0  0
  189.8940  172.4400  141.8690 O   0  0  0  0  0  0  0  0  0  0  0  0
  188.4140  177.4820  144.9130 C   0  0  0  0  0  0  0  0  0  0  0  0
  189.7000  174.8170  142.8060 C   0  0  1  0  0  3  0  0  0  0  0  0
  188.7230  176.5700  143.9130 C   0  0  0  0  0  0  0  0  0  0  0  0
  190.1430  173.3170  142.9820 C   0  0  2  0  0  3  0  0  0  0  0  0
  189.3040  177.5990  145.9910 C   0  0  0  0  0  3  0  0  0  0  0  0
  187.9230  176.3250  142.7100 C   0  0  2  0  0  3  0  0  0  0  0  0
  186.3190  178.9010  142.6330 C   0  0  0  0  0  1  0  0  0  0  0  0
  191.7920  174.9100  145.2160 N   0  0  0  0  0  2  0  0  0  0  0  0
  190.4430  176.7710  146.0550 C   0  0  0  0  0  3  0  0  0  0  0  0
  186.4500  176.4380  143.0930 C   0  0  0  0  0  2  0  0  0  0  0  0
  189.1920  172.6690  139.4630 C   0  0  1  0  0  3  0  0  0  0  0  0
  189.8520  173.2060  140.7000 C   0  0  1  0  0  3  0  0  0  0  0  0
  190.6720  175.7860  145.0750 C   0  0  0  0  0  0  0  0  0  0  0  0
  188.3120  174.9740  142.2960 N   0  0  1  0  0  0  0  0  0  0  0  0
  187.0800  178.1830  144.9040 C   0  0  0  0  0  2  0  0  0  0  0  0
  191.6220  173.2530  143.4040 C   0  0  1  0  0  3  0  0  0  0  0  0
  184.7290  177.8540  144.1810 C   0  0  0  0  0  1  0  0  0  0  0  0
  188.3610  173.4160  140.5020 C   0  0  1  0  0  3  0  0  0  0  0  0
  188.3080  174.8930  140.8320 C   0  0  0  0  0  2  0  0  0  0  0  0
  191.7550  173.4920  144.8990 C   0  0  0  0  0  2  0  0  0  0  0  0
  193.0120  171.8710  141.8490 C   0  0  0  0  0  3  0  0  0  0  0  0
  192.2900  171.9560  143.0440 C   0  0  0  0  0  0  0  0  0  0  0  0
  192.1860  170.8260  143.8720 C   0  0  0  0  0  3  0  0  0  0  0  0
  192.6990  168.5130  144.3270 O   0  0  0  0  0  1  0  0  0  0  0  0
  193.5250  169.5500  142.3110 C   0  0  0  0  0  3  0  0  0  0  0  0
  192.8030  169.6270  143.5050 C   0  0  0  0  0  0  0  0  0  0  0  0
  193.6300  170.6710  141.4830 C   0  0  0  0  0  3  0  0  0  0  0  0
  189.6810  175.2910  135.9720 O   0  0  0  0  0  0  0  0  0  0  0  0
  188.5410  175.0110  136.4300 C   0  0  0  0  0  0  0  0  0  0  0  0
  189.4840  173.5400  138.2830 C   0  0  0  0  0  0  0  0  0  0  0  0
  188.4020  174.1510  137.5690 N   0  0  0  0  0  2  0  0  0  0  0  0
  190.6770  173.6970  137.9060 O   0  0  0  0  0  0  0  0  0  0  0  0
  186.3130  176.0400  136.5660 C   0  0  0  0  0  1  0  0  0  0  0  0
  187.4140  175.5540  135.8140 O   0  0  0  0  0  0  0  0  0  0  0  0
  1 20  1  0  0  0  0
  1 18  1  0  0  0  0
  2 16  1  0  0  0  0
  4  8  2  0  0  0  0
  5  7  1  0  0  0  0
  5  2  1  1  0  0  0
  6  2  2  0  0  0  0
  6  4  1  0  0  0  0
  7  3  1  6  0  0  0
  7 19  1  0  0  0  0
  8 12  1  0  0  0  0
  9 13  1  1  0  0  0
  9  6  1  0  0  0  0
 10  1  1  0  0  0  0
 13  1  1  0  0  0  0
 14 33  1  6  0  0  0
 14 21  1  0  0  0  0
 14 15  1  0  0  0  0
 15  3  1  1  0  0  0
 16 11  1  0  0  0  0
 16 12  2  0  0  0  0
 17 22  1  6  0  0  0
 17  9  1  0  0  0  0
 17  5  1  0  0  0  0
 18  4  1  0  0  0  0
 19 25  1  1  0  0  0
 19 23  1  0  0  0  0
 21 15  1  0  0  0  0
 21 22  1  6  0  0  0
 23 11  1  0  0  0  0
 24 25  1  0  0  0  0
 25 26  2  0  0  0  0
 28 29  2  0  0  0  0
 29 26  1  0  0  0  0
 29 27  1  0  0  0  0
 30 24  2  0  0  0  0
 30 28  1  0  0  0  0
 31 32  2  0  0  0  0
 32 34  1  0  0  0  0
 34 33  1  0  0  0  0
 35 33  2  0  0  0  0
 37 32  1  0  0  0  0
 37 36  1  0  0  0  0
M  END
>  <MODEL>
5

>  <REMARK>
 VINA RESULT:      -8.2      3.040      6.867
  Name = 
  3 active torsions:
  status: ('A' for Active; 'I' for Inactive)
    1  A    between atoms: C_4  and  O_37
    2  A    between atoms: C_8  and  C_18
    3  A    between atoms: C_23  and  C_30
                            x       y       z     vdW  Elec       q    Type
                         _______ _______ _______ _____ _____    ______ ____

>  <TORSDO>
F 3

$$$$
=
 OpenBabel11112417193D

 37 43  0  0  1  0  0  0  0  0999 V2000
  191.1470  170.5200  139.2190 C   0  0  0  0  0  0  0  0  0  0  0  0
  189.4750  173.9810  140.8960 C   0  0  0  0  0  0  0  0  0  0  0  0
  189.8910  174.2700  144.7580 O   0  0  0  0  0  0  0  0  0  0  0  0
  189.6460  172.5960  138.9270 C   0  0  0  0  0  0  0  0  0  0  0  0
  190.1550  174.0400  142.2200 C   0  0  1  0  0  3  0  0  0  0  0  0
  190.0830  172.9930  140.1830 C   0  0  0  0  0  0  0  0  0  0  0  0
  189.2710  174.4110  143.4680 C   0  0  2  0  0  3  0  0  0  0  0  0
  188.6370  173.3520  138.3140 C   0  0  0  0  0  3  0  0  0  0  0  0
  191.1340  172.3350  140.9640 C   0  0  2  0  0  3  0  0  0  0  0  0
  192.5560  170.8350  138.7410 C   0  0  0  0  0  1  0  0  0  0  0  0
  187.8120  175.8300  140.9980 N   0  0  0  0  0  2  0  0  0  0  0  0
  188.0690  174.4490  138.9940 C   0  0  0  0  0  3  0  0  0  0  0  0
  191.0240  170.8320  140.7290 C   0  0  0  0  0  2  0  0  0  0  0  0
  192.2090  173.8690  145.6560 C   0  0  1  0  0  3  0  0  0  0  0  0
  191.2760  174.3930  144.6030 C   0  0  1  0  0  3  0  0  0  0  0  0
  188.4660  174.7620  140.3090 C   0  0  0  0  0  0  0  0  0  0  0  0
  190.8450  172.7290  142.3460 N   0  0  1  0  0  0  0  0  0  0  0  0
  190.1310  171.2950  138.3400 C   0  0  0  0  0  2  0  0  0  0  0  0
  188.6890  175.8260  143.2970 C   0  0  1  0  0  3  0  0  0  0  0  0
  190.9080  169.0380  139.0200 C   0  0  0  0  0  1  0  0  0  0  0  0
  191.7260  172.9440  144.5430 C   0  0  1  0  0  3  0  0  0  0  0  0
  192.1050  172.8980  143.0780 C   0  0  0  0  0  2  0  0  0  0  0  0
  187.4580  175.7860  142.4070 C   0  0  0  0  0  2  0  0  0  0  0  0
  189.3400  177.1800  145.2970 C   0  0  0  0  0  3  0  0  0  0  0  0
  188.3430  176.4910  144.5990 C   0  0  0  0  0  0  0  0  0  0  0  0
  187.0480  176.4160  145.1360 C   0  0  0  0  0  3  0  0  0  0  0  0
  185.4750  176.9550  146.8850 O   0  0  0  0  0  1  0  0  0  0  0  0
  187.7580  177.7190  147.0490 C   0  0  0  0  0  3  0  0  0  0  0  0
  186.7570  177.0300  146.3580 C   0  0  0  0  0  0  0  0  0  0  0  0
  189.0490  177.7940  146.5200 C   0  0  0  0  0  3  0  0  0  0  0  0
  196.4370  174.8800  145.0290 O   0  0  0  0  0  0  0  0  0  0  0  0
  196.0920  173.7700  145.5150 C   0  0  0  0  0  0  0  0  0  0  0  0
  193.6090  174.3280  145.4030 C   0  0  0  0  0  0  0  0  0  0  0  0
  194.7060  173.4600  145.7140 N   0  0  0  0  0  2  0  0  0  0  0  0
  193.8120  175.4880  144.9520 O   0  0  0  0  0  0  0  0  0  0  0  0
  196.8170  171.4500  145.8750 C   0  0  0  0  0  1  0  0  0  0  0  0
  197.0780  172.8440  145.8530 O   0  0  0  0  0  0  0  0  0  0  0  0
  1 13  1  0  0  0  0
  4  6  1  0  0  0  0
  5  2  1  6  0  0  0
  5 17  1  0  0  0  0
  5  7  1  0  0  0  0
  6  2  2  0  0  0  0
  6  9  1  0  0  0  0
  7  3  1  1  0  0  0
  8  4  2  0  0  0  0
  8 12  1  0  0  0  0
  9 13  1  1  0  0  0
  9 17  1  0  0  0  0
 10  1  1  0  0  0  0
 11 23  1  0  0  0  0
 12 16  2  0  0  0  0
 14 33  1  6  0  0  0
 15  3  1  1  0  0  0
 15 14  1  0  0  0  0
 16  2  1  0  0  0  0
 16 11  1  0  0  0  0
 17 22  1  1  0  0  0
 18  4  1  0  0  0  0
 18  1  1  0  0  0  0
 19  7  1  0  0  0  0
 19 25  1  1  0  0  0
 20  1  1  0  0  0  0
 21 22  1  6  0  0  0
 21 15  1  0  0  0  0
 21 14  1  0  0  0  0
 23 19  1  0  0  0  0
 24 30  1  0  0  0  0
 25 26  1  0  0  0  0
 25 24  2  0  0  0  0
 26 29  2  0  0  0  0
 29 27  1  0  0  0  0
 29 28  1  0  0  0  0
 30 28  2  0  0  0  0
 31 32  2  0  0  0  0
 32 34  1  0  0  0  0
 32 37  1  0  0  0  0
 33 34  1  0  0  0  0
 35 33  2  0  0  0  0
 37 36  1  0  0  0  0
M  END
>  <MODEL>
6

>  <REMARK>
 VINA RESULT:      -8.1      3.518      6.863
  Name = 
  3 active torsions:
  status: ('A' for Active; 'I' for Inactive)
    1  A    between atoms: C_4  and  O_37
    2  A    between atoms: C_8  and  C_18
    3  A    between atoms: C_23  and  C_30
                            x       y       z     vdW  Elec       q    Type
                         _______ _______ _______ _____ _____    ______ ____

>  <TORSDO>
F 3

$$$$
=
 OpenBabel11112417193D

 37 43  0  0  1  0  0  0  0  0999 V2000
  191.1200  172.9180  139.7950 C   0  0  0  0  0  0  0  0  0  0  0  0
  189.4920  173.8530  143.5460 C   0  0  0  0  0  0  0  0  0  0  0  0
  188.4030  177.5710  143.9540 O   0  0  0  0  0  0  0  0  0  0  0  0
  190.6810  172.2110  142.2360 C   0  0  0  0  0  0  0  0  0  0  0  0
  188.7850  175.1340  143.2630 C   0  0  1  0  0  3  0  0  0  0  0  0
  189.9040  173.3560  142.3470 C   0  0  0  0  0  0  0  0  0  0  0  0
  188.9200  176.2820  144.3300 C   0  0  2  0  0  3  0  0  0  0  0  0
  190.9120  171.4600  143.3970 C   0  0  0  0  0  3  0  0  0  0  0  0
  189.5480  174.2520  141.2420 C   0  0  2  0  0  3  0  0  0  0  0  0
  190.0160  172.3790  138.9000 C   0  0  0  0  0  1  0  0  0  0  0  0
  189.2650  173.5790  146.0090 N   0  0  0  0  0  2  0  0  0  0  0  0
  190.3980  171.9020  144.6330 C   0  0  0  0  0  3  0  0  0  0  0  0
  190.7430  174.3320  140.2970 C   0  0  0  0  0  2  0  0  0  0  0  0
  186.9890  178.5220  142.1010 C   0  0  1  0  0  3  0  0  0  0  0  0
  187.4040  177.3870  142.9930 C   0  0  1  0  0  3  0  0  0  0  0  0
  189.7000  173.1220  144.7270 C   0  0  0  0  0  0  0  0  0  0  0  0
  189.2450  175.5240  141.9030 N   0  0  1  0  0  0  0  0  0  0  0  0
  191.3830  171.9030  140.9380 C   0  0  0  0  0  2  0  0  0  0  0  0
  188.3180  175.8260  145.6710 C   0  0  1  0  0  3  0  0  0  0  0  0
  192.3810  173.0300  138.9650 C   0  0  0  0  0  1  0  0  0  0  0  0
  188.1550  177.6250  141.6940 C   0  0  1  0  0  3  0  0  0  0  0  0
  188.1590  176.1990  141.1850 C   0  0  0  0  0  2  0  0  0  0  0  0
  189.3170  174.9690  146.4330 C   0  0  0  0  0  2  0  0  0  0  0  0
  188.8290  177.6970  147.2510 C   0  0  0  0  0  3  0  0  0  0  0  0
  187.8710  176.9640  146.5430 C   0  0  0  0  0  0  0  0  0  0  0  0
  186.5110  177.2910  146.6780 C   0  0  0  0  0  3  0  0  0  0  0  0
  184.7760  178.6660  147.6380 O   0  0  0  0  0  1  0  0  0  0  0  0
  187.0840  179.0740  148.2110 C   0  0  0  0  0  3  0  0  0  0  0  0
  186.1210  178.3450  147.5090 C   0  0  0  0  0  0  0  0  0  0  0  0
  188.4380  178.7510  148.0830 C   0  0  0  0  0  3  0  0  0  0  0  0
  183.1580  177.6180  140.1510 O   0  0  0  0  0  0  0  0  0  0  0  0
  183.2070  178.0700  141.3260 C   0  0  0  0  0  0  0  0  0  0  0  0
  185.7520  178.1720  141.3370 C   0  0  0  0  0  0  0  0  0  0  0  0
  184.4680  178.3560  141.9460 N   0  0  0  0  0  2  0  0  0  0  0  0
  185.8530  177.6840  140.1780 O   0  0  0  0  0  0  0  0  0  0  0  0
  180.7870  178.4990  141.3350 C   0  0  0  0  0  1  0  0  0  0  0  0
  182.0160  178.2910  142.0150 O   0  0  0  0  0  0  0  0  0  0  0  0
  1 13  1  0  0  0  0
  1 18  1  0  0  0  0
  2 16  1  0  0  0  0
  4  6  1  0  0  0  0
  4  8  2  0  0  0  0
  5  2  1  1  0  0  0
  5  7  1  0  0  0  0
  6  2  2  0  0  0  0
  7  3  1  6  0  0  0
  7 19  1  0  0  0  0
  8 12  1  0  0  0  0
  9 13  1  6  0  0  0
  9 17  1  0  0  0  0
  9  6  1  0  0  0  0
 10  1  1  0  0  0  0
 11 23  1  0  0  0  0
 12 16  2  0  0  0  0
 14 33  1  6  0  0  0
 14 15  1  0  0  0  0
 15  3  1  1  0  0  0
 16 11  1  0  0  0  0
 17 22  1  6  0  0  0
 17  5  1  0  0  0  0
 18  4  1  0  0  0  0
 19 23  1  0  0  0  0
 19 25  1  1  0  0  0
 20  1  1  0  0  0  0
 21 22  1  6  0  0  0
 21 14  1  0  0  0  0
 21 15  1  0  0  0  0
 24 30  1  0  0  0  0
 25 26  1  0  0  0  0
 25 24  2  0  0  0  0
 26 29  2  0  0  0  0
 29 27  1  0  0  0  0
 29 28  1  0  0  0  0
 30 28  2  0  0  0  0
 31 32  2  0  0  0  0
 32 34  1  0  0  0  0
 32 37  1  0  0  0  0
 33 34  1  0  0  0  0
 35 33  2  0  0  0  0
 36 37  1  0  0  0  0
M  END
>  <MODEL>
7

>  <REMARK>
 VINA RESULT:      -7.9      3.476      4.930
  Name = 
  3 active torsions:
  status: ('A' for Active; 'I' for Inactive)
    1  A    between atoms: C_4  and  O_37
    2  A    between atoms: C_8  and  C_18
    3  A    between atoms: C_23  and  C_30
                            x       y       z     vdW  Elec       q    Type
                         _______ _______ _______ _____ _____    ______ ____

>  <TORSDO>
F 3

$$$$
=
 OpenBabel11112417193D

 37 43  0  0  1  0  0  0  0  0999 V2000
  191.1800  170.9030  141.5470 C   0  0  0  0  0  0  0  0  0  0  0  0
  189.0590  174.5200  141.6650 C   0  0  0  0  0  0  0  0  0  0  0  0
  188.1400  175.7390  145.2480 O   0  0  0  0  0  0  0  0  0  0  0  0
  189.8810  172.7290  140.2700 C   0  0  0  0  0  0  0  0  0  0  0  0
  189.2490  174.9410  143.0810 C   0  0  1  0  0  3  0  0  0  0  0  0
  189.8680  173.4430  141.4610 C   0  0  0  0  0  0  0  0  0  0  0  0
  187.9960  175.5240  143.8330 C   0  0  2  0  0  3  0  0  0  0  0  0
  189.1460  173.2390  139.1910 C   0  0  0  0  0  3  0  0  0  0  0  0
  190.5860  173.0710  142.6830 C   0  0  2  0  0  3  0  0  0  0  0  0
  192.6690  171.2060  141.5000 C   0  0  0  0  0  1  0  0  0  0  0  0
  187.4740  176.2050  140.7500 N   0  0  0  0  0  2  0  0  0  0  0  0
  188.3880  174.4180  139.3520 C   0  0  0  0  0  3  0  0  0  0  0  0
  190.5530  171.5500  142.8040 C   0  0  0  0  0  2  0  0  0  0  0  0
  190.0120  175.7410  146.9330 C   0  0  1  0  0  3  0  0  0  0  0  0
  189.4960  175.9290  145.5340 C   0  0  1  0  0  3  0  0  0  0  0  0
  188.3160  175.0610  140.6030 C   0  0  0  0  0  0  0  0  0  0  0  0
  189.8480  173.7540  143.7480 N   0  0  1  0  0  0  0  0  0  0  0  0
  190.5280  171.3690  140.2180 C   0  0  0  0  0  2  0  0  0  0  0  0
  187.5170  176.8100  143.1350 C   0  0  1  0  0  3  0  0  0  0  0  0
  191.0120  169.4020  141.6530 C   0  0  0  0  0  1  0  0  0  0  0  0
  189.9300  174.5460  145.9870 C   0  0  1  0  0  3  0  0  0  0  0  0
  190.7840  174.1870  144.7900 C   0  0  0  0  0  2  0  0  0  0  0  0
  186.6610  176.4660  141.9270 C   0  0  0  0  0  2  0  0  0  0  0  0
  186.2960  178.9550  143.5390 C   0  0  0  0  0  3  0  0  0  0  0  0
  186.7530  177.7330  144.0420 C   0  0  0  0  0  0  0  0  0  0  0  0
  186.5100  177.4020  145.3850 C   0  0  0  0  0  3  0  0  0  0  0  0
  185.5710  177.9550  147.5380 O   0  0  0  0  0  1  0  0  0  0  0  0
  185.3540  179.5050  145.7010 C   0  0  0  0  0  3  0  0  0  0  0  0
  185.8110  178.2870  146.2110 C   0  0  0  0  0  0  0  0  0  0  0  0
  185.5970  179.8400  144.3660 C   0  0  0  0  0  3  0  0  0  0  0  0
  194.1700  177.1560  146.9090 O   0  0  0  0  0  0  0  0  0  0  0  0
  193.6000  176.7740  145.8520 C   0  0  0  0  0  0  0  0  0  0  0  0
  191.4180  176.2360  147.0510 C   0  0  0  0  0  0  0  0  0  0  0  0
  192.2420  176.3130  145.8820 N   0  0  0  0  0  2  0  0  0  0  0  0
  191.8760  176.5440  148.1860 O   0  0  0  0  0  0  0  0  0  0  0  0
  194.1200  175.8260  143.6460 C   0  0  0  0  0  1  0  0  0  0  0  0
  194.3070  176.8090  144.6520 O   0  0  0  0  0  0  0  0  0  0  0  0
  1 20  1  0  0  0  0
  1 13  1  0  0  0  0
  4  6  2  0  0  0  0
  5  2  1  6  0  0  0
  5 17  1  0  0  0  0
  5  7  1  0  0  0  0
  6  2  1  0  0  0  0
  6  9  1  0  0  0  0
  7  3  1  1  0  0  0
  8 12  2  0  0  0  0
  8  4  1  0  0  0  0
  9 13  1  1  0  0  0
  9 17  1  0  0  0  0
 10  1  1  0  0  0  0
 11 23  1  0  0  0  0
 12 16  1  0  0  0  0
 14 33  1  6  0  0  0
 15  3  1  1  0  0  0
 15 21  1  0  0  0  0
 15 14  1  0  0  0  0
 16 11  1  0  0  0  0
 16  2  2  0  0  0  0
 17 22  1  1  0  0  0
 18  4  1  0  0  0  0
 18  1  1  0  0  0  0
 19  7  1  0  0  0  0
 19 25  1  1  0  0  0
 21 22  1  6  0  0  0
 21 14  1  0  0  0  0
 23 19  1  0  0  0  0
 24 25  2  0  0  0  0
 24 30  1  0  0  0  0
 25 26  1  0  0  0  0
 26 29  2  0  0  0  0
 28 29  1  0  0  0  0
 29 27  1  0  0  0  0
 30 28  2  0  0  0  0
 32 34  1  0  0  0  0
 32 31  2  0  0  0  0
 33 35  2  0  0  0  0
 34 33  1  0  0  0  0
 36 37  1  0  0  0  0
 37 32  1  0  0  0  0
M  END
>  <MODEL>
8

>  <REMARK>
 VINA RESULT:      -7.9      2.871      6.177
  Name = 
  3 active torsions:
  status: ('A' for Active; 'I' for Inactive)
    1  A    between atoms: C_4  and  O_37
    2  A    between atoms: C_8  and  C_18
    3  A    between atoms: C_23  and  C_30
                            x       y       z     vdW  Elec       q    Type
                         _______ _______ _______ _____ _____    ______ ____

>  <TORSDO>
F 3

$$$$
=
 OpenBabel11112417193D

 37 43  0  0  1  0  0  0  0  0999 V2000
  196.7790  174.8220  138.9110 C   0  0  0  0  0  0  0  0  0  0  0  0
  194.9110  175.5090  142.6030 C   0  0  0  0  0  0  0  0  0  0  0  0
  191.0310  175.1610  142.5410 O   0  0  0  0  0  0  0  0  0  0  0  0
  196.9620  175.6670  141.3400 C   0  0  0  0  0  0  0  0  0  0  0  0
  193.5740  174.8860  142.3910 C   0  0  1  0  0  3  0  0  0  0  0  0
  195.6760  175.1790  141.5250 C   0  0  0  0  0  0  0  0  0  0  0  0
  192.3200  175.6720  142.9260 C   0  0  2  0  0  3  0  0  0  0  0  0
  197.5420  176.4010  142.3850 C   0  0  0  0  0  3  0  0  0  0  0  0
  194.9210  174.3830  140.5530 C   0  0  2  0  0  3  0  0  0  0  0  0
  197.2110  173.3660  138.8410 C   0  0  0  0  0  1  0  0  0  0  0  0
  194.7190  176.5870  144.8370 N   0  0  0  0  0  2  0  0  0  0  0  0
  196.8020  176.6590  143.5570 C   0  0  0  0  0  3  0  0  0  0  0  0
  195.2540  174.9040  139.1580 C   0  0  0  0  0  2  0  0  0  0  0  0
  190.1220  173.0830  141.4490 C   0  0  1  0  0  3  0  0  0  0  0  0
  191.1560  173.7940  142.2760 C   0  0  1  0  0  3  0  0  0  0  0  0
  195.4630  176.2360  143.6700 C   0  0  0  0  0  0  0  0  0  0  0  0
  193.5220  174.5970  140.9330 N   0  0  1  0  0  0  0  0  0  0  0  0
  197.6230  175.5480  139.9910 C   0  0  0  0  0  2  0  0  0  0  0  0
  192.4090  175.8250  144.4550 C   0  0  1  0  0  3  0  0  0  0  0  0
  197.0760  175.4620  137.5710 C   0  0  0  0  0  1  0  0  0  0  0  0
  191.3010  173.7680  140.7640 C   0  0  1  0  0  3  0  0  0  0  0  0
  192.7590  173.3670  140.6960 C   0  0  0  0  0  2  0  0  0  0  0  0
  193.3210  176.9870  144.8150 C   0  0  0  0  0  2  0  0  0  0  0  0
  190.3250  177.1590  144.8200 C   0  0  0  0  0  3  0  0  0  0  0  0
  191.0730  176.0150  145.1150 C   0  0  0  0  0  0  0  0  0  0  0  0
  190.5740  175.0790  146.0360 C   0  0  0  0  0  3  0  0  0  0  0  0
  188.8440  174.3610  147.5560 O   0  0  0  0  0  1  0  0  0  0  0  0
  188.5920  176.4330  146.3470 C   0  0  0  0  0  3  0  0  0  0  0  0
  189.3350  175.2890  146.6490 C   0  0  0  0  0  0  0  0  0  0  0  0
  189.0860  177.3680  145.4340 C   0  0  0  0  0  3  0  0  0  0  0  0
  190.7130  168.7350  141.2430 O   0  0  0  0  0  0  0  0  0  0  0  0
  190.5800  169.4310  140.2010 C   0  0  0  0  0  0  0  0  0  0  0  0
  190.3220  171.6020  141.5070 C   0  0  0  0  0  0  0  0  0  0  0  0
  190.3850  170.8490  140.2890 N   0  0  0  0  0  2  0  0  0  0  0  0
  190.3950  171.0270  142.6270 O   0  0  0  0  0  0  0  0  0  0  0  0
  190.0250  169.3730  137.8070 C   0  0  0  0  0  1  0  0  0  0  0  0
  190.6280  168.8020  138.9580 O   0  0  0  0  0  0  0  0  0  0  0  0
  1 13  1  0  0  0  0
  1 18  1  0  0  0  0
  2 16  1  0  0  0  0
  4  6  1  0  0  0  0
  4  8  2  0  0  0  0
  5  2  1  6  0  0  0
  5  7  1  0  0  0  0
  6  2  2  0  0  0  0
  7  3  1  1  0  0  0
  7 19  1  0  0  0  0
  8 12  1  0  0  0  0
  9 13  1  6  0  0  0
  9 17  1  0  0  0  0
  9  6  1  0  0  0  0
 10  1  1  0  0  0  0
 12 16  2  0  0  0  0
 14 33  1  1  0  0  0
 14 15  1  0  0  0  0
 15  3  1  6  0  0  0
 16 11  1  0  0  0  0
 17 22  1  1  0  0  0
 17  5  1  0  0  0  0
 18  4  1  0  0  0  0
 19 23  1  0  0  0  0
 19 25  1  6  0  0  0
 20  1  1  0  0  0  0
 21 22  1  1  0  0  0
 21 14  1  0  0  0  0
 21 15  1  0  0  0  0
 23 11  1  0  0  0  0
 24 25  2  0  0  0  0
 24 30  1  0  0  0  0
 25 26  1  0  0  0  0
 26 29  2  0  0  0  0
 28 29  1  0  0  0  0
 29 27  1  0  0  0  0
 30 28  2  0  0  0  0
 32 34  1  0  0  0  0
 32 31  2  0  0  0  0
 33 35  2  0  0  0  0
 34 33  1  0  0  0  0
 36 37  1  0  0  0  0
 37 32  1  0  0  0  0
M  END
>  <MODEL>
9

>  <REMARK>
 VINA RESULT:      -7.9      3.059      4.591
  Name = 
  3 active torsions:
  status: ('A' for Active; 'I' for Inactive)
    1  A    between atoms: C_4  and  O_37
    2  A    between atoms: C_8  and  C_18
    3  A    between atoms: C_23  and  C_30
                            x       y       z     vdW  Elec       q    Type
                         _______ _______ _______ _____ _____    ______ ____

>  <TORSDO>
F 3

$$$$
