=
 OpenBabel11112416253D

 30 35  0  0  1  0  0  0  0  0999 V2000
  189.5110  174.8730  144.7300 C   0  0  2  0  0  3  0  0  0  0  0  0
  190.7120  172.7860  143.7610 C   0  0  0  0  0  0  0  0  0  0  0  0
  187.9560  175.7080  141.2750 O   0  0  0  0  0  0  0  0  0  0  0  0
  188.7520  176.1230  144.2550 C   0  0  2  0  0  3  0  0  0  0  0  0
  190.7510  175.2770  145.2560 O   0  0  0  0  0  0  0  0  0  0  0  0
  189.9100  177.9930  147.2220 O   0  0  0  0  0  0  0  0  0  0  0  0
  186.2590  178.0000  144.9470 C   0  0  2  0  0  3  0  0  0  0  0  0
  189.7260  177.0800  146.4310 C   0  0  0  0  0  0  0  0  0  0  0  0
  186.8370  178.1790  143.6150 N   0  0  2  0  0  0  0  0  0  0  0  0
  187.3300  176.9070  141.5440 C   0  0  0  0  0  0  0  0  0  0  0  0
  190.4940  175.7850  146.5400 C   0  0  2  0  0  3  0  0  0  0  0  0
  188.6660  177.2130  145.3670 C   0  0  2  0  0  3  0  0  0  0  0  0
  190.7870  171.7470  142.7820 N   0  0  0  0  0  0  0  0  0  0  0  0
  185.9700  179.1760  142.9960 C   0  0  0  0  0  2  0  0  0  0  0  0
  185.7030  179.3350  145.3830 C   0  0  0  0  0  2  0  0  0  0  0  0
  191.4660  172.7340  144.7670 O   0  0  0  0  0  0  0  0  0  0  0  0
  187.7600  174.8200  142.3610 C   0  0  2  0  0  3  0  0  0  0  0  0
  190.0660  171.7640  141.7050 C   0  0  0  0  0  3  0  0  0  0  0  0
  189.7170  173.8750  143.6090 C   0  0  0  0  0  0  0  0  0  0  0  0
  187.4270  175.7200  143.5660 C   0  0  2  0  0  3  0  0  0  0  0  0
  187.2680  177.8490  140.7110 O   0  0  0  0  0  0  0  0  0  0  0  0
  186.6950  176.9090  142.8920 C   0  0  1  0  0  3  0  0  0  0  0  0
  185.4420  180.0760  144.0950 C   0  0  0  0  0  2  0  0  0  0  0  0
  186.7180  176.2540  146.6850 C   0  0  0  0  0  1  0  0  0  0  0  0
  189.1410  172.9030  141.3810 C   0  0  0  0  0  2  0  0  0  0  0  0
  188.9080  173.8570  142.5260 C   0  0  0  0  0  0  0  0  0  0  0  0
  187.2740  177.4740  145.9670 C   0  0  2  0  0  3  0  0  0  0  0  0
  191.8110  175.9710  147.2830 C   0  0  0  0  0  2  0  0  0  0  0  0
  194.1150  176.4560  146.5240 C   0  0  0  0  0  1  0  0  0  0  0  0
  192.9650  175.4750  146.4330 C   0  0  0  0  0  2  0  0  0  0  0  0
  1 19  1  6  0  0  0
  1  5  1  0  0  0  0
  2 16  2  0  0  0  0
  3 10  1  0  0  0  0
  3 17  1  0  0  0  0
  4  1  1  0  0  0  0
  4 12  1  0  0  0  0
  5 11  1  0  0  0  0
  7 15  1  0  0  0  0
  7 27  1  0  0  0  0
  8 11  1  0  0  0  0
  8  6  2  0  0  0  0
  9  7  1  0  0  0  0
 10 22  1  0  0  0  0
 11 28  1  0  0  0  0
 12 27  1  0  0  0  0
 12  8  1  0  0  0  0
 13  2  1  0  0  0  0
 14  9  1  0  0  0  0
 14 23  1  0  0  0  0
 17 26  1  0  0  0  0
 17 20  1  0  0  0  0
 18 13  2  0  0  0  0
 19  2  1  0  0  0  0
 20  4  1  0  0  0  0
 21 10  2  0  0  0  0
 22 20  1  0  0  0  0
 22  9  1  0  0  0  0
 23 15  1  0  0  0  0
 25 18  1  0  0  0  0
 25 26  1  0  0  0  0
 26 19  2  0  0  0  0
 27 24  1  0  0  0  0
 30 29  1  0  0  0  0
 30 28  1  0  0  0  0
M  END
>  <MODEL>
1

>  <REMARK>
 VINA RESULT:      -8.9      0.000      0.000
  Name = 
  2 active torsions:
  status: ('A' for Active; 'I' for Inactive)
    1  A    between atoms: C_11  and  C_28
    2  A    between atoms: C_28  and  C_30
                            x       y       z     vdW  Elec       q    Type
                         _______ _______ _______ _____ _____    ______ ____

>  <TORSDO>
F 2

$$$$
=
 OpenBabel11112416253D

 30 35  0  0  1  0  0  0  0  0999 V2000
  186.9820  177.1800  143.9220 C   0  0  2  0  0  3  0  0  0  0  0  0
  184.9150  178.1930  142.7210 C   0  0  0  0  0  0  0  0  0  0  0  0
  188.0140  175.2390  140.7240 O   0  0  0  0  0  0  0  0  0  0  0  0
  188.0450  176.0880  143.7180 C   0  0  2  0  0  3  0  0  0  0  0  0
  186.1180  176.7760  144.9540 O   0  0  0  0  0  0  0  0  0  0  0  0
  188.2950  175.6080  147.3720 O   0  0  0  0  0  0  0  0  0  0  0  0
  191.1460  175.4460  144.1540 C   0  0  2  0  0  3  0  0  0  0  0  0
  187.9590  176.0560  146.2850 C   0  0  0  0  0  0  0  0  0  0  0  0
  190.4250  174.5250  143.2760 N   0  0  2  0  0  0  0  0  0  0  0  0
  189.0860  174.5070  141.1890 C   0  0  0  0  0  0  0  0  0  0  0  0
  186.7980  177.0120  146.1600 C   0  0  2  0  0  3  0  0  0  0  0  0
  188.7560  175.7090  145.0530 C   0  0  2  0  0  3  0  0  0  0  0  0
  184.2590  178.5940  141.5170 N   0  0  0  0  0  0  0  0  0  0  0  0
  191.4620  173.6070  142.8160 C   0  0  0  0  0  2  0  0  0  0  0  0
  192.2400  174.6600  144.8360 C   0  0  0  0  0  2  0  0  0  0  0  0
  184.4140  178.5210  143.8280 O   0  0  0  0  0  0  0  0  0  0  0  0
  188.0730  176.5500  141.2570 C   0  0  2  0  0  3  0  0  0  0  0  0
  184.7030  178.2540  140.3460 C   0  0  0  0  0  3  0  0  0  0  0  0
  186.1950  177.4470  142.6540 C   0  0  0  0  0  0  0  0  0  0  0  0
  188.9530  176.4370  142.5160 C   0  0  2  0  0  3  0  0  0  0  0  0
  189.3310  173.3330  140.8030 O   0  0  0  0  0  0  0  0  0  0  0  0
  189.9300  175.2970  142.1290 C   0  0  1  0  0  3  0  0  0  0  0  0
  192.4980  173.4930  143.9160 C   0  0  0  0  0  2  0  0  0  0  0  0
  190.4190  177.6260  145.1530 C   0  0  0  0  0  1  0  0  0  0  0  0
  185.9040  177.3690  140.1740 C   0  0  0  0  0  2  0  0  0  0  0  0
  186.7040  177.1560  141.4360 C   0  0  0  0  0  0  0  0  0  0  0  0
  190.2330  176.1170  145.1850 C   0  0  2  0  0  3  0  0  0  0  0  0
  185.8250  176.8740  147.3240 C   0  0  0  0  0  2  0  0  0  0  0  0
  185.8910  179.3450  147.4130 C   0  0  0  0  0  1  0  0  0  0  0  0
  184.9880  178.1310  147.4580 C   0  0  0  0  0  2  0  0  0  0  0  0
  1 19  1  6  0  0  0
  1  5  1  0  0  0  0
  2 16  2  0  0  0  0
  3 10  1  0  0  0  0
  3 17  1  0  0  0  0
  4  1  1  0  0  0  0
  4 12  1  0  0  0  0
  5 11  1  0  0  0  0
  7 15  1  0  0  0  0
  7 27  1  0  0  0  0
  8  6  2  0  0  0  0
  9  7  1  0  0  0  0
 10 22  1  0  0  0  0
 11  8  1  0  0  0  0
 11 28  1  0  0  0  0
 12 27  1  0  0  0  0
 12  8  1  0  0  0  0
 13  2  1  0  0  0  0
 14  9  1  0  0  0  0
 14 23  1  0  0  0  0
 17 26  1  0  0  0  0
 17 20  1  0  0  0  0
 18 13  2  0  0  0  0
 19  2  1  0  0  0  0
 20  4  1  0  0  0  0
 21 10  2  0  0  0  0
 22 20  1  0  0  0  0
 22  9  1  0  0  0  0
 23 15  1  0  0  0  0
 24 27  1  0  0  0  0
 25 18  1  0  0  0  0
 25 26  1  0  0  0  0
 26 19  2  0  0  0  0
 28 30  1  0  0  0  0
 29 30  1  0  0  0  0
M  END
>  <MODEL>
2

>  <REMARK>
 VINA RESULT:      -8.5      2.111      5.776
  Name = 
  2 active torsions:
  status: ('A' for Active; 'I' for Inactive)
    1  A    between atoms: C_11  and  C_28
    2  A    between atoms: C_28  and  C_30
                            x       y       z     vdW  Elec       q    Type
                         _______ _______ _______ _____ _____    ______ ____

>  <TORSDO>
F 2

$$$$
=
 OpenBabel11112416253D

 30 35  0  0  1  0  0  0  0  0999 V2000
  186.4140  177.2240  143.6160 C   0  0  2  0  0  3  0  0  0  0  0  0
  184.9900  178.4180  145.4290 C   0  0  0  0  0  0  0  0  0  0  0  0
  189.5640  177.3260  145.8780 O   0  0  0  0  0  0  0  0  0  0  0  0
  187.8820  176.8990  143.2950 C   0  0  2  0  0  3  0  0  0  0  0  0
  185.9590  178.1880  142.7000 O   0  0  0  0  0  0  0  0  0  0  0  0
  187.1470  177.0040  139.6770 O   0  0  0  0  0  0  0  0  0  0  0  0
  189.7800  174.6190  142.1040 C   0  0  2  0  0  3  0  0  0  0  0  0
  186.9920  177.0320  140.8890 C   0  0  0  0  0  0  0  0  0  0  0  0
  190.4590  175.7040  142.8120 N   0  0  2  0  0  0  0  0  0  0  0  0
  190.5220  176.8140  145.0290 C   0  0  0  0  0  0  0  0  0  0  0  0
  185.6960  177.5070  141.4990 C   0  0  2  0  0  3  0  0  0  0  0  0
  188.0830  176.5200  141.7960 C   0  0  2  0  0  3  0  0  0  0  0  0
  184.7550  178.7400  146.8010 N   0  0  0  0  0  0  0  0  0  0  0  0
  191.8620  175.3050  142.7850 C   0  0  0  0  0  2  0  0  0  0  0  0
  190.7170  174.1220  141.0300 C   0  0  0  0  0  2  0  0  0  0  0  0
  184.1040  178.6870  144.5770 O   0  0  0  0  0  0  0  0  0  0  0  0
  188.3630  176.5890  145.7330 C   0  0  2  0  0  3  0  0  0  0  0  0
  185.6440  178.5250  147.7200 C   0  0  0  0  0  3  0  0  0  0  0  0
  186.2420  177.7270  145.0350 C   0  0  0  0  0  0  0  0  0  0  0  0
  188.4600  175.9240  144.3470 C   0  0  2  0  0  3  0  0  0  0  0  0
  191.7130  177.2220  145.0150 O   0  0  0  0  0  0  0  0  0  0  0  0
  189.9870  175.6950  144.2020 C   0  0  1  0  0  3  0  0  0  0  0  0
  192.0920  174.5060  141.5190 C   0  0  0  0  0  2  0  0  0  0  0  0
  187.3360  174.0960  141.9150 C   0  0  0  0  0  1  0  0  0  0  0  0
  187.0050  177.9740  147.4010 C   0  0  0  0  0  2  0  0  0  0  0  0
  187.1410  177.4310  146.0000 C   0  0  0  0  0  0  0  0  0  0  0  0
  188.4410  175.0540  141.4990 C   0  0  2  0  0  3  0  0  0  0  0  0
  184.9300  178.4240  140.5550 C   0  0  0  0  0  2  0  0  0  0  0  0
  182.6160  178.2320  141.4100 C   0  0  0  0  0  1  0  0  0  0  0  0
  183.5510  177.8570  140.2790 C   0  0  0  0  0  2  0  0  0  0  0  0
  1  5  1  6  0  0  0
  1 19  1  0  0  0  0
  2 13  1  0  0  0  0
  4  1  1  0  0  0  0
  4 20  1  0  0  0  0
  6  8  2  0  0  0  0
  7  9  1  0  0  0  0
  8 11  1  0  0  0  0
  8 12  1  0  0  0  0
  9 22  1  0  0  0  0
 10  3  1  0  0  0  0
 11  5  1  0  0  0  0
 12  4  1  0  0  0  0
 13 18  2  0  0  0  0
 14  9  1  0  0  0  0
 15 23  1  0  0  0  0
 15  7  1  0  0  0  0
 16  2  2  0  0  0  0
 17  3  1  0  0  0  0
 17 26  1  0  0  0  0
 19  2  1  0  0  0  0
 19 26  2  0  0  0  0
 20 17  1  0  0  0  0
 21 10  2  0  0  0  0
 22 20  1  0  0  0  0
 22 10  1  0  0  0  0
 23 14  1  0  0  0  0
 25 18  1  0  0  0  0
 26 25  1  0  0  0  0
 27 12  1  0  0  0  0
 27 24  1  0  0  0  0
 27  7  1  0  0  0  0
 28 11  1  0  0  0  0
 30 28  1  0  0  0  0
 30 29  1  0  0  0  0
M  END
>  <MODEL>
3

>  <REMARK>
 VINA RESULT:      -8.3      2.268      7.138
  Name = 
  2 active torsions:
  status: ('A' for Active; 'I' for Inactive)
    1  A    between atoms: C_11  and  C_28
    2  A    between atoms: C_28  and  C_30
                            x       y       z     vdW  Elec       q    Type
                         _______ _______ _______ _____ _____    ______ ____

>  <TORSDO>
F 2

$$$$
=
 OpenBabel11112416253D

 30 35  0  0  1  0  0  0  0  0999 V2000
  189.8780  175.7850  143.9030 C   0  0  2  0  0  3  0  0  0  0  0  0
  191.7230  175.0820  145.5890 C   0  0  0  0  0  0  0  0  0  0  0  0
  187.4680  176.7470  146.7870 O   0  0  0  0  0  0  0  0  0  0  0  0
  188.3840  176.1470  143.8730 C   0  0  2  0  0  3  0  0  0  0  0  0
  190.0470  174.5360  143.2790 O   0  0  0  0  0  0  0  0  0  0  0  0
  188.0970  174.8200  140.4390 O   0  0  0  0  0  0  0  0  0  0  0  0
  186.2730  178.1210  142.5080 C   0  0  2  0  0  3  0  0  0  0  0  0
  188.5780  175.1610  141.5100 C   0  0  0  0  0  0  0  0  0  0  0  0
  185.7940  177.3970  143.6860 N   0  0  2  0  0  0  0  0  0  0  0  0
  186.3230  177.0630  146.0860 C   0  0  0  0  0  0  0  0  0  0  0  0
  189.9830  174.7680  141.8950 C   0  0  2  0  0  3  0  0  0  0  0  0
  187.7860  176.0490  142.4370 C   0  0  2  0  0  3  0  0  0  0  0  0
  192.3190  175.1890  146.8830 N   0  0  0  0  0  0  0  0  0  0  0  0
  184.4450  177.9160  143.8830 C   0  0  0  0  0  2  0  0  0  0  0  0
  185.0860  178.3490  141.6030 C   0  0  0  0  0  2  0  0  0  0  0  0
  192.3370  174.4620  144.6820 O   0  0  0  0  0  0  0  0  0  0  0  0
  188.5960  177.2660  146.1040 C   0  0  2  0  0  3  0  0  0  0  0  0
  191.7200  175.7800  147.8700 C   0  0  0  0  0  3  0  0  0  0  0  0
  190.4230  175.7430  145.3160 C   0  0  0  0  0  0  0  0  0  0  0  0
  188.1330  177.4620  144.6480 C   0  0  2  0  0  3  0  0  0  0  0  0
  185.1670  176.8020  146.5110 O   0  0  0  0  0  0  0  0  0  0  0  0
  186.6300  177.7970  144.8260 C   0  0  1  0  0  3  0  0  0  0  0  0
  183.8910  178.2910  142.5230 C   0  0  0  0  0  2  0  0  0  0  0  0
  188.5800  178.2900  141.5440 C   0  0  0  0  0  1  0  0  0  0  0  0
  190.3340  176.3450  147.7390 C   0  0  0  0  0  2  0  0  0  0  0  0
  189.8290  176.4260  146.3200 C   0  0  0  0  0  0  0  0  0  0  0  0
  187.3870  177.3750  141.7670 C   0  0  2  0  0  3  0  0  0  0  0  0
  190.4450  173.5220  141.1520 C   0  0  0  0  0  2  0  0  0  0  0  0
  190.0670  171.2360  142.0180 C   0  0  0  0  0  1  0  0  0  0  0  0
  190.9290  172.4750  142.1360 C   0  0  0  0  0  2  0  0  0  0  0  0
  1  5  1  1  0  0  0
  1 19  1  0  0  0  0
  2 13  1  0  0  0  0
  4  1  1  0  0  0  0
  4 20  1  0  0  0  0
  6  8  2  0  0  0  0
  7  9  1  0  0  0  0
  8 11  1  0  0  0  0
  8 12  1  0  0  0  0
  9 14  1  0  0  0  0
  9 22  1  0  0  0  0
 10 21  2  0  0  0  0
 10  3  1  0  0  0  0
 11  5  1  0  0  0  0
 12  4  1  0  0  0  0
 13 18  2  0  0  0  0
 15  7  1  0  0  0  0
 15 23  1  0  0  0  0
 16  2  2  0  0  0  0
 17 26  1  0  0  0  0
 17  3  1  0  0  0  0
 19  2  1  0  0  0  0
 19 26  2  0  0  0  0
 20 22  1  0  0  0  0
 20 17  1  0  0  0  0
 22 10  1  0  0  0  0
 23 14  1  0  0  0  0
 24 27  1  0  0  0  0
 25 18  1  0  0  0  0
 26 25  1  0  0  0  0
 27 12  1  0  0  0  0
 27  7  1  0  0  0  0
 28 11  1  0  0  0  0
 28 30  1  0  0  0  0
 29 30  1  0  0  0  0
M  END
>  <MODEL>
4

>  <REMARK>
 VINA RESULT:      -8.2      1.945      4.705
  Name = 
  2 active torsions:
  status: ('A' for Active; 'I' for Inactive)
    1  A    between atoms: C_11  and  C_28
    2  A    between atoms: C_28  and  C_30
                            x       y       z     vdW  Elec       q    Type
                         _______ _______ _______ _____ _____    ______ ____

>  <TORSDO>
F 2

$$$$
=
 OpenBabel11112416253D

 30 35  0  0  1  0  0  0  0  0999 V2000
  187.6620  175.9220  144.1590 C   0  0  2  0  0  3  0  0  0  0  0  0
  185.6280  177.3790  144.8530 C   0  0  0  0  0  0  0  0  0  0  0  0
  189.6040  176.9300  147.3640 O   0  0  0  0  0  0  0  0  0  0  0  0
  189.1300  175.6850  144.5510 C   0  0  2  0  0  3  0  0  0  0  0  0
  187.6310  176.5690  142.9110 O   0  0  0  0  0  0  0  0  0  0  0  0
  189.9480  174.7900  141.0620 O   0  0  0  0  0  0  0  0  0  0  0  0
  191.3330  173.3940  144.8890 C   0  0  2  0  0  3  0  0  0  0  0  0
  189.3090  175.1090  142.0540 C   0  0  0  0  0  0  0  0  0  0  0  0
  191.6690  174.6890  145.4800 N   0  0  2  0  0  0  0  0  0  0  0  0
  190.8230  176.3240  147.1410 C   0  0  0  0  0  0  0  0  0  0  0  0
  187.8790  175.5810  141.9430 C   0  0  2  0  0  3  0  0  0  0  0  0
  189.9270  174.9630  143.4220 C   0  0  2  0  0  3  0  0  0  0  0  0
  184.8520  178.0110  145.8720 N   0  0  0  0  0  0  0  0  0  0  0  0
  192.9560  174.4480  146.1240 C   0  0  0  0  0  2  0  0  0  0  0  0
  192.6250  172.7430  144.4570 C   0  0  0  0  0  2  0  0  0  0  0  0
  185.1720  177.3270  143.6810 O   0  0  0  0  0  0  0  0  0  0  0  0
  188.5630  176.0560  146.9620 C   0  0  2  0  0  3  0  0  0  0  0  0
  185.2830  178.1320  147.0890 C   0  0  0  0  0  3  0  0  0  0  0  0
  186.9260  176.7480  145.1950 C   0  0  0  0  0  0  0  0  0  0  0  0
  189.2170  175.0760  145.9690 C   0  0  2  0  0  3  0  0  0  0  0  0
  191.9170  176.8410  147.4900 O   0  0  0  0  0  0  0  0  0  0  0  0
  190.6670  174.9820  146.5130 C   0  0  1  0  0  3  0  0  0  0  0  0
  193.6800  173.3830  145.3260 C   0  0  0  0  0  2  0  0  0  0  0  0
  189.1790  172.5820  143.8970 C   0  0  0  0  0  1  0  0  0  0  0  0
  186.6500  177.6660  147.5020 C   0  0  0  0  0  2  0  0  0  0  0  0
  187.3460  176.8030  146.4790 C   0  0  0  0  0  0  0  0  0  0  0  0
  190.3640  173.5160  143.7080 C   0  0  2  0  0  3  0  0  0  0  0  0
  187.5760  176.1420  140.5600 C   0  0  0  0  0  2  0  0  0  0  0  0
  185.7260  177.7430  140.1990 C   0  0  0  0  0  1  0  0  0  0  0  0
  187.1590  177.5960  140.6650 C   0  0  0  0  0  2  0  0  0  0  0  0
  1  5  1  6  0  0  0
  1  4  1  0  0  0  0
  1 19  1  0  0  0  0
  2 19  1  0  0  0  0
  2 13  1  0  0  0  0
  4 20  1  0  0  0  0
  6  8  2  0  0  0  0
  7  9  1  0  0  0  0
  8 12  1  0  0  0  0
  9 14  1  0  0  0  0
  9 22  1  0  0  0  0
 10  3  1  0  0  0  0
 10 21  2  0  0  0  0
 11  8  1  0  0  0  0
 11  5  1  0  0  0  0
 12 27  1  0  0  0  0
 12  4  1  0  0  0  0
 13 18  2  0  0  0  0
 15  7  1  0  0  0  0
 15 23  1  0  0  0  0
 16  2  2  0  0  0  0
 17  3  1  0  0  0  0
 18 25  1  0  0  0  0
 19 26  2  0  0  0  0
 20 22  1  0  0  0  0
 20 17  1  0  0  0  0
 22 10  1  0  0  0  0
 23 14  1  0  0  0  0
 26 17  1  0  0  0  0
 26 25  1  0  0  0  0
 27 24  1  0  0  0  0
 27  7  1  0  0  0  0
 28 30  1  0  0  0  0
 28 11  1  0  0  0  0
 29 30  1  0  0  0  0
M  END
>  <MODEL>
5

>  <REMARK>
 VINA RESULT:      -8.1      2.024      6.896
  Name = 
  2 active torsions:
  status: ('A' for Active; 'I' for Inactive)
    1  A    between atoms: C_11  and  C_28
    2  A    between atoms: C_28  and  C_30
                            x       y       z     vdW  Elec       q    Type
                         _______ _______ _______ _____ _____    ______ ____

>  <TORSDO>
F 2

$$$$
=
 OpenBabel11112416253D

 30 35  0  0  1  0  0  0  0  0999 V2000
  190.0790  175.3510  143.9940 C   0  0  2  0  0  3  0  0  0  0  0  0
  190.9440  174.1150  141.8810 C   0  0  0  0  0  0  0  0  0  0  0  0
  187.1680  176.9520  141.9900 O   0  0  0  0  0  0  0  0  0  0  0  0
  189.0880  176.4580  144.3890 C   0  0  2  0  0  3  0  0  0  0  0  0
  191.3860  175.8330  144.1810 O   0  0  0  0  0  0  0  0  0  0  0  0
  191.2070  177.3680  147.2740 O   0  0  0  0  0  0  0  0  0  0  0  0
  186.9550  177.2820  146.6220 C   0  0  2  0  0  3  0  0  0  0  0  0
  190.7900  176.7830  146.2850 C   0  0  0  0  0  0  0  0  0  0  0  0
  186.9120  178.0620  145.3860 N   0  0  2  0  0  0  0  0  0  0  0  0
  186.6100  177.7800  142.9410 C   0  0  0  0  0  0  0  0  0  0  0  0
  191.6420  175.7680  145.5620 C   0  0  2  0  0  3  0  0  0  0  0  0
  189.3770  177.0200  145.8140 C   0  0  2  0  0  3  0  0  0  0  0  0
  190.6960  173.5490  140.5920 N   0  0  0  0  0  0  0  0  0  0  0  0
  185.7850  178.9660  145.5900 C   0  0  0  0  0  2  0  0  0  0  0  0
  186.5180  178.1900  147.7470 C   0  0  0  0  0  2  0  0  0  0  0  0
  192.0490  173.8960  142.4430 O   0  0  0  0  0  0  0  0  0  0  0  0
  187.5160  175.7150  142.5870 C   0  0  2  0  0  3  0  0  0  0  0  0
  189.5950  173.7710  139.9440 C   0  0  0  0  0  3  0  0  0  0  0  0
  189.8870  174.9040  142.5580 C   0  0  0  0  0  0  0  0  0  0  0  0
  187.6370  176.0120  144.0930 C   0  0  2  0  0  3  0  0  0  0  0  0
  186.1290  178.9100  142.6660 O   0  0  0  0  0  0  0  0  0  0  0  0
  186.5920  177.1420  144.2880 C   0  0  1  0  0  3  0  0  0  0  0  0
  185.6840  179.2520  147.0740 C   0  0  0  0  0  2  0  0  0  0  0  0
  188.2400  175.2020  147.1750 C   0  0  0  0  0  1  0  0  0  0  0  0
  188.5260  174.6820  140.4750 C   0  0  0  0  0  2  0  0  0  0  0  0
  188.7070  175.0740  141.9210 C   0  0  0  0  0  0  0  0  0  0  0  0
  188.3420  176.6950  146.9040 C   0  0  2  0  0  3  0  0  0  0  0  0
  193.1270  175.9970  145.8120 C   0  0  0  0  0  2  0  0  0  0  0  0
  195.3610  174.9360  145.8470 C   0  0  0  0  0  1  0  0  0  0  0  0
  193.8700  174.6760  145.7910 C   0  0  0  0  0  2  0  0  0  0  0  0
  1 19  1  6  0  0  0
  1  5  1  0  0  0  0
  1  4  1  0  0  0  0
  2 16  2  0  0  0  0
  2 19  1  0  0  0  0
  3 17  1  0  0  0  0
  3 10  1  0  0  0  0
  4 12  1  0  0  0  0
  5 11  1  0  0  0  0
  7 27  1  0  0  0  0
  7 15  1  0  0  0  0
  8  6  2  0  0  0  0
  9 14  1  0  0  0  0
  9  7  1  0  0  0  0
 10 22  1  0  0  0  0
 11 28  1  0  0  0  0
 11  8  1  0  0  0  0
 12  8  1  0  0  0  0
 12 27  1  0  0  0  0
 13  2  1  0  0  0  0
 14 23  1  0  0  0  0
 17 20  1  0  0  0  0
 18 25  1  0  0  0  0
 18 13  2  0  0  0  0
 20 22  1  0  0  0  0
 20  4  1  0  0  0  0
 21 10  2  0  0  0  0
 22  9  1  0  0  0  0
 23 15  1  0  0  0  0
 25 26  1  0  0  0  0
 26 19  2  0  0  0  0
 26 17  1  0  0  0  0
 27 24  1  0  0  0  0
 30 28  1  0  0  0  0
 30 29  1  0  0  0  0
M  END
>  <MODEL>
6

>  <REMARK>
 VINA RESULT:      -8.1      1.583      1.903
  Name = 
  2 active torsions:
  status: ('A' for Active; 'I' for Inactive)
    1  A    between atoms: C_11  and  C_28
    2  A    between atoms: C_28  and  C_30
                            x       y       z     vdW  Elec       q    Type
                         _______ _______ _______ _____ _____    ______ ____

>  <TORSDO>
F 2

$$$$
=
 OpenBabel11112416253D

 30 35  0  0  1  0  0  0  0  0999 V2000
  191.4640  175.3580  142.6020 C   0  0  2  0  0  3  0  0  0  0  0  0
  194.0190  175.1610  142.1790 C   0  0  0  0  0  0  0  0  0  0  0  0
  192.0530  176.3770  146.2990 O   0  0  0  0  0  0  0  0  0  0  0  0
  190.4700  175.5030  143.7650 C   0  0  2  0  0  3  0  0  0  0  0  0
  191.3290  174.0690  142.0570 O   0  0  0  0  0  0  0  0  0  0  0  0
  187.9010  173.6780  141.8390 O   0  0  0  0  0  0  0  0  0  0  0  0
  187.7550  176.9550  144.6230 C   0  0  2  0  0  3  0  0  0  0  0  0
  188.9520  174.2300  142.1310 C   0  0  0  0  0  0  0  0  0  0  0  0
  188.5190  176.3460  145.7110 N   0  0  2  0  0  0  0  0  0  0  0  0
  190.7590  176.4300  146.7720 C   0  0  0  0  0  0  0  0  0  0  0  0
  190.1750  174.0920  141.2560 C   0  0  2  0  0  3  0  0  0  0  0  0
  189.0180  175.1220  143.3450 C   0  0  2  0  0  3  0  0  0  0  0  0
  195.3580  175.5300  142.5120 N   0  0  0  0  0  0  0  0  0  0  0  0
  187.7560  176.6960  146.9040 C   0  0  0  0  0  2  0  0  0  0  0  0
  186.2950  176.8880  145.0020 C   0  0  0  0  0  2  0  0  0  0  0  0
  193.8090  174.5100  141.1230 O   0  0  0  0  0  0  0  0  0  0  0  0
  192.1030  176.9440  145.0020 C   0  0  2  0  0  3  0  0  0  0  0  0
  195.6440  176.1660  143.6060 C   0  0  0  0  0  3  0  0  0  0  0  0
  192.8950  175.5910  143.0460 C   0  0  0  0  0  0  0  0  0  0  0  0
  190.6600  176.8670  144.4690 C   0  0  2  0  0  3  0  0  0  0  0  0
  190.4420  176.0750  147.9380 O   0  0  0  0  0  0  0  0  0  0  0  0
  189.8260  177.0140  145.7680 C   0  0  1  0  0  3  0  0  0  0  0  0
  186.2970  176.7960  146.5080 C   0  0  0  0  0  2  0  0  0  0  0  0
  188.3670  177.3030  142.2180 C   0  0  0  0  0  1  0  0  0  0  0  0
  194.5970  176.5110  144.6260 C   0  0  0  0  0  2  0  0  0  0  0  0
  193.1780  176.3210  144.1480 C   0  0  0  0  0  0  0  0  0  0  0  0
  187.9990  176.2720  143.2730 C   0  0  2  0  0  3  0  0  0  0  0  0
  190.1220  172.8290  140.4070 C   0  0  0  0  0  2  0  0  0  0  0  0
  190.4410  170.7750  141.7490 C   0  0  0  0  0  1  0  0  0  0  0  0
  191.1390  171.8210  140.9060 C   0  0  0  0  0  2  0  0  0  0  0  0
  1  5  1  1  0  0  0
  1 19  1  0  0  0  0
  1  4  1  0  0  0  0
  2 13  1  0  0  0  0
  2 19  1  0  0  0  0
  3 10  1  0  0  0  0
  4 20  1  0  0  0  0
  6  8  2  0  0  0  0
  7 15  1  0  0  0  0
  7  9  1  0  0  0  0
  8 12  1  0  0  0  0
  9 22  1  0  0  0  0
  9 14  1  0  0  0  0
 10 21  2  0  0  0  0
 11  5  1  0  0  0  0
 11  8  1  0  0  0  0
 12  4  1  0  0  0  0
 13 18  2  0  0  0  0
 15 23  1  0  0  0  0
 16  2  2  0  0  0  0
 17  3  1  0  0  0  0
 18 25  1  0  0  0  0
 19 26  2  0  0  0  0
 20 17  1  0  0  0  0
 20 22  1  0  0  0  0
 22 10  1  0  0  0  0
 23 14  1  0  0  0  0
 24 27  1  0  0  0  0
 26 25  1  0  0  0  0
 26 17  1  0  0  0  0
 27 12  1  0  0  0  0
 27  7  1  0  0  0  0
 28 30  1  0  0  0  0
 28 11  1  0  0  0  0
 30 29  1  0  0  0  0
M  END
>  <MODEL>
7

>  <REMARK>
 VINA RESULT:      -7.5      2.424      5.310
  Name = 
  2 active torsions:
  status: ('A' for Active; 'I' for Inactive)
    1  A    between atoms: C_11  and  C_28
    2  A    between atoms: C_28  and  C_30
                            x       y       z     vdW  Elec       q    Type
                         _______ _______ _______ _____ _____    ______ ____

>  <TORSDO>
F 2

$$$$
=
 OpenBabel11112416253D

 30 35  0  0  1  0  0  0  0  0999 V2000
  188.3070  176.6580  143.6550 C   0  0  2  0  0  3  0  0  0  0  0  0
  186.5470  178.0540  142.3530 C   0  0  0  0  0  0  0  0  0  0  0  0
  188.4330  174.0000  140.8310 O   0  0  0  0  0  0  0  0  0  0  0  0
  188.9710  175.2720  143.6200 C   0  0  2  0  0  3  0  0  0  0  0  0
  187.4510  176.7160  144.7680 O   0  0  0  0  0  0  0  0  0  0  0  0
  189.3720  175.3390  147.2920 O   0  0  0  0  0  0  0  0  0  0  0  0
  191.7600  173.7770  144.0720 C   0  0  2  0  0  3  0  0  0  0  0  0
  189.0960  175.6860  146.1520 C   0  0  0  0  0  0  0  0  0  0  0  0
  190.7240  172.9960  143.3960 N   0  0  2  0  0  0  0  0  0  0  0  0
  189.2710  173.0560  141.3880 C   0  0  0  0  0  0  0  0  0  0  0  0
  188.2700  176.9220  145.8910 C   0  0  2  0  0  3  0  0  0  0  0  0
  189.6450  174.9120  144.9800 C   0  0  2  0  0  3  0  0  0  0  0  0
  185.9430  178.4380  141.1160 N   0  0  0  0  0  0  0  0  0  0  0  0
  191.3940  171.7390  143.0800 C   0  0  0  0  0  2  0  0  0  0  0  0
  192.6190  172.8110  144.8520 C   0  0  0  0  0  2  0  0  0  0  0  0
  186.2630  178.6970  143.3980 O   0  0  0  0  0  0  0  0  0  0  0  0
  188.9290  175.2960  141.1170 C   0  0  2  0  0  3  0  0  0  0  0  0
  186.1640  177.7910  140.0140 C   0  0  0  0  0  3  0  0  0  0  0  0
  187.5330  176.9470  142.3840 C   0  0  0  0  0  0  0  0  0  0  0  0
  189.8370  175.1210  142.3480 C   0  0  2  0  0  3  0  0  0  0  0  0
  189.1180  171.8180  141.2140 O   0  0  0  0  0  0  0  0  0  0  0  0
  190.3900  173.6860  142.1440 C   0  0  1  0  0  3  0  0  0  0  0  0
  192.4370  171.4880  144.1500 C   0  0  0  0  0  2  0  0  0  0  0  0
  191.8090  176.2070  144.6830 C   0  0  0  0  0  1  0  0  0  0  0  0
  187.0240  176.5600  139.9690 C   0  0  0  0  0  2  0  0  0  0  0  0
  187.8260  176.3180  141.2240 C   0  0  0  0  0  0  0  0  0  0  0  0
  191.1810  174.8570  144.9920 C   0  0  2  0  0  3  0  0  0  0  0  0
  187.4020  177.2850  147.0900 C   0  0  0  0  0  2  0  0  0  0  0  0
  185.3370  178.5870  146.6940 C   0  0  0  0  0  1  0  0  0  0  0  0
  185.9350  177.1960  146.7190 C   0  0  0  0  0  2  0  0  0  0  0  0
  1 19  1  6  0  0  0
  1  5  1  0  0  0  0
  2 19  1  0  0  0  0
  2 16  2  0  0  0  0
  3 17  1  0  0  0  0
  3 10  1  0  0  0  0
  4  1  1  0  0  0  0
  4 12  1  0  0  0  0
  5 11  1  0  0  0  0
  7 15  1  0  0  0  0
  7 27  1  0  0  0  0
  8  6  2  0  0  0  0
  9  7  1  0  0  0  0
 10 22  1  0  0  0  0
 11  8  1  0  0  0  0
 11 28  1  0  0  0  0
 12 27  1  0  0  0  0
 12  8  1  0  0  0  0
 13  2  1  0  0  0  0
 14  9  1  0  0  0  0
 14 23  1  0  0  0  0
 17 26  1  0  0  0  0
 17 20  1  0  0  0  0
 18 13  2  0  0  0  0
 20  4  1  0  0  0  0
 21 10  2  0  0  0  0
 22 20  1  0  0  0  0
 22  9  1  0  0  0  0
 23 15  1  0  0  0  0
 24 27  1  0  0  0  0
 25 18  1  0  0  0  0
 25 26  1  0  0  0  0
 26 19  2  0  0  0  0
 29 30  1  0  0  0  0
 30 28  1  0  0  0  0
M  END
>  <MODEL>
8

>  <REMARK>
 VINA RESULT:      -7.5      1.947      5.828
  Name = 
  2 active torsions:
  status: ('A' for Active; 'I' for Inactive)
    1  A    between atoms: C_11  and  C_28
    2  A    between atoms: C_28  and  C_30
                            x       y       z     vdW  Elec       q    Type
                         _______ _______ _______ _____ _____    ______ ____

>  <TORSDO>
F 2

$$$$
=
 OpenBabel11112416253D

 30 35  0  0  1  0  0  0  0  0999 V2000
  188.9220  177.1280  145.5690 C   0  0  2  0  0  3  0  0  0  0  0  0
  186.7540  178.0700  146.6420 C   0  0  0  0  0  0  0  0  0  0  0  0
  186.8830  175.2370  142.8640 O   0  0  0  0  0  0  0  0  0  0  0  0
  189.3670  176.0760  144.5410 C   0  0  2  0  0  3  0  0  0  0  0  0
  189.3010  176.6890  146.8500 O   0  0  0  0  0  0  0  0  0  0  0  0
  192.5430  175.5920  146.3630 O   0  0  0  0  0  0  0  0  0  0  0  0
  191.4740  175.5440  142.1960 C   0  0  2  0  0  3  0  0  0  0  0  0
  191.4470  176.0310  146.0470 C   0  0  0  0  0  0  0  0  0  0  0  0
  190.3580  174.6010  142.2720 N   0  0  2  0  0  0  0  0  0  0  0  0
  187.8800  174.5420  142.2120 C   0  0  0  0  0  0  0  0  0  0  0  0
  190.6770  176.9460  146.9690 C   0  0  2  0  0  3  0  0  0  0  0  0
  190.8780  175.7170  144.6860 C   0  0  2  0  0  3  0  0  0  0  0  0
  185.3820  178.4520  146.5230 N   0  0  0  0  0  0  0  0  0  0  0  0
  190.5730  173.7220  141.1270 C   0  0  0  0  0  2  0  0  0  0  0  0
  192.6640  174.7950  141.6470 C   0  0  0  0  0  2  0  0  0  0  0  0
  187.3850  178.3760  147.6870 O   0  0  0  0  0  0  0  0  0  0  0  0
  187.3350  176.5480  143.1550 C   0  0  2  0  0  3  0  0  0  0  0  0
  184.6660  178.1320  145.4900 C   0  0  0  0  0  3  0  0  0  0  0  0
  187.4270  177.3720  145.5200 C   0  0  0  0  0  0  0  0  0  0  0  0
  188.8730  176.4620  143.1270 C   0  0  2  0  0  3  0  0  0  0  0  0
  187.7180  173.3800  141.7570 O   0  0  0  0  0  0  0  0  0  0  0  0
  189.1180  175.3590  142.0640 C   0  0  1  0  0  3  0  0  0  0  0  0
  192.0660  173.6420  140.8810 C   0  0  0  0  0  2  0  0  0  0  0  0
  191.8580  177.6930  143.4270 C   0  0  0  0  0  1  0  0  0  0  0  0
  185.2110  177.2920  144.3710 C   0  0  0  0  0  2  0  0  0  0  0  0
  186.7070  177.1030  144.4080 C   0  0  0  0  0  0  0  0  0  0  0  0
  191.8060  176.1780  143.5500 C   0  0  2  0  0  3  0  0  0  0  0  0
  191.1000  176.7680  148.4220 C   0  0  0  0  0  2  0  0  0  0  0  0
  191.5860  177.9200  150.5570 C   0  0  0  0  0  1  0  0  0  0  0  0
  191.1970  178.1170  149.1070 C   0  0  0  0  0  2  0  0  0  0  0  0
  1 19  1  1  0  0  0
  1  5  1  0  0  0  0
  2 16  2  0  0  0  0
  3 17  1  0  0  0  0
  4 12  1  0  0  0  0
  4  1  1  0  0  0  0
  5 11  1  0  0  0  0
  7  9  1  0  0  0  0
  7 27  1  0  0  0  0
  8  6  2  0  0  0  0
  8 11  1  0  0  0  0
 10  3  1  0  0  0  0
 11 28  1  0  0  0  0
 12  8  1  0  0  0  0
 13  2  1  0  0  0  0
 14  9  1  0  0  0  0
 15  7  1  0  0  0  0
 17 26  1  0  0  0  0
 18 13  2  0  0  0  0
 19  2  1  0  0  0  0
 20 17  1  0  0  0  0
 20  4  1  0  0  0  0
 21 10  2  0  0  0  0
 22 10  1  0  0  0  0
 22  9  1  0  0  0  0
 22 20  1  0  0  0  0
 23 14  1  0  0  0  0
 23 15  1  0  0  0  0
 24 27  1  0  0  0  0
 25 26  1  0  0  0  0
 25 18  1  0  0  0  0
 26 19  2  0  0  0  0
 27 12  1  0  0  0  0
 28 30  1  0  0  0  0
 30 29  1  0  0  0  0
M  END
>  <MODEL>
9

>  <REMARK>
 VINA RESULT:      -7.4      2.137      5.368
  Name = 
  2 active torsions:
  status: ('A' for Active; 'I' for Inactive)
    1  A    between atoms: C_11  and  C_28
    2  A    between atoms: C_28  and  C_30
                            x       y       z     vdW  Elec       q    Type
                         _______ _______ _______ _____ _____    ______ ____

>  <TORSDO>
F 2

$$$$
