=
 OpenBabel11112416343D

 32 37  0  0  1  0  0  0  0  0999 V2000
  190.1370  173.0350  138.0840 C   0  0  0  0  0  2  0  0  0  0  0  0
  188.5870  175.2500  142.9740 C   0  0  0  0  0  0  0  0  0  0  0  0
  192.0220  174.8940  146.4160 C   0  0  0  0  0  3  0  0  0  0  0  0
  191.3010  175.9410  147.2190 C   0  0  0  0  0  2  0  0  0  0  0  0
  186.5320  176.6830  143.4240 C   0  0  0  0  0  0  0  0  0  0  0  0
  185.7660  177.4750  144.3820 C   0  0  0  0  0  0  0  0  0  0  0  0
  189.0900  174.1860  140.7980 C   0  0  0  0  0  0  0  0  0  0  0  0
  190.7120  173.9930  142.5680 N   0  0  0  0  0  2  0  0  0  0  0  0
  185.1700  178.3890  146.3050 N   0  0  0  0  0  0  0  0  0  0  0  0
  191.2140  172.8930  140.3720 C   0  0  0  0  0  2  0  0  0  0  0  0
  191.5490  174.4800  145.2370 C   0  0  0  0  0  3  0  0  0  0  0  0
  189.8770  174.7350  143.4660 C   0  0  0  0  0  0  0  0  0  0  0  0
  190.2520  174.9700  144.7270 C   0  0  0  0  0  0  0  0  0  0  0  0
  188.1730  176.1960  145.2490 C   0  0  0  0  0  0  0  0  0  0  0  0
  184.1600  178.8470  145.4420 N   0  0  0  0  0  0  0  0  0  0  0  0
  188.9840  172.7910  138.8520 O   0  0  0  0  0  0  0  0  0  0  0  0
  190.3010  173.7400  141.2190 C   0  0  0  0  0  0  0  0  0  0  0  0
  184.5200  178.2620  144.1370 C   0  0  0  0  0  3  0  0  0  0  0  0
  188.5970  174.0270  139.3850 C   0  0  0  0  0  2  0  0  0  0  0  0
  191.3490  173.4220  138.9450 C   0  0  1  0  0  3  0  0  0  0  0  0
  189.7850  175.7860  147.1070 C   0  0  0  0  0  2  0  0  0  0  0  0
  189.3600  175.7070  145.6610 C   0  0  0  0  0  0  0  0  0  0  0  0
  187.2670  176.8740  146.2620 C   0  0  0  0  0  2  0  0  0  0  0  0
  188.2360  174.9760  141.7100 C   0  0  0  0  0  3  0  0  0  0  0  0
  186.1270  176.5960  142.2340 O   0  0  0  0  0  0  0  0  0  0  0  0
  185.2050  178.7130  147.7190 C   0  0  0  0  0  1  0  0  0  0  0  0
  187.7500  176.0310  143.8640 N   0  0  0  0  0  0  0  0  0  0  0  0
  186.1080  177.5830  145.6320 C   0  0  0  0  0  0  0  0  0  0  0  0
  192.5600  172.9030  138.3300 N   0  0  0  0  0  2  0  0  0  0  0  0
  193.7770  173.6490  138.2950 C   0  0  0  0  0  0  0  0  0  0  0  0
  193.8390  174.9270  138.8370 O   0  0  0  0  0  1  0  0  0  0  0  0
  194.8020  173.1460  137.7660 O   0  0  0  0  0  0  0  0  0  0  0  0
  1 16  1  0  0  0  0
  1 20  1  0  0  0  0
  2 12  1  0  0  0  0
  2 27  1  0  0  0  0
  3  4  1  0  0  0  0
  5 27  1  0  0  0  0
  5  6  1  0  0  0  0
  6 28  2  0  0  0  0
  7 17  2  0  0  0  0
  7 24  1  0  0  0  0
  8 12  1  0  0  0  0
  9 26  1  0  0  0  0
 10 17  1  0  0  0  0
 11  3  2  0  0  0  0
 12 13  2  0  0  0  0
 13 11  1  0  0  0  0
 13 22  1  0  0  0  0
 14 22  2  0  0  0  0
 14 23  1  0  0  0  0
 15  9  1  0  0  0  0
 16 19  1  0  0  0  0
 17  8  1  0  0  0  0
 18  6  1  0  0  0  0
 18 15  2  0  0  0  0
 19  7  1  0  0  0  0
 20 29  1  6  0  0  0
 20 10  1  0  0  0  0
 21  4  1  0  0  0  0
 22 21  1  0  0  0  0
 24  2  2  0  0  0  0
 25  5  2  0  0  0  0
 27 14  1  0  0  0  0
 28 23  1  0  0  0  0
 28  9  1  0  0  0  0
 30 29  1  0  0  0  0
 30 31  1  0  0  0  0
 32 30  2  0  0  0  0
M  END
>  <MODEL>
1

>  <REMARK>
 VINA RESULT:      -8.5      0.000      0.000
  Name = 
  1 active torsions:
  status: ('A' for Active; 'I' for Inactive)
    1  A    between atoms: C_20  and  N_29
                            x       y       z     vdW  Elec       q    Type
                         _______ _______ _______ _____ _____    ______ ____

>  <TORSDO>
F 1

$$$$
=
 OpenBabel11112416343D

 32 37  0  0  1  0  0  0  0  0999 V2000
  192.9200  175.0130  143.0000 C   0  0  0  0  0  2  0  0  0  0  0  0
  187.7300  176.9680  143.6770 C   0  0  2  0  0  3  0  0  0  0  0  0
  186.9030  178.7040  148.1570 C   0  0  0  0  0  3  0  0  0  0  0  0
  185.6840  179.4160  147.6380 C   0  0  0  0  0  2  0  0  0  0  0  0
  185.9930  177.3650  141.8590 C   0  0  0  0  0  0  0  0  0  0  0  0
  184.6620  177.8540  141.5090 C   0  0  0  0  0  0  0  0  0  0  0  0
  189.9470  175.9450  143.2810 C   0  0  0  0  0  0  0  0  0  0  0  0
  189.4420  176.7630  145.4890 N   0  0  0  0  0  0  0  0  0  0  0  0
  182.6210  178.6660  141.7660 N   0  0  0  0  0  0  0  0  0  0  0  0
  191.6810  175.7060  145.0970 C   0  0  0  0  0  2  0  0  0  0  0  0
  187.6610  177.9560  147.3520 C   0  0  0  0  0  3  0  0  0  0  0  0
  188.1300  177.1690  145.0810 C   0  0  0  0  0  0  0  0  0  0  0  0
  187.2760  177.7270  145.9450 C   0  0  0  0  0  0  0  0  0  0  0  0
  185.4990  177.9410  144.2420 C   0  0  0  0  0  0  0  0  0  0  0  0
  182.6890  178.4880  140.3730 N   0  0  0  0  0  0  0  0  0  0  0  0
  191.6870  174.3880  142.7400 O   0  0  0  0  0  0  0  0  0  0  0  0
  190.3490  176.1610  144.5590 C   0  0  0  0  0  0  0  0  0  0  0  0
  184.0430  177.9470  140.1530 C   0  0  0  0  0  3  0  0  0  0  0  0
  190.8460  175.3780  142.2160 C   0  0  0  0  0  2  0  0  0  0  0  0
  192.8370  176.0270  144.1520 C   0  0  1  0  0  3  0  0  0  0  0  0
  184.9510  178.5770  146.5910 C   0  0  0  0  0  2  0  0  0  0  0  0
  185.9030  178.1070  145.5190 C   0  0  0  0  0  0  0  0  0  0  0  0
  184.0630  178.2740  143.8790 C   0  0  0  0  0  2  0  0  0  0  0  0
  188.6050  176.3860  142.8450 C   0  0  0  0  0  3  0  0  0  0  0  0
  186.7480  176.9330  140.9470 O   0  0  0  0  0  0  0  0  0  0  0  0
  181.4390  179.1710  142.4400 C   0  0  0  0  0  1  0  0  0  0  0  0
  186.4150  177.4050  143.2450 N   0  0  0  0  0  0  0  0  0  0  0  0
  183.8180  178.2830  142.4020 C   0  0  0  0  0  0  0  0  0  0  0  0
  194.0960  176.0290  144.8800 N   0  0  0  0  0  2  0  0  0  0  0  0
  194.5960  174.8660  145.5400 C   0  0  0  0  0  0  0  0  0  0  0  0
  193.8740  173.6790  145.5250 O   0  0  0  0  0  0  0  0  0  0  0  0
  195.7000  174.9160  146.1420 O   0  0  0  0  0  1  0  0  0  0  0  0
  1 20  1  0  0  0  0
  2 24  1  6  0  0  0
  2 12  1  0  0  0  0
  4  3  1  0  0  0  0
  5 27  1  0  0  0  0
  6  5  1  0  0  0  0
  6 28  2  0  0  0  0
  7 17  1  0  0  0  0
  9 28  1  0  0  0  0
  9 26  1  0  0  0  0
 11  3  2  0  0  0  0
 12  8  1  0  0  0  0
 12 13  2  0  0  0  0
 13 11  1  0  0  0  0
 14 22  2  0  0  0  0
 15  9  1  0  0  0  0
 16  1  1  0  0  0  0
 17 10  1  0  0  0  0
 17  8  2  0  0  0  0
 18 15  2  0  0  0  0
 18  6  1  0  0  0  0
 19 16  1  0  0  0  0
 19  7  1  0  0  0  0
 20 29  1  1  0  0  0
 20 10  1  0  0  0  0
 21  4  1  0  0  0  0
 22 13  1  0  0  0  0
 22 21  1  0  0  0  0
 23 14  1  0  0  0  0
 24  7  2  0  0  0  0
 25  5  2  0  0  0  0
 27  2  1  0  0  0  0
 27 14  1  0  0  0  0
 28 23  1  0  0  0  0
 29 30  1  0  0  0  0
 30 32  1  0  0  0  0
 31 30  2  0  0  0  0
M  END
>  <MODEL>
2

>  <REMARK>
 VINA RESULT:      -8.3      3.125      5.002
  Name = 
  1 active torsions:
  status: ('A' for Active; 'I' for Inactive)
    1  A    between atoms: C_20  and  N_29
                            x       y       z     vdW  Elec       q    Type
                         _______ _______ _______ _____ _____    ______ ____

>  <TORSDO>
F 1

$$$$
=
 OpenBabel11112416343D

 32 37  0  0  1  0  0  0  0  0999 V2000
  185.5800  178.4220  144.6650 C   0  0  0  0  0  2  0  0  0  0  0  0
  190.0960  175.2230  143.9010 C   0  0  0  0  0  0  0  0  0  0  0  0
  189.6890  172.2090  140.0910 C   0  0  0  0  0  3  0  0  0  0  0  0
  191.1780  172.0030  140.1160 C   0  0  0  0  0  2  0  0  0  0  0  0
  192.3530  175.4590  145.0530 C   0  0  0  0  0  0  0  0  0  0  0  0
  193.7310  174.9910  145.1760 C   0  0  0  0  0  0  0  0  0  0  0  0
  188.1120  176.6000  144.4370 C   0  0  0  0  0  0  0  0  0  0  0  0
  187.9610  175.0390  142.6090 N   0  0  0  0  0  2  0  0  0  0  0  0
  195.5340  173.7540  144.8470 N   0  0  0  0  0  0  0  0  0  0  0  0
  185.9410  176.4160  143.1630 C   0  0  0  0  0  2  0  0  0  0  0  0
  189.0860  173.0040  140.9790 C   0  0  0  0  0  3  0  0  0  0  0  0
  189.3070  174.5950  142.8270 C   0  0  0  0  0  0  0  0  0  0  0  0
  189.8510  173.6340  142.0730 C   0  0  0  0  0  0  0  0  0  0  0  0
  191.9890  173.7050  143.3070 C   0  0  0  0  0  0  0  0  0  0  0  0
  195.9920  174.6880  145.7930 N   0  0  0  0  0  0  0  0  0  0  0  0
  186.2500  177.5870  145.5770 O   0  0  0  0  0  0  0  0  0  0  0  0
  187.3830  176.0640  143.4250 C   0  0  0  0  0  0  0  0  0  0  0  0
  194.8160  175.5420  146.0420 C   0  0  0  0  0  3  0  0  0  0  0  0
  187.6160  177.7240  145.3060 C   0  0  0  0  0  2  0  0  0  0  0  0
  185.6850  177.9210  143.2170 C   0  0  1  0  0  3  0  0  0  0  0  0
  191.7120  171.9590  141.5480 C   0  0  0  0  0  2  0  0  0  0  0  0
  191.2330  173.1550  142.3350 C   0  0  0  0  0  0  0  0  0  0  0  0
  193.3660  173.1260  143.5820 C   0  0  0  0  0  2  0  0  0  0  0  0
  189.5090  176.1670  144.6490 C   0  0  0  0  0  3  0  0  0  0  0  0
  191.9690  176.4300  145.7580 O   0  0  0  0  0  0  0  0  0  0  0  0
  196.3700  172.6920  144.3190 C   0  0  0  0  0  1  0  0  0  0  0  0
  191.4690  174.8050  144.1090 N   0  0  0  0  0  0  0  0  0  0  0  0
  194.1870  173.9760  144.5020 C   0  0  0  0  0  0  0  0  0  0  0  0
  184.4590  178.2460  142.5060 N   0  0  0  0  0  2  0  0  0  0  0  0
  184.3950  178.2910  141.0800 C   0  0  0  0  0  0  0  0  0  0  0  0
  185.5260  178.0420  140.3130 O   0  0  0  0  0  0  0  0  0  0  0  0
  183.3040  178.5600  140.5130 O   0  0  0  0  0  1  0  0  0  0  0  0
  1 16  1  0  0  0  0
  2 27  1  0  0  0  0
  2 24  2  0  0  0  0
  3  4  1  0  0  0  0
  3 11  2  0  0  0  0
  4 21  1  0  0  0  0
  5  6  1  0  0  0  0
  5 25  2  0  0  0  0
  6 18  1  0  0  0  0
  7 24  1  0  0  0  0
  7 19  1  0  0  0  0
  8 12  1  0  0  0  0
  8 17  1  0  0  0  0
  9 15  1  0  0  0  0
 10 20  1  0  0  0  0
 10 17  1  0  0  0  0
 11 13  1  0  0  0  0
 12  2  1  0  0  0  0
 13 22  1  0  0  0  0
 13 12  2  0  0  0  0
 14 23  1  0  0  0  0
 14 27  1  0  0  0  0
 15 18  2  0  0  0  0
 17  7  2  0  0  0  0
 19 16  1  0  0  0  0
 20 29  1  6  0  0  0
 20  1  1  0  0  0  0
 21 22  1  0  0  0  0
 22 14  2  0  0  0  0
 23 28  1  0  0  0  0
 26  9  1  0  0  0  0
 27  5  1  0  0  0  0
 28  9  1  0  0  0  0
 28  6  2  0  0  0  0
 30 29  1  0  0  0  0
 31 30  2  0  0  0  0
 32 30  1  0  0  0  0
M  END
>  <MODEL>
3

>  <REMARK>
 VINA RESULT:      -8.2      3.162      7.934
  Name = 
  1 active torsions:
  status: ('A' for Active; 'I' for Inactive)
    1  A    between atoms: C_20  and  N_29
                            x       y       z     vdW  Elec       q    Type
                         _______ _______ _______ _____ _____    ______ ____

>  <TORSDO>
F 1

$$$$
=
 OpenBabel11112416343D

 32 37  0  0  1  0  0  0  0  0999 V2000
  185.6190  178.3470  144.7420 C   0  0  0  0  0  2  0  0  0  0  0  0
  190.2700  175.7250  143.0970 C   0  0  0  0  0  0  0  0  0  0  0  0
  189.5450  172.7180  139.3280 C   0  0  0  0  0  3  0  0  0  0  0  0
  191.0290  172.6940  139.0840 C   0  0  0  0  0  2  0  0  0  0  0  0
  192.6530  176.2220  143.8390 C   0  0  0  0  0  0  0  0  0  0  0  0
  194.0760  175.9230  143.7030 C   0  0  0  0  0  0  0  0  0  0  0  0
  188.2650  176.8460  144.0150 C   0  0  0  0  0  0  0  0  0  0  0  0
  187.9750  175.2950  142.1960 N   0  0  0  0  0  2  0  0  0  0  0  0
  195.9240  174.9170  143.0240 N   0  0  0  0  0  0  0  0  0  0  0  0
  185.9400  176.4120  143.1390 C   0  0  0  0  0  2  0  0  0  0  0  0
  189.0220  173.4260  140.3320 C   0  0  0  0  0  3  0  0  0  0  0  0
  189.3810  175.0160  142.1600 C   0  0  0  0  0  0  0  0  0  0  0  0
  189.8910  174.1350  141.2930 C   0  0  0  0  0  0  0  0  0  0  0  0
  192.1920  174.4530  142.1320 C   0  0  0  0  0  0  0  0  0  0  0  0
  196.4310  175.8900  143.9020 N   0  0  0  0  0  0  0  0  0  0  0  0
  186.5340  177.5910  145.4960 O   0  0  0  0  0  0  0  0  0  0  0  0
  187.4360  176.2350  143.1320 C   0  0  0  0  0  0  0  0  0  0  0  0
  195.2260  176.5930  144.3800 C   0  0  0  0  0  3  0  0  0  0  0  0
  187.8050  177.8940  144.9920 C   0  0  0  0  0  2  0  0  0  0  0  0
  185.5220  177.8750  143.2830 C   0  0  1  0  0  3  0  0  0  0  0  0
  191.8120  172.7020  140.3970 C   0  0  0  0  0  2  0  0  0  0  0  0
  191.3440  173.8240  141.2920 C   0  0  0  0  0  0  0  0  0  0  0  0
  193.6540  174.0420  142.1430 C   0  0  0  0  0  2  0  0  0  0  0  0
  189.7190  176.5840  143.9650 C   0  0  0  0  0  3  0  0  0  0  0  0
  192.2890  177.1330  144.6300 O   0  0  0  0  0  0  0  0  0  0  0  0
  196.7710  173.9680  142.3250 C   0  0  0  0  0  1  0  0  0  0  0  0
  191.6980  175.4740  143.0460 N   0  0  0  0  0  0  0  0  0  0  0  0
  194.5200  174.9760  142.9290 C   0  0  0  0  0  0  0  0  0  0  0  0
  184.1590  178.0560  142.8090 N   0  0  0  0  0  2  0  0  0  0  0  0
  183.8550  178.2810  141.4330 C   0  0  0  0  0  0  0  0  0  0  0  0
  184.8710  178.3580  140.4870 O   0  0  0  0  0  0  0  0  0  0  0  0
  182.6570  178.4140  141.0720 O   0  0  0  0  0  1  0  0  0  0  0  0
  1 16  1  0  0  0  0
  2 24  2  0  0  0  0
  3 11  2  0  0  0  0
  4  3  1  0  0  0  0
  4 21  1  0  0  0  0
  5 25  2  0  0  0  0
  6  5  1  0  0  0  0
  6 18  1  0  0  0  0
  7 19  1  0  0  0  0
  8 17  1  0  0  0  0
  9 15  1  0  0  0  0
 10 20  1  0  0  0  0
 11 13  1  0  0  0  0
 12  8  1  0  0  0  0
 12  2  1  0  0  0  0
 13 12  2  0  0  0  0
 14 23  1  0  0  0  0
 14 27  1  0  0  0  0
 15 18  2  0  0  0  0
 17 10  1  0  0  0  0
 17  7  2  0  0  0  0
 19 16  1  0  0  0  0
 20 29  1  1  0  0  0
 20  1  1  0  0  0  0
 21 22  1  0  0  0  0
 22 13  1  0  0  0  0
 22 14  2  0  0  0  0
 23 28  1  0  0  0  0
 24  7  1  0  0  0  0
 26  9  1  0  0  0  0
 27  2  1  0  0  0  0
 27  5  1  0  0  0  0
 28  9  1  0  0  0  0
 28  6  2  0  0  0  0
 30 29  1  0  0  0  0
 31 30  2  0  0  0  0
 32 30  1  0  0  0  0
M  END
>  <MODEL>
4

>  <REMARK>
 VINA RESULT:      -8.1      3.108      8.182
  Name = 
  1 active torsions:
  status: ('A' for Active; 'I' for Inactive)
    1  A    between atoms: C_20  and  N_29
                            x       y       z     vdW  Elec       q    Type
                         _______ _______ _______ _____ _____    ______ ____

>  <TORSDO>
F 1

$$$$
=
 OpenBabel11112416343D

 32 37  0  0  1  0  0  0  0  0999 V2000
  195.3160  175.2910  146.1380 C   0  0  0  0  0  2  0  0  0  0  0  0
  190.4830  175.9360  143.4100 C   0  0  0  0  0  0  0  0  0  0  0  0
  189.8800  172.7270  139.7890 C   0  0  0  0  0  3  0  0  0  0  0  0
  188.4130  173.0530  139.7670 C   0  0  0  0  0  2  0  0  0  0  0  0
  188.5220  177.4080  144.0940 C   0  0  0  0  0  0  0  0  0  0  0  0
  187.1600  177.8570  143.8170 C   0  0  0  0  0  0  0  0  0  0  0  0
  192.6430  175.8510  144.6130 C   0  0  0  0  0  0  0  0  0  0  0  0
  192.3000  174.3400  142.7680 N   0  0  0  0  0  2  0  0  0  0  0  0
  185.2300  178.0840  142.7640 N   0  0  0  0  0  0  0  0  0  0  0  0
  194.4990  174.2670  143.9700 C   0  0  0  0  0  2  0  0  0  0  0  0
  190.7110  173.3330  140.6420 C   0  0  0  0  0  3  0  0  0  0  0  0
  190.9910  174.8710  142.5270 C   0  0  0  0  0  0  0  0  0  0  0  0
  190.2300  174.4130  141.5280 C   0  0  0  0  0  0  0  0  0  0  0  0
  188.3880  175.9740  142.0490 C   0  0  0  0  0  0  0  0  0  0  0  0
  185.0470  178.9110  143.8860 N   0  0  0  0  0  0  0  0  0  0  0  0
  194.7690  176.4440  145.5460 O   0  0  0  0  0  0  0  0  0  0  0  0
  193.1120  174.8400  143.8380 C   0  0  0  0  0  0  0  0  0  0  0  0
  186.3170  178.7870  144.6250 C   0  0  0  0  0  3  0  0  0  0  0  0
  193.3920  176.3990  145.7970 C   0  0  0  0  0  2  0  0  0  0  0  0
  194.8870  174.0000  145.4230 C   0  0  1  0  0  3  0  0  0  0  0  0
  188.1670  174.5410  140.0200 C   0  0  0  0  0  2  0  0  0  0  0  0
  188.8900  174.9990  141.2630 C   0  0  0  0  0  0  0  0  0  0  0  0
  187.0480  176.5900  141.6880 C   0  0  0  0  0  2  0  0  0  0  0  0
  191.2830  176.3840  144.3880 C   0  0  0  0  0  3  0  0  0  0  0  0
  189.1190  177.8450  145.1150 O   0  0  0  0  0  0  0  0  0  0  0  0
  184.2200  177.9160  141.7350 C   0  0  0  0  0  1  0  0  0  0  0  0
  189.1460  176.4570  143.1950 N   0  0  0  0  0  0  0  0  0  0  0  0
  186.4980  177.4710  142.7660 C   0  0  0  0  0  0  0  0  0  0  0  0
  195.9740  173.0350  145.4830 N   0  0  0  0  0  2  0  0  0  0  0  0
  195.7410  171.6350  145.6380 C   0  0  0  0  0  0  0  0  0  0  0  0
  194.4480  171.1420  145.7630 O   0  0  0  0  0  1  0  0  0  0  0  0
  196.7160  170.8390  145.6660 O   0  0  0  0  0  0  0  0  0  0  0  0
  2 24  2  0  0  0  0
  3 11  2  0  0  0  0
  4  3  1  0  0  0  0
  4 21  1  0  0  0  0
  5 25  2  0  0  0  0
  6  5  1  0  0  0  0
  6 18  1  0  0  0  0
  7 19  1  0  0  0  0
  8 17  1  0  0  0  0
  9 28  1  0  0  0  0
  9 15  1  0  0  0  0
 10 20  1  0  0  0  0
 11 13  1  0  0  0  0
 12  8  1  0  0  0  0
 12  2  1  0  0  0  0
 13 12  2  0  0  0  0
 14 27  1  0  0  0  0
 15 18  2  0  0  0  0
 16 19  1  0  0  0  0
 16  1  1  0  0  0  0
 17 10  1  0  0  0  0
 17  7  2  0  0  0  0
 20 29  1  6  0  0  0
 20  1  1  0  0  0  0
 21 22  1  0  0  0  0
 22 13  1  0  0  0  0
 22 14  2  0  0  0  0
 23 14  1  0  0  0  0
 23 28  1  0  0  0  0
 24  7  1  0  0  0  0
 26  9  1  0  0  0  0
 27  2  1  0  0  0  0
 27  5  1  0  0  0  0
 28  6  2  0  0  0  0
 29 30  1  0  0  0  0
 30 32  2  0  0  0  0
 30 31  1  0  0  0  0
M  END
>  <MODEL>
5

>  <REMARK>
 VINA RESULT:      -8.0      3.335      5.673
  Name = 
  1 active torsions:
  status: ('A' for Active; 'I' for Inactive)
    1  A    between atoms: C_20  and  N_29
                            x       y       z     vdW  Elec       q    Type
                         _______ _______ _______ _____ _____    ______ ____

>  <TORSDO>
F 1

$$$$
=
 OpenBabel11112416343D

 32 37  0  0  1  0  0  0  0  0999 V2000
  195.9900  174.5170  146.0240 C   0  0  0  0  0  2  0  0  0  0  0  0
  190.6470  175.8030  145.0200 C   0  0  0  0  0  0  0  0  0  0  0  0
  188.7650  173.3670  141.2400 C   0  0  0  0  0  3  0  0  0  0  0  0
  187.3850  173.7310  141.7140 C   0  0  0  0  0  2  0  0  0  0  0  0
  189.0950  177.1690  146.5050 C   0  0  0  0  0  0  0  0  0  0  0  0
  187.7520  177.6990  146.7300 C   0  0  0  0  0  0  0  0  0  0  0  0
  193.0470  175.4310  145.4890 C   0  0  0  0  0  0  0  0  0  0  0  0
  192.0640  174.3120  143.5960 N   0  0  0  0  0  2  0  0  0  0  0  0
  185.6260  178.1760  146.3580 N   0  0  0  0  0  0  0  0  0  0  0  0
  194.5020  173.9510  144.0550 C   0  0  0  0  0  2  0  0  0  0  0  0
  189.8520  173.7760  141.8980 C   0  0  0  0  0  3  0  0  0  0  0  0
  190.7890  174.9140  143.8530 C   0  0  0  0  0  0  0  0  0  0  0  0
  189.7380  174.6780  143.0620 C   0  0  0  0  0  0  0  0  0  0  0  0
  188.2590  176.1580  144.3750 C   0  0  0  0  0  0  0  0  0  0  0  0
  185.8420  178.7760  147.6100 N   0  0  0  0  0  0  0  0  0  0  0  0
  195.3930  175.7760  145.8350 O   0  0  0  0  0  0  0  0  0  0  0  0
  193.1870  174.5760  144.4450 C   0  0  0  0  0  0  0  0  0  0  0  0
  187.2570  178.4790  147.9040 C   0  0  0  0  0  3  0  0  0  0  0  0
  194.1480  175.7210  146.4730 C   0  0  0  0  0  2  0  0  0  0  0  0
  195.2690  173.3990  145.2550 C   0  0  1  0  0  3  0  0  0  0  0  0
  187.3460  175.1480  142.2850 C   0  0  0  0  0  2  0  0  0  0  0  0
  188.4310  175.3400  143.3160 C   0  0  0  0  0  0  0  0  0  0  0  0
  186.9280  176.8680  144.5440 C   0  0  0  0  0  2  0  0  0  0  0  0
  191.7280  176.0330  145.7770 C   0  0  0  0  0  3  0  0  0  0  0  0
  189.9930  177.3860  147.3610 O   0  0  0  0  0  0  0  0  0  0  0  0
  184.3520  178.2360  145.6650 C   0  0  0  0  0  1  0  0  0  0  0  0
  189.3520  176.3920  145.3090 N   0  0  0  0  0  0  0  0  0  0  0  0
  186.7860  177.5400  145.8750 C   0  0  0  0  0  0  0  0  0  0  0  0
  196.2430  172.4120  144.8170 N   0  0  0  0  0  2  0  0  0  0  0  0
  196.1770  171.0450  145.2240 C   0  0  0  0  0  0  0  0  0  0  0  0
  195.1770  170.6100  146.0860 O   0  0  0  0  0  1  0  0  0  0  0  0
  197.0350  170.2260  144.8020 O   0  0  0  0  0  0  0  0  0  0  0  0
  2 27  1  0  0  0  0
  2 24  2  0  0  0  0
  3  4  1  0  0  0  0
  3 11  2  0  0  0  0
  4 21  1  0  0  0  0
  5  6  1  0  0  0  0
  5 25  2  0  0  0  0
  6 18  1  0  0  0  0
  7 24  1  0  0  0  0
  7 19  1  0  0  0  0
  8 12  1  0  0  0  0
  8 17  1  0  0  0  0
  9 15  1  0  0  0  0
 10 17  1  0  0  0  0
 10 20  1  0  0  0  0
 11 13  1  0  0  0  0
 12  2  1  0  0  0  0
 13 22  1  0  0  0  0
 13 12  2  0  0  0  0
 14 23  1  0  0  0  0
 14 27  1  0  0  0  0
 15 18  2  0  0  0  0
 16  1  1  0  0  0  0
 16 19  1  0  0  0  0
 17  7  2  0  0  0  0
 20 29  1  6  0  0  0
 20  1  1  0  0  0  0
 21 22  1  0  0  0  0
 22 14  2  0  0  0  0
 23 28  1  0  0  0  0
 26  9  1  0  0  0  0
 27  5  1  0  0  0  0
 28  9  1  0  0  0  0
 28  6  2  0  0  0  0
 29 30  1  0  0  0  0
 30 31  1  0  0  0  0
 32 30  2  0  0  0  0
M  END
>  <MODEL>
6

>  <REMARK>
 VINA RESULT:      -8.0      3.470      5.511
  Name = 
  1 active torsions:
  status: ('A' for Active; 'I' for Inactive)
    1  A    between atoms: C_20  and  N_29
                            x       y       z     vdW  Elec       q    Type
                         _______ _______ _______ _____ _____    ______ ____

>  <TORSDO>
F 1

$$$$
=
 OpenBabel11112416343D

 32 37  0  0  1  0  0  0  0  0999 V2000
  192.1080  169.7680  141.6270 C   0  0  0  0  0  2  0  0  0  0  0  0
  189.4530  174.3040  143.5220 C   0  0  2  0  0  3  0  0  0  0  0  0
  191.1840  175.8950  147.7930 C   0  0  0  0  0  3  0  0  0  0  0  0
  190.4940  177.2110  147.5630 C   0  0  0  0  0  2  0  0  0  0  0  0
  187.7880  175.7490  142.2490 C   0  0  0  0  0  0  0  0  0  0  0  0
  186.9390  176.9370  142.2400 C   0  0  0  0  0  0  0  0  0  0  0  0
  190.4480  172.2200  142.6350 C   0  0  0  0  0  0  0  0  0  0  0  0
  191.2060  173.0300  144.7730 N   0  0  0  0  0  0  0  0  0  0  0  0
  185.9170  178.7560  142.9710 N   0  0  0  0  0  0  0  0  0  0  0  0
  192.2000  170.9060  143.8870 C   0  0  0  0  0  2  0  0  0  0  0  0
  191.0930  174.9020  146.9050 C   0  0  0  0  0  3  0  0  0  0  0  0
  190.3060  174.1440  144.7130 C   0  0  0  0  0  0  0  0  0  0  0  0
  190.2340  175.0320  145.7090 C   0  0  0  0  0  0  0  0  0  0  0  0
  188.4720  176.3440  144.5810 C   0  0  0  0  0  0  0  0  0  0  0  0
  185.4390  178.6650  141.6530 N   0  0  0  0  0  0  0  0  0  0  0  0
  190.7310  169.9860  141.8160 O   0  0  0  0  0  0  0  0  0  0  0  0
  191.2720  172.0790  143.7040 C   0  0  0  0  0  0  0  0  0  0  0  0
  186.1010  177.4600  141.1200 C   0  0  0  0  0  3  0  0  0  0  0  0
  190.4860  171.3110  141.4360 C   0  0  0  0  0  2  0  0  0  0  0  0
  192.9730  170.5650  142.6150 C   0  0  1  0  0  3  0  0  0  0  0  0
  189.1360  177.0200  146.8870 C   0  0  0  0  0  2  0  0  0  0  0  0
  189.2680  176.1600  145.6540 C   0  0  0  0  0  0  0  0  0  0  0  0
  187.4500  177.4660  144.6090 C   0  0  0  0  0  2  0  0  0  0  0  0
  189.5370  173.3810  142.5540 C   0  0  0  0  0  3  0  0  0  0  0  0
  187.8410  175.0230  141.2200 O   0  0  0  0  0  0  0  0  0  0  0  0
  185.5070  179.8030  143.8880 C   0  0  0  0  0  1  0  0  0  0  0  0
  188.5620  175.4460  143.4370 N   0  0  0  0  0  0  0  0  0  0  0  0
  186.8120  177.7130  143.2770 C   0  0  0  0  0  0  0  0  0  0  0  0
  194.1620  169.7930  142.9430 N   0  0  0  0  0  2  0  0  0  0  0  0
  195.4120  170.4110  143.2450 C   0  0  0  0  0  0  0  0  0  0  0  0
  195.5430  171.7950  143.2130 O   0  0  0  0  0  0  0  0  0  0  0  0
  196.4060  169.6980  143.5400 O   0  0  0  0  0  1  0  0  0  0  0  0
  1 16  1  0  0  0  0
  1 20  1  0  0  0  0
  2 24  1  6  0  0  0
  2 12  1  0  0  0  0
  4  3  1  0  0  0  0
  5 27  1  0  0  0  0
  6  5  1  0  0  0  0
  6 28  2  0  0  0  0
  7 17  1  0  0  0  0
  9 28  1  0  0  0  0
  9 26  1  0  0  0  0
 11  3  2  0  0  0  0
 12  8  1  0  0  0  0
 12 13  2  0  0  0  0
 13 11  1  0  0  0  0
 14 23  1  0  0  0  0
 14 22  2  0  0  0  0
 15  9  1  0  0  0  0
 17 10  1  0  0  0  0
 17  8  2  0  0  0  0
 18 15  2  0  0  0  0
 18  6  1  0  0  0  0
 19 16  1  0  0  0  0
 19  7  1  0  0  0  0
 20 29  1  1  0  0  0
 20 10  1  0  0  0  0
 21  4  1  0  0  0  0
 22 13  1  0  0  0  0
 22 21  1  0  0  0  0
 24  7  2  0  0  0  0
 25  5  2  0  0  0  0
 27  2  1  0  0  0  0
 27 14  1  0  0  0  0
 28 23  1  0  0  0  0
 29 30  1  0  0  0  0
 30 32  1  0  0  0  0
 31 30  2  0  0  0  0
M  END
>  <MODEL>
7

>  <REMARK>
 VINA RESULT:      -7.9      2.981      3.465
  Name = 
  1 active torsions:
  status: ('A' for Active; 'I' for Inactive)
    1  A    between atoms: C_20  and  N_29
                            x       y       z     vdW  Elec       q    Type
                         _______ _______ _______ _____ _____    ______ ____

>  <TORSDO>
F 1

$$$$
=
 OpenBabel11112416343D

 32 37  0  0  1  0  0  0  0  0999 V2000
  185.9980  178.2580  146.7660 C   0  0  0  0  0  2  0  0  0  0  0  0
  190.2410  175.6380  144.2470 C   0  0  0  0  0  0  0  0  0  0  0  0
  189.0120  173.6870  139.9510 C   0  0  0  0  0  3  0  0  0  0  0  0
  190.4720  173.5710  139.6060 C   0  0  0  0  0  2  0  0  0  0  0  0
  192.6960  175.7040  144.9160 C   0  0  0  0  0  0  0  0  0  0  0  0
  194.0680  175.3030  144.6170 C   0  0  0  0  0  0  0  0  0  0  0  0
  188.4210  176.7100  145.5340 C   0  0  0  0  0  0  0  0  0  0  0  0
  187.8750  175.6660  143.4330 N   0  0  0  0  0  2  0  0  0  0  0  0
  195.7570  174.3020  143.6000 N   0  0  0  0  0  0  0  0  0  0  0  0
  186.0240  176.7310  144.7460 C   0  0  0  0  0  2  0  0  0  0  0  0
  188.6180  174.1890  141.1240 C   0  0  0  0  0  3  0  0  0  0  0  0
  189.2370  175.2620  143.2370 C   0  0  0  0  0  0  0  0  0  0  0  0
  189.6040  174.5620  142.1590 C   0  0  0  0  0  0  0  0  0  0  0  0
  191.9610  174.4400  142.8870 C   0  0  0  0  0  0  0  0  0  0  0  0
  196.4100  174.9860  144.6390 N   0  0  0  0  0  0  0  0  0  0  0  0
  186.8530  177.2570  147.2620 O   0  0  0  0  0  0  0  0  0  0  0  0
  187.4890  176.4100  144.5940 C   0  0  0  0  0  0  0  0  0  0  0  0
  195.3160  175.6760  145.3480 C   0  0  0  0  0  3  0  0  0  0  0  0
  188.1270  177.5410  146.7540 C   0  0  0  0  0  2  0  0  0  0  0  0
  185.7830  178.1530  145.2480 C   0  0  1  0  0  3  0  0  0  0  0  0
  191.3070  173.1920  140.8290 C   0  0  0  0  0  2  0  0  0  0  0  0
  191.0110  174.1140  141.9860 C   0  0  0  0  0  0  0  0  0  0  0  0
  193.3650  173.8930  142.7020 C   0  0  0  0  0  2  0  0  0  0  0  0
  189.8310  176.3210  145.3250 C   0  0  0  0  0  3  0  0  0  0  0  0
  192.4740  176.4360  145.9180 O   0  0  0  0  0  0  0  0  0  0  0  0
  196.4590  173.4630  142.6460 C   0  0  0  0  0  1  0  0  0  0  0  0
  191.6280  175.2630  144.0420 N   0  0  0  0  0  0  0  0  0  0  0  0
  194.3670  174.5240  143.6190 C   0  0  0  0  0  0  0  0  0  0  0  0
  184.4310  178.5770  144.9240 N   0  0  0  0  0  2  0  0  0  0  0  0
  184.0080  178.8140  143.5810 C   0  0  0  0  0  0  0  0  0  0  0  0
  184.8970  178.6660  142.5230 O   0  0  0  0  0  0  0  0  0  0  0  0
  182.8210  179.1620  143.3520 O   0  0  0  0  0  1  0  0  0  0  0  0
  1 16  1  0  0  0  0
  2 24  2  0  0  0  0
  3 11  2  0  0  0  0
  4  3  1  0  0  0  0
  4 21  1  0  0  0  0
  5 25  2  0  0  0  0
  6  5  1  0  0  0  0
  6 18  1  0  0  0  0
  7 19  1  0  0  0  0
  8 17  1  0  0  0  0
  9 28  1  0  0  0  0
  9 15  1  0  0  0  0
 10 20  1  0  0  0  0
 11 13  1  0  0  0  0
 12  8  1  0  0  0  0
 12  2  1  0  0  0  0
 13 12  2  0  0  0  0
 14 27  1  0  0  0  0
 15 18  2  0  0  0  0
 17 10  1  0  0  0  0
 17  7  2  0  0  0  0
 19 16  1  0  0  0  0
 20 29  1  1  0  0  0
 20  1  1  0  0  0  0
 21 22  1  0  0  0  0
 22 13  1  0  0  0  0
 22 14  2  0  0  0  0
 23 14  1  0  0  0  0
 23 28  1  0  0  0  0
 24  7  1  0  0  0  0
 26  9  1  0  0  0  0
 27  2  1  0  0  0  0
 27  5  1  0  0  0  0
 28  6  2  0  0  0  0
 30 29  1  0  0  0  0
 31 30  2  0  0  0  0
 32 30  1  0  0  0  0
M  END
>  <MODEL>
8

>  <REMARK>
 VINA RESULT:      -7.9      3.065      8.490
  Name = 
  1 active torsions:
  status: ('A' for Active; 'I' for Inactive)
    1  A    between atoms: C_20  and  N_29
                            x       y       z     vdW  Elec       q    Type
                         _______ _______ _______ _____ _____    ______ ____

>  <TORSDO>
F 1

$$$$
=
 OpenBabel11112416343D

 32 37  0  0  1  0  0  0  0  0999 V2000
  184.8550  178.6350  142.9180 C   0  0  0  0  0  2  0  0  0  0  0  0
  189.0410  175.1370  141.7120 C   0  0  2  0  0  3  0  0  0  0  0  0
  192.0950  174.4380  145.4480 C   0  0  0  0  0  3  0  0  0  0  0  0
  192.6340  173.2170  144.7570 C   0  0  0  0  0  2  0  0  0  0  0  0
  189.2630  173.6680  139.6450 C   0  0  0  0  0  0  0  0  0  0  0  0
  190.0260  172.6470  138.9320 C   0  0  0  0  0  0  0  0  0  0  0  0
  187.2190  176.7720  142.0660 C   0  0  0  0  0  0  0  0  0  0  0  0
  188.8050  176.4240  143.8440 N   0  0  0  0  0  0  0  0  0  0  0  0
  191.6600  171.2300  138.4700 N   0  0  0  0  0  0  0  0  0  0  0  0
  186.9730  178.0980  144.1980 C   0  0  0  0  0  2  0  0  0  0  0  0
  191.1340  175.1800  144.8910 C   0  0  0  0  0  3  0  0  0  0  0  0
  189.5320  175.4690  143.0610 C   0  0  0  0  0  0  0  0  0  0  0  0
  190.6330  174.8770  143.5350 C   0  0  0  0  0  0  0  0  0  0  0  0
  190.9840  173.5860  141.4590 C   0  0  0  0  0  0  0  0  0  0  0  0
  190.8040  171.0550  137.3690 N   0  0  0  0  0  0  0  0  0  0  0  0
  185.7680  178.6670  141.8490 O   0  0  0  0  0  0  0  0  0  0  0  0
  187.6300  177.0590  143.3270 C   0  0  0  0  0  0  0  0  0  0  0  0
  189.6900  171.9840  137.6370 C   0  0  0  0  0  3  0  0  0  0  0  0
  185.9630  177.3370  141.4580 C   0  0  0  0  0  2  0  0  0  0  0  0
  185.4490  177.9980  144.1840 C   0  0  1  0  0  3  0  0  0  0  0  0
  192.7170  173.4220  143.2440 C   0  0  0  0  0  2  0  0  0  0  0  0
  191.4010  173.9180  142.6980 C   0  0  0  0  0  0  0  0  0  0  0  0
  191.8460  172.6610  140.6180 C   0  0  0  0  0  2  0  0  0  0  0  0
  187.9470  175.7670  141.2630 C   0  0  0  0  0  3  0  0  0  0  0  0
  188.1910  174.0980  139.1400 O   0  0  0  0  0  0  0  0  0  0  0  0
  192.9140  170.5140  138.6150 C   0  0  0  0  0  1  0  0  0  0  0  0
  189.7500  174.1470  140.9230 N   0  0  0  0  0  0  0  0  0  0  0  0
  191.1560  172.1810  139.3790 C   0  0  0  0  0  0  0  0  0  0  0  0
  184.8930  178.6520  145.3580 N   0  0  0  0  0  2  0  0  0  0  0  0
  184.9210  178.0490  146.6510 C   0  0  0  0  0  0  0  0  0  0  0  0
  185.4700  176.7850  146.8310 O   0  0  0  0  0  0  0  0  0  0  0  0
  184.4410  178.6660  147.6380 O   0  0  0  0  0  1  0  0  0  0  0  0
  1 20  1  0  0  0  0
  2 24  1  1  0  0  0
  2 12  1  0  0  0  0
  4  3  1  0  0  0  0
  5 27  1  0  0  0  0
  6 28  2  0  0  0  0
  6  5  1  0  0  0  0
  7 17  1  0  0  0  0
  9 26  1  0  0  0  0
  9 28  1  0  0  0  0
 11  3  2  0  0  0  0
 12 13  2  0  0  0  0
 12  8  1  0  0  0  0
 13 11  1  0  0  0  0
 14 22  2  0  0  0  0
 15 18  2  0  0  0  0
 15  9  1  0  0  0  0
 16  1  1  0  0  0  0
 17  8  2  0  0  0  0
 17 10  1  0  0  0  0
 18  6  1  0  0  0  0
 19 16  1  0  0  0  0
 19  7  1  0  0  0  0
 20 10  1  0  0  0  0
 20 29  1  1  0  0  0
 21  4  1  0  0  0  0
 22 21  1  0  0  0  0
 22 13  1  0  0  0  0
 23 14  1  0  0  0  0
 24  7  2  0  0  0  0
 25  5  2  0  0  0  0
 27 14  1  0  0  0  0
 27  2  1  0  0  0  0
 28 23  1  0  0  0  0
 29 30  1  0  0  0  0
 30 31  2  0  0  0  0
 30 32  1  0  0  0  0
M  END
>  <MODEL>
9

>  <REMARK>
 VINA RESULT:      -7.9      2.177      8.044
  Name = 
  1 active torsions:
  status: ('A' for Active; 'I' for Inactive)
    1  A    between atoms: C_20  and  N_29
                            x       y       z     vdW  Elec       q    Type
                         _______ _______ _______ _____ _____    ______ ____

>  <TORSDO>
F 1

$$$$
