=
 OpenBabel11112417413D

 28 32  0  0  1  0  0  0  0  0999 V2000
  191.7080  175.4200  144.3060 C   0  0  2  0  0  3  0  0  0  0  0  0
  190.1000  173.7290  141.5500 O   0  0  0  0  0  0  0  0  0  0  0  0
  187.0180  178.1440  147.6380 O   0  0  0  0  0  0  0  0  0  0  0  0
  192.2180  172.5160  144.4780 C   0  0  0  0  0  2  0  0  0  0  0  0
  187.4200  177.9330  145.3170 N   0  0  0  0  0  0  0  0  0  0  0  0
  191.7560  176.7620  145.0520 C   0  0  0  0  0  2  0  0  0  0  0  0
  187.7650  173.1340  142.0670 O   0  0  0  0  0  0  0  0  0  0  0  0
  188.7320  174.2650  141.8600 S   0  0  0  0  0  0  0  0  0  0  0  0
  187.3620  176.4780  140.9220 C   0  0  0  0  0  0  0  0  0  0  0  0
  188.7730  175.2910  143.2740 C   0  0  0  0  0  0  0  0  0  0  0  0
  191.1100  175.1270  148.0130 O   0  0  0  0  0  0  0  0  0  0  0  0
  188.8150  176.1390  145.4110 C   0  0  1  0  0  3  0  0  0  0  0  0
  187.3890  177.0220  142.1460 C   0  0  0  0  0  3  0  0  0  0  0  0
  188.1920  175.2900  140.5000 C   0  0  0  0  0  2  0  0  0  0  0  0
  191.0430  176.2140  147.3820 C   0  0  0  0  0  0  0  0  0  0  0  0
  190.6400  174.4490  144.8790 C   0  0  2  0  0  3  0  0  0  0  0  0
  187.6210  177.5810  146.6860 C   0  0  0  0  0  0  0  0  0  0  0  0
  186.5640  177.1660  139.8740 C   0  0  0  0  0  1  0  0  0  0  0  0
  189.8430  176.9840  147.4020 N   0  0  0  0  0  2  0  0  0  0  0  0
  190.7880  173.0170  144.3570 C   0  0  0  0  0  2  0  0  0  0  0  0
  193.1170  174.8130  144.3070 C   0  0  0  0  0  2  0  0  0  0  0  0
  193.1350  173.4280  143.6830 C   0  0  0  0  0  2  0  0  0  0  0  0
  192.1840  176.6500  146.5230 C   0  0  0  0  0  2  0  0  0  0  0  0
  188.2090  176.9830  144.6250 C   0  0  1  0  0  3  0  0  0  0  0  0
  188.6010  176.4530  146.8570 C   0  0  2  0  0  3  0  0  0  0  0  0
  188.1410  176.4590  143.2780 C   0  0  0  0  0  0  0  0  0  0  0  0
  186.2590  178.6260  144.7850 C   0  0  0  0  0  1  0  0  0  0  0  0
  189.1750  174.8880  144.6800 C   0  0  2  0  0  3  0  0  0  0  0  0
  1 21  1  1  0  0  0
  1 16  1  0  0  0  0
  1  6  1  0  0  0  0
  2  8  2  0  0  0  0
  5 17  1  0  0  0  0
  6 23  1  0  0  0  0
  8  7  2  0  0  0  0
  8 10  1  0  0  0  0
  9 13  2  0  0  0  0
 10 26  2  0  0  0  0
 10 28  1  0  0  0  0
 12 25  1  0  0  0  0
 13 26  1  0  0  0  0
 14  9  1  0  0  0  0
 14  8  1  0  0  0  0
 15 19  1  0  0  0  0
 15 11  2  0  0  0  0
 17 25  1  0  0  0  0
 17  3  2  0  0  0  0
 18  9  1  0  0  0  0
 20  4  1  0  0  0  0
 20 16  1  0  0  0  0
 22 21  1  0  0  0  0
 22  4  1  0  0  0  0
 23 15  1  0  0  0  0
 24  5  1  0  0  0  0
 24 12  1  0  0  0  0
 25 19  1  0  0  0  0
 26 24  1  0  0  0  0
 27  5  1  0  0  0  0
 28 16  1  0  0  0  0
 28 12  1  0  0  0  0
M  END
>  <MODEL>
1

>  <REMARK>
 VINA RESULT:      -8.1      0.000      0.000
  Name = 
  0 active torsions:
  status: ('A' for Active; 'I' for Inactive)
                            x       y       z     vdW  Elec       q    Type
                         _______ _______ _______ _____ _____    ______ ____

>  <TORSDO>
F 0

$$$$
=
 OpenBabel11112417413D

 28 32  0  0  1  0  0  0  0  0999 V2000
  189.0320  173.0320  142.9610 C   0  0  2  0  0  3  0  0  0  0  0  0
  190.0510  174.4680  146.1140 O   0  0  0  0  0  0  0  0  0  0  0  0
  186.2100  177.7430  139.7440 O   0  0  0  0  0  0  0  0  0  0  0  0
  191.9720  172.9020  143.2180 C   0  0  0  0  0  2  0  0  0  0  0  0
  186.1250  177.0770  142.0120 N   0  0  0  0  0  0  0  0  0  0  0  0
  187.8370  172.9170  142.0030 C   0  0  0  0  0  2  0  0  0  0  0  0
  190.3840  176.9050  145.9540 O   0  0  0  0  0  0  0  0  0  0  0  0
  189.3810  175.7900  145.8670 S   0  0  0  0  0  0  0  0  0  0  0  0
  186.8840  176.7510  146.5680 C   0  0  0  0  0  0  0  0  0  0  0  0
  188.5950  175.8050  144.3070 C   0  0  0  0  0  0  0  0  0  0  0  0
  189.7900  174.1270  139.4390 O   0  0  0  0  0  0  0  0  0  0  0  0
  188.0900  175.9330  142.0670 C   0  0  1  0  0  3  0  0  0  0  0  0
  186.5370  176.8150  145.2750 C   0  0  0  0  0  3  0  0  0  0  0  0
  188.0990  176.0240  147.0890 C   0  0  0  0  0  2  0  0  0  0  0  0
  188.6230  173.9820  139.8850 C   0  0  0  0  0  0  0  0  0  0  0  0
  189.9190  174.2740  142.6730 C   0  0  2  0  0  3  0  0  0  0  0  0
  186.7020  177.0960  140.7060 C   0  0  0  0  0  0  0  0  0  0  0  0
  185.9420  177.3190  147.5670 C   0  0  0  0  0  1  0  0  0  0  0  0
  187.7050  175.0730  139.8660 N   0  0  0  0  0  2  0  0  0  0  0  0
  191.2640  174.2340  143.4060 C   0  0  0  0  0  2  0  0  0  0  0  0
  189.8240  171.7180  142.9100 C   0  0  0  0  0  2  0  0  0  0  0  0
  191.0890  171.7890  143.7490 C   0  0  0  0  0  2  0  0  0  0  0  0
  188.2270  172.6970  140.5340 C   0  0  0  0  0  2  0  0  0  0  0  0
  187.0620  176.3270  142.7630 C   0  0  1  0  0  3  0  0  0  0  0  0
  187.9690  176.2900  140.6210 C   0  0  2  0  0  3  0  0  0  0  0  0
  187.3630  176.2870  144.1770 C   0  0  0  0  0  0  0  0  0  0  0  0
  185.2040  178.0690  142.5430 C   0  0  0  0  0  1  0  0  0  0  0  0
  189.2550  175.6370  142.9520 C   0  0  2  0  0  3  0  0  0  0  0  0
  1  6  1  6  0  0  0
  3 17  2  0  0  0  0
  4 20  1  0  0  0  0
  4 22  1  0  0  0  0
  5 27  1  0  0  0  0
  5 24  1  0  0  0  0
  8  7  2  0  0  0  0
  8  2  2  0  0  0  0
  8 14  1  0  0  0  0
  9 14  1  0  0  0  0
  9 18  1  0  0  0  0
 10  8  1  0  0  0  0
 11 15  2  0  0  0  0
 12 24  1  0  0  0  0
 12 28  1  0  0  0  0
 13  9  2  0  0  0  0
 15 23  1  0  0  0  0
 16 28  1  0  0  0  0
 16  1  1  0  0  0  0
 16 20  1  0  0  0  0
 17  5  1  0  0  0  0
 19 15  1  0  0  0  0
 19 25  1  0  0  0  0
 21  1  1  0  0  0  0
 21 22  1  0  0  0  0
 23  6  1  0  0  0  0
 24 26  1  0  0  0  0
 25 17  1  0  0  0  0
 25 12  1  0  0  0  0
 26 10  2  0  0  0  0
 26 13  1  0  0  0  0
 28 10  1  0  0  0  0
M  END
>  <MODEL>
2

>  <REMARK>
 VINA RESULT:      -7.8      2.513      5.257
  Name = 
  0 active torsions:
  status: ('A' for Active; 'I' for Inactive)
                            x       y       z     vdW  Elec       q    Type
                         _______ _______ _______ _____ _____    ______ ____

>  <TORSDO>
F 0

$$$$
=
 OpenBabel11112417413D

 28 32  0  0  1  0  0  0  0  0999 V2000
  188.9710  175.4720  146.1380 C   0  0  2  0  0  3  0  0  0  0  0  0
  187.1230  176.1020  143.1000 O   0  0  0  0  0  0  0  0  0  0  0  0
  195.1190  175.8770  144.5410 O   0  0  0  0  0  0  0  0  0  0  0  0
  187.3110  177.8940  146.4590 C   0  0  0  0  0  2  0  0  0  0  0  0
  193.2460  174.9090  143.4690 N   0  0  0  0  0  0  0  0  0  0  0  0
  190.1350  174.6480  146.7090 C   0  0  0  0  0  2  0  0  0  0  0  0
  188.4160  177.4570  141.4980 O   0  0  0  0  0  0  0  0  0  0  0  0
  188.3430  176.1440  142.2240 S   0  0  0  0  0  0  0  0  0  0  0  0
  189.5950  174.1940  140.7130 C   0  0  0  0  0  0  0  0  0  0  0  0
  189.7930  175.8920  143.1640 C   0  0  0  0  0  0  0  0  0  0  0  0
  191.6120  177.5430  147.8450 O   0  0  0  0  0  0  0  0  0  0  0  0
  191.6330  176.1150  144.5250 C   0  0  1  0  0  3  0  0  0  0  0  0
  190.6790  174.2720  141.4980 C   0  0  0  0  0  3  0  0  0  0  0  0
  188.2550  174.8000  141.0490 C   0  0  0  0  0  2  0  0  0  0  0  0
  191.7890  176.3500  147.4870 C   0  0  0  0  0  0  0  0  0  0  0  0
  189.4260  176.8390  145.5600 C   0  0  2  0  0  3  0  0  0  0  0  0
  193.8690  175.7710  144.4220 C   0  0  0  0  0  0  0  0  0  0  0  0
  189.6800  173.3460  139.4950 C   0  0  0  0  0  1  0  0  0  0  0  0
  192.8450  176.0180  146.5880 N   0  0  0  0  0  2  0  0  0  0  0  0
  188.2580  177.7890  145.2740 C   0  0  0  0  0  2  0  0  0  0  0  0
  187.9010  175.6190  147.2280 C   0  0  0  0  0  2  0  0  0  0  0  0
  186.7600  176.5170  146.7800 C   0  0  0  0  0  2  0  0  0  0  0  0
  190.8280  175.2910  147.9190 C   0  0  0  0  0  2  0  0  0  0  0  0
  191.8700  175.2020  143.6280 C   0  0  1  0  0  3  0  0  0  0  0  0
  192.8740  176.5530  145.2340 C   0  0  2  0  0  3  0  0  0  0  0  0
  190.7390  175.0620  142.7370 C   0  0  0  0  0  0  0  0  0  0  0  0
  193.8740  174.3840  142.2680 C   0  0  0  0  0  1  0  0  0  0  0  0
  190.3070  176.7610  144.2970 C   0  0  2  0  0  3  0  0  0  0  0  0
  1  6  1  1  0  0  0
  1 21  1  0  0  0  0
  4 22  1  0  0  0  0
  5 24  1  0  0  0  0
  5 17  1  0  0  0  0
  6 23  1  0  0  0  0
  7  8  2  0  0  0  0
  8  2  2  0  0  0  0
  8 10  1  0  0  0  0
  9 14  1  0  0  0  0
  9 13  2  0  0  0  0
 10 28  1  0  0  0  0
 12 25  1  0  0  0  0
 13 26  1  0  0  0  0
 14  8  1  0  0  0  0
 15 11  2  0  0  0  0
 15 23  1  0  0  0  0
 16  1  1  0  0  0  0
 17  3  2  0  0  0  0
 17 25  1  0  0  0  0
 18  9  1  0  0  0  0
 19 15  1  0  0  0  0
 20 16  1  0  0  0  0
 20  4  1  0  0  0  0
 22 21  1  0  0  0  0
 24 12  1  0  0  0  0
 25 19  1  0  0  0  0
 26 10  2  0  0  0  0
 26 24  1  0  0  0  0
 27  5  1  0  0  0  0
 28 12  1  0  0  0  0
 28 16  1  0  0  0  0
M  END
>  <MODEL>
3

>  <REMARK>
 VINA RESULT:      -7.8      2.433      4.810
  Name = 
  0 active torsions:
  status: ('A' for Active; 'I' for Inactive)
                            x       y       z     vdW  Elec       q    Type
                         _______ _______ _______ _____ _____    ______ ____

>  <TORSDO>
F 0

$$$$
=
 OpenBabel11112417413D

 28 32  0  0  1  0  0  0  0  0999 V2000
  188.1280  177.7610  144.9160 C   0  0  2  0  0  3  0  0  0  0  0  0
  190.2460  177.2520  147.7960 O   0  0  0  0  0  0  0  0  0  0  0  0
  190.1760  173.6460  140.5120 O   0  0  0  0  0  0  0  0  0  0  0  0
  186.5000  176.8600  147.2100 C   0  0  0  0  0  2  0  0  0  0  0  0
  191.3090  175.0450  142.0470 N   0  0  0  0  0  0  0  0  0  0  0  0
  188.1680  177.9710  143.3950 C   0  0  0  0  0  2  0  0  0  0  0  0
  191.1990  174.9790  147.8510 O   0  0  0  0  0  0  0  0  0  0  0  0
  191.1610  176.2810  147.1040 S   0  0  0  0  0  0  0  0  0  0  0  0
  193.5570  176.6370  145.7680 C   0  0  0  0  0  0  0  0  0  0  0  0
  190.6510  176.0160  145.4540 C   0  0  0  0  0  0  0  0  0  0  0  0
  186.0340  175.3010  142.9800 O   0  0  0  0  0  0  0  0  0  0  0  0
  189.6060  175.3100  143.5310 C   0  0  1  0  0  3  0  0  0  0  0  0
  192.9810  176.2590  144.6180 C   0  0  0  0  0  3  0  0  0  0  0  0
  192.8000  176.9890  147.0250 C   0  0  0  0  0  2  0  0  0  0  0  0
  186.9240  176.0200  142.4560 C   0  0  0  0  0  0  0  0  0  0  0  0
  188.0640  176.2610  145.3160 C   0  0  2  0  0  3  0  0  0  0  0  0
  190.1600  174.3540  141.5540 C   0  0  0  0  0  0  0  0  0  0  0  0
  195.0270  176.8530  145.7680 C   0  0  0  0  0  1  0  0  0  0  0  0
  188.0090  175.4210  141.7500 N   0  0  0  0  0  2  0  0  0  0  0  0
  187.7160  176.0490  146.7930 C   0  0  0  0  0  2  0  0  0  0  0  0
  186.9600  178.5740  145.4880 C   0  0  0  0  0  2  0  0  0  0  0  0
  186.7810  178.3330  146.9780 C   0  0  0  0  0  2  0  0  0  0  0  0
  186.9050  177.4990  142.6600 C   0  0  0  0  0  2  0  0  0  0  0  0
  190.8470  175.6000  143.2640 C   0  0  1  0  0  3  0  0  0  0  0  0
  188.9510  174.5420  142.4290 C   0  0  2  0  0  3  0  0  0  0  0  0
  191.5380  176.0190  144.4650 C   0  0  0  0  0  0  0  0  0  0  0  0
  192.6890  174.7240  141.7250 C   0  0  0  0  0  1  0  0  0  0  0  0
  189.3270  175.4380  144.9920 C   0  0  2  0  0  3  0  0  0  0  0  0
  1  6  1  6  0  0  0
  1 16  1  0  0  0  0
  1 21  1  0  0  0  0
  3 17  2  0  0  0  0
  5 24  1  0  0  0  0
  8  2  2  0  0  0  0
  8  7  2  0  0  0  0
  9 14  1  0  0  0  0
 10  8  1  0  0  0  0
 12 28  1  0  0  0  0
 13  9  2  0  0  0  0
 14  8  1  0  0  0  0
 15 23  1  0  0  0  0
 15 11  2  0  0  0  0
 16 20  1  0  0  0  0
 17  5  1  0  0  0  0
 17 25  1  0  0  0  0
 18  9  1  0  0  0  0
 19 25  1  0  0  0  0
 19 15  1  0  0  0  0
 20  4  1  0  0  0  0
 21 22  1  0  0  0  0
 22  4  1  0  0  0  0
 23  6  1  0  0  0  0
 24 12  1  0  0  0  0
 24 26  1  0  0  0  0
 25 12  1  0  0  0  0
 26 13  1  0  0  0  0
 26 10  2  0  0  0  0
 27  5  1  0  0  0  0
 28 16  1  0  0  0  0
 28 10  1  0  0  0  0
M  END
>  <MODEL>
4

>  <REMARK>
 VINA RESULT:      -7.7      2.488      6.347
  Name = 
  0 active torsions:
  status: ('A' for Active; 'I' for Inactive)
                            x       y       z     vdW  Elec       q    Type
                         _______ _______ _______ _____ _____    ______ ____

>  <TORSDO>
F 0

$$$$
=
 OpenBabel11112417413D

 28 32  0  0  1  0  0  0  0  0999 V2000
  190.3170  176.1750  142.7330 C   0  0  2  0  0  3  0  0  0  0  0  0
  190.0370  173.6960  140.1230 O   0  0  0  0  0  0  0  0  0  0  0  0
  184.4260  178.4090  143.6390 O   0  0  0  0  0  0  0  0  0  0  0  0
  191.1260  173.5310  143.7710 C   0  0  0  0  0  2  0  0  0  0  0  0
  185.6480  177.8590  141.6900 N   0  0  0  0  0  0  0  0  0  0  0  0
  189.9140  177.6120  143.0990 C   0  0  0  0  0  2  0  0  0  0  0  0
  187.7740  172.7240  140.0110 O   0  0  0  0  0  0  0  0  0  0  0  0
  188.5870  173.9760  139.8450 S   0  0  0  0  0  0  0  0  0  0  0  0
  187.3480  175.6300  138.0050 C   0  0  0  0  0  0  0  0  0  0  0  0
  187.9840  175.2320  140.8990 C   0  0  0  0  0  0  0  0  0  0  0  0
  188.4930  176.4590  146.0160 O   0  0  0  0  0  0  0  0  0  0  0  0
  187.1510  176.4540  142.6600 C   0  0  1  0  0  3  0  0  0  0  0  0
  186.8660  176.3870  139.0010 C   0  0  0  0  0  3  0  0  0  0  0  0
  188.4290  174.5900  138.1740 C   0  0  0  0  0  2  0  0  0  0  0  0
  188.5050  177.3680  145.1460 C   0  0  0  0  0  0  0  0  0  0  0  0
  189.2590  175.1230  143.1640 C   0  0  2  0  0  3  0  0  0  0  0  0
  185.3980  177.8200  143.0960 C   0  0  0  0  0  0  0  0  0  0  0  0
  186.8870  175.9240  136.6240 C   0  0  0  0  0  1  0  0  0  0  0  0
  187.2820  177.8550  144.5980 N   0  0  0  0  0  2  0  0  0  0  0  0
  189.7770  173.6840  143.0870 C   0  0  0  0  0  2  0  0  0  0  0  0
  191.7030  175.8940  143.3260 C   0  0  0  0  0  2  0  0  0  0  0  0
  192.1300  174.4530  143.1040 C   0  0  0  0  0  2  0  0  0  0  0  0
  189.8050  177.8700  144.6090 C   0  0  0  0  0  2  0  0  0  0  0  0
  186.7530  176.9870  141.5400 C   0  0  1  0  0  3  0  0  0  0  0  0
  186.3990  176.9790  143.8400 C   0  0  2  0  0  3  0  0  0  0  0  0
  187.2380  176.2190  140.4140 C   0  0  0  0  0  0  0  0  0  0  0  0
  184.6670  178.1770  140.6670 C   0  0  0  0  0  1  0  0  0  0  0  0
  187.9140  175.1950  142.4130 C   0  0  2  0  0  3  0  0  0  0  0  0
  1  6  1  1  0  0  0
  1 16  1  0  0  0  0
  1 21  1  0  0  0  0
  5 17  1  0  0  0  0
  6 23  1  0  0  0  0
  8  7  2  0  0  0  0
  8  2  2  0  0  0  0
  8 10  1  0  0  0  0
  9 14  1  0  0  0  0
  9 13  2  0  0  0  0
 10 28  1  0  0  0  0
 12 25  1  0  0  0  0
 13 26  1  0  0  0  0
 14  8  1  0  0  0  0
 15 11  2  0  0  0  0
 17  3  2  0  0  0  0
 17 25  1  0  0  0  0
 18  9  1  0  0  0  0
 19 15  1  0  0  0  0
 20 16  1  0  0  0  0
 20  4  1  0  0  0  0
 22 21  1  0  0  0  0
 22  4  1  0  0  0  0
 23 15  1  0  0  0  0
 24  5  1  0  0  0  0
 24 12  1  0  0  0  0
 25 19  1  0  0  0  0
 26 10  2  0  0  0  0
 26 24  1  0  0  0  0
 27  5  1  0  0  0  0
 28 12  1  0  0  0  0
 28 16  1  0  0  0  0
M  END
>  <MODEL>
5

>  <REMARK>
 VINA RESULT:      -7.6      2.070      3.080
  Name = 
  0 active torsions:
  status: ('A' for Active; 'I' for Inactive)
                            x       y       z     vdW  Elec       q    Type
                         _______ _______ _______ _____ _____    ______ ____

>  <TORSDO>
F 0

$$$$
=
 OpenBabel11112417413D

 28 32  0  0  1  0  0  0  0  0999 V2000
  189.3500  176.9260  143.9380 C   0  0  2  0  0  3  0  0  0  0  0  0
  191.9030  176.6620  146.4790 O   0  0  0  0  0  0  0  0  0  0  0  0
  191.0650  172.8790  139.3340 O   0  0  0  0  0  0  0  0  0  0  0  0
  188.1580  175.9560  146.4610 C   0  0  0  0  0  2  0  0  0  0  0  0
  192.2900  174.4030  140.6650 N   0  0  0  0  0  0  0  0  0  0  0  0
  189.1490  177.1000  142.4260 C   0  0  0  0  0  2  0  0  0  0  0  0
  193.0400  174.4760  146.4220 O   0  0  0  0  0  0  0  0  0  0  0  0
  192.7840  175.7510  145.6710 S   0  0  0  0  0  0  0  0  0  0  0  0
  194.9200  176.2650  143.9900 C   0  0  0  0  0  0  0  0  0  0  0  0
  192.0610  175.4040  144.1190 C   0  0  0  0  0  0  0  0  0  0  0  0
  187.2070  174.2580  142.3670 O   0  0  0  0  0  0  0  0  0  0  0  0
  190.8070  174.5680  142.3820 C   0  0  1  0  0  3  0  0  0  0  0  0
  194.2140  175.8130  142.9440 C   0  0  0  0  0  3  0  0  0  0  0  0
  194.3280  176.5860  145.3410 C   0  0  0  0  0  2  0  0  0  0  0  0
  187.9470  175.0320  141.7080 C   0  0  0  0  0  0  0  0  0  0  0  0
  189.4700  175.4370  144.3630 C   0  0  2  0  0  3  0  0  0  0  0  0
  191.1430  173.6100  140.3570 C   0  0  0  0  0  0  0  0  0  0  0  0
  196.3510  176.5980  143.7700 C   0  0  0  0  0  1  0  0  0  0  0  0
  188.9620  174.5050  140.8560 N   0  0  0  0  0  2  0  0  0  0  0  0
  189.3620  175.2340  145.8780 C   0  0  0  0  0  2  0  0  0  0  0  0
  188.2150  177.6570  144.6670 C   0  0  0  0  0  2  0  0  0  0  0  0
  188.2780  177.4400  146.1700 C   0  0  0  0  0  2  0  0  0  0  0  0
  187.8350  176.5100  141.8930 C   0  0  0  0  0  2  0  0  0  0  0  0
  191.9670  174.9500  141.9300 C   0  0  1  0  0  3  0  0  0  0  0  0
  190.0640  173.7220  141.3990 C   0  0  2  0  0  3  0  0  0  0  0  0
  192.7900  175.4530  143.0090 C   0  0  0  0  0  0  0  0  0  0  0  0
  193.6300  174.1870  140.1460 C   0  0  0  0  0  1  0  0  0  0  0  0
  190.7360  174.7100  143.8660 C   0  0  2  0  0  3  0  0  0  0  0  0
  1  6  1  6  0  0  0
  1 16  1  0  0  0  0
  1 21  1  0  0  0  0
  3 17  2  0  0  0  0
  5 24  1  0  0  0  0
  8  7  2  0  0  0  0
  8  2  2  0  0  0  0
  9 14  1  0  0  0  0
 10  8  1  0  0  0  0
 12 28  1  0  0  0  0
 13 26  1  0  0  0  0
 13  9  2  0  0  0  0
 14  8  1  0  0  0  0
 15 23  1  0  0  0  0
 15 11  2  0  0  0  0
 16 20  1  0  0  0  0
 17  5  1  0  0  0  0
 17 25  1  0  0  0  0
 18  9  1  0  0  0  0
 19 25  1  0  0  0  0
 19 15  1  0  0  0  0
 20  4  1  0  0  0  0
 21 22  1  0  0  0  0
 22  4  1  0  0  0  0
 23  6  1  0  0  0  0
 24 12  1  0  0  0  0
 24 26  1  0  0  0  0
 25 12  1  0  0  0  0
 26 10  2  0  0  0  0
 27  5  1  0  0  0  0
 28 10  1  0  0  0  0
 28 16  1  0  0  0  0
M  END
>  <MODEL>
6

>  <REMARK>
 VINA RESULT:      -7.6      2.868      6.505
  Name = 
  0 active torsions:
  status: ('A' for Active; 'I' for Inactive)
                            x       y       z     vdW  Elec       q    Type
                         _______ _______ _______ _____ _____    ______ ____

>  <TORSDO>
F 0

$$$$
=
 OpenBabel11112417413D

 28 32  0  0  1  0  0  0  0  0999 V2000
  192.6500  175.0380  144.4030 C   0  0  2  0  0  3  0  0  0  0  0  0
  192.1260  172.5050  141.8820 O   0  0  0  0  0  0  0  0  0  0  0  0
  186.8440  176.7430  146.3770 O   0  0  0  0  0  0  0  0  0  0  0  0
  193.8740  172.4930  145.2690 C   0  0  0  0  0  2  0  0  0  0  0  0
  187.7360  176.2770  144.2360 N   0  0  0  0  0  0  0  0  0  0  0  0
  192.1910  176.4370  144.8390 C   0  0  0  0  0  2  0  0  0  0  0  0
  189.9800  171.3320  142.1850 O   0  0  0  0  0  0  0  0  0  0  0  0
  190.6310  172.6500  141.8750 S   0  0  0  0  0  0  0  0  0  0  0  0
  188.9310  174.1580  140.2970 C   0  0  0  0  0  0  0  0  0  0  0  0
  190.1180  173.8610  143.0240 C   0  0  0  0  0  0  0  0  0  0  0  0
  191.4380  175.2030  147.9640 O   0  0  0  0  0  0  0  0  0  0  0  0
  189.5130  175.0280  144.9110 C   0  0  1  0  0  3  0  0  0  0  0  0
  188.5710  174.8830  141.3660 C   0  0  0  0  0  3  0  0  0  0  0  0
  190.1150  173.2220  140.2630 C   0  0  0  0  0  2  0  0  0  0  0  0
  191.2080  176.0980  147.1090 C   0  0  0  0  0  0  0  0  0  0  0  0
  191.7900  173.9010  145.0180 C   0  0  2  0  0  3  0  0  0  0  0  0
  187.7510  176.2370  145.6630 C   0  0  0  0  0  0  0  0  0  0  0  0
  188.2010  174.3890  139.0240 C   0  0  0  0  0  1  0  0  0  0  0  0
  189.8660  176.4630  146.7950 N   0  0  0  0  0  2  0  0  0  0  0  0
  192.4150  172.5130  144.8440 C   0  0  0  0  0  2  0  0  0  0  0  0
  194.1420  174.8910  144.7310 C   0  0  0  0  0  2  0  0  0  0  0  0
  194.6510  173.4920  144.4310 C   0  0  0  0  0  2  0  0  0  0  0  0
  192.3360  176.7070  146.3440 C   0  0  0  0  0  2  0  0  0  0  0  0
  188.8700  175.5070  143.8840 C   0  0  1  0  0  3  0  0  0  0  0  0
  188.9430  175.5000  146.2100 C   0  0  2  0  0  3  0  0  0  0  0  0
  189.2090  174.7690  142.6860 C   0  0  0  0  0  0  0  0  0  0  0  0
  186.5590  176.4900  143.4100 C   0  0  0  0  0  1  0  0  0  0  0  0
  190.3290  173.8400  144.5260 C   0  0  2  0  0  3  0  0  0  0  0  0
  1 21  1  1  0  0  0
  1  6  1  0  0  0  0
  1 16  1  0  0  0  0
  5 17  1  0  0  0  0
  6 23  1  0  0  0  0
  8  2  2  0  0  0  0
  8  7  2  0  0  0  0
  8 10  1  0  0  0  0
  9 13  2  0  0  0  0
 10 28  1  0  0  0  0
 12 25  1  0  0  0  0
 13 26  1  0  0  0  0
 14  9  1  0  0  0  0
 14  8  1  0  0  0  0
 15 11  2  0  0  0  0
 17 25  1  0  0  0  0
 17  3  2  0  0  0  0
 18  9  1  0  0  0  0
 19 15  1  0  0  0  0
 20 16  1  0  0  0  0
 20  4  1  0  0  0  0
 22 21  1  0  0  0  0
 22  4  1  0  0  0  0
 23 15  1  0  0  0  0
 24  5  1  0  0  0  0
 24 12  1  0  0  0  0
 25 19  1  0  0  0  0
 26 10  2  0  0  0  0
 26 24  1  0  0  0  0
 27  5  1  0  0  0  0
 28 12  1  0  0  0  0
 28 16  1  0  0  0  0
M  END
>  <MODEL>
7

>  <REMARK>
 VINA RESULT:      -7.4      1.579      1.917
  Name = 
  0 active torsions:
  status: ('A' for Active; 'I' for Inactive)
                            x       y       z     vdW  Elec       q    Type
                         _______ _______ _______ _____ _____    ______ ____

>  <TORSDO>
F 0

$$$$
=
 OpenBabel11112417413D

 28 32  0  0  1  0  0  0  0  0999 V2000
  191.3940  175.1910  145.5880 C   0  0  2  0  0  3  0  0  0  0  0  0
  188.1940  175.5300  143.9490 O   0  0  0  0  0  0  0  0  0  0  0  0
  195.7620  175.8150  141.0000 O   0  0  0  0  0  0  0  0  0  0  0  0
  189.9610  177.5390  146.6640 C   0  0  0  0  0  2  0  0  0  0  0  0
  193.6870  174.6850  141.0930 N   0  0  0  0  0  0  0  0  0  0  0  0
  192.7450  174.4670  145.4860 C   0  0  0  0  0  2  0  0  0  0  0  0
  188.3550  176.8470  141.8710 O   0  0  0  0  0  0  0  0  0  0  0  0
  188.7720  175.5800  142.5630 S   0  0  0  0  0  0  0  0  0  0  0  0
  189.2040  173.6070  140.6730 C   0  0  0  0  0  0  0  0  0  0  0  0
  190.5150  175.4650  142.6130 C   0  0  0  0  0  0  0  0  0  0  0  0
  194.3680  177.5010  145.6050 O   0  0  0  0  0  0  0  0  0  0  0  0
  192.7700  175.8690  142.8040 C   0  0  1  0  0  3  0  0  0  0  0  0
  190.5280  173.7910  140.7730 C   0  0  0  0  0  3  0  0  0  0  0  0
  188.1910  174.1620  141.6440 C   0  0  0  0  0  2  0  0  0  0  0  0
  194.4240  176.2990  145.2390 C   0  0  0  0  0  0  0  0  0  0  0  0
  191.3740  176.5410  144.8200 C   0  0  2  0  0  3  0  0  0  0  0  0
  194.6460  175.6360  141.5550 C   0  0  0  0  0  0  0  0  0  0  0  0
  188.7090  172.6890  139.6140 C   0  0  0  0  0  1  0  0  0  0  0  0
  194.8810  175.9660  143.9300 N   0  0  0  0  0  2  0  0  0  0  0  0
  190.1580  177.4080  145.1620 C   0  0  0  0  0  2  0  0  0  0  0  0
  191.0380  175.3510  147.0710 C   0  0  0  0  0  2  0  0  0  0  0  0
  189.7650  176.1580  147.2630 C   0  0  0  0  0  2  0  0  0  0  0  0
  193.9140  175.2210  146.1380 C   0  0  0  0  0  2  0  0  0  0  0  0
  192.5760  174.9150  141.9390 C   0  0  1  0  0  3  0  0  0  0  0  0
  194.1600  176.4160  142.7470 C   0  0  2  0  0  3  0  0  0  0  0  0
  191.1610  174.6600  141.7760 C   0  0  0  0  0  0  0  0  0  0  0  0
  193.6370  174.1180  139.7550 C   0  0  0  0  0  1  0  0  0  0  0  0
  191.4730  176.4290  143.2860 C   0  0  2  0  0  3  0  0  0  0  0  0
  1  6  1  1  0  0  0
  1 21  1  0  0  0  0
  3 17  2  0  0  0  0
  4 22  1  0  0  0  0
  5 17  1  0  0  0  0
  5 24  1  0  0  0  0
  6 23  1  0  0  0  0
  7  8  2  0  0  0  0
  8 10  1  0  0  0  0
  8  2  2  0  0  0  0
  9 13  2  0  0  0  0
  9 14  1  0  0  0  0
 10 28  1  0  0  0  0
 12 28  1  0  0  0  0
 13 26  1  0  0  0  0
 14  8  1  0  0  0  0
 15 11  2  0  0  0  0
 15 23  1  0  0  0  0
 16 20  1  0  0  0  0
 16  1  1  0  0  0  0
 17 25  1  0  0  0  0
 18  9  1  0  0  0  0
 19 15  1  0  0  0  0
 20  4  1  0  0  0  0
 21 22  1  0  0  0  0
 24 12  1  0  0  0  0
 25 12  1  0  0  0  0
 25 19  1  0  0  0  0
 26 24  1  0  0  0  0
 26 10  2  0  0  0  0
 27  5  1  0  0  0  0
 28 16  1  0  0  0  0
M  END
>  <MODEL>
8

>  <REMARK>
 VINA RESULT:      -7.2      3.159      5.298
  Name = 
  0 active torsions:
  status: ('A' for Active; 'I' for Inactive)
                            x       y       z     vdW  Elec       q    Type
                         _______ _______ _______ _____ _____    ______ ____

>  <TORSDO>
F 0

$$$$
=
 OpenBabel11112417413D

 28 32  0  0  1  0  0  0  0  0999 V2000
  191.2470  175.9460  145.2760 C   0  0  2  0  0  3  0  0  0  0  0  0
  189.8680  174.8760  142.1140 O   0  0  0  0  0  0  0  0  0  0  0  0
  196.8640  172.9990  145.8000 O   0  0  0  0  0  0  0  0  0  0  0  0
  190.9030  178.2760  143.4930 C   0  0  0  0  0  2  0  0  0  0  0  0
  194.7440  172.2810  145.0360 N   0  0  0  0  0  0  0  0  0  0  0  0
  191.9030  175.4190  146.5610 C   0  0  0  0  0  2  0  0  0  0  0  0
  191.6240  174.1880  140.5270 O   0  0  0  0  0  0  0  0  0  0  0  0
  190.9580  173.8800  141.8380 S   0  0  0  0  0  0  0  0  0  0  0  0
  191.1480  171.1660  142.3420 C   0  0  0  0  0  0  0  0  0  0  0  0
  192.1370  173.8750  143.1270 C   0  0  0  0  0  0  0  0  0  0  0  0
  194.5660  177.5420  146.0590 O   0  0  0  0  0  0  0  0  0  0  0  0
  193.8860  174.3300  144.5490 C   0  0  1  0  0  3  0  0  0  0  0  0
  192.1520  171.3890  143.2010 C   0  0  0  0  0  3  0  0  0  0  0  0
  190.2450  172.2420  141.7910 C   0  0  0  0  0  2  0  0  0  0  0  0
  194.1660  176.4750  146.5910 C   0  0  0  0  0  0  0  0  0  0  0  0
  192.2770  176.2610  144.1570 C   0  0  2  0  0  3  0  0  0  0  0  0
  195.7070  173.2760  145.3880 C   0  0  0  0  0  0  0  0  0  0  0  0
  190.8160  169.7560  142.0130 C   0  0  0  0  0  1  0  0  0  0  0  0
  194.9370  175.2810  146.4790 N   0  0  0  0  0  2  0  0  0  0  0  0
  191.6790  177.0650  142.9990 C   0  0  0  0  0  2  0  0  0  0  0  0
  190.3790  177.1590  145.6360 C   0  0  0  0  0  2  0  0  0  0  0  0
  189.7800  177.8100  144.4010 C   0  0  0  0  0  2  0  0  0  0  0  0
  192.8290  176.4290  147.2550 C   0  0  0  0  0  2  0  0  0  0  0  0
  193.6630  173.0470  144.5380 C   0  0  1  0  0  3  0  0  0  0  0  0
  195.1960  174.6750  145.1800 C   0  0  2  0  0  3  0  0  0  0  0  0
  192.5860  172.7290  143.6270 C   0  0  0  0  0  0  0  0  0  0  0  0
  195.0440  170.9020  144.6890 C   0  0  0  0  0  1  0  0  0  0  0  0
  193.0070  175.0360  143.5700 C   0  0  2  0  0  3  0  0  0  0  0  0
  1 21  1  1  0  0  0
  1  6  1  0  0  0  0
  4 22  1  0  0  0  0
  5 17  1  0  0  0  0
  6 23  1  0  0  0  0
  7  8  2  0  0  0  0
  8  2  2  0  0  0  0
  8 10  1  0  0  0  0
  9 13  2  0  0  0  0
 10 28  1  0  0  0  0
 10 26  2  0  0  0  0
 11 15  2  0  0  0  0
 12 25  1  0  0  0  0
 13 26  1  0  0  0  0
 14  8  1  0  0  0  0
 14  9  1  0  0  0  0
 15 23  1  0  0  0  0
 16  1  1  0  0  0  0
 17  3  2  0  0  0  0
 18  9  1  0  0  0  0
 19 15  1  0  0  0  0
 20  4  1  0  0  0  0
 20 16  1  0  0  0  0
 22 21  1  0  0  0  0
 24 12  1  0  0  0  0
 24  5  1  0  0  0  0
 25 17  1  0  0  0  0
 25 19  1  0  0  0  0
 26 24  1  0  0  0  0
 27  5  1  0  0  0  0
 28 16  1  0  0  0  0
 28 12  1  0  0  0  0
M  END
>  <MODEL>
9

>  <REMARK>
 VINA RESULT:      -7.1      3.409      6.023
  Name = 
  0 active torsions:
  status: ('A' for Active; 'I' for Inactive)
                            x       y       z     vdW  Elec       q    Type
                         _______ _______ _______ _____ _____    ______ ____

>  <TORSDO>
F 0

$$$$
