=
 OpenBabel11112416573D

 31 35  0  0  1  0  0  0  0  0999 V2000
  186.6310  177.2890  140.8990 C   0  0  0  0  0  0  0  0  0  0  0  0
  187.6660  176.1390  144.3970 C   0  0  0  0  0  0  0  0  0  0  0  0
  186.8170  176.7980  145.3280 C   0  0  0  0  0  0  0  0  0  0  0  0
  184.8840  178.1800  145.8740 C   0  0  0  0  0  0  0  0  0  0  0  0
  187.4910  176.2130  142.9090 C   0  0  0  0  0  0  0  0  0  0  0  0
  187.2680  176.3360  140.1040 C   0  0  0  0  0  3  0  0  0  0  0  0
  185.6980  177.5480  144.9310 C   0  0  0  0  0  3  0  0  0  0  0  0
  189.6820  174.6580  143.9480 C   0  0  1  0  0  3  0  0  0  0  0  0
  185.8820  178.2980  140.3080 O   0  0  0  0  0  1  0  0  0  0  0  0
  188.1520  175.9510  147.1420 N   0  0  0  0  0  0  0  0  0  0  0  0
  183.7090  178.9710  145.4270 C   0  0  0  0  0  1  0  0  0  0  0  0
  188.9460  174.1620  142.7050 C   0  0  0  0  0  2  0  0  0  0  0  0
  188.7310  175.3510  144.8970 C   0  0  0  0  0  0  0  0  0  0  0  0
  186.7460  177.2300  142.2900 C   0  0  0  0  0  3  0  0  0  0  0  0
  185.1750  178.0680  147.2330 C   0  0  0  0  0  3  0  0  0  0  0  0
  188.1520  175.2700  142.0900 C   0  0  0  0  0  0  0  0  0  0  0  0
  188.0250  175.3260  140.7000 C   0  0  0  0  0  3  0  0  0  0  0  0
  188.9630  175.2980  146.2760 C   0  0  0  0  0  3  0  0  0  0  0  0
  187.0950  176.6840  146.7130 C   0  0  0  0  0  0  0  0  0  0  0  0
  186.2770  177.3200  147.6520 C   0  0  0  0  0  3  0  0  0  0  0  0
  190.3200  173.5760  144.5660 O   0  0  0  0  0  0  0  0  0  0  0  0
  192.3910  172.3830  144.5950 C   0  0  0  0  0  1  0  0  0  0  0  0
  191.6310  173.5960  144.0790 C   0  0  2  0  0  3  0  0  0  0  0  0
  194.5480  176.5270  145.4690 C   0  0  1  0  0  3  0  0  0  0  0  0
  192.6370  174.9910  145.9460 C   0  0  0  0  0  2  0  0  0  0  0  0
  193.2400  175.1900  142.2470 O   0  0  0  0  0  1  0  0  0  0  0  0
  195.1740  177.8610  145.8170 C   0  0  0  0  0  1  0  0  0  0  0  0
  193.2780  176.3320  146.2880 C   0  0  0  0  0  2  0  0  0  0  0  0
  193.5740  175.1640  143.6020 C   0  0  2  0  0  3  0  0  0  0  0  0
  192.3160  174.9180  144.4490 C   0  0  1  0  0  3  0  0  0  0  0  0
  194.2180  176.4950  143.9800 C   0  0  0  0  0  2  0  0  0  0  0  0
  1 14  1  0  0  0  0
  2 13  2  0  0  0  0
  2  3  1  0  0  0  0
  3 19  1  0  0  0  0
  4 15  2  0  0  0  0
  5  2  1  0  0  0  0
  6 17  1  0  0  0  0
  6  1  2  0  0  0  0
  7  3  2  0  0  0  0
  7  4  1  0  0  0  0
  8 21  1  1  0  0  0
  8 13  1  0  0  0  0
  9  1  1  0  0  0  0
 11  4  1  0  0  0  0
 12  8  1  0  0  0  0
 13 18  1  0  0  0  0
 14  5  2  0  0  0  0
 15 20  1  0  0  0  0
 16 12  1  0  0  0  0
 16  5  1  0  0  0  0
 17 16  2  0  0  0  0
 18 10  2  0  0  0  0
 19 10  1  0  0  0  0
 19 20  2  0  0  0  0
 23 21  1  0  0  0  0
 23 22  1  1  0  0  0
 24 27  1  1  0  0  0
 24 28  1  0  0  0  0
 25 28  1  0  0  0  0
 29 26  1  6  0  0  0
 29 31  1  0  0  0  0
 29 30  1  0  0  0  0
 30 23  1  1  0  0  0
 30 25  1  0  0  0  0
 31 24  1  0  0  0  0
M  END
>  <MODEL>
1

>  <REMARK>
 VINA RESULT:      -8.5      0.000      0.000
  Name = 
  3 active torsions:
  status: ('A' for Active; 'I' for Inactive)
    1  A    between atoms: C_5  and  O_16
    2  A    between atoms: C_5  and  C_30
    3  A    between atoms: C_10  and  O_16
                            x       y       z     vdW  Elec       q    Type
                         _______ _______ _______ _____ _____    ______ ____

>  <TORSDO>
F 3

$$$$
=
 OpenBabel11112416573D

 31 35  0  0  1  0  0  0  0  0999 V2000
  186.1840  177.6090  141.0010 C   0  0  0  0  0  0  0  0  0  0  0  0
  187.8840  176.9450  144.3630 C   0  0  0  0  0  0  0  0  0  0  0  0
  187.0440  177.4830  145.3760 C   0  0  0  0  0  0  0  0  0  0  0  0
  184.9500  178.4770  146.1310 C   0  0  0  0  0  0  0  0  0  0  0  0
  187.5060  176.8760  142.9130 C   0  0  0  0  0  0  0  0  0  0  0  0
  186.8990  176.7510  140.1650 C   0  0  0  0  0  3  0  0  0  0  0  0
  185.7490  177.9590  145.1100 C   0  0  0  0  0  3  0  0  0  0  0  0
  190.0920  175.8770  143.6960 C   0  0  1  0  0  3  0  0  0  0  0  0
  185.1690  178.4000  140.4800 O   0  0  0  0  0  1  0  0  0  0  0  0
  188.7510  177.0560  147.0170 N   0  0  0  0  0  0  0  0  0  0  0  0
  183.5860  178.9800  145.8220 C   0  0  0  0  0  1  0  0  0  0  0  0
  189.3220  175.1540  142.5920 C   0  0  0  0  0  2  0  0  0  0  0  0
  189.1470  176.4280  144.7400 C   0  0  0  0  0  0  0  0  0  0  0  0
  186.4890  177.6730  142.3630 C   0  0  0  0  0  3  0  0  0  0  0  0
  185.4320  178.5240  147.4390 C   0  0  0  0  0  3  0  0  0  0  0  0
  188.2390  176.0310  142.0500 C   0  0  0  0  0  0  0  0  0  0  0  0
  187.9240  175.9620  140.6900 C   0  0  0  0  0  3  0  0  0  0  0  0
  189.5630  176.5210  146.0730 C   0  0  0  0  0  3  0  0  0  0  0  0
  187.5160  177.5260  146.7120 C   0  0  0  0  0  0  0  0  0  0  0  0
  186.7120  178.0480  147.7290 C   0  0  0  0  0  3  0  0  0  0  0  0
  191.0180  174.9940  144.2630 O   0  0  0  0  0  0  0  0  0  0  0  0
  192.6600  175.9620  142.8200 C   0  0  0  0  0  1  0  0  0  0  0  0
  192.2350  175.6840  144.2550 C   0  0  2  0  0  3  0  0  0  0  0  0
  195.7980  173.3880  145.2880 C   0  0  1  0  0  3  0  0  0  0  0  0
  193.4140  173.4540  144.5470 C   0  0  0  0  0  2  0  0  0  0  0  0
  194.5480  176.8880  145.5550 O   0  0  0  0  0  1  0  0  0  0  0  0
  196.8120  172.6230  146.1120 C   0  0  0  0  0  1  0  0  0  0  0  0
  194.4450  172.6930  145.3730 C   0  0  0  0  0  2  0  0  0  0  0  0
  194.6600  175.6070  145.0120 C   0  0  2  0  0  3  0  0  0  0  0  0
  193.2960  174.9010  145.0400 C   0  0  1  0  0  3  0  0  0  0  0  0
  195.6860  174.8140  145.8170 C   0  0  0  0  0  2  0  0  0  0  0  0
  1 14  1  0  0  0  0
  2 13  2  0  0  0  0
  2  3  1  0  0  0  0
  3 19  1  0  0  0  0
  4 15  2  0  0  0  0
  5  2  1  0  0  0  0
  6 17  1  0  0  0  0
  6  1  2  0  0  0  0
  7  3  2  0  0  0  0
  7  4  1  0  0  0  0
  8 21  1  1  0  0  0
  8 13  1  0  0  0  0
  9  1  1  0  0  0  0
 11  4  1  0  0  0  0
 12  8  1  0  0  0  0
 13 18  1  0  0  0  0
 14  5  2  0  0  0  0
 15 20  1  0  0  0  0
 16 12  1  0  0  0  0
 16  5  1  0  0  0  0
 17 16  2  0  0  0  0
 18 10  2  0  0  0  0
 19 10  1  0  0  0  0
 19 20  2  0  0  0  0
 23 22  1  6  0  0  0
 23 21  1  0  0  0  0
 24 28  1  0  0  0  0
 24 31  1  0  0  0  0
 24 27  1  1  0  0  0
 25 30  1  0  0  0  0
 25 28  1  0  0  0  0
 29 30  1  0  0  0  0
 29 26  1  1  0  0  0
 29 31  1  0  0  0  0
 30 23  1  6  0  0  0
M  END
>  <MODEL>
2

>  <REMARK>
 VINA RESULT:      -8.3      1.613      2.034
  Name = 
  3 active torsions:
  status: ('A' for Active; 'I' for Inactive)
    1  A    between atoms: C_5  and  O_16
    2  A    between atoms: C_5  and  C_30
    3  A    between atoms: C_10  and  O_16
                            x       y       z     vdW  Elec       q    Type
                         _______ _______ _______ _____ _____    ______ ____

>  <TORSDO>
F 3

$$$$
=
 OpenBabel11112416573D

 31 35  0  0  1  0  0  0  0  0999 V2000
  184.7280  178.1770  146.5880 C   0  0  0  0  0  0  0  0  0  0  0  0
  187.6050  177.3040  144.2240 C   0  0  0  0  0  0  0  0  0  0  0  0
  187.0960  177.3610  142.8980 C   0  0  0  0  0  0  0  0  0  0  0  0
  185.3520  177.9070  141.2840 C   0  0  0  0  0  0  0  0  0  0  0  0
  186.8270  177.7190  145.4370 C   0  0  0  0  0  0  0  0  0  0  0  0
  185.4220  178.4290  147.7720 C   0  0  0  0  0  3  0  0  0  0  0  0
  185.8180  177.8630  142.6000 C   0  0  0  0  0  3  0  0  0  0  0  0
  189.5080  176.7340  145.8100 C   0  0  1  0  0  3  0  0  0  0  0  0
  183.3440  178.2790  146.5590 O   0  0  0  0  0  1  0  0  0  0  0  0
  189.1600  176.4440  142.0670 N   0  0  0  0  0  0  0  0  0  0  0  0
  183.9940  178.4370  140.9960 C   0  0  0  0  0  1  0  0  0  0  0  0
  189.0050  177.8690  146.7000 C   0  0  0  0  0  2  0  0  0  0  0  0
  188.9310  176.8460  144.4160 C   0  0  0  0  0  0  0  0  0  0  0  0
  185.4260  177.8210  145.4310 C   0  0  0  0  0  3  0  0  0  0  0  0
  186.1590  177.4530  140.2420 C   0  0  0  0  0  3  0  0  0  0  0  0
  187.5130  177.9520  146.6500 C   0  0  0  0  0  0  0  0  0  0  0  0
  186.8120  178.3190  147.8010 C   0  0  0  0  0  3  0  0  0  0  0  0
  189.6750  176.3980  143.3190 C   0  0  0  0  0  3  0  0  0  0  0  0
  187.9100  176.9140  141.8270 C   0  0  0  0  0  0  0  0  0  0  0  0
  187.4370  176.9600  140.5120 C   0  0  0  0  0  3  0  0  0  0  0  0
  190.9070  176.7550  145.7850 O   0  0  0  0  0  0  0  0  0  0  0  0
  191.1540  175.2320  147.6120 C   0  0  0  0  0  1  0  0  0  0  0  0
  191.2990  175.4520  146.1130 C   0  0  2  0  0  3  0  0  0  0  0  0
  195.5010  174.2920  145.9490 C   0  0  1  0  0  3  0  0  0  0  0  0
  193.7580  176.0290  146.3740 C   0  0  0  0  0  2  0  0  0  0  0  0
  192.1850  172.9550  144.9030 O   0  0  0  0  0  1  0  0  0  0  0  0
  196.8940  174.0500  145.4050 C   0  0  0  0  0  1  0  0  0  0  0  0
  195.1590  175.7720  145.8300 C   0  0  0  0  0  2  0  0  0  0  0  0
  193.0810  173.6920  145.6790 C   0  0  2  0  0  3  0  0  0  0  0  0
  192.7260  175.1850  145.6160 C   0  0  1  0  0  3  0  0  0  0  0  0
  194.4970  173.4590  145.1600 C   0  0  0  0  0  2  0  0  0  0  0  0
  1  6  1  0  0  0  0
  2 13  1  0  0  0  0
  2  5  1  0  0  0  0
  3  2  2  0  0  0  0
  4  7  2  0  0  0  0
  5 16  2  0  0  0  0
  6 17  2  0  0  0  0
  7  3  1  0  0  0  0
  8 21  1  6  0  0  0
  8 12  1  0  0  0  0
  9  1  1  0  0  0  0
 10 18  1  0  0  0  0
 11  4  1  0  0  0  0
 13  8  1  0  0  0  0
 14  5  1  0  0  0  0
 14  1  2  0  0  0  0
 15 20  2  0  0  0  0
 15  4  1  0  0  0  0
 16 12  1  0  0  0  0
 16 17  1  0  0  0  0
 18 13  2  0  0  0  0
 19 10  2  0  0  0  0
 19  3  1  0  0  0  0
 20 19  1  0  0  0  0
 21 23  1  0  0  0  0
 23 22  1  1  0  0  0
 24 27  1  6  0  0  0
 28 24  1  0  0  0  0
 28 25  1  0  0  0  0
 29 26  1  6  0  0  0
 30 29  1  0  0  0  0
 30 23  1  1  0  0  0
 30 25  1  0  0  0  0
 31 29  1  0  0  0  0
 31 24  1  0  0  0  0
M  END
>  <MODEL>
3

>  <REMARK>
 VINA RESULT:      -8.3      2.257      4.470
  Name = 
  3 active torsions:
  status: ('A' for Active; 'I' for Inactive)
    1  A    between atoms: C_5  and  O_16
    2  A    between atoms: C_5  and  C_30
    3  A    between atoms: C_10  and  O_16
                            x       y       z     vdW  Elec       q    Type
                         _______ _______ _______ _____ _____    ______ ____

>  <TORSDO>
F 3

$$$$
=
 OpenBabel11112416573D

 31 35  0  0  1  0  0  0  0  0999 V2000
  188.2650  175.1040  140.9390 C   0  0  0  0  0  0  0  0  0  0  0  0
  187.9230  176.2830  144.5610 C   0  0  0  0  0  0  0  0  0  0  0  0
  186.7750  177.1200  144.6280 C   0  0  0  0  0  0  0  0  0  0  0  0
  184.7580  178.0860  143.6590 C   0  0  0  0  0  0  0  0  0  0  0  0
  188.3210  175.5050  143.3420 C   0  0  0  0  0  0  0  0  0  0  0  0
  189.1700  174.0510  141.0840 C   0  0  0  0  0  3  0  0  0  0  0  0
  185.8770  177.2570  143.5570 C   0  0  0  0  0  3  0  0  0  0  0  0
  189.9820  175.3070  145.6870 C   0  0  1  0  0  3  0  0  0  0  0  0
  187.7790  175.4330  139.6810 O   0  0  0  0  0  1  0  0  0  0  0  0
  187.3400  177.7130  146.8900 N   0  0  0  0  0  0  0  0  0  0  0  0
  183.8260  178.2180  142.5090 C   0  0  0  0  0  1  0  0  0  0  0  0
  189.7760  174.0680  144.8180 C   0  0  0  0  0  2  0  0  0  0  0  0
  188.7320  176.1580  145.7170 C   0  0  0  0  0  0  0  0  0  0  0  0
  187.8480  175.8270  142.0590 C   0  0  0  0  0  3  0  0  0  0  0  0
  184.5160  178.7910  144.8380 C   0  0  0  0  0  3  0  0  0  0  0  0
  189.2560  174.4540  143.4700 C   0  0  0  0  0  0  0  0  0  0  0  0
  189.6620  173.7260  142.3490 C   0  0  0  0  0  3  0  0  0  0  0  0
  188.4280  176.9060  146.8590 C   0  0  0  0  0  3  0  0  0  0  0  0
  186.5110  177.8330  145.8240 C   0  0  0  0  0  0  0  0  0  0  0  0
  185.3900  178.6630  145.9190 C   0  0  0  0  0  3  0  0  0  0  0  0
  190.3560  174.9070  146.9750 O   0  0  0  0  0  0  0  0  0  0  0  0
  191.8270  176.5810  147.8410 C   0  0  0  0  0  1  0  0  0  0  0  0
  191.7040  175.2610  147.0920 C   0  0  2  0  0  3  0  0  0  0  0  0
  194.5710  175.8970  143.8650 C   0  0  1  0  0  3  0  0  0  0  0  0
  192.7030  176.7460  145.2910 C   0  0  0  0  0  2  0  0  0  0  0  0
  193.2500  173.0860  145.9230 O   0  0  0  0  0  1  0  0  0  0  0  0
  195.1710  175.9240  142.4750 C   0  0  0  0  0  1  0  0  0  0  0  0
  193.3180  176.7640  143.8950 C   0  0  0  0  0  2  0  0  0  0  0  0
  193.6030  174.4060  145.6340 C   0  0  2  0  0  3  0  0  0  0  0  0
  192.3640  175.3100  145.7070 C   0  0  1  0  0  3  0  0  0  0  0  0
  194.2210  174.4610  144.2400 C   0  0  0  0  0  2  0  0  0  0  0  0
  1  6  2  0  0  0  0
  1 14  1  0  0  0  0
  2  3  2  0  0  0  0
  2 13  1  0  0  0  0
  3 19  1  0  0  0  0
  4 15  1  0  0  0  0
  5 16  1  0  0  0  0
  5  2  1  0  0  0  0
  6 17  1  0  0  0  0
  7  4  2  0  0  0  0
  7  3  1  0  0  0  0
  8 13  1  0  0  0  0
  8 21  1  1  0  0  0
  9  1  1  0  0  0  0
 11  4  1  0  0  0  0
 12  8  1  0  0  0  0
 13 18  2  0  0  0  0
 14  5  2  0  0  0  0
 15 20  2  0  0  0  0
 16 12  1  0  0  0  0
 17 16  2  0  0  0  0
 18 10  1  0  0  0  0
 19 20  1  0  0  0  0
 19 10  2  0  0  0  0
 21 23  1  0  0  0  0
 23 22  1  6  0  0  0
 24 27  1  6  0  0  0
 24 28  1  0  0  0  0
 24 31  1  0  0  0  0
 25 30  1  0  0  0  0
 28 25  1  0  0  0  0
 29 30  1  0  0  0  0
 29 26  1  6  0  0  0
 30 23  1  1  0  0  0
 31 29  1  0  0  0  0
M  END
>  <MODEL>
4

>  <REMARK>
 VINA RESULT:      -8.0      1.754      2.528
  Name = 
  3 active torsions:
  status: ('A' for Active; 'I' for Inactive)
    1  A    between atoms: C_5  and  O_16
    2  A    between atoms: C_5  and  C_30
    3  A    between atoms: C_10  and  O_16
                            x       y       z     vdW  Elec       q    Type
                         _______ _______ _______ _____ _____    ______ ____

>  <TORSDO>
F 3

$$$$
=
 OpenBabel11112416573D

 31 35  0  0  1  0  0  0  0  0999 V2000
  185.0530  177.6560  146.8930 C   0  0  0  0  0  0  0  0  0  0  0  0
  186.6600  177.3680  143.4330 C   0  0  0  0  0  0  0  0  0  0  0  0
  185.6590  177.6830  142.4740 C   0  0  0  0  0  0  0  0  0  0  0  0
  183.4450  178.5010  141.8630 C   0  0  0  0  0  0  0  0  0  0  0  0
  186.4700  177.5020  144.9150 C   0  0  0  0  0  0  0  0  0  0  0  0
  186.1830  177.6780  147.7110 C   0  0  0  0  0  3  0  0  0  0  0  0
  184.4030  178.2000  142.8340 C   0  0  0  0  0  3  0  0  0  0  0  0
  189.0050  176.5340  143.9500 C   0  0  1  0  0  3  0  0  0  0  0  0
  183.7860  177.7250  147.4560 O   0  0  0  0  0  1  0  0  0  0  0  0
  187.1450  177.0130  140.7050 N   0  0  0  0  0  0  0  0  0  0  0  0
  182.1220  179.0420  142.2710 C   0  0  0  0  0  1  0  0  0  0  0  0
  188.9780  177.4480  145.1730 C   0  0  0  0  0  2  0  0  0  0  0  0
  187.9180  176.9150  142.9690 C   0  0  0  0  0  0  0  0  0  0  0  0
  185.1970  177.5650  145.5060 C   0  0  0  0  0  3  0  0  0  0  0  0
  183.7290  178.2940  140.5140 C   0  0  0  0  0  3  0  0  0  0  0  0
  187.6030  177.4990  145.7580 C   0  0  0  0  0  0  0  0  0  0  0  0
  187.4560  177.6020  147.1440 C   0  0  0  0  0  3  0  0  0  0  0  0
  188.1220  176.7230  141.5980 C   0  0  0  0  0  3  0  0  0  0  0  0
  185.9380  177.4880  141.0980 C   0  0  0  0  0  0  0  0  0  0  0  0
  184.9740  177.7900  140.1320 C   0  0  0  0  0  3  0  0  0  0  0  0
  190.2720  176.5980  143.3570 O   0  0  0  0  0  0  0  0  0  0  0  0
  191.6290  178.5090  143.8270 C   0  0  0  0  0  1  0  0  0  0  0  0
  191.1010  177.1710  144.3260 C   0  0  2  0  0  3  0  0  0  0  0  0
  195.0010  175.5300  145.3910 C   0  0  1  0  0  3  0  0  0  0  0  0
  193.3370  176.1780  143.6450 C   0  0  0  0  0  2  0  0  0  0  0  0
  191.7910  176.4240  147.0570 O   0  0  0  0  0  1  0  0  0  0  0  0
  196.0730  174.5270  145.7600 C   0  0  0  0  0  1  0  0  0  0  0  0
  194.4190  175.1750  144.0280 C   0  0  0  0  0  2  0  0  0  0  0  0
  192.8000  176.5050  146.0960 C   0  0  2  0  0  3  0  0  0  0  0  0
  192.2280  176.2000  144.7040 C   0  0  1  0  0  3  0  0  0  0  0  0
  193.9030  175.5100  146.4490 C   0  0  0  0  0  2  0  0  0  0  0  0
  1  9  1  0  0  0  0
  1  6  1  0  0  0  0
  2  5  1  0  0  0  0
  3  7  1  0  0  0  0
  3  2  2  0  0  0  0
  4 11  1  0  0  0  0
  4  7  2  0  0  0  0
  5 14  1  0  0  0  0
  5 16  2  0  0  0  0
  8 21  1  6  0  0  0
  8 12  1  0  0  0  0
 10 19  2  0  0  0  0
 10 18  1  0  0  0  0
 12 16  1  0  0  0  0
 13  2  1  0  0  0  0
 13  8  1  0  0  0  0
 14  1  2  0  0  0  0
 15  4  1  0  0  0  0
 16 17  1  0  0  0  0
 17  6  2  0  0  0  0
 18 13  2  0  0  0  0
 19  3  1  0  0  0  0
 20 15  2  0  0  0  0
 20 19  1  0  0  0  0
 21 23  1  0  0  0  0
 23 22  1  6  0  0  0
 24 27  1  1  0  0  0
 24 31  1  0  0  0  0
 25 28  1  0  0  0  0
 25 30  1  0  0  0  0
 28 24  1  0  0  0  0
 29 31  1  0  0  0  0
 29 26  1  1  0  0  0
 30 23  1  6  0  0  0
 30 29  1  0  0  0  0
M  END
>  <MODEL>
5

>  <REMARK>
 VINA RESULT:      -7.8      2.650      4.619
  Name = 
  3 active torsions:
  status: ('A' for Active; 'I' for Inactive)
    1  A    between atoms: C_5  and  O_16
    2  A    between atoms: C_5  and  C_30
    3  A    between atoms: C_10  and  O_16
                            x       y       z     vdW  Elec       q    Type
                         _______ _______ _______ _____ _____    ______ ____

>  <TORSDO>
F 3

$$$$
=
 OpenBabel11112416573D

 31 35  0  0  1  0  0  0  0  0999 V2000
  191.0250  176.4060  147.0340 C   0  0  0  0  0  0  0  0  0  0  0  0
  188.0960  176.6050  144.5820 C   0  0  0  0  0  0  0  0  0  0  0  0
  187.0440  177.3060  145.2340 C   0  0  0  0  0  0  0  0  0  0  0  0
  186.1630  178.6330  147.0790 C   0  0  0  0  0  0  0  0  0  0  0  0
  189.4720  176.4390  145.1560 C   0  0  0  0  0  0  0  0  0  0  0  0
  192.0640  176.0360  146.1800 C   0  0  0  0  0  3  0  0  0  0  0  0
  187.2190  177.9520  146.4690 C   0  0  0  0  0  3  0  0  0  0  0  0
  188.9160  175.2600  142.5870 C   0  0  1  0  0  3  0  0  0  0  0  0
  191.2680  176.5800  148.3890 O   0  0  0  0  0  1  0  0  0  0  0  0
  185.5660  176.7850  143.4080 N   0  0  0  0  0  0  0  0  0  0  0  0
  186.3730  179.3040  148.3880 C   0  0  0  0  0  1  0  0  0  0  0  0
  190.2940  175.8670  142.8410 C   0  0  0  0  0  2  0  0  0  0  0  0
  187.8410  176.0440  143.3070 C   0  0  0  0  0  0  0  0  0  0  0  0
  189.7380  176.6020  146.5260 C   0  0  0  0  0  3  0  0  0  0  0  0
  184.9140  178.6840  146.4610 C   0  0  0  0  0  3  0  0  0  0  0  0
  190.5280  176.0390  144.3080 C   0  0  0  0  0  0  0  0  0  0  0  0
  191.8160  175.8550  144.8190 C   0  0  0  0  0  3  0  0  0  0  0  0
  186.5570  176.1280  142.7580 C   0  0  0  0  0  3  0  0  0  0  0  0
  185.7730  177.3740  144.6120 C   0  0  0  0  0  0  0  0  0  0  0  0
  184.7200  178.0570  145.2290 C   0  0  0  0  0  3  0  0  0  0  0  0
  188.6790  175.2190  141.2080 O   0  0  0  0  0  0  0  0  0  0  0  0
  188.7110  173.0230  142.1520 C   0  0  0  0  0  1  0  0  0  0  0  0
  188.4450  173.8720  140.9160 C   0  0  2  0  0  3  0  0  0  0  0  0
  190.0460  171.5780  137.5690 C   0  0  1  0  0  3  0  0  0  0  0  0
  190.0640  172.1430  140.0020 C   0  0  0  0  0  2  0  0  0  0  0  0
  187.8160  174.5070  138.1430 O   0  0  0  0  0  1  0  0  0  0  0  0
  190.9100  171.1960  136.3860 C   0  0  0  0  0  1  0  0  0  0  0  0
  190.9230  171.7580  138.8020 C   0  0  0  0  0  2  0  0  0  0  0  0
  188.4360  173.2920  138.4410 C   0  0  2  0  0  3  0  0  0  0  0  0
  189.2880  173.4330  139.7110 C   0  0  1  0  0  3  0  0  0  0  0  0
  189.3080  172.8760  137.2600 C   0  0  0  0  0  2  0  0  0  0  0  0
  1  9  1  0  0  0  0
  2  5  1  0  0  0  0
  2  3  1  0  0  0  0
  3  7  1  0  0  0  0
  4 11  1  0  0  0  0
  5 14  2  0  0  0  0
  6  1  2  0  0  0  0
  7  4  2  0  0  0  0
  8 21  1  6  0  0  0
  8 12  1  0  0  0  0
  8 13  1  0  0  0  0
 10 19  1  0  0  0  0
 12 16  1  0  0  0  0
 13  2  2  0  0  0  0
 14  1  1  0  0  0  0
 15  4  1  0  0  0  0
 16 17  2  0  0  0  0
 16  5  1  0  0  0  0
 17  6  1  0  0  0  0
 18 13  1  0  0  0  0
 18 10  2  0  0  0  0
 19 20  1  0  0  0  0
 19  3  2  0  0  0  0
 20 15  2  0  0  0  0
 23 21  1  0  0  0  0
 23 22  1  1  0  0  0
 24 27  1  6  0  0  0
 24 28  1  0  0  0  0
 28 25  1  0  0  0  0
 29 26  1  6  0  0  0
 29 30  1  0  0  0  0
 30 25  1  0  0  0  0
 30 23  1  1  0  0  0
 31 24  1  0  0  0  0
 31 29  1  0  0  0  0
M  END
>  <MODEL>
6

>  <REMARK>
 VINA RESULT:      -7.8      2.914      5.833
  Name = 
  3 active torsions:
  status: ('A' for Active; 'I' for Inactive)
    1  A    between atoms: C_5  and  O_16
    2  A    between atoms: C_5  and  C_30
    3  A    between atoms: C_10  and  O_16
                            x       y       z     vdW  Elec       q    Type
                         _______ _______ _______ _____ _____    ______ ____

>  <TORSDO>
F 3

$$$$
=
 OpenBabel11112416573D

 31 35  0  0  1  0  0  0  0  0999 V2000
  185.0220  177.6370  146.7410 C   0  0  0  0  0  0  0  0  0  0  0  0
  186.7410  177.4150  143.3310 C   0  0  0  0  0  0  0  0  0  0  0  0
  185.7510  177.6590  142.3410 C   0  0  0  0  0  0  0  0  0  0  0  0
  183.5100  178.3350  141.6590 C   0  0  0  0  0  0  0  0  0  0  0  0
  186.5010  177.5520  144.8060 C   0  0  0  0  0  0  0  0  0  0  0  0
  186.1240  177.7360  147.5910 C   0  0  0  0  0  3  0  0  0  0  0  0
  184.4570  178.1020  142.6590 C   0  0  0  0  0  3  0  0  0  0  0  0
  189.1170  176.7310  143.9230 C   0  0  1  0  0  3  0  0  0  0  0  0
  183.7370  177.6340  147.2670 O   0  0  0  0  0  1  0  0  0  0  0  0
  187.3260  177.0650  140.6220 N   0  0  0  0  0  0  0  0  0  0  0  0
  182.1460  178.7980  142.0230 C   0  0  0  0  0  1  0  0  0  0  0  0
  189.0000  177.6530  145.1350 C   0  0  0  0  0  2  0  0  0  0  0  0
  188.0380  177.0360  142.9070 C   0  0  0  0  0  0  0  0  0  0  0  0
  185.2100  177.5420  145.3600 C   0  0  0  0  0  3  0  0  0  0  0  0
  183.8450  178.1330  140.3210 C   0  0  0  0  0  3  0  0  0  0  0  0
  187.6080  177.6260  145.6800 C   0  0  0  0  0  0  0  0  0  0  0  0
  187.4150  177.7320  147.0600 C   0  0  0  0  0  3  0  0  0  0  0  0
  188.2920  176.8440  141.5450 C   0  0  0  0  0  3  0  0  0  0  0  0
  186.0810  177.4690  140.9760 C   0  0  0  0  0  0  0  0  0  0  0  0
  185.1280  177.7030  139.9790 C   0  0  0  0  0  3  0  0  0  0  0  0
  190.3940  176.8670  143.3650 O   0  0  0  0  0  0  0  0  0  0  0  0
  192.6300  176.0880  143.6930 C   0  0  0  0  0  1  0  0  0  0  0  0
  191.1480  175.8260  143.9190 C   0  0  2  0  0  3  0  0  0  0  0  0
  191.1250  171.6920  142.5280 C   0  0  1  0  0  3  0  0  0  0  0  0
  191.4620  174.1220  142.0630 C   0  0  0  0  0  2  0  0  0  0  0  0
  190.0210  173.6520  145.4970 O   0  0  0  0  0  1  0  0  0  0  0  0
  190.6260  170.3840  141.9500 C   0  0  0  0  0  1  0  0  0  0  0  0
  190.9620  172.7990  141.4940 C   0  0  0  0  0  2  0  0  0  0  0  0
  190.8040  173.3510  144.3810 C   0  0  2  0  0  3  0  0  0  0  0  0
  190.6960  174.4770  143.3430 C   0  0  1  0  0  3  0  0  0  0  0  0
  190.3290  172.0290  143.7830 C   0  0  0  0  0  2  0  0  0  0  0  0
  1  9  1  0  0  0  0
  1  6  1  0  0  0  0
  2  5  1  0  0  0  0
  3  7  1  0  0  0  0
  3  2  2  0  0  0  0
  4 11  1  0  0  0  0
  4  7  2  0  0  0  0
  5 14  1  0  0  0  0
  5 16  2  0  0  0  0
  8 21  1  6  0  0  0
  8 12  1  0  0  0  0
 10 19  2  0  0  0  0
 10 18  1  0  0  0  0
 12 16  1  0  0  0  0
 13  2  1  0  0  0  0
 13  8  1  0  0  0  0
 14  1  2  0  0  0  0
 15  4  1  0  0  0  0
 16 17  1  0  0  0  0
 17  6  2  0  0  0  0
 18 13  2  0  0  0  0
 19  3  1  0  0  0  0
 20 15  2  0  0  0  0
 20 19  1  0  0  0  0
 21 23  1  0  0  0  0
 23 22  1  6  0  0  0
 24 27  1  6  0  0  0
 24 31  1  0  0  0  0
 25 30  1  0  0  0  0
 28 25  1  0  0  0  0
 28 24  1  0  0  0  0
 29 26  1  1  0  0  0
 30 23  1  1  0  0  0
 30 29  1  0  0  0  0
 31 29  1  0  0  0  0
M  END
>  <MODEL>
7

>  <REMARK>
 VINA RESULT:      -7.8      2.638      5.181
  Name = 
  3 active torsions:
  status: ('A' for Active; 'I' for Inactive)
    1  A    between atoms: C_5  and  O_16
    2  A    between atoms: C_5  and  C_30
    3  A    between atoms: C_10  and  O_16
                            x       y       z     vdW  Elec       q    Type
                         _______ _______ _______ _____ _____    ______ ____

>  <TORSDO>
F 3

$$$$
=
 OpenBabel11112416573D

 31 35  0  0  1  0  0  0  0  0999 V2000
  190.7620  171.7510  141.7220 C   0  0  0  0  0  0  0  0  0  0  0  0
  190.3640  175.0850  143.5520 C   0  0  0  0  0  0  0  0  0  0  0  0
  191.4430  175.1960  144.4720 C   0  0  0  0  0  0  0  0  0  0  0  0
  193.5660  174.4370  145.3990 C   0  0  0  0  0  0  0  0  0  0  0  0
  190.2360  173.9850  142.5410 C   0  0  0  0  0  0  0  0  0  0  0  0
  189.8900  171.9290  140.6470 C   0  0  0  0  0  3  0  0  0  0  0  0
  192.5210  174.2960  144.4820 C   0  0  0  0  0  3  0  0  0  0  0  0
  188.1700  175.9900  142.6400 C   0  0  1  0  0  3  0  0  0  0  0  0
  191.4640  170.5600  141.8570 O   0  0  0  0  0  1  0  0  0  0  0  0
  190.4360  177.1670  145.4150 N   0  0  0  0  0  0  0  0  0  0  0  0
  194.6930  173.4690  145.3920 C   0  0  0  0  0  1  0  0  0  0  0  0
  188.5870  175.4220  141.2850 C   0  0  0  0  0  2  0  0  0  0  0  0
  189.3560  176.0800  143.5750 C   0  0  0  0  0  0  0  0  0  0  0  0
  190.9300  172.7690  142.6630 C   0  0  0  0  0  3  0  0  0  0  0  0
  193.5510  175.4850  146.3190 C   0  0  0  0  0  3  0  0  0  0  0  0
  189.3370  174.1410  141.4630 C   0  0  0  0  0  0  0  0  0  0  0  0
  189.1810  173.1240  140.5170 C   0  0  0  0  0  3  0  0  0  0  0  0
  189.4070  177.0950  144.5360 C   0  0  0  0  0  3  0  0  0  0  0  0
  191.4460  176.2620  145.4050 C   0  0  0  0  0  0  0  0  0  0  0  0
  192.4940  176.3970  146.3210 C   0  0  0  0  0  3  0  0  0  0  0  0
  187.5750  177.2430  142.4500 O   0  0  0  0  0  0  0  0  0  0  0  0
  185.5190  177.6800  141.3120 C   0  0  0  0  0  1  0  0  0  0  0  0
  186.1980  177.0050  142.4960 C   0  0  2  0  0  3  0  0  0  0  0  0
  185.8320  178.2150  146.6710 C   0  0  1  0  0  3  0  0  0  0  0  0
  185.8370  176.4160  144.9390 C   0  0  0  0  0  2  0  0  0  0  0  0
  185.8950  179.7900  143.2960 O   0  0  0  0  0  1  0  0  0  0  0  0
  185.2100  178.6690  147.9750 C   0  0  0  0  0  1  0  0  0  0  0  0
  185.2190  176.8850  146.2520 C   0  0  0  0  0  2  0  0  0  0  0  0
  186.1880  178.8300  144.2660 C   0  0  2  0  0  3  0  0  0  0  0  0
  185.6230  177.4660  143.8420 C   0  0  1  0  0  3  0  0  0  0  0  0
  185.5810  179.2670  145.5960 C   0  0  0  0  0  2  0  0  0  0  0  0
  1  9  1  0  0  0  0
  1 14  1  0  0  0  0
  2 13  2  0  0  0  0
  2  3  1  0  0  0  0
  3  7  2  0  0  0  0
  3 19  1  0  0  0  0
  4 15  2  0  0  0  0
  5 14  2  0  0  0  0
  5  2  1  0  0  0  0
  6  1  2  0  0  0  0
  7  4  1  0  0  0  0
  8 21  1  6  0  0  0
  8 13  1  0  0  0  0
 11  4  1  0  0  0  0
 12 16  1  0  0  0  0
 12  8  1  0  0  0  0
 13 18  1  0  0  0  0
 15 20  1  0  0  0  0
 16  5  1  0  0  0  0
 17  6  1  0  0  0  0
 17 16  2  0  0  0  0
 18 10  2  0  0  0  0
 19 10  1  0  0  0  0
 19 20  2  0  0  0  0
 21 23  1  0  0  0  0
 23 22  1  6  0  0  0
 24 27  1  1  0  0  0
 25 28  1  0  0  0  0
 28 24  1  0  0  0  0
 29 26  1  6  0  0  0
 29 31  1  0  0  0  0
 30 23  1  6  0  0  0
 30 29  1  0  0  0  0
 30 25  1  0  0  0  0
 31 24  1  0  0  0  0
M  END
>  <MODEL>
8

>  <REMARK>
 VINA RESULT:      -7.5      2.015      6.871
  Name = 
  3 active torsions:
  status: ('A' for Active; 'I' for Inactive)
    1  A    between atoms: C_5  and  O_16
    2  A    between atoms: C_5  and  C_30
    3  A    between atoms: C_10  and  O_16
                            x       y       z     vdW  Elec       q    Type
                         _______ _______ _______ _____ _____    ______ ____

>  <TORSDO>
F 3

$$$$
=
 OpenBabel11112416573D

 31 35  0  0  1  0  0  0  0  0999 V2000
  191.3300  170.8500  142.6900 C   0  0  0  0  0  0  0  0  0  0  0  0
  192.4360  173.7690  144.9010 C   0  0  0  0  0  0  0  0  0  0  0  0
  193.8570  173.7750  144.9150 C   0  0  0  0  0  0  0  0  0  0  0  0
  196.0210  172.9900  144.1100 C   0  0  0  0  0  0  0  0  0  0  0  0
  191.6120  172.8640  144.0340 C   0  0  0  0  0  0  0  0  0  0  0  0
  189.9880  171.1670  142.4790 C   0  0  0  0  0  3  0  0  0  0  0  0
  194.6250  172.9550  144.0710 C   0  0  0  0  0  3  0  0  0  0  0  0
  190.2390  174.6900  145.7880 C   0  0  1  0  0  3  0  0  0  0  0  0
  191.8680  169.6990  142.1300 O   0  0  0  0  0  1  0  0  0  0  0  0
  193.8320  175.4800  146.6130 N   0  0  0  0  0  0  0  0  0  0  0  0
  196.8090  172.1090  143.2110 C   0  0  0  0  0  1  0  0  0  0  0  0
  189.6490  174.4030  144.4080 C   0  0  0  0  0  2  0  0  0  0  0  0
  191.7510  174.6810  145.7400 C   0  0  0  0  0  0  0  0  0  0  0  0
  192.1340  171.6900  143.4650 C   0  0  0  0  0  3  0  0  0  0  0  0
  196.6730  173.8520  144.9920 C   0  0  0  0  0  3  0  0  0  0  0  0
  190.2450  173.1580  143.8330 C   0  0  0  0  0  0  0  0  0  0  0  0
  189.4480  172.3210  143.0480 C   0  0  0  0  0  3  0  0  0  0  0  0
  192.4780  175.5060  146.6050 C   0  0  0  0  0  3  0  0  0  0  0  0
  194.5340  174.6540  145.7980 C   0  0  0  0  0  0  0  0  0  0  0  0
  195.9310  174.6830  145.8330 C   0  0  0  0  0  3  0  0  0  0  0  0
  189.7510  175.9190  146.2490 O   0  0  0  0  0  0  0  0  0  0  0  0
  190.0780  177.8410  144.8650 C   0  0  0  0  0  1  0  0  0  0  0  0
  189.2710  176.5730  145.1090 C   0  0  2  0  0  3  0  0  0  0  0  0
  185.4500  178.5850  145.7290 C   0  0  1  0  0  3  0  0  0  0  0  0
  187.4130  177.3490  146.6560 C   0  0  0  0  0  2  0  0  0  0  0  0
  187.5160  177.3090  142.9040 O   0  0  0  0  0  1  0  0  0  0  0  0
  183.9570  178.8020  145.8580 C   0  0  0  0  0  1  0  0  0  0  0  0
  185.9100  177.5770  146.7750 C   0  0  0  0  0  2  0  0  0  0  0  0
  187.2680  177.8290  144.1750 C   0  0  2  0  0  3  0  0  0  0  0  0
  187.7680  176.8520  145.2490 C   0  0  1  0  0  3  0  0  0  0  0  0
  185.7690  178.0680  144.3300 C   0  0  0  0  0  2  0  0  0  0  0  0
  1 14  1  0  0  0  0
  2  3  2  0  0  0  0
  2 13  1  0  0  0  0
  3 19  1  0  0  0  0
  4 15  1  0  0  0  0
  5  2  1  0  0  0  0
  6  1  2  0  0  0  0
  6 17  1  0  0  0  0
  7  4  2  0  0  0  0
  7  3  1  0  0  0  0
  8 21  1  6  0  0  0
  9  1  1  0  0  0  0
 11  4  1  0  0  0  0
 12  8  1  0  0  0  0
 13  8  1  0  0  0  0
 13 18  2  0  0  0  0
 14  5  2  0  0  0  0
 15 20  2  0  0  0  0
 16  5  1  0  0  0  0
 16 12  1  0  0  0  0
 17 16  2  0  0  0  0
 18 10  1  0  0  0  0
 19 20  1  0  0  0  0
 19 10  2  0  0  0  0
 23 22  1  1  0  0  0
 23 21  1  0  0  0  0
 24 27  1  6  0  0  0
 24 28  1  0  0  0  0
 25 28  1  0  0  0  0
 29 26  1  6  0  0  0
 29 31  1  0  0  0  0
 29 30  1  0  0  0  0
 30 23  1  1  0  0  0
 30 25  1  0  0  0  0
 31 24  1  0  0  0  0
M  END
>  <MODEL>
9

>  <REMARK>
 VINA RESULT:      -7.5      2.464      7.690
  Name = 
  3 active torsions:
  status: ('A' for Active; 'I' for Inactive)
    1  A    between atoms: C_5  and  O_16
    2  A    between atoms: C_5  and  C_30
    3  A    between atoms: C_10  and  O_16
                            x       y       z     vdW  Elec       q    Type
                         _______ _______ _______ _____ _____    ______ ____

>  <TORSDO>
F 3

$$$$
