=
 OpenBabel11112417453D

 34 41  0  0  1  0  0  0  0  0999 V2000
  189.1810  175.9350  142.6400 C   0  0  0  0  0  0  0  0  0  0  0  0
  191.3510  174.8030  142.3720 O   0  0  0  0  0  0  0  0  0  0  0  0
  184.6040  178.2080  146.1190 C   0  0  1  0  0  3  0  0  0  0  0  0
  187.0700  177.0700  143.0160 C   0  0  0  0  0  0  0  0  0  0  0  0
  186.7810  178.1630  145.1990 C   0  0  0  0  0  0  0  0  0  0  0  0
  185.8390  178.7510  147.5700 C   0  0  0  0  0  2  0  0  0  0  0  0
  184.5180  178.2580  147.5140 O   0  0  0  0  0  0  0  0  0  0  0  0
  184.1030  179.2480  143.9050 C   0  0  0  0  0  2  0  0  0  0  0  0
  190.9560  175.9310  144.3610 C   0  0  0  0  0  0  0  0  0  0  0  0
  191.7710  174.8280  146.9750 C   0  0  0  0  0  2  0  0  0  0  0  0
  188.0080  177.8110  145.6140 C   0  0  0  0  0  3  0  0  0  0  0  0
  184.9680  178.1890  143.3540 N   0  0  0  0  0  2  0  0  0  0  0  0
  190.2020  176.6510  145.2150 C   0  0  0  0  0  0  0  0  0  0  0  0
  192.5380  174.7650  143.1580 C   0  0  0  0  0  2  0  0  0  0  0  0
  186.2890  177.8080  143.8190 C   0  0  0  0  0  0  0  0  0  0  0  0
  183.5480  178.9320  145.3120 C   0  0  0  0  0  2  0  0  0  0  0  0
  192.3940  174.3710  145.6490 C   0  0  1  0  0  3  0  0  0  0  0  0
  188.4080  176.6620  143.4620 C   0  0  0  0  0  0  0  0  0  0  0  0
  185.8870  178.9680  146.0760 C   0  0  2  0  0  3  0  0  0  0  0  0
  188.8820  177.0450  144.7700 N   0  0  0  0  0  0  0  0  0  0  0  0
  187.5320  175.8900  140.8940 C   0  0  0  0  0  3  0  0  0  0  0  0
  191.8900  176.3360  147.1730 C   0  0  0  0  0  2  0  0  0  0  0  0
  186.6450  176.6700  141.7080 N   0  0  0  0  0  2  0  0  0  0  0  0
  190.6820  177.0800  146.5910 C   0  0  0  0  0  2  0  0  0  0  0  0
  192.3150  175.4230  144.5310 C   0  0  2  0  0  3  0  0  0  0  0  0
  188.7110  175.5510  141.3350 N   0  0  0  0  0  0  0  0  0  0  0  0
  190.4810  175.5510  143.0950 N   0  0  0  0  0  0  0  0  0  0  0  0
  193.7810  173.9980  145.8760 N   0  0  0  0  0  2  0  0  0  0  0  0
  193.8590  172.6550  145.7120 O   0  0  0  0  0  0  0  0  0  0  0  0
  197.1090  173.0240  146.0980 C   0  0  0  0  0  2  0  0  0  0  0  0
  195.7950  171.2780  145.6730 C   0  0  0  0  0  2  0  0  0  0  0  0
  195.0680  172.4480  145.0470 C   0  0  2  0  0  3  0  0  0  0  0  0
  197.1350  171.6400  145.8750 O   0  0  0  0  0  0  0  0  0  0  0  0
  195.9830  173.6120  145.2830 C   0  0  0  0  0  2  0  0  0  0  0  0
  1 27  1  0  0  0  0
  1 18  2  0  0  0  0
  2 27  1  0  0  0  0
  2 14  1  0  0  0  0
  3 16  1  6  0  0  0
  3  7  1  0  0  0  0
  4 18  1  0  0  0  0
  4 15  2  0  0  0  0
  5 11  2  0  0  0  0
  5 19  1  0  0  0  0
  7  6  1  0  0  0  0
  8 16  1  0  0  0  0
  9 25  1  0  0  0  0
  9 13  2  0  0  0  0
 10 22  1  0  0  0  0
 12 15  1  0  0  0  0
 12  8  1  0  0  0  0
 13 24  1  0  0  0  0
 15  5  1  0  0  0  0
 17 28  1  1  0  0  0
 17 10  1  0  0  0  0
 18 20  1  0  0  0  0
 19  3  1  0  0  0  0
 19  6  1  1  0  0  0
 20 13  1  0  0  0  0
 20 11  1  0  0  0  0
 21 26  2  0  0  0  0
 21 23  1  0  0  0  0
 23  4  1  0  0  0  0
 24 22  1  0  0  0  0
 25 14  1  6  0  0  0
 25 17  1  0  0  0  0
 26  1  1  0  0  0  0
 27  9  1  0  0  0  0
 29 28  1  0  0  0  0
 31 33  1  0  0  0  0
 32 34  1  0  0  0  0
 32 31  1  0  0  0  0
 32 29  1  1  0  0  0
 33 30  1  0  0  0  0
 34 30  1  0  0  0  0
M  END
>  <MODEL>
1

>  <REMARK>
 VINA RESULT:      -8.5      0.000      0.000
  Name = 
  3 active torsions:
  status: ('A' for Active; 'I' for Inactive)
    1  A    between atoms: C_17  and  N_28
    2  A    between atoms: N_28  and  O_29
    3  A    between atoms: O_29  and  C_32
                            x       y       z     vdW  Elec       q    Type
                         _______ _______ _______ _____ _____    ______ ____

>  <TORSDO>
F 3

$$$$
=
 OpenBabel11112417453D

 34 41  0  0  1  0  0  0  0  0999 V2000
  188.4260  177.4130  146.6570 C   0  0  0  0  0  0  0  0  0  0  0  0
  190.3440  176.9280  148.1230 O   0  0  0  0  0  0  0  0  0  0  0  0
  185.8850  178.2040  141.0770 C   0  0  1  0  0  3  0  0  0  0  0  0
  186.5970  177.8450  145.1230 C   0  0  0  0  0  0  0  0  0  0  0  0
  186.8380  176.9550  142.8440 C   0  0  0  0  0  0  0  0  0  0  0  0
  187.0580  176.8470  140.2370 C   0  0  0  0  0  2  0  0  0  0  0  0
  186.4880  178.0690  139.8220 O   0  0  0  0  0  0  0  0  0  0  0  0
  183.8560  177.9680  142.5130 C   0  0  0  0  0  2  0  0  0  0  0  0
  190.4010  176.1010  145.9570 C   0  0  0  0  0  0  0  0  0  0  0  0
  192.8640  176.1420  144.3290 C   0  0  0  0  0  2  0  0  0  0  0  0
  188.0290  176.4000  143.1130 C   0  0  0  0  0  3  0  0  0  0  0  0
  184.7650  178.2880  143.6290 N   0  0  0  0  0  2  0  0  0  0  0  0
  189.9140  175.9360  144.7100 C   0  0  0  0  0  0  0  0  0  0  0  0
  191.5060  176.1180  147.9780 C   0  0  0  0  0  2  0  0  0  0  0  0
  186.0570  177.6900  143.9040 C   0  0  0  0  0  0  0  0  0  0  0  0
  184.3870  178.4090  141.1300 C   0  0  0  0  0  2  0  0  0  0  0  0
  192.8770  176.2390  145.8600 C   0  0  1  0  0  3  0  0  0  0  0  0
  187.9080  177.2580  145.4280 C   0  0  2  0  0  3  0  0  0  0  0  0
  186.2230  176.8130  141.4950 C   0  0  2  0  0  3  0  0  0  0  0  0
  188.6240  176.5220  144.4150 N   0  0  0  0  0  0  0  0  0  0  0  0
  186.5470  178.6850  147.4470 C   0  0  0  0  0  3  0  0  0  0  0  0
  192.1370  174.8920  143.8420 C   0  0  0  0  0  2  0  0  0  0  0  0
  185.9220  178.5630  146.1620 N   0  0  0  0  0  0  0  0  0  0  0  0
  190.6410  175.1540  143.6290 C   0  0  0  0  0  2  0  0  0  0  0  0
  191.6490  175.6070  146.5340 C   0  0  2  0  0  3  0  0  0  0  0  0
  187.7140  178.1470  147.6700 N   0  0  0  0  0  0  0  0  0  0  0  0
  189.7030  176.8310  146.9320 N   0  0  0  0  0  0  0  0  0  0  0  0
  194.0900  175.6190  146.3690 N   0  0  0  0  0  2  0  0  0  0  0  0
  195.0450  175.7870  145.4220 O   0  0  0  0  0  0  0  0  0  0  0  0
  195.6910  172.7770  144.2500 C   0  0  0  0  0  2  0  0  0  0  0  0
  196.8840  174.6470  144.4400 C   0  0  0  0  0  2  0  0  0  0  0  0
  195.9140  174.7100  145.5990 C   0  0  2  0  0  3  0  0  0  0  0  0
  196.9560  173.3210  143.9880 O   0  0  0  0  0  0  0  0  0  0  0  0
  195.1520  173.4220  145.5040 C   0  0  0  0  0  2  0  0  0  0  0  0
  1 27  1  0  0  0  0
  1 26  2  0  0  0  0
  3 16  1  6  0  0  0
  3 19  1  0  0  0  0
  4 23  1  0  0  0  0
  5 11  2  0  0  0  0
  5 15  1  0  0  0  0
  7  6  1  0  0  0  0
  7  3  1  0  0  0  0
  8 12  1  0  0  0  0
  9 25  1  0  0  0  0
  9 27  1  0  0  0  0
 10 17  1  0  0  0  0
 11 20  1  0  0  0  0
 12 15  1  0  0  0  0
 13  9  2  0  0  0  0
 14  2  1  0  0  0  0
 15  4  2  0  0  0  0
 16  8  1  0  0  0  0
 17 28  1  1  0  0  0
 17 25  1  0  0  0  0
 18  4  1  1  0  0  0
 18  1  1  0  0  0  0
 19  6  1  6  0  0  0
 19  5  1  0  0  0  0
 20 13  1  0  0  0  0
 20 18  1  0  0  0  0
 21 26  1  0  0  0  0
 22 10  1  0  0  0  0
 23 21  2  0  0  0  0
 24 22  1  0  0  0  0
 24 13  1  0  0  0  0
 25 14  1  1  0  0  0
 27  2  1  0  0  0  0
 29 28  1  0  0  0  0
 30 34  1  0  0  0  0
 31 32  1  0  0  0  0
 32 29  1  6  0  0  0
 33 30  1  0  0  0  0
 33 31  1  0  0  0  0
 34 32  1  0  0  0  0
M  END
>  <MODEL>
2

>  <REMARK>
 VINA RESULT:      -8.0      2.197      3.991
  Name = 
  3 active torsions:
  status: ('A' for Active; 'I' for Inactive)
    1  A    between atoms: C_17  and  N_28
    2  A    between atoms: N_28  and  O_29
    3  A    between atoms: O_29  and  C_32
                            x       y       z     vdW  Elec       q    Type
                         _______ _______ _______ _____ _____    ______ ____

>  <TORSDO>
F 3

$$$$
=
 OpenBabel11112417453D

 34 41  0  0  1  0  0  0  0  0999 V2000
  190.0870  176.3210  146.2570 C   0  0  0  0  0  0  0  0  0  0  0  0
  187.7280  176.9240  146.6250 O   0  0  0  0  0  0  0  0  0  0  0  0
  194.7930  174.6730  142.6030 C   0  0  1  0  0  3  0  0  0  0  0  0
  192.3960  175.7490  145.7810 C   0  0  0  0  0  0  0  0  0  0  0  0
  193.1820  176.1590  143.4880 C   0  0  0  0  0  0  0  0  0  0  0  0
  194.1180  175.7430  141.0790 C   0  0  0  0  0  2  0  0  0  0  0  0
  194.7980  174.5140  141.2130 O   0  0  0  0  0  0  0  0  0  0  0  0
  195.9980  175.3450  144.6840 C   0  0  0  0  0  2  0  0  0  0  0  0
  188.6290  177.3100  144.5220 C   0  0  0  0  0  0  0  0  0  0  0  0
  187.1200  176.7570  142.0460 C   0  0  0  0  0  2  0  0  0  0  0  0
  191.9980  176.6580  143.0980 C   0  0  0  0  0  3  0  0  0  0  0  0
  194.6900  175.1740  145.3440 N   0  0  0  0  0  2  0  0  0  0  0  0
  189.6120  177.2690  143.6000 C   0  0  0  0  0  0  0  0  0  0  0  0
  186.7550  177.5950  145.8310 C   0  0  0  0  0  2  0  0  0  0  0  0
  193.4140  175.7090  144.9080 C   0  0  0  0  0  0  0  0  0  0  0  0
  196.1170  174.6040  143.3340 C   0  0  0  0  0  2  0  0  0  0  0  0
  186.4400  176.9560  143.4070 C   0  0  1  0  0  3  0  0  0  0  0  0
  191.0900  176.2760  145.3660 C   0  0  2  0  0  3  0  0  0  0  0  0
  194.3230  176.0870  142.5350 C   0  0  2  0  0  3  0  0  0  0  0  0
  190.8950  176.7430  144.0140 N   0  0  0  0  0  0  0  0  0  0  0  0
  191.4190  175.3810  148.0220 C   0  0  0  0  0  3  0  0  0  0  0  0
  188.0010  177.9430  141.6670 C   0  0  0  0  0  2  0  0  0  0  0  0
  192.5430  175.3020  147.1340 N   0  0  0  0  0  0  0  0  0  0  0  0
  189.4370  177.7660  142.1750 C   0  0  0  0  0  2  0  0  0  0  0  0
  187.2610  177.8030  144.3930 C   0  0  2  0  0  3  0  0  0  0  0  0
  190.2790  175.8570  147.6060 N   0  0  0  0  0  0  0  0  0  0  0  0
  188.8250  176.8400  145.8320 N   0  0  0  0  0  0  0  0  0  0  0  0
  185.1340  177.5630  143.2060 N   0  0  0  0  0  2  0  0  0  0  0  0
  184.8200  177.3960  141.8980 O   0  0  0  0  0  0  0  0  0  0  0  0
  181.7810  178.0770  140.8260 C   0  0  0  0  0  2  0  0  0  0  0  0
  182.9230  178.6050  142.6630 C   0  0  0  0  0  2  0  0  0  0  0  0
  183.9850  178.4720  141.5940 C   0  0  2  0  0  3  0  0  0  0  0  0
  181.6780  178.7730  142.0380 O   0  0  0  0  0  0  0  0  0  0  0  0
  183.2080  178.1740  140.3460 C   0  0  0  0  0  2  0  0  0  0  0  0
  1 26  2  0  0  0  0
  3 16  1  6  0  0  0
  4 23  1  0  0  0  0
  5 15  1  0  0  0  0
  6  7  1  0  0  0  0
  7  3  1  0  0  0  0
  8 12  1  0  0  0  0
  9 27  1  0  0  0  0
 10 17  1  0  0  0  0
 11  5  2  0  0  0  0
 11 20  1  0  0  0  0
 13 20  1  0  0  0  0
 13  9  2  0  0  0  0
 14  2  1  0  0  0  0
 15 12  1  0  0  0  0
 15  4  2  0  0  0  0
 16  8  1  0  0  0  0
 17 28  1  6  0  0  0
 17 25  1  0  0  0  0
 18  4  1  1  0  0  0
 18  1  1  0  0  0  0
 19  6  1  6  0  0  0
 19  3  1  0  0  0  0
 19  5  1  0  0  0  0
 20 18  1  0  0  0  0
 22 10  1  0  0  0  0
 22 24  1  0  0  0  0
 23 21  2  0  0  0  0
 24 13  1  0  0  0  0
 25  9  1  0  0  0  0
 25 14  1  1  0  0  0
 26 21  1  0  0  0  0
 27  1  1  0  0  0  0
 27  2  1  0  0  0  0
 29 28  1  0  0  0  0
 30 33  1  0  0  0  0
 32 29  1  1  0  0  0
 32 31  1  0  0  0  0
 33 31  1  0  0  0  0
 34 30  1  0  0  0  0
 34 32  1  0  0  0  0
M  END
>  <MODEL>
3

>  <REMARK>
 VINA RESULT:      -7.9      2.500      9.445
  Name = 
  3 active torsions:
  status: ('A' for Active; 'I' for Inactive)
    1  A    between atoms: C_17  and  N_28
    2  A    between atoms: N_28  and  O_29
    3  A    between atoms: O_29  and  C_32
                            x       y       z     vdW  Elec       q    Type
                         _______ _______ _______ _____ _____    ______ ____

>  <TORSDO>
F 3

$$$$
=
 OpenBabel11112417453D

 34 41  0  0  1  0  0  0  0  0999 V2000
  190.1440  172.7970  142.8520 C   0  0  0  0  0  0  0  0  0  0  0  0
  188.0820  173.8520  142.0170 O   0  0  0  0  0  0  0  0  0  0  0  0
  195.9560  173.0740  144.9400 C   0  0  1  0  0  3  0  0  0  0  0  0
  192.2090  171.8620  143.7160 C   0  0  0  0  0  0  0  0  0  0  0  0
  193.6120  173.3590  145.0720 C   0  0  0  0  0  0  0  0  0  0  0  0
  195.6500  174.7980  145.8670 C   0  0  0  0  0  2  0  0  0  0  0  0
  196.7360  174.2080  145.1860 O   0  0  0  0  0  0  0  0  0  0  0  0
  195.3230  170.7380  145.5540 C   0  0  0  0  0  2  0  0  0  0  0  0
  189.4800  175.1240  143.3620 C   0  0  0  0  0  0  0  0  0  0  0  0
  190.0410  177.9660  142.7920 C   0  0  0  0  0  2  0  0  0  0  0  0
  192.7470  174.3790  144.9660 C   0  0  0  0  0  3  0  0  0  0  0  0
  194.2470  170.9040  144.5590 N   0  0  0  0  0  2  0  0  0  0  0  0
  190.5970  175.3390  144.0860 C   0  0  0  0  0  0  0  0  0  0  0  0
  187.4530  175.1050  142.2680 C   0  0  0  0  0  2  0  0  0  0  0  0
  193.3240  172.0170  144.4470 C   0  0  0  0  0  0  0  0  0  0  0  0
  196.4950  171.7290  145.3770 C   0  0  0  0  0  2  0  0  0  0  0  0
  188.8130  177.2330  142.2360 C   0  0  1  0  0  3  0  0  0  0  0  0
  191.2600  172.9750  143.5760 C   0  0  0  0  0  0  0  0  0  0  0  0
  194.8650  173.5070  145.8620 C   0  0  2  0  0  3  0  0  0  0  0  0
  191.5300  174.2400  144.2150 N   0  0  0  0  0  0  0  0  0  0  0  0
  190.6830  170.5200  142.3100 C   0  0  0  0  0  3  0  0  0  0  0  0
  190.1130  177.8880  144.3140 C   0  0  0  0  0  2  0  0  0  0  0  0
  191.8960  170.6250  143.0680 N   0  0  0  0  0  2  0  0  0  0  0  0
  190.8980  176.6560  144.7810 C   0  0  0  0  0  2  0  0  0  0  0  0
  188.3700  176.0320  143.0860 C   0  0  2  0  0  3  0  0  0  0  0  0
  189.8720  171.5360  142.2140 N   0  0  0  0  0  0  0  0  0  0  0  0
  189.2330  173.8930  142.7320 N   0  0  0  0  0  0  0  0  0  0  0  0
  187.7130  178.1750  142.1040 N   0  0  0  0  0  2  0  0  0  0  0  0
  187.1070  178.2440  143.3130 O   0  0  0  0  0  0  0  0  0  0  0  0
  183.8650  178.1990  142.7340 C   0  0  0  0  0  2  0  0  0  0  0  0
  185.1320  179.0750  144.3410 C   0  0  0  0  0  2  0  0  0  0  0  0
  186.0200  179.0980  143.1170 C   0  0  2  0  0  3  0  0  0  0  0  0
  183.8000  178.9360  143.9240 O   0  0  0  0  0  0  0  0  0  0  0  0
  185.1450  178.5630  142.0230 C   0  0  0  0  0  2  0  0  0  0  0  0
  1 18  2  0  0  0  0
  2 14  1  0  0  0  0
  2 27  1  0  0  0  0
  3  7  1  0  0  0  0
  3 16  1  1  0  0  0
  3 19  1  0  0  0  0
  4 15  2  0  0  0  0
  5 19  1  0  0  0  0
  7  6  1  0  0  0  0
  9 13  2  0  0  0  0
 10 22  1  0  0  0  0
 11  5  2  0  0  0  0
 12  8  1  0  0  0  0
 13 20  1  0  0  0  0
 13 24  1  0  0  0  0
 15 12  1  0  0  0  0
 15  5  1  0  0  0  0
 16  8  1  0  0  0  0
 17 28  1  1  0  0  0
 17 10  1  0  0  0  0
 17 25  1  0  0  0  0
 18  4  1  0  0  0  0
 18 20  1  0  0  0  0
 19  6  1  6  0  0  0
 20 11  1  0  0  0  0
 21 23  1  0  0  0  0
 22 24  1  0  0  0  0
 23  4  1  0  0  0  0
 25 14  1  6  0  0  0
 25  9  1  0  0  0  0
 26 21  2  0  0  0  0
 26  1  1  0  0  0  0
 27  1  1  0  0  0  0
 27  9  1  0  0  0  0
 28 29  1  0  0  0  0
 30 33  1  0  0  0  0
 32 29  1  1  0  0  0
 32 31  1  0  0  0  0
 33 31  1  0  0  0  0
 34 30  1  0  0  0  0
 34 32  1  0  0  0  0
M  END
>  <MODEL>
4

>  <REMARK>
 VINA RESULT:      -7.9      2.453      8.969
  Name = 
  3 active torsions:
  status: ('A' for Active; 'I' for Inactive)
    1  A    between atoms: C_17  and  N_28
    2  A    between atoms: N_28  and  O_29
    3  A    between atoms: O_29  and  C_32
                            x       y       z     vdW  Elec       q    Type
                         _______ _______ _______ _____ _____    ______ ____

>  <TORSDO>
F 3

$$$$
=
 OpenBabel11112417453D

 34 41  0  0  1  0  0  0  0  0999 V2000
  194.1520  175.6470  144.2130 C   0  0  0  0  0  0  0  0  0  0  0  0
  192.4010  177.3730  144.0820 O   0  0  0  0  0  0  0  0  0  0  0  0
  196.3110  170.2010  146.1890 C   0  0  1  0  0  3  0  0  0  0  0  0
  195.7960  173.8700  144.3780 C   0  0  0  0  0  0  0  0  0  0  0  0
  194.9400  171.6220  144.8890 C   0  0  0  0  0  0  0  0  0  0  0  0
  194.5220  169.3530  146.1250 C   0  0  0  0  0  2  0  0  0  0  0  0
  195.6550  169.2360  146.9590 O   0  0  0  0  0  0  0  0  0  0  0  0
  197.9410  170.7500  144.3790 C   0  0  0  0  0  2  0  0  0  0  0  0
  191.7400  175.1890  144.4990 C   0  0  0  0  0  0  0  0  0  0  0  0
  189.6300  174.5390  146.4600 C   0  0  0  0  0  2  0  0  0  0  0  0
  193.6660  172.0390  144.9160 C   0  0  0  0  0  3  0  0  0  0  0  0
  197.4510  172.1320  144.5310 N   0  0  0  0  0  2  0  0  0  0  0  0
  191.9620  173.8780  144.7250 C   0  0  0  0  0  0  0  0  0  0  0  0
  190.9780  177.3260  144.0990 C   0  0  0  0  0  2  0  0  0  0  0  0
  196.0690  172.5710  144.5720 C   0  0  0  0  0  0  0  0  0  0  0  0
  197.6620  169.8500  145.6030 C   0  0  0  0  0  2  0  0  0  0  0  0
  189.7770  175.9290  145.8270 C   0  0  1  0  0  3  0  0  0  0  0  0
  194.4070  174.3460  144.4220 C   0  0  0  0  0  0  0  0  0  0  0  0
  195.2740  170.1900  145.1170 C   0  0  2  0  0  3  0  0  0  0  0  0
  193.3340  173.4180  144.6850 N   0  0  0  0  0  0  0  0  0  0  0  0
  196.4690  176.2000  143.9000 C   0  0  0  0  0  3  0  0  0  0  0  0
  189.4860  173.4440  145.4080 C   0  0  0  0  0  2  0  0  0  0  0  0
  196.8270  174.8270  144.1090 N   0  0  0  0  0  2  0  0  0  0  0  0
  190.8490  172.8790  144.9900 C   0  0  0  0  0  2  0  0  0  0  0  0
  190.4740  175.9170  144.4570 C   0  0  2  0  0  3  0  0  0  0  0  0
  195.2210  176.5740  143.9500 N   0  0  0  0  0  0  0  0  0  0  0  0
  192.7930  176.0870  144.2580 N   0  0  0  0  0  0  0  0  0  0  0  0
  188.4640  176.5410  145.7060 N   0  0  0  0  0  2  0  0  0  0  0  0
  188.1890  177.1230  146.8980 O   0  0  0  0  0  0  0  0  0  0  0  0
  185.3370  178.7120  146.4640 C   0  0  0  0  0  2  0  0  0  0  0  0
  186.1590  176.7860  145.7100 C   0  0  0  0  0  2  0  0  0  0  0  0
  186.8130  176.9610  147.0630 C   0  0  2  0  0  3  0  0  0  0  0  0
  185.0290  177.6150  145.6480 O   0  0  0  0  0  0  0  0  0  0  0  0
  186.2130  178.2290  147.5940 C   0  0  0  0  0  2  0  0  0  0  0  0
  1 27  1  0  0  0  0
  1 18  2  0  0  0  0
  2 14  1  0  0  0  0
  2 27  1  0  0  0  0
  3 16  1  6  0  0  0
  3  7  1  0  0  0  0
  4 18  1  0  0  0  0
  4 15  2  0  0  0  0
  5 11  2  0  0  0  0
  5 19  1  0  0  0  0
  6  7  1  0  0  0  0
  8 12  1  0  0  0  0
  8 16  1  0  0  0  0
  9 13  2  0  0  0  0
 12 15  1  0  0  0  0
 13 24  1  0  0  0  0
 15  5  1  0  0  0  0
 17 28  1  6  0  0  0
 17 10  1  0  0  0  0
 18 20  1  0  0  0  0
 19  6  1  1  0  0  0
 19  3  1  0  0  0  0
 20 13  1  0  0  0  0
 20 11  1  0  0  0  0
 21 26  2  0  0  0  0
 21 23  1  0  0  0  0
 22 10  1  0  0  0  0
 23  4  1  0  0  0  0
 24 22  1  0  0  0  0
 25 14  1  1  0  0  0
 25  9  1  0  0  0  0
 25 17  1  0  0  0  0
 26  1  1  0  0  0  0
 27  9  1  0  0  0  0
 28 29  1  0  0  0  0
 30 34  1  0  0  0  0
 31 32  1  0  0  0  0
 32 29  1  6  0  0  0
 32 34  1  0  0  0  0
 33 31  1  0  0  0  0
 33 30  1  0  0  0  0
M  END
>  <MODEL>
5

>  <REMARK>
 VINA RESULT:      -7.9      2.447      9.541
  Name = 
  3 active torsions:
  status: ('A' for Active; 'I' for Inactive)
    1  A    between atoms: C_17  and  N_28
    2  A    between atoms: N_28  and  O_29
    3  A    between atoms: O_29  and  C_32
                            x       y       z     vdW  Elec       q    Type
                         _______ _______ _______ _____ _____    ______ ____

>  <TORSDO>
F 3

$$$$
=
 OpenBabel11112417453D

 34 41  0  0  1  0  0  0  0  0999 V2000
  190.2780  174.9030  142.2010 C   0  0  0  0  0  0  0  0  0  0  0  0
  192.4900  173.9470  141.6980 O   0  0  0  0  0  0  0  0  0  0  0  0
  186.0130  177.0090  146.1490 C   0  0  1  0  0  3  0  0  0  0  0  0
  188.1380  175.8750  142.8030 C   0  0  0  0  0  0  0  0  0  0  0  0
  188.0420  177.0880  144.9390 C   0  0  0  0  0  0  0  0  0  0  0  0
  187.3730  177.7560  147.3810 C   0  0  0  0  0  2  0  0  0  0  0  0
  186.1090  177.1480  147.5380 O   0  0  0  0  0  0  0  0  0  0  0  0
  185.1240  177.8460  143.9710 C   0  0  0  0  0  2  0  0  0  0  0  0
  192.2600  175.1710  143.6540 C   0  0  0  0  0  0  0  0  0  0  0  0
  193.5180  174.3270  146.1880 C   0  0  0  0  0  2  0  0  0  0  0  0
  189.3400  176.8730  145.1980 C   0  0  0  0  0  3  0  0  0  0  0  0
  186.0040  176.8290  143.3670 N   0  0  0  0  0  2  0  0  0  0  0  0
  191.5610  175.8820  144.5630 C   0  0  0  0  0  0  0  0  0  0  0  0
  193.7700  174.0650  142.3110 C   0  0  0  0  0  2  0  0  0  0  0  0
  187.4050  176.5970  143.6630 C   0  0  0  0  0  0  0  0  0  0  0  0
  184.7940  177.5820  145.4580 C   0  0  0  0  0  2  0  0  0  0  0  0
  193.9990  173.8340  144.8160 C   0  0  1  0  0  3  0  0  0  0  0  0
  189.5570  175.6160  143.0800 C   0  0  0  0  0  0  0  0  0  0  0  0
  187.2000  177.8720  145.8850 C   0  0  2  0  0  3  0  0  0  0  0  0
  190.1620  176.1280  144.2860 N   0  0  0  0  0  0  0  0  0  0  0  0
  188.4220  174.5950  140.7070 C   0  0  0  0  0  3  0  0  0  0  0  0
  193.5190  175.8490  146.2810 C   0  0  0  0  0  2  0  0  0  0  0  0
  187.5820  175.3510  141.5920 N   0  0  0  0  0  2  0  0  0  0  0  0
  192.1790  176.4440  145.8320 C   0  0  0  0  0  2  0  0  0  0  0  0
  193.6710  174.7950  143.6620 C   0  0  2  0  0  3  0  0  0  0  0  0
  189.6760  174.3900  140.9980 N   0  0  0  0  0  0  0  0  0  0  0  0
  191.6580  174.6650  142.4910 N   0  0  0  0  0  0  0  0  0  0  0  0
  195.4320  173.5980  144.8680 N   0  0  0  0  0  2  0  0  0  0  0  0
  195.6480  172.6960  145.8550 O   0  0  0  0  0  0  0  0  0  0  0  0
  197.0950  169.7560  146.1920 C   0  0  0  0  0  2  0  0  0  0  0  0
  194.9900  170.4130  145.8810 C   0  0  0  0  0  2  0  0  0  0  0  0
  195.8140  171.4780  145.1930 C   0  0  2  0  0  3  0  0  0  0  0  0
  195.7880  169.2710  146.0510 O   0  0  0  0  0  0  0  0  0  0  0  0
  197.2280  171.0040  145.3530 C   0  0  0  0  0  2  0  0  0  0  0  0
  1 27  1  0  0  0  0
  1 18  2  0  0  0  0
  2 14  1  0  0  0  0
  2 27  1  0  0  0  0
  3 16  1  6  0  0  0
  3  7  1  0  0  0  0
  4 18  1  0  0  0  0
  4 15  2  0  0  0  0
  5 11  2  0  0  0  0
  5 19  1  0  0  0  0
  6  7  1  0  0  0  0
  8 16  1  0  0  0  0
  9 25  1  0  0  0  0
  9 13  2  0  0  0  0
 10 22  1  0  0  0  0
 12 15  1  0  0  0  0
 12  8  1  0  0  0  0
 13 24  1  0  0  0  0
 15  5  1  0  0  0  0
 17 28  1  1  0  0  0
 17 10  1  0  0  0  0
 18 20  1  0  0  0  0
 19  3  1  0  0  0  0
 19  6  1  1  0  0  0
 20 13  1  0  0  0  0
 20 11  1  0  0  0  0
 21 26  2  0  0  0  0
 21 23  1  0  0  0  0
 23  4  1  0  0  0  0
 24 22  1  0  0  0  0
 25 14  1  6  0  0  0
 25 17  1  0  0  0  0
 26  1  1  0  0  0  0
 27  9  1  0  0  0  0
 28 29  1  0  0  0  0
 31 33  1  0  0  0  0
 32 34  1  0  0  0  0
 32 29  1  1  0  0  0
 32 31  1  0  0  0  0
 33 30  1  0  0  0  0
 34 30  1  0  0  0  0
M  END
>  <MODEL>
6

>  <REMARK>
 VINA RESULT:      -7.9      1.473      1.851
  Name = 
  3 active torsions:
  status: ('A' for Active; 'I' for Inactive)
    1  A    between atoms: C_17  and  N_28
    2  A    between atoms: N_28  and  O_29
    3  A    between atoms: O_29  and  C_32
                            x       y       z     vdW  Elec       q    Type
                         _______ _______ _______ _____ _____    ______ ____

>  <TORSDO>
F 3

$$$$
=
 OpenBabel11112417453D

 34 41  0  0  1  0  0  0  0  0999 V2000
  187.7580  175.8250  140.5760 C   0  0  0  0  0  0  0  0  0  0  0  0
  188.9570  174.1980  139.1700 O   0  0  0  0  0  0  0  0  0  0  0  0
  185.4150  177.6790  145.9880 C   0  0  1  0  0  3  0  0  0  0  0  0
  186.6200  177.3740  142.0570 C   0  0  0  0  0  0  0  0  0  0  0  0
  187.1450  177.1950  144.4520 C   0  0  0  0  0  0  0  0  0  0  0  0
  186.8660  176.8190  147.0280 C   0  0  0  0  0  2  0  0  0  0  0  0
  185.4860  177.0380  147.2300 O   0  0  0  0  0  0  0  0  0  0  0  0
  185.3630  179.8020  144.6760 C   0  0  0  0  0  2  0  0  0  0  0  0
  189.3940  174.1890  141.4480 C   0  0  0  0  0  0  0  0  0  0  0  0
  189.7110  171.6810  142.9720 C   0  0  0  0  0  2  0  0  0  0  0  0
  188.0240  176.2000  144.2550 C   0  0  0  0  0  3  0  0  0  0  0  0
  185.4780  178.9260  143.4950 N   0  0  0  0  0  2  0  0  0  0  0  0
  189.2160  174.6090  142.7170 C   0  0  0  0  0  0  0  0  0  0  0  0
  190.0010  173.2650  139.4270 C   0  0  0  0  0  2  0  0  0  0  0  0
  186.4250  177.8450  143.2980 C   0  0  0  0  0  0  0  0  0  0  0  0
  184.8450  179.0800  145.9410 C   0  0  0  0  0  2  0  0  0  0  0  0
  189.8790  171.7550  141.4490 C   0  0  1  0  0  3  0  0  0  0  0  0
  187.5660  176.2740  141.8260 C   0  0  0  0  0  0  0  0  0  0  0  0
  186.8960  177.7260  145.8200 C   0  0  2  0  0  3  0  0  0  0  0  0
  188.2790  175.6900  142.9370 N   0  0  0  0  0  0  0  0  0  0  0  0
  186.2000  177.3840  139.6210 C   0  0  0  0  0  3  0  0  0  0  0  0
  190.6330  172.6560  143.6980 C   0  0  0  0  0  2  0  0  0  0  0  0
  185.9400  177.9250  140.9240 N   0  0  0  0  0  2  0  0  0  0  0  0
  189.9650  174.0210  143.9010 C   0  0  0  0  0  2  0  0  0  0  0  0
  190.2810  173.1470  140.9360 C   0  0  2  0  0  3  0  0  0  0  0  0
  187.0480  176.4060  139.4670 N   0  0  0  0  0  0  0  0  0  0  0  0
  188.6850  174.7550  140.3760 N   0  0  0  0  0  0  0  0  0  0  0  0
  190.8660  170.7730  141.0280 N   0  0  0  0  0  2  0  0  0  0  0  0
  190.8320  169.7680  141.9350 O   0  0  0  0  0  0  0  0  0  0  0  0
  193.7160  169.7440  143.5260 C   0  0  0  0  0  2  0  0  0  0  0  0
  192.2440  168.1670  142.9790 C   0  0  0  0  0  2  0  0  0  0  0  0
  192.1050  169.1970  141.8810 C   0  0  2  0  0  3  0  0  0  0  0  0
  193.4700  168.3680  143.6290 O   0  0  0  0  0  0  0  0  0  0  0  0
  193.1380  170.2300  142.2190 C   0  0  0  0  0  2  0  0  0  0  0  0
  1 18  2  0  0  0  0
  2 14  1  0  0  0  0
  2 27  1  0  0  0  0
  3 16  1  1  0  0  0
  3  7  1  0  0  0  0
  4 15  2  0  0  0  0
  5 19  1  0  0  0  0
  6  7  1  0  0  0  0
  8 16  1  0  0  0  0
  9 13  2  0  0  0  0
 10 22  1  0  0  0  0
 11  5  2  0  0  0  0
 12  8  1  0  0  0  0
 13 20  1  0  0  0  0
 13 24  1  0  0  0  0
 15 12  1  0  0  0  0
 15  5  1  0  0  0  0
 17 28  1  1  0  0  0
 17 10  1  0  0  0  0
 18  4  1  0  0  0  0
 18 20  1  0  0  0  0
 19  3  1  0  0  0  0
 19  6  1  1  0  0  0
 20 11  1  0  0  0  0
 21 23  1  0  0  0  0
 22 24  1  0  0  0  0
 23  4  1  0  0  0  0
 25 14  1  6  0  0  0
 25  9  1  0  0  0  0
 25 17  1  0  0  0  0
 26 21  2  0  0  0  0
 26  1  1  0  0  0  0
 27  1  1  0  0  0  0
 27  9  1  0  0  0  0
 28 29  1  0  0  0  0
 30 33  1  0  0  0  0
 31 33  1  0  0  0  0
 32 29  1  1  0  0  0
 32 34  1  0  0  0  0
 32 31  1  0  0  0  0
 34 30  1  0  0  0  0
M  END
>  <MODEL>
7

>  <REMARK>
 VINA RESULT:      -7.9      2.977      3.750
  Name = 
  3 active torsions:
  status: ('A' for Active; 'I' for Inactive)
    1  A    between atoms: C_17  and  N_28
    2  A    between atoms: N_28  and  O_29
    3  A    between atoms: O_29  and  C_32
                            x       y       z     vdW  Elec       q    Type
                         _______ _______ _______ _____ _____    ______ ____

>  <TORSDO>
F 3

$$$$
=
 OpenBabel11112417453D

 34 41  0  0  1  0  0  0  0  0999 V2000
  192.1590  176.3930  146.1900 C   0  0  0  0  0  0  0  0  0  0  0  0
  194.5460  175.7880  146.2110 O   0  0  0  0  0  0  0  0  0  0  0  0
  187.0350  178.2880  143.2970 C   0  0  1  0  0  3  0  0  0  0  0  0
  189.8080  176.9770  146.0530 C   0  0  0  0  0  0  0  0  0  0  0  0
  188.7440  176.7510  143.8480 C   0  0  0  0  0  0  0  0  0  0  0  0
  187.5150  177.3550  141.6170 C   0  0  0  0  0  2  0  0  0  0  0  0
  186.8570  178.5620  141.9380 O   0  0  0  0  0  0  0  0  0  0  0  0
  186.0980  177.4310  145.4480 C   0  0  0  0  0  2  0  0  0  0  0  0
  193.3910  175.5680  144.2110 C   0  0  0  0  0  0  0  0  0  0  0  0
  194.5810  176.3430  141.6230 C   0  0  0  0  0  2  0  0  0  0  0  0
  189.8700  176.2990  143.2750 C   0  0  0  0  0  3  0  0  0  0  0  0
  187.4770  177.5600  145.9530 N   0  0  0  0  0  2  0  0  0  0  0  0
  192.3010  175.6750  143.4240 C   0  0  0  0  0  0  0  0  0  0  0  0
  195.4130  175.1960  145.2490 C   0  0  0  0  0  2  0  0  0  0  0  0
  188.6900  177.0780  145.3190 C   0  0  0  0  0  0  0  0  0  0  0  0
  185.8120  178.2810  144.1890 C   0  0  0  0  0  2  0  0  0  0  0  0
  195.4240  176.0380  142.8680 C   0  0  1  0  0  3  0  0  0  0  0  0
  191.0530  176.5000  145.4370 C   0  0  2  0  0  3  0  0  0  0  0  0
  187.4930  176.8890  143.0530 C   0  0  2  0  0  3  0  0  0  0  0  0
  191.0790  176.1510  144.0370 N   0  0  0  0  0  0  0  0  0  0  0  0
  191.0550  177.1670  148.1780 C   0  0  0  0  0  3  0  0  0  0  0  0
  193.6600  175.1820  141.2570 C   0  0  0  0  0  2  0  0  0  0  0  0
  189.8300  177.3070  147.4460 N   0  0  0  0  0  0  0  0  0  0  0  0
  192.2980  175.3000  141.9520 C   0  0  0  0  0  2  0  0  0  0  0  0
  194.7330  175.1020  143.8720 C   0  0  2  0  0  3  0  0  0  0  0  0
  192.1360  176.7410  147.5870 N   0  0  0  0  0  0  0  0  0  0  0  0
  193.3590  175.9250  145.5690 N   0  0  0  0  0  0  0  0  0  0  0  0
  196.6950  175.4650  142.4560 N   0  0  0  0  0  2  0  0  0  0  0  0
  197.0990  176.1500  141.3590 O   0  0  0  0  0  0  0  0  0  0  0  0
  197.0170  173.5590  139.3260 C   0  0  0  0  0  2  0  0  0  0  0  0
  197.9230  175.5890  139.2020 C   0  0  0  0  0  2  0  0  0  0  0  0
  197.9410  175.2680  140.6800 C   0  0  2  0  0  3  0  0  0  0  0  0
  197.7670  174.3930  138.4850 O   0  0  0  0  0  0  0  0  0  0  0  0
  197.3850  173.8770  140.7550 C   0  0  0  0  0  2  0  0  0  0  0  0
  1 26  2  0  0  0  0
  3 16  1  1  0  0  0
  4 23  1  0  0  0  0
  5 15  1  0  0  0  0
  6  7  1  0  0  0  0
  7  3  1  0  0  0  0
  8 12  1  0  0  0  0
  9 27  1  0  0  0  0
 10 17  1  0  0  0  0
 11  5  2  0  0  0  0
 11 20  1  0  0  0  0
 13 20  1  0  0  0  0
 13  9  2  0  0  0  0
 14  2  1  0  0  0  0
 15 12  1  0  0  0  0
 15  4  2  0  0  0  0
 16  8  1  0  0  0  0
 17 28  1  6  0  0  0
 17 25  1  0  0  0  0
 18  4  1  1  0  0  0
 18  1  1  0  0  0  0
 19  6  1  6  0  0  0
 19  3  1  0  0  0  0
 19  5  1  0  0  0  0
 20 18  1  0  0  0  0
 22 10  1  0  0  0  0
 22 24  1  0  0  0  0
 23 21  2  0  0  0  0
 24 13  1  0  0  0  0
 25  9  1  0  0  0  0
 25 14  1  1  0  0  0
 26 21  1  0  0  0  0
 27  1  1  0  0  0  0
 27  2  1  0  0  0  0
 29 28  1  0  0  0  0
 30 34  1  0  0  0  0
 31 32  1  0  0  0  0
 32 34  1  0  0  0  0
 32 29  1  1  0  0  0
 33 31  1  0  0  0  0
 33 30  1  0  0  0  0
M  END
>  <MODEL>
8

>  <REMARK>
 VINA RESULT:      -7.7      3.301      5.081
  Name = 
  3 active torsions:
  status: ('A' for Active; 'I' for Inactive)
    1  A    between atoms: C_17  and  N_28
    2  A    between atoms: N_28  and  O_29
    3  A    between atoms: O_29  and  C_32
                            x       y       z     vdW  Elec       q    Type
                         _______ _______ _______ _____ _____    ______ ____

>  <TORSDO>
F 3

$$$$
=
 OpenBabel11112417453D

 34 41  0  0  1  0  0  0  0  0999 V2000
  190.5400  176.5980  146.0820 C   0  0  0  0  0  0  0  0  0  0  0  0
  192.8050  175.8350  146.6730 O   0  0  0  0  0  0  0  0  0  0  0  0
  186.2470  178.2710  141.9600 C   0  0  1  0  0  3  0  0  0  0  0  0
  188.3280  177.3160  145.3890 C   0  0  0  0  0  0  0  0  0  0  0  0
  187.6560  176.7480  143.0930 C   0  0  0  0  0  0  0  0  0  0  0  0
  186.9160  177.0000  140.5950 C   0  0  0  0  0  2  0  0  0  0  0  0
  186.3450  178.2910  140.5650 O   0  0  0  0  0  0  0  0  0  0  0  0
  184.8560  177.9150  144.0020 C   0  0  0  0  0  2  0  0  0  0  0  0
  192.0070  175.3200  144.5570 C   0  0  0  0  0  0  0  0  0  0  0  0
  193.7160  175.4930  142.1550 C   0  0  0  0  0  2  0  0  0  0  0  0
  188.8100  176.1130  142.8390 C   0  0  0  0  0  3  0  0  0  0  0  0
  186.1290  178.0380  144.7360 N   0  0  0  0  0  2  0  0  0  0  0  0
  191.0930  175.3540  143.5660 C   0  0  0  0  0  0  0  0  0  0  0  0
  193.7610  175.0080  146.0170 C   0  0  0  0  0  2  0  0  0  0  0  0
  187.3760  177.3550  144.4450 C   0  0  0  0  0  0  0  0  0  0  0  0
  184.8920  178.5260  142.5830 C   0  0  0  0  0  2  0  0  0  0  0  0
  194.2860  175.3730  143.5740 C   0  0  1  0  0  3  0  0  0  0  0  0
  189.6040  176.6400  145.1200 C   0  0  2  0  0  3  0  0  0  0  0  0
  186.5880  176.8220  142.0580 C   0  0  2  0  0  3  0  0  0  0  0  0
  189.8400  176.0260  143.8360 N   0  0  0  0  0  0  0  0  0  0  0  0
  189.1900  177.8190  147.6500 C   0  0  0  0  0  3  0  0  0  0  0  0
  192.7550  174.3550  141.8260 C   0  0  0  0  0  2  0  0  0  0  0  0
  188.1370  177.9050  146.6800 N   0  0  0  0  0  0  0  0  0  0  0  0
  191.3120  174.7030  142.2100 C   0  0  0  0  0  2  0  0  0  0  0  0
  193.3300  174.7010  144.5730 C   0  0  2  0  0  3  0  0  0  0  0  0
  190.3060  177.2090  147.3640 N   0  0  0  0  0  0  0  0  0  0  0  0
  191.7740  175.9330  145.7990 N   0  0  0  0  0  0  0  0  0  0  0  0
  195.5410  174.6390  143.5250 N   0  0  0  0  0  2  0  0  0  0  0  0
  196.4080  175.2870  144.3400 O   0  0  0  0  0  0  0  0  0  0  0  0
  196.8160  172.3450  145.7640 C   0  0  0  0  0  2  0  0  0  0  0  0
  197.2270  173.1430  143.7260 C   0  0  0  0  0  2  0  0  0  0  0  0
  197.3930  174.3430  144.6330 C   0  0  2  0  0  3  0  0  0  0  0  0
  197.3130  171.9790  144.5050 O   0  0  0  0  0  0  0  0  0  0  0  0
  197.1730  173.7910  146.0090 C   0  0  0  0  0  2  0  0  0  0  0  0
  1 26  2  0  0  0  0
  3 19  1  0  0  0  0
  3 16  1  6  0  0  0
  4 23  1  0  0  0  0
  5 15  1  0  0  0  0
  7  6  1  0  0  0  0
  7  3  1  0  0  0  0
  8 12  1  0  0  0  0
  9 25  1  0  0  0  0
  9 27  1  0  0  0  0
 10 17  1  0  0  0  0
 11  5  2  0  0  0  0
 11 20  1  0  0  0  0
 13 20  1  0  0  0  0
 13  9  2  0  0  0  0
 14  2  1  0  0  0  0
 15 12  1  0  0  0  0
 15  4  2  0  0  0  0
 16  8  1  0  0  0  0
 17 28  1  6  0  0  0
 17 25  1  0  0  0  0
 18  4  1  1  0  0  0
 18  1  1  0  0  0  0
 19  6  1  6  0  0  0
 19  5  1  0  0  0  0
 20 18  1  0  0  0  0
 22 10  1  0  0  0  0
 22 24  1  0  0  0  0
 23 21  2  0  0  0  0
 24 13  1  0  0  0  0
 25 14  1  1  0  0  0
 26 21  1  0  0  0  0
 27  1  1  0  0  0  0
 27  2  1  0  0  0  0
 28 29  1  0  0  0  0
 30 34  1  0  0  0  0
 31 33  1  0  0  0  0
 31 32  1  0  0  0  0
 32 29  1  6  0  0  0
 32 34  1  0  0  0  0
 33 30  1  0  0  0  0
M  END
>  <MODEL>
9

>  <REMARK>
 VINA RESULT:      -7.7      2.307      3.921
  Name = 
  3 active torsions:
  status: ('A' for Active; 'I' for Inactive)
    1  A    between atoms: C_17  and  N_28
    2  A    between atoms: N_28  and  O_29
    3  A    between atoms: O_29  and  C_32
                            x       y       z     vdW  Elec       q    Type
                         _______ _______ _______ _____ _____    ______ ____

>  <TORSDO>
F 3

$$$$
