=
 OpenBabel11112416503D

 31 35  0  0  1  0  0  0  0  0999 V2000
  187.2560  177.1960  140.7510 C   0  0  0  0  0  0  0  0  0  0  0  0
  188.9430  177.8300  144.1000 C   0  0  2  0  0  3  0  0  0  0  0  0
  187.8460  177.9030  145.1520 C   0  0  0  0  0  0  0  0  0  0  0  0
  185.5190  178.2560  145.7640 C   0  0  0  0  0  0  0  0  0  0  0  0
  188.4690  177.1480  142.8470 C   0  0  0  0  0  0  0  0  0  0  0  0
  187.4230  175.8140  140.6220 C   0  0  0  0  0  3  0  0  0  0  0  0
  186.5170  178.1740  144.7910 C   0  0  0  0  0  3  0  0  0  0  0  0
  190.1280  175.6170  144.6030 C   0  0  0  0  0  0  0  0  0  0  0  0
  186.5690  177.9060  139.7760 O   0  0  0  0  0  1  0  0  0  0  0  0
  189.4890  177.5500  146.9120 O   0  0  0  0  0  0  0  0  0  0  0  0
  183.8640  178.5760  145.2950 Cl  0  0  0  0  0  0  0  0  0  0  0  0
  189.4170  175.0400  143.6780 N   0  0  0  0  0  0  0  0  0  0  0  0
  190.2280  177.1440  144.6330 C   0  0  2  0  0  3  0  0  0  0  0  0
  190.9630  174.7700  145.4090 N   0  0  0  0  0  2  0  0  0  0  0  0
  187.7730  177.8630  141.8650 C   0  0  0  0  0  3  0  0  0  0  0  0
  185.8410  178.0800  147.1130 C   0  0  0  0  0  3  0  0  0  0  0  0
  188.6460  175.7630  142.7110 C   0  0  0  0  0  0  0  0  0  0  0  0
  188.1190  175.0980  141.6010 C   0  0  0  0  0  3  0  0  0  0  0  0
  190.5720  177.7280  146.0040 C   0  0  0  0  0  2  0  0  0  0  0  0
  188.1690  177.7670  146.5180 C   0  0  0  0  0  0  0  0  0  0  0  0
  187.1640  177.8370  147.4880 C   0  0  0  0  0  3  0  0  0  0  0  0
  191.5550  174.8660  147.7450 C   0  0  0  0  0  1  0  0  0  0  0  0
  191.9930  175.2190  146.3330 C   0  0  1  0  0  3  0  0  0  0  0  0
  194.2230  175.2690  143.2520 C   0  0  1  0  0  3  0  0  0  0  0  0
  194.3580  175.4680  145.6610 O   0  0  0  0  0  0  0  0  0  0  0  0
  191.8360  172.6340  144.8530 O   0  0  0  0  0  0  0  0  0  0  0  0
  194.1130  176.1130  142.0010 C   0  0  0  0  0  1  0  0  0  0  0  0
  194.0040  176.1510  144.4770 C   0  0  0  0  0  2  0  0  0  0  0  0
  193.2330  173.2290  144.7390 S   0  0  2  0  0  0  0  0  0  0  0  0
  193.3370  174.5450  145.9980 C   0  0  2  0  0  3  0  0  0  0  0  0
  193.1680  174.1770  143.2110 C   0  0  0  0  0  2  0  0  0  0  0  0
  1 15  1  0  0  0  0
  2  5  1  6  0  0  0
  2 13  1  0  0  0  0
  2  3  1  0  0  0  0
  3 20  1  0  0  0  0
  4 16  2  0  0  0  0
  6  1  2  0  0  0  0
  6 18  1  0  0  0  0
  7  3  2  0  0  0  0
  7  4  1  0  0  0  0
  8 13  1  0  0  0  0
  8 14  1  0  0  0  0
  9  1  1  0  0  0  0
 11  4  1  0  0  0  0
 12  8  2  0  0  0  0
 13 19  1  1  0  0  0
 14 23  1  0  0  0  0
 15  5  2  0  0  0  0
 16 21  1  0  0  0  0
 17  5  1  0  0  0  0
 17 12  1  0  0  0  0
 18 17  2  0  0  0  0
 19 10  1  0  0  0  0
 20 10  1  0  0  0  0
 20 21  2  0  0  0  0
 23 22  1  1  0  0  0
 24 27  1  6  0  0  0
 24 28  1  0  0  0  0
 25 30  1  0  0  0  0
 28 25  1  0  0  0  0
 29 26  2  1  0  0  0
 29 30  1  0  0  0  0
 30 23  1  6  0  0  0
 31 24  1  0  0  0  0
 31 29  1  0  0  0  0
M  END
>  <MODEL>
1

>  <REMARK>
 VINA RESULT:      -7.8      0.000      0.000
  Name = 
  2 active torsions:
  status: ('A' for Active; 'I' for Inactive)
    1  A    between atoms: C_5  and  N_16
    2  A    between atoms: C_5  and  C_30
                            x       y       z     vdW  Elec       q    Type
                         _______ _______ _______ _____ _____    ______ ____

>  <TORSDO>
F 2

$$$$
=
 OpenBabel11112416503D

 31 35  0  0  1  0  0  0  0  0999 V2000
  187.0420  177.3790  140.5370 C   0  0  0  0  0  0  0  0  0  0  0  0
  189.7150  177.5870  143.2370 C   0  0  2  0  0  3  0  0  0  0  0  0
  189.0040  177.5370  144.5800 C   0  0  0  0  0  0  0  0  0  0  0  0
  187.0010  177.8270  145.9300 C   0  0  0  0  0  0  0  0  0  0  0  0
  188.8440  177.0670  142.1260 C   0  0  0  0  0  0  0  0  0  0  0  0
  187.0990  176.0230  140.2060 C   0  0  0  0  0  3  0  0  0  0  0  0
  187.6420  177.8590  144.6890 C   0  0  0  0  0  3  0  0  0  0  0  0
  190.8970  175.3210  143.0850 C   0  0  0  0  0  0  0  0  0  0  0  0
  186.1190  178.2070  139.9160 O   0  0  0  0  0  1  0  0  0  0  0  0
  191.0950  176.9610  145.6830 O   0  0  0  0  0  0  0  0  0  0  0  0
  185.2980  178.2130  146.0440 Cl  0  0  0  0  0  0  0  0  0  0  0  0
  189.9090  174.8670  142.3700 N   0  0  0  0  0  0  0  0  0  0  0  0
  191.0690  176.8330  143.2570 C   0  0  2  0  0  3  0  0  0  0  0  0
  191.9030  174.3770  143.4850 N   0  0  0  0  0  2  0  0  0  0  0  0
  187.9100  177.9010  141.5010 C   0  0  0  0  0  3  0  0  0  0  0  0
  187.7180  177.4850  147.0790 C   0  0  0  0  0  3  0  0  0  0  0  0
  188.9080  175.7080  141.7840 C   0  0  0  0  0  0  0  0  0  0  0  0
  188.0330  175.1870  140.8270 C   0  0  0  0  0  3  0  0  0  0  0  0
  191.8490  177.2410  144.5070 C   0  0  0  0  0  2  0  0  0  0  0  0
  189.7290  177.2320  145.7510 C   0  0  0  0  0  0  0  0  0  0  0  0
  189.0800  177.1900  146.9890 C   0  0  0  0  0  3  0  0  0  0  0  0
  193.1480  174.3000  145.5490 C   0  0  0  0  0  1  0  0  0  0  0  0
  193.1880  174.7020  144.0840 C   0  0  1  0  0  3  0  0  0  0  0  0
  196.6540  175.7530  142.9200 C   0  0  1  0  0  3  0  0  0  0  0  0
  195.5390  173.9380  144.0700 O   0  0  0  0  0  0  0  0  0  0  0  0
  193.2700  175.0320  141.1210 O   0  0  0  0  0  0  0  0  0  0  0  0
  197.4090  177.0370  143.1890 C   0  0  0  0  0  1  0  0  0  0  0  0
  196.0230  175.2560  144.2160 C   0  0  0  0  0  2  0  0  0  0  0  0
  194.6080  174.5190  141.6360 S   0  0  2  0  0  0  0  0  0  0  0  0
  194.3200  173.9590  143.3480 C   0  0  2  0  0  3  0  0  0  0  0  0
  195.5690  176.0200  141.8900 C   0  0  0  0  0  2  0  0  0  0  0  0
  1 15  1  0  0  0  0
  2  5  1  6  0  0  0
  2 13  1  0  0  0  0
  2  3  1  0  0  0  0
  3  7  2  0  0  0  0
  3 20  1  0  0  0  0
  4 11  1  0  0  0  0
  4 16  2  0  0  0  0
  6  1  2  0  0  0  0
  6 18  1  0  0  0  0
  7  4  1  0  0  0  0
  8 13  1  0  0  0  0
  8 14  1  0  0  0  0
  9  1  1  0  0  0  0
 10 20  1  0  0  0  0
 12  8  2  0  0  0  0
 13 19  1  1  0  0  0
 14 23  1  0  0  0  0
 15  5  2  0  0  0  0
 17  5  1  0  0  0  0
 17 12  1  0  0  0  0
 18 17  2  0  0  0  0
 19 10  1  0  0  0  0
 20 21  2  0  0  0  0
 21 16  1  0  0  0  0
 23 22  1  1  0  0  0
 24 27  1  1  0  0  0
 24 28  1  0  0  0  0
 25 28  1  0  0  0  0
 29 26  2  1  0  0  0
 29 31  1  0  0  0  0
 29 30  1  0  0  0  0
 30 25  1  0  0  0  0
 30 23  1  1  0  0  0
 31 24  1  0  0  0  0
M  END
>  <MODEL>
2

>  <REMARK>
 VINA RESULT:      -7.8      1.807      2.159
  Name = 
  2 active torsions:
  status: ('A' for Active; 'I' for Inactive)
    1  A    between atoms: C_5  and  N_16
    2  A    between atoms: C_5  and  C_30
                            x       y       z     vdW  Elec       q    Type
                         _______ _______ _______ _____ _____    ______ ____

>  <TORSDO>
F 2

$$$$
=
 OpenBabel11112416503D

 31 35  0  0  1  0  0  0  0  0999 V2000
  186.9400  177.4590  140.6760 C   0  0  0  0  0  0  0  0  0  0  0  0
  189.3840  177.4960  143.5900 C   0  0  2  0  0  3  0  0  0  0  0  0
  188.5890  177.1900  144.8500 C   0  0  0  0  0  0  0  0  0  0  0  0
  186.4770  177.1090  146.0560 C   0  0  0  0  0  0  0  0  0  0  0  0
  188.6480  177.0720  142.3500 C   0  0  0  0  0  0  0  0  0  0  0  0
  187.1500  176.1750  140.1640 C   0  0  0  0  0  3  0  0  0  0  0  0
  187.1980  177.3760  144.8890 C   0  0  0  0  0  3  0  0  0  0  0  0
  190.7870  175.3860  143.2240 C   0  0  0  0  0  0  0  0  0  0  0  0
  185.9870  178.2870  140.1010 O   0  0  0  0  0  1  0  0  0  0  0  0
  190.6440  176.6390  146.0320 O   0  0  0  0  0  0  0  0  0  0  0  0
  184.7410  177.3270  146.0800 Cl  0  0  0  0  0  0  0  0  0  0  0  0
  189.8990  174.9590  142.3730 N   0  0  0  0  0  0  0  0  0  0  0  0
  190.8000  176.8660  143.6180 C   0  0  2  0  0  3  0  0  0  0  0  0
  191.8480  174.4830  143.5710 N   0  0  0  0  0  2  0  0  0  0  0  0
  187.6840  177.9060  141.7710 C   0  0  0  0  0  3  0  0  0  0  0  0
  187.1420  176.6650  147.2020 C   0  0  0  0  0  3  0  0  0  0  0  0
  188.8660  175.7880  141.8280 C   0  0  0  0  0  0  0  0  0  0  0  0
  188.1140  175.3400  140.7390 C   0  0  0  0  0  3  0  0  0  0  0  0
  191.4480  177.1520  144.9740 C   0  0  0  0  0  2  0  0  0  0  0  0
  189.2560  176.7810  146.0240 C   0  0  0  0  0  0  0  0  0  0  0  0
  188.5290  176.5030  147.1850 C   0  0  0  0  0  3  0  0  0  0  0  0
  193.1360  173.9180  145.5310 C   0  0  0  0  0  1  0  0  0  0  0  0
  193.0510  174.8250  144.3140 C   0  0  1  0  0  3  0  0  0  0  0  0
  196.3890  173.0720  144.8230 C   0  0  1  0  0  3  0  0  0  0  0  0
  194.6260  173.2960  143.1790 O   0  0  0  0  0  0  0  0  0  0  0  0
  195.2490  176.8000  144.7210 O   0  0  0  0  0  0  0  0  0  0  0  0
  196.8400  172.1780  145.9580 C   0  0  0  0  0  1  0  0  0  0  0  0
  194.9800  172.6730  144.3950 C   0  0  0  0  0  2  0  0  0  0  0  0
  195.7650  175.5740  143.9810 S   0  0  2  0  0  0  0  0  0  0  0  0
  194.2950  174.6520  143.4200 C   0  0  2  0  0  3  0  0  0  0  0  0
  196.3910  174.5160  145.2970 C   0  0  0  0  0  2  0  0  0  0  0  0
  1 15  1  0  0  0  0
  2  5  1  6  0  0  0
  2 13  1  0  0  0  0
  2  3  1  0  0  0  0
  3  7  2  0  0  0  0
  3 20  1  0  0  0  0
  4 11  1  0  0  0  0
  4 16  2  0  0  0  0
  6  1  2  0  0  0  0
  6 18  1  0  0  0  0
  7  4  1  0  0  0  0
  8 14  1  0  0  0  0
  8 13  1  0  0  0  0
  9  1  1  0  0  0  0
 12  8  2  0  0  0  0
 13 19  1  1  0  0  0
 14 23  1  0  0  0  0
 15  5  2  0  0  0  0
 17  5  1  0  0  0  0
 17 12  1  0  0  0  0
 18 17  2  0  0  0  0
 19 10  1  0  0  0  0
 20 10  1  0  0  0  0
 20 21  2  0  0  0  0
 21 16  1  0  0  0  0
 23 22  1  1  0  0  0
 24 31  1  0  0  0  0
 24 27  1  1  0  0  0
 25 30  1  0  0  0  0
 25 28  1  0  0  0  0
 28 24  1  0  0  0  0
 29 26  2  1  0  0  0
 29 31  1  0  0  0  0
 30 29  1  0  0  0  0
 30 23  1  1  0  0  0
M  END
>  <MODEL>
3

>  <REMARK>
 VINA RESULT:      -7.7      1.856      2.465
  Name = 
  2 active torsions:
  status: ('A' for Active; 'I' for Inactive)
    1  A    between atoms: C_5  and  N_16
    2  A    between atoms: C_5  and  C_30
                            x       y       z     vdW  Elec       q    Type
                         _______ _______ _______ _____ _____    ______ ____

>  <TORSDO>
F 2

$$$$
=
 OpenBabel11112416503D

 31 35  0  0  1  0  0  0  0  0999 V2000
  185.9110  179.1030  143.7770 C   0  0  0  0  0  0  0  0  0  0  0  0
  189.0360  177.0650  143.0310 C   0  0  2  0  0  3  0  0  0  0  0  0
  189.7060  176.7620  144.3620 C   0  0  0  0  0  0  0  0  0  0  0  0
  190.0650  177.2620  146.7150 C   0  0  0  0  0  0  0  0  0  0  0  0
  187.5950  177.4560  143.2080 C   0  0  0  0  0  0  0  0  0  0  0  0
  184.9260  178.1120  143.7320 C   0  0  0  0  0  3  0  0  0  0  0  0
  189.4330  177.5370  145.5000 C   0  0  0  0  0  3  0  0  0  0  0  0
  188.1090  174.8000  142.2810 C   0  0  0  0  0  0  0  0  0  0  0  0
  185.5650  180.4110  144.0840 O   0  0  0  0  0  1  0  0  0  0  0  0
  191.0000  174.9830  143.3230 O   0  0  0  0  0  0  0  0  0  0  0  0
  189.6990  178.2260  148.1290 Cl  0  0  0  0  0  0  0  0  0  0  0  0
  186.9470  175.1290  142.7640 N   0  0  0  0  0  0  0  0  0  0  0  0
  189.1550  175.8890  142.0280 C   0  0  2  0  0  3  0  0  0  0  0  0
  188.2600  173.4550  141.8000 N   0  0  0  0  0  2  0  0  0  0  0  0
  187.2460  178.7750  143.5210 C   0  0  0  0  0  3  0  0  0  0  0  0
  190.9880  176.2160  146.8020 C   0  0  0  0  0  3  0  0  0  0  0  0
  186.6040  176.4650  143.1520 C   0  0  0  0  0  0  0  0  0  0  0  0
  185.2720  176.7930  143.4180 C   0  0  0  0  0  3  0  0  0  0  0  0
  190.6000  175.3870  142.0170 C   0  0  0  0  0  2  0  0  0  0  0  0
  190.6680  175.7350  144.4500 C   0  0  0  0  0  0  0  0  0  0  0  0
  191.2890  175.4560  145.6700 C   0  0  0  0  0  3  0  0  0  0  0  0
  190.1270  171.9290  141.8750 C   0  0  0  0  0  1  0  0  0  0  0  0
  189.3820  172.9460  141.0260 C   0  0  1  0  0  3  0  0  0  0  0  0
  190.9470  172.4750  137.5900 C   0  0  1  0  0  3  0  0  0  0  0  0
  189.7040  171.2440  139.2640 O   0  0  0  0  0  0  0  0  0  0  0  0
  188.1600  174.7940  139.0290 O   0  0  0  0  0  0  0  0  0  0  0  0
  192.3630  172.7510  137.1340 C   0  0  0  0  0  1  0  0  0  0  0  0
  190.9790  171.7510  138.9320 C   0  0  0  0  0  2  0  0  0  0  0  0
  188.5500  173.4790  138.3690 S   0  0  2  0  0  0  0  0  0  0  0  0
  188.8780  172.3000  139.7210 C   0  0  2  0  0  3  0  0  0  0  0  0
  190.2050  173.7940  137.7360 C   0  0  0  0  0  2  0  0  0  0  0  0
  1  9  1  0  0  0  0
  2  5  1  1  0  0  0
  2  3  1  0  0  0  0
  3 20  2  0  0  0  0
  3  7  1  0  0  0  0
  4 16  1  0  0  0  0
  4 11  1  0  0  0  0
  5 15  1  0  0  0  0
  6  1  1  0  0  0  0
  7  4  2  0  0  0  0
  8 12  2  0  0  0  0
 10 20  1  0  0  0  0
 12 17  1  0  0  0  0
 13 19  1  1  0  0  0
 13  8  1  0  0  0  0
 13  2  1  0  0  0  0
 14  8  1  0  0  0  0
 15  1  2  0  0  0  0
 17  5  2  0  0  0  0
 17 18  1  0  0  0  0
 18  6  2  0  0  0  0
 19 10  1  0  0  0  0
 20 21  1  0  0  0  0
 21 16  2  0  0  0  0
 23 14  1  0  0  0  0
 23 22  1  1  0  0  0
 24 27  1  1  0  0  0
 24 31  1  0  0  0  0
 24 28  1  0  0  0  0
 25 30  1  0  0  0  0
 28 25  1  0  0  0  0
 29 26  2  1  0  0  0
 29 30  1  0  0  0  0
 30 23  1  1  0  0  0
 31 29  1  0  0  0  0
M  END
>  <MODEL>
4

>  <REMARK>
 VINA RESULT:      -7.4      3.518      5.270
  Name = 
  2 active torsions:
  status: ('A' for Active; 'I' for Inactive)
    1  A    between atoms: C_5  and  N_16
    2  A    between atoms: C_5  and  C_30
                            x       y       z     vdW  Elec       q    Type
                         _______ _______ _______ _____ _____    ______ ____

>  <TORSDO>
F 2

$$$$
=
 OpenBabel11112416503D

 31 35  0  0  1  0  0  0  0  0999 V2000
  184.9920  177.6750  146.7990 C   0  0  0  0  0  0  0  0  0  0  0  0
  187.3110  176.0430  144.2630 C   0  0  2  0  0  3  0  0  0  0  0  0
  186.9350  176.5860  142.8930 C   0  0  0  0  0  0  0  0  0  0  0  0
  185.3320  177.6400  141.3990 C   0  0  0  0  0  0  0  0  0  0  0  0
  186.7980  176.9210  145.3710 C   0  0  0  0  0  0  0  0  0  0  0  0
  185.8070  178.7000  147.2880 C   0  0  0  0  0  3  0  0  0  0  0  0
  185.6750  177.1590  142.6650 C   0  0  0  0  0  3  0  0  0  0  0  0
  189.5830  177.1190  144.7480 C   0  0  0  0  0  0  0  0  0  0  0  0
  183.6910  177.5410  147.2630 O   0  0  0  0  0  1  0  0  0  0  0  0
  189.0710  175.8400  141.9950 O   0  0  0  0  0  0  0  0  0  0  0  0
  183.7630  178.3700  141.1360 Cl  0  0  0  0  0  0  0  0  0  0  0  0
  188.9840  178.0390  145.4480 N   0  0  0  0  0  0  0  0  0  0  0  0
  188.8390  175.8240  144.4140 C   0  0  2  0  0  3  0  0  0  0  0  0
  190.9910  177.2840  144.5220 N   0  0  0  0  0  2  0  0  0  0  0  0
  185.4850  176.7880  145.8370 C   0  0  0  0  0  3  0  0  0  0  0  0
  186.2420  177.5420  140.3430 C   0  0  0  0  0  3  0  0  0  0  0  0
  187.6180  177.9430  145.8710 C   0  0  0  0  0  0  0  0  0  0  0  0
  187.1200  178.8330  146.8260 C   0  0  0  0  0  3  0  0  0  0  0  0
  189.3630  175.0960  143.1750 C   0  0  0  0  0  2  0  0  0  0  0  0
  187.8320  176.4540  141.8120 C   0  0  0  0  0  0  0  0  0  0  0  0
  187.4890  176.9480  140.5500 C   0  0  0  0  0  3  0  0  0  0  0  0
  192.3100  176.7290  142.5800 C   0  0  0  0  0  1  0  0  0  0  0  0
  191.8900  176.2810  143.9700 C   0  0  1  0  0  3  0  0  0  0  0  0
  194.3600  173.4360  144.4910 C   0  0  1  0  0  3  0  0  0  0  0  0
  194.3120  175.8340  144.1660 O   0  0  0  0  0  0  0  0  0  0  0  0
  191.4190  174.9160  146.5800 O   0  0  0  0  0  0  0  0  0  0  0  0
  194.5100  172.1410  143.7210 C   0  0  0  0  0  1  0  0  0  0  0  0
  194.1890  174.5910  143.5090 C   0  0  0  0  0  2  0  0  0  0  0  0
  192.9020  174.9120  146.2370 S   0  0  2  0  0  0  0  0  0  0  0  0
  193.1210  176.1120  144.8810 C   0  0  2  0  0  3  0  0  0  0  0  0
  193.1390  173.3420  145.3900 C   0  0  0  0  0  2  0  0  0  0  0  0
  1  9  1  0  0  0  0
  1  6  1  0  0  0  0
  2  3  1  6  0  0  0
  2 13  1  0  0  0  0
  2  5  1  0  0  0  0
  4  7  2  0  0  0  0
  5 15  1  0  0  0  0
  5 17  2  0  0  0  0
  7  3  1  0  0  0  0
  8 12  2  0  0  0  0
 10 19  1  0  0  0  0
 11  4  1  0  0  0  0
 12 17  1  0  0  0  0
 13 19  1  6  0  0  0
 13  8  1  0  0  0  0
 14  8  1  0  0  0  0
 15  1  2  0  0  0  0
 16 21  2  0  0  0  0
 16  4  1  0  0  0  0
 17 18  1  0  0  0  0
 18  6  2  0  0  0  0
 20 10  1  0  0  0  0
 20  3  2  0  0  0  0
 21 20  1  0  0  0  0
 23 22  1  6  0  0  0
 23 14  1  0  0  0  0
 24 27  1  6  0  0  0
 24 31  1  0  0  0  0
 25 30  1  0  0  0  0
 28 25  1  0  0  0  0
 28 24  1  0  0  0  0
 29 26  2  6  0  0  0
 30 23  1  6  0  0  0
 30 29  1  0  0  0  0
 31 29  1  0  0  0  0
M  END
>  <MODEL>
5

>  <REMARK>
 VINA RESULT:      -7.3      2.229      4.349
  Name = 
  2 active torsions:
  status: ('A' for Active; 'I' for Inactive)
    1  A    between atoms: C_5  and  N_16
    2  A    between atoms: C_5  and  C_30
                            x       y       z     vdW  Elec       q    Type
                         _______ _______ _______ _____ _____    ______ ____

>  <TORSDO>
F 2

$$$$
=
 OpenBabel11112416503D

 31 35  0  0  1  0  0  0  0  0999 V2000
  192.3540  170.1380  143.1050 C   0  0  0  0  0  0  0  0  0  0  0  0
  191.4660  173.4040  144.8420 C   0  0  2  0  0  3  0  0  0  0  0  0
  192.7710  174.0590  145.2660 C   0  0  0  0  0  0  0  0  0  0  0  0
  195.1390  173.9120  145.8040 C   0  0  0  0  0  0  0  0  0  0  0  0
  191.6830  172.3680  143.7740 C   0  0  0  0  0  0  0  0  0  0  0  0
  192.2790  170.5180  141.7620 C   0  0  0  0  0  3  0  0  0  0  0  0
  193.9480  173.3050  145.3970 C   0  0  0  0  0  3  0  0  0  0  0  0
  190.6270  174.8900  142.9330 C   0  0  0  0  0  0  0  0  0  0  0  0
  192.7260  168.8440  143.4400 O   0  0  0  0  0  1  0  0  0  0  0  0
  191.6310  176.1920  145.5350 O   0  0  0  0  0  0  0  0  0  0  0  0
  196.6010  172.9610  145.9430 Cl  0  0  0  0  0  0  0  0  0  0  0  0
  191.1430  174.0580  142.0750 N   0  0  0  0  0  0  0  0  0  0  0  0
  190.4080  174.4390  144.3800 C   0  0  2  0  0  3  0  0  0  0  0  0
  190.0830  176.1120  142.4110 N   0  0  0  0  0  2  0  0  0  0  0  0
  192.0620  171.0630  144.1110 C   0  0  0  0  0  3  0  0  0  0  0  0
  195.1630  175.2780  146.0970 C   0  0  0  0  0  3  0  0  0  0  0  0
  191.5970  172.7450  142.4250 C   0  0  0  0  0  0  0  0  0  0  0  0
  191.8990  171.8210  141.4220 C   0  0  0  0  0  3  0  0  0  0  0  0
  190.3520  175.5820  145.3940 C   0  0  0  0  0  2  0  0  0  0  0  0
  192.7960  175.4280  145.6030 C   0  0  0  0  0  0  0  0  0  0  0  0
  193.9930  176.0330  145.9980 C   0  0  0  0  0  3  0  0  0  0  0  0
  190.1190  178.2900  143.4490 C   0  0  0  0  0  1  0  0  0  0  0  0
  189.2680  177.0660  143.1480 C   0  0  1  0  0  3  0  0  0  0  0  0
  185.6430  177.7550  144.0740 C   0  0  1  0  0  3  0  0  0  0  0  0
  187.4390  178.6760  142.7380 O   0  0  0  0  0  0  0  0  0  0  0  0
  187.4980  174.8240  142.2910 O   0  0  0  0  0  0  0  0  0  0  0  0
  185.0080  177.8730  145.4420 C   0  0  0  0  0  1  0  0  0  0  0  0
  186.9510  178.5390  144.0550 C   0  0  0  0  0  2  0  0  0  0  0  0
  186.7610  176.1520  142.1930 S   0  0  2  0  0  0  0  0  0  0  0  0
  188.0290  177.4570  142.3210 C   0  0  2  0  0  3  0  0  0  0  0  0
  185.9190  176.2900  143.7780 C   0  0  0  0  0  2  0  0  0  0  0  0
  1  9  1  0  0  0  0
  1 15  1  0  0  0  0
  2  5  1  6  0  0  0
  2  3  1  0  0  0  0
  3  7  2  0  0  0  0
  3 20  1  0  0  0  0
  4 11  1  0  0  0  0
  4 16  2  0  0  0  0
  5 15  2  0  0  0  0
  6  1  2  0  0  0  0
  7  4  1  0  0  0  0
  8 13  1  0  0  0  0
 10 20  1  0  0  0  0
 12 17  1  0  0  0  0
 12  8  2  0  0  0  0
 13  2  1  0  0  0  0
 13 19  1  1  0  0  0
 14  8  1  0  0  0  0
 14 23  1  0  0  0  0
 17  5  1  0  0  0  0
 18  6  1  0  0  0  0
 18 17  2  0  0  0  0
 19 10  1  0  0  0  0
 20 21  2  0  0  0  0
 21 16  1  0  0  0  0
 23 22  1  6  0  0  0
 24 27  1  1  0  0  0
 25 28  1  0  0  0  0
 28 24  1  0  0  0  0
 29 26  2  1  0  0  0
 29 30  1  0  0  0  0
 29 31  1  0  0  0  0
 30 25  1  0  0  0  0
 30 23  1  1  0  0  0
 31 24  1  0  0  0  0
M  END
>  <MODEL>
6

>  <REMARK>
 VINA RESULT:      -7.2      3.663      7.254
  Name = 
  2 active torsions:
  status: ('A' for Active; 'I' for Inactive)
    1  A    between atoms: C_5  and  N_16
    2  A    between atoms: C_5  and  C_30
                            x       y       z     vdW  Elec       q    Type
                         _______ _______ _______ _____ _____    ______ ____

>  <TORSDO>
F 2

$$$$
=
 OpenBabel11112416503D

 31 35  0  0  1  0  0  0  0  0999 V2000
  192.4440  171.1730  142.5830 C   0  0  0  0  0  0  0  0  0  0  0  0
  191.2630  173.4550  145.3880 C   0  0  2  0  0  3  0  0  0  0  0  0
  192.4180  174.3840  145.7310 C   0  0  0  0  0  0  0  0  0  0  0  0
  194.7950  174.9010  145.7220 C   0  0  0  0  0  0  0  0  0  0  0  0
  191.4330  172.8320  144.0300 C   0  0  0  0  0  0  0  0  0  0  0  0
  191.8980  171.8130  141.4670 C   0  0  0  0  0  3  0  0  0  0  0  0
  193.7380  174.0510  145.3880 C   0  0  0  0  0  3  0  0  0  0  0  0
  189.5650  174.9890  144.2380 C   0  0  0  0  0  0  0  0  0  0  0  0
  193.2180  170.0330  142.4200 O   0  0  0  0  0  1  0  0  0  0  0  0
  190.8860  175.8950  146.8670 O   0  0  0  0  0  0  0  0  0  0  0  0
  196.4320  174.4800  145.2690 Cl  0  0  0  0  0  0  0  0  0  0  0  0
  190.0170  174.6010  143.0810 N   0  0  0  0  0  0  0  0  0  0  0  0
  189.8870  174.1630  145.4870 C   0  0  2  0  0  3  0  0  0  0  0  0
  188.5980  176.0510  144.2400 N   0  0  0  0  0  2  0  0  0  0  0  0
  192.2160  171.6840  143.8640 C   0  0  0  0  0  3  0  0  0  0  0  0
  194.5450  176.0890  146.4140 C   0  0  0  0  0  3  0  0  0  0  0  0
  190.8760  173.4670  142.9100 C   0  0  0  0  0  0  0  0  0  0  0  0
  191.1130  172.9590  141.6300 C   0  0  0  0  0  3  0  0  0  0  0  0
  189.8230  174.9490  146.7970 C   0  0  0  0  0  2  0  0  0  0  0  0
  192.1800  175.5640  146.4650 C   0  0  0  0  0  0  0  0  0  0  0  0
  193.2390  176.4180  146.7860 C   0  0  0  0  0  3  0  0  0  0  0  0
  188.1520  177.9290  145.6870 C   0  0  0  0  0  1  0  0  0  0  0  0
  187.8050  176.4800  145.3820 C   0  0  1  0  0  3  0  0  0  0  0  0
  185.0770  178.9960  144.5430 C   0  0  1  0  0  3  0  0  0  0  0  0
  185.9420  176.8590  143.8030 O   0  0  0  0  0  0  0  0  0  0  0  0
  185.9420  176.8490  147.6820 O   0  0  0  0  0  0  0  0  0  0  0  0
  185.1910  180.4780  144.2630 C   0  0  0  0  0  1  0  0  0  0  0  0
  186.1710  178.2520  143.7840 C   0  0  0  0  0  2  0  0  0  0  0  0
  185.1940  176.9880  146.3630 S   0  0  2  0  0  0  0  0  0  0  0  0
  186.3030  176.3360  145.0700 C   0  0  2  0  0  3  0  0  0  0  0  0
  185.2350  178.7570  146.0360 C   0  0  0  0  0  2  0  0  0  0  0  0
  1 15  1  0  0  0  0
  2  5  1  6  0  0  0
  2 13  1  0  0  0  0
  2  3  1  0  0  0  0
  3 20  1  0  0  0  0
  4 16  2  0  0  0  0
  6 18  1  0  0  0  0
  6  1  2  0  0  0  0
  7  4  1  0  0  0  0
  7  3  2  0  0  0  0
  8 14  1  0  0  0  0
  8 13  1  0  0  0  0
  9  1  1  0  0  0  0
 11  4  1  0  0  0  0
 12  8  2  0  0  0  0
 13 19  1  1  0  0  0
 14 23  1  0  0  0  0
 15  5  2  0  0  0  0
 16 21  1  0  0  0  0
 17 12  1  0  0  0  0
 17  5  1  0  0  0  0
 18 17  2  0  0  0  0
 19 10  1  0  0  0  0
 20 21  2  0  0  0  0
 20 10  1  0  0  0  0
 23 22  1  6  0  0  0
 24 27  1  1  0  0  0
 24 31  1  0  0  0  0
 25 30  1  0  0  0  0
 28 25  1  0  0  0  0
 28 24  1  0  0  0  0
 29 26  2  1  0  0  0
 30 23  1  1  0  0  0
 30 29  1  0  0  0  0
 31 29  1  0  0  0  0
M  END
>  <MODEL>
7

>  <REMARK>
 VINA RESULT:      -7.1      3.716      7.150
  Name = 
  2 active torsions:
  status: ('A' for Active; 'I' for Inactive)
    1  A    between atoms: C_5  and  N_16
    2  A    between atoms: C_5  and  C_30
                            x       y       z     vdW  Elec       q    Type
                         _______ _______ _______ _____ _____    ______ ____

>  <TORSDO>
F 2

$$$$
=
 OpenBabel11112416503D

 31 35  0  0  1  0  0  0  0  0999 V2000
  188.9570  172.8860  140.6470 C   0  0  0  0  0  0  0  0  0  0  0  0
  190.6150  175.8090  142.4300 C   0  0  2  0  0  3  0  0  0  0  0  0
  189.5850  176.4010  143.3800 C   0  0  0  0  0  0  0  0  0  0  0  0
  187.2730  176.7330  144.0590 C   0  0  0  0  0  0  0  0  0  0  0  0
  190.2520  174.4100  142.0150 C   0  0  0  0  0  0  0  0  0  0  0  0
  189.4360  171.8070  141.3960 C   0  0  0  0  0  3  0  0  0  0  0  0
  188.2140  176.1720  143.1920 C   0  0  0  0  0  3  0  0  0  0  0  0
  192.3070  174.6810  143.9850 C   0  0  0  0  0  0  0  0  0  0  0  0
  188.0760  172.6660  139.5980 O   0  0  0  0  0  1  0  0  0  0  0  0
  191.3510  177.5400  144.6080 O   0  0  0  0  0  0  0  0  0  0  0  0
  185.5680  176.4210  143.8210 Cl  0  0  0  0  0  0  0  0  0  0  0  0
  191.7050  173.5430  143.7950 N   0  0  0  0  0  0  0  0  0  0  0  0
  192.0490  175.8400  143.0190 C   0  0  2  0  0  3  0  0  0  0  0  0
  193.3560  174.7100  144.9660 N   0  0  0  0  0  2  0  0  0  0  0  0
  189.3600  174.1880  140.9590 C   0  0  0  0  0  3  0  0  0  0  0  0
  187.6950  177.5410  145.1190 C   0  0  0  0  0  3  0  0  0  0  0  0
  190.7400  173.3260  142.7590 C   0  0  0  0  0  0  0  0  0  0  0  0
  190.3280  172.0260  142.4510 C   0  0  0  0  0  3  0  0  0  0  0  0
  192.3160  177.2250  143.6090 C   0  0  0  0  0  2  0  0  0  0  0  0
  189.9980  177.2500  144.4280 C   0  0  0  0  0  0  0  0  0  0  0  0
  189.0550  177.8000  145.3010 C   0  0  0  0  0  3  0  0  0  0  0  0
  194.0970  176.3390  146.5830 C   0  0  0  0  0  1  0  0  0  0  0  0
  194.2980  175.7980  145.1770 C   0  0  1  0  0  3  0  0  0  0  0  0
  196.0990  174.0950  142.2920 C   0  0  1  0  0  3  0  0  0  0  0  0
  196.4040  175.8890  143.8880 O   0  0  0  0  0  0  0  0  0  0  0  0
  194.7710  172.9130  145.7620 O   0  0  0  0  0  0  0  0  0  0  0  0
  195.6210  173.8370  140.8790 C   0  0  0  0  0  1  0  0  0  0  0  0
  195.7500  175.5240  142.6910 C   0  0  0  0  0  2  0  0  0  0  0  0
  195.9100  173.4800  144.9270 S   0  0  2  0  0  0  0  0  0  0  0  0
  195.7420  175.2950  144.9900 C   0  0  2  0  0  3  0  0  0  0  0  0
  195.4170  173.1170  143.2340 C   0  0  0  0  0  2  0  0  0  0  0  0
  1 15  2  0  0  0  0
  1  6  1  0  0  0  0
  2  5  1  1  0  0  0
  2 13  1  0  0  0  0
  2  3  1  0  0  0  0
  3 20  1  0  0  0  0
  4 16  2  0  0  0  0
  5 17  2  0  0  0  0
  6 18  2  0  0  0  0
  7  3  2  0  0  0  0
  7  4  1  0  0  0  0
  8 14  1  0  0  0  0
  9  1  1  0  0  0  0
 11  4  1  0  0  0  0
 12  8  2  0  0  0  0
 13 19  1  1  0  0  0
 13  8  1  0  0  0  0
 14 23  1  0  0  0  0
 15  5  1  0  0  0  0
 16 21  1  0  0  0  0
 17 12  1  0  0  0  0
 18 17  1  0  0  0  0
 19 10  1  0  0  0  0
 20 10  1  0  0  0  0
 20 21  2  0  0  0  0
 23 22  1  1  0  0  0
 24 27  1  6  0  0  0
 24 28  1  0  0  0  0
 24 31  1  0  0  0  0
 25 30  1  0  0  0  0
 28 25  1  0  0  0  0
 29 30  1  0  0  0  0
 29 26  2  1  0  0  0
 30 23  1  6  0  0  0
 31 29  1  0  0  0  0
M  END
>  <MODEL>
8

>  <REMARK>
 VINA RESULT:      -7.0      2.414      3.193
  Name = 
  2 active torsions:
  status: ('A' for Active; 'I' for Inactive)
    1  A    between atoms: C_5  and  N_16
    2  A    between atoms: C_5  and  C_30
                            x       y       z     vdW  Elec       q    Type
                         _______ _______ _______ _____ _____    ______ ____

>  <TORSDO>
F 2

$$$$
=
 OpenBabel11112416503D

 31 35  0  0  1  0  0  0  0  0999 V2000
  191.3800  175.9350  147.0360 C   0  0  0  0  0  0  0  0  0  0  0  0
  189.5240  174.4270  144.0770 C   0  0  2  0  0  3  0  0  0  0  0  0
  188.4920  175.4490  143.6240 C   0  0  0  0  0  0  0  0  0  0  0  0
  187.0960  177.3910  144.0680 C   0  0  0  0  0  0  0  0  0  0  0  0
  190.6010  175.0580  144.9160 C   0  0  0  0  0  0  0  0  0  0  0  0
  192.5350  176.4160  146.4120 C   0  0  0  0  0  3  0  0  0  0  0  0
  188.0570  176.4670  144.4860 C   0  0  0  0  0  3  0  0  0  0  0  0
  191.2680  174.4450  142.2030 C   0  0  0  0  0  0  0  0  0  0  0  0
  191.1920  176.1330  148.3960 O   0  0  0  0  0  1  0  0  0  0  0  0
  188.2770  174.3050  141.4860 O   0  0  0  0  0  0  0  0  0  0  0  0
  186.5790  178.6650  145.1500 Cl  0  0  0  0  0  0  0  0  0  0  0  0
  191.9960  175.2640  142.9050 N   0  0  0  0  0  0  0  0  0  0  0  0
  190.1510  173.6540  142.8890 C   0  0  2  0  0  3  0  0  0  0  0  0
  191.7050  174.1660  140.8640 N   0  0  0  0  0  2  0  0  0  0  0  0
  190.4100  175.2610  146.2880 C   0  0  0  0  0  3  0  0  0  0  0  0
  186.5490  177.2980  142.7850 C   0  0  0  0  0  3  0  0  0  0  0  0
  191.7660  175.5300  144.2940 C   0  0  0  0  0  0  0  0  0  0  0  0
  192.7290  176.2120  145.0420 C   0  0  0  0  0  3  0  0  0  0  0  0
  189.0360  173.1920  141.9490 C   0  0  0  0  0  2  0  0  0  0  0  0
  187.9050  175.3390  142.3460 C   0  0  0  0  0  0  0  0  0  0  0  0
  186.9530  176.2730  141.9270 C   0  0  0  0  0  3  0  0  0  0  0  0
  190.5100  173.7900  138.8020 C   0  0  0  0  0  1  0  0  0  0  0  0
  191.1790  173.1250  139.9940 C   0  0  1  0  0  3  0  0  0  0  0  0
  191.2200  169.6690  138.4040 C   0  0  1  0  0  3  0  0  0  0  0  0
  192.2340  171.8530  138.1570 O   0  0  0  0  0  0  0  0  0  0  0  0
  192.0690  171.0550  141.9490 O   0  0  0  0  0  0  0  0  0  0  0  0
  190.0660  168.8360  137.8880 C   0  0  0  0  0  1  0  0  0  0  0  0
  191.0580  171.1080  137.9260 C   0  0  0  0  0  2  0  0  0  0  0  0
  192.5330  170.6950  140.5440 S   0  0  2  0  0  0  0  0  0  0  0  0
  192.3160  172.1950  139.5290 C   0  0  2  0  0  3  0  0  0  0  0  0
  191.2210  169.6310  139.9230 C   0  0  0  0  0  2  0  0  0  0  0  0
  1  9  1  0  0  0  0
  2  3  1  6  0  0  0
  2  5  1  0  0  0  0
  3  7  1  0  0  0  0
  4  7  2  0  0  0  0
  4 11  1  0  0  0  0
  5 15  1  0  0  0  0
  6  1  1  0  0  0  0
  8 13  1  0  0  0  0
  8 12  2  0  0  0  0
 10 19  1  0  0  0  0
 10 20  1  0  0  0  0
 12 17  1  0  0  0  0
 13 19  1  6  0  0  0
 13  2  1  0  0  0  0
 14  8  1  0  0  0  0
 15  1  2  0  0  0  0
 16  4  1  0  0  0  0
 17  5  2  0  0  0  0
 17 18  1  0  0  0  0
 18  6  2  0  0  0  0
 20  3  2  0  0  0  0
 21 20  1  0  0  0  0
 21 16  2  0  0  0  0
 23 22  1  6  0  0  0
 23 14  1  0  0  0  0
 24 27  1  6  0  0  0
 24 31  1  0  0  0  0
 25 30  1  0  0  0  0
 28 25  1  0  0  0  0
 28 24  1  0  0  0  0
 29 26  2  1  0  0  0
 30 23  1  1  0  0  0
 30 29  1  0  0  0  0
 31 29  1  0  0  0  0
M  END
>  <MODEL>
9

>  <REMARK>
 VINA RESULT:      -6.9      3.598      5.977
  Name = 
  2 active torsions:
  status: ('A' for Active; 'I' for Inactive)
    1  A    between atoms: C_5  and  N_16
    2  A    between atoms: C_5  and  C_30
                            x       y       z     vdW  Elec       q    Type
                         _______ _______ _______ _____ _____    ______ ____

>  <TORSDO>
F 2

$$$$
