=
 OpenBabel11112416393D

 32 38  0  0  1  0  0  0  0  0999 V2000
  185.1130  179.2480  143.5620 C   0  0  1  0  0  3  0  0  0  0  0  0
  188.8920  175.6260  143.5200 C   0  0  0  0  0  0  0  0  0  0  0  0
  191.5670  176.5390  147.4990 C   0  0  0  0  0  3  0  0  0  0  0  0
  192.4070  175.4720  147.1920 C   0  0  0  0  0  3  0  0  0  0  0  0
  189.3680  173.6150  142.2170 C   0  0  1  0  0  3  0  0  0  0  0  0
  190.2320  172.4570  141.9900 C   0  0  2  0  0  3  0  0  0  0  0  0
  186.7290  176.7770  143.2930 N   0  0  1  0  0  0  0  0  0  0  0  0
  188.2540  177.5580  145.0400 C   0  0  0  0  0  2  0  0  0  0  0  0
  191.8560  171.0180  142.5460 C   0  0  0  0  0  0  0  0  0  0  0  0
  186.2640  178.9430  144.5110 C   0  0  2  0  0  3  0  0  0  0  0  0
  190.4960  176.8450  146.6600 C   0  0  0  0  0  3  0  0  0  0  0  0
  189.1710  176.4160  144.6580 C   0  0  0  0  0  0  0  0  0  0  0  0
  190.2420  176.0860  145.5030 C   0  0  0  0  0  0  0  0  0  0  0  0
  190.8550  174.2270  144.0300 C   0  0  0  0  0  0  0  0  0  0  0  0
  190.8120  170.3560  142.1720 N   0  0  0  0  0  0  0  0  0  0  0  0
  185.2650  178.5430  142.2040 C   0  0  0  0  0  2  0  0  0  0  0  0
  187.3100  177.9760  143.9190 C   0  0  2  0  0  3  0  0  0  0  0  0
  189.7840  171.2530  141.8680 N   0  0  0  0  0  2  0  0  0  0  0  0
  185.7080  177.0730  142.2740 C   0  0  0  0  0  2  0  0  0  0  0  0
  184.8980  178.3050  144.7390 C   0  0  1  0  0  3  0  0  0  0  0  0
  192.1720  174.7100  146.0470 C   0  0  0  0  0  3  0  0  0  0  0  0
  191.0900  174.9980  145.1900 C   0  0  0  0  0  0  0  0  0  0  0  0
  191.7270  173.2370  143.7130 C   0  0  0  0  0  2  0  0  0  0  0  0
  187.8060  176.0980  142.5820 C   0  0  0  0  0  2  0  0  0  0  0  0
  188.2020  173.7210  141.4660 O   0  0  0  0  0  1  0  0  0  0  0  0
  193.1420  170.3640  142.9070 C   0  0  0  0  0  1  0  0  0  0  0  0
  189.7030  174.4950  143.2090 C   0  0  0  0  0  0  0  0  0  0  0  0
  191.6450  172.4870  142.4190 C   0  0  2  0  0  3  0  0  0  0  0  0
  184.2360  178.9860  145.7610 O   0  0  0  0  0  0  0  0  0  0  0  0
  184.3550  178.1560  146.8770 C   0  0  2  0  0  3  0  0  0  0  0  0
  185.4690  178.6640  147.7690 C   0  0  0  0  0  1  0  0  0  0  0  0
  184.6520  176.8580  146.4620 O   0  0  0  0  0  1  0  0  0  0  0  0
  1 16  1  6  0  0  0
  1 10  1  0  0  0  0
  1 20  1  0  0  0  0
  2 12  1  0  0  0  0
  4  3  1  0  0  0  0
  5 25  1  1  0  0  0
  5 27  1  0  0  0  0
  6 18  1  1  0  0  0
  6  5  1  0  0  0  0
  6 28  1  0  0  0  0
  7 19  1  6  0  0  0
  7 17  1  0  0  0  0
  9 26  1  0  0  0  0
 10 20  1  0  0  0  0
 11  3  2  0  0  0  0
 12  8  1  0  0  0  0
 12 13  2  0  0  0  0
 13 11  1  0  0  0  0
 14 22  2  0  0  0  0
 15  9  2  0  0  0  0
 16 19  1  0  0  0  0
 17 10  1  0  0  0  0
 17  8  1  0  0  0  0
 18 15  1  0  0  0  0
 20 29  1  0  0  0  0
 21  4  2  0  0  0  0
 22 13  1  0  0  0  0
 22 21  1  0  0  0  0
 23 14  1  0  0  0  0
 24  7  1  0  0  0  0
 24  2  1  0  0  0  0
 27  2  2  0  0  0  0
 27 14  1  0  0  0  0
 28  9  1  0  0  0  0
 28 23  1  0  0  0  0
 29 30  1  0  0  0  0
 30 31  1  0  0  0  0
 32 30  1  0  0  0  0
M  END
>  <MODEL>
1

>  <REMARK>
 VINA RESULT:      -9.1      0.000      0.000
  Name = 
  2 active torsions:
  status: ('A' for Active; 'I' for Inactive)
    1  A    between atoms: C_20  and  O_29
    2  A    between atoms: O_29  and  C_30
                            x       y       z     vdW  Elec       q    Type
                         _______ _______ _______ _____ _____    ______ ____

>  <TORSDO>
F 2

$$$$
=
 OpenBabel11112416393D

 32 38  0  0  1  0  0  0  0  0999 V2000
  184.4560  178.0830  146.8180 C   0  0  1  0  0  3  0  0  0  0  0  0
  189.1930  176.1630  145.6860 C   0  0  0  0  0  0  0  0  0  0  0  0
  188.7210  174.1500  141.2650 C   0  0  0  0  0  3  0  0  0  0  0  0
  190.0610  173.7740  141.2810 C   0  0  0  0  0  3  0  0  0  0  0  0
  191.4180  176.3060  146.6830 C   0  0  1  0  0  3  0  0  0  0  0  0
  192.8370  175.9610  146.6100 C   0  0  2  0  0  3  0  0  0  0  0  0
  187.3630  177.5890  146.5080 N   0  0  1  0  0  0  0  0  0  0  0  0
  186.9420  176.2370  144.5120 C   0  0  0  0  0  2  0  0  0  0  0  0
  194.6720  175.1970  145.5760 C   0  0  0  0  0  0  0  0  0  0  0  0
  185.0130  177.3560  145.6020 C   0  0  2  0  0  3  0  0  0  0  0  0
  188.1740  174.8260  142.3550 C   0  0  0  0  0  3  0  0  0  0  0  0
  188.3920  175.8070  144.5770 C   0  0  0  0  0  0  0  0  0  0  0  0
  188.9590  175.1420  143.4790 C   0  0  0  0  0  0  0  0  0  0  0  0
  191.1260  175.0700  144.6190 C   0  0  0  0  0  0  0  0  0  0  0  0
  194.9410  176.3280  146.1370 N   0  0  0  0  0  0  0  0  0  0  0  0
  185.3790  177.9770  148.0440 C   0  0  0  0  0  2  0  0  0  0  0  0
  186.3880  176.7010  145.8540 C   0  0  2  0  0  3  0  0  0  0  0  0
  193.7850  176.8270  146.7440 N   0  0  0  0  0  2  0  0  0  0  0  0
  186.8740  178.1890  147.7600 C   0  0  0  0  0  2  0  0  0  0  0  0
  185.0410  178.8800  145.6590 C   0  0  1  0  0  3  0  0  0  0  0  0
  190.8540  174.0770  142.3890 C   0  0  0  0  0  3  0  0  0  0  0  0
  190.3230  174.7660  143.4980 C   0  0  0  0  0  0  0  0  0  0  0  0
  192.4100  174.6330  144.6440 C   0  0  0  0  0  2  0  0  0  0  0  0
  188.5050  176.7670  146.8890 C   0  0  0  0  0  2  0  0  0  0  0  0
  191.0030  177.1660  147.6960 O   0  0  0  0  0  1  0  0  0  0  0  0
  195.6950  174.3790  144.8720 C   0  0  0  0  0  1  0  0  0  0  0  0
  190.5800  175.8370  145.7080 C   0  0  0  0  0  0  0  0  0  0  0  0
  193.2740  174.7650  145.8600 C   0  0  2  0  0  3  0  0  0  0  0  0
  184.0030  179.3880  144.8780 O   0  0  0  0  0  0  0  0  0  0  0  0
  184.6150  179.7910  143.6900 C   0  0  2  0  0  3  0  0  0  0  0  0
  184.5780  178.6530  142.6910 C   0  0  0  0  0  1  0  0  0  0  0  0
  185.9410  180.1380  143.9440 O   0  0  0  0  0  1  0  0  0  0  0  0
  1 16  1  1  0  0  0
  2 27  1  0  0  0  0
  2 24  1  0  0  0  0
  3  4  2  0  0  0  0
  3 11  1  0  0  0  0
  4 21  1  0  0  0  0
  5 25  1  6  0  0  0
  6  5  1  0  0  0  0
  6 18  1  6  0  0  0
  7 24  1  1  0  0  0
  7 19  1  0  0  0  0
  8 12  1  0  0  0  0
  8 17  1  0  0  0  0
  9 28  1  0  0  0  0
  9 15  2  0  0  0  0
 10 20  1  0  0  0  0
 10 17  1  0  0  0  0
 10  1  1  0  0  0  0
 11 13  2  0  0  0  0
 12  2  2  0  0  0  0
 13 22  1  0  0  0  0
 13 12  1  0  0  0  0
 14 23  1  0  0  0  0
 14 27  2  0  0  0  0
 15 18  1  0  0  0  0
 17  7  1  0  0  0  0
 19 16  1  0  0  0  0
 20  1  1  0  0  0  0
 21 22  2  0  0  0  0
 22 14  1  0  0  0  0
 23 28  1  0  0  0  0
 26  9  1  0  0  0  0
 27  5  1  0  0  0  0
 28  6  1  0  0  0  0
 29 20  1  0  0  0  0
 30 32  1  0  0  0  0
 30 29  1  0  0  0  0
 31 30  1  0  0  0  0
M  END
>  <MODEL>
2

>  <REMARK>
 VINA RESULT:      -8.7      2.933      4.695
  Name = 
  2 active torsions:
  status: ('A' for Active; 'I' for Inactive)
    1  A    between atoms: C_20  and  O_29
    2  A    between atoms: O_29  and  C_30
                            x       y       z     vdW  Elec       q    Type
                         _______ _______ _______ _____ _____    ______ ____

>  <TORSDO>
F 2

$$$$
=
 OpenBabel11112416393D

 32 38  0  0  1  0  0  0  0  0999 V2000
  190.5220  172.1650  139.1830 C   0  0  1  0  0  3  0  0  0  0  0  0
  188.7480  175.0570  143.1700 C   0  0  0  0  0  0  0  0  0  0  0  0
  192.2970  174.9160  146.5160 C   0  0  0  0  0  3  0  0  0  0  0  0
  191.5440  175.7250  147.3640 C   0  0  0  0  0  3  0  0  0  0  0  0
  186.8390  176.5370  143.5390 C   0  0  1  0  0  3  0  0  0  0  0  0
  186.1300  177.4510  144.4330 C   0  0  2  0  0  3  0  0  0  0  0  0
  189.2510  174.2080  140.9150 N   0  0  1  0  0  0  0  0  0  0  0  0
  190.8630  173.7350  142.6940 C   0  0  0  0  0  2  0  0  0  0  0  0
  185.9410  178.7420  146.2540 C   0  0  0  0  0  0  0  0  0  0  0  0
  191.1240  172.5550  140.5260 C   0  0  2  0  0  3  0  0  0  0  0  0
  191.7850  174.5440  145.2740 C   0  0  0  0  0  3  0  0  0  0  0  0
  190.0040  174.5830  143.6080 C   0  0  0  0  0  0  0  0  0  0  0  0
  190.5150  174.9790  144.8540 C   0  0  0  0  0  0  0  0  0  0  0  0
  188.4700  176.2480  145.3080 C   0  0  0  0  0  0  0  0  0  0  0  0
  185.5710  179.4160  145.2160 N   0  0  0  0  0  0  0  0  0  0  0  0
  189.0110  172.4360  139.1130 C   0  0  0  0  0  2  0  0  0  0  0  0
  190.0990  173.1600  141.5070 C   0  0  2  0  0  3  0  0  0  0  0  0
  185.7310  178.6250  144.0740 N   0  0  0  0  0  2  0  0  0  0  0  0
  188.5580  173.7890  139.6850 C   0  0  0  0  0  2  0  0  0  0  0  0
  191.3800  173.4190  139.2960 C   0  0  1  0  0  3  0  0  0  0  0  0
  190.2810  176.1640  146.9650 C   0  0  0  0  0  3  0  0  0  0  0  0
  189.7490  175.8050  145.7090 C   0  0  0  0  0  0  0  0  0  0  0  0
  187.7250  176.9770  146.1770 C   0  0  0  0  0  2  0  0  0  0  0  0
  188.1950  174.5020  141.8770 C   0  0  0  0  0  2  0  0  0  0  0  0
  186.3660  176.3930  142.2380 O   0  0  0  0  0  1  0  0  0  0  0  0
  185.8630  179.2800  147.6380 C   0  0  0  0  0  1  0  0  0  0  0  0
  187.9770  175.9290  143.9930 C   0  0  0  0  0  0  0  0  0  0  0  0
  186.3000  177.3410  145.8960 C   0  0  2  0  0  3  0  0  0  0  0  0
  192.6570  173.1510  138.8020 O   0  0  0  0  0  0  0  0  0  0  0  0
  193.0660  174.3440  138.2040 C   0  0  2  0  0  3  0  0  0  0  0  0
  192.3150  174.5410  136.9030 C   0  0  0  0  0  1  0  0  0  0  0  0
  194.4350  174.2890  137.9440 O   0  0  0  0  0  1  0  0  0  0  0  0
  1 16  1  1  0  0  0
  1 20  1  0  0  0  0
  1 10  1  0  0  0  0
  2 12  2  0  0  0  0
  2 27  1  0  0  0  0
  3  4  1  0  0  0  0
  5 25  1  6  0  0  0
  5 27  1  0  0  0  0
  5  6  1  0  0  0  0
  6 18  1  6  0  0  0
  6 28  1  0  0  0  0
  7 19  1  6  0  0  0
  7 17  1  0  0  0  0
  7 24  1  0  0  0  0
  8 12  1  0  0  0  0
  9 26  1  0  0  0  0
 10 17  1  0  0  0  0
 11  3  2  0  0  0  0
 12 13  1  0  0  0  0
 13 11  1  0  0  0  0
 13 22  2  0  0  0  0
 14 22  1  0  0  0  0
 14 23  1  0  0  0  0
 15  9  2  0  0  0  0
 16 19  1  0  0  0  0
 17  8  1  0  0  0  0
 18 15  1  0  0  0  0
 20 10  1  0  0  0  0
 21  4  2  0  0  0  0
 22 21  1  0  0  0  0
 24  2  1  0  0  0  0
 27 14  2  0  0  0  0
 28 23  1  0  0  0  0
 28  9  1  0  0  0  0
 29 20  1  0  0  0  0
 30 29  1  0  0  0  0
 31 30  1  0  0  0  0
 32 30  1  0  0  0  0
M  END
>  <MODEL>
3

>  <REMARK>
 VINA RESULT:      -8.6      2.717      7.507
  Name = 
  2 active torsions:
  status: ('A' for Active; 'I' for Inactive)
    1  A    between atoms: C_20  and  O_29
    2  A    between atoms: O_29  and  C_30
                            x       y       z     vdW  Elec       q    Type
                         _______ _______ _______ _____ _____    ______ ____

>  <TORSDO>
F 2

$$$$
=
 OpenBabel11112416393D

 32 38  0  0  1  0  0  0  0  0999 V2000
  186.9950  177.0950  145.9430 C   0  0  1  0  0  3  0  0  0  0  0  0
  191.5880  175.6980  143.8570 C   0  0  0  0  0  0  0  0  0  0  0  0
  190.4480  173.3930  139.7090 C   0  0  0  0  0  3  0  0  0  0  0  0
  191.7990  173.1820  139.4430 C   0  0  0  0  0  3  0  0  0  0  0  0
  193.9370  176.1640  144.3380 C   0  0  1  0  0  3  0  0  0  0  0  0
  195.3400  175.9880  143.9660 C   0  0  2  0  0  3  0  0  0  0  0  0
  189.8070  176.9380  145.0180 N   0  0  1  0  0  0  0  0  0  0  0  0
  189.1480  175.4330  143.2030 C   0  0  0  0  0  2  0  0  0  0  0  0
  196.9950  175.3930  142.5790 C   0  0  0  0  0  0  0  0  0  0  0  0
  187.3690  176.3730  144.6560 C   0  0  2  0  0  3  0  0  0  0  0  0
  190.0640  174.0600  140.8720 C   0  0  0  0  0  3  0  0  0  0  0  0
  190.6220  175.1850  142.9630 C   0  0  0  0  0  0  0  0  0  0  0  0
  191.0230  174.5320  141.7870 C   0  0  0  0  0  0  0  0  0  0  0  0
  193.3740  174.7860  142.4270 C   0  0  0  0  0  0  0  0  0  0  0  0
  197.2290  176.5790  143.0330 N   0  0  0  0  0  0  0  0  0  0  0  0
  188.1630  177.1720  146.9390 C   0  0  0  0  0  2  0  0  0  0  0  0
  188.8380  175.9030  144.6200 C   0  0  2  0  0  3  0  0  0  0  0  0
  196.1750  176.9680  143.8640 N   0  0  0  0  0  2  0  0  0  0  0  0
  189.5230  177.5460  146.3280 C   0  0  0  0  0  2  0  0  0  0  0  0
  187.2100  177.8890  144.6610 C   0  0  1  0  0  3  0  0  0  0  0  0
  192.7630  173.6420  140.3400 C   0  0  0  0  0  3  0  0  0  0  0  0
  192.3960  174.3240  141.5180 C   0  0  0  0  0  0  0  0  0  0  0  0
  194.6790  174.5080  142.1820 C   0  0  0  0  0  2  0  0  0  0  0  0
  191.1010  176.2820  145.1630 C   0  0  0  0  0  2  0  0  0  0  0  0
  193.6410  177.0240  145.3920 O   0  0  0  0  0  1  0  0  0  0  0  0
  197.9410  174.6650  141.6920 C   0  0  0  0  0  1  0  0  0  0  0  0
  192.9790  175.5430  143.5850 C   0  0  0  0  0  0  0  0  0  0  0  0
  195.7590  174.8130  143.1750 C   0  0  2  0  0  3  0  0  0  0  0  0
  185.9710  178.2240  144.1110 O   0  0  0  0  0  0  0  0  0  0  0  0
  185.5210  179.3000  144.8770 C   0  0  2  0  0  3  0  0  0  0  0  0
  184.0970  179.0430  145.3240 C   0  0  0  0  0  1  0  0  0  0  0  0
  185.5620  180.4660  144.1120 O   0  0  0  0  0  1  0  0  0  0  0  0
  1 16  1  1  0  0  0
  2 24  1  0  0  0  0
  3 11  1  0  0  0  0
  4  3  2  0  0  0  0
  4 21  1  0  0  0  0
  5 25  1  6  0  0  0
  6 18  1  6  0  0  0
  6  5  1  0  0  0  0
  7 24  1  1  0  0  0
  7 19  1  0  0  0  0
  8 17  1  0  0  0  0
  9 15  2  0  0  0  0
  9 28  1  0  0  0  0
 10 20  1  0  0  0  0
 10  1  1  0  0  0  0
 11 13  2  0  0  0  0
 12  8  1  0  0  0  0
 12  2  2  0  0  0  0
 13 12  1  0  0  0  0
 14 27  2  0  0  0  0
 15 18  1  0  0  0  0
 17 10  1  0  0  0  0
 17  7  1  0  0  0  0
 19 16  1  0  0  0  0
 20  1  1  0  0  0  0
 21 22  2  0  0  0  0
 22 13  1  0  0  0  0
 22 14  1  0  0  0  0
 23 14  1  0  0  0  0
 23 28  1  0  0  0  0
 26  9  1  0  0  0  0
 27  2  1  0  0  0  0
 27  5  1  0  0  0  0
 28  6  1  0  0  0  0
 29 20  1  0  0  0  0
 29 30  1  0  0  0  0
 30 31  1  0  0  0  0
 32 30  1  0  0  0  0
M  END
>  <MODEL>
4

>  <REMARK>
 VINA RESULT:      -8.4      3.687      5.215
  Name = 
  2 active torsions:
  status: ('A' for Active; 'I' for Inactive)
    1  A    between atoms: C_20  and  O_29
    2  A    between atoms: O_29  and  C_30
                            x       y       z     vdW  Elec       q    Type
                         _______ _______ _______ _____ _____    ______ ____

>  <TORSDO>
F 2

$$$$
=
 OpenBabel11112416393D

 32 38  0  0  1  0  0  0  0  0999 V2000
  195.2520  174.4480  145.1530 C   0  0  1  0  0  3  0  0  0  0  0  0
  190.3520  176.2610  144.8260 C   0  0  0  0  0  0  0  0  0  0  0  0
  188.6770  174.6180  140.5470 C   0  0  0  0  0  3  0  0  0  0  0  0
  187.4510  175.2380  140.7770 C   0  0  0  0  0  3  0  0  0  0  0  0
  188.8060  177.3930  146.3400 C   0  0  1  0  0  3  0  0  0  0  0  0
  187.4740  177.9520  146.5660 C   0  0  2  0  0  3  0  0  0  0  0  0
  192.4710  175.3350  145.6700 N   0  0  1  0  0  0  0  0  0  0  0  0
  191.8630  174.8510  143.3490 C   0  0  0  0  0  2  0  0  0  0  0  0
  185.3140  178.2730  146.0640 C   0  0  0  0  0  0  0  0  0  0  0  0
  194.1610  174.2940  144.1030 C   0  0  2  0  0  3  0  0  0  0  0  0
  189.6990  174.7270  141.4890 C   0  0  0  0  0  3  0  0  0  0  0  0
  190.5560  175.5690  143.6110 C   0  0  0  0  0  0  0  0  0  0  0  0
  189.5120  175.4520  142.6790 C   0  0  0  0  0  0  0  0  0  0  0  0
  188.0630  176.8160  144.1070 C   0  0  0  0  0  0  0  0  0  0  0  0
  185.4130  177.9200  147.3020 N   0  0  0  0  0  0  0  0  0  0  0  0
  194.9520  175.5730  146.1570 C   0  0  0  0  0  2  0  0  0  0  0  0
  192.9840  175.2740  144.2910 C   0  0  2  0  0  3  0  0  0  0  0  0
  186.7560  177.6760  147.6040 N   0  0  0  0  0  2  0  0  0  0  0  0
  193.5060  175.6190  146.6780 C   0  0  0  0  0  2  0  0  0  0  0  0
  194.2910  173.2690  145.2240 C   0  0  1  0  0  3  0  0  0  0  0  0
  187.2490  175.9640  141.9520 C   0  0  0  0  0  3  0  0  0  0  0  0
  188.2680  176.0800  142.9200 C   0  0  0  0  0  0  0  0  0  0  0  0
  186.8860  177.4700  144.2780 C   0  0  0  0  0  2  0  0  0  0  0  0
  191.5440  176.4590  145.7340 C   0  0  0  0  0  2  0  0  0  0  0  0
  189.6920  177.3560  147.4130 O   0  0  0  0  0  1  0  0  0  0  0  0
  184.0210  178.6420  145.4280 C   0  0  0  0  0  1  0  0  0  0  0  0
  189.0910  176.8610  145.1130 C   0  0  0  0  0  0  0  0  0  0  0  0
  186.6540  178.4060  145.4250 C   0  0  2  0  0  3  0  0  0  0  0  0
  194.9230  172.1270  144.7330 O   0  0  0  0  0  0  0  0  0  0  0  0
  195.2410  171.3800  145.8680 C   0  0  2  0  0  3  0  0  0  0  0  0
  196.7300  171.1010  145.8900 C   0  0  0  0  0  1  0  0  0  0  0  0
  194.5460  170.1710  145.8400 O   0  0  0  0  0  1  0  0  0  0  0  0
  1 20  1  0  0  0  0
  1 16  1  1  0  0  0
  2 27  1  0  0  0  0
  2 24  1  0  0  0  0
  3  4  2  0  0  0  0
  3 11  1  0  0  0  0
  4 21  1  0  0  0  0
  5  6  1  0  0  0  0
  5 25  1  1  0  0  0
  6 18  1  6  0  0  0
  7 24  1  6  0  0  0
  7 19  1  0  0  0  0
  8 12  1  0  0  0  0
  8 17  1  0  0  0  0
  9 15  2  0  0  0  0
 10 17  1  0  0  0  0
 10  1  1  0  0  0  0
 10 20  1  0  0  0  0
 11 13  2  0  0  0  0
 12  2  2  0  0  0  0
 13 22  1  0  0  0  0
 13 12  1  0  0  0  0
 14 23  1  0  0  0  0
 14 27  2  0  0  0  0
 15 18  1  0  0  0  0
 16 19  1  0  0  0  0
 17  7  1  0  0  0  0
 21 22  2  0  0  0  0
 22 14  1  0  0  0  0
 23 28  1  0  0  0  0
 26  9  1  0  0  0  0
 27  5  1  0  0  0  0
 28  9  1  0  0  0  0
 28  6  1  0  0  0  0
 29 20  1  0  0  0  0
 29 30  1  0  0  0  0
 30 31  1  0  0  0  0
 32 30  1  0  0  0  0
M  END
>  <MODEL>
5

>  <REMARK>
 VINA RESULT:      -8.3      3.254      8.445
  Name = 
  2 active torsions:
  status: ('A' for Active; 'I' for Inactive)
    1  A    between atoms: C_20  and  O_29
    2  A    between atoms: O_29  and  C_30
                            x       y       z     vdW  Elec       q    Type
                         _______ _______ _______ _____ _____    ______ ____

>  <TORSDO>
F 2

$$$$
=
 OpenBabel11112416393D

 32 38  0  0  1  0  0  0  0  0999 V2000
  193.3570  172.4820  140.7410 C   0  0  1  0  0  3  0  0  0  0  0  0
  189.6450  175.1110  143.3330 C   0  0  0  0  0  0  0  0  0  0  0  0
  191.7710  176.5430  147.4850 C   0  0  0  0  0  3  0  0  0  0  0  0
  190.5910  177.1630  147.8880 C   0  0  0  0  0  3  0  0  0  0  0  0
  187.4000  175.9240  142.8170 C   0  0  1  0  0  3  0  0  0  0  0  0
  186.2160  176.6620  143.2530 C   0  0  2  0  0  3  0  0  0  0  0  0
  191.0810  174.1990  141.5540 N   0  0  1  0  0  0  0  0  0  0  0  0
  192.0710  174.4980  143.7720 C   0  0  0  0  0  2  0  0  0  0  0  0
  185.0900  178.0360  144.6180 C   0  0  0  0  0  0  0  0  0  0  0  0
  193.3480  173.2090  142.0790 C   0  0  2  0  0  3  0  0  0  0  0  0
  191.8240  175.8750  146.2630 C   0  0  0  0  0  3  0  0  0  0  0  0
  190.7620  175.1280  144.1990 C   0  0  0  0  0  0  0  0  0  0  0  0
  190.7000  175.8190  145.4190 C   0  0  0  0  0  0  0  0  0  0  0  0
  188.3600  176.4010  144.9910 C   0  0  0  0  0  0  0  0  0  0  0  0
  184.9200  178.4200  143.3960 N   0  0  0  0  0  0  0  0  0  0  0  0
  191.9420  172.2370  140.1920 C   0  0  0  0  0  2  0  0  0  0  0  0
  191.9310  173.5650  142.5750 C   0  0  2  0  0  3  0  0  0  0  0  0
  185.6590  177.5890  142.5480 N   0  0  0  0  0  2  0  0  0  0  0  0
  190.9790  173.4290  140.3030 C   0  0  0  0  0  2  0  0  0  0  0  0
  193.7580  173.9500  140.8110 C   0  0  1  0  0  3  0  0  0  0  0  0
  189.4650  177.1150  147.0650 C   0  0  0  0  0  3  0  0  0  0  0  0
  189.5000  176.4510  145.8220 C   0  0  0  0  0  0  0  0  0  0  0  0
  187.2010  176.9510  145.4340 C   0  0  0  0  0  2  0  0  0  0  0  0
  189.7270  174.2510  142.0920 C   0  0  0  0  0  2  0  0  0  0  0  0
  187.4460  175.4750  141.5010 O   0  0  0  0  0  1  0  0  0  0  0  0
  184.4120  178.6870  145.7710 C   0  0  0  0  0  1  0  0  0  0  0  0
  188.4400  175.7800  143.6950 C   0  0  0  0  0  0  0  0  0  0  0  0
  185.9090  176.7940  144.6920 C   0  0  2  0  0  3  0  0  0  0  0  0
  195.1480  174.0520  140.7670 O   0  0  0  0  0  0  0  0  0  0  0  0
  195.3960  175.2520  140.1000 C   0  0  2  0  0  3  0  0  0  0  0  0
  194.9920  176.4150  140.9830 C   0  0  0  0  0  1  0  0  0  0  0  0
  194.6550  175.2910  138.9190 O   0  0  0  0  0  1  0  0  0  0  0  0
  1 16  1  6  0  0  0
  1 20  1  0  0  0  0
  1 10  1  0  0  0  0
  2 27  2  0  0  0  0
  2 12  1  0  0  0  0
  3  4  1  0  0  0  0
  5 25  1  6  0  0  0
  5  6  1  0  0  0  0
  5 27  1  0  0  0  0
  6 18  1  1  0  0  0
  6 28  1  0  0  0  0
  7 19  1  6  0  0  0
  7 24  1  0  0  0  0
  7 17  1  0  0  0  0
  8 12  1  0  0  0  0
  9 28  1  0  0  0  0
  9 26  1  0  0  0  0
 10 17  1  0  0  0  0
 11  3  2  0  0  0  0
 12 13  2  0  0  0  0
 13 22  1  0  0  0  0
 13 11  1  0  0  0  0
 14 23  1  0  0  0  0
 14 22  2  0  0  0  0
 15  9  2  0  0  0  0
 16 19  1  0  0  0  0
 17  8  1  0  0  0  0
 18 15  1  0  0  0  0
 20 10  1  0  0  0  0
 21  4  2  0  0  0  0
 22 21  1  0  0  0  0
 24  2  1  0  0  0  0
 27 14  1  0  0  0  0
 28 23  1  0  0  0  0
 29 20  1  0  0  0  0
 30 29  1  0  0  0  0
 30 31  1  0  0  0  0
 32 30  1  0  0  0  0
M  END
>  <MODEL>
6

>  <REMARK>
 VINA RESULT:      -8.3      2.647      7.523
  Name = 
  2 active torsions:
  status: ('A' for Active; 'I' for Inactive)
    1  A    between atoms: C_20  and  O_29
    2  A    between atoms: O_29  and  C_30
                            x       y       z     vdW  Elec       q    Type
                         _______ _______ _______ _____ _____    ______ ____

>  <TORSDO>
F 2

$$$$
=
 OpenBabel11112416393D

 32 38  0  0  1  0  0  0  0  0999 V2000
  192.2970  170.1310  142.7170 C   0  0  1  0  0  3  0  0  0  0  0  0
  189.4100  174.3630  143.7910 C   0  0  0  0  0  0  0  0  0  0  0  0
  191.4060  176.2720  147.8140 C   0  0  0  0  0  3  0  0  0  0  0  0
  190.4630  177.2970  147.8090 C   0  0  0  0  0  3  0  0  0  0  0  0
  187.6410  175.6040  142.6510 C   0  0  1  0  0  3  0  0  0  0  0  0
  186.7300  176.7480  142.6470 C   0  0  2  0  0  3  0  0  0  0  0  0
  190.6500  172.5940  142.6120 N   0  0  1  0  0  0  0  0  0  0  0  0
  191.4240  173.2310  144.8460 C   0  0  0  0  0  2  0  0  0  0  0  0
  185.9820  178.7270  143.3820 C   0  0  0  0  0  0  0  0  0  0  0  0
  192.3800  171.1890  143.8080 C   0  0  2  0  0  3  0  0  0  0  0  0
  191.3710  175.2890  146.8260 C   0  0  0  0  0  3  0  0  0  0  0  0
  190.3620  174.3090  144.8340 C   0  0  0  0  0  0  0  0  0  0  0  0
  190.3970  175.3160  145.8120 C   0  0  0  0  0  0  0  0  0  0  0  0
  188.4510  176.3990  144.7920 C   0  0  0  0  0  0  0  0  0  0  0  0
  186.0910  178.7670  142.0960 N   0  0  0  0  0  0  0  0  0  0  0  0
  190.9540  170.1570  141.9690 C   0  0  0  0  0  2  0  0  0  0  0  0
  191.1170  172.0700  143.9070 C   0  0  2  0  0  3  0  0  0  0  0  0
  186.6000  177.5470  141.6410 N   0  0  0  0  0  2  0  0  0  0  0  0
  190.4400  171.5550  141.5910 C   0  0  0  0  0  2  0  0  0  0  0  0
  193.1550  171.3720  142.5090 C   0  0  1  0  0  3  0  0  0  0  0  0
  189.4880  177.3380  146.8120 C   0  0  0  0  0  3  0  0  0  0  0  0
  189.4400  176.3580  145.7990 C   0  0  0  0  0  0  0  0  0  0  0  0
  187.5000  177.3660  144.8460 C   0  0  0  0  0  2  0  0  0  0  0  0
  189.3400  173.1920  142.8380 C   0  0  0  0  0  2  0  0  0  0  0  0
  187.6830  174.7950  141.5190 O   0  0  0  0  0  1  0  0  0  0  0  0
  185.4340  179.8550  144.1820 C   0  0  0  0  0  1  0  0  0  0  0  0
  188.4650  175.4290  143.7290 C   0  0  0  0  0  0  0  0  0  0  0  0
  186.3240  177.3800  143.9190 C   0  0  2  0  0  3  0  0  0  0  0  0
  194.4960  171.0480  142.7230 O   0  0  0  0  0  0  0  0  0  0  0  0
  195.1860  171.6880  141.6920 C   0  0  2  0  0  3  0  0  0  0  0  0
  194.6670  173.1030  141.5380 C   0  0  0  0  0  1  0  0  0  0  0  0
  194.9900  170.9930  140.4990 O   0  0  0  0  0  1  0  0  0  0  0  0
  1 16  1  6  0  0  0
  1 10  1  0  0  0  0
  2 12  1  0  0  0  0
  4  3  1  0  0  0  0
  5 25  1  6  0  0  0
  5 27  1  0  0  0  0
  6 18  1  6  0  0  0
  6  5  1  0  0  0  0
  6 28  1  0  0  0  0
  7 19  1  6  0  0  0
  7 24  1  0  0  0  0
  7 17  1  0  0  0  0
  9 28  1  0  0  0  0
  9 26  1  0  0  0  0
 10 17  1  0  0  0  0
 11  3  2  0  0  0  0
 12  8  1  0  0  0  0
 12 13  2  0  0  0  0
 13 11  1  0  0  0  0
 14 23  1  0  0  0  0
 14 22  2  0  0  0  0
 15  9  2  0  0  0  0
 17  8  1  0  0  0  0
 18 15  1  0  0  0  0
 19 16  1  0  0  0  0
 20  1  1  0  0  0  0
 20 29  1  0  0  0  0
 20 10  1  0  0  0  0
 21  4  2  0  0  0  0
 22 13  1  0  0  0  0
 22 21  1  0  0  0  0
 24  2  1  0  0  0  0
 27  2  2  0  0  0  0
 27 14  1  0  0  0  0
 28 23  1  0  0  0  0
 30 29  1  0  0  0  0
 31 30  1  0  0  0  0
 32 30  1  0  0  0  0
M  END
>  <MODEL>
7

>  <REMARK>
 VINA RESULT:      -8.3      2.222      7.705
  Name = 
  2 active torsions:
  status: ('A' for Active; 'I' for Inactive)
    1  A    between atoms: C_20  and  O_29
    2  A    between atoms: O_29  and  C_30
                            x       y       z     vdW  Elec       q    Type
                         _______ _______ _______ _____ _____    ______ ____

>  <TORSDO>
F 2

$$$$
=
 OpenBabel11112416393D

 32 38  0  0  1  0  0  0  0  0999 V2000
  195.4440  174.4020  145.4230 C   0  0  1  0  0  3  0  0  0  0  0  0
  190.6700  175.8880  143.8740 C   0  0  0  0  0  0  0  0  0  0  0  0
  189.8540  173.4240  139.7420 C   0  0  0  0  0  3  0  0  0  0  0  0
  188.5980  174.0150  139.6250 C   0  0  0  0  0  3  0  0  0  0  0  0
  188.8510  177.1990  144.8430 C   0  0  1  0  0  3  0  0  0  0  0  0
  187.4920  177.7250  144.7140 C   0  0  2  0  0  3  0  0  0  0  0  0
  192.6040  175.2330  145.2480 N   0  0  1  0  0  0  0  0  0  0  0  0
  192.4510  174.3110  142.9860 C   0  0  0  0  0  2  0  0  0  0  0  0
  185.4620  177.8460  143.7740 C   0  0  0  0  0  0  0  0  0  0  0  0
  194.5730  174.0090  144.2380 C   0  0  2  0  0  3  0  0  0  0  0  0
  190.6780  173.7490  140.8180 C   0  0  0  0  0  3  0  0  0  0  0  0
  191.1090  175.0000  142.8670 C   0  0  0  0  0  0  0  0  0  0  0  0
  190.2610  174.6680  141.7990 C   0  0  0  0  0  0  0  0  0  0  0  0
  188.5500  176.1950  142.6580 C   0  0  0  0  0  0  0  0  0  0  0  0
  185.3310  177.7270  145.0530 N   0  0  0  0  0  0  0  0  0  0  0  0
  194.9450  175.6730  146.1290 C   0  0  0  0  0  2  0  0  0  0  0  0
  193.3690  174.9490  144.0220 C   0  0  2  0  0  3  0  0  0  0  0  0
  186.5960  177.6060  145.6350 N   0  0  0  0  0  2  0  0  0  0  0  0
  193.4260  175.7430  146.3580 C   0  0  0  0  0  2  0  0  0  0  0  0
  194.5030  173.2100  145.5350 C   0  0  1  0  0  3  0  0  0  0  0  0
  188.1690  174.9300  140.5870 C   0  0  0  0  0  3  0  0  0  0  0  0
  188.9850  175.2670  141.6870 C   0  0  0  0  0  0  0  0  0  0  0  0
  187.3530  176.8110  142.4870 C   0  0  0  0  0  2  0  0  0  0  0  0
  191.6660  176.3040  144.9320 C   0  0  0  0  0  2  0  0  0  0  0  0
  189.5190  177.3980  146.0470 O   0  0  0  0  0  1  0  0  0  0  0  0
  184.3070  178.0330  142.8560 C   0  0  0  0  0  1  0  0  0  0  0  0
  189.3700  176.4690  143.8090 C   0  0  0  0  0  0  0  0  0  0  0  0
  186.8960  177.9260  143.3770 C   0  0  2  0  0  3  0  0  0  0  0  0
  195.2320  172.0300  145.3880 O   0  0  0  0  0  0  0  0  0  0  0  0
  194.3480  171.0160  145.7610 C   0  0  2  0  0  3  0  0  0  0  0  0
  195.1320  169.8060  146.2260 C   0  0  0  0  0  1  0  0  0  0  0  0
  193.5580  170.6620  144.6680 O   0  0  0  0  0  1  0  0  0  0  0  0
  1 20  1  0  0  0  0
  1 16  1  1  0  0  0
  2 24  1  0  0  0  0
  3 11  1  0  0  0  0
  4  3  2  0  0  0  0
  4 21  1  0  0  0  0
  5 25  1  1  0  0  0
  6  5  1  0  0  0  0
  6 18  1  1  0  0  0
  7 24  1  6  0  0  0
  7 19  1  0  0  0  0
  8 17  1  0  0  0  0
  9 15  2  0  0  0  0
 10  1  1  0  0  0  0
 10 20  1  0  0  0  0
 11 13  2  0  0  0  0
 12  8  1  0  0  0  0
 12  2  2  0  0  0  0
 13 12  1  0  0  0  0
 14 27  2  0  0  0  0
 15 18  1  0  0  0  0
 16 19  1  0  0  0  0
 17 10  1  0  0  0  0
 17  7  1  0  0  0  0
 21 22  2  0  0  0  0
 22 13  1  0  0  0  0
 22 14  1  0  0  0  0
 23 14  1  0  0  0  0
 23 28  1  0  0  0  0
 26  9  1  0  0  0  0
 27  2  1  0  0  0  0
 27  5  1  0  0  0  0
 28  9  1  0  0  0  0
 28  6  1  0  0  0  0
 29 20  1  0  0  0  0
 29 30  1  0  0  0  0
 30 31  1  0  0  0  0
 32 30  1  0  0  0  0
M  END
>  <MODEL>
8

>  <REMARK>
 VINA RESULT:      -8.2      3.057      8.221
  Name = 
  2 active torsions:
  status: ('A' for Active; 'I' for Inactive)
    1  A    between atoms: C_20  and  O_29
    2  A    between atoms: O_29  and  C_30
                            x       y       z     vdW  Elec       q    Type
                         _______ _______ _______ _____ _____    ______ ____

>  <TORSDO>
F 2

$$$$
=
 OpenBabel11112416393D

 32 38  0  0  1  0  0  0  0  0999 V2000
  186.8330  177.9680  143.3650 C   0  0  1  0  0  3  0  0  0  0  0  0
  190.7690  174.5180  143.3390 C   0  0  0  0  0  0  0  0  0  0  0  0
  194.1090  176.3820  146.3690 C   0  0  0  0  0  3  0  0  0  0  0  0
  194.9430  175.2910  146.1380 C   0  0  0  0  0  3  0  0  0  0  0  0
  191.1150  172.2720  142.4420 C   0  0  1  0  0  3  0  0  0  0  0  0
  191.9940  171.1120  142.3020 C   0  0  2  0  0  3  0  0  0  0  0  0
  188.5290  175.5370  143.3190 N   0  0  1  0  0  0  0  0  0  0  0  0
  190.3130  176.7340  144.4920 C   0  0  0  0  0  2  0  0  0  0  0  0
  193.7910  169.8750  142.8110 C   0  0  0  0  0  0  0  0  0  0  0  0
  188.1660  177.9160  144.0970 C   0  0  2  0  0  3  0  0  0  0  0  0
  192.8750  176.4620  145.7260 C   0  0  0  0  0  3  0  0  0  0  0  0
  191.2120  175.5550  144.1890 C   0  0  0  0  0  0  0  0  0  0  0  0
  192.4500  175.4520  144.8440 C   0  0  0  0  0  0  0  0  0  0  0  0
  192.8850  173.3180  143.7240 C   0  0  0  0  0  0  0  0  0  0  0  0
  192.7420  169.1220  142.8190 N   0  0  0  0  0  0  0  0  0  0  0  0
  186.7600  176.9730  142.1960 C   0  0  0  0  0  2  0  0  0  0  0  0
  189.1390  176.8610  143.5290 C   0  0  2  0  0  3  0  0  0  0  0  0
  191.6150  169.9020  142.5450 N   0  0  0  0  0  2  0  0  0  0  0  0
  187.3090  175.5680  142.4950 C   0  0  0  0  0  2  0  0  0  0  0  0
  186.9200  177.3180  144.7400 C   0  0  1  0  0  3  0  0  0  0  0  0
  194.5390  174.2800  145.2640 C   0  0  0  0  0  3  0  0  0  0  0  0
  193.2920  174.3400  144.6100 C   0  0  0  0  0  0  0  0  0  0  0  0
  193.7430  172.3000  143.4600 C   0  0  0  0  0  2  0  0  0  0  0  0
  189.4880  174.7370  142.5670 C   0  0  0  0  0  2  0  0  0  0  0  0
  189.8180  172.1760  141.9460 O   0  0  0  0  0  1  0  0  0  0  0  0
  195.1650  169.3500  143.0310 C   0  0  0  0  0  1  0  0  0  0  0  0
  191.5780  173.3640  143.1230 C   0  0  0  0  0  0  0  0  0  0  0  0
  193.4580  171.2710  142.4090 C   0  0  2  0  0  3  0  0  0  0  0  0
  186.4280  178.2010  145.7010 O   0  0  0  0  0  0  0  0  0  0  0  0
  185.4630  177.4710  146.3960 C   0  0  2  0  0  3  0  0  0  0  0  0
  184.1950  178.2910  146.5130 C   0  0  0  0  0  1  0  0  0  0  0  0
  185.9370  177.1690  147.6720 O   0  0  0  0  0  1  0  0  0  0  0  0
  1 16  1  6  0  0  0
  1 10  1  0  0  0  0
  1 20  1  0  0  0  0
  2 12  1  0  0  0  0
  4  3  1  0  0  0  0
  5 25  1  1  0  0  0
  5 27  1  0  0  0  0
  6 28  1  0  0  0  0
  6  5  1  0  0  0  0
  6 18  1  1  0  0  0
  7 19  1  6  0  0  0
  7 17  1  0  0  0  0
  9 15  2  0  0  0  0
  9 26  1  0  0  0  0
 10 20  1  0  0  0  0
 11  3  2  0  0  0  0
 12  8  1  0  0  0  0
 12 13  2  0  0  0  0
 13 11  1  0  0  0  0
 14 22  2  0  0  0  0
 16 19  1  0  0  0  0
 17 10  1  0  0  0  0
 17  8  1  0  0  0  0
 18 15  1  0  0  0  0
 20 29  1  0  0  0  0
 21  4  2  0  0  0  0
 22 13  1  0  0  0  0
 22 21  1  0  0  0  0
 23 14  1  0  0  0  0
 24  7  1  0  0  0  0
 24  2  1  0  0  0  0
 27  2  2  0  0  0  0
 27 14  1  0  0  0  0
 28  9  1  0  0  0  0
 28 23  1  0  0  0  0
 29 30  1  0  0  0  0
 30 31  1  0  0  0  0
 30 32  1  0  0  0  0
M  END
>  <MODEL>
9

>  <REMARK>
 VINA RESULT:      -8.0      1.559      2.260
  Name = 
  2 active torsions:
  status: ('A' for Active; 'I' for Inactive)
    1  A    between atoms: C_20  and  O_29
    2  A    between atoms: O_29  and  C_30
                            x       y       z     vdW  Elec       q    Type
                         _______ _______ _______ _____ _____    ______ ____

>  <TORSDO>
F 2

$$$$
