=
 OpenBabel11112416313D

 32 37  0  0  1  0  0  0  0  0999 V2000
  192.3830  171.7360  142.0650 C   0  0  0  0  0  2  0  0  0  0  0  0
  189.7260  176.7220  142.7700 C   0  0  1  0  0  3  0  0  0  0  0  0
  191.9440  175.6440  146.9020 C   0  0  0  0  0  2  0  0  0  0  0  0
  190.8850  176.3430  147.7490 C   0  0  0  0  0  2  0  0  0  0  0  0
  187.4030  177.7520  142.7780 C   0  0  0  0  0  0  0  0  0  0  0  0
  186.3550  178.2910  143.5190 C   0  0  0  0  0  0  0  0  0  0  0  0
  190.5850  174.5970  141.7800 C   0  0  1  0  0  3  0  0  0  0  0  0
  192.0920  176.2890  142.8080 C   0  0  0  0  0  2  0  0  0  0  0  0
  185.2110  179.0420  145.4170 C   0  0  1  0  0  3  0  0  0  0  0  0
  193.0730  174.1590  141.9320 C   0  0  0  0  0  2  0  0  0  0  0  0
  192.0900  176.3730  145.5670 C   0  0  0  0  0  2  0  0  0  0  0  0
  190.9740  176.9160  143.5470 N   0  0  2  0  0  0  0  0  0  0  0  0
  190.8120  176.3400  144.8400 N   0  0  2  0  0  0  0  0  0  0  0  0
  188.6130  177.4980  144.8830 C   0  0  0  0  0  0  0  0  0  0  0  0
  184.3590  179.2490  144.1420 C   0  0  0  0  0  2  0  0  0  0  0  0
  190.7130  171.9670  142.7590 S   0  0  0  0  0  0  0  0  0  0  0  0
  191.8640  174.7950  142.5960 C   0  0  2  0  0  3  0  0  0  0  0  0
  185.1450  178.7570  143.0540 O   0  0  0  0  0  0  0  0  0  0  0  0
  190.2660  173.1390  141.4350 C   0  0  0  0  0  2  0  0  0  0  0  0
  193.3540  172.8020  142.5690 C   0  0  2  0  0  3  0  0  0  0  0  0
  189.5870  176.5000  146.9620 C   0  0  0  0  0  2  0  0  0  0  0  0
  189.8850  177.1810  145.6260 C   0  0  1  0  0  3  0  0  0  0  0  0
  187.5570  178.0560  145.5500 N   0  0  0  0  0  0  0  0  0  0  0  0
  189.4220  175.2370  142.5180 C   0  0  0  0  0  2  0  0  0  0  0  0
  187.2860  177.6180  141.2950 C   0  0  0  0  0  1  0  0  0  0  0  0
  184.5080  178.0650  146.3390 C   0  0  0  0  0  1  0  0  0  0  0  0
  188.5640  177.3530  143.4770 C   0  0  0  0  0  0  0  0  0  0  0  0
  186.4430  178.4230  144.8680 C   0  0  0  0  0  0  0  0  0  0  0  0
  194.7180  172.4060  142.2550 N   0  0  0  0  0  2  0  0  0  0  0  0
  195.8170  172.6720  143.1280 C   0  0  0  0  0  0  0  0  0  0  0  0
  195.6430  173.2920  144.2110 O   0  0  0  0  0  0  0  0  0  0  0  0
  197.1810  172.2170  142.7520 C   0  0  0  0  0  1  0  0  0  0  0  0
  1 20  1  0  0  0  0
  1 16  1  0  0  0  0
  2 24  1  1  0  0  0
  2 27  1  0  0  0  0
  2 12  1  0  0  0  0
  3  4  1  0  0  0  0
  5 27  2  0  0  0  0
  5  6  1  0  0  0  0
  6 28  2  0  0  0  0
  7 19  1  1  0  0  0
  7 24  1  0  0  0  0
  7 17  1  0  0  0  0
  9 26  1  1  0  0  0
 10 20  1  0  0  0  0
 11  3  1  0  0  0  0
 12  8  1  6  0  0  0
 12 13  1  0  0  0  0
 13 11  1  1  0  0  0
 13 22  1  0  0  0  0
 14 23  2  0  0  0  0
 14 22  1  0  0  0  0
 15  9  1  0  0  0  0
 17 10  1  6  0  0  0
 17  8  1  0  0  0  0
 18  6  1  0  0  0  0
 18 15  1  0  0  0  0
 19 16  1  0  0  0  0
 20 29  1  6  0  0  0
 21  4  1  0  0  0  0
 22 21  1  1  0  0  0
 25  5  1  0  0  0  0
 27 14  1  0  0  0  0
 28  9  1  0  0  0  0
 28 23  1  0  0  0  0
 29 30  1  0  0  0  0
 30 31  2  0  0  0  0
 32 30  1  0  0  0  0
M  END
>  <MODEL>
1

>  <REMARK>
 VINA RESULT:      -8.7      0.000      0.000
  Name = 
  1 active torsions:
  status: ('A' for Active; 'I' for Inactive)
    1  A    between atoms: C_20  and  N_29
                            x       y       z     vdW  Elec       q    Type
                         _______ _______ _______ _____ _____    ______ ____

>  <TORSDO>
F 1

$$$$
=
 OpenBabel11112416313D

 32 37  0  0  1  0  0  0  0  0999 V2000
  186.7550  177.2330  146.3060 C   0  0  0  0  0  2  0  0  0  0  0  0
  191.9830  175.9130  144.4800 C   0  0  1  0  0  3  0  0  0  0  0  0
  188.9200  172.7220  142.5870 C   0  0  0  0  0  2  0  0  0  0  0  0
  189.9570  171.6020  142.5880 C   0  0  0  0  0  2  0  0  0  0  0  0
  194.2600  175.1740  145.3360 C   0  0  0  0  0  0  0  0  0  0  0  0
  195.1930  174.1500  145.4670 C   0  0  0  0  0  0  0  0  0  0  0  0
  190.0720  177.0320  145.6320 C   0  0  1  0  0  3  0  0  0  0  0  0
  190.1050  176.6520  143.1730 C   0  0  0  0  0  2  0  0  0  0  0  0
  196.1150  172.0160  145.2000 C   0  0  1  0  0  3  0  0  0  0  0  0
  188.0860  177.7050  144.2150 C   0  0  0  0  0  2  0  0  0  0  0  0
  189.6180  174.0600  142.3570 C   0  0  0  0  0  2  0  0  0  0  0  0
  191.1490  175.6110  143.2920 N   0  0  2  0  0  0  0  0  0  0  0  0
  190.5800  174.3130  143.4410 N   0  0  2  0  0  0  0  0  0  0  0  0
  192.8600  173.5880  144.1150 C   0  0  0  0  0  0  0  0  0  0  0  0
  197.0790  172.9380  145.9830 C   0  0  0  0  0  2  0  0  0  0  0  0
  187.8840  176.0300  147.0800 S   0  0  0  0  0  0  0  0  0  0  0  0
  189.2120  176.7040  144.4100 C   0  0  2  0  0  3  0  0  0  0  0  0
  196.4210  174.2030  146.0910 O   0  0  0  0  0  0  0  0  0  0  0  0
  189.2920  177.1800  146.9420 C   0  0  0  0  0  2  0  0  0  0  0  0
  186.7890  177.1360  144.7810 C   0  0  2  0  0  3  0  0  0  0  0  0
  191.0810  171.9130  143.5710 C   0  0  0  0  0  2  0  0  0  0  0  0
  191.6460  173.3030  143.2710 C   0  0  1  0  0  3  0  0  0  0  0  0
  193.8280  172.6320  144.2600 N   0  0  0  0  0  0  0  0  0  0  0  0
  191.1560  175.9780  145.7730 C   0  0  0  0  0  2  0  0  0  0  0  0
  194.5340  176.5230  145.9140 C   0  0  0  0  0  1  0  0  0  0  0  0
  195.6850  170.8650  146.0890 C   0  0  0  0  0  1  0  0  0  0  0  0
  193.0660  174.8880  144.6340 C   0  0  0  0  0  0  0  0  0  0  0  0
  194.9630  172.9170  144.9450 C   0  0  0  0  0  0  0  0  0  0  0  0
  185.6660  177.8710  144.2210 N   0  0  0  0  0  2  0  0  0  0  0  0
  185.1700  177.6310  142.9020 C   0  0  0  0  0  0  0  0  0  0  0  0
  185.7130  176.7740  142.1560 O   0  0  0  0  0  0  0  0  0  0  0  0
  184.0030  178.4050  142.4050 C   0  0  0  0  0  1  0  0  0  0  0  0
  1 16  1  0  0  0  0
  2 27  1  0  0  0  0
  2 24  1  1  0  0  0
  3  4  1  0  0  0  0
  4 21  1  0  0  0  0
  5  6  1  0  0  0  0
  5 25  1  0  0  0  0
  6 18  1  0  0  0  0
  7 24  1  1  0  0  0
  7 19  1  0  0  0  0
  9 15  1  0  0  0  0
  9 26  1  1  0  0  0
 10 17  1  0  0  0  0
 10 20  1  0  0  0  0
 11  3  1  0  0  0  0
 12  8  1  1  0  0  0
 12 13  1  0  0  0  0
 12  2  1  0  0  0  0
 13 11  1  6  0  0  0
 14 23  2  0  0  0  0
 14 27  1  0  0  0  0
 15 18  1  0  0  0  0
 17  8  1  6  0  0  0
 17  7  1  0  0  0  0
 19 16  1  0  0  0  0
 20 29  1  6  0  0  0
 20  1  1  0  0  0  0
 22 13  1  0  0  0  0
 22 21  1  1  0  0  0
 22 14  1  0  0  0  0
 23 28  1  0  0  0  0
 27  5  2  0  0  0  0
 28  9  1  0  0  0  0
 28  6  2  0  0  0  0
 30 29  1  0  0  0  0
 31 30  2  0  0  0  0
 32 30  1  0  0  0  0
M  END
>  <MODEL>
2

>  <REMARK>
 VINA RESULT:      -8.6      2.249      8.429
  Name = 
  1 active torsions:
  status: ('A' for Active; 'I' for Inactive)
    1  A    between atoms: C_20  and  N_29
                            x       y       z     vdW  Elec       q    Type
                         _______ _______ _______ _____ _____    ______ ____

>  <TORSDO>
F 1

$$$$
=
 OpenBabel11112416313D

 32 37  0  0  1  0  0  0  0  0999 V2000
  195.0790  175.3910  144.9280 C   0  0  0  0  0  2  0  0  0  0  0  0
  189.3870  175.3910  145.0620 C   0  0  1  0  0  3  0  0  0  0  0  0
  190.7640  172.8730  141.2000 C   0  0  0  0  0  2  0  0  0  0  0  0
  189.5330  173.2780  140.3940 C   0  0  0  0  0  2  0  0  0  0  0  0
  187.3970  176.9660  144.9400 C   0  0  0  0  0  0  0  0  0  0  0  0
  186.3260  177.4560  144.1980 C   0  0  0  0  0  0  0  0  0  0  0  0
  191.7850  175.8040  145.6200 C   0  0  1  0  0  3  0  0  0  0  0  0
  190.8720  173.5130  145.2960 C   0  0  0  0  0  2  0  0  0  0  0  0
  184.8560  177.6460  142.3870 C   0  0  1  0  0  3  0  0  0  0  0  0
  193.3150  173.7930  145.7630 C   0  0  0  0  0  2  0  0  0  0  0  0
  190.3940  172.7750  142.6790 C   0  0  0  0  0  2  0  0  0  0  0  0
  189.6910  174.0270  144.5660 N   0  0  2  0  0  0  0  0  0  0  0  0
  189.9270  174.0840  143.1620 N   0  0  2  0  0  0  0  0  0  0  0  0
  187.8780  175.4880  143.0570 C   0  0  0  0  0  0  0  0  0  0  0  0
  184.4620  178.6210  143.5200 C   0  0  0  0  0  2  0  0  0  0  0  0
  193.9910  176.5650  144.0560 S   0  0  0  0  0  0  0  0  0  0  0  0
  192.0950  174.4020  145.0930 C   0  0  2  0  0  3  0  0  0  0  0  0
  185.4190  178.4270  144.5640 O   0  0  0  0  0  0  0  0  0  0  0  0
  192.9540  176.7910  145.5390 C   0  0  0  0  0  2  0  0  0  0  0  0
  194.5340  173.9650  144.8640 C   0  0  2  0  0  3  0  0  0  0  0  0
  188.9010  174.5380  140.9780 C   0  0  0  0  0  2  0  0  0  0  0  0
  188.6440  174.3300  142.4720 C   0  0  1  0  0  3  0  0  0  0  0  0
  186.7980  175.9960  142.3890 N   0  0  0  0  0  0  0  0  0  0  0  0
  190.5730  176.3520  144.8880 C   0  0  0  0  0  2  0  0  0  0  0  0
  187.6750  177.5020  146.3060 C   0  0  0  0  0  1  0  0  0  0  0  0
  185.2400  178.4370  141.1520 C   0  0  0  0  0  1  0  0  0  0  0  0
  188.1880  175.9500  144.3580 C   0  0  0  0  0  0  0  0  0  0  0  0
  186.0550  176.9800  142.9550 C   0  0  0  0  0  0  0  0  0  0  0  0
  195.5670  173.0300  145.2830 N   0  0  0  0  0  2  0  0  0  0  0  0
  196.4490  172.3910  144.3580 C   0  0  0  0  0  0  0  0  0  0  0  0
  196.3460  172.6020  143.1200 O   0  0  0  0  0  0  0  0  0  0  0  0
  197.4960  171.4650  144.8610 C   0  0  0  0  0  1  0  0  0  0  0  0
  2 24  1  6  0  0  0
  3 11  1  0  0  0  0
  4 21  1  0  0  0  0
  4  3  1  0  0  0  0
  5 25  1  0  0  0  0
  6 18  1  0  0  0  0
  6  5  2  0  0  0  0
  7 24  1  6  0  0  0
  9 26  1  6  0  0  0
  9 28  1  0  0  0  0
  9 15  1  0  0  0  0
 12  2  1  0  0  0  0
 12  8  1  1  0  0  0
 13 11  1  6  0  0  0
 13 12  1  0  0  0  0
 14 27  2  0  0  0  0
 15 18  1  0  0  0  0
 16  1  1  0  0  0  0
 16 19  1  0  0  0  0
 17  8  1  1  0  0  0
 17  7  1  0  0  0  0
 17 10  1  0  0  0  0
 19  7  1  0  0  0  0
 20  1  1  0  0  0  0
 20 29  1  1  0  0  0
 20 10  1  0  0  0  0
 22 21  1  6  0  0  0
 22 14  1  0  0  0  0
 22 13  1  0  0  0  0
 23 28  2  0  0  0  0
 23 14  1  0  0  0  0
 27  5  1  0  0  0  0
 27  2  1  0  0  0  0
 28  6  1  0  0  0  0
 30 32  1  0  0  0  0
 30 29  1  0  0  0  0
 31 30  2  0  0  0  0
M  END
>  <MODEL>
3

>  <REMARK>
 VINA RESULT:      -8.1      2.302      4.003
  Name = 
  1 active torsions:
  status: ('A' for Active; 'I' for Inactive)
    1  A    between atoms: C_20  and  N_29
                            x       y       z     vdW  Elec       q    Type
                         _______ _______ _______ _____ _____    ______ ____

>  <TORSDO>
F 1

$$$$
=
 OpenBabel11112416313D

 32 37  0  0  1  0  0  0  0  0999 V2000
  188.0450  176.5250  146.9550 C   0  0  0  0  0  2  0  0  0  0  0  0
  193.0590  175.1330  144.6440 C   0  0  1  0  0  3  0  0  0  0  0  0
  189.5970  173.3640  141.8100 C   0  0  0  0  0  2  0  0  0  0  0  0
  190.4430  172.1690  141.3820 C   0  0  0  0  0  2  0  0  0  0  0  0
  195.1600  173.7830  145.1200 C   0  0  0  0  0  0  0  0  0  0  0  0
  195.9150  172.6460  144.8510 C   0  0  0  0  0  0  0  0  0  0  0  0
  191.3100  176.0530  146.1700 C   0  0  1  0  0  3  0  0  0  0  0  0
  191.3660  176.5810  143.7390 C   0  0  0  0  0  2  0  0  0  0  0  0
  196.4970  170.6320  143.8110 C   0  0  1  0  0  3  0  0  0  0  0  0
  189.5040  177.4970  145.1410 C   0  0  0  0  0  2  0  0  0  0  0  0
  190.5040  174.5670  142.0580 C   0  0  0  0  0  2  0  0  0  0  0  0
  192.2280  175.4140  143.4490 N   0  0  2  0  0  0  0  0  0  0  0  0
  191.4570  174.2570  143.1360 N   0  0  2  0  0  0  0  0  0  0  0  0
  193.5700  172.9850  143.4470 C   0  0  0  0  0  0  0  0  0  0  0  0
  197.5670  171.0460  144.8480 C   0  0  0  0  0  2  0  0  0  0  0  0
  188.9430  174.9600  147.2160 S   0  0  0  0  0  0  0  0  0  0  0  0
  190.4510  176.3270  144.9340 C   0  0  2  0  0  3  0  0  0  0  0  0
  197.1140  172.2750  145.4200 O   0  0  0  0  0  0  0  0  0  0  0  0
  190.5190  175.8430  147.4650 C   0  0  0  0  0  2  0  0  0  0  0  0
  188.1160  176.9770  145.4970 C   0  0  2  0  0  3  0  0  0  0  0  0
  191.5690  171.9230  142.3820 C   0  0  0  0  0  2  0  0  0  0  0  0
  192.3550  173.2190  142.5880 C   0  0  1  0  0  3  0  0  0  0  0  0
  194.3690  171.9000  143.2140 N   0  0  0  0  0  0  0  0  0  0  0  0
  192.2090  174.8600  145.8950 C   0  0  0  0  0  2  0  0  0  0  0  0
  195.6240  174.7730  146.1370 C   0  0  0  0  0  1  0  0  0  0  0  0
  195.8610  169.3230  144.2380 C   0  0  0  0  0  1  0  0  0  0  0  0
  193.9610  173.9620  144.3930 C   0  0  0  0  0  0  0  0  0  0  0  0
  195.5120  171.7350  143.9260 C   0  0  0  0  0  0  0  0  0  0  0  0
  187.1420  178.0330  145.2670 N   0  0  0  0  0  2  0  0  0  0  0  0
  186.5740  178.2900  143.9810 C   0  0  0  0  0  0  0  0  0  0  0  0
  186.9210  177.6120  142.9770 O   0  0  0  0  0  0  0  0  0  0  0  0
  185.5670  179.3710  143.8260 C   0  0  0  0  0  1  0  0  0  0  0  0
  1 16  1  0  0  0  0
  2 24  1  1  0  0  0
  3 11  1  0  0  0  0
  4  3  1  0  0  0  0
  4 21  1  0  0  0  0
  5 25  1  0  0  0  0
  6  5  1  0  0  0  0
  6 18  1  0  0  0  0
  7 24  1  6  0  0  0
  7 19  1  0  0  0  0
  9 28  1  0  0  0  0
  9 26  1  1  0  0  0
  9 15  1  0  0  0  0
 10 20  1  0  0  0  0
 12  8  1  1  0  0  0
 12  2  1  0  0  0  0
 13 11  1  6  0  0  0
 13 12  1  0  0  0  0
 14 27  1  0  0  0  0
 15 18  1  0  0  0  0
 16 19  1  0  0  0  0
 17  8  1  6  0  0  0
 17 10  1  0  0  0  0
 17  7  1  0  0  0  0
 20 29  1  1  0  0  0
 20  1  1  0  0  0  0
 22 21  1  1  0  0  0
 22 13  1  0  0  0  0
 22 14  1  0  0  0  0
 23 14  2  0  0  0  0
 23 28  1  0  0  0  0
 27  2  1  0  0  0  0
 27  5  2  0  0  0  0
 28  6  2  0  0  0  0
 30 29  1  0  0  0  0
 31 30  2  0  0  0  0
 32 30  1  0  0  0  0
M  END
>  <MODEL>
4

>  <REMARK>
 VINA RESULT:      -7.7      1.974      8.761
  Name = 
  1 active torsions:
  status: ('A' for Active; 'I' for Inactive)
    1  A    between atoms: C_20  and  N_29
                            x       y       z     vdW  Elec       q    Type
                         _______ _______ _______ _____ _____    ______ ____

>  <TORSDO>
F 1

$$$$
=
 OpenBabel11112416313D

 32 37  0  0  1  0  0  0  0  0999 V2000
  187.3740  176.4470  147.2190 C   0  0  0  0  0  2  0  0  0  0  0  0
  192.2050  176.7950  144.2260 C   0  0  1  0  0  3  0  0  0  0  0  0
  189.0740  174.1950  141.6600 C   0  0  0  0  0  2  0  0  0  0  0  0
  190.1720  173.3430  141.0290 C   0  0  0  0  0  2  0  0  0  0  0  0
  194.6580  176.1370  144.3290 C   0  0  0  0  0  0  0  0  0  0  0  0
  195.6750  175.3040  143.8710 C   0  0  0  0  0  0  0  0  0  0  0  0
  190.4890  177.0490  146.0220 C   0  0  1  0  0  3  0  0  0  0  0  0
  190.0480  177.6940  143.6600 C   0  0  0  0  0  2  0  0  0  0  0  0
  196.6830  173.6260  142.5900 C   0  0  1  0  0  3  0  0  0  0  0  0
  188.2100  177.9160  145.3460 C   0  0  0  0  0  2  0  0  0  0  0  0
  189.6050  175.6040  141.9120 C   0  0  0  0  0  2  0  0  0  0  0  0
  191.1710  176.8680  143.1660 N   0  0  2  0  0  0  0  0  0  0  0  0
  190.7460  175.5480  142.8390 N   0  0  2  0  0  0  0  0  0  0  0  0
  193.1650  174.9760  142.7850 C   0  0  0  0  0  0  0  0  0  0  0  0
  197.7130  174.2950  143.5300 C   0  0  0  0  0  2  0  0  0  0  0  0
  188.7260  175.2250  147.2290 S   0  0  0  0  0  0  0  0  0  0  0  0
  189.4250  177.1080  144.9240 C   0  0  2  0  0  3  0  0  0  0  0  0
  196.9960  175.2920  144.2610 O   0  0  0  0  0  0  0  0  0  0  0  0
  189.9840  176.5370  147.3750 C   0  0  0  0  0  2  0  0  0  0  0  0
  187.1040  176.9750  145.8110 C   0  0  2  0  0  3  0  0  0  0  0  0
  191.4470  173.4050  141.8650 C   0  0  0  0  0  2  0  0  0  0  0  0
  191.8290  174.8680  142.0970 C   0  0  1  0  0  3  0  0  0  0  0  0
  194.2120  174.2050  142.3620 N   0  0  0  0  0  0  0  0  0  0  0  0
  191.6570  176.2080  145.5360 C   0  0  0  0  0  2  0  0  0  0  0  0
  194.9400  177.1670  145.3730 C   0  0  0  0  0  1  0  0  0  0  0  0
  196.5340  172.1640  142.9650 C   0  0  0  0  0  1  0  0  0  0  0  0
  193.3720  175.9740  143.7660 C   0  0  0  0  0  0  0  0  0  0  0  0
  195.4380  174.3630  142.9200 C   0  0  0  0  0  0  0  0  0  0  0  0
  185.8370  177.6890  145.7930 N   0  0  0  0  0  2  0  0  0  0  0  0
  185.1180  177.9520  144.5860 C   0  0  0  0  0  0  0  0  0  0  0  0
  185.5770  177.5870  143.4710 O   0  0  0  0  0  0  0  0  0  0  0  0
  183.8170  178.6670  144.6480 C   0  0  0  0  0  1  0  0  0  0  0  0
  1 16  1  0  0  0  0
  2 24  1  1  0  0  0
  3 11  1  0  0  0  0
  4  3  1  0  0  0  0
  4 21  1  0  0  0  0
  5 25  1  0  0  0  0
  6 18  1  0  0  0  0
  6  5  1  0  0  0  0
  7 24  1  6  0  0  0
  7 19  1  0  0  0  0
  9 28  1  0  0  0  0
  9 26  1  1  0  0  0
  9 15  1  0  0  0  0
 10 20  1  0  0  0  0
 12  8  1  1  0  0  0
 12  2  1  0  0  0  0
 13 11  1  6  0  0  0
 13 12  1  0  0  0  0
 14 27  1  0  0  0  0
 15 18  1  0  0  0  0
 16 19  1  0  0  0  0
 17  8  1  6  0  0  0
 17 10  1  0  0  0  0
 17  7  1  0  0  0  0
 20 29  1  1  0  0  0
 20  1  1  0  0  0  0
 22 21  1  1  0  0  0
 22 14  1  0  0  0  0
 22 13  1  0  0  0  0
 23 14  2  0  0  0  0
 23 28  1  0  0  0  0
 27  2  1  0  0  0  0
 27  5  2  0  0  0  0
 28  6  2  0  0  0  0
 30 32  1  0  0  0  0
 30 29  1  0  0  0  0
 31 30  2  0  0  0  0
M  END
>  <MODEL>
5

>  <REMARK>
 VINA RESULT:      -7.7      1.875      8.481
  Name = 
  1 active torsions:
  status: ('A' for Active; 'I' for Inactive)
    1  A    between atoms: C_20  and  N_29
                            x       y       z     vdW  Elec       q    Type
                         _______ _______ _______ _____ _____    ______ ____

>  <TORSDO>
F 1

$$$$
=
 OpenBabel11112416313D

 32 37  0  0  1  0  0  0  0  0999 V2000
  195.7310  175.0180  141.4570 C   0  0  0  0  0  2  0  0  0  0  0  0
  190.9530  174.7750  144.5420 C   0  0  1  0  0  3  0  0  0  0  0  0
  189.8010  173.7950  139.9750 C   0  0  0  0  0  2  0  0  0  0  0  0
  188.4110  174.4120  140.1060 C   0  0  0  0  0  2  0  0  0  0  0  0
  189.4380  176.2260  145.9780 C   0  0  0  0  0  0  0  0  0  0  0  0
  188.2300  176.9050  146.1020 C   0  0  0  0  0  0  0  0  0  0  0  0
  193.3380  175.0520  143.8590 C   0  0  1  0  0  3  0  0  0  0  0  0
  192.0450  172.9840  143.3660 C   0  0  0  0  0  2  0  0  0  0  0  0
  186.0990  177.6580  145.4950 C   0  0  1  0  0  3  0  0  0  0  0  0
  194.4030  173.1690  142.5450 C   0  0  0  0  0  2  0  0  0  0  0  0
  190.2120  173.1800  141.3110 C   0  0  0  0  0  2  0  0  0  0  0  0
  190.7530  173.6780  143.5650 N   0  0  2  0  0  0  0  0  0  0  0  0
  190.2590  174.2250  142.3460 N   0  0  2  0  0  0  0  0  0  0  0  0
  188.6770  175.5070  143.7720 C   0  0  0  0  0  0  0  0  0  0  0  0
  186.4820  178.1670  146.9040 C   0  0  0  0  0  2  0  0  0  0  0  0
  194.5470  176.3820  141.7000 S   0  0  0  0  0  0  0  0  0  0  0  0
  193.1220  173.9300  142.8410 C   0  0  2  0  0  3  0  0  0  0  0  0
  187.7900  177.6570  147.1700 O   0  0  0  0  0  0  0  0  0  0  0  0
  194.4440  176.0460  143.4900 C   0  0  0  0  0  2  0  0  0  0  0  0
  195.0170  173.6840  141.2470 C   0  0  2  0  0  3  0  0  0  0  0  0
  188.3590  175.3700  141.2930 C   0  0  0  0  0  2  0  0  0  0  0  0
  188.8570  174.6490  142.5470 C   0  0  1  0  0  3  0  0  0  0  0  0
  187.5010  176.1770  143.9660 N   0  0  0  0  0  0  0  0  0  0  0  0
  192.0220  175.7780  144.0840 C   0  0  0  0  0  2  0  0  0  0  0  0
  190.4420  176.2660  147.0820 C   0  0  0  0  0  1  0  0  0  0  0  0
  185.9280  178.8400  144.5600 C   0  0  0  0  0  1  0  0  0  0  0  0
  189.6640  175.5010  144.7860 C   0  0  0  0  0  0  0  0  0  0  0  0
  187.3020  176.8780  145.1100 C   0  0  0  0  0  0  0  0  0  0  0  0
  195.9630  172.6980  140.7480 N   0  0  0  0  0  2  0  0  0  0  0  0
  196.1520  172.4490  139.3540 C   0  0  0  0  0  0  0  0  0  0  0  0
  195.4760  173.0720  138.4920 O   0  0  0  0  0  0  0  0  0  0  0  0
  197.1530  171.4420  138.9160 C   0  0  0  0  0  1  0  0  0  0  0  0
  1 16  1  0  0  0  0
  2 24  1  6  0  0  0
  2 27  1  0  0  0  0
  3  4  1  0  0  0  0
  3 11  1  0  0  0  0
  4 21  1  0  0  0  0
  5  6  1  0  0  0  0
  5 25  1  0  0  0  0
  6 18  1  0  0  0  0
  7 19  1  6  0  0  0
  7 24  1  0  0  0  0
  9 26  1  6  0  0  0
  9 15  1  0  0  0  0
 12  8  1  6  0  0  0
 12  2  1  0  0  0  0
 13 11  1  6  0  0  0
 13 22  1  0  0  0  0
 13 12  1  0  0  0  0
 14 23  2  0  0  0  0
 14 27  1  0  0  0  0
 15 18  1  0  0  0  0
 16 19  1  0  0  0  0
 17 10  1  1  0  0  0
 17  8  1  0  0  0  0
 17  7  1  0  0  0  0
 20 29  1  1  0  0  0
 20  1  1  0  0  0  0
 20 10  1  0  0  0  0
 22 21  1  6  0  0  0
 22 14  1  0  0  0  0
 23 28  1  0  0  0  0
 27  5  2  0  0  0  0
 28  9  1  0  0  0  0
 28  6  2  0  0  0  0
 30 29  1  0  0  0  0
 31 30  2  0  0  0  0
 32 30  1  0  0  0  0
M  END
>  <MODEL>
6

>  <REMARK>
 VINA RESULT:      -7.1      2.579      4.249
  Name = 
  1 active torsions:
  status: ('A' for Active; 'I' for Inactive)
    1  A    between atoms: C_20  and  N_29
                            x       y       z     vdW  Elec       q    Type
                         _______ _______ _______ _____ _____    ______ ____

>  <TORSDO>
F 1

$$$$
=
 OpenBabel11112416313D

 32 37  0  0  1  0  0  0  0  0999 V2000
  187.6380  177.9320  143.2910 C   0  0  0  0  0  2  0  0  0  0  0  0
  191.1540  173.4590  143.4920 C   0  0  1  0  0  3  0  0  0  0  0  0
  192.6120  176.6210  146.8130 C   0  0  0  0  0  2  0  0  0  0  0  0
  194.0780  176.2250  146.6650 C   0  0  0  0  0  2  0  0  0  0  0  0
  192.8440  172.1950  142.0760 C   0  0  0  0  0  0  0  0  0  0  0  0
  194.1790  171.8930  141.8250 C   0  0  0  0  0  0  0  0  0  0  0  0
  189.3040  175.0110  142.8580 C   0  0  1  0  0  3  0  0  0  0  0  0
  189.6390  174.2250  145.1950 C   0  0  0  0  0  2  0  0  0  0  0  0
  196.4980  171.9140  142.1400 C   0  0  1  0  0  3  0  0  0  0  0  0
  187.7990  175.8530  144.7110 C   0  0  0  0  0  2  0  0  0  0  0  0
  191.7280  175.4000  146.5640 C   0  0  0  0  0  2  0  0  0  0  0  0
  191.0390  173.8350  144.9220 N   0  0  2  0  0  0  0  0  0  0  0  0
  191.9440  174.9000  145.1970 N   0  0  2  0  0  0  0  0  0  0  0  0
  193.6220  173.5590  143.9460 C   0  0  0  0  0  0  0  0  0  0  0  0
  196.1140  171.0230  140.9360 C   0  0  0  0  0  2  0  0  0  0  0  0
  189.2260  177.7820  142.4100 S   0  0  0  0  0  0  0  0  0  0  0  0
  189.2000  175.4060  144.3330 C   0  0  2  0  0  3  0  0  0  0  0  0
  194.6900  171.0840  140.8320 O   0  0  0  0  0  0  0  0  0  0  0  0
  188.8310  176.0850  141.8740 C   0  0  0  0  0  2  0  0  0  0  0  0
  187.7280  177.3760  144.7110 C   0  0  2  0  0  3  0  0  0  0  0  0
  194.3140  175.5280  145.3280 C   0  0  0  0  0  2  0  0  0  0  0  0
  193.3240  174.3720  145.1790 C   0  0  1  0  0  3  0  0  0  0  0  0
  194.9120  173.2060  143.6590 N   0  0  0  0  0  0  0  0  0  0  0  0
  190.7340  174.6010  142.5540 C   0  0  0  0  0  2  0  0  0  0  0  0
  191.7670  171.6230  141.2140 C   0  0  0  0  0  1  0  0  0  0  0  0
  197.3390  173.0790  141.6570 C   0  0  0  0  0  1  0  0  0  0  0  0
  192.5580  173.0430  143.1700 C   0  0  0  0  0  0  0  0  0  0  0  0
  195.1740  172.4010  142.5990 C   0  0  0  0  0  0  0  0  0  0  0  0
  186.5620  177.7950  145.4740 N   0  0  0  0  0  2  0  0  0  0  0  0
  186.6200  178.0840  146.8720 C   0  0  0  0  0  0  0  0  0  0  0  0
  187.6990  177.9630  147.5100 O   0  0  0  0  0  0  0  0  0  0  0  0
  185.3920  178.5300  147.5810 C   0  0  0  0  0  1  0  0  0  0  0  0
  1 20  1  0  0  0  0
  2 24  1  6  0  0  0
  2 12  1  0  0  0  0
  4  3  1  0  0  0  0
  5 27  1  0  0  0  0
  6  5  2  0  0  0  0
  6 28  1  0  0  0  0
  7 19  1  6  0  0  0
  7 17  1  0  0  0  0
  9 26  1  6  0  0  0
  9 28  1  0  0  0  0
 11  3  1  0  0  0  0
 12  8  1  6  0  0  0
 12 13  1  0  0  0  0
 13 11  1  1  0  0  0
 14 22  1  0  0  0  0
 15  9  1  0  0  0  0
 16  1  1  0  0  0  0
 17 10  1  1  0  0  0
 17  8  1  0  0  0  0
 18 15  1  0  0  0  0
 18  6  1  0  0  0  0
 19 16  1  0  0  0  0
 20 10  1  0  0  0  0
 20 29  1  1  0  0  0
 21  4  1  0  0  0  0
 22 13  1  0  0  0  0
 22 21  1  6  0  0  0
 23 14  1  0  0  0  0
 24  7  1  0  0  0  0
 25  5  1  0  0  0  0
 27  2  1  0  0  0  0
 27 14  2  0  0  0  0
 28 23  2  0  0  0  0
 29 30  1  0  0  0  0
 30 31  2  0  0  0  0
 30 32  1  0  0  0  0
M  END
>  <MODEL>
7

>  <REMARK>
 VINA RESULT:      -6.9      2.251      8.150
  Name = 
  1 active torsions:
  status: ('A' for Active; 'I' for Inactive)
    1  A    between atoms: C_20  and  N_29
                            x       y       z     vdW  Elec       q    Type
                         _______ _______ _______ _____ _____    ______ ____

>  <TORSDO>
F 1

$$$$
=
 OpenBabel11112416313D

 32 37  0  0  1  0  0  0  0  0999 V2000
  186.8820  178.2910  142.8830 C   0  0  0  0  0  2  0  0  0  0  0  0
  190.1730  173.6680  142.4250 C   0  0  1  0  0  3  0  0  0  0  0  0
  192.5310  176.8860  145.1140 C   0  0  0  0  0  2  0  0  0  0  0  0
  193.8980  176.4160  144.6250 C   0  0  0  0  0  2  0  0  0  0  0  0
  191.4070  172.2700  140.6980 C   0  0  0  0  0  0  0  0  0  0  0  0
  192.6240  171.8960  140.1360 C   0  0  0  0  0  0  0  0  0  0  0  0
  188.2800  175.2790  142.1950 C   0  0  1  0  0  3  0  0  0  0  0  0
  189.1630  174.5720  144.4110 C   0  0  0  0  0  2  0  0  0  0  0  0
  194.9470  171.8200  139.8620 C   0  0  1  0  0  3  0  0  0  0  0  0
  187.3200  176.2640  144.3200 C   0  0  0  0  0  2  0  0  0  0  0  0
  191.5700  175.7000  145.1550 C   0  0  0  0  0  2  0  0  0  0  0  0
  190.4350  174.1050  143.8170 N   0  0  2  0  0  0  0  0  0  0  0  0
  191.4170  175.1370  143.8040 N   0  0  2  0  0  0  0  0  0  0  0  0
  192.6780  173.6690  142.2430 C   0  0  0  0  0  0  0  0  0  0  0  0
  194.2410  170.9000  138.8380 C   0  0  0  0  0  2  0  0  0  0  0  0
  188.1910  178.0310  141.6420 S   0  0  0  0  0  0  0  0  0  0  0  0
  188.5650  175.7360  143.6270 C   0  0  2  0  0  3  0  0  0  0  0  0
  192.8400  171.0250  139.0900 O   0  0  0  0  0  0  0  0  0  0  0  0
  187.6140  176.3340  141.3070 C   0  0  0  0  0  2  0  0  0  0  0  0
  187.3060  177.7870  144.2620 C   0  0  2  0  0  3  0  0  0  0  0  0
  193.7650  175.6570  143.3090 C   0  0  0  0  0  2  0  0  0  0  0  0
  192.7290  174.5430  143.4690 C   0  0  1  0  0  3  0  0  0  0  0  0
  193.8410  173.2450  141.6620 N   0  0  0  0  0  0  0  0  0  0  0  0
  189.5720  174.7900  141.5650 C   0  0  0  0  0  2  0  0  0  0  0  0
  190.1280  171.7160  140.1610 C   0  0  0  0  0  1  0  0  0  0  0  0
  195.6810  172.9240  139.1260 C   0  0  0  0  0  1  0  0  0  0  0  0
  191.4350  173.1730  141.7840 C   0  0  0  0  0  0  0  0  0  0  0  0
  193.7990  172.3870  140.6120 C   0  0  0  0  0  0  0  0  0  0  0  0
  186.3850  178.2910  145.2690 N   0  0  0  0  0  2  0  0  0  0  0  0
  186.6720  178.2430  146.6680 C   0  0  0  0  0  0  0  0  0  0  0  0
  187.7450  177.7330  147.0870 O   0  0  0  0  0  0  0  0  0  0  0  0
  185.6930  178.7980  147.6380 C   0  0  0  0  0  1  0  0  0  0  0  0
  1 20  1  0  0  0  0
  2 24  1  6  0  0  0
  2 12  1  0  0  0  0
  3 11  1  0  0  0  0
  4  3  1  0  0  0  0
  5 27  1  0  0  0  0
  6 28  1  0  0  0  0
  6  5  2  0  0  0  0
  7 19  1  6  0  0  0
  7 17  1  0  0  0  0
  9 26  1  6  0  0  0
  9 28  1  0  0  0  0
 12  8  1  6  0  0  0
 13 12  1  0  0  0  0
 13 11  1  1  0  0  0
 14 22  1  0  0  0  0
 15 18  1  0  0  0  0
 15  9  1  0  0  0  0
 16  1  1  0  0  0  0
 17 10  1  1  0  0  0
 17  8  1  0  0  0  0
 18  6  1  0  0  0  0
 19 16  1  0  0  0  0
 20 10  1  0  0  0  0
 20 29  1  1  0  0  0
 21  4  1  0  0  0  0
 22 21  1  6  0  0  0
 22 13  1  0  0  0  0
 23 14  1  0  0  0  0
 24  7  1  0  0  0  0
 25  5  1  0  0  0  0
 27 14  2  0  0  0  0
 27  2  1  0  0  0  0
 28 23  2  0  0  0  0
 29 30  1  0  0  0  0
 30 31  2  0  0  0  0
 30 32  1  0  0  0  0
M  END
>  <MODEL>
8

>  <REMARK>
 VINA RESULT:      -6.7      2.578      8.013
  Name = 
  1 active torsions:
  status: ('A' for Active; 'I' for Inactive)
    1  A    between atoms: C_20  and  N_29
                            x       y       z     vdW  Elec       q    Type
                         _______ _______ _______ _____ _____    ______ ____

>  <TORSDO>
F 1

$$$$
=
 OpenBabel11112416313D

 32 37  0  0  1  0  0  0  0  0999 V2000
  191.8170  171.7880  144.0060 C   0  0  0  0  0  2  0  0  0  0  0  0
  189.1010  176.3110  141.8670 C   0  0  1  0  0  3  0  0  0  0  0  0
  189.9770  177.1900  146.5160 C   0  0  0  0  0  2  0  0  0  0  0  0
  188.7170  178.0350  146.6790 C   0  0  0  0  0  2  0  0  0  0  0  0
  186.8870  176.9860  140.8160 C   0  0  0  0  0  0  0  0  0  0  0  0
  185.6690  177.6450  140.9550 C   0  0  0  0  0  0  0  0  0  0  0  0
  190.2030  174.0840  142.1020 C   0  0  1  0  0  3  0  0  0  0  0  0
  191.3440  176.2050  142.7270 C   0  0  0  0  0  2  0  0  0  0  0  0
  184.0150  178.9370  141.9900 C   0  0  1  0  0  3  0  0  0  0  0  0
  192.5300  174.0310  143.0980 C   0  0  0  0  0  2  0  0  0  0  0  0
  190.5190  177.3540  145.0980 C   0  0  0  0  0  2  0  0  0  0  0  0
  190.0600  176.9360  142.8090 N   0  0  2  0  0  0  0  0  0  0  0  0
  189.5160  176.8920  144.1250 N   0  0  2  0  0  0  0  0  0  0  0  0
  187.4110  177.7130  143.0880 C   0  0  0  0  0  0  0  0  0  0  0  0
  183.5840  178.5320  140.5610 C   0  0  0  0  0  2  0  0  0  0  0  0
  190.0180  172.0760  144.0580 S   0  0  0  0  0  0  0  0  0  0  0  0
  191.1810  174.7300  143.0860 C   0  0  2  0  0  3  0  0  0  0  0  0
  184.6550  177.7500  140.0280 O   0  0  0  0  0  0  0  0  0  0  0  0
  189.9930  172.5800  142.3060 C   0  0  0  0  0  2  0  0  0  0  0  0
  192.6000  173.0710  144.2800 C   0  0  2  0  0  3  0  0  0  0  0  0
  187.7140  177.7220  145.5730 C   0  0  0  0  0  2  0  0  0  0  0  0
  188.4020  177.8600  144.2130 C   0  0  1  0  0  3  0  0  0  0  0  0
  186.2080  178.3590  143.1520 N   0  0  0  0  0  0  0  0  0  0  0  0
  188.8770  174.8210  142.1660 C   0  0  0  0  0  2  0  0  0  0  0  0
  187.2180  176.2740  139.5460 C   0  0  0  0  0  1  0  0  0  0  0  0
  183.0630  178.3210  142.9970 C   0  0  0  0  0  1  0  0  0  0  0  0
  187.7850  177.0280  141.9070 C   0  0  0  0  0  0  0  0  0  0  0  0
  185.3510  178.3010  142.1020 C   0  0  0  0  0  0  0  0  0  0  0  0
  193.9930  172.7450  144.5430 N   0  0  0  0  0  2  0  0  0  0  0  0
  194.8160  173.5260  145.4120 C   0  0  0  0  0  0  0  0  0  0  0  0
  194.3600  174.5570  145.9750 O   0  0  0  0  0  0  0  0  0  0  0  0
  196.2240  173.1190  145.6510 C   0  0  0  0  0  1  0  0  0  0  0  0
  1 16  1  0  0  0  0
  1 20  1  0  0  0  0
  2 27  1  0  0  0  0
  2 24  1  1  0  0  0
  2 12  1  0  0  0  0
  3  4  1  0  0  0  0
  5  6  2  0  0  0  0
  5 27  1  0  0  0  0
  6 28  1  0  0  0  0
  7 24  1  1  0  0  0
  7 19  1  0  0  0  0
  7 17  1  0  0  0  0
  9 28  1  0  0  0  0
  9 26  1  1  0  0  0
 10 20  1  0  0  0  0
 11  3  1  0  0  0  0
 12  8  1  1  0  0  0
 12 13  1  0  0  0  0
 13 22  1  0  0  0  0
 13 11  1  1  0  0  0
 14 23  1  0  0  0  0
 14 22  1  0  0  0  0
 15  9  1  0  0  0  0
 17  8  1  6  0  0  0
 17 10  1  0  0  0  0
 18 15  1  0  0  0  0
 18  6  1  0  0  0  0
 19 16  1  0  0  0  0
 20 29  1  6  0  0  0
 21  4  1  0  0  0  0
 22 21  1  1  0  0  0
 25  5  1  0  0  0  0
 27 14  2  0  0  0  0
 28 23  2  0  0  0  0
 29 30  1  0  0  0  0
 30 32  1  0  0  0  0
 30 31  2  0  0  0  0
M  END
>  <MODEL>
9

>  <REMARK>
 VINA RESULT:      -6.6      1.854      2.320
  Name = 
  1 active torsions:
  status: ('A' for Active; 'I' for Inactive)
    1  A    between atoms: C_20  and  N_29
                            x       y       z     vdW  Elec       q    Type
                         _______ _______ _______ _____ _____    ______ ____

>  <TORSDO>
F 1

$$$$
