=
 OpenBabel11112416213D

 30 35  0  0  1  0  0  0  0  0999 V2000
  186.2630  177.3120  143.5750 C   0  0  0  0  0  0  0  0  0  0  0  0
  184.6050  178.4070  145.0750 C   0  0  0  0  0  0  0  0  0  0  0  0
  188.4670  175.9690  146.7800 N   0  0  0  0  0  2  0  0  0  0  0  0
  187.4250  176.5130  143.4120 C   0  0  0  0  0  0  0  0  0  0  0  0
  185.5760  177.7530  142.4380 O   0  0  0  0  0  0  0  0  0  0  0  0
  187.4500  176.2900  139.7790 O   0  0  0  0  0  0  0  0  0  0  0  0
  190.0560  175.2250  142.2810 C   0  0  1  0  0  3  0  0  0  0  0  0
  187.1350  176.6550  140.9450 C   0  0  0  0  0  0  0  0  0  0  0  0
  190.3590  175.0920  143.7660 C   0  0  2  0  0  3  0  0  0  0  0  0
  189.4520  175.3810  146.0690 C   0  0  0  0  0  0  0  0  0  0  0  0
  186.1670  177.7880  141.1400 C   0  0  1  0  0  3  0  0  0  0  0  0
  187.7610  176.0510  142.0880 N   0  0  0  0  0  0  0  0  0  0  0  0
  184.1700  178.6970  146.3720 C   0  0  0  0  0  3  0  0  0  0  0  0
  190.8690  173.6770  143.9500 C   0  0  0  0  0  2  0  0  0  0  0  0
  191.0100  174.2640  141.5890 C   0  0  0  0  0  2  0  0  0  0  0  0
  183.8570  178.8910  144.0080 O   0  0  0  0  0  1  0  0  0  0  0  0
  187.6480  176.4340  145.8210 C   0  0  0  0  0  0  0  0  0  0  0  0
  184.8790  178.2380  147.4800 C   0  0  0  0  0  3  0  0  0  0  0  0
  185.7770  177.6380  144.8740 C   0  0  0  0  0  0  0  0  0  0  0  0
  188.1260  176.1210  144.5720 C   0  0  0  0  0  0  0  0  0  0  0  0
  190.4580  174.8630  146.6230 O   0  0  0  0  0  0  0  0  0  0  0  0
  189.2880  175.4340  144.7200 N   0  0  0  0  0  0  0  0  0  0  0  0
  191.5900  173.3530  142.6600 C   0  0  0  0  0  2  0  0  0  0  0  0
  188.0380  173.6220  142.4540 C   0  0  0  0  0  1  0  0  0  0  0  0
  186.0360  177.4810  147.3040 C   0  0  0  0  0  3  0  0  0  0  0  0
  186.4870  177.1770  146.0150 C   0  0  0  0  0  0  0  0  0  0  0  0
  188.6270  174.9020  141.8670 C   0  0  2  0  0  3  0  0  0  0  0  0
  185.0780  177.8340  140.0690 C   0  0  0  0  0  2  0  0  0  0  0  0
  182.6260  177.8500  140.4230 C   0  0  0  0  0  1  0  0  0  0  0  0
  183.8910  178.6770  140.5080 C   0  0  0  0  0  2  0  0  0  0  0  0
  1 19  1  0  0  0  0
  2 13  1  0  0  0  0
  4  1  2  0  0  0  0
  4 20  1  0  0  0  0
  5  1  1  0  0  0  0
  6  8  2  0  0  0  0
  7 15  1  6  0  0  0
  7  9  1  0  0  0  0
  8 11  1  0  0  0  0
  8 12  1  0  0  0  0
  9 14  1  6  0  0  0
  9 22  1  0  0  0  0
 10 21  2  0  0  0  0
 10  3  1  0  0  0  0
 11 28  1  6  0  0  0
 11  5  1  0  0  0  0
 12  4  1  0  0  0  0
 13 18  2  0  0  0  0
 15 23  1  0  0  0  0
 16  2  1  0  0  0  0
 17 26  1  0  0  0  0
 17  3  1  0  0  0  0
 19  2  2  0  0  0  0
 19 26  1  0  0  0  0
 20 22  1  0  0  0  0
 20 17  2  0  0  0  0
 22 10  1  0  0  0  0
 23 14  1  0  0  0  0
 25 18  1  0  0  0  0
 26 25  2  0  0  0  0
 27 12  1  0  0  0  0
 27  7  1  0  0  0  0
 27 24  1  1  0  0  0
 28 30  1  0  0  0  0
 29 30  1  0  0  0  0
M  END
>  <MODEL>
1

>  <REMARK>
 VINA RESULT:      -8.8      0.000      0.000
  Name = 
  2 active torsions:
  status: ('A' for Active; 'I' for Inactive)
    1  A    between atoms: C_11  and  C_28
    2  A    between atoms: C_28  and  C_30
                            x       y       z     vdW  Elec       q    Type
                         _______ _______ _______ _____ _____    ______ ____

>  <TORSDO>
F 2

$$$$
=
 OpenBabel11112416213D

 30 35  0  0  1  0  0  0  0  0999 V2000
  189.9540  175.8260  144.2020 C   0  0  0  0  0  0  0  0  0  0  0  0
  190.9080  174.4730  142.3420 C   0  0  0  0  0  0  0  0  0  0  0  0
  186.3620  176.2300  142.2370 N   0  0  0  0  0  2  0  0  0  0  0  0
  188.8530  176.5140  144.7740 C   0  0  0  0  0  0  0  0  0  0  0  0
  191.1540  175.7490  144.9190 O   0  0  0  0  0  0  0  0  0  0  0  0
  190.3610  177.4470  147.9530 O   0  0  0  0  0  0  0  0  0  0  0  0
  187.0850  178.5120  146.4300 C   0  0  1  0  0  3  0  0  0  0  0  0
  190.2470  177.0140  146.7730 C   0  0  0  0  0  0  0  0  0  0  0  0
  186.1440  178.2990  145.2530 C   0  0  2  0  0  3  0  0  0  0  0  0
  185.7570  177.0120  143.1560 C   0  0  0  0  0  0  0  0  0  0  0  0
  191.4730  176.6300  145.9940 C   0  0  1  0  0  3  0  0  0  0  0  0
  188.9590  176.9660  146.1390 N   0  0  0  0  0  0  0  0  0  0  0  0
  190.7420  173.8680  141.0920 C   0  0  0  0  0  3  0  0  0  0  0  0
  184.7780  178.0630  145.8640 C   0  0  0  0  0  2  0  0  0  0  0  0
  186.2190  179.0970  147.5350 C   0  0  0  0  0  2  0  0  0  0  0  0
  192.1380  174.3430  142.9770 O   0  0  0  0  0  1  0  0  0  0  0  0
  187.5650  176.0010  142.7900 C   0  0  0  0  0  0  0  0  0  0  0  0
  189.5310  173.9650  140.4090 C   0  0  0  0  0  3  0  0  0  0  0  0
  189.8400  175.1930  142.9300 C   0  0  0  0  0  0  0  0  0  0  0  0
  187.6700  176.6190  144.0110 C   0  0  0  0  0  0  0  0  0  0  0  0
  184.6060  177.4900  142.9720 O   0  0  0  0  0  0  0  0  0  0  0  0
  186.5050  177.2690  144.2620 N   0  0  0  0  0  0  0  0  0  0  0  0
  184.7670  178.8960  147.1270 C   0  0  0  0  0  2  0  0  0  0  0  0
  186.9010  176.0360  147.1430 C   0  0  0  0  0  1  0  0  0  0  0  0
  188.4680  174.6700  140.9700 C   0  0  0  0  0  3  0  0  0  0  0  0
  188.6130  175.2810  142.2210 C   0  0  0  0  0  0  0  0  0  0  0  0
  187.7870  177.2640  146.9480 C   0  0  2  0  0  3  0  0  0  0  0  0
  192.5670  176.0170  146.8670 C   0  0  0  0  0  2  0  0  0  0  0  0
  194.8820  175.5400  146.1240 C   0  0  0  0  0  1  0  0  0  0  0  0
  193.9300  176.6270  146.5740 C   0  0  0  0  0  2  0  0  0  0  0  0
  1  4  1  0  0  0  0
  1  5  1  0  0  0  0
  2 19  1  0  0  0  0
  2 16  1  0  0  0  0
  3 17  1  0  0  0  0
  3 10  1  0  0  0  0
  4 12  1  0  0  0  0
  5 11  1  0  0  0  0
  7 27  1  0  0  0  0
  7 15  1  1  0  0  0
  8  6  2  0  0  0  0
  9 14  1  1  0  0  0
  9  7  1  0  0  0  0
 10 22  1  0  0  0  0
 11  8  1  0  0  0  0
 11 28  1  1  0  0  0
 12  8  1  0  0  0  0
 12 27  1  0  0  0  0
 13  2  2  0  0  0  0
 14 23  1  0  0  0  0
 17 20  1  0  0  0  0
 18 25  2  0  0  0  0
 18 13  1  0  0  0  0
 19  1  2  0  0  0  0
 20 22  1  0  0  0  0
 20  4  2  0  0  0  0
 21 10  2  0  0  0  0
 22  9  1  0  0  0  0
 23 15  1  0  0  0  0
 25 26  1  0  0  0  0
 26 17  2  0  0  0  0
 26 19  1  0  0  0  0
 27 24  1  6  0  0  0
 29 30  1  0  0  0  0
 30 28  1  0  0  0  0
M  END
>  <MODEL>
2

>  <REMARK>
 VINA RESULT:      -8.3      2.074      7.353
  Name = 
  2 active torsions:
  status: ('A' for Active; 'I' for Inactive)
    1  A    between atoms: C_11  and  C_28
    2  A    between atoms: C_28  and  C_30
                            x       y       z     vdW  Elec       q    Type
                         _______ _______ _______ _____ _____    ______ ____

>  <TORSDO>
F 2

$$$$
=
 OpenBabel11112416213D

 30 35  0  0  1  0  0  0  0  0999 V2000
  189.8090  175.5760  143.7580 C   0  0  0  0  0  0  0  0  0  0  0  0
  191.2010  173.8840  142.5770 C   0  0  0  0  0  0  0  0  0  0  0  0
  187.3700  176.0490  140.4780 N   0  0  0  0  0  2  0  0  0  0  0  0
  188.6860  176.4450  143.7700 C   0  0  0  0  0  0  0  0  0  0  0  0
  190.6080  175.4840  144.9040 O   0  0  0  0  0  0  0  0  0  0  0  0
  188.9540  177.6680  147.1880 O   0  0  0  0  0  0  0  0  0  0  0  0
  186.7280  178.8230  144.3780 C   0  0  1  0  0  3  0  0  0  0  0  0
  189.2470  177.0850  146.1080 C   0  0  0  0  0  0  0  0  0  0  0  0
  186.3020  178.5390  142.9450 C   0  0  2  0  0  3  0  0  0  0  0  0
  186.5780  177.0100  140.9970 C   0  0  0  0  0  0  0  0  0  0  0  0
  190.6080  176.4730  145.9310 C   0  0  1  0  0  3  0  0  0  0  0  0
  188.3160  177.0740  145.0130 N   0  0  0  0  0  0  0  0  0  0  0  0
  191.4480  173.1260  141.4270 C   0  0  0  0  0  3  0  0  0  0  0  0
  184.7870  178.5290  142.9680 C   0  0  0  0  0  2  0  0  0  0  0  0
  185.5970  179.6430  144.9780 C   0  0  0  0  0  2  0  0  0  0  0  0
  192.0510  173.7250  143.6650 O   0  0  0  0  0  1  0  0  0  0  0  0
  188.2140  175.7830  141.4900 C   0  0  0  0  0  0  0  0  0  0  0  0
  190.6290  173.2440  140.3070 C   0  0  0  0  0  3  0  0  0  0  0  0
  190.1070  174.7830  142.6130 C   0  0  0  0  0  0  0  0  0  0  0  0
  187.9240  176.5560  142.5870 C   0  0  0  0  0  0  0  0  0  0  0  0
  185.6740  177.5700  140.3200 O   0  0  0  0  0  0  0  0  0  0  0  0
  186.8640  177.3480  142.2830 N   0  0  0  0  0  0  0  0  0  0  0  0
  184.4070  179.5310  144.0370 C   0  0  0  0  0  2  0  0  0  0  0  0
  185.9160  176.5050  145.1770 C   0  0  0  0  0  1  0  0  0  0  0  0
  189.5480  174.1250  140.3220 C   0  0  0  0  0  3  0  0  0  0  0  0
  189.2810  174.8900  141.4620 C   0  0  0  0  0  0  0  0  0  0  0  0
  186.9790  177.5990  145.2470 C   0  0  2  0  0  3  0  0  0  0  0  0
  191.1710  175.8860  147.2250 C   0  0  0  0  0  2  0  0  0  0  0  0
  193.5580  176.1910  146.6340 C   0  0  0  0  0  1  0  0  0  0  0  0
  192.4950  175.1750  146.9920 C   0  0  0  0  0  2  0  0  0  0  0  0
  1  4  1  0  0  0  0
  1  5  1  0  0  0  0
  2 19  1  0  0  0  0
  2 16  1  0  0  0  0
  3 10  1  0  0  0  0
  3 17  1  0  0  0  0
  4 12  1  0  0  0  0
  5 11  1  0  0  0  0
  7 15  1  1  0  0  0
  7 27  1  0  0  0  0
  8  6  2  0  0  0  0
  9 14  1  1  0  0  0
  9  7  1  0  0  0  0
 10 22  1  0  0  0  0
 11  8  1  0  0  0  0
 11 28  1  1  0  0  0
 12 27  1  0  0  0  0
 12  8  1  0  0  0  0
 13  2  2  0  0  0  0
 14 23  1  0  0  0  0
 17 20  1  0  0  0  0
 18 25  2  0  0  0  0
 18 13  1  0  0  0  0
 19  1  2  0  0  0  0
 20  4  2  0  0  0  0
 21 10  2  0  0  0  0
 22 20  1  0  0  0  0
 22  9  1  0  0  0  0
 23 15  1  0  0  0  0
 25 26  1  0  0  0  0
 26 17  2  0  0  0  0
 26 19  1  0  0  0  0
 27 24  1  6  0  0  0
 29 30  1  0  0  0  0
 30 28  1  0  0  0  0
M  END
>  <MODEL>
3

>  <REMARK>
 VINA RESULT:      -8.1      1.891      7.323
  Name = 
  2 active torsions:
  status: ('A' for Active; 'I' for Inactive)
    1  A    between atoms: C_11  and  C_28
    2  A    between atoms: C_28  and  C_30
                            x       y       z     vdW  Elec       q    Type
                         _______ _______ _______ _____ _____    ______ ____

>  <TORSDO>
F 2

$$$$
=
 OpenBabel11112416213D

 30 35  0  0  1  0  0  0  0  0999 V2000
  189.6470  175.3280  144.0010 C   0  0  0  0  0  0  0  0  0  0  0  0
  191.6260  174.6570  145.3550 C   0  0  0  0  0  0  0  0  0  0  0  0
  188.0270  177.4050  147.1620 N   0  0  0  0  0  2  0  0  0  0  0  0
  188.4300  176.0500  143.8870 C   0  0  0  0  0  0  0  0  0  0  0  0
  190.1260  174.6250  142.8890 O   0  0  0  0  0  0  0  0  0  0  0  0
  187.6910  175.3610  140.3900 O   0  0  0  0  0  0  0  0  0  0  0  0
  185.5580  176.9900  143.0330 C   0  0  1  0  0  3  0  0  0  0  0  0
  188.2460  175.3010  141.5220 C   0  0  0  0  0  0  0  0  0  0  0  0
  185.5400  177.4850  144.4710 C   0  0  2  0  0  3  0  0  0  0  0  0
  186.8900  177.7870  146.5440 C   0  0  0  0  0  0  0  0  0  0  0  0
  189.3000  174.2620  141.7860 C   0  0  1  0  0  3  0  0  0  0  0  0
  187.8180  176.1650  142.5870 N   0  0  0  0  0  0  0  0  0  0  0  0
  192.3190  174.7030  146.5690 C   0  0  0  0  0  3  0  0  0  0  0  0
  184.9920  178.8960  144.4070 C   0  0  0  0  0  2  0  0  0  0  0  0
  184.4330  177.7390  142.3370 C   0  0  0  0  0  2  0  0  0  0  0  0
  192.1810  173.9300  144.3080 O   0  0  0  0  0  1  0  0  0  0  0  0
  188.6720  176.7240  146.1990 C   0  0  0  0  0  0  0  0  0  0  0  0
  191.8110  175.4160  147.6530 C   0  0  0  0  0  3  0  0  0  0  0  0
  190.3930  175.3410  145.2150 C   0  0  0  0  0  0  0  0  0  0  0  0
  187.9440  176.7110  145.0350 C   0  0  0  0  0  0  0  0  0  0  0  0
  185.9800  178.4170  147.1480 O   0  0  0  0  0  0  0  0  0  0  0  0
  186.7940  177.4020  145.2440 N   0  0  0  0  0  0  0  0  0  0  0  0
  184.0170  178.8820  143.2500 C   0  0  0  0  0  2  0  0  0  0  0  0
  187.4720  178.6050  142.4030 C   0  0  0  0  0  1  0  0  0  0  0  0
  190.5990  176.0940  147.5350 C   0  0  0  0  0  3  0  0  0  0  0  0
  189.8910  176.0630  146.3290 C   0  0  0  0  0  0  0  0  0  0  0  0
  186.8590  177.2130  142.2740 C   0  0  2  0  0  3  0  0  0  0  0  0
  190.1620  173.9620  140.5600 C   0  0  0  0  0  2  0  0  0  0  0  0
  188.9320  172.3430  139.1440 C   0  0  0  0  0  1  0  0  0  0  0  0
  190.0590  172.5030  140.1420 C   0  0  0  0  0  2  0  0  0  0  0  0
  1 19  1  0  0  0  0
  2 13  1  0  0  0  0
  4  1  2  0  0  0  0
  4 20  1  0  0  0  0
  5  1  1  0  0  0  0
  6  8  2  0  0  0  0
  7 15  1  6  0  0  0
  7  9  1  0  0  0  0
  8 11  1  0  0  0  0
  8 12  1  0  0  0  0
  9 14  1  6  0  0  0
  9 22  1  0  0  0  0
 10 21  2  0  0  0  0
 10  3  1  0  0  0  0
 11 28  1  6  0  0  0
 11  5  1  0  0  0  0
 12  4  1  0  0  0  0
 13 18  2  0  0  0  0
 15 23  1  0  0  0  0
 16  2  1  0  0  0  0
 17 26  1  0  0  0  0
 17  3  1  0  0  0  0
 19  2  2  0  0  0  0
 19 26  1  0  0  0  0
 20 22  1  0  0  0  0
 20 17  2  0  0  0  0
 22 10  1  0  0  0  0
 23 14  1  0  0  0  0
 25 18  1  0  0  0  0
 26 25  2  0  0  0  0
 27 24  1  1  0  0  0
 27 12  1  0  0  0  0
 27  7  1  0  0  0  0
 29 30  1  0  0  0  0
 30 28  1  0  0  0  0
M  END
>  <MODEL>
4

>  <REMARK>
 VINA RESULT:      -8.1      1.990      5.704
  Name = 
  2 active torsions:
  status: ('A' for Active; 'I' for Inactive)
    1  A    between atoms: C_11  and  C_28
    2  A    between atoms: C_28  and  C_30
                            x       y       z     vdW  Elec       q    Type
                         _______ _______ _______ _____ _____    ______ ____

>  <TORSDO>
F 2

$$$$
=
 OpenBabel11112416213D

 30 35  0  0  1  0  0  0  0  0999 V2000
  191.5010  175.2380  143.8410 C   0  0  0  0  0  0  0  0  0  0  0  0
  192.4430  174.0520  141.8650 C   0  0  0  0  0  0  0  0  0  0  0  0
  187.7350  175.2730  142.1850 N   0  0  0  0  0  2  0  0  0  0  0  0
  190.3810  175.7790  144.5240 C   0  0  0  0  0  0  0  0  0  0  0  0
  192.7580  175.2820  144.4570 O   0  0  0  0  0  0  0  0  0  0  0  0
  192.0340  176.7980  147.6030 O   0  0  0  0  0  0  0  0  0  0  0  0
  188.5420  177.5150  146.3860 C   0  0  1  0  0  3  0  0  0  0  0  0
  191.8710  176.3860  146.4210 C   0  0  0  0  0  0  0  0  0  0  0  0
  187.5370  177.2260  145.2810 C   0  0  2  0  0  3  0  0  0  0  0  0
  187.1240  175.9560  143.1770 C   0  0  0  0  0  0  0  0  0  0  0  0
  193.0640  176.1650  145.5340 C   0  0  1  0  0  3  0  0  0  0  0  0
  190.5480  176.2050  145.8910 N   0  0  0  0  0  0  0  0  0  0  0  0
  192.2430  173.4650  140.6120 C   0  0  0  0  0  3  0  0  0  0  0  0
  186.2620  176.8170  145.9900 C   0  0  0  0  0  2  0  0  0  0  0  0
  187.7110  177.9680  147.5750 C   0  0  0  0  0  2  0  0  0  0  0  0
  193.7290  174.0490  142.3950 O   0  0  0  0  0  1  0  0  0  0  0  0
  188.9980  175.1710  142.6330 C   0  0  0  0  0  0  0  0  0  0  0  0
  190.9760  173.4380  140.0320 C   0  0  0  0  0  3  0  0  0  0  0  0
  191.3530  174.6280  142.5620 C   0  0  0  0  0  0  0  0  0  0  0  0
  189.1340  175.7650  143.8620 C   0  0  0  0  0  0  0  0  0  0  0  0
  185.9150  176.3030  143.1030 O   0  0  0  0  0  0  0  0  0  0  0  0
  187.9280  176.2700  144.2280 N   0  0  0  0  0  0  0  0  0  0  0  0
  186.2620  177.6110  147.2780 C   0  0  0  0  0  2  0  0  0  0  0  0
  188.7000  175.0170  147.0240 C   0  0  0  0  0  1  0  0  0  0  0  0
  189.8910  174.0010  140.7010 C   0  0  0  0  0  3  0  0  0  0  0  0
  190.0690  174.5920  141.9570 C   0  0  0  0  0  0  0  0  0  0  0  0
  189.4220  176.3440  146.8020 C   0  0  2  0  0  3  0  0  0  0  0  0
  194.2890  175.6610  146.2940 C   0  0  0  0  0  2  0  0  0  0  0  0
  196.2340  174.1830  145.8840 C   0  0  0  0  0  1  0  0  0  0  0  0
  195.4520  175.3670  145.3590 C   0  0  0  0  0  2  0  0  0  0  0  0
  1  5  1  0  0  0  0
  1  4  1  0  0  0  0
  2 16  1  0  0  0  0
  2 19  1  0  0  0  0
  3 17  1  0  0  0  0
  3 10  1  0  0  0  0
  4 12  1  0  0  0  0
  5 11  1  0  0  0  0
  7 27  1  0  0  0  0
  7 15  1  1  0  0  0
  8  6  2  0  0  0  0
  9 14  1  1  0  0  0
  9  7  1  0  0  0  0
 10 22  1  0  0  0  0
 11 28  1  1  0  0  0
 11  8  1  0  0  0  0
 12  8  1  0  0  0  0
 12 27  1  0  0  0  0
 13  2  2  0  0  0  0
 14 23  1  0  0  0  0
 17 20  1  0  0  0  0
 18 13  1  0  0  0  0
 18 25  2  0  0  0  0
 19  1  2  0  0  0  0
 20 22  1  0  0  0  0
 20  4  2  0  0  0  0
 21 10  2  0  0  0  0
 22  9  1  0  0  0  0
 23 15  1  0  0  0  0
 25 26  1  0  0  0  0
 26 19  1  0  0  0  0
 26 17  2  0  0  0  0
 27 24  1  6  0  0  0
 30 29  1  0  0  0  0
 30 28  1  0  0  0  0
M  END
>  <MODEL>
5

>  <REMARK>
 VINA RESULT:      -7.9      2.458      7.758
  Name = 
  2 active torsions:
  status: ('A' for Active; 'I' for Inactive)
    1  A    between atoms: C_11  and  C_28
    2  A    between atoms: C_28  and  C_30
                            x       y       z     vdW  Elec       q    Type
                         _______ _______ _______ _____ _____    ______ ____

>  <TORSDO>
F 2

$$$$
=
 OpenBabel11112416213D

 30 35  0  0  1  0  0  0  0  0999 V2000
  188.0550  176.3650  144.6330 C   0  0  0  0  0  0  0  0  0  0  0  0
  186.7680  178.3280  145.4630 C   0  0  0  0  0  0  0  0  0  0  0  0
  186.8260  177.0320  140.7640 N   0  0  0  0  0  2  0  0  0  0  0  0
  188.4960  175.5590  143.5510 C   0  0  0  0  0  0  0  0  0  0  0  0
  188.4970  176.0640  145.9270 O   0  0  0  0  0  0  0  0  0  0  0  0
  190.6600  173.2810  145.3880 O   0  0  0  0  0  0  0  0  0  0  0  0
  189.4940  173.1450  141.8090 C   0  0  1  0  0  3  0  0  0  0  0  0
  189.8070  174.1810  145.1540 C   0  0  0  0  0  0  0  0  0  0  0  0
  188.7110  173.8890  140.7370 C   0  0  2  0  0  3  0  0  0  0  0  0
  187.4410  175.9670  140.2080 C   0  0  0  0  0  0  0  0  0  0  0  0
  189.0340  174.7940  146.2880 C   0  0  1  0  0  3  0  0  0  0  0  0
  189.5080  174.5640  143.8020 N   0  0  0  0  0  0  0  0  0  0  0  0
  185.9320  179.4160  145.1900 C   0  0  0  0  0  3  0  0  0  0  0  0
  189.6140  173.9170  139.5210 C   0  0  0  0  0  2  0  0  0  0  0  0
  190.4050  172.1930  141.0510 C   0  0  0  0  0  2  0  0  0  0  0  0
  187.1520  178.1080  146.7810 O   0  0  0  0  0  1  0  0  0  0  0  0
  187.1830  176.9380  142.0560 C   0  0  0  0  0  0  0  0  0  0  0  0
  185.5150  179.6840  143.8880 C   0  0  0  0  0  3  0  0  0  0  0  0
  187.2030  177.4850  144.4110 C   0  0  0  0  0  0  0  0  0  0  0  0
  187.9990  175.8540  142.2630 C   0  0  0  0  0  0  0  0  0  0  0  0
  187.3030  175.6750  138.9900 O   0  0  0  0  0  0  0  0  0  0  0  0
  188.1800  175.2230  141.0740 N   0  0  0  0  0  0  0  0  0  0  0  0
  190.4030  172.6270  139.5930 C   0  0  0  0  0  2  0  0  0  0  0  0
  191.1790  175.0870  142.0570 C   0  0  0  0  0  1  0  0  0  0  0  0
  185.9310  178.8660  142.8390 C   0  0  0  0  0  3  0  0  0  0  0  0
  186.7690  177.7740  143.0900 C   0  0  0  0  0  0  0  0  0  0  0  0
  190.3330  174.0140  142.7370 C   0  0  2  0  0  3  0  0  0  0  0  0
  189.8540  174.9160  147.5710 C   0  0  0  0  0  2  0  0  0  0  0  0
  192.0720  175.9770  147.2630 C   0  0  0  0  0  1  0  0  0  0  0  0
  190.6240  176.2260  147.6260 C   0  0  0  0  0  2  0  0  0  0  0  0
  1  5  1  0  0  0  0
  2 16  1  0  0  0  0
  3 17  1  0  0  0  0
  4 12  1  0  0  0  0
  4  1  2  0  0  0  0
  5 11  1  0  0  0  0
  7 15  1  6  0  0  0
  7 27  1  0  0  0  0
  8  6  2  0  0  0  0
  8 11  1  0  0  0  0
  9 14  1  6  0  0  0
  9 22  1  0  0  0  0
  9  7  1  0  0  0  0
 10  3  1  0  0  0  0
 10 22  1  0  0  0  0
 11 28  1  1  0  0  0
 12  8  1  0  0  0  0
 13  2  1  0  0  0  0
 14 23  1  0  0  0  0
 17 20  2  0  0  0  0
 17 26  1  0  0  0  0
 18 13  2  0  0  0  0
 19  1  1  0  0  0  0
 19  2  2  0  0  0  0
 20  4  1  0  0  0  0
 21 10  2  0  0  0  0
 22 20  1  0  0  0  0
 23 15  1  0  0  0  0
 25 26  2  0  0  0  0
 25 18  1  0  0  0  0
 26 19  1  0  0  0  0
 27 24  1  6  0  0  0
 27 12  1  0  0  0  0
 28 30  1  0  0  0  0
 29 30  1  0  0  0  0
M  END
>  <MODEL>
6

>  <REMARK>
 VINA RESULT:      -7.9      2.161      5.247
  Name = 
  2 active torsions:
  status: ('A' for Active; 'I' for Inactive)
    1  A    between atoms: C_11  and  C_28
    2  A    between atoms: C_28  and  C_30
                            x       y       z     vdW  Elec       q    Type
                         _______ _______ _______ _____ _____    ______ ____

>  <TORSDO>
F 2

$$$$
=
 OpenBabel11112416213D

 30 35  0  0  1  0  0  0  0  0999 V2000
  185.9070  177.2470  144.0010 C   0  0  0  0  0  0  0  0  0  0  0  0
  184.1310  178.3560  142.6550 C   0  0  0  0  0  0  0  0  0  0  0  0
  187.8160  175.9030  140.6130 N   0  0  0  0  0  2  0  0  0  0  0  0
  187.1210  176.5120  144.0580 C   0  0  0  0  0  0  0  0  0  0  0  0
  185.3020  177.6520  145.1970 O   0  0  0  0  0  0  0  0  0  0  0  0
  187.5780  176.4580  147.6690 O   0  0  0  0  0  0  0  0  0  0  0  0
  189.4460  174.6090  144.9700 C   0  0  1  0  0  3  0  0  0  0  0  0
  187.0390  176.6340  146.5420 C   0  0  0  0  0  0  0  0  0  0  0  0
  189.5910  174.4390  143.4650 C   0  0  2  0  0  3  0  0  0  0  0  0
  188.8020  175.2240  141.2360 C   0  0  0  0  0  0  0  0  0  0  0  0
  185.5990  177.0550  146.4580 C   0  0  1  0  0  3  0  0  0  0  0  0
  187.7680  176.3520  145.3360 N   0  0  0  0  0  0  0  0  0  0  0  0
  183.6020  178.6770  141.4010 C   0  0  0  0  0  3  0  0  0  0  0  0
  191.0740  174.5640  143.1850 C   0  0  0  0  0  2  0  0  0  0  0  0
  190.7570  174.1140  145.5590 C   0  0  0  0  0  2  0  0  0  0  0  0
  183.4570  178.8010  143.7860 O   0  0  0  0  0  1  0  0  0  0  0  0
  187.1220  176.4240  141.6390 C   0  0  0  0  0  0  0  0  0  0  0  0
  184.2350  178.2580  140.2320 C   0  0  0  0  0  3  0  0  0  0  0  0
  185.3240  177.5990  142.7500 C   0  0  0  0  0  0  0  0  0  0  0  0
  187.6860  176.0760  142.8410 C   0  0  0  0  0  0  0  0  0  0  0  0
  189.6480  174.5400  140.6000 O   0  0  0  0  0  0  0  0  0  0  0  0
  188.7770  175.3060  142.5930 N   0  0  0  0  0  0  0  0  0  0  0  0
  191.7520  173.9970  144.4130 C   0  0  0  0  0  2  0  0  0  0  0  0
  190.0670  177.1130  144.8400 C   0  0  0  0  0  1  0  0  0  0  0  0
  185.4090  177.5110  140.3050 C   0  0  0  0  0  3  0  0  0  0  0  0
  185.9570  177.1810  141.5490 C   0  0  0  0  0  0  0  0  0  0  0  0
  189.1820  176.0300  145.4520 C   0  0  2  0  0  3  0  0  0  0  0  0
  185.1840  177.9910  147.5920 C   0  0  0  0  0  2  0  0  0  0  0  0
  186.6930  179.7870  148.3880 C   0  0  0  0  0  1  0  0  0  0  0  0
  185.6570  179.4160  147.3490 C   0  0  0  0  0  2  0  0  0  0  0  0
  1  4  1  0  0  0  0
  1  5  1  0  0  0  0
  2 19  1  0  0  0  0
  2 16  1  0  0  0  0
  3 10  1  0  0  0  0
  3 17  1  0  0  0  0
  4 12  1  0  0  0  0
  5 11  1  0  0  0  0
  7 27  1  0  0  0  0
  7 15  1  1  0  0  0
  8  6  2  0  0  0  0
  9 14  1  6  0  0  0
  9  7  1  0  0  0  0
 10 22  1  0  0  0  0
 11  8  1  0  0  0  0
 11 28  1  1  0  0  0
 12 27  1  0  0  0  0
 12  8  1  0  0  0  0
 13  2  2  0  0  0  0
 14 23  1  0  0  0  0
 17 20  1  0  0  0  0
 18 25  2  0  0  0  0
 18 13  1  0  0  0  0
 19  1  2  0  0  0  0
 20  4  2  0  0  0  0
 21 10  2  0  0  0  0
 22 20  1  0  0  0  0
 22  9  1  0  0  0  0
 23 15  1  0  0  0  0
 25 26  1  0  0  0  0
 26 17  2  0  0  0  0
 26 19  1  0  0  0  0
 27 24  1  6  0  0  0
 30 28  1  0  0  0  0
 30 29  1  0  0  0  0
M  END
>  <MODEL>
7

>  <REMARK>
 VINA RESULT:      -7.8      1.512      4.771
  Name = 
  2 active torsions:
  status: ('A' for Active; 'I' for Inactive)
    1  A    between atoms: C_11  and  C_28
    2  A    between atoms: C_28  and  C_30
                            x       y       z     vdW  Elec       q    Type
                         _______ _______ _______ _____ _____    ______ ____

>  <TORSDO>
F 2

$$$$
=
 OpenBabel11112416213D

 30 35  0  0  1  0  0  0  0  0999 V2000
  191.2680  175.0580  143.4970 C   0  0  0  0  0  0  0  0  0  0  0  0
  193.5720  174.6990  144.3700 C   0  0  0  0  0  0  0  0  0  0  0  0
  190.1970  177.2050  146.8400 N   0  0  0  0  0  2  0  0  0  0  0  0
  189.9820  175.6420  143.6400 C   0  0  0  0  0  0  0  0  0  0  0  0
  191.5540  174.3210  142.3420 O   0  0  0  0  0  0  0  0  0  0  0  0
  188.5360  174.6080  140.4640 O   0  0  0  0  0  0  0  0  0  0  0  0
  186.9010  176.2180  143.4520 C   0  0  1  0  0  3  0  0  0  0  0  0
  189.3420  174.6940  141.4310 C   0  0  0  0  0  0  0  0  0  0  0  0
  187.1610  176.8210  144.8240 C   0  0  2  0  0  3  0  0  0  0  0  0
  188.9110  177.4200  146.4930 C   0  0  0  0  0  0  0  0  0  0  0  0
  190.5420  173.7910  141.4890 C   0  0  1  0  0  3  0  0  0  0  0  0
  189.0760  175.5920  142.5210 N   0  0  0  0  0  0  0  0  0  0  0  0
  194.5190  174.9110  145.3780 C   0  0  0  0  0  3  0  0  0  0  0  0
  186.4520  178.1600  144.8180 C   0  0  0  0  0  2  0  0  0  0  0  0
  185.5660  176.7920  143.0060 C   0  0  0  0  0  2  0  0  0  0  0  0
  193.9490  173.9520  143.2610 O   0  0  0  0  0  1  0  0  0  0  0  0
  190.6750  176.5180  145.7880 C   0  0  0  0  0  0  0  0  0  0  0  0
  194.1970  175.6530  146.5130 C   0  0  0  0  0  3  0  0  0  0  0  0
  192.2690  175.2420  144.4940 C   0  0  0  0  0  0  0  0  0  0  0  0
  189.7030  176.3400  144.8350 C   0  0  0  0  0  0  0  0  0  0  0  0
  188.0990  178.0020  147.2630 O   0  0  0  0  0  0  0  0  0  0  0  0
  188.5600  176.9260  145.2760 N   0  0  0  0  0  0  0  0  0  0  0  0
  185.2430  177.9570  143.9310 C   0  0  0  0  0  2  0  0  0  0  0  0
  188.4140  177.9630  142.2950 C   0  0  0  0  0  1  0  0  0  0  0  0
  192.9200  176.1940  146.6540 C   0  0  0  0  0  3  0  0  0  0  0  0
  191.9590  175.9960  145.6570 C   0  0  0  0  0  0  0  0  0  0  0  0
  187.9540  176.5100  142.3910 C   0  0  2  0  0  3  0  0  0  0  0  0
  191.1240  173.4830  140.1110 C   0  0  0  0  0  2  0  0  0  0  0  0
  190.4770  171.2050  140.8410 C   0  0  0  0  0  1  0  0  0  0  0  0
  191.3920  171.9960  139.9310 C   0  0  0  0  0  2  0  0  0  0  0  0
  1  4  2  0  0  0  0
  1 19  1  0  0  0  0
  2 19  2  0  0  0  0
  2 13  1  0  0  0  0
  4 20  1  0  0  0  0
  5  1  1  0  0  0  0
  6  8  2  0  0  0  0
  7 15  1  6  0  0  0
  7  9  1  0  0  0  0
  8 11  1  0  0  0  0
  8 12  1  0  0  0  0
  9 14  1  6  0  0  0
  9 22  1  0  0  0  0
 10  3  1  0  0  0  0
 10 21  2  0  0  0  0
 11 28  1  6  0  0  0
 11  5  1  0  0  0  0
 12  4  1  0  0  0  0
 13 18  2  0  0  0  0
 15 23  1  0  0  0  0
 16  2  1  0  0  0  0
 17  3  1  0  0  0  0
 18 25  1  0  0  0  0
 19 26  1  0  0  0  0
 20 22  1  0  0  0  0
 20 17  2  0  0  0  0
 22 10  1  0  0  0  0
 23 14  1  0  0  0  0
 26 17  1  0  0  0  0
 26 25  2  0  0  0  0
 27 24  1  1  0  0  0
 27 12  1  0  0  0  0
 27  7  1  0  0  0  0
 30 28  1  0  0  0  0
 30 29  1  0  0  0  0
M  END
>  <MODEL>
8

>  <REMARK>
 VINA RESULT:      -7.7      2.494      6.314
  Name = 
  2 active torsions:
  status: ('A' for Active; 'I' for Inactive)
    1  A    between atoms: C_11  and  C_28
    2  A    between atoms: C_28  and  C_30
                            x       y       z     vdW  Elec       q    Type
                         _______ _______ _______ _____ _____    ______ ____

>  <TORSDO>
F 2

$$$$
=
 OpenBabel11112416213D

 30 35  0  0  1  0  0  0  0  0999 V2000
  188.3220  176.2460  143.9120 C   0  0  0  0  0  0  0  0  0  0  0  0
  186.0160  177.0000  144.4730 C   0  0  0  0  0  0  0  0  0  0  0  0
  189.7080  177.2860  147.6440 N   0  0  0  0  0  2  0  0  0  0  0  0
  189.6670  176.0250  144.3070 C   0  0  0  0  0  0  0  0  0  0  0  0
  187.9270  175.8890  142.6180 O   0  0  0  0  0  0  0  0  0  0  0  0
  190.9090  174.4900  141.2490 O   0  0  0  0  0  0  0  0  0  0  0  0
  192.7870  175.6680  144.2950 C   0  0  1  0  0  3  0  0  0  0  0  0
  190.1420  175.0930  142.0500 C   0  0  0  0  0  0  0  0  0  0  0  0
  192.6310  176.2450  145.6940 C   0  0  2  0  0  3  0  0  0  0  0  0
  191.0010  176.9580  147.4380 C   0  0  0  0  0  0  0  0  0  0  0  0
  188.8530  175.6840  141.5530 C   0  0  1  0  0  3  0  0  0  0  0  0
  190.5330  175.2930  143.4180 N   0  0  0  0  0  0  0  0  0  0  0  0
  185.1250  177.5390  145.4060 C   0  0  0  0  0  3  0  0  0  0  0  0
  193.4810  175.3680  146.5910 C   0  0  0  0  0  2  0  0  0  0  0  0
  194.1650  175.0260  144.2760 C   0  0  0  0  0  2  0  0  0  0  0  0
  185.5310  176.6780  143.2110 O   0  0  0  0  0  1  0  0  0  0  0  0
  189.1310  176.9590  146.4750 C   0  0  0  0  0  0  0  0  0  0  0  0
  185.5560  177.8810  146.6870 C   0  0  0  0  0  3  0  0  0  0  0  0
  187.3730  176.7940  144.8230 C   0  0  0  0  0  0  0  0  0  0  0  0
  190.0520  176.4380  145.6010 C   0  0  0  0  0  0  0  0  0  0  0  0
  191.8900  177.1700  148.3050 O   0  0  0  0  0  0  0  0  0  0  0  0
  191.2630  176.4250  146.2150 N   0  0  0  0  0  0  0  0  0  0  0  0
  194.6370  174.9270  145.7200 C   0  0  0  0  0  2  0  0  0  0  0  0
  191.4440  173.5510  144.9170 C   0  0  0  0  0  1  0  0  0  0  0  0
  186.8870  177.6870  147.0500 C   0  0  0  0  0  3  0  0  0  0  0  0
  187.7940  177.1470  146.1330 C   0  0  0  0  0  0  0  0  0  0  0  0
  191.7450  174.6360  143.8860 C   0  0  2  0  0  3  0  0  0  0  0  0
  188.2040  174.8540  140.4460 C   0  0  0  0  0  2  0  0  0  0  0  0
  188.2500  172.5570  139.5180 C   0  0  0  0  0  1  0  0  0  0  0  0
  188.1820  173.3730  140.7910 C   0  0  0  0  0  2  0  0  0  0  0  0
  1  4  2  0  0  0  0
  1 19  1  0  0  0  0
  2 19  2  0  0  0  0
  2 13  1  0  0  0  0
  4 20  1  0  0  0  0
  5  1  1  0  0  0  0
  6  8  2  0  0  0  0
  7 15  1  1  0  0  0
  7  9  1  0  0  0  0
  8 12  1  0  0  0  0
  9 22  1  0  0  0  0
  9 14  1  1  0  0  0
 10  3  1  0  0  0  0
 10 21  2  0  0  0  0
 11 28  1  6  0  0  0
 11  8  1  0  0  0  0
 11  5  1  0  0  0  0
 12 27  1  0  0  0  0
 12  4  1  0  0  0  0
 13 18  2  0  0  0  0
 15 23  1  0  0  0  0
 16  2  1  0  0  0  0
 17  3  1  0  0  0  0
 18 25  1  0  0  0  0
 19 26  1  0  0  0  0
 20 22  1  0  0  0  0
 20 17  2  0  0  0  0
 22 10  1  0  0  0  0
 23 14  1  0  0  0  0
 26 17  1  0  0  0  0
 26 25  2  0  0  0  0
 27  7  1  0  0  0  0
 27 24  1  1  0  0  0
 28 30  1  0  0  0  0
 29 30  1  0  0  0  0
M  END
>  <MODEL>
9

>  <REMARK>
 VINA RESULT:      -7.6      2.286      3.493
  Name = 
  2 active torsions:
  status: ('A' for Active; 'I' for Inactive)
    1  A    between atoms: C_11  and  C_28
    2  A    between atoms: C_28  and  C_30
                            x       y       z     vdW  Elec       q    Type
                         _______ _______ _______ _____ _____    ______ ____

>  <TORSDO>
F 2

$$$$
