=
 OpenBabel11112417383D

 28 32  0  0  1  0  0  0  0  0999 V2000
  186.2200  178.3960  144.3270 C   0  0  0  0  0  0  0  0  0  0  0  0
  189.5810  178.1410  145.8930 O   0  0  0  0  0  0  0  0  0  0  0  0
  188.6540  174.7010  139.7860 O   0  0  0  0  0  0  0  0  0  0  0  0
  185.0140  177.0450  146.4670 C   0  0  0  0  0  3  0  0  0  0  0  0
  188.3870  173.5340  141.8990 C   0  0  2  0  0  3  0  0  0  0  0  0
  186.7810  179.1210  143.1470 C   0  0  0  0  0  2  0  0  0  0  0  0
  190.4350  176.1330  147.0300 O   0  0  0  0  0  0  0  0  0  0  0  0
  190.0610  176.7300  145.7030 S   0  0  0  0  0  0  0  0  0  0  0  0
  191.3830  175.9650  143.4370 C   0  0  0  0  0  0  0  0  0  0  0  0
  188.8010  175.7350  144.9430 C   0  0  2  0  0  3  0  0  0  0  0  0
  185.6600  177.4540  140.0850 O   0  0  0  0  0  0  0  0  0  0  0  0
  187.3740  175.4740  143.0040 C   0  0  2  0  0  3  0  0  0  0  0  0
  190.4460  175.0980  143.1850 N   0  0  0  0  0  0  0  0  0  0  0  0
  191.4220  176.7070  144.6530 N   0  0  0  0  0  2  0  0  0  0  0  0
  186.4390  177.7990  141.0120 C   0  0  0  0  0  0  0  0  0  0  0  0
  186.7230  177.1440  144.7380 C   0  0  0  0  0  0  0  0  0  0  0  0
  188.2960  174.7030  140.9950 C   0  0  0  0  0  0  0  0  0  0  0  0
  192.4110  176.2340  142.3990 C   0  0  0  0  0  1  0  0  0  0  0  0
  187.7970  177.1820  141.0960 C   0  0  0  0  0  2  0  0  0  0  0  0
  186.0990  176.4720  145.8020 C   0  0  0  0  0  3  0  0  0  0  0  0
  185.1280  178.9600  144.9970 C   0  0  0  0  0  3  0  0  0  0  0  0
  184.5300  178.2900  146.0650 C   0  0  0  0  0  3  0  0  0  0  0  0
  186.0140  178.7840  141.9560 N   0  0  0  0  0  2  0  0  0  0  0  0
  188.1470  174.1730  143.2870 C   0  0  2  0  0  3  0  0  0  0  0  0
  187.7160  175.8290  141.6300 N   0  0  0  0  0  0  0  0  0  0  0  0
  189.3840  174.6210  144.0910 C   0  0  2  0  0  3  0  0  0  0  0  0
  189.6820  172.7440  141.7570 C   0  0  0  0  0  1  0  0  0  0  0  0
  187.8790  176.5070  144.0100 C   0  0  1  0  0  3  0  0  0  0  0  0
  1 16  2  0  0  0  0
  1 21  1  0  0  0  0
  3 17  2  0  0  0  0
  5 27  1  1  0  0  0
  5 24  1  0  0  0  0
  6  1  1  0  0  0  0
  8  2  2  0  0  0  0
  8  7  2  0  0  0  0
  9 14  1  0  0  0  0
 10  8  1  6  0  0  0
 11 15  2  0  0  0  0
 12 25  1  6  0  0  0
 12 24  1  0  0  0  0
 12 28  1  0  0  0  0
 13  9  2  0  0  0  0
 13 26  1  0  0  0  0
 14  8  1  0  0  0  0
 15 19  1  0  0  0  0
 15 23  1  0  0  0  0
 16 20  1  0  0  0  0
 17 25  1  0  0  0  0
 17  5  1  0  0  0  0
 18  9  1  0  0  0  0
 19 25  1  0  0  0  0
 20  4  2  0  0  0  0
 21 22  2  0  0  0  0
 22  4  1  0  0  0  0
 23  6  1  0  0  0  0
 24 26  1  0  0  0  0
 26 10  1  0  0  0  0
 28 16  1  0  0  0  0
 28 10  1  0  0  0  0
M  END
>  <MODEL>
1

>  <REMARK>
 VINA RESULT:      -8.1      0.000      0.000
  Name = 
  0 active torsions:
  status: ('A' for Active; 'I' for Inactive)
                            x       y       z     vdW  Elec       q    Type
                         _______ _______ _______ _____ _____    ______ ____

>  <TORSDO>
F 0

$$$$
=
 OpenBabel11112417383D

 28 32  0  0  1  0  0  0  0  0999 V2000
  186.8090  177.4560  144.7350 C   0  0  0  0  0  0  0  0  0  0  0  0
  187.1050  174.3670  142.6910 O   0  0  0  0  0  0  0  0  0  0  0  0
  192.8640  176.3680  146.2710 O   0  0  0  0  0  0  0  0  0  0  0  0
  186.4070  179.0410  142.4590 C   0  0  0  0  0  3  0  0  0  0  0  0
  192.5880  177.0050  143.9440 C   0  0  2  0  0  3  0  0  0  0  0  0
  187.0180  176.6870  146.0000 C   0  0  0  0  0  2  0  0  0  0  0  0
  188.3350  174.2200  140.5640 O   0  0  0  0  0  0  0  0  0  0  0  0
  188.4650  174.3760  142.0520 S   0  0  0  0  0  0  0  0  0  0  0  0
  190.6560  173.3780  143.3460 C   0  0  0  0  0  0  0  0  0  0  0  0
  189.3170  175.8930  142.4140 C   0  0  2  0  0  3  0  0  0  0  0  0
  189.6780  178.2910  147.9410 O   0  0  0  0  0  0  0  0  0  0  0  0
  190.1680  177.3250  144.1710 C   0  0  2  0  0  3  0  0  0  0  0  0
  191.2230  174.5470  143.2860 N   0  0  0  0  0  0  0  0  0  0  0  0
  189.4230  173.0980  142.6880 N   0  0  0  0  0  2  0  0  0  0  0  0
  189.1220  177.4420  147.1950 C   0  0  0  0  0  0  0  0  0  0  0  0
  187.7270  177.3920  143.6670 C   0  0  0  0  0  0  0  0  0  0  0  0
  192.1150  176.7060  145.3140 C   0  0  0  0  0  0  0  0  0  0  0  0
  191.2810  172.3170  144.1770 C   0  0  0  0  0  1  0  0  0  0  0  0
  189.9450  176.3630  146.5720 C   0  0  0  0  0  2  0  0  0  0  0  0
  187.5200  178.2030  142.5380 C   0  0  0  0  0  3  0  0  0  0  0  0
  185.6980  178.3030  144.6480 C   0  0  0  0  0  3  0  0  0  0  0  0
  185.4940  179.0880  143.5130 C   0  0  0  0  0  3  0  0  0  0  0  0
  187.7130  177.5210  146.9700 N   0  0  0  0  0  2  0  0  0  0  0  0
  191.2690  177.0230  143.1380 C   0  0  2  0  0  3  0  0  0  0  0  0
  190.7160  176.8840  145.4500 N   0  0  0  0  0  0  0  0  0  0  0  0
  190.8230  175.7080  142.4670 C   0  0  2  0  0  3  0  0  0  0  0  0
  193.6530  176.0410  143.4360 C   0  0  0  0  0  1  0  0  0  0  0  0
  188.9450  176.5090  143.7550 C   0  0  1  0  0  3  0  0  0  0  0  0
  1  6  1  0  0  0  0
  4 20  2  0  0  0  0
  4 22  1  0  0  0  0
  5 27  1  6  0  0  0
  5 17  1  0  0  0  0
  6 23  1  0  0  0  0
  7  8  2  0  0  0  0
  8 14  1  0  0  0  0
  8  2  2  0  0  0  0
  9 18  1  0  0  0  0
 10  8  1  1  0  0  0
 10 26  1  0  0  0  0
 10 28  1  0  0  0  0
 12 25  1  1  0  0  0
 13  9  2  0  0  0  0
 14  9  1  0  0  0  0
 15 11  2  0  0  0  0
 16 28  1  0  0  0  0
 16  1  2  0  0  0  0
 17 25  1  0  0  0  0
 17  3  2  0  0  0  0
 19 15  1  0  0  0  0
 20 16  1  0  0  0  0
 21  1  1  0  0  0  0
 22 21  2  0  0  0  0
 23 15  1  0  0  0  0
 24  5  1  0  0  0  0
 24 12  1  0  0  0  0
 25 19  1  0  0  0  0
 26 24  1  0  0  0  0
 26 13  1  0  0  0  0
 28 12  1  0  0  0  0
M  END
>  <MODEL>
2

>  <REMARK>
 VINA RESULT:      -8.0      2.282      4.767
  Name = 
  0 active torsions:
  status: ('A' for Active; 'I' for Inactive)
                            x       y       z     vdW  Elec       q    Type
                         _______ _______ _______ _____ _____    ______ ____

>  <TORSDO>
F 0

$$$$
=
 OpenBabel11112417383D

 28 32  0  0  1  0  0  0  0  0999 V2000
  192.2090  174.0000  144.8670 C   0  0  0  0  0  0  0  0  0  0  0  0
  190.2720  175.5810  147.6160 O   0  0  0  0  0  0  0  0  0  0  0  0
  187.4400  175.9010  141.1460 O   0  0  0  0  0  0  0  0  0  0  0  0
  194.3110  175.8300  145.1650 C   0  0  0  0  0  3  0  0  0  0  0  0
  188.7600  177.7540  141.9960 C   0  0  2  0  0  3  0  0  0  0  0  0
  191.1340  172.9870  144.6380 C   0  0  0  0  0  2  0  0  0  0  0  0
  190.0670  178.0100  147.9530 O   0  0  0  0  0  0  0  0  0  0  0  0
  189.6790  176.8530  147.0780 S   0  0  0  0  0  0  0  0  0  0  0  0
  187.2780  176.8690  145.7730 C   0  0  0  0  0  0  0  0  0  0  0  0
  190.2410  177.1540  145.4200 C   0  0  2  0  0  3  0  0  0  0  0  0
  190.2620  172.9570  141.0820 O   0  0  0  0  0  0  0  0  0  0  0  0
  190.3350  176.2810  143.1630 C   0  0  2  0  0  3  0  0  0  0  0  0
  187.8620  177.3350  144.7080 N   0  0  0  0  0  0  0  0  0  0  0  0
  187.9660  176.7240  147.0130 N   0  0  0  0  0  2  0  0  0  0  0  0
  190.1510  173.2000  142.3130 C   0  0  0  0  0  0  0  0  0  0  0  0
  191.9400  175.3840  144.8470 C   0  0  0  0  0  0  0  0  0  0  0  0
  188.4070  176.3250  141.8350 C   0  0  0  0  0  0  0  0  0  0  0  0
  185.8660  176.4160  145.6790 C   0  0  0  0  0  1  0  0  0  0  0  0
  189.0320  174.0660  142.7910 C   0  0  0  0  0  2  0  0  0  0  0  0
  193.0060  176.2900  144.9830 C   0  0  0  0  0  3  0  0  0  0  0  0
  193.5210  173.5490  145.0450 C   0  0  0  0  0  3  0  0  0  0  0  0
  194.5680  174.4590  145.1990 C   0  0  0  0  0  3  0  0  0  0  0  0
  191.0890  172.6300  143.2280 N   0  0  0  0  0  2  0  0  0  0  0  0
  189.7680  177.7130  143.1670 C   0  0  2  0  0  3  0  0  0  0  0  0
  189.3110  175.4700  142.5120 N   0  0  0  0  0  0  0  0  0  0  0  0
  189.2160  177.9100  144.5930 C   0  0  2  0  0  3  0  0  0  0  0  0
  187.5570  178.6670  142.1990 C   0  0  0  0  0  1  0  0  0  0  0  0
  190.5380  175.8900  144.6260 C   0  0  1  0  0  3  0  0  0  0  0  0
  1 21  1  0  0  0  0
  3 17  2  0  0  0  0
  4 22  1  0  0  0  0
  5 27  1  1  0  0  0
  5 24  1  0  0  0  0
  6  1  1  0  0  0  0
  8  2  2  0  0  0  0
  8  7  2  0  0  0  0
  9 14  1  0  0  0  0
 10  8  1  1  0  0  0
 11 15  2  0  0  0  0
 12 25  1  1  0  0  0
 12 24  1  0  0  0  0
 12 28  1  0  0  0  0
 13  9  2  0  0  0  0
 14  8  1  0  0  0  0
 15 19  1  0  0  0  0
 15 23  1  0  0  0  0
 16  1  2  0  0  0  0
 16 20  1  0  0  0  0
 17  5  1  0  0  0  0
 17 25  1  0  0  0  0
 18  9  1  0  0  0  0
 20  4  2  0  0  0  0
 21 22  2  0  0  0  0
 23  6  1  0  0  0  0
 24 26  1  0  0  0  0
 25 19  1  0  0  0  0
 26 13  1  0  0  0  0
 26 10  1  0  0  0  0
 28 16  1  0  0  0  0
 28 10  1  0  0  0  0
M  END
>  <MODEL>
3

>  <REMARK>
 VINA RESULT:      -7.6      2.264      5.666
  Name = 
  0 active torsions:
  status: ('A' for Active; 'I' for Inactive)
                            x       y       z     vdW  Elec       q    Type
                         _______ _______ _______ _____ _____    ______ ____

>  <TORSDO>
F 0

$$$$
=
 OpenBabel11112417383D

 28 32  0  0  1  0  0  0  0  0999 V2000
  188.6170  176.2390  145.2100 C   0  0  0  0  0  0  0  0  0  0  0  0
  189.1470  173.3300  142.9590 O   0  0  0  0  0  0  0  0  0  0  0  0
  194.7960  175.6660  146.5130 O   0  0  0  0  0  0  0  0  0  0  0  0
  187.9880  177.9160  143.0540 C   0  0  0  0  0  3  0  0  0  0  0  0
  194.3840  176.4170  144.2400 C   0  0  2  0  0  3  0  0  0  0  0  0
  188.9410  175.4170  146.4150 C   0  0  0  0  0  2  0  0  0  0  0  0
  190.3160  173.4400  140.7970 O   0  0  0  0  0  0  0  0  0  0  0  0
  190.4790  173.5150  142.2880 S   0  0  0  0  0  0  0  0  0  0  0  0
  192.7970  172.6600  143.4560 C   0  0  0  0  0  0  0  0  0  0  0  0
  191.1890  175.0830  142.7260 C   0  0  2  0  0  3  0  0  0  0  0  0
  191.4930  177.1520  148.3880 O   0  0  0  0  0  0  0  0  0  0  0  0
  191.9520  176.4790  144.5510 C   0  0  2  0  0  3  0  0  0  0  0  0
  193.2450  173.8820  143.4580 N   0  0  0  0  0  0  0  0  0  0  0  0
  191.5770  172.3010  142.8130 N   0  0  0  0  0  2  0  0  0  0  0  0
  190.9980  176.3010  147.6020 C   0  0  0  0  0  0  0  0  0  0  0  0
  189.5020  176.3340  144.1160 C   0  0  0  0  0  0  0  0  0  0  0  0
  193.9870  175.9870  145.6000 C   0  0  0  0  0  0  0  0  0  0  0  0
  193.5500  171.6170  144.1980 C   0  0  0  0  0  1  0  0  0  0  0  0
  191.9030  175.3510  146.8880 C   0  0  0  0  0  2  0  0  0  0  0  0
  189.1800  177.1900  143.0490 C   0  0  0  0  0  3  0  0  0  0  0  0
  187.4260  176.9750  145.2080 C   0  0  0  0  0  3  0  0  0  0  0  0
  187.1090  177.8060  144.1320 C   0  0  0  0  0  3  0  0  0  0  0  0
  189.5820  176.2530  147.4200 N   0  0  0  0  0  2  0  0  0  0  0  0
  193.0440  176.3540  143.4720 C   0  0  2  0  0  3  0  0  0  0  0  0
  192.5820  176.0160  145.7840 N   0  0  0  0  0  0  0  0  0  0  0  0
  192.7070  175.0470  142.7270 C   0  0  2  0  0  3  0  0  0  0  0  0
  195.5210  175.5980  143.6420 C   0  0  0  0  0  1  0  0  0  0  0  0
  190.8020  175.5730  144.1140 C   0  0  1  0  0  3  0  0  0  0  0  0
  1  6  1  0  0  0  0
  4 22  1  0  0  0  0
  5 27  1  6  0  0  0
  5 17  1  0  0  0  0
  6 23  1  0  0  0  0
  7  8  2  0  0  0  0
  8 14  1  0  0  0  0
  8  2  2  0  0  0  0
  9 13  2  0  0  0  0
  9 18  1  0  0  0  0
 10  8  1  1  0  0  0
 10 26  1  0  0  0  0
 10 28  1  0  0  0  0
 12 25  1  1  0  0  0
 14  9  1  0  0  0  0
 15 11  2  0  0  0  0
 16  1  2  0  0  0  0
 17 25  1  0  0  0  0
 17  3  2  0  0  0  0
 19 15  1  0  0  0  0
 20  4  2  0  0  0  0
 20 16  1  0  0  0  0
 21  1  1  0  0  0  0
 22 21  2  0  0  0  0
 23 15  1  0  0  0  0
 24  5  1  0  0  0  0
 24 12  1  0  0  0  0
 25 19  1  0  0  0  0
 26 13  1  0  0  0  0
 26 24  1  0  0  0  0
 28 16  1  0  0  0  0
 28 12  1  0  0  0  0
M  END
>  <MODEL>
4

>  <REMARK>
 VINA RESULT:      -7.5      3.070      5.712
  Name = 
  0 active torsions:
  status: ('A' for Active; 'I' for Inactive)
                            x       y       z     vdW  Elec       q    Type
                         _______ _______ _______ _____ _____    ______ ____

>  <TORSDO>
F 0

$$$$
=
 OpenBabel11112417383D

 28 32  0  0  1  0  0  0  0  0999 V2000
  187.6380  177.6620  144.6130 C   0  0  0  0  0  0  0  0  0  0  0  0
  190.6790  177.9440  146.7300 O   0  0  0  0  0  0  0  0  0  0  0  0
  190.7950  173.0330  141.6450 O   0  0  0  0  0  0  0  0  0  0  0  0
  186.0760  176.8530  146.7940 C   0  0  0  0  0  3  0  0  0  0  0  0
  190.1640  172.4310  143.9120 C   0  0  2  0  0  3  0  0  0  0  0  0
  188.3980  178.0850  143.3960 C   0  0  0  0  0  2  0  0  0  0  0  0
  191.3150  176.3250  148.4710 O   0  0  0  0  0  0  0  0  0  0  0  0
  191.1780  176.5500  146.9920 S   0  0  0  0  0  0  0  0  0  0  0  0
  192.8640  175.2870  145.2520 C   0  0  0  0  0  0  0  0  0  0  0  0
  190.0610  175.3470  146.3130 C   0  0  2  0  0  3  0  0  0  0  0  0
  187.8100  175.6540  140.7220 O   0  0  0  0  0  0  0  0  0  0  0  0
  188.9860  174.5480  144.2960 C   0  0  2  0  0  3  0  0  0  0  0  0
  191.9800  174.3490  145.0780 N   0  0  0  0  0  0  0  0  0  0  0  0
  192.6980  176.3150  146.2260 N   0  0  0  0  0  2  0  0  0  0  0  0
  188.4200  176.2530  141.6460 C   0  0  0  0  0  0  0  0  0  0  0  0
  188.0570  176.5760  145.4080 C   0  0  0  0  0  0  0  0  0  0  0  0
  190.2360  173.3280  142.7360 C   0  0  0  0  0  0  0  0  0  0  0  0
  194.0570  175.3240  144.3670 C   0  0  0  0  0  1  0  0  0  0  0  0
  189.7400  175.7310  142.1110 C   0  0  0  0  0  2  0  0  0  0  0  0
  187.2560  176.1720  146.4900 C   0  0  0  0  0  3  0  0  0  0  0  0
  186.4510  178.3350  144.9220 C   0  0  0  0  0  3  0  0  0  0  0  0
  185.6750  177.9360  146.0110 C   0  0  0  0  0  3  0  0  0  0  0  0
  187.8450  177.4280  142.2210 N   0  0  0  0  0  2  0  0  0  0  0  0
  189.6920  173.3910  145.0280 C   0  0  2  0  0  3  0  0  0  0  0  0
  189.5610  174.5550  142.9540 N   0  0  0  0  0  0  0  0  0  0  0  0
  190.7750  174.0760  145.8860 C   0  0  2  0  0  3  0  0  0  0  0  0
  191.4600  171.6820  144.1960 C   0  0  0  0  0  1  0  0  0  0  0  0
  189.3170  175.8210  145.0730 C   0  0  1  0  0  3  0  0  0  0  0  0
  1 21  2  0  0  0  0
  1 16  1  0  0  0  0
  2  8  2  0  0  0  0
  3 17  2  0  0  0  0
  5 27  1  1  0  0  0
  5 24  1  0  0  0  0
  6  1  1  0  0  0  0
  8  7  2  0  0  0  0
  9 14  1  0  0  0  0
 10  8  1  6  0  0  0
 11 15  2  0  0  0  0
 12 25  1  6  0  0  0
 12 24  1  0  0  0  0
 12 28  1  0  0  0  0
 13  9  2  0  0  0  0
 13 26  1  0  0  0  0
 14  8  1  0  0  0  0
 15 19  1  0  0  0  0
 15 23  1  0  0  0  0
 16 20  2  0  0  0  0
 17 25  1  0  0  0  0
 17  5  1  0  0  0  0
 18  9  1  0  0  0  0
 19 25  1  0  0  0  0
 20  4  1  0  0  0  0
 21 22  1  0  0  0  0
 22  4  2  0  0  0  0
 23  6  1  0  0  0  0
 24 26  1  0  0  0  0
 26 10  1  0  0  0  0
 28 16  1  0  0  0  0
 28 10  1  0  0  0  0
M  END
>  <MODEL>
5

>  <REMARK>
 VINA RESULT:      -7.3      1.835      2.265
  Name = 
  0 active torsions:
  status: ('A' for Active; 'I' for Inactive)
                            x       y       z     vdW  Elec       q    Type
                         _______ _______ _______ _____ _____    ______ ____

>  <TORSDO>
F 0

$$$$
=
 OpenBabel11112417383D

 28 32  0  0  1  0  0  0  0  0999 V2000
  188.3440  176.0930  144.1100 C   0  0  0  0  0  0  0  0  0  0  0  0
  191.7580  177.5460  144.3150 O   0  0  0  0  0  0  0  0  0  0  0  0
  191.2150  171.1060  141.4480 O   0  0  0  0  0  0  0  0  0  0  0  0
  188.1090  176.0040  146.9010 C   0  0  0  0  0  3  0  0  0  0  0  0
  191.7620  171.3550  143.8010 C   0  0  2  0  0  3  0  0  0  0  0  0
  188.3860  176.1030  142.6150 C   0  0  0  0  0  2  0  0  0  0  0  0
  193.4840  176.8180  145.9110 O   0  0  0  0  0  0  0  0  0  0  0  0
  192.7000  176.4360  144.6890 S   0  0  0  0  0  0  0  0  0  0  0  0
  193.8210  174.8170  142.7940 C   0  0  0  0  0  0  0  0  0  0  0  0
  191.8040  174.9350  145.0080 C   0  0  2  0  0  3  0  0  0  0  0  0
  187.4950  172.7740  141.3770 O   0  0  0  0  0  0  0  0  0  0  0  0
  190.2850  173.2920  144.0840 C   0  0  2  0  0  3  0  0  0  0  0  0
  193.2550  173.7830  143.3440 N   0  0  0  0  0  0  0  0  0  0  0  0
  193.7750  176.1120  143.3870 N   0  0  0  0  0  2  0  0  0  0  0  0
  188.2260  173.7550  141.6770 C   0  0  0  0  0  0  0  0  0  0  0  0
  189.3440  175.4610  144.8760 C   0  0  0  0  0  0  0  0  0  0  0  0
  191.0880  171.7280  142.5370 C   0  0  0  0  0  0  0  0  0  0  0  0
  194.4850  174.6560  141.4740 C   0  0  0  0  0  1  0  0  0  0  0  0
  189.7100  173.6210  141.5740 C   0  0  0  0  0  2  0  0  0  0  0  0
  189.2050  175.4110  146.2740 C   0  0  0  0  0  3  0  0  0  0  0  0
  187.2460  176.6810  144.7470 C   0  0  0  0  0  3  0  0  0  0  0  0
  187.1300  176.6410  146.1380 C   0  0  0  0  0  3  0  0  0  0  0  0
  187.6200  174.9800  142.0960 N   0  0  0  0  0  2  0  0  0  0  0  0
  191.5280  172.6050  144.6800 C   0  0  2  0  0  3  0  0  0  0  0  0
  190.2370  172.8500  142.6940 N   0  0  0  0  0  0  0  0  0  0  0  0
  192.6170  173.6970  144.6720 C   0  0  2  0  0  3  0  0  0  0  0  0
  193.2170  170.9410  143.6240 C   0  0  0  0  0  1  0  0  0  0  0  0
  190.5190  174.7970  144.2050 C   0  0  1  0  0  3  0  0  0  0  0  0
  1 21  2  0  0  0  0
  1 16  1  0  0  0  0
  2  8  2  0  0  0  0
  3 17  2  0  0  0  0
  5 27  1  6  0  0  0
  5 24  1  0  0  0  0
  6  1  1  0  0  0  0
  8  7  2  0  0  0  0
  9 13  2  0  0  0  0
  9 14  1  0  0  0  0
 10  8  1  6  0  0  0
 11 15  2  0  0  0  0
 12 25  1  6  0  0  0
 12 28  1  0  0  0  0
 12 24  1  0  0  0  0
 13 26  1  0  0  0  0
 14  8  1  0  0  0  0
 15 23  1  0  0  0  0
 16 20  2  0  0  0  0
 17 25  1  0  0  0  0
 17  5  1  0  0  0  0
 18  9  1  0  0  0  0
 19 15  1  0  0  0  0
 19 25  1  0  0  0  0
 20  4  1  0  0  0  0
 21 22  1  0  0  0  0
 22  4  2  0  0  0  0
 23  6  1  0  0  0  0
 26 24  1  0  0  0  0
 26 10  1  0  0  0  0
 28 16  1  0  0  0  0
 28 10  1  0  0  0  0
M  END
>  <MODEL>
6

>  <REMARK>
 VINA RESULT:      -7.3      2.400      3.637
  Name = 
  0 active torsions:
  status: ('A' for Active; 'I' for Inactive)
                            x       y       z     vdW  Elec       q    Type
                         _______ _______ _______ _____ _____    ______ ____

>  <TORSDO>
F 0

$$$$
=
 OpenBabel11112417383D

 28 32  0  0  1  0  0  0  0  0999 V2000
  189.1840  175.4310  146.1720 C   0  0  0  0  0  0  0  0  0  0  0  0
  189.0500  172.3140  144.1520 O   0  0  0  0  0  0  0  0  0  0  0  0
  195.2250  175.7570  144.2740 O   0  0  0  0  0  0  0  0  0  0  0  0
  187.3240  176.7050  144.5070 C   0  0  0  0  0  3  0  0  0  0  0  0
  193.6530  176.1300  142.4610 C   0  0  2  0  0  3  0  0  0  0  0  0
  190.1810  174.8280  147.1090 C   0  0  0  0  0  2  0  0  0  0  0  0
  189.0000  172.2540  141.6920 O   0  0  0  0  0  0  0  0  0  0  0  0
  189.8430  172.5550  142.8980 S   0  0  0  0  0  0  0  0  0  0  0  0
  192.5440  172.1440  142.8150 C   0  0  0  0  0  0  0  0  0  0  0  0
  190.4000  174.2400  142.8220 C   0  0  2  0  0  3  0  0  0  0  0  0
  193.0310  177.1040  147.4380 O   0  0  0  0  0  0  0  0  0  0  0  0
  191.6980  175.9570  143.9320 C   0  0  2  0  0  3  0  0  0  0  0  0
  192.7240  173.3970  142.5150 N   0  0  0  0  0  0  0  0  0  0  0  0
  191.2450  171.5600  142.8870 N   0  0  0  0  0  2  0  0  0  0  0  0
  192.3720  176.1000  147.0580 C   0  0  0  0  0  0  0  0  0  0  0  0
  189.4040  175.4720  144.7800 C   0  0  0  0  0  0  0  0  0  0  0  0
  194.0360  175.8530  143.8640 C   0  0  0  0  0  0  0  0  0  0  0  0
  193.7250  171.3090  143.1540 C   0  0  0  0  0  1  0  0  0  0  0  0
  192.9680  175.1690  146.0550 C   0  0  0  0  0  2  0  0  0  0  0  0
  188.4700  176.1280  143.9590 C   0  0  0  0  0  3  0  0  0  0  0  0
  188.0340  176.0170  146.7120 C   0  0  0  0  0  3  0  0  0  0  0  0
  187.1040  176.6480  145.8840 C   0  0  0  0  0  3  0  0  0  0  0  0
  191.0730  175.8650  147.6070 N   0  0  0  0  0  2  0  0  0  0  0  0
  192.1410  175.8080  142.4640 C   0  0  2  0  0  3  0  0  0  0  0  0
  192.9100  175.7460  144.7170 N   0  0  0  0  0  0  0  0  0  0  0  0
  191.7140  174.3780  142.0720 C   0  0  2  0  0  3  0  0  0  0  0  0
  194.4820  175.3710  141.4330 C   0  0  0  0  0  1  0  0  0  0  0  0
  190.6510  174.8730  144.1830 C   0  0  1  0  0  3  0  0  0  0  0  0
  1 21  1  0  0  0  0
  1  6  1  0  0  0  0
  4 22  1  0  0  0  0
  5 27  1  6  0  0  0
  5 24  1  0  0  0  0
  5 17  1  0  0  0  0
  6 23  1  0  0  0  0
  7  8  2  0  0  0  0
  8  2  2  0  0  0  0
  9 14  1  0  0  0  0
  9 18  1  0  0  0  0
 10  8  1  1  0  0  0
 10 28  1  0  0  0  0
 12 28  1  0  0  0  0
 12 25  1  1  0  0  0
 13  9  2  0  0  0  0
 14  8  1  0  0  0  0
 15 11  2  0  0  0  0
 15 23  1  0  0  0  0
 16  1  2  0  0  0  0
 17  3  2  0  0  0  0
 17 25  1  0  0  0  0
 19 15  1  0  0  0  0
 20  4  2  0  0  0  0
 20 16  1  0  0  0  0
 22 21  2  0  0  0  0
 24 12  1  0  0  0  0
 25 19  1  0  0  0  0
 26 24  1  0  0  0  0
 26 13  1  0  0  0  0
 26 10  1  0  0  0  0
 28 16  1  0  0  0  0
M  END
>  <MODEL>
7

>  <REMARK>
 VINA RESULT:      -7.1      3.251      5.654
  Name = 
  0 active torsions:
  status: ('A' for Active; 'I' for Inactive)
                            x       y       z     vdW  Elec       q    Type
                         _______ _______ _______ _____ _____    ______ ____

>  <TORSDO>
F 0

$$$$
=
 OpenBabel11112417383D

 28 32  0  0  1  0  0  0  0  0999 V2000
  193.1300  174.0870  141.9660 C   0  0  0  0  0  0  0  0  0  0  0  0
  193.5520  174.5060  145.6350 O   0  0  0  0  0  0  0  0  0  0  0  0
  187.0560  175.5490  143.0460 O   0  0  0  0  0  0  0  0  0  0  0  0
  194.8180  176.2580  141.4260 C   0  0  0  0  0  3  0  0  0  0  0  0
  188.5480  177.4320  143.3980 C   0  0  2  0  0  3  0  0  0  0  0  0
  192.2180  172.9190  142.1640 C   0  0  0  0  0  2  0  0  0  0  0  0
  193.5660  176.6770  146.7930 O   0  0  0  0  0  0  0  0  0  0  0  0
  192.7170  175.6830  146.0540 S   0  0  0  0  0  0  0  0  0  0  0  0
  190.0730  175.4040  146.6860 C   0  0  0  0  0  0  0  0  0  0  0  0
  191.9860  176.4680  144.6380 C   0  0  2  0  0  3  0  0  0  0  0  0
  189.1530  173.4640  140.2370 O   0  0  0  0  0  0  0  0  0  0  0  0
  190.5360  176.1630  142.7230 C   0  0  2  0  0  3  0  0  0  0  0  0
  189.7580  176.2210  145.7240 N   0  0  0  0  0  0  0  0  0  0  0  0
  191.4260  175.1600  147.0620 N   0  0  0  0  0  2  0  0  0  0  0  0
  189.9060  173.3950  141.2430 C   0  0  0  0  0  0  0  0  0  0  0  0
  192.8820  175.3340  142.5760 C   0  0  0  0  0  0  0  0  0  0  0  0
  188.2200  176.0320  143.0450 C   0  0  0  0  0  0  0  0  0  0  0  0
  188.9910  174.6550  147.3760 C   0  0  0  0  0  1  0  0  0  0  0  0
  189.3920  173.8380  142.5740 C   0  0  0  0  0  2  0  0  0  0  0  0
  193.7280  176.4170  142.2840 C   0  0  0  0  0  3  0  0  0  0  0  0
  194.2220  173.9380  141.1040 C   0  0  0  0  0  3  0  0  0  0  0  0
  195.0660  175.0180  140.8380 C   0  0  0  0  0  3  0  0  0  0  0  0
  191.2310  172.8820  141.0950 N   0  0  0  0  0  2  0  0  0  0  0  0
  190.0860  177.3790  143.5550 C   0  0  2  0  0  3  0  0  0  0  0  0
  189.3660  175.2930  142.6590 N   0  0  0  0  0  0  0  0  0  0  0  0
  190.6520  177.1170  144.9650 C   0  0  2  0  0  3  0  0  0  0  0  0
  187.7850  177.9580  144.6070 C   0  0  0  0  0  1  0  0  0  0  0  0
  191.6940  175.5210  143.4840 C   0  0  1  0  0  3  0  0  0  0  0  0
  1  6  1  0  0  0  0
  1 16  1  0  0  0  0
  2  8  2  0  0  0  0
  4 20  1  0  0  0  0
  5 24  1  0  0  0  0
  5 27  1  1  0  0  0
  8  7  2  0  0  0  0
  8 14  1  0  0  0  0
  9 14  1  0  0  0  0
  9 18  1  0  0  0  0
 10 26  1  0  0  0  0
 10  8  1  1  0  0  0
 11 15  2  0  0  0  0
 12 25  1  1  0  0  0
 12 28  1  0  0  0  0
 12 24  1  0  0  0  0
 13  9  2  0  0  0  0
 15 19  1  0  0  0  0
 16 28  1  0  0  0  0
 17  3  2  0  0  0  0
 17  5  1  0  0  0  0
 19 25  1  0  0  0  0
 20 16  2  0  0  0  0
 21  1  2  0  0  0  0
 22 21  1  0  0  0  0
 22  4  2  0  0  0  0
 23 15  1  0  0  0  0
 23  6  1  0  0  0  0
 24 26  1  0  0  0  0
 25 17  1  0  0  0  0
 26 13  1  0  0  0  0
 28 10  1  0  0  0  0
M  END
>  <MODEL>
8

>  <REMARK>
 VINA RESULT:      -7.1      2.469      6.111
  Name = 
  0 active torsions:
  status: ('A' for Active; 'I' for Inactive)
                            x       y       z     vdW  Elec       q    Type
                         _______ _______ _______ _____ _____    ______ ____

>  <TORSDO>
F 0

$$$$
=
 OpenBabel11112417383D

 28 32  0  0  1  0  0  0  0  0999 V2000
  190.1140  176.8580  145.1190 C   0  0  0  0  0  0  0  0  0  0  0  0
  193.5380  176.4300  143.7390 O   0  0  0  0  0  0  0  0  0  0  0  0
  188.3880  172.6780  140.6750 O   0  0  0  0  0  0  0  0  0  0  0  0
  190.8650  175.7590  147.5850 C   0  0  0  0  0  3  0  0  0  0  0  0
  189.7560  171.6810  142.4170 C   0  0  2  0  0  3  0  0  0  0  0  0
  189.6290  177.4540  143.8370 C   0  0  0  0  0  2  0  0  0  0  0  0
  194.9390  174.4380  144.0920 O   0  0  0  0  0  0  0  0  0  0  0  0
  193.7130  174.9740  143.4100 S   0  0  0  0  0  0  0  0  0  0  0  0
  192.9310  173.9520  140.9990 C   0  0  0  0  0  0  0  0  0  0  0  0
  192.2940  174.0390  143.9270 C   0  0  2  0  0  3  0  0  0  0  0  0
  186.6030  175.6860  142.7740 O   0  0  0  0  0  0  0  0  0  0  0  0
  189.8990  173.7690  143.6950 C   0  0  2  0  0  3  0  0  0  0  0  0
  192.1060  173.1510  141.6080 N   0  0  0  0  0  0  0  0  0  0  0  0
  193.8590  174.7680  141.7100 N   0  0  0  0  0  2  0  0  0  0  0  0
  187.8150  176.0260  142.7910 C   0  0  0  0  0  0  0  0  0  0  0  0
  190.7480  175.5990  145.1600 C   0  0  0  0  0  0  0  0  0  0  0  0
  189.0370  172.7910  141.7500 C   0  0  0  0  0  0  0  0  0  0  0  0
  192.8640  174.0650  139.5190 C   0  0  0  0  0  1  0  0  0  0  0  0
  188.7910  175.3050  141.9190 C   0  0  0  0  0  2  0  0  0  0  0  0
  191.1050  175.0540  146.4050 C   0  0  0  0  0  3  0  0  0  0  0  0
  189.8730  177.5550  146.3090 C   0  0  0  0  0  3  0  0  0  0  0  0
  190.2510  177.0110  147.5370 C   0  0  0  0  0  3  0  0  0  0  0  0
  188.2310  177.1030  143.6330 N   0  0  0  0  0  2  0  0  0  0  0  0
  190.6200  172.4290  143.4580 C   0  0  2  0  0  3  0  0  0  0  0  0
  189.1200  174.0010  142.4820 N   0  0  0  0  0  0  0  0  0  0  0  0
  192.0520  172.8250  143.0460 C   0  0  2  0  0  3  0  0  0  0  0  0
  190.5210  170.7790  141.4570 C   0  0  0  0  0  1  0  0  0  0  0  0
  190.9890  174.8210  143.8920 C   0  0  1  0  0  3  0  0  0  0  0  0
  1 16  2  0  0  0  0
  1 21  1  0  0  0  0
  3 17  2  0  0  0  0
  5 27  1  6  0  0  0
  5 24  1  0  0  0  0
  6  1  1  0  0  0  0
  8  2  2  0  0  0  0
  8  7  2  0  0  0  0
  9 13  2  0  0  0  0
  9 14  1  0  0  0  0
 10  8  1  6  0  0  0
 11 15  2  0  0  0  0
 12 25  1  6  0  0  0
 12 28  1  0  0  0  0
 13 26  1  0  0  0  0
 14  8  1  0  0  0  0
 15 23  1  0  0  0  0
 16 20  1  0  0  0  0
 17  5  1  0  0  0  0
 17 25  1  0  0  0  0
 18  9  1  0  0  0  0
 19 25  1  0  0  0  0
 19 15  1  0  0  0  0
 20  4  2  0  0  0  0
 21 22  2  0  0  0  0
 22  4  1  0  0  0  0
 23  6  1  0  0  0  0
 24 12  1  0  0  0  0
 26 24  1  0  0  0  0
 26 10  1  0  0  0  0
 28 10  1  0  0  0  0
 28 16  1  0  0  0  0
M  END
>  <MODEL>
9

>  <REMARK>
 VINA RESULT:      -6.9      3.021      3.898
  Name = 
  0 active torsions:
  status: ('A' for Active; 'I' for Inactive)
                            x       y       z     vdW  Elec       q    Type
                         _______ _______ _______ _____ _____    ______ ____

>  <TORSDO>
F 0

$$$$
