=
 OpenBabel11112417253D

 37 43  0  0  1  0  0  0  0  0999 V2000
  192.1860  176.3450  144.7790 C   0  0  0  0  0  2  0  0  0  0  0  0
  192.8870  172.2560  141.2740 C   0  0  0  0  0  0  0  0  0  0  0  0
  189.5030  174.6190  141.7890 C   0  0  0  0  0  0  0  0  0  0  0  0
  193.1670  176.4510  145.8580 N   0  0  0  0  0  0  0  0  0  0  0  0
  188.5770  175.9040  145.0980 O   0  0  0  0  0  0  0  0  0  0  0  0
  190.6550  172.9750  140.4430 C   0  0  0  0  0  0  0  0  0  0  0  0
  189.6480  175.1840  143.0200 N   0  0  0  0  0  0  0  0  0  0  0  0
  191.3710  176.4040  147.5270 C   0  0  0  0  0  0  0  0  0  0  0  0
  190.5120  173.7440  141.5660 C   0  0  0  0  0  0  0  0  0  0  0  0
  188.7000  176.0340  143.7170 C   0  0  0  0  0  0  0  0  0  0  0  0
  189.6780  173.0990  139.4410 C   0  0  0  0  0  3  0  0  0  0  0  0
  192.8230  176.1530  147.2480 C   0  0  0  0  0  2  0  0  0  0  0  0
  191.3410  173.7260  142.6200 C   0  0  0  0  0  0  0  0  0  0  0  0
  193.8840  173.2270  140.6690 C   0  0  0  0  0  1  0  0  0  0  0  0
  187.4440  175.8300  140.9120 C   0  0  0  0  0  2  0  0  0  0  0  0
  188.6180  174.0260  139.6190 C   0  0  0  0  0  3  0  0  0  0  0  0
  192.4920  172.7660  142.6940 C   0  0  0  0  0  2  0  0  0  0  0  0
  190.2940  175.6850  146.7550 C   0  0  1  0  0  3  0  0  0  0  0  0
  189.4120  176.6450  145.9670 C   0  0  0  0  0  2  0  0  0  0  0  0
  188.5250  174.8120  140.7940 C   0  0  0  0  0  0  0  0  0  0  0  0
  190.7920  174.6170  143.5340 C   0  0  0  0  0  0  0  0  0  0  0  0
  191.7600  172.1170  140.3740 O   0  0  0  0  0  0  0  0  0  0  0  0
  187.9000  176.9150  143.0650 C   0  0  0  0  0  0  0  0  0  0  0  0
  193.5670  170.9100  141.4160 C   0  0  0  0  0  1  0  0  0  0  0  0
  190.7810  174.5940  145.9860 O   0  0  0  0  0  0  0  0  0  0  0  0
  191.0610  177.1920  148.4060 O   0  0  0  0  0  0  0  0  0  0  0  0
  191.4920  174.9760  144.8120 C   0  0  2  0  0  3  0  0  0  0  0  0
  187.9850  177.0780  141.5800 C   0  0  0  0  0  2  0  0  0  0  0  0
  194.9000  176.9770  144.3750 O   0  0  0  0  0  0  0  0  0  0  0  0
  194.5300  176.7530  145.5590 C   0  0  0  0  0  3  0  0  0  0  0  0
  186.5810  179.0270  143.3000 C   0  0  0  0  0  3  0  0  0  0  0  0
  186.8830  177.7390  143.7720 C   0  0  0  0  0  0  0  0  0  0  0  0
  186.1730  177.2420  144.8770 C   0  0  0  0  0  3  0  0  0  0  0  0
  184.4650  177.4830  146.6830 C   0  0  0  0  0  1  0  0  0  0  0  0
  184.9190  179.3050  145.0380 C   0  0  0  0  0  3  0  0  0  0  0  0
  185.2010  178.0210  145.5100 C   0  0  0  0  0  0  0  0  0  0  0  0
  185.6080  179.8070  143.9310 C   0  0  0  0  0  3  0  0  0  0  0  0
  1  4  1  0  0  0  0
  2 24  1  0  0  0  0
  2 17  1  0  0  0  0
  3  7  1  0  0  0  0
  4 12  1  0  0  0  0
  5 19  1  0  0  0  0
  6  9  2  0  0  0  0
  7 21  1  0  0  0  0
  7 10  1  0  0  0  0
  8 26  2  0  0  0  0
  9  3  1  0  0  0  0
  9 13  1  0  0  0  0
 10  5  1  0  0  0  0
 11 16  2  0  0  0  0
 11  6  1  0  0  0  0
 12  8  1  0  0  0  0
 13 17  1  0  0  0  0
 13 21  2  0  0  0  0
 14  2  1  0  0  0  0
 15 28  1  0  0  0  0
 16 20  1  0  0  0  0
 18 19  1  6  0  0  0
 18  8  1  0  0  0  0
 20 15  1  0  0  0  0
 20  3  2  0  0  0  0
 21 27  1  0  0  0  0
 22  6  1  0  0  0  0
 22  2  1  0  0  0  0
 23 10  2  0  0  0  0
 23 32  1  0  0  0  0
 25 18  1  0  0  0  0
 27  1  1  1  0  0  0
 27 25  1  0  0  0  0
 28 23  1  0  0  0  0
 29 30  2  0  0  0  0
 30  4  1  0  0  0  0
 31 32  2  0  0  0  0
 31 37  1  0  0  0  0
 32 33  1  0  0  0  0
 33 36  2  0  0  0  0
 35 36  1  0  0  0  0
 36 34  1  0  0  0  0
 37 35  2  0  0  0  0
M  END
>  <MODEL>
1

>  <REMARK>
 VINA RESULT:      -9.6      0.000      0.000
  Name = 
  1 active torsions:
  status: ('A' for Active; 'I' for Inactive)
    1  A    between atoms: C_23  and  C_30
                            x       y       z     vdW  Elec       q    Type
                         _______ _______ _______ _____ _____    ______ ____

>  <TORSDO>
F 1

$$$$
=
 OpenBabel11112417253D

 37 43  0  0  1  0  0  0  0  0999 V2000
  190.6030  172.3610  142.6410 C   0  0  0  0  0  2  0  0  0  0  0  0
  195.7780  173.4640  143.8670 C   0  0  0  0  0  0  0  0  0  0  0  0
  192.3770  175.5410  145.0630 C   0  0  0  0  0  0  0  0  0  0  0  0
  190.3810  171.4200  141.5440 N   0  0  0  0  0  0  0  0  0  0  0  0
  189.4570  175.8200  142.8600 O   0  0  0  0  0  0  0  0  0  0  0  0
  194.7530  175.1930  145.3340 C   0  0  0  0  0  0  0  0  0  0  0  0
  191.4050  175.1640  144.1870 N   0  0  0  0  0  0  0  0  0  0  0  0
  188.9690  173.0590  140.3920 C   0  0  0  0  0  0  0  0  0  0  0  0
  193.5600  174.9930  144.6950 C   0  0  0  0  0  0  0  0  0  0  0  0
  190.0440  175.6630  144.1130 C   0  0  0  0  0  0  0  0  0  0  0  0
  194.7560  176.0340  146.4590 C   0  0  0  0  0  3  0  0  0  0  0  0
  189.8430  171.8480  140.2540 C   0  0  0  0  0  2  0  0  0  0  0  0
  193.3930  174.2420  143.5970 C   0  0  0  0  0  0  0  0  0  0  0  0
  195.6540  172.1550  144.6250 C   0  0  0  0  0  1  0  0  0  0  0  0
  191.0460  176.9070  146.7470 C   0  0  0  0  0  2  0  0  0  0  0  0
  193.5340  176.6060  146.8990 C   0  0  0  0  0  3  0  0  0  0  0  0
  194.5580  173.5990  142.9040 C   0  0  0  0  0  2  0  0  0  0  0  0
  189.5020  174.3430  140.9740 C   0  0  1  0  0  3  0  0  0  0  0  0
  188.7700  174.7460  142.2470 C   0  0  0  0  0  2  0  0  0  0  0  0
  192.3210  176.3530  146.2110 C   0  0  0  0  0  0  0  0  0  0  0  0
  192.0470  174.3600  143.2720 C   0  0  0  0  0  0  0  0  0  0  0  0
  195.8870  174.5500  144.8180 O   0  0  0  0  0  0  0  0  0  0  0  0
  189.3420  176.0230  145.2170 C   0  0  0  0  0  0  0  0  0  0  0  0
  197.0440  173.4100  143.0380 C   0  0  0  0  0  1  0  0  0  0  0  0
  190.9170  174.3640  141.0960 O   0  0  0  0  0  0  0  0  0  0  0  0
  187.8110  173.0040  140.0080 O   0  0  0  0  0  0  0  0  0  0  0  0
  191.4250  173.5660  142.1620 C   0  0  2  0  0  3  0  0  0  0  0  0
  189.9350  175.8870  146.5840 C   0  0  0  0  0  2  0  0  0  0  0  0
  191.2990  169.6360  142.7500 O   0  0  0  0  0  0  0  0  0  0  0  0
  190.7880  170.0580  141.6780 C   0  0  0  0  0  3  0  0  0  0  0  0
  186.9980  176.2060  146.0710 C   0  0  0  0  0  3  0  0  0  0  0  0
  187.9720  176.5960  145.1370 C   0  0  0  0  0  0  0  0  0  0  0  0
  187.6340  177.5630  144.1760 C   0  0  0  0  0  3  0  0  0  0  0  0
  186.0070  179.1260  143.1060 C   0  0  0  0  0  1  0  0  0  0  0  0
  185.3880  177.7040  145.0620 C   0  0  0  0  0  3  0  0  0  0  0  0
  186.3490  178.1100  144.1350 C   0  0  0  0  0  0  0  0  0  0  0  0
  185.7130  176.7530  146.0320 C   0  0  0  0  0  3  0  0  0  0  0  0
  2 14  1  0  0  0  0
  2 22  1  0  0  0  0
  3 20  1  0  0  0  0
  4 30  1  0  0  0  0
  4  1  1  0  0  0  0
  5 10  1  0  0  0  0
  6 11  2  0  0  0  0
  7  3  1  0  0  0  0
  8 18  1  0  0  0  0
  9  3  2  0  0  0  0
  9  6  1  0  0  0  0
 10  7  1  0  0  0  0
 10 23  2  0  0  0  0
 11 16  1  0  0  0  0
 12  8  1  0  0  0  0
 12  4  1  0  0  0  0
 13  9  1  0  0  0  0
 17 13  1  0  0  0  0
 17  2  1  0  0  0  0
 18 25  1  0  0  0  0
 18 19  1  1  0  0  0
 19  5  1  0  0  0  0
 20 15  1  0  0  0  0
 20 16  2  0  0  0  0
 21 13  2  0  0  0  0
 21  7  1  0  0  0  0
 22  6  1  0  0  0  0
 23 28  1  0  0  0  0
 24  2  1  0  0  0  0
 25 27  1  0  0  0  0
 26  8  2  0  0  0  0
 27  1  1  1  0  0  0
 27 21  1  0  0  0  0
 28 15  1  0  0  0  0
 30 29  2  0  0  0  0
 32 23  1  0  0  0  0
 32 31  2  0  0  0  0
 33 32  1  0  0  0  0
 34 36  1  0  0  0  0
 35 37  2  0  0  0  0
 36 33  2  0  0  0  0
 36 35  1  0  0  0  0
 37 31  1  0  0  0  0
M  END
>  <MODEL>
2

>  <REMARK>
 VINA RESULT:      -9.6      2.093      5.498
  Name = 
  1 active torsions:
  status: ('A' for Active; 'I' for Inactive)
    1  A    between atoms: C_23  and  C_30
                            x       y       z     vdW  Elec       q    Type
                         _______ _______ _______ _____ _____    ______ ____

>  <TORSDO>
F 1

$$$$
=
 OpenBabel11112417253D

 37 43  0  0  1  0  0  0  0  0999 V2000
  188.3200  175.1120  141.6060 C   0  0  0  0  0  2  0  0  0  0  0  0
  193.5970  174.0210  142.2830 C   0  0  0  0  0  0  0  0  0  0  0  0
  190.9290  175.5440  145.0880 C   0  0  0  0  0  0  0  0  0  0  0  0
  187.8380  175.1580  140.2260 N   0  0  0  0  0  0  0  0  0  0  0  0
  188.2050  177.7870  144.0860 O   0  0  0  0  0  0  0  0  0  0  0  0
  193.1090  174.5950  144.6550 C   0  0  0  0  0  0  0  0  0  0  0  0
  189.8880  176.0330  144.3590 N   0  0  0  0  0  0  0  0  0  0  0  0
  186.9470  177.4140  140.5890 C   0  0  0  0  0  0  0  0  0  0  0  0
  191.9070  175.1130  144.2560 C   0  0  0  0  0  0  0  0  0  0  0  0
  188.7250  176.7470  144.8530 C   0  0  0  0  0  0  0  0  0  0  0  0
  193.3530  174.5040  146.0350 C   0  0  0  0  0  3  0  0  0  0  0  0
  187.4410  176.4120  139.5870 C   0  0  0  0  0  2  0  0  0  0  0  0
  191.5310  175.2890  142.9810 C   0  0  0  0  0  0  0  0  0  0  0  0
  193.1080  172.5970  142.0960 C   0  0  0  0  0  1  0  0  0  0  0  0
  190.0440  175.7780  147.4620 C   0  0  0  0  0  2  0  0  0  0  0  0
  192.3440  174.9160  146.9450 C   0  0  0  0  0  3  0  0  0  0  0  0
  192.4650  174.9990  141.8430 C   0  0  0  0  0  2  0  0  0  0  0  0
  187.8250  177.8790  141.7220 C   0  0  1  0  0  3  0  0  0  0  0  0
  187.2390  177.5290  143.0850 C   0  0  0  0  0  2  0  0  0  0  0  0
  191.1080  175.4290  146.4800 C   0  0  0  0  0  0  0  0  0  0  0  0
  190.2740  175.8770  143.0460 C   0  0  0  0  0  0  0  0  0  0  0  0
  194.0130  174.1990  143.6590 O   0  0  0  0  0  0  0  0  0  0  0  0
  188.1560  176.4660  146.0520 C   0  0  0  0  0  0  0  0  0  0  0  0
  194.7950  174.2310  141.3800 C   0  0  0  0  0  1  0  0  0  0  0  0
  189.1870  177.5080  141.5730 O   0  0  0  0  0  0  0  0  0  0  0  0
  185.8210  177.8690  140.4700 O   0  0  0  0  0  0  0  0  0  0  0  0
  189.4490  176.1300  141.8190 C   0  0  2  0  0  3  0  0  0  0  0  0
  188.6890  175.3680  146.9180 C   0  0  0  0  0  2  0  0  0  0  0  0
  188.2140  172.8700  139.9060 O   0  0  0  0  0  0  0  0  0  0  0  0
  187.8420  173.9750  139.4270 C   0  0  0  0  0  3  0  0  0  0  0  0
  185.6950  176.7910  146.3550 C   0  0  0  0  0  3  0  0  0  0  0  0
  187.0050  177.2400  146.5880 C   0  0  0  0  0  0  0  0  0  0  0  0
  187.1940  178.3920  147.3700 C   0  0  0  0  0  3  0  0  0  0  0  0
  186.3160  180.3110  148.7050 C   0  0  0  0  0  1  0  0  0  0  0  0
  184.8020  178.6380  147.6380 C   0  0  0  0  0  3  0  0  0  0  0  0
  186.1000  179.0900  147.8870 C   0  0  0  0  0  0  0  0  0  0  0  0
  184.5990  177.4870  146.8730 C   0  0  0  0  0  3  0  0  0  0  0  0
  2 22  1  0  0  0  0
  3 20  1  0  0  0  0
  4  1  1  0  0  0  0
  5 10  1  0  0  0  0
  6 11  2  0  0  0  0
  7 10  1  0  0  0  0
  7  3  1  0  0  0  0
  8 18  1  0  0  0  0
  9  6  1  0  0  0  0
  9  3  2  0  0  0  0
 10 23  2  0  0  0  0
 11 16  1  0  0  0  0
 12  4  1  0  0  0  0
 12  8  1  0  0  0  0
 13 21  2  0  0  0  0
 13  9  1  0  0  0  0
 14  2  1  0  0  0  0
 17  2  1  0  0  0  0
 17 13  1  0  0  0  0
 18 19  1  1  0  0  0
 19  5  1  0  0  0  0
 20 16  2  0  0  0  0
 20 15  1  0  0  0  0
 21  7  1  0  0  0  0
 22  6  1  0  0  0  0
 23 32  1  0  0  0  0
 23 28  1  0  0  0  0
 24  2  1  0  0  0  0
 25 18  1  0  0  0  0
 25 27  1  0  0  0  0
 26  8  2  0  0  0  0
 27  1  1  1  0  0  0
 27 21  1  0  0  0  0
 28 15  1  0  0  0  0
 30 29  2  0  0  0  0
 30  4  1  0  0  0  0
 31 32  2  0  0  0  0
 31 37  1  0  0  0  0
 32 33  1  0  0  0  0
 33 36  2  0  0  0  0
 35 36  1  0  0  0  0
 36 34  1  0  0  0  0
 37 35  2  0  0  0  0
M  END
>  <MODEL>
3

>  <REMARK>
 VINA RESULT:      -9.5      2.124      5.322
  Name = 
  1 active torsions:
  status: ('A' for Active; 'I' for Inactive)
    1  A    between atoms: C_23  and  C_30
                            x       y       z     vdW  Elec       q    Type
                         _______ _______ _______ _____ _____    ______ ____

>  <TORSDO>
F 1

$$$$
=
 OpenBabel11112417253D

 37 43  0  0  1  0  0  0  0  0999 V2000
  190.7300  172.1720  142.4800 C   0  0  0  0  0  2  0  0  0  0  0  0
  195.9090  173.0050  143.8880 C   0  0  0  0  0  0  0  0  0  0  0  0
  192.5940  175.3100  144.8890 C   0  0  0  0  0  0  0  0  0  0  0  0
  190.4970  171.2130  141.4010 N   0  0  0  0  0  0  0  0  0  0  0  0
  189.7850  175.6960  142.5610 O   0  0  0  0  0  0  0  0  0  0  0  0
  194.9330  174.8320  145.2670 C   0  0  0  0  0  0  0  0  0  0  0  0
  191.6360  174.9660  143.9840 N   0  0  0  0  0  0  0  0  0  0  0  0
  189.2300  172.8990  140.1480 C   0  0  0  0  0  0  0  0  0  0  0  0
  193.7560  174.6840  144.5840 C   0  0  0  0  0  0  0  0  0  0  0  0
  190.3110  175.5410  143.8410 C   0  0  0  0  0  0  0  0  0  0  0  0
  194.9410  175.7030  146.3680 C   0  0  0  0  0  3  0  0  0  0  0  0
  190.0360  171.6360  140.0790 C   0  0  0  0  0  2  0  0  0  0  0  0
  193.5880  173.9120  143.5010 C   0  0  0  0  0  0  0  0  0  0  0  0
  195.6780  171.7280  144.6750 C   0  0  0  0  0  1  0  0  0  0  0  0
  191.2810  176.7990  146.4800 C   0  0  0  0  0  2  0  0  0  0  0  0
  193.7390  176.3580  146.7420 C   0  0  0  0  0  3  0  0  0  0  0  0
  194.7390  173.1830  142.8730 C   0  0  0  0  0  2  0  0  0  0  0  0
  189.8160  174.1660  140.7180 C   0  0  1  0  0  3  0  0  0  0  0  0
  189.0600  174.6470  141.9490 C   0  0  0  0  0  2  0  0  0  0  0  0
  192.5410  176.1570  146.0120 C   0  0  0  0  0  0  0  0  0  0  0  0
  192.2650  174.1000  143.1180 C   0  0  0  0  0  0  0  0  0  0  0  0
  196.0450  174.1100  144.8150 O   0  0  0  0  0  0  0  0  0  0  0  0
  189.5890  175.9730  144.9060 C   0  0  0  0  0  0  0  0  0  0  0  0
  197.2020  172.8540  143.1140 C   0  0  0  0  0  1  0  0  0  0  0  0
  191.2240  174.1080  140.8980 O   0  0  0  0  0  0  0  0  0  0  0  0
  188.0880  172.9010  139.7200 O   0  0  0  0  0  0  0  0  0  0  0  0
  191.6410  173.3120  142.0040 C   0  0  2  0  0  3  0  0  0  0  0  0
  190.1190  175.8420  146.2990 C   0  0  0  0  0  2  0  0  0  0  0  0
  191.2580  169.4140  142.6900 O   0  0  0  0  0  0  0  0  0  0  0  0
  190.8160  169.8350  141.5870 C   0  0  0  0  0  3  0  0  0  0  0  0
  188.0000  177.4210  143.6290 C   0  0  0  0  0  3  0  0  0  0  0  0
  188.2600  176.6220  144.7540 C   0  0  0  0  0  0  0  0  0  0  0  0
  187.2300  176.4160  145.6870 C   0  0  0  0  0  3  0  0  0  0  0  0
  184.9030  176.7910  146.5130 C   0  0  0  0  0  1  0  0  0  0  0  0
  185.7380  177.8150  144.3950 C   0  0  0  0  0  3  0  0  0  0  0  0
  185.9790  177.0120  145.5120 C   0  0  0  0  0  0  0  0  0  0  0  0
  186.7480  178.0180  143.4520 C   0  0  0  0  0  3  0  0  0  0  0  0
  2 14  1  0  0  0  0
  2 22  1  0  0  0  0
  3 20  1  0  0  0  0
  4 30  1  0  0  0  0
  4  1  1  0  0  0  0
  5 10  1  0  0  0  0
  6 11  2  0  0  0  0
  7  3  1  0  0  0  0
  8 18  1  0  0  0  0
  9  3  2  0  0  0  0
  9  6  1  0  0  0  0
 10  7  1  0  0  0  0
 10 23  2  0  0  0  0
 11 16  1  0  0  0  0
 12  8  1  0  0  0  0
 12  4  1  0  0  0  0
 13  9  1  0  0  0  0
 17 13  1  0  0  0  0
 17  2  1  0  0  0  0
 18 25  1  0  0  0  0
 18 19  1  1  0  0  0
 19  5  1  0  0  0  0
 20 15  1  0  0  0  0
 20 16  2  0  0  0  0
 21 13  2  0  0  0  0
 21  7  1  0  0  0  0
 22  6  1  0  0  0  0
 23 28  1  0  0  0  0
 24  2  1  0  0  0  0
 25 27  1  0  0  0  0
 26  8  2  0  0  0  0
 27  1  1  1  0  0  0
 27 21  1  0  0  0  0
 28 15  1  0  0  0  0
 30 29  2  0  0  0  0
 31 32  1  0  0  0  0
 32 23  1  0  0  0  0
 32 33  2  0  0  0  0
 35 36  2  0  0  0  0
 36 33  1  0  0  0  0
 36 34  1  0  0  0  0
 37 31  2  0  0  0  0
 37 35  1  0  0  0  0
M  END
>  <MODEL>
4

>  <REMARK>
 VINA RESULT:      -9.1      2.155      5.473
  Name = 
  1 active torsions:
  status: ('A' for Active; 'I' for Inactive)
    1  A    between atoms: C_23  and  C_30
                            x       y       z     vdW  Elec       q    Type
                         _______ _______ _______ _____ _____    ______ ____

>  <TORSDO>
F 1

$$$$
=
 OpenBabel11112417253D

 37 43  0  0  1  0  0  0  0  0999 V2000
  191.3950  172.6950  140.9420 C   0  0  0  0  0  2  0  0  0  0  0  0
  187.7870  176.2260  142.9450 C   0  0  0  0  0  0  0  0  0  0  0  0
  191.1670  174.6910  144.8260 C   0  0  0  0  0  0  0  0  0  0  0  0
  190.9980  171.9760  139.7320 N   0  0  0  0  0  0  0  0  0  0  0  0
  192.3030  171.2650  144.1750 O   0  0  0  0  0  0  0  0  0  0  0  0
  189.3840  176.3230  144.8530 C   0  0  0  0  0  0  0  0  0  0  0  0
  191.4860  173.5700  144.1220 N   0  0  0  0  0  0  0  0  0  0  0  0
  191.4300  169.8300  140.8390 C   0  0  0  0  0  0  0  0  0  0  0  0
  190.0100  175.2140  144.3520 C   0  0  0  0  0  0  0  0  0  0  0  0
  192.5400  172.6160  144.4150 C   0  0  0  0  0  0  0  0  0  0  0  0
  189.9810  176.9700  145.9460 C   0  0  0  0  0  3  0  0  0  0  0  0
  190.6880  170.5470  139.7490 C   0  0  0  0  0  2  0  0  0  0  0  0
  189.5590  174.4710  143.3310 C   0  0  0  0  0  0  0  0  0  0  0  0
  188.3800  177.1150  141.8680 C   0  0  0  0  0  1  0  0  0  0  0  0
  193.1540  174.8880  146.4020 C   0  0  0  0  0  2  0  0  0  0  0  0
  191.2100  176.4750  146.4570 C   0  0  0  0  0  3  0  0  0  0  0  0
  188.2370  174.7560  142.6810 C   0  0  0  0  0  2  0  0  0  0  0  0
  191.2630  170.2250  142.2840 C   0  0  1  0  0  3  0  0  0  0  0  0
  192.5690  170.7020  142.9050 C   0  0  0  0  0  2  0  0  0  0  0  0
  191.8280  175.3330  145.8900 C   0  0  0  0  0  0  0  0  0  0  0  0
  190.4750  173.4360  143.1970 C   0  0  0  0  0  0  0  0  0  0  0  0
  188.1880  176.7280  144.2440 O   0  0  0  0  0  0  0  0  0  0  0  0
  193.7270  172.9890  144.9560 C   0  0  0  0  0  0  0  0  0  0  0  0
  186.2790  176.2960  142.8390 C   0  0  0  0  0  1  0  0  0  0  0  0
  190.1690  171.1020  142.5090 O   0  0  0  0  0  0  0  0  0  0  0  0
  192.1660  168.9020  140.5470 O   0  0  0  0  0  0  0  0  0  0  0  0
  190.3930  172.4410  142.0760 C   0  0  2  0  0  3  0  0  0  0  0  0
  194.0210  174.4270  145.2460 C   0  0  0  0  0  2  0  0  0  0  0  0
  191.0100  173.9270  138.4400 O   0  0  0  0  0  0  0  0  0  0  0  0
  190.8010  172.6870  138.5100 C   0  0  0  0  0  3  0  0  0  0  0  0
  196.1160  172.2490  144.9530 C   0  0  0  0  0  3  0  0  0  0  0  0
  194.7810  172.0050  145.3170 C   0  0  0  0  0  0  0  0  0  0  0  0
  194.4860  170.8520  146.0630 C   0  0  0  0  0  3  0  0  0  0  0  0
  195.1650  168.7340  147.1980 C   0  0  0  0  0  1  0  0  0  0  0  0
  196.8170  170.2020  146.0370 C   0  0  0  0  0  3  0  0  0  0  0  0
  195.4960  169.9530  146.4160 C   0  0  0  0  0  0  0  0  0  0  0  0
  197.1270  171.3520  145.3070 C   0  0  0  0  0  3  0  0  0  0  0  0
  2 22  1  0  0  0  0
  3 20  1  0  0  0  0
  4 12  1  0  0  0  0
  4  1  1  0  0  0  0
  5 10  1  0  0  0  0
  6 11  2  0  0  0  0
  7 10  1  0  0  0  0
  7  3  1  0  0  0  0
  8 18  1  0  0  0  0
  9  3  2  0  0  0  0
  9  6  1  0  0  0  0
 10 23  2  0  0  0  0
 11 16  1  0  0  0  0
 12  8  1  0  0  0  0
 13  9  1  0  0  0  0
 14  2  1  0  0  0  0
 17  2  1  0  0  0  0
 17 13  1  0  0  0  0
 18 25  1  0  0  0  0
 18 19  1  6  0  0  0
 19  5  1  0  0  0  0
 20 15  1  0  0  0  0
 20 16  2  0  0  0  0
 21 13  2  0  0  0  0
 21  7  1  0  0  0  0
 22  6  1  0  0  0  0
 23 28  1  0  0  0  0
 23 32  1  0  0  0  0
 24  2  1  0  0  0  0
 26  8  2  0  0  0  0
 27  1  1  1  0  0  0
 27 25  1  0  0  0  0
 27 21  1  0  0  0  0
 28 15  1  0  0  0  0
 29 30  2  0  0  0  0
 30  4  1  0  0  0  0
 31 37  2  0  0  0  0
 31 32  1  0  0  0  0
 32 33  2  0  0  0  0
 33 36  1  0  0  0  0
 35 36  2  0  0  0  0
 36 34  1  0  0  0  0
 37 35  1  0  0  0  0
M  END
>  <MODEL>
5

>  <REMARK>
 VINA RESULT:      -9.0      2.917      8.279
  Name = 
  1 active torsions:
  status: ('A' for Active; 'I' for Inactive)
    1  A    between atoms: C_23  and  C_30
                            x       y       z     vdW  Elec       q    Type
                         _______ _______ _______ _____ _____    ______ ____

>  <TORSDO>
F 1

$$$$
=
 OpenBabel11112417253D

 37 43  0  0  1  0  0  0  0  0999 V2000
  189.3680  175.0150  142.0610 C   0  0  0  0  0  2  0  0  0  0  0  0
  186.6410  177.3450  146.1390 C   0  0  0  0  0  0  0  0  0  0  0  0
  190.6260  176.1500  146.0920 C   0  0  0  0  0  0  0  0  0  0  0  0
  188.5630  174.4790  140.9640 N   0  0  0  0  0  0  0  0  0  0  0  0
  191.6930  173.1920  144.2040 O   0  0  0  0  0  0  0  0  0  0  0  0
  188.8800  177.3770  147.2270 C   0  0  0  0  0  0  0  0  0  0  0  0
  190.7190  175.2660  145.0600 N   0  0  0  0  0  0  0  0  0  0  0  0
  189.6220  172.2830  141.2300 C   0  0  0  0  0  0  0  0  0  0  0  0
  189.3350  176.5250  146.2570 C   0  0  0  0  0  0  0  0  0  0  0  0
  191.8820  174.4910  144.6660 C   0  0  0  0  0  0  0  0  0  0  0  0
  189.8220  177.9050  148.1240 C   0  0  0  0  0  3  0  0  0  0  0  0
  188.4240  173.0410  140.7380 C   0  0  0  0  0  2  0  0  0  0  0  0
  188.5640  175.9190  145.3430 C   0  0  0  0  0  0  0  0  0  0  0  0
  186.6340  178.5210  145.1800 C   0  0  0  0  0  1  0  0  0  0  0  0
  193.0670  176.4160  146.7580 C   0  0  0  0  0  2  0  0  0  0  0  0
  191.1920  177.5640  147.9700 C   0  0  0  0  0  3  0  0  0  0  0  0
  187.0710  176.0660  145.3570 C   0  0  0  0  0  2  0  0  0  0  0  0
  190.0490  172.3550  142.6740 C   0  0  1  0  0  3  0  0  0  0  0  0
  191.4450  172.9440  142.8330 C   0  0  0  0  0  2  0  0  0  0  0  0
  191.6140  176.6900  146.9380 C   0  0  0  0  0  0  0  0  0  0  0  0
  189.4280  175.1220  144.6030 C   0  0  0  0  0  0  0  0  0  0  0  0
  187.5070  177.6570  147.2580 O   0  0  0  0  0  0  0  0  0  0  0  0
  193.1450  174.9730  144.7740 C   0  0  0  0  0  0  0  0  0  0  0  0
  185.2310  177.1470  146.6530 C   0  0  0  0  0  1  0  0  0  0  0  0
  189.0780  172.9480  143.5230 O   0  0  0  0  0  0  0  0  0  0  0  0
  190.2480  171.5850  140.4490 O   0  0  0  0  0  0  0  0  0  0  0  0
  188.9710  174.3630  143.3920 C   0  0  2  0  0  3  0  0  0  0  0  0
  193.4000  176.3580  145.2800 C   0  0  0  0  0  2  0  0  0  0  0  0
  187.8430  176.6080  140.3100 O   0  0  0  0  0  0  0  0  0  0  0  0
  187.8010  175.3600  140.1400 C   0  0  0  0  0  3  0  0  0  0  0  0
  194.8850  174.2270  143.1390 C   0  0  0  0  0  3  0  0  0  0  0  0
  194.3400  174.1570  144.4320 C   0  0  0  0  0  0  0  0  0  0  0  0
  194.9770  173.3480  145.3880 C   0  0  0  0  0  3  0  0  0  0  0  0
  196.7700  171.7520  146.0750 C   0  0  0  0  0  1  0  0  0  0  0  0
  196.6380  172.6800  143.7610 C   0  0  0  0  0  3  0  0  0  0  0  0
  196.1150  172.6100  145.0540 C   0  0  0  0  0  0  0  0  0  0  0  0
  196.0240  173.4910  142.8040 C   0  0  0  0  0  3  0  0  0  0  0  0
  2 24  1  0  0  0  0
  2 22  1  0  0  0  0
  3  9  2  0  0  0  0
  3 20  1  0  0  0  0
  4  1  1  0  0  0  0
  5 10  1  0  0  0  0
  6 22  1  0  0  0  0
  6 11  2  0  0  0  0
  7  3  1  0  0  0  0
  8 18  1  0  0  0  0
  9  6  1  0  0  0  0
 10 23  2  0  0  0  0
 10  7  1  0  0  0  0
 12  4  1  0  0  0  0
 12  8  1  0  0  0  0
 13 17  1  0  0  0  0
 13  9  1  0  0  0  0
 14  2  1  0  0  0  0
 15 20  1  0  0  0  0
 16 11  1  0  0  0  0
 17  2  1  0  0  0  0
 18 19  1  6  0  0  0
 18 25  1  0  0  0  0
 19  5  1  0  0  0  0
 20 16  2  0  0  0  0
 21  7  1  0  0  0  0
 21 13  2  0  0  0  0
 23 28  1  0  0  0  0
 26  8  2  0  0  0  0
 27  1  1  6  0  0  0
 27 25  1  0  0  0  0
 27 21  1  0  0  0  0
 28 15  1  0  0  0  0
 30 29  2  0  0  0  0
 30  4  1  0  0  0  0
 31 32  1  0  0  0  0
 32 23  1  0  0  0  0
 32 33  2  0  0  0  0
 35 36  2  0  0  0  0
 36 33  1  0  0  0  0
 36 34  1  0  0  0  0
 37 31  2  0  0  0  0
 37 35  1  0  0  0  0
M  END
>  <MODEL>
6

>  <REMARK>
 VINA RESULT:      -8.8      2.361      8.160
  Name = 
  1 active torsions:
  status: ('A' for Active; 'I' for Inactive)
    1  A    between atoms: C_23  and  C_30
                            x       y       z     vdW  Elec       q    Type
                         _______ _______ _______ _____ _____    ______ ____

>  <TORSDO>
F 1

$$$$
=
 OpenBabel11112417253D

 37 43  0  0  1  0  0  0  0  0999 V2000
  193.7950  175.7870  143.0380 C   0  0  0  0  0  2  0  0  0  0  0  0
  192.9920  172.4390  138.8370 C   0  0  0  0  0  0  0  0  0  0  0  0
  190.1190  174.2150  141.2660 C   0  0  0  0  0  0  0  0  0  0  0  0
  195.1570  175.8510  143.5660 N   0  0  0  0  0  0  0  0  0  0  0  0
  190.7630  174.8220  144.8260 O   0  0  0  0  0  0  0  0  0  0  0  0
  190.5960  172.9760  139.2470 C   0  0  0  0  0  0  0  0  0  0  0  0
  190.7890  174.5910  142.3910 N   0  0  0  0  0  0  0  0  0  0  0  0
  194.3350  175.3000  145.8100 C   0  0  0  0  0  0  0  0  0  0  0  0
  190.9520  173.5300  140.4470 C   0  0  0  0  0  0  0  0  0  0  0  0
  190.2300  175.1850  143.5920 C   0  0  0  0  0  0  0  0  0  0  0  0
  189.2640  173.1250  138.8300 C   0  0  0  0  0  3  0  0  0  0  0  0
  195.5060  175.2930  144.8720 C   0  0  0  0  0  2  0  0  0  0  0  0
  192.1730  173.4560  140.9960 C   0  0  0  0  0  0  0  0  0  0  0  0
  193.5510  173.6200  138.0640 C   0  0  0  0  0  1  0  0  0  0  0  0
  187.8340  175.2620  141.6580 C   0  0  0  0  0  2  0  0  0  0  0  0
  188.3630  173.8620  139.6430 C   0  0  0  0  0  3  0  0  0  0  0  0
  193.2720  172.6600  140.3560 C   0  0  0  0  0  2  0  0  0  0  0  0
  193.0590  174.5750  145.4670 C   0  0  1  0  0  3  0  0  0  0  0  0
  191.8690  175.5210  145.3660 C   0  0  0  0  0  2  0  0  0  0  0  0
  188.7850  174.4310  140.8700 C   0  0  0  0  0  0  0  0  0  0  0  0
  192.0660  174.1090  142.2180 C   0  0  0  0  0  0  0  0  0  0  0  0
  191.5850  172.2960  138.5230 O   0  0  0  0  0  0  0  0  0  0  0  0
  189.1800  176.0430  143.5560 C   0  0  0  0  0  0  0  0  0  0  0  0
  193.7230  171.1920  138.3880 C   0  0  0  0  0  1  0  0  0  0  0  0
  193.1870  173.6950  144.3590 O   0  0  0  0  0  0  0  0  0  0  0  0
  194.4280  175.8890  146.8750 O   0  0  0  0  0  0  0  0  0  0  0  0
  193.2580  174.3510  143.0970 C   0  0  2  0  0  3  0  0  0  0  0  0
  188.5630  176.4500  142.2550 C   0  0  0  0  0  2  0  0  0  0  0  0
  195.9840  176.8350  141.6100 O   0  0  0  0  0  0  0  0  0  0  0  0
  196.2120  176.3770  142.7620 C   0  0  0  0  0  3  0  0  0  0  0  0
  189.3480  177.3590  145.6770 C   0  0  0  0  0  3  0  0  0  0  0  0
  188.5650  176.6000  144.7910 C   0  0  0  0  0  0  0  0  0  0  0  0
  187.2000  176.4310  145.0730 C   0  0  0  0  0  3  0  0  0  0  0  0
  185.1910  176.7910  146.5130 C   0  0  0  0  0  1  0  0  0  0  0  0
  187.4280  177.7280  147.1030 C   0  0  0  0  0  3  0  0  0  0  0  0
  186.6350  176.9860  146.2250 C   0  0  0  0  0  0  0  0  0  0  0  0
  188.7850  177.9160  146.8280 C   0  0  0  0  0  3  0  0  0  0  0  0
  1  4  1  0  0  0  0
  2 17  1  0  0  0  0
  3  7  1  0  0  0  0
  4 12  1  0  0  0  0
  5 19  1  0  0  0  0
  6  9  1  0  0  0  0
  7 10  1  0  0  0  0
  8 26  2  0  0  0  0
  9 13  1  0  0  0  0
  9  3  2  0  0  0  0
 10  5  1  0  0  0  0
 11  6  2  0  0  0  0
 11 16  1  0  0  0  0
 12  8  1  0  0  0  0
 13 21  2  0  0  0  0
 14  2  1  0  0  0  0
 15 28  1  0  0  0  0
 16 20  2  0  0  0  0
 17 13  1  0  0  0  0
 18 19  1  6  0  0  0
 18  8  1  0  0  0  0
 20  3  1  0  0  0  0
 20 15  1  0  0  0  0
 21  7  1  0  0  0  0
 21 27  1  0  0  0  0
 22  2  1  0  0  0  0
 22  6  1  0  0  0  0
 23 10  2  0  0  0  0
 23 32  1  0  0  0  0
 24  2  1  0  0  0  0
 25 18  1  0  0  0  0
 27  1  1  1  0  0  0
 27 25  1  0  0  0  0
 28 23  1  0  0  0  0
 29 30  2  0  0  0  0
 30  4  1  0  0  0  0
 31 37  1  0  0  0  0
 32 33  1  0  0  0  0
 32 31  2  0  0  0  0
 33 36  2  0  0  0  0
 36 34  1  0  0  0  0
 36 35  1  0  0  0  0
 37 35  2  0  0  0  0
M  END
>  <MODEL>
7

>  <REMARK>
 VINA RESULT:      -8.8      1.826      2.511
  Name = 
  1 active torsions:
  status: ('A' for Active; 'I' for Inactive)
    1  A    between atoms: C_23  and  C_30
                            x       y       z     vdW  Elec       q    Type
                         _______ _______ _______ _____ _____    ______ ____

>  <TORSDO>
F 1

$$$$
=
 OpenBabel11112417253D

 37 43  0  0  1  0  0  0  0  0999 V2000
  190.5390  174.2760  141.2840 C   0  0  0  0  0  2  0  0  0  0  0  0
  189.8350  175.2070  146.5890 C   0  0  0  0  0  0  0  0  0  0  0  0
  193.4020  175.2340  144.4480 C   0  0  0  0  0  0  0  0  0  0  0  0
  189.4150  173.6650  140.5770 N   0  0  0  0  0  0  0  0  0  0  0  0
  193.9280  172.9610  141.6170 O   0  0  0  0  0  0  0  0  0  0  0  0
  192.2610  175.7560  146.5140 C   0  0  0  0  0  0  0  0  0  0  0  0
  193.1350  174.5450  143.3040 N   0  0  0  0  0  0  0  0  0  0  0  0
  190.8670  171.8560  139.7840 C   0  0  0  0  0  0  0  0  0  0  0  0
  192.3240  175.1950  145.2670 C   0  0  0  0  0  0  0  0  0  0  0  0
  194.0670  174.1950  142.2480 C   0  0  0  0  0  0  0  0  0  0  0  0
  193.4030  176.4230  146.9860 C   0  0  0  0  0  3  0  0  0  0  0  0
  189.4630  172.2870  140.0910 C   0  0  0  0  0  2  0  0  0  0  0  0
  191.3330  174.5060  144.6830 C   0  0  0  0  0  0  0  0  0  0  0  0
  189.1190  176.4370  146.0600 C   0  0  0  0  0  1  0  0  0  0  0  0
  195.7430  176.1140  143.9780 C   0  0  0  0  0  2  0  0  0  0  0  0
  194.5470  176.5140  146.1500 C   0  0  0  0  0  3  0  0  0  0  0  0
  190.0530  174.2110  145.4080 C   0  0  0  0  0  2  0  0  0  0  0  0
  191.9370  171.8740  140.8450 C   0  0  1  0  0  3  0  0  0  0  0  0
  193.0800  172.8190  140.4940 C   0  0  0  0  0  2  0  0  0  0  0  0
  194.5550  175.9310  144.8580 C   0  0  0  0  0  0  0  0  0  0  0  0
  191.8450  174.0890  143.4610 C   0  0  0  0  0  0  0  0  0  0  0  0
  191.0650  175.6200  147.2320 O   0  0  0  0  0  0  0  0  0  0  0  0
  195.0930  175.0060  141.8870 C   0  0  0  0  0  0  0  0  0  0  0  0
  188.9420  174.5480  147.6180 C   0  0  0  0  0  1  0  0  0  0  0  0
  191.4290  172.0540  142.1590 O   0  0  0  0  0  0  0  0  0  0  0  0
  191.1380  171.4680  138.6580 O   0  0  0  0  0  0  0  0  0  0  0  0
  190.9990  173.3810  142.4440 C   0  0  2  0  0  3  0  0  0  0  0  0
  195.2930  176.3340  142.5470 C   0  0  0  0  0  2  0  0  0  0  0  0
  188.0670  175.5560  140.8690 O   0  0  0  0  0  0  0  0  0  0  0  0
  188.1880  174.3800  140.4340 C   0  0  0  0  0  3  0  0  0  0  0  0
  197.0160  173.6010  141.1240 C   0  0  0  0  0  3  0  0  0  0  0  0
  196.0870  174.6180  140.8510 C   0  0  0  0  0  0  0  0  0  0  0  0
  196.0900  175.2100  139.5770 C   0  0  0  0  0  3  0  0  0  0  0  0
  197.0090  175.4530  137.2680 C   0  0  0  0  0  1  0  0  0  0  0  0
  197.9410  173.8070  138.8970 C   0  0  0  0  0  3  0  0  0  0  0  0
  197.0140  174.8110  138.6080 C   0  0  0  0  0  0  0  0  0  0  0  0
  197.9410  173.2010  140.1550 C   0  0  0  0  0  3  0  0  0  0  0  0
  2 22  1  0  0  0  0
  2 24  1  0  0  0  0
  3 20  2  0  0  0  0
  3  9  1  0  0  0  0
  4  1  1  0  0  0  0
  5 10  1  0  0  0  0
  6 11  1  0  0  0  0
  6 22  1  0  0  0  0
  7 21  1  0  0  0  0
  7  3  1  0  0  0  0
  8 12  1  0  0  0  0
  8 18  1  0  0  0  0
  9  6  2  0  0  0  0
 10  7  1  0  0  0  0
 12  4  1  0  0  0  0
 13  9  1  0  0  0  0
 13 17  1  0  0  0  0
 14  2  1  0  0  0  0
 15 20  1  0  0  0  0
 16 11  2  0  0  0  0
 17  2  1  0  0  0  0
 18 19  1  6  0  0  0
 18 25  1  0  0  0  0
 19  5  1  0  0  0  0
 20 16  1  0  0  0  0
 21 13  2  0  0  0  0
 23 10  2  0  0  0  0
 23 28  1  0  0  0  0
 25 27  1  0  0  0  0
 26  8  2  0  0  0  0
 27  1  1  6  0  0  0
 27 21  1  0  0  0  0
 28 15  1  0  0  0  0
 30  4  1  0  0  0  0
 30 29  2  0  0  0  0
 32 31  1  0  0  0  0
 32 23  1  0  0  0  0
 33 32  2  0  0  0  0
 34 36  1  0  0  0  0
 35 37  1  0  0  0  0
 36 35  2  0  0  0  0
 36 33  1  0  0  0  0
 37 31  2  0  0  0  0
M  END
>  <MODEL>
8

>  <REMARK>
 VINA RESULT:      -8.7      2.617      8.634
  Name = 
  1 active torsions:
  status: ('A' for Active; 'I' for Inactive)
    1  A    between atoms: C_23  and  C_30
                            x       y       z     vdW  Elec       q    Type
                         _______ _______ _______ _____ _____    ______ ____

>  <TORSDO>
F 1

$$$$
=
 OpenBabel11112417253D

 37 43  0  0  1  0  0  0  0  0999 V2000
  194.3980  175.4840  142.7180 C   0  0  0  0  0  2  0  0  0  0  0  0
  195.3680  170.4540  140.9140 C   0  0  0  0  0  0  0  0  0  0  0  0
  191.9350  171.8720  142.7880 C   0  0  0  0  0  0  0  0  0  0  0  0
  195.5570  176.3690  142.8290 N   0  0  0  0  0  0  0  0  0  0  0  0
  192.1250  174.4580  145.3830 O   0  0  0  0  0  0  0  0  0  0  0  0
  192.9900  170.0850  141.5500 C   0  0  0  0  0  0  0  0  0  0  0  0
  192.3200  173.0180  143.4150 N   0  0  0  0  0  0  0  0  0  0  0  0
  195.0300  176.7980  145.1860 C   0  0  0  0  0  0  0  0  0  0  0  0
  193.0130  171.2730  142.2270 C   0  0  0  0  0  0  0  0  0  0  0  0
  191.5170  173.8610  144.2820 C   0  0  0  0  0  0  0  0  0  0  0  0
  191.7540  169.4300  141.4260 C   0  0  0  0  0  3  0  0  0  0  0  0
  196.0920  176.7820  144.1260 C   0  0  0  0  0  2  0  0  0  0  0  0
  194.1110  172.0080  142.4540 C   0  0  0  0  0  0  0  0  0  0  0  0
  195.3290  171.1580  139.5700 C   0  0  0  0  0  1  0  0  0  0  0  0
  189.4160  171.9190  143.1420 C   0  0  0  0  0  2  0  0  0  0  0  0
  190.5920  170.0350  141.9720 C   0  0  0  0  0  3  0  0  0  0  0  0
  195.4720  171.5300  142.0380 C   0  0  0  0  0  2  0  0  0  0  0  0
  194.2520  175.5530  145.5270 C   0  0  1  0  0  3  0  0  0  0  0  0
  192.7610  175.7160  145.2600 C   0  0  0  0  0  2  0  0  0  0  0  0
  190.6670  171.2770  142.6500 C   0  0  0  0  0  0  0  0  0  0  0  0
  193.6790  173.0920  143.2080 C   0  0  0  0  0  0  0  0  0  0  0  0
  194.2010  169.6040  141.0330 O   0  0  0  0  0  0  0  0  0  0  0  0
  190.1890  174.0510  144.0810 C   0  0  0  0  0  0  0  0  0  0  0  0
  196.6100  169.5880  140.9580 C   0  0  0  0  0  1  0  0  0  0  0  0
  194.8060  174.3690  144.9720 O   0  0  0  0  0  0  0  0  0  0  0  0
  194.8090  177.8340  145.7910 O   0  0  0  0  0  0  0  0  0  0  0  0
  194.5950  174.2240  143.5710 C   0  0  2  0  0  3  0  0  0  0  0  0
  189.4880  173.4180  142.9210 C   0  0  0  0  0  2  0  0  0  0  0  0
  195.8790  176.4150  140.5120 O   0  0  0  0  0  0  0  0  0  0  0  0
  196.2640  176.7720  141.6570 C   0  0  0  0  0  3  0  0  0  0  0  0
  189.3150  174.5400  146.3730 C   0  0  0  0  0  3  0  0  0  0  0  0
  189.3530  174.8620  145.0060 C   0  0  0  0  0  0  0  0  0  0  0  0
  188.6330  175.9810  144.5570 C   0  0  0  0  0  3  0  0  0  0  0  0
  187.1140  177.9230  144.9540 C   0  0  0  0  0  1  0  0  0  0  0  0
  187.8380  176.4090  146.8020 C   0  0  0  0  0  3  0  0  0  0  0  0
  187.8760  176.7470  145.4470 C   0  0  0  0  0  0  0  0  0  0  0  0
  188.5590  175.3060  147.2650 C   0  0  0  0  0  3  0  0  0  0  0  0
  1  4  1  0  0  0  0
  2 24  1  0  0  0  0
  2 22  1  0  0  0  0
  2 17  1  0  0  0  0
  3  7  1  0  0  0  0
  4 12  1  0  0  0  0
  6  9  1  0  0  0  0
  7 10  1  0  0  0  0
  8 18  1  0  0  0  0
  8 26  2  0  0  0  0
  9 13  1  0  0  0  0
  9  3  2  0  0  0  0
 10  5  1  0  0  0  0
 11  6  2  0  0  0  0
 11 16  1  0  0  0  0
 12  8  1  0  0  0  0
 13 21  2  0  0  0  0
 14  2  1  0  0  0  0
 16 20  2  0  0  0  0
 17 13  1  0  0  0  0
 18 19  1  6  0  0  0
 19  5  1  0  0  0  0
 20  3  1  0  0  0  0
 20 15  1  0  0  0  0
 21  7  1  0  0  0  0
 21 27  1  0  0  0  0
 22  6  1  0  0  0  0
 23 10  2  0  0  0  0
 23 32  1  0  0  0  0
 25 18  1  0  0  0  0
 27  1  1  1  0  0  0
 27 25  1  0  0  0  0
 28 15  1  0  0  0  0
 28 23  1  0  0  0  0
 29 30  2  0  0  0  0
 30  4  1  0  0  0  0
 31 37  1  0  0  0  0
 32 31  2  0  0  0  0
 33 32  1  0  0  0  0
 33 36  2  0  0  0  0
 34 36  1  0  0  0  0
 35 37  2  0  0  0  0
 36 35  1  0  0  0  0
M  END
>  <MODEL>
9

>  <REMARK>
 VINA RESULT:      -8.5      2.427      4.020
  Name = 
  1 active torsions:
  status: ('A' for Active; 'I' for Inactive)
    1  A    between atoms: C_23  and  C_30
                            x       y       z     vdW  Elec       q    Type
                         _______ _______ _______ _____ _____    ______ ____

>  <TORSDO>
F 1

$$$$
