=
 OpenBabel11112417003D

 31 35  0  0  1  0  0  0  0  0999 V2000
  185.9270  177.9160  140.9730 C   0  0  0  0  0  0  0  0  0  0  0  0
  188.0870  177.8180  144.0520 N   0  0  0  0  0  0  0  0  0  0  0  0
  187.2340  177.8110  145.2180 C   0  0  0  0  0  0  0  0  0  0  0  0
  191.4340  174.1770  142.2600 O   0  0  0  0  0  0  0  0  0  0  0  0
  191.9130  174.7070  143.2970 C   0  0  0  0  0  0  0  0  0  0  0  0
  185.1040  178.2090  146.3210 C   0  0  0  0  0  0  0  0  0  0  0  0
  187.5730  177.5880  142.7250 C   0  0  0  0  0  0  0  0  0  0  0  0
  186.6330  177.0390  140.1430 C   0  0  0  0  0  3  0  0  0  0  0  0
  185.8980  178.2410  145.1700 C   0  0  0  0  0  3  0  0  0  0  0  0
  190.0710  176.4710  143.4640 C   0  0  0  0  0  0  0  0  0  0  0  0
  184.4530  178.6660  140.4010 Cl  0  0  0  0  0  0  0  0  0  0  0  0
  189.1630  176.8610  146.4550 C   0  0  0  0  0  2  0  0  0  0  0  0
  183.6910  178.6660  146.2600 C   0  0  0  0  0  1  0  0  0  0  0  0
  189.4910  176.0990  142.3570 N   0  0  0  0  0  0  0  0  0  0  0  0
  189.5510  177.6790  144.2090 C   0  0  2  0  0  3  0  0  0  0  0  0
  191.2770  175.8370  143.9080 N   0  0  0  0  0  2  0  0  0  0  0  0
  186.3940  178.1890  142.2620 C   0  0  0  0  0  3  0  0  0  0  0  0
  185.6370  177.7420  147.5250 C   0  0  0  0  0  3  0  0  0  0  0  0
  188.2870  176.7200  141.8810 C   0  0  0  0  0  0  0  0  0  0  0  0
  187.8110  176.4400  140.5970 C   0  0  0  0  0  3  0  0  0  0  0  0
  189.9940  177.7200  145.6140 N   0  0  0  0  0  2  0  0  0  0  0  0
  187.7590  177.3560  146.4340 C   0  0  0  0  0  0  0  0  0  0  0  0
  186.9650  177.3110  147.5820 C   0  0  0  0  0  3  0  0  0  0  0  0
  194.2440  175.8460  146.0440 C   0  0  1  0  0  3  0  0  0  0  0  0
  192.9530  173.7930  145.3880 C   0  0  0  0  0  2  0  0  0  0  0  0
  194.6540  175.3310  142.2470 C   0  0  0  0  0  1  0  0  0  0  0  0
  194.2050  177.1020  146.8880 C   0  0  0  0  0  1  0  0  0  0  0  0
  192.9520  175.0600  146.2460 C   0  0  0  0  0  2  0  0  0  0  0  0
  194.4250  174.9730  143.7050 C   0  0  2  0  0  3  0  0  0  0  0  0
  193.1570  174.1200  143.9050 C   0  0  2  0  0  3  0  0  0  0  0  0
  194.4130  176.2280  144.5760 C   0  0  0  0  0  2  0  0  0  0  0  0
  1 17  1  0  0  0  0
  2 15  1  0  0  0  0
  2  3  1  0  0  0  0
  3 22  1  0  0  0  0
  4  5  2  0  0  0  0
  5 16  1  0  0  0  0
  6 18  2  0  0  0  0
  7  2  1  0  0  0  0
  8 20  1  0  0  0  0
  8  1  2  0  0  0  0
  9  3  2  0  0  0  0
  9  6  1  0  0  0  0
 10 16  1  0  0  0  0
 11  1  1  0  0  0  0
 13  6  1  0  0  0  0
 14 10  2  0  0  0  0
 15 10  1  1  0  0  0
 15 21  1  0  0  0  0
 17  7  2  0  0  0  0
 18 23  1  0  0  0  0
 19 14  1  0  0  0  0
 19  7  1  0  0  0  0
 20 19  2  0  0  0  0
 21 12  1  0  0  0  0
 22 12  1  0  0  0  0
 22 23  2  0  0  0  0
 24 28  1  0  0  0  0
 24 27  1  1  0  0  0
 25 28  1  0  0  0  0
 29 26  1  6  0  0  0
 29 30  1  0  0  0  0
 29 31  1  0  0  0  0
 30  5  1  1  0  0  0
 30 25  1  0  0  0  0
 31 24  1  0  0  0  0
M  END
>  <MODEL>
1

>  <REMARK>
 VINA RESULT:      -9.6      0.000      0.000
  Name = 
  1 active torsions:
  status: ('A' for Active; 'I' for Inactive)
    1  A    between atoms: C_5  and  C_30
                            x       y       z     vdW  Elec       q    Type
                         _______ _______ _______ _____ _____    ______ ____

>  <TORSDO>
F 1

$$$$
=
 OpenBabel11112417003D

 31 35  0  0  1  0  0  0  0  0999 V2000
  193.8730  174.4100  144.4230 C   0  0  0  0  0  0  0  0  0  0  0  0
  190.5900  175.6200  143.0400 N   0  0  0  0  0  0  0  0  0  0  0  0
  190.2650  174.8440  141.8660 C   0  0  0  0  0  0  0  0  0  0  0  0
  188.1350  175.9660  147.6800 O   0  0  0  0  0  0  0  0  0  0  0  0
  187.4490  176.5540  146.8020 C   0  0  0  0  0  0  0  0  0  0  0  0
  190.8790  173.3780  140.0250 C   0  0  0  0  0  0  0  0  0  0  0  0
  191.6410  175.2350  143.9480 C   0  0  0  0  0  0  0  0  0  0  0  0
  193.6030  174.4630  145.7930 C   0  0  0  0  0  3  0  0  0  0  0  0
  191.2380  174.1260  141.1520 C   0  0  0  0  0  3  0  0  0  0  0  0
  189.2270  176.2990  144.9840 C   0  0  0  0  0  0  0  0  0  0  0  0
  195.4340  173.8560  143.8590 Cl  0  0  0  0  0  0  0  0  0  0  0  0
  187.9100  175.5340  142.2280 C   0  0  0  0  0  2  0  0  0  0  0  0
  191.9160  172.6220  139.2760 C   0  0  0  0  0  1  0  0  0  0  0  0
  190.0950  175.7470  145.7860 N   0  0  0  0  0  0  0  0  0  0  0  0
  189.6220  176.6110  143.5590 C   0  0  2  0  0  3  0  0  0  0  0  0
  187.9560  176.7420  145.4750 N   0  0  0  0  0  2  0  0  0  0  0  0
  192.8940  174.7920  143.5010 C   0  0  0  0  0  3  0  0  0  0  0  0
  189.5450  173.3390  139.6080 C   0  0  0  0  0  3  0  0  0  0  0  0
  191.3810  175.3020  145.3280 C   0  0  0  0  0  0  0  0  0  0  0  0
  192.3570  174.9060  146.2470 C   0  0  0  0  0  3  0  0  0  0  0  0
  188.4610  176.8120  142.6740 N   0  0  0  0  0  2  0  0  0  0  0  0
  188.9340  174.8050  141.4310 C   0  0  0  0  0  0  0  0  0  0  0  0
  188.5710  174.0490  140.3150 C   0  0  0  0  0  3  0  0  0  0  0  0
  185.0270  178.9400  145.1530 C   0  0  1  0  0  3  0  0  0  0  0  0
  185.0400  176.6160  146.1070 C   0  0  0  0  0  2  0  0  0  0  0  0
  186.9960  179.0110  148.4640 C   0  0  0  0  0  1  0  0  0  0  0  0
  185.1760  179.7440  143.8790 C   0  0  0  0  0  1  0  0  0  0  0  0
  185.1650  177.4540  144.8330 C   0  0  0  0  0  2  0  0  0  0  0  0
  185.9790  178.5500  147.4350 C   0  0  2  0  0  3  0  0  0  0  0  0
  186.0700  177.0360  147.1600 C   0  0  2  0  0  3  0  0  0  0  0  0
  186.0950  179.3730  146.1530 C   0  0  0  0  0  2  0  0  0  0  0  0
  1  8  1  0  0  0  0
  2 15  1  0  0  0  0
  2  7  1  0  0  0  0
  3  2  1  0  0  0  0
  5  4  2  0  0  0  0
  6  9  1  0  0  0  0
  7 19  2  0  0  0  0
  8 20  2  0  0  0  0
  9  3  2  0  0  0  0
 10 16  1  0  0  0  0
 10 14  2  0  0  0  0
 11  1  1  0  0  0  0
 12 21  1  0  0  0  0
 13  6  1  0  0  0  0
 15 21  1  6  0  0  0
 15 10  1  0  0  0  0
 16  5  1  0  0  0  0
 17  7  1  0  0  0  0
 17  1  2  0  0  0  0
 18  6  2  0  0  0  0
 18 23  1  0  0  0  0
 19 14  1  0  0  0  0
 19 20  1  0  0  0  0
 22  3  1  0  0  0  0
 22 12  1  0  0  0  0
 23 22  2  0  0  0  0
 24 27  1  6  0  0  0
 24 31  1  0  0  0  0
 25 30  1  0  0  0  0
 28 24  1  0  0  0  0
 28 25  1  0  0  0  0
 29 26  1  1  0  0  0
 30  5  1  6  0  0  0
 30 29  1  0  0  0  0
 31 29  1  0  0  0  0
M  END
>  <MODEL>
2

>  <REMARK>
 VINA RESULT:      -8.7      3.147      7.769
  Name = 
  1 active torsions:
  status: ('A' for Active; 'I' for Inactive)
    1  A    between atoms: C_5  and  C_30
                            x       y       z     vdW  Elec       q    Type
                         _______ _______ _______ _____ _____    ______ ____

>  <TORSDO>
F 1

$$$$
=
 OpenBabel11112417003D

 31 35  0  0  1  0  0  0  0  0999 V2000
  185.4430  177.8790  146.7010 C   0  0  0  0  0  0  0  0  0  0  0  0
  187.1360  176.4190  143.6750 N   0  0  0  0  0  0  0  0  0  0  0  0
  186.4870  176.9270  142.4880 C   0  0  0  0  0  0  0  0  0  0  0  0
  192.0530  177.0920  145.4190 O   0  0  0  0  0  0  0  0  0  0  0  0
  192.0700  176.3330  144.4140 C   0  0  0  0  0  0  0  0  0  0  0  0
  184.6040  177.9590  141.3480 C   0  0  0  0  0  0  0  0  0  0  0  0
  186.9000  176.9850  144.9800 C   0  0  0  0  0  0  0  0  0  0  0  0
  186.5520  178.1240  147.5160 C   0  0  0  0  0  3  0  0  0  0  0  0
  185.1920  177.4690  142.5180 C   0  0  0  0  0  3  0  0  0  0  0  0
  189.5230  176.1810  144.2640 C   0  0  0  0  0  0  0  0  0  0  0  0
  183.8380  178.2910  147.2620 Cl  0  0  0  0  0  0  0  0  0  0  0  0
  188.5660  176.3440  141.2670 C   0  0  0  0  0  2  0  0  0  0  0  0
  183.2340  178.5310  141.3900 C   0  0  0  0  0  1  0  0  0  0  0  0
  189.3270  176.8880  145.3420 N   0  0  0  0  0  0  0  0  0  0  0  0
  188.3400  175.5680  143.5500 C   0  0  2  0  0  3  0  0  0  0  0  0
  190.8500  175.8610  143.8280 N   0  0  0  0  0  2  0  0  0  0  0  0
  185.6160  177.3130  145.4340 C   0  0  0  0  0  3  0  0  0  0  0  0
  185.3080  177.9160  140.1410 C   0  0  0  0  0  3  0  0  0  0  0  0
  188.0110  177.2170  145.8100 C   0  0  0  0  0  0  0  0  0  0  0  0
  187.8360  177.7950  147.0710 C   0  0  0  0  0  3  0  0  0  0  0  0
  188.6440  175.1890  142.1590 N   0  0  0  0  0  2  0  0  0  0  0  0
  187.1770  176.8790  141.2710 C   0  0  0  0  0  0  0  0  0  0  0  0
  186.5980  177.3790  140.1030 C   0  0  0  0  0  3  0  0  0  0  0  0
  194.3480  173.3520  144.8670 C   0  0  1  0  0  3  0  0  0  0  0  0
  193.2830  174.6550  143.0010 C   0  0  0  0  0  2  0  0  0  0  0  0
  194.6790  177.1050  145.6790 C   0  0  0  0  0  1  0  0  0  0  0  0
  194.1910  172.1420  145.7630 C   0  0  0  0  0  1  0  0  0  0  0  0
  193.1650  173.4270  143.9060 C   0  0  0  0  0  2  0  0  0  0  0  0
  194.5450  175.8480  144.8370 C   0  0  2  0  0  3  0  0  0  0  0  0
  193.3940  175.9470  143.8170 C   0  0  2  0  0  3  0  0  0  0  0  0
  194.4180  174.6120  145.7260 C   0  0  0  0  0  2  0  0  0  0  0  0
  1 11  1  0  0  0  0
  1  8  1  0  0  0  0
  2  7  1  0  0  0  0
  3  9  1  0  0  0  0
  3  2  1  0  0  0  0
  5  4  2  0  0  0  0
  6 13  1  0  0  0  0
  6  9  2  0  0  0  0
  7 17  1  0  0  0  0
  7 19  2  0  0  0  0
 10 14  2  0  0  0  0
 12 22  1  0  0  0  0
 12 21  1  0  0  0  0
 14 19  1  0  0  0  0
 15 21  1  6  0  0  0
 15  2  1  0  0  0  0
 15 10  1  0  0  0  0
 16 10  1  0  0  0  0
 16  5  1  0  0  0  0
 17  1  2  0  0  0  0
 18  6  1  0  0  0  0
 19 20  1  0  0  0  0
 20  8  2  0  0  0  0
 22  3  2  0  0  0  0
 23 18  2  0  0  0  0
 23 22  1  0  0  0  0
 24 31  1  0  0  0  0
 24 27  1  1  0  0  0
 25 30  1  0  0  0  0
 25 28  1  0  0  0  0
 28 24  1  0  0  0  0
 29 26  1  1  0  0  0
 29 31  1  0  0  0  0
 30  5  1  1  0  0  0
 30 29  1  0  0  0  0
M  END
>  <MODEL>
3

>  <REMARK>
 VINA RESULT:      -8.2      1.928      4.326
  Name = 
  1 active torsions:
  status: ('A' for Active; 'I' for Inactive)
    1  A    between atoms: C_5  and  C_30
                            x       y       z     vdW  Elec       q    Type
                         _______ _______ _______ _____ _____    ______ ____

>  <TORSDO>
F 1

$$$$
=
 OpenBabel11112417003D

 31 35  0  0  1  0  0  0  0  0999 V2000
  187.3250  175.6240  139.0950 C   0  0  0  0  0  0  0  0  0  0  0  0
  188.0890  177.0210  142.5040 N   0  0  0  0  0  0  0  0  0  0  0  0
  186.8540  177.4560  143.1150 C   0  0  0  0  0  0  0  0  0  0  0  0
  191.4340  173.2160  143.9200 O   0  0  0  0  0  0  0  0  0  0  0  0
  191.5280  174.1750  144.7310 C   0  0  0  0  0  0  0  0  0  0  0  0
  184.5230  178.1350  142.9940 C   0  0  0  0  0  0  0  0  0  0  0  0
  188.1100  176.2040  141.3160 C   0  0  0  0  0  0  0  0  0  0  0  0
  188.1940  174.5290  139.0720 C   0  0  0  0  0  3  0  0  0  0  0  0
  185.7010  177.7250  142.3610 C   0  0  0  0  0  3  0  0  0  0  0  0
  189.9780  175.6990  143.3870 C   0  0  0  0  0  0  0  0  0  0  0  0
  186.2860  175.9450  137.7250 Cl  0  0  0  0  0  0  0  0  0  0  0  0
  188.0280  177.2760  145.2930 C   0  0  0  0  0  2  0  0  0  0  0  0
  183.3070  178.4170  142.1880 C   0  0  0  0  0  1  0  0  0  0  0  0
  189.8370  174.8460  142.4110 N   0  0  0  0  0  0  0  0  0  0  0  0
  189.3510  177.0700  143.2750 C   0  0  2  0  0  3  0  0  0  0  0  0
  190.8360  175.4080  144.4970 N   0  0  0  0  0  2  0  0  0  0  0  0
  187.2810  176.4590  140.2150 C   0  0  0  0  0  3  0  0  0  0  0  0
  184.4880  178.2740  144.3850 C   0  0  0  0  0  3  0  0  0  0  0  0
  188.9940  175.1110  141.2810 C   0  0  0  0  0  0  0  0  0  0  0  0
  189.0270  174.2700  140.1650 C   0  0  0  0  0  3  0  0  0  0  0  0
  189.2120  177.7450  144.5770 N   0  0  0  0  0  2  0  0  0  0  0  0
  186.8100  177.6100  144.5070 C   0  0  0  0  0  0  0  0  0  0  0  0
  185.6320  178.0060  145.1430 C   0  0  0  0  0  3  0  0  0  0  0  0
  194.1900  176.2840  146.3880 C   0  0  1  0  0  3  0  0  0  0  0  0
  192.0660  175.0920  147.0020 C   0  0  0  0  0  2  0  0  0  0  0  0
  194.2110  172.8310  144.6760 C   0  0  0  0  0  1  0  0  0  0  0  0
  194.7700  177.6170  145.9650 C   0  0  0  0  0  1  0  0  0  0  0  0
  192.6850  176.4300  146.5960 C   0  0  0  0  0  2  0  0  0  0  0  0
  193.8760  173.8960  145.7070 C   0  0  2  0  0  3  0  0  0  0  0  0
  192.3610  173.9990  145.9700 C   0  0  2  0  0  3  0  0  0  0  0  0
  194.4820  175.2410  145.3120 C   0  0  0  0  0  2  0  0  0  0  0  0
  1 17  1  0  0  0  0
  2  3  1  0  0  0  0
  2 15  1  0  0  0  0
  3 22  1  0  0  0  0
  4  5  2  0  0  0  0
  6 18  2  0  0  0  0
  7  2  1  0  0  0  0
  8  1  2  0  0  0  0
  8 20  1  0  0  0  0
  9  6  1  0  0  0  0
  9  3  2  0  0  0  0
 10 16  1  0  0  0  0
 11  1  1  0  0  0  0
 13  6  1  0  0  0  0
 14 10  2  0  0  0  0
 15 10  1  1  0  0  0
 15 21  1  0  0  0  0
 16  5  1  0  0  0  0
 17  7  2  0  0  0  0
 18 23  1  0  0  0  0
 19  7  1  0  0  0  0
 19 14  1  0  0  0  0
 20 19  2  0  0  0  0
 21 12  1  0  0  0  0
 22 23  2  0  0  0  0
 22 12  1  0  0  0  0
 24 27  1  6  0  0  0
 24 28  1  0  0  0  0
 28 25  1  0  0  0  0
 29 26  1  6  0  0  0
 29 30  1  0  0  0  0
 30  5  1  6  0  0  0
 30 25  1  0  0  0  0
 31 29  1  0  0  0  0
 31 24  1  0  0  0  0
M  END
>  <MODEL>
4

>  <REMARK>
 VINA RESULT:      -8.2      1.625      2.390
  Name = 
  1 active torsions:
  status: ('A' for Active; 'I' for Inactive)
    1  A    between atoms: C_5  and  C_30
                            x       y       z     vdW  Elec       q    Type
                         _______ _______ _______ _____ _____    ______ ____

>  <TORSDO>
F 1

$$$$
=
 OpenBabel11112417003D

 31 35  0  0  1  0  0  0  0  0999 V2000
  185.6070  177.9660  140.9600 C   0  0  0  0  0  0  0  0  0  0  0  0
  187.9620  177.9470  143.8950 N   0  0  0  0  0  0  0  0  0  0  0  0
  187.1860  177.9150  145.1130 C   0  0  0  0  0  0  0  0  0  0  0  0
  191.3060  174.4140  141.8920 O   0  0  0  0  0  0  0  0  0  0  0  0
  191.8330  174.9620  142.8960 C   0  0  0  0  0  0  0  0  0  0  0  0
  185.1190  178.2440  146.3500 C   0  0  0  0  0  0  0  0  0  0  0  0
  187.3720  177.6970  142.6030 C   0  0  0  0  0  0  0  0  0  0  0  0
  186.2870  177.1120  140.0870 C   0  0  0  0  0  3  0  0  0  0  0  0
  185.8370  178.3000  145.1500 C   0  0  0  0  0  3  0  0  0  0  0  0
  189.9480  176.6650  143.1810 C   0  0  0  0  0  0  0  0  0  0  0  0
  184.0760  178.6660  140.4840 Cl  0  0  0  0  0  0  0  0  0  0  0  0
  189.2210  177.0320  146.2240 C   0  0  0  0  0  2  0  0  0  0  0  0
  183.6910  178.6540  146.3790 C   0  0  0  0  0  1  0  0  0  0  0  0
  189.3110  176.2720  142.1130 N   0  0  0  0  0  0  0  0  0  0  0  0
  189.4370  177.8570  143.9570 C   0  0  2  0  0  3  0  0  0  0  0  0
  191.2000  176.0720  143.5470 N   0  0  0  0  0  2  0  0  0  0  0  0
  186.1470  178.2570  142.2170 C   0  0  0  0  0  3  0  0  0  0  0  0
  185.7440  177.7980  147.5180 C   0  0  0  0  0  3  0  0  0  0  0  0
  188.0590  176.8520  141.7150 C   0  0  0  0  0  0  0  0  0  0  0  0
  187.5120  176.5520  140.4640 C   0  0  0  0  0  3  0  0  0  0  0  0
  189.9670  177.9160  145.3310 N   0  0  0  0  0  2  0  0  0  0  0  0
  187.8030  177.4800  146.2920 C   0  0  0  0  0  0  0  0  0  0  0  0
  187.0860  177.4110  147.4890 C   0  0  0  0  0  3  0  0  0  0  0  0
  193.0740  171.4680  143.6250 C   0  0  1  0  0  3  0  0  0  0  0  0
  193.8240  173.5240  142.3890 C   0  0  0  0  0  2  0  0  0  0  0  0
  192.3160  174.5390  145.8270 C   0  0  0  0  0  1  0  0  0  0  0  0
  192.3650  170.1390  143.4780 C   0  0  0  0  0  1  0  0  0  0  0  0
  193.1310  172.1650  142.2680 C   0  0  0  0  0  2  0  0  0  0  0  0
  193.0120  173.6900  144.7760 C   0  0  2  0  0  3  0  0  0  0  0  0
  193.1310  174.4180  143.4230 C   0  0  2  0  0  3  0  0  0  0  0  0
  192.3270  172.3320  144.6380 C   0  0  0  0  0  2  0  0  0  0  0  0
  1 17  1  0  0  0  0
  2 15  1  0  0  0  0
  2  3  1  0  0  0  0
  3  9  2  0  0  0  0
  3 22  1  0  0  0  0
  4  5  2  0  0  0  0
  5 16  1  0  0  0  0
  6 13  1  0  0  0  0
  6 18  2  0  0  0  0
  7  2  1  0  0  0  0
  8 20  1  0  0  0  0
  8  1  2  0  0  0  0
  9  6  1  0  0  0  0
 10 16  1  0  0  0  0
 11  1  1  0  0  0  0
 12 22  1  0  0  0  0
 14 10  2  0  0  0  0
 15 10  1  1  0  0  0
 15 21  1  0  0  0  0
 17  7  2  0  0  0  0
 19 14  1  0  0  0  0
 19  7  1  0  0  0  0
 20 19  2  0  0  0  0
 21 12  1  0  0  0  0
 22 23  2  0  0  0  0
 23 18  1  0  0  0  0
 24 27  1  6  0  0  0
 24 31  1  0  0  0  0
 25 30  1  0  0  0  0
 28 25  1  0  0  0  0
 28 24  1  0  0  0  0
 29 26  1  1  0  0  0
 30  5  1  6  0  0  0
 30 29  1  0  0  0  0
 31 29  1  0  0  0  0
M  END
>  <MODEL>
5

>  <REMARK>
 VINA RESULT:      -8.2      1.138      2.339
  Name = 
  1 active torsions:
  status: ('A' for Active; 'I' for Inactive)
    1  A    between atoms: C_5  and  C_30
                            x       y       z     vdW  Elec       q    Type
                         _______ _______ _______ _____ _____    ______ ____

>  <TORSDO>
F 1

$$$$
=
 OpenBabel11112417003D

 31 35  0  0  1  0  0  0  0  0999 V2000
  185.6750  177.8390  146.7400 C   0  0  0  0  0  0  0  0  0  0  0  0
  187.4360  176.1800  143.8590 N   0  0  0  0  0  0  0  0  0  0  0  0
  186.8490  176.6480  142.6240 C   0  0  0  0  0  0  0  0  0  0  0  0
  192.3010  176.7910  145.7640 O   0  0  0  0  0  0  0  0  0  0  0  0
  192.3320  175.9830  144.7980 C   0  0  0  0  0  0  0  0  0  0  0  0
  185.0460  177.6780  141.3610 C   0  0  0  0  0  0  0  0  0  0  0  0
  187.1680  176.8160  145.1240 C   0  0  0  0  0  0  0  0  0  0  0  0
  186.7590  178.0900  147.5860 C   0  0  0  0  0  3  0  0  0  0  0  0
  185.5720  177.2290  142.5760 C   0  0  0  0  0  3  0  0  0  0  0  0
  189.7890  175.9000  144.5530 C   0  0  0  0  0  0  0  0  0  0  0  0
  184.0630  178.3250  147.2160 Cl  0  0  0  0  0  0  0  0  0  0  0  0
  188.9540  175.9420  141.5160 C   0  0  0  0  0  2  0  0  0  0  0  0
  183.6930  178.2920  141.3200 C   0  0  0  0  0  1  0  0  0  0  0  0
  189.5740  176.6650  145.5880 N   0  0  0  0  0  0  0  0  0  0  0  0
  188.6150  175.2880  143.8230 C   0  0  2  0  0  3  0  0  0  0  0  0
  191.1210  175.5190  144.1870 N   0  0  0  0  0  2  0  0  0  0  0  0
  185.8780  177.2060  145.5100 C   0  0  0  0  0  3  0  0  0  0  0  0
  185.7940  177.5530  140.1860 C   0  0  0  0  0  3  0  0  0  0  0  0
  188.2520  177.0560  145.9860 C   0  0  0  0  0  0  0  0  0  0  0  0
  188.0480  177.7010  147.2090 C   0  0  0  0  0  3  0  0  0  0  0  0
  188.9600  174.8310  142.4660 N   0  0  0  0  0  2  0  0  0  0  0  0
  187.5840  176.5190  141.4390 C   0  0  0  0  0  0  0  0  0  0  0  0
  187.0670  176.9770  140.2260 C   0  0  0  0  0  3  0  0  0  0  0  0
  193.3650  173.7510  141.9300 C   0  0  1  0  0  3  0  0  0  0  0  0
  193.9040  176.0280  142.8460 C   0  0  0  0  0  2  0  0  0  0  0  0
  193.6540  173.4680  145.7630 C   0  0  0  0  0  1  0  0  0  0  0  0
  192.5110  173.0010  140.9310 C   0  0  0  0  0  1  0  0  0  0  0  0
  193.0700  175.2440  141.8300 C   0  0  0  0  0  2  0  0  0  0  0  0
  193.8960  174.0070  144.3630 C   0  0  2  0  0  3  0  0  0  0  0  0
  193.6650  175.5280  144.2740 C   0  0  2  0  0  3  0  0  0  0  0  0
  193.0650  173.2400  143.3370 C   0  0  0  0  0  2  0  0  0  0  0  0
  1 11  1  0  0  0  0
  1  8  1  0  0  0  0
  2  7  1  0  0  0  0
  3  2  1  0  0  0  0
  5  4  2  0  0  0  0
  6  9  2  0  0  0  0
  7 17  1  0  0  0  0
  7 19  2  0  0  0  0
  9  3  1  0  0  0  0
 10 14  2  0  0  0  0
 12 21  1  0  0  0  0
 13  6  1  0  0  0  0
 14 19  1  0  0  0  0
 15 21  1  6  0  0  0
 15  2  1  0  0  0  0
 15 10  1  0  0  0  0
 16 10  1  0  0  0  0
 16  5  1  0  0  0  0
 17  1  2  0  0  0  0
 18 23  2  0  0  0  0
 18  6  1  0  0  0  0
 19 20  1  0  0  0  0
 20  8  2  0  0  0  0
 22 12  1  0  0  0  0
 22  3  2  0  0  0  0
 23 22  1  0  0  0  0
 24 27  1  6  0  0  0
 24 31  1  0  0  0  0
 25 30  1  0  0  0  0
 28 24  1  0  0  0  0
 28 25  1  0  0  0  0
 29 26  1  1  0  0  0
 30 29  1  0  0  0  0
 30  5  1  6  0  0  0
 31 29  1  0  0  0  0
M  END
>  <MODEL>
6

>  <REMARK>
 VINA RESULT:      -8.1      1.963      4.579
  Name = 
  1 active torsions:
  status: ('A' for Active; 'I' for Inactive)
    1  A    between atoms: C_5  and  C_30
                            x       y       z     vdW  Elec       q    Type
                         _______ _______ _______ _____ _____    ______ ____

>  <TORSDO>
F 1

$$$$
=
 OpenBabel11112417003D

 31 35  0  0  1  0  0  0  0  0999 V2000
  192.2250  169.7130  142.9410 C   0  0  0  0  0  0  0  0  0  0  0  0
  192.2620  172.8960  144.9470 N   0  0  0  0  0  0  0  0  0  0  0  0
  193.6310  173.2250  145.2720 C   0  0  0  0  0  0  0  0  0  0  0  0
  188.7570  175.4570  141.9770 O   0  0  0  0  0  0  0  0  0  0  0  0
  188.9320  176.0900  143.0510 C   0  0  0  0  0  0  0  0  0  0  0  0
  195.9720  172.6320  145.5500 C   0  0  0  0  0  0  0  0  0  0  0  0
  191.9270  171.8890  143.9710 C   0  0  0  0  0  0  0  0  0  0  0  0
  191.2320  170.0180  142.0050 C   0  0  0  0  0  3  0  0  0  0  0  0
  194.6580  172.2690  145.2370 C   0  0  0  0  0  3  0  0  0  0  0  0
  190.4040  174.2770  144.0890 C   0  0  0  0  0  0  0  0  0  0  0  0
  193.0400  168.1660  142.8800 Cl  0  0  0  0  0  0  0  0  0  0  0  0
  192.8460  175.5540  145.6140 C   0  0  0  0  0  2  0  0  0  0  0  0
  197.0530  171.6130  145.5100 C   0  0  0  0  0  1  0  0  0  0  0  0
  190.2590  173.4580  143.0850 N   0  0  0  0  0  0  0  0  0  0  0  0
  191.1730  173.8290  145.3110 C   0  0  2  0  0  3  0  0  0  0  0  0
  189.7250  175.5390  144.1100 N   0  0  0  0  0  2  0  0  0  0  0  0
  192.5750  170.6470  143.9210 C   0  0  0  0  0  3  0  0  0  0  0  0
  196.2690  173.9540  145.8930 C   0  0  0  0  0  3  0  0  0  0  0  0
  190.9170  172.1840  143.0380 C   0  0  0  0  0  0  0  0  0  0  0  0
  190.5790  171.2530  142.0520 C   0  0  0  0  0  3  0  0  0  0  0  0
  191.6250  174.9540  146.1480 N   0  0  0  0  0  2  0  0  0  0  0  0
  193.9400  174.5440  145.6280 C   0  0  0  0  0  0  0  0  0  0  0  0
  195.2530  174.9130  145.9280 C   0  0  0  0  0  3  0  0  0  0  0  0
  186.1380  177.4510  145.2020 C   0  0  1  0  0  3  0  0  0  0  0  0
  188.5170  178.0070  144.6150 C   0  0  0  0  0  2  0  0  0  0  0  0
  186.5830  176.9710  141.4040 C   0  0  0  0  0  1  0  0  0  0  0  0
  185.2570  176.7410  146.2070 C   0  0  0  0  0  1  0  0  0  0  0  0
  187.5980  177.3160  145.6250 C   0  0  0  0  0  2  0  0  0  0  0  0
  186.8290  177.5250  142.7970 C   0  0  2  0  0  3  0  0  0  0  0  0
  188.3150  177.4530  143.2010 C   0  0  2  0  0  3  0  0  0  0  0  0
  185.9240  176.8410  143.8190 C   0  0  0  0  0  2  0  0  0  0  0  0
  1 17  1  0  0  0  0
  2  3  1  0  0  0  0
  2 15  1  0  0  0  0
  3 22  1  0  0  0  0
  4  5  2  0  0  0  0
  5 16  1  0  0  0  0
  6 18  2  0  0  0  0
  7  2  1  0  0  0  0
  8 20  1  0  0  0  0
  8  1  2  0  0  0  0
  9  3  2  0  0  0  0
  9  6  1  0  0  0  0
 10 16  1  0  0  0  0
 11  1  1  0  0  0  0
 12 22  1  0  0  0  0
 12 21  1  0  0  0  0
 13  6  1  0  0  0  0
 14 10  2  0  0  0  0
 15 10  1  6  0  0  0
 15 21  1  0  0  0  0
 17  7  2  0  0  0  0
 18 23  1  0  0  0  0
 19 14  1  0  0  0  0
 19  7  1  0  0  0  0
 20 19  2  0  0  0  0
 22 23  2  0  0  0  0
 24 28  1  0  0  0  0
 24 27  1  1  0  0  0
 25 28  1  0  0  0  0
 29 26  1  6  0  0  0
 29 30  1  0  0  0  0
 29 31  1  0  0  0  0
 30  5  1  1  0  0  0
 30 25  1  0  0  0  0
 31 24  1  0  0  0  0
M  END
>  <MODEL>
7

>  <REMARK>
 VINA RESULT:      -8.1      3.508      8.002
  Name = 
  1 active torsions:
  status: ('A' for Active; 'I' for Inactive)
    1  A    between atoms: C_5  and  C_30
                            x       y       z     vdW  Elec       q    Type
                         _______ _______ _______ _____ _____    ______ ____

>  <TORSDO>
F 1

$$$$
=
 OpenBabel11112417003D

 31 35  0  0  1  0  0  0  0  0999 V2000
  186.9520  175.7170  137.8990 C   0  0  0  0  0  0  0  0  0  0  0  0
  187.1920  177.0890  141.3940 N   0  0  0  0  0  0  0  0  0  0  0  0
  185.8850  177.5450  141.8050 C   0  0  0  0  0  0  0  0  0  0  0  0
  190.2040  173.2180  143.2960 O   0  0  0  0  0  0  0  0  0  0  0  0
  190.1860  174.1720  144.1180 C   0  0  0  0  0  0  0  0  0  0  0  0
  183.6140  178.2670  141.3220 C   0  0  0  0  0  0  0  0  0  0  0  0
  187.3860  176.2760  140.2190 C   0  0  0  0  0  0  0  0  0  0  0  0
  187.7940  174.6060  138.0060 C   0  0  0  0  0  3  0  0  0  0  0  0
  184.8700  177.8380  140.8800 C   0  0  0  0  0  3  0  0  0  0  0  0
  188.8950  175.7300  142.5560 C   0  0  0  0  0  0  0  0  0  0  0  0
  186.1480  176.0620  136.3830 Cl  0  0  0  0  0  0  0  0  0  0  0  0
  186.6970  177.3350  144.1400 C   0  0  0  0  0  2  0  0  0  0  0  0
  182.5470  178.5750  140.3360 C   0  0  0  0  0  1  0  0  0  0  0  0
  188.8950  174.8820  141.5650 N   0  0  0  0  0  0  0  0  0  0  0  0
  188.3170  177.1120  142.3540 C   0  0  2  0  0  3  0  0  0  0  0  0
  189.5620  175.4190  143.7860 N   0  0  0  0  0  2  0  0  0  0  0  0
  186.7460  176.5500  139.0030 C   0  0  0  0  0  3  0  0  0  0  0  0
  183.3630  178.4020  142.6900 C   0  0  0  0  0  3  0  0  0  0  0  0
  188.2450  175.1670  140.3170 C   0  0  0  0  0  0  0  0  0  0  0  0
  188.4390  174.3290  139.2150 C   0  0  0  0  0  3  0  0  0  0  0  0
  187.9870  177.7850  143.6230 N   0  0  0  0  0  2  0  0  0  0  0  0
  185.6240  177.6950  143.1730 C   0  0  0  0  0  0  0  0  0  0  0  0
  184.3670  178.1110  143.6180 C   0  0  0  0  0  3  0  0  0  0  0  0
  190.4050  176.3350  147.2090 C   0  0  1  0  0  3  0  0  0  0  0  0
  189.7530  173.9920  146.5820 C   0  0  0  0  0  2  0  0  0  0  0  0
  193.0120  174.9900  144.7090 C   0  0  0  0  0  1  0  0  0  0  0  0
  189.8760  177.7320  147.4520 C   0  0  0  0  0  1  0  0  0  0  0  0
  189.2450  175.4090  146.8550 C   0  0  0  0  0  2  0  0  0  0  0  0
  191.9490  174.9630  145.7940 C   0  0  2  0  0  3  0  0  0  0  0  0
  190.8100  173.9770  145.4720 C   0  0  2  0  0  3  0  0  0  0  0  0
  191.4260  176.3710  146.0740 C   0  0  0  0  0  2  0  0  0  0  0  0
  1  8  2  0  0  0  0
  1 17  1  0  0  0  0
  2  3  1  0  0  0  0
  2 15  1  0  0  0  0
  3 22  1  0  0  0  0
  4  5  2  0  0  0  0
  6 18  2  0  0  0  0
  7 19  1  0  0  0  0
  7  2  1  0  0  0  0
  8 20  1  0  0  0  0
  9  6  1  0  0  0  0
  9  3  2  0  0  0  0
 10 16  1  0  0  0  0
 11  1  1  0  0  0  0
 13  6  1  0  0  0  0
 14 10  2  0  0  0  0
 15 10  1  1  0  0  0
 15 21  1  0  0  0  0
 16  5  1  0  0  0  0
 17  7  2  0  0  0  0
 18 23  1  0  0  0  0
 19 14  1  0  0  0  0
 20 19  2  0  0  0  0
 21 12  1  0  0  0  0
 22 23  2  0  0  0  0
 22 12  1  0  0  0  0
 24 27  1  6  0  0  0
 25 28  1  0  0  0  0
 28 24  1  0  0  0  0
 29 26  1  6  0  0  0
 29 31  1  0  0  0  0
 30  5  1  6  0  0  0
 30 29  1  0  0  0  0
 30 25  1  0  0  0  0
 31 24  1  0  0  0  0
M  END
>  <MODEL>
8

>  <REMARK>
 VINA RESULT:      -7.9      2.132      3.591
  Name = 
  1 active torsions:
  status: ('A' for Active; 'I' for Inactive)
    1  A    between atoms: C_5  and  C_30
                            x       y       z     vdW  Elec       q    Type
                         _______ _______ _______ _____ _____    ______ ____

>  <TORSDO>
F 1

$$$$
=
 OpenBabel11112417003D

 31 35  0  0  1  0  0  0  0  0999 V2000
  190.7230  171.4040  142.2440 C   0  0  0  0  0  0  0  0  0  0  0  0
  190.1960  174.4290  144.4190 N   0  0  0  0  0  0  0  0  0  0  0  0
  191.4680  174.8290  144.9740 C   0  0  0  0  0  0  0  0  0  0  0  0
  186.9880  176.9430  141.0930 O   0  0  0  0  0  0  0  0  0  0  0  0
  186.9450  177.5080  142.2180 C   0  0  0  0  0  0  0  0  0  0  0  0
  193.7800  174.3840  145.5810 C   0  0  0  0  0  0  0  0  0  0  0  0
  190.0950  173.4730  143.3440 C   0  0  0  0  0  0  0  0  0  0  0  0
  189.8620  171.7030  141.1840 C   0  0  0  0  0  3  0  0  0  0  0  0
  192.5630  173.9530  145.0440 C   0  0  0  0  0  3  0  0  0  0  0  0
  188.3840  175.7330  143.3640 C   0  0  0  0  0  0  0  0  0  0  0  0
  191.6590  169.9260  142.2200 Cl  0  0  0  0  0  0  0  0  0  0  0  0
  190.4550  177.0660  145.3280 C   0  0  0  0  0  2  0  0  0  0  0  0
  194.9330  173.4490  145.6510 C   0  0  0  0  0  1  0  0  0  0  0  0
  188.4600  174.9800  142.3020 N   0  0  0  0  0  0  0  0  0  0  0  0
  188.9930  175.2540  144.6620 C   0  0  2  0  0  3  0  0  0  0  0  0
  187.6100  176.9390  143.3540 N   0  0  0  0  0  2  0  0  0  0  0  0
  190.8420  172.2870  143.3220 C   0  0  0  0  0  3  0  0  0  0  0  0
  193.9140  175.6960  146.0450 C   0  0  0  0  0  3  0  0  0  0  0  0
  189.2190  173.7620  142.2830 C   0  0  0  0  0  0  0  0  0  0  0  0
  189.1120  172.8830  141.2020 C   0  0  0  0  0  3  0  0  0  0  0  0
  189.2190  176.3450  145.6260 N   0  0  0  0  0  2  0  0  0  0  0  0
  191.6120  176.1370  145.4530 C   0  0  0  0  0  0  0  0  0  0  0  0
  192.8290  176.5760  145.9770 C   0  0  0  0  0  3  0  0  0  0  0  0
  184.6160  178.9120  144.8420 C   0  0  1  0  0  3  0  0  0  0  0  0
  186.6750  179.5990  143.5760 C   0  0  0  0  0  2  0  0  0  0  0  0
  184.1630  177.8780  141.1570 C   0  0  0  0  0  1  0  0  0  0  0  0
  184.1190  178.2880  146.1280 C   0  0  0  0  0  1  0  0  0  0  0  0
  186.1400  178.9910  144.8740 C   0  0  0  0  0  2  0  0  0  0  0  0
  184.6700  178.6690  142.3510 C   0  0  2  0  0  3  0  0  0  0  0  0
  186.2050  178.8090  142.3500 C   0  0  2  0  0  3  0  0  0  0  0  0
  184.1500  178.0700  143.6570 C   0  0  0  0  0  2  0  0  0  0  0  0
  1 17  1  0  0  0  0
  2 15  1  0  0  0  0
  2  3  1  0  0  0  0
  3  9  2  0  0  0  0
  3 22  1  0  0  0  0
  4  5  2  0  0  0  0
  5 16  1  0  0  0  0
  6 13  1  0  0  0  0
  6 18  2  0  0  0  0
  7  2  1  0  0  0  0
  8 20  1  0  0  0  0
  8  1  2  0  0  0  0
  9  6  1  0  0  0  0
 11  1  1  0  0  0  0
 12 22  1  0  0  0  0
 12 21  1  0  0  0  0
 14 10  2  0  0  0  0
 15 10  1  6  0  0  0
 15 21  1  0  0  0  0
 16 10  1  0  0  0  0
 17  7  2  0  0  0  0
 19 14  1  0  0  0  0
 19  7  1  0  0  0  0
 20 19  2  0  0  0  0
 22 23  2  0  0  0  0
 23 18  1  0  0  0  0
 24 28  1  0  0  0  0
 24 27  1  1  0  0  0
 25 28  1  0  0  0  0
 29 26  1  6  0  0  0
 29 31  1  0  0  0  0
 30  5  1  1  0  0  0
 30 29  1  0  0  0  0
 30 25  1  0  0  0  0
 31 24  1  0  0  0  0
M  END
>  <MODEL>
9

>  <REMARK>
 VINA RESULT:      -7.9      3.011      7.352
  Name = 
  1 active torsions:
  status: ('A' for Active; 'I' for Inactive)
    1  A    between atoms: C_5  and  C_30
                            x       y       z     vdW  Elec       q    Type
                         _______ _______ _______ _____ _____    ______ ____

>  <TORSDO>
F 1

$$$$
