=
 OpenBabel11112417003D

 31 35  0  0  1  0  0  0  0  0999 V2000
  184.6930  178.1190  146.9790 C   0  0  0  0  0  0  0  0  0  0  0  0
  187.1930  176.0180  145.0180 C   0  0  2  0  0  3  0  0  0  0  0  0
  187.1970  176.5060  143.5830 C   0  0  0  0  0  0  0  0  0  0  0  0
  186.0760  177.5510  141.6750 C   0  0  0  0  0  0  0  0  0  0  0  0
  186.6220  177.0180  145.9990 C   0  0  0  0  0  0  0  0  0  0  0  0
  185.5360  178.8630  147.8100 C   0  0  0  0  0  3  0  0  0  0  0  0
  186.1340  177.1500  143.0850 C   0  0  0  0  0  3  0  0  0  0  0  0
  189.5170  176.6760  145.8500 C   0  0  2  0  0  3  0  0  0  0  0  0
  183.3520  178.2910  147.0460 F   0  0  0  0  0  0  0  0  0  0  0  0
  189.5100  175.4100  143.2370 C   0  0  0  0  0  2  0  0  0  0  0  0
  185.0700  178.1730  141.2480 O   0  0  0  0  0  0  0  0  0  0  0  0
  188.8790  177.5420  146.8350 N   0  0  0  0  0  2  0  0  0  0  0  0
  188.5810  175.5150  145.4660 C   0  0  2  0  0  3  0  0  0  0  0  0
  185.2350  177.1960  146.0800 C   0  0  0  0  0  3  0  0  0  0  0  0
  187.1990  177.2250  140.7330 C   0  0  0  0  0  2  0  0  0  0  0  0
  187.4670  177.7670  146.8420 C   0  0  0  0  0  0  0  0  0  0  0  0
  186.9190  178.6820  147.7450 C   0  0  0  0  0  3  0  0  0  0  0  0
  189.1740  174.6460  144.4410 N   0  0  0  0  0  2  0  0  0  0  0  0
  188.3130  176.1180  142.6820 C   0  0  0  0  0  0  0  0  0  0  0  0
  188.3190  176.4640  141.3910 C   0  0  0  0  0  3  0  0  0  0  0  0
  192.1020  177.1290  144.7440 O   0  0  0  0  0  0  0  0  0  0  0  0
  192.0300  176.4280  145.7900 C   0  0  0  0  0  0  0  0  0  0  0  0
  190.7650  176.1560  146.3910 N   0  0  0  0  0  2  0  0  0  0  0  0
  195.5840  176.0760  144.6940 C   0  0  1  0  0  3  0  0  0  0  0  0
  194.3690  176.9240  146.5580 C   0  0  0  0  0  2  0  0  0  0  0  0
  192.8050  173.7030  145.4260 O   0  0  0  0  0  1  0  0  0  0  0  0
  196.3020  176.4470  143.4140 C   0  0  0  0  0  1  0  0  0  0  0  0
  194.9400  177.2640  145.2520 N   0  0  0  0  0  2  0  0  0  0  0  0
  193.8200  174.6250  145.6880 C   0  0  2  0  0  3  0  0  0  0  0  0
  193.2720  175.8620  146.4170 C   0  0  2  0  0  3  0  0  0  0  0  0
  194.5390  175.0050  144.3960 C   0  0  0  0  0  2  0  0  0  0  0  0
  1  9  1  0  0  0  0
  1  6  1  0  0  0  0
  2  3  1  6  0  0  0
  2 13  1  0  0  0  0
  2  5  1  0  0  0  0
  4  7  1  0  0  0  0
  5 14  1  0  0  0  0
  5 16  2  0  0  0  0
  7  3  2  0  0  0  0
  8 23  1  1  0  0  0
  8 12  1  0  0  0  0
 10 18  1  0  0  0  0
 11  4  2  0  0  0  0
 12 16  1  0  0  0  0
 13 18  1  6  0  0  0
 13  8  1  0  0  0  0
 14  1  2  0  0  0  0
 15 20  1  0  0  0  0
 15  4  1  0  0  0  0
 16 17  1  0  0  0  0
 17  6  2  0  0  0  0
 19 10  1  0  0  0  0
 19  3  1  0  0  0  0
 20 19  2  0  0  0  0
 21 22  2  0  0  0  0
 22 23  1  0  0  0  0
 24 27  1  6  0  0  0
 24 28  1  0  0  0  0
 28 25  1  0  0  0  0
 29 26  1  6  0  0  0
 29 30  1  0  0  0  0
 30 22  1  6  0  0  0
 30 25  1  0  0  0  0
 31 24  1  0  0  0  0
 31 29  1  0  0  0  0
M  END
>  <MODEL>
1

>  <REMARK>
 VINA RESULT:      -8.8      0.000      0.000
  Name = 
  2 active torsions:
  status: ('A' for Active; 'I' for Inactive)
    1  A    between atoms: C_5  and  C_30
    2  A    between atoms: C_10  and  N_16
                            x       y       z     vdW  Elec       q    Type
                         _______ _______ _______ _____ _____    ______ ____

>  <TORSDO>
F 2

$$$$
=
 OpenBabel11112417003D

 31 35  0  0  1  0  0  0  0  0999 V2000
  187.3490  177.2300  140.8790 C   0  0  0  0  0  0  0  0  0  0  0  0
  188.4260  177.7770  144.4910 C   0  0  2  0  0  3  0  0  0  0  0  0
  187.1780  177.8860  145.3440 C   0  0  0  0  0  0  0  0  0  0  0  0
  184.8130  178.4550  145.6160 C   0  0  0  0  0  0  0  0  0  0  0  0
  188.1920  177.1130  143.1520 C   0  0  0  0  0  0  0  0  0  0  0  0
  187.7460  175.9080  140.6600 C   0  0  0  0  0  3  0  0  0  0  0  0
  186.0140  178.2540  144.7960 C   0  0  0  0  0  3  0  0  0  0  0  0
  189.4720  175.5870  145.2850 C   0  0  2  0  0  3  0  0  0  0  0  0
  186.7450  177.9280  139.8880 F   0  0  0  0  0  0  0  0  0  0  0  0
  188.5830  177.3220  147.4370 C   0  0  0  0  0  2  0  0  0  0  0  0
  183.7320  178.7800  145.0620 O   0  0  0  0  0  0  0  0  0  0  0  0
  189.2990  175.0580  143.9360 N   0  0  0  0  0  2  0  0  0  0  0  0
  189.5970  177.1200  145.2520 C   0  0  2  0  0  3  0  0  0  0  0  0
  187.5760  177.8320  142.1200 C   0  0  0  0  0  3  0  0  0  0  0  0
  184.8580  178.2810  147.1070 C   0  0  0  0  0  2  0  0  0  0  0  0
  188.5950  175.7830  142.9250 C   0  0  0  0  0  0  0  0  0  0  0  0
  188.3740  175.1890  141.6790 C   0  0  0  0  0  3  0  0  0  0  0  0
  189.7260  177.6920  146.5990 N   0  0  0  0  0  2  0  0  0  0  0  0
  187.2870  177.7470  146.8200 C   0  0  0  0  0  0  0  0  0  0  0  0
  186.2260  177.9090  147.6160 C   0  0  0  0  0  3  0  0  0  0  0  0
  192.1380  175.9110  144.3340 O   0  0  0  0  0  0  0  0  0  0  0  0
  191.9680  175.2090  145.3690 C   0  0  0  0  0  0  0  0  0  0  0  0
  190.6570  175.0000  145.8930 N   0  0  0  0  0  2  0  0  0  0  0  0
  195.6250  174.9820  144.6410 C   0  0  1  0  0  3  0  0  0  0  0  0
  194.2020  175.6150  146.4420 C   0  0  0  0  0  2  0  0  0  0  0  0
  192.8120  172.5430  144.7900 O   0  0  0  0  0  1  0  0  0  0  0  0
  196.4750  175.4950  143.4990 C   0  0  0  0  0  1  0  0  0  0  0  0
  194.9090  176.0990  145.2540 N   0  0  0  0  0  2  0  0  0  0  0  0
  193.7810  173.4290  145.2640 C   0  0  2  0  0  3  0  0  0  0  0  0
  193.1400  174.5760  146.0620 C   0  0  2  0  0  3  0  0  0  0  0  0
  194.6330  173.9520  144.1110 C   0  0  0  0  0  2  0  0  0  0  0  0
  1 14  1  0  0  0  0
  2  5  1  6  0  0  0
  2 13  1  0  0  0  0
  2  3  1  0  0  0  0
  3 19  1  0  0  0  0
  4 15  1  0  0  0  0
  6  1  2  0  0  0  0
  6 17  1  0  0  0  0
  7  3  2  0  0  0  0
  7  4  1  0  0  0  0
  8 23  1  6  0  0  0
  9  1  1  0  0  0  0
 11  4  2  0  0  0  0
 12  8  1  0  0  0  0
 13  8  1  0  0  0  0
 13 18  1  1  0  0  0
 14  5  2  0  0  0  0
 15 20  1  0  0  0  0
 16  5  1  0  0  0  0
 16 12  1  0  0  0  0
 17 16  2  0  0  0  0
 18 10  1  0  0  0  0
 19 10  1  0  0  0  0
 19 20  2  0  0  0  0
 21 22  2  0  0  0  0
 22 23  1  0  0  0  0
 24 27  1  6  0  0  0
 24 28  1  0  0  0  0
 28 25  1  0  0  0  0
 29 26  1  6  0  0  0
 29 30  1  0  0  0  0
 30 22  1  6  0  0  0
 30 25  1  0  0  0  0
 31 24  1  0  0  0  0
 31 29  1  0  0  0  0
M  END
>  <MODEL>
2

>  <REMARK>
 VINA RESULT:      -8.6      1.945      4.061
  Name = 
  2 active torsions:
  status: ('A' for Active; 'I' for Inactive)
    1  A    between atoms: C_5  and  C_30
    2  A    between atoms: C_10  and  N_16
                            x       y       z     vdW  Elec       q    Type
                         _______ _______ _______ _____ _____    ______ ____

>  <TORSDO>
F 2

$$$$
=
 OpenBabel11112417003D

 31 35  0  0  1  0  0  0  0  0999 V2000
  184.8880  177.8220  146.8200 C   0  0  0  0  0  0  0  0  0  0  0  0
  186.9460  176.1100  144.1100 C   0  0  2  0  0  3  0  0  0  0  0  0
  186.6030  176.7520  142.7800 C   0  0  0  0  0  0  0  0  0  0  0  0
  185.0390  177.9290  141.3120 C   0  0  0  0  0  0  0  0  0  0  0  0
  186.5790  176.9590  145.3080 C   0  0  0  0  0  0  0  0  0  0  0  0
  185.8710  178.5220  147.5250 C   0  0  0  0  0  3  0  0  0  0  0  0
  185.4330  177.3800  142.6140 C   0  0  0  0  0  3  0  0  0  0  0  0
  189.3730  176.8160  144.4760 C   0  0  2  0  0  3  0  0  0  0  0  0
  183.5920  177.9020  147.2040 F   0  0  0  0  0  0  0  0  0  0  0  0
  188.8140  175.8480  141.7970 C   0  0  0  0  0  2  0  0  0  0  0  0
  183.9400  178.5300  141.1990 O   0  0  0  0  0  0  0  0  0  0  0  0
  188.9470  177.5280  145.6760 N   0  0  0  0  0  2  0  0  0  0  0  0
  188.4170  175.6490  144.1720 C   0  0  2  0  0  3  0  0  0  0  0  0
  185.2420  177.0390  145.7170 C   0  0  0  0  0  3  0  0  0  0  0  0
  185.9270  177.7800  140.1100 C   0  0  0  0  0  2  0  0  0  0  0  0
  187.5680  177.6610  146.0250 C   0  0  0  0  0  0  0  0  0  0  0  0
  187.2090  178.4350  147.1320 C   0  0  0  0  0  3  0  0  0  0  0  0
  188.7900  174.9360  142.9430 N   0  0  0  0  0  2  0  0  0  0  0  0
  187.4970  176.5370  141.6130 C   0  0  0  0  0  0  0  0  0  0  0  0
  187.1950  177.0220  140.4050 C   0  0  0  0  0  3  0  0  0  0  0  0
  191.7480  178.2420  143.8120 O   0  0  0  0  0  0  0  0  0  0  0  0
  191.8790  177.0910  144.3100 C   0  0  0  0  0  0  0  0  0  0  0  0
  190.7300  176.3190  144.6570 N   0  0  0  0  0  2  0  0  0  0  0  0
  193.2200  173.6190  144.6290 C   0  0  1  0  0  3  0  0  0  0  0  0
  193.6710  175.5960  143.3820 C   0  0  0  0  0  2  0  0  0  0  0  0
  192.8680  176.5280  146.9300 O   0  0  0  0  0  1  0  0  0  0  0  0
  192.5570  172.2590  144.5910 C   0  0  0  0  0  1  0  0  0  0  0  0
  192.9130  174.3440  143.3960 N   0  0  0  0  0  2  0  0  0  0  0  0
  193.3810  175.7670  145.8780 C   0  0  2  0  0  3  0  0  0  0  0  0
  193.2450  176.5080  144.5380 C   0  0  2  0  0  3  0  0  0  0  0  0
  192.7070  174.3980  145.8350 C   0  0  0  0  0  2  0  0  0  0  0  0
  1  9  1  0  0  0  0
  1  6  1  0  0  0  0
  2  3  1  6  0  0  0
  2 13  1  0  0  0  0
  2  5  1  0  0  0  0
  4  7  1  0  0  0  0
  5 14  1  0  0  0  0
  5 16  2  0  0  0  0
  7  3  2  0  0  0  0
  8 23  1  1  0  0  0
  8 12  1  0  0  0  0
 10 18  1  0  0  0  0
 11  4  2  0  0  0  0
 12 16  1  0  0  0  0
 13 18  1  6  0  0  0
 13  8  1  0  0  0  0
 14  1  2  0  0  0  0
 15 20  1  0  0  0  0
 15  4  1  0  0  0  0
 16 17  1  0  0  0  0
 17  6  2  0  0  0  0
 19 10  1  0  0  0  0
 19  3  1  0  0  0  0
 20 19  2  0  0  0  0
 21 22  2  0  0  0  0
 22 23  1  0  0  0  0
 24 27  1  6  0  0  0
 24 31  1  0  0  0  0
 25 28  1  0  0  0  0
 25 30  1  0  0  0  0
 28 24  1  0  0  0  0
 29 26  1  1  0  0  0
 30 22  1  6  0  0  0
 30 29  1  0  0  0  0
 31 29  1  0  0  0  0
M  END
>  <MODEL>
3

>  <REMARK>
 VINA RESULT:      -8.5      1.527      2.028
  Name = 
  2 active torsions:
  status: ('A' for Active; 'I' for Inactive)
    1  A    between atoms: C_5  and  C_30
    2  A    between atoms: C_10  and  N_16
                            x       y       z     vdW  Elec       q    Type
                         _______ _______ _______ _____ _____    ______ ____

>  <TORSDO>
F 2

$$$$
=
 OpenBabel11112417003D

 31 35  0  0  1  0  0  0  0  0999 V2000
  186.4940  177.8860  140.7020 C   0  0  0  0  0  0  0  0  0  0  0  0
  188.3320  177.9090  144.0380 C   0  0  2  0  0  3  0  0  0  0  0  0
  187.3040  177.7780  145.1440 C   0  0  0  0  0  0  0  0  0  0  0  0
  185.0400  178.1110  146.0130 C   0  0  0  0  0  0  0  0  0  0  0  0
  187.8290  177.4590  142.6840 C   0  0  0  0  0  0  0  0  0  0  0  0
  186.8820  176.6530  140.1710 C   0  0  0  0  0  3  0  0  0  0  0  0
  186.0330  178.1410  144.9330 C   0  0  0  0  0  3  0  0  0  0  0  0
  189.6130  175.7040  144.1850 C   0  0  2  0  0  3  0  0  0  0  0  0
  185.6570  178.6910  140.0050 F   0  0  0  0  0  0  0  0  0  0  0  0
  189.1640  176.9850  146.7520 C   0  0  0  0  0  2  0  0  0  0  0  0
  183.8510  178.4390  145.7720 O   0  0  0  0  0  0  0  0  0  0  0  0
  189.1620  175.3940  142.8330 N   0  0  0  0  0  2  0  0  0  0  0  0
  189.6680  177.2270  144.4000 C   0  0  2  0  0  3  0  0  0  0  0  0
  186.9700  178.2900  141.9530 C   0  0  0  0  0  3  0  0  0  0  0  0
  185.4260  177.6970  147.4040 C   0  0  0  0  0  2  0  0  0  0  0  0
  188.2220  176.2200  142.1420 C   0  0  0  0  0  0  0  0  0  0  0  0
  187.7500  175.8250  140.8870 C   0  0  0  0  0  3  0  0  0  0  0  0
  190.0750  177.5760  145.7680 N   0  0  0  0  0  2  0  0  0  0  0  0
  187.7470  177.4060  146.5130 C   0  0  0  0  0  0  0  0  0  0  0  0
  186.8860  177.3520  147.5340 C   0  0  0  0  0  3  0  0  0  0  0  0
  190.0930  173.0360  145.0630 O   0  0  0  0  0  0  0  0  0  0  0  0
  191.0970  173.7680  144.8430 C   0  0  0  0  0  0  0  0  0  0  0  0
  190.9260  175.1170  144.4100 N   0  0  0  0  0  2  0  0  0  0  0  0
  194.4930  174.8470  143.7200 C   0  0  1  0  0  3  0  0  0  0  0  0
  193.3880  174.2580  145.7460 C   0  0  0  0  0  2  0  0  0  0  0  0
  192.2900  171.9240  143.0170 O   0  0  0  0  0  1  0  0  0  0  0  0
  194.9680  175.9990  142.8620 C   0  0  0  0  0  1  0  0  0  0  0  0
  193.7230  175.3670  144.8500 N   0  0  0  0  0  2  0  0  0  0  0  0
  193.1510  172.7490  143.7440 C   0  0  2  0  0  3  0  0  0  0  0  0
  192.4880  173.2370  145.0420 C   0  0  2  0  0  3  0  0  0  0  0  0
  193.6240  173.9150  142.8800 C   0  0  0  0  0  2  0  0  0  0  0  0
  1 14  1  0  0  0  0
  2  5  1  6  0  0  0
  2 13  1  0  0  0  0
  2  3  1  0  0  0  0
  3 19  1  0  0  0  0
  4 15  1  0  0  0  0
  6  1  2  0  0  0  0
  6 17  1  0  0  0  0
  7  3  2  0  0  0  0
  7  4  1  0  0  0  0
  8 13  1  0  0  0  0
  8 23  1  6  0  0  0
  9  1  1  0  0  0  0
 11  4  2  0  0  0  0
 12  8  1  0  0  0  0
 13 18  1  1  0  0  0
 14  5  2  0  0  0  0
 15 20  1  0  0  0  0
 16  5  1  0  0  0  0
 16 12  1  0  0  0  0
 17 16  2  0  0  0  0
 18 10  1  0  0  0  0
 19 10  1  0  0  0  0
 19 20  2  0  0  0  0
 22 21  2  0  0  0  0
 23 22  1  0  0  0  0
 24 27  1  6  0  0  0
 24 28  1  0  0  0  0
 28 25  1  0  0  0  0
 29 26  1  6  0  0  0
 29 30  1  0  0  0  0
 30 22  1  6  0  0  0
 30 25  1  0  0  0  0
 31 24  1  0  0  0  0
 31 29  1  0  0  0  0
M  END
>  <MODEL>
4

>  <REMARK>
 VINA RESULT:      -8.2      2.328      4.327
  Name = 
  2 active torsions:
  status: ('A' for Active; 'I' for Inactive)
    1  A    between atoms: C_5  and  C_30
    2  A    between atoms: C_10  and  N_16
                            x       y       z     vdW  Elec       q    Type
                         _______ _______ _______ _____ _____    ______ ____

>  <TORSDO>
F 2

$$$$
=
 OpenBabel11112417003D

 31 35  0  0  1  0  0  0  0  0999 V2000
  185.5870  178.2910  140.9050 C   0  0  0  0  0  0  0  0  0  0  0  0
  188.1280  178.1560  143.7390 C   0  0  2  0  0  3  0  0  0  0  0  0
  187.4270  177.6330  144.9780 C   0  0  0  0  0  0  0  0  0  0  0  0
  185.4100  177.3360  146.3300 C   0  0  0  0  0  0  0  0  0  0  0  0
  187.4040  177.8370  142.4500 C   0  0  0  0  0  0  0  0  0  0  0  0
  186.0410  177.2710  140.0650 C   0  0  0  0  0  3  0  0  0  0  0  0
  186.1000  177.7500  145.1030 C   0  0  0  0  0  3  0  0  0  0  0  0
  189.7610  176.2760  143.1710 C   0  0  2  0  0  3  0  0  0  0  0  0
  184.4850  179.0030  140.5700 F   0  0  0  0  0  0  0  0  0  0  0  0
  189.7200  176.9980  145.9830 C   0  0  0  0  0  2  0  0  0  0  0  0
  184.1590  177.4410  146.4040 O   0  0  0  0  0  0  0  0  0  0  0  0
  189.0640  176.1030  141.9020 N   0  0  0  0  0  2  0  0  0  0  0  0
  189.6070  177.7210  143.6790 C   0  0  2  0  0  3  0  0  0  0  0  0
  186.2690  178.5760  142.0920 C   0  0  0  0  0  3  0  0  0  0  0  0
  186.1760  176.7910  147.5010 C   0  0  0  0  0  2  0  0  0  0  0  0
  187.8620  176.8140  141.5980 C   0  0  0  0  0  0  0  0  0  0  0  0
  187.1810  176.5390  140.4080 C   0  0  0  0  0  3  0  0  0  0  0  0
  190.2600  177.9200  144.9810 N   0  0  0  0  0  2  0  0  0  0  0  0
  188.2370  177.1440  146.1240 C   0  0  0  0  0  0  0  0  0  0  0  0
  187.6630  176.7440  147.2630 C   0  0  0  0  0  3  0  0  0  0  0  0
  191.1110  174.1130  144.4430 O   0  0  0  0  0  0  0  0  0  0  0  0
  191.7840  174.8450  143.6660 C   0  0  0  0  0  0  0  0  0  0  0  0
  191.1700  175.9500  143.0040 N   0  0  0  0  0  2  0  0  0  0  0  0
  194.0470  171.9550  144.3590 C   0  0  1  0  0  3  0  0  0  0  0  0
  193.4500  173.3520  142.5260 C   0  0  0  0  0  2  0  0  0  0  0  0
  193.7750  175.4490  145.6240 O   0  0  0  0  0  1  0  0  0  0  0  0
  193.8170  170.6090  145.0130 C   0  0  0  0  0  1  0  0  0  0  0  0
  193.1250  172.1130  143.2350 N   0  0  0  0  0  2  0  0  0  0  0  0
  194.0550  174.4180  144.7260 C   0  0  2  0  0  3  0  0  0  0  0  0
  193.2420  174.5720  143.4310 C   0  0  2  0  0  3  0  0  0  0  0  0
  193.8160  173.0610  145.3840 C   0  0  0  0  0  2  0  0  0  0  0  0
  1 14  1  0  0  0  0
  2  5  1  6  0  0  0
  2  3  1  0  0  0  0
  3  7  2  0  0  0  0
  3 19  1  0  0  0  0
  4 11  2  0  0  0  0
  4 15  1  0  0  0  0
  6 17  1  0  0  0  0
  6  1  2  0  0  0  0
  7  4  1  0  0  0  0
  8 23  1  6  0  0  0
  8 13  1  0  0  0  0
  9  1  1  0  0  0  0
 10 19  1  0  0  0  0
 12  8  1  0  0  0  0
 13  2  1  0  0  0  0
 13 18  1  1  0  0  0
 14  5  2  0  0  0  0
 16 12  1  0  0  0  0
 16  5  1  0  0  0  0
 17 16  2  0  0  0  0
 18 10  1  0  0  0  0
 19 20  2  0  0  0  0
 20 15  1  0  0  0  0
 22 21  2  0  0  0  0
 23 22  1  0  0  0  0
 24 27  1  1  0  0  0
 24 31  1  0  0  0  0
 25 28  1  0  0  0  0
 25 30  1  0  0  0  0
 28 24  1  0  0  0  0
 29 31  1  0  0  0  0
 29 26  1  1  0  0  0
 30 22  1  1  0  0  0
 30 29  1  0  0  0  0
M  END
>  <MODEL>
5

>  <REMARK>
 VINA RESULT:      -8.1      2.516      4.631
  Name = 
  2 active torsions:
  status: ('A' for Active; 'I' for Inactive)
    1  A    between atoms: C_5  and  C_30
    2  A    between atoms: C_10  and  N_16
                            x       y       z     vdW  Elec       q    Type
                         _______ _______ _______ _____ _____    ______ ____

>  <TORSDO>
F 2

$$$$
=
 OpenBabel11112417003D

 31 35  0  0  1  0  0  0  0  0999 V2000
  194.3380  176.6350  145.0150 C   0  0  0  0  0  0  0  0  0  0  0  0
  190.9330  176.7500  143.3120 C   0  0  2  0  0  3  0  0  0  0  0  0
  190.7740  175.4870  142.4880 C   0  0  0  0  0  0  0  0  0  0  0  0
  191.7280  173.6420  141.1940 C   0  0  0  0  0  0  0  0  0  0  0  0
  191.9940  176.6460  144.3850 C   0  0  0  0  0  0  0  0  0  0  0  0
  193.9810  176.4600  146.3550 C   0  0  0  0  0  3  0  0  0  0  0  0
  191.8520  174.8140  142.0680 C   0  0  0  0  0  3  0  0  0  0  0  0
  189.1830  176.4570  145.1490 C   0  0  2  0  0  3  0  0  0  0  0  0
  195.6440  176.7100  144.6660 F   0  0  0  0  0  0  0  0  0  0  0  0
  188.2150  175.8360  142.4830 C   0  0  0  0  0  2  0  0  0  0  0  0
  192.7620  173.0220  140.8380 O   0  0  0  0  0  0  0  0  0  0  0  0
  190.2640  176.4680  146.1290 N   0  0  0  0  0  2  0  0  0  0  0  0
  189.5890  177.2420  143.8890 C   0  0  2  0  0  3  0  0  0  0  0  0
  193.3470  176.7320  144.0340 C   0  0  0  0  0  3  0  0  0  0  0  0
  190.3830  173.1750  140.7160 C   0  0  0  0  0  2  0  0  0  0  0  0
  191.6380  176.4750  145.7380 C   0  0  0  0  0  0  0  0  0  0  0  0
  192.6340  176.3870  146.7150 C   0  0  0  0  0  3  0  0  0  0  0  0
  188.5410  177.2140  142.8600 N   0  0  0  0  0  2  0  0  0  0  0  0
  189.4250  175.0940  142.0050 C   0  0  0  0  0  0  0  0  0  0  0  0
  189.2490  174.0310  141.2150 C   0  0  0  0  0  3  0  0  0  0  0  0
  187.7980  175.4230  147.4130 O   0  0  0  0  0  0  0  0  0  0  0  0
  187.3420  176.4710  146.8790 C   0  0  0  0  0  0  0  0  0  0  0  0
  187.9840  177.0360  145.7360 N   0  0  0  0  0  2  0  0  0  0  0  0
  184.9340  179.0080  145.5680 C   0  0  1  0  0  3  0  0  0  0  0  0
  184.8790  176.8480  146.5670 C   0  0  0  0  0  2  0  0  0  0  0  0
  187.4670  178.9450  148.3000 O   0  0  0  0  0  1  0  0  0  0  0  0
  184.8590  179.7670  144.2600 C   0  0  0  0  0  1  0  0  0  0  0  0
  184.9480  177.5710  145.2960 N   0  0  0  0  0  2  0  0  0  0  0  0
  186.2750  178.6510  147.6360 C   0  0  2  0  0  3  0  0  0  0  0  0
  186.1130  177.1370  147.4290 C   0  0  2  0  0  3  0  0  0  0  0  0
  186.2030  179.4110  146.3140 C   0  0  0  0  0  2  0  0  0  0  0  0
  1  6  1  0  0  0  0
  2  3  1  1  0  0  0
  2 13  1  0  0  0  0
  2  5  1  0  0  0  0
  4  7  1  0  0  0  0
  5 16  2  0  0  0  0
  6 17  2  0  0  0  0
  7  3  2  0  0  0  0
  8 23  1  1  0  0  0
  8 12  1  0  0  0  0
  9  1  1  0  0  0  0
 10 18  1  0  0  0  0
 11  4  2  0  0  0  0
 13 18  1  6  0  0  0
 13  8  1  0  0  0  0
 14  5  1  0  0  0  0
 14  1  2  0  0  0  0
 15  4  1  0  0  0  0
 15 20  1  0  0  0  0
 16 12  1  0  0  0  0
 16 17  1  0  0  0  0
 19 10  1  0  0  0  0
 19  3  1  0  0  0  0
 20 19  2  0  0  0  0
 22 21  2  0  0  0  0
 23 22  1  0  0  0  0
 24 27  1  6  0  0  0
 24 31  1  0  0  0  0
 25 30  1  0  0  0  0
 28 24  1  0  0  0  0
 28 25  1  0  0  0  0
 29 26  1  6  0  0  0
 30 22  1  6  0  0  0
 30 29  1  0  0  0  0
 31 29  1  0  0  0  0
M  END
>  <MODEL>
6

>  <REMARK>
 VINA RESULT:      -8.0      3.393      7.108
  Name = 
  2 active torsions:
  status: ('A' for Active; 'I' for Inactive)
    1  A    between atoms: C_5  and  C_30
    2  A    between atoms: C_10  and  N_16
                            x       y       z     vdW  Elec       q    Type
                         _______ _______ _______ _____ _____    ______ ____

>  <TORSDO>
F 2

$$$$
=
 OpenBabel11112417003D

 31 35  0  0  1  0  0  0  0  0999 V2000
  184.9930  177.8510  146.8810 C   0  0  0  0  0  0  0  0  0  0  0  0
  187.0530  176.0410  144.2370 C   0  0  2  0  0  3  0  0  0  0  0  0
  186.7740  176.6890  142.8960 C   0  0  0  0  0  0  0  0  0  0  0  0
  185.3000  177.9200  141.3790 C   0  0  0  0  0  0  0  0  0  0  0  0
  186.6890  176.9100  145.4210 C   0  0  0  0  0  0  0  0  0  0  0  0
  185.9840  178.5140  147.6100 C   0  0  0  0  0  3  0  0  0  0  0  0
  185.6350  177.3620  142.6940 C   0  0  0  0  0  3  0  0  0  0  0  0
  189.4960  176.6490  144.6680 C   0  0  2  0  0  3  0  0  0  0  0  0
  183.6920  177.9860  147.2290 F   0  0  0  0  0  0  0  0  0  0  0  0
  188.9720  175.6890  141.9780 C   0  0  0  0  0  2  0  0  0  0  0  0
  184.2310  178.5650  141.2330 O   0  0  0  0  0  0  0  0  0  0  0  0
  189.0660  177.3850  145.8520 N   0  0  0  0  0  2  0  0  0  0  0  0
  188.5020  175.5200  144.3430 C   0  0  2  0  0  3  0  0  0  0  0  0
  185.3460  177.0480  145.7920 C   0  0  0  0  0  3  0  0  0  0  0  0
  186.2150  177.7280  140.2030 C   0  0  0  0  0  2  0  0  0  0  0  0
  187.6850  177.5760  146.1620 C   0  0  0  0  0  0  0  0  0  0  0  0
  187.3270  178.3710  147.2550 C   0  0  0  0  0  3  0  0  0  0  0  0
  188.8790  174.7860  143.1270 N   0  0  0  0  0  2  0  0  0  0  0  0
  187.6900  176.4300  141.7540 C   0  0  0  0  0  0  0  0  0  0  0  0
  187.4410  176.9200  140.5360 C   0  0  0  0  0  3  0  0  0  0  0  0
  190.2380  174.9690  146.8450 O   0  0  0  0  0  0  0  0  0  0  0  0
  191.1290  175.2550  145.9990 C   0  0  0  0  0  0  0  0  0  0  0  0
  190.8260  176.0990  144.8890 N   0  0  0  0  0  2  0  0  0  0  0  0
  194.2340  175.4350  143.9310 C   0  0  1  0  0  3  0  0  0  0  0  0
  193.5620  175.8470  146.1770 C   0  0  0  0  0  2  0  0  0  0  0  0
  191.8990  172.7140  144.9450 O   0  0  0  0  0  1  0  0  0  0  0  0
  194.5370  176.0780  142.5940 C   0  0  0  0  0  1  0  0  0  0  0  0
  193.7190  176.4480  144.8510 N   0  0  0  0  0  2  0  0  0  0  0  0
  192.9000  173.6770  145.0840 C   0  0  2  0  0  3  0  0  0  0  0  0
  192.5240  174.7200  146.1490 C   0  0  2  0  0  3  0  0  0  0  0  0
  193.2010  174.3300  143.7380 C   0  0  0  0  0  2  0  0  0  0  0  0
  1  9  1  0  0  0  0
  1  6  1  0  0  0  0
  2  3  1  6  0  0  0
  2 13  1  0  0  0  0
  2  5  1  0  0  0  0
  4  7  1  0  0  0  0
  5 14  1  0  0  0  0
  5 16  2  0  0  0  0
  7  3  2  0  0  0  0
  8 23  1  1  0  0  0
  8 12  1  0  0  0  0
 10 18  1  0  0  0  0
 11  4  2  0  0  0  0
 12 16  1  0  0  0  0
 13 18  1  6  0  0  0
 13  8  1  0  0  0  0
 14  1  2  0  0  0  0
 15 20  1  0  0  0  0
 15  4  1  0  0  0  0
 16 17  1  0  0  0  0
 17  6  2  0  0  0  0
 19 10  1  0  0  0  0
 19  3  1  0  0  0  0
 20 19  2  0  0  0  0
 22 21  2  0  0  0  0
 23 22  1  0  0  0  0
 24 27  1  6  0  0  0
 24 28  1  0  0  0  0
 28 25  1  0  0  0  0
 29 26  1  6  0  0  0
 29 30  1  0  0  0  0
 30 22  1  6  0  0  0
 30 25  1  0  0  0  0
 31 24  1  0  0  0  0
 31 29  1  0  0  0  0
M  END
>  <MODEL>
7

>  <REMARK>
 VINA RESULT:      -8.0      1.239      1.327
  Name = 
  2 active torsions:
  status: ('A' for Active; 'I' for Inactive)
    1  A    between atoms: C_5  and  C_30
    2  A    between atoms: C_10  and  N_16
                            x       y       z     vdW  Elec       q    Type
                         _______ _______ _______ _____ _____    ______ ____

>  <TORSDO>
F 2

$$$$
=
 OpenBabel11112417003D

 31 35  0  0  1  0  0  0  0  0999 V2000
  191.6300  173.0820  141.3930 C   0  0  0  0  0  0  0  0  0  0  0  0
  191.3280  174.1580  145.0340 C   0  0  2  0  0  3  0  0  0  0  0  0
  192.4530  175.1290  145.3340 C   0  0  0  0  0  0  0  0  0  0  0  0
  194.7090  175.9840  144.9240 C   0  0  0  0  0  0  0  0  0  0  0  0
  191.0350  174.0040  143.5580 C   0  0  0  0  0  0  0  0  0  0  0  0
  190.5150  173.7010  140.8190 C   0  0  0  0  0  3  0  0  0  0  0  0
  193.5700  175.1180  144.5970 C   0  0  0  0  0  3  0  0  0  0  0  0
  189.2460  175.6300  145.1940 C   0  0  2  0  0  3  0  0  0  0  0  0
  192.4620  172.3390  140.6250 F   0  0  0  0  0  0  0  0  0  0  0  0
  191.1290  176.0020  147.3730 C   0  0  0  0  0  2  0  0  0  0  0  0
  195.7330  175.9620  144.1960 O   0  0  0  0  0  0  0  0  0  0  0  0
  188.9830  175.3470  143.7870 N   0  0  0  0  0  2  0  0  0  0  0  0
  190.0490  174.4830  145.8340 C   0  0  2  0  0  3  0  0  0  0  0  0
  191.8860  173.2310  142.7590 C   0  0  0  0  0  3  0  0  0  0  0  0
  194.6690  176.8930  146.1190 C   0  0  0  0  0  2  0  0  0  0  0  0
  189.9090  174.6220  142.9770 C   0  0  0  0  0  0  0  0  0  0  0  0
  189.6540  174.4630  141.6120 C   0  0  0  0  0  3  0  0  0  0  0  0
  190.3720  174.7540  147.2420 N   0  0  0  0  0  2  0  0  0  0  0  0
  192.3810  175.9760  146.5530 C   0  0  0  0  0  0  0  0  0  0  0  0
  193.3840  176.7910  146.8960 C   0  0  0  0  0  3  0  0  0  0  0  0
  188.5510  177.9180  146.7420 O   0  0  0  0  0  0  0  0  0  0  0  0
  187.6980  176.9920  146.6540 C   0  0  0  0  0  0  0  0  0  0  0  0
  187.9860  175.8150  145.9000 N   0  0  0  0  0  2  0  0  0  0  0  0
  184.4400  178.6070  145.7980 C   0  0  1  0  0  3  0  0  0  0  0  0
  185.2440  176.4830  146.5140 C   0  0  0  0  0  2  0  0  0  0  0  0
  187.0710  179.1860  148.3720 O   0  0  0  0  0  1  0  0  0  0  0  0
  183.9820  179.4160  144.6040 C   0  0  0  0  0  1  0  0  0  0  0  0
  184.9350  177.3080  145.3440 N   0  0  0  0  0  2  0  0  0  0  0  0
  186.0040  178.5500  147.7350 C   0  0  2  0  0  3  0  0  0  0  0  0
  186.3700  177.1090  147.3440 C   0  0  2  0  0  3  0  0  0  0  0  0
  185.5470  179.3630  146.5260 C   0  0  0  0  0  2  0  0  0  0  0  0
  1 14  1  0  0  0  0
  2  5  1  6  0  0  0
  2  3  1  0  0  0  0
  2 13  1  0  0  0  0
  3 19  1  0  0  0  0
  4 15  1  0  0  0  0
  6  1  2  0  0  0  0
  6 17  1  0  0  0  0
  7  4  1  0  0  0  0
  7  3  2  0  0  0  0
  8 13  1  0  0  0  0
  8 23  1  1  0  0  0
  9  1  1  0  0  0  0
 11  4  2  0  0  0  0
 12  8  1  0  0  0  0
 13 18  1  1  0  0  0
 14  5  2  0  0  0  0
 15 20  1  0  0  0  0
 16  5  1  0  0  0  0
 16 12  1  0  0  0  0
 17 16  2  0  0  0  0
 18 10  1  0  0  0  0
 19 20  2  0  0  0  0
 19 10  1  0  0  0  0
 22 21  2  0  0  0  0
 23 22  1  0  0  0  0
 24 27  1  6  0  0  0
 24 31  1  0  0  0  0
 25 30  1  0  0  0  0
 28 24  1  0  0  0  0
 28 25  1  0  0  0  0
 29 26  1  6  0  0  0
 30 22  1  6  0  0  0
 30 29  1  0  0  0  0
 31 29  1  0  0  0  0
M  END
>  <MODEL>
8

>  <REMARK>
 VINA RESULT:      -7.8      3.388      7.918
  Name = 
  2 active torsions:
  status: ('A' for Active; 'I' for Inactive)
    1  A    between atoms: C_5  and  C_30
    2  A    between atoms: C_10  and  N_16
                            x       y       z     vdW  Elec       q    Type
                         _______ _______ _______ _____ _____    ______ ____

>  <TORSDO>
F 2

$$$$
=
 OpenBabel11112417003D

 31 35  0  0  1  0  0  0  0  0999 V2000
  186.1650  177.1290  142.7400 C   0  0  0  0  0  0  0  0  0  0  0  0
  188.5560  174.1690  142.5700 C   0  0  2  0  0  3  0  0  0  0  0  0
  189.0020  174.0040  141.1300 C   0  0  0  0  0  0  0  0  0  0  0  0
  188.6100  174.2500  138.7270 C   0  0  0  0  0  0  0  0  0  0  0  0
  187.9940  175.5390  142.8800 C   0  0  0  0  0  0  0  0  0  0  0  0
  186.9260  178.0700  143.4410 C   0  0  0  0  0  3  0  0  0  0  0  0
  188.2470  174.4770  140.1310 C   0  0  0  0  0  3  0  0  0  0  0  0
  190.7030  174.8900  143.7520 C   0  0  2  0  0  3  0  0  0  0  0  0
  184.9140  177.4410  142.3290 F   0  0  0  0  0  0  0  0  0  0  0  0
  191.0460  172.6490  141.9390 C   0  0  0  0  0  2  0  0  0  0  0  0
  187.8880  174.7280  137.8150 O   0  0  0  0  0  0  0  0  0  0  0  0
  190.0480  176.1480  144.0950 N   0  0  0  0  0  2  0  0  0  0  0  0
  189.6610  173.7710  143.5710 C   0  0  2  0  0  3  0  0  0  0  0  0
  186.6970  175.8660  142.4650 C   0  0  0  0  0  3  0  0  0  0  0  0
  189.8290  173.4520  138.3640 C   0  0  0  0  0  2  0  0  0  0  0  0
  188.7550  176.4880  143.5900 C   0  0  0  0  0  0  0  0  0  0  0  0
  188.2150  177.7470  143.8710 C   0  0  0  0  0  3  0  0  0  0  0  0
  190.2820  172.4980  143.1800 N   0  0  0  0  0  2  0  0  0  0  0  0
  190.1910  173.1680  140.8240 C   0  0  0  0  0  0  0  0  0  0  0  0
  190.5750  172.9350  139.5660 C   0  0  0  0  0  3  0  0  0  0  0  0
  193.5270  174.7080  143.4220 O   0  0  0  0  0  0  0  0  0  0  0  0
  193.0560  174.4650  144.5660 C   0  0  0  0  0  0  0  0  0  0  0  0
  191.6490  174.5300  144.7980 N   0  0  0  0  0  2  0  0  0  0  0  0
  196.7530  174.0700  144.9340 C   0  0  1  0  0  3  0  0  0  0  0  0
  194.9660  175.2150  146.0140 C   0  0  0  0  0  2  0  0  0  0  0  0
  193.8310  171.7620  145.0700 O   0  0  0  0  0  1  0  0  0  0  0  0
  197.8990  174.2130  143.9560 C   0  0  0  0  0  1  0  0  0  0  0  0
  195.9830  175.3140  144.9660 N   0  0  0  0  0  2  0  0  0  0  0  0
  194.7060  172.7650  145.4900 C   0  0  2  0  0  3  0  0  0  0  0  0
  193.9660  174.0950  145.7030 C   0  0  2  0  0  3  0  0  0  0  0  0
  195.8580  172.9130  144.5000 C   0  0  0  0  0  2  0  0  0  0  0  0
  1  6  1  0  0  0  0
  2  3  1  6  0  0  0
  2  5  1  0  0  0  0
  2 13  1  0  0  0  0
  4  7  1  0  0  0  0
  5 16  2  0  0  0  0
  6 17  2  0  0  0  0
  7  3  2  0  0  0  0
  8 12  1  0  0  0  0
  8 23  1  1  0  0  0
  9  1  1  0  0  0  0
 10 18  1  0  0  0  0
 11  4  2  0  0  0  0
 13 18  1  6  0  0  0
 13  8  1  0  0  0  0
 14  1  2  0  0  0  0
 14  5  1  0  0  0  0
 15  4  1  0  0  0  0
 15 20  1  0  0  0  0
 16 17  1  0  0  0  0
 16 12  1  0  0  0  0
 19  3  1  0  0  0  0
 19 10  1  0  0  0  0
 20 19  2  0  0  0  0
 21 22  2  0  0  0  0
 22 23  1  0  0  0  0
 24 27  1  6  0  0  0
 24 28  1  0  0  0  0
 28 25  1  0  0  0  0
 29 26  1  6  0  0  0
 29 30  1  0  0  0  0
 30 22  1  6  0  0  0
 30 25  1  0  0  0  0
 31 24  1  0  0  0  0
 31 29  1  0  0  0  0
M  END
>  <MODEL>
9

>  <REMARK>
 VINA RESULT:      -7.3      2.762      3.630
  Name = 
  2 active torsions:
  status: ('A' for Active; 'I' for Inactive)
    1  A    between atoms: C_5  and  C_30
    2  A    between atoms: C_10  and  N_16
                            x       y       z     vdW  Elec       q    Type
                         _______ _______ _______ _____ _____    ______ ____

>  <TORSDO>
F 2

$$$$
