=
 OpenBabel11112416113D

 30 35  0  0  1  0  0  0  0  0999 V2000
  187.0800  176.6270  144.3260 C   0  0  0  0  0  0  0  0  0  0  0  0
  185.2780  178.0550  145.3050 C   0  0  0  0  0  0  0  0  0  0  0  0
  189.5290  177.2320  147.6380 O   0  0  0  0  0  0  0  0  0  0  0  0
  188.3560  176.0240  144.4590 C   0  0  0  0  0  0  0  0  0  0  0  0
  186.3370  176.4100  143.1200 N   0  0  0  0  0  2  0  0  0  0  0  0
  188.0850  173.8740  141.5240 O   0  0  0  0  0  0  0  0  0  0  0  0
  191.0790  176.4090  143.4310 C   0  0  1  0  0  3  0  0  0  0  0  0
  187.9720  174.8570  142.2400 C   0  0  0  0  0  0  0  0  0  0  0  0
  191.4580  176.5360  144.9080 C   0  0  2  0  0  3  0  0  0  0  0  0
  190.6520  176.5070  147.2570 C   0  0  0  0  0  0  0  0  0  0  0  0
  186.9570  175.9020  141.8990 C   0  0  2  0  0  3  0  0  0  0  0  0
  188.8650  175.0150  143.4420 C   0  0  1  0  0  3  0  0  0  0  0  0
  184.8220  178.8530  146.3590 C   0  0  0  0  0  3  0  0  0  0  0  0
  192.7670  176.0630  145.0620 O   0  0  0  0  0  0  0  0  0  0  0  0
  192.4140  176.4850  142.7450 C   0  0  0  0  0  2  0  0  0  0  0  0
  184.4430  177.8840  144.2070 O   0  0  0  0  0  1  0  0  0  0  0  0
  188.6110  177.0930  146.6140 C   0  0  0  0  0  0  0  0  0  0  0  0
  185.6130  179.0630  147.4880 C   0  0  0  0  0  3  0  0  0  0  0  0
  186.5570  177.4450  145.3730 C   0  0  0  0  0  0  0  0  0  0  0  0
  189.0970  176.2900  145.6110 C   0  0  0  0  0  0  0  0  0  0  0  0
  191.6740  176.3990  147.9820 O   0  0  0  0  0  0  0  0  0  0  0  0
  190.5020  175.8700  145.9050 C   0  0  1  0  0  3  0  0  0  0  0  0
  193.4230  176.4390  143.8770 C   0  0  0  0  0  2  0  0  0  0  0  0
  191.0850  173.8380  143.4480 C   0  0  0  0  0  1  0  0  0  0  0  0
  186.8740  178.4760  147.5770 C   0  0  0  0  0  3  0  0  0  0  0  0
  187.3470  177.6730  146.5360 C   0  0  0  0  0  0  0  0  0  0  0  0
  190.3480  175.1070  143.0370 C   0  0  2  0  0  3  0  0  0  0  0  0
  187.6270  177.0380  141.1350 C   0  0  0  0  0  2  0  0  0  0  0  0
  185.7480  178.1400  140.2270 O   0  0  0  0  0  0  0  0  0  0  0  0
  186.7670  177.5050  140.0070 C   0  0  0  0  0  3  0  0  0  0  0  0
  1  4  2  0  0  0  0
  1 19  1  0  0  0  0
  2 19  2  0  0  0  0
  2 13  1  0  0  0  0
  4 20  1  0  0  0  0
  5  1  1  0  0  0  0
  6  8  2  0  0  0  0
  7 15  1  6  0  0  0
  7  9  1  0  0  0  0
  9 14  1  6  0  0  0
  9 22  1  0  0  0  0
 10  3  1  0  0  0  0
 10 21  2  0  0  0  0
 11 28  1  1  0  0  0
 11  8  1  0  0  0  0
 11  5  1  0  0  0  0
 12  8  1  6  0  0  0
 12  4  1  0  0  0  0
 13 18  2  0  0  0  0
 15 23  1  0  0  0  0
 16  2  1  0  0  0  0
 17  3  1  0  0  0  0
 18 25  1  0  0  0  0
 19 26  1  0  0  0  0
 20 17  2  0  0  0  0
 22 20  1  6  0  0  0
 22 10  1  0  0  0  0
 23 14  1  0  0  0  0
 26 17  1  0  0  0  0
 26 25  2  0  0  0  0
 27  7  1  0  0  0  0
 27 12  1  0  0  0  0
 27 24  1  1  0  0  0
 30 29  2  0  0  0  0
 30 28  1  0  0  0  0
M  END
>  <MODEL>
1

>  <REMARK>
 VINA RESULT:      -8.8      0.000      0.000
  Name = 
  2 active torsions:
  status: ('A' for Active; 'I' for Inactive)
    1  A    between atoms: C_11  and  C_28
    2  A    between atoms: C_28  and  C_30
                            x       y       z     vdW  Elec       q    Type
                         _______ _______ _______ _____ _____    ______ ____

>  <TORSDO>
F 2

$$$$
=
 OpenBabel11112416113D

 30 35  0  0  1  0  0  0  0  0999 V2000
  187.6320  177.3710  145.5660 C   0  0  0  0  0  0  0  0  0  0  0  0
  185.6360  178.2990  146.7510 C   0  0  0  0  0  0  0  0  0  0  0  0
  185.7850  177.8030  141.8600 O   0  0  0  0  0  0  0  0  0  0  0  0
  188.2710  177.0390  144.3450 C   0  0  0  0  0  0  0  0  0  0  0  0
  188.3250  177.1270  146.7960 N   0  0  0  0  0  2  0  0  0  0  0  0
  191.5620  176.4000  145.7830 O   0  0  0  0  0  0  0  0  0  0  0  0
  188.9200  174.6300  142.7960 C   0  0  1  0  0  3  0  0  0  0  0  0
  190.3470  176.4230  145.6660 C   0  0  0  0  0  0  0  0  0  0  0  0
  188.1020  175.3020  141.6910 C   0  0  2  0  0  3  0  0  0  0  0  0
  186.7700  177.2890  141.0260 C   0  0  0  0  0  0  0  0  0  0  0  0
  189.4870  176.2470  146.8780 C   0  0  2  0  0  3  0  0  0  0  0  0
  189.7290  176.6100  144.3060 C   0  0  1  0  0  3  0  0  0  0  0  0
  184.3450  178.8290  146.6850 C   0  0  0  0  0  3  0  0  0  0  0  0
  188.6270  174.8980  140.4570 O   0  0  0  0  0  0  0  0  0  0  0  0
  189.4290  173.3900  142.1170 C   0  0  0  0  0  2  0  0  0  0  0  0
  186.2200  178.1540  148.0030 O   0  0  0  0  0  1  0  0  0  0  0  0
  186.2900  177.7370  143.1440 C   0  0  0  0  0  0  0  0  0  0  0  0
  183.7050  178.9990  145.4580 C   0  0  0  0  0  3  0  0  0  0  0  0
  186.3160  177.9270  145.5620 C   0  0  0  0  0  0  0  0  0  0  0  0
  187.5640  177.2240  143.1560 C   0  0  0  0  0  0  0  0  0  0  0  0
  186.6450  177.2300  139.7750 O   0  0  0  0  0  0  0  0  0  0  0  0
  187.9870  176.8290  141.7770 C   0  0  1  0  0  3  0  0  0  0  0  0
  189.0360  173.5690  140.6620 C   0  0  0  0  0  2  0  0  0  0  0  0
  191.0650  175.9500  142.2820 C   0  0  0  0  0  1  0  0  0  0  0  0
  184.3510  178.6400  144.2770 C   0  0  0  0  0  3  0  0  0  0  0  0
  185.6430  178.1100  144.3190 C   0  0  0  0  0  0  0  0  0  0  0  0
  190.1000  175.4570  143.3530 C   0  0  2  0  0  3  0  0  0  0  0  0
  189.0420  174.7930  146.9850 C   0  0  0  0  0  2  0  0  0  0  0  0
  189.6240  172.9090  145.6890 O   0  0  0  0  0  0  0  0  0  0  0  0
  190.0160  173.8840  146.3100 C   0  0  0  0  0  3  0  0  0  0  0  0
  1  5  1  0  0  0  0
  2 16  1  0  0  0  0
  3 17  1  0  0  0  0
  4  1  2  0  0  0  0
  5 11  1  0  0  0  0
  7 15  1  6  0  0  0
  7 27  1  0  0  0  0
  8  6  2  0  0  0  0
  8 11  1  0  0  0  0
  9 14  1  6  0  0  0
  9 22  1  0  0  0  0
  9  7  1  0  0  0  0
 10  3  1  0  0  0  0
 11 28  1  6  0  0  0
 12  4  1  1  0  0  0
 12  8  1  0  0  0  0
 13  2  1  0  0  0  0
 14 23  1  0  0  0  0
 17 20  2  0  0  0  0
 17 26  1  0  0  0  0
 18 13  2  0  0  0  0
 19  1  1  0  0  0  0
 19  2  2  0  0  0  0
 20  4  1  0  0  0  0
 21 10  2  0  0  0  0
 22 10  1  6  0  0  0
 22 20  1  0  0  0  0
 23 15  1  0  0  0  0
 25 26  2  0  0  0  0
 25 18  1  0  0  0  0
 26 19  1  0  0  0  0
 27 24  1  6  0  0  0
 27 12  1  0  0  0  0
 29 30  2  0  0  0  0
 30 28  1  0  0  0  0
M  END
>  <MODEL>
2

>  <REMARK>
 VINA RESULT:      -8.4      1.829      4.915
  Name = 
  2 active torsions:
  status: ('A' for Active; 'I' for Inactive)
    1  A    between atoms: C_11  and  C_28
    2  A    between atoms: C_28  and  C_30
                            x       y       z     vdW  Elec       q    Type
                         _______ _______ _______ _____ _____    ______ ____

>  <TORSDO>
F 2

$$$$
=
 OpenBabel11112416113D

 30 35  0  0  1  0  0  0  0  0999 V2000
  187.8020  177.3320  143.6670 C   0  0  0  0  0  0  0  0  0  0  0  0
  185.8350  178.5740  142.7540 C   0  0  0  0  0  0  0  0  0  0  0  0
  188.2410  175.1820  140.1280 O   0  0  0  0  0  0  0  0  0  0  0  0
  188.8390  176.3870  143.4650 C   0  0  0  0  0  0  0  0  0  0  0  0
  187.6940  177.9760  144.9430 N   0  0  0  0  0  2  0  0  0  0  0  0
  190.6530  177.1270  146.5420 O   0  0  0  0  0  0  0  0  0  0  0  0
  189.4640  173.6230  144.2330 C   0  0  1  0  0  3  0  0  0  0  0  0
  189.7180  176.9440  145.7780 C   0  0  0  0  0  0  0  0  0  0  0  0
  189.5280  173.3760  142.7240 C   0  0  2  0  0  3  0  0  0  0  0  0
  189.3200  174.3720  140.4590 C   0  0  0  0  0  0  0  0  0  0  0  0
  188.3620  177.4640  146.1370 C   0  0  2  0  0  3  0  0  0  0  0  0
  189.9360  176.1830  144.4970 C   0  0  1  0  0  3  0  0  0  0  0  0
  184.9540  178.8100  141.6940 C   0  0  0  0  0  3  0  0  0  0  0  0
  190.4570  172.3550  142.4900 O   0  0  0  0  0  0  0  0  0  0  0  0
  189.8710  172.2910  144.7980 C   0  0  0  0  0  2  0  0  0  0  0  0
  185.6530  179.2970  143.9270 O   0  0  0  0  0  1  0  0  0  0  0  0
  188.0010  175.9780  141.2330 C   0  0  0  0  0  0  0  0  0  0  0  0
  185.0830  178.1160  140.4920 C   0  0  0  0  0  3  0  0  0  0  0  0
  186.8780  177.6220  142.6170 C   0  0  0  0  0  0  0  0  0  0  0  0
  188.8990  175.7210  142.2400 C   0  0  0  0  0  0  0  0  0  0  0  0
  189.8200  173.5390  139.6580 O   0  0  0  0  0  0  0  0  0  0  0  0
  189.8190  174.6070  141.8550 C   0  0  1  0  0  3  0  0  0  0  0  0
  190.3190  171.4900  143.5900 C   0  0  0  0  0  2  0  0  0  0  0  0
  191.8530  174.5620  144.3780 C   0  0  0  0  0  1  0  0  0  0  0  0
  186.0990  177.1750  140.3340 C   0  0  0  0  0  3  0  0  0  0  0  0
  186.9920  176.9260  141.3800 C   0  0  0  0  0  0  0  0  0  0  0  0
  190.3900  174.7360  144.7690 C   0  0  2  0  0  3  0  0  0  0  0  0
  187.5350  176.3500  146.7670 C   0  0  0  0  0  2  0  0  0  0  0  0
  185.2040  176.6230  146.5230 O   0  0  0  0  0  0  0  0  0  0  0  0
  186.1950  176.8540  147.1950 C   0  0  0  0  0  3  0  0  0  0  0  0
  1  5  1  0  0  0  0
  2 16  1  0  0  0  0
  3 10  1  0  0  0  0
  3 17  1  0  0  0  0
  4  1  1  0  0  0  0
  5 11  1  0  0  0  0
  7 27  1  0  0  0  0
  7 15  1  1  0  0  0
  8 11  1  0  0  0  0
  8  6  2  0  0  0  0
  9 14  1  1  0  0  0
  9  7  1  0  0  0  0
 11 28  1  6  0  0  0
 12  4  1  1  0  0  0
 12 27  1  0  0  0  0
 12  8  1  0  0  0  0
 13  2  2  0  0  0  0
 14 23  1  0  0  0  0
 17 26  2  0  0  0  0
 17 20  1  0  0  0  0
 18 13  1  0  0  0  0
 19  2  1  0  0  0  0
 19  1  2  0  0  0  0
 20  4  2  0  0  0  0
 21 10  2  0  0  0  0
 22 10  1  6  0  0  0
 22 20  1  0  0  0  0
 22  9  1  0  0  0  0
 23 15  1  0  0  0  0
 25 18  2  0  0  0  0
 25 26  1  0  0  0  0
 26 19  1  0  0  0  0
 27 24  1  6  0  0  0
 28 30  1  0  0  0  0
 29 30  2  0  0  0  0
M  END
>  <MODEL>
3

>  <REMARK>
 VINA RESULT:      -7.7      1.886      5.090
  Name = 
  2 active torsions:
  status: ('A' for Active; 'I' for Inactive)
    1  A    between atoms: C_11  and  C_28
    2  A    between atoms: C_28  and  C_30
                            x       y       z     vdW  Elec       q    Type
                         _______ _______ _______ _____ _____    ______ ____

>  <TORSDO>
F 2

$$$$
=
 OpenBabel11112416113D

 30 35  0  0  1  0  0  0  0  0999 V2000
  187.4080  176.4250  142.5610 C   0  0  0  0  0  0  0  0  0  0  0  0
  186.3320  177.1600  140.4290 C   0  0  0  0  0  0  0  0  0  0  0  0
  184.3620  178.1300  144.8300 O   0  0  0  0  0  0  0  0  0  0  0  0
  187.3650  176.3430  143.9760 C   0  0  0  0  0  0  0  0  0  0  0  0
  188.5310  175.8610  141.8710 N   0  0  0  0  0  2  0  0  0  0  0  0
  190.1660  174.0320  144.3230 O   0  0  0  0  0  0  0  0  0  0  0  0
  188.6520  177.6230  146.2830 C   0  0  1  0  0  3  0  0  0  0  0  0
  189.4880  174.9550  143.9020 C   0  0  0  0  0  0  0  0  0  0  0  0
  187.2230  177.9900  146.6880 C   0  0  2  0  0  3  0  0  0  0  0  0
  184.8120  177.8410  146.1130 C   0  0  0  0  0  0  0  0  0  0  0  0
  189.7800  175.5270  142.5510 C   0  0  2  0  0  3  0  0  0  0  0  0
  188.3790  175.5180  144.7520 C   0  0  1  0  0  3  0  0  0  0  0  0
  185.2770  177.8110  139.7830 C   0  0  0  0  0  3  0  0  0  0  0  0
  187.1680  178.0430  148.0860 O   0  0  0  0  0  0  0  0  0  0  0  0
  189.4600  178.1320  147.4440 C   0  0  0  0  0  2  0  0  0  0  0  0
  187.3410  176.6140  139.6440 O   0  0  0  0  0  1  0  0  0  0  0  0
  185.2910  177.5880  143.9620 C   0  0  0  0  0  0  0  0  0  0  0  0
  184.2350  178.3810  140.5140 C   0  0  0  0  0  3  0  0  0  0  0  0
  186.3540  177.0690  141.8440 C   0  0  0  0  0  0  0  0  0  0  0  0
  186.2990  176.9470  144.6410 C   0  0  0  0  0  0  0  0  0  0  0  0
  184.1780  178.1700  147.1490 O   0  0  0  0  0  0  0  0  0  0  0  0
  186.1150  177.0950  146.1180 C   0  0  1  0  0  3  0  0  0  0  0  0
  188.4230  178.5440  148.4730 C   0  0  0  0  0  2  0  0  0  0  0  0
  188.5240  175.2430  147.2460 C   0  0  0  0  0  1  0  0  0  0  0  0
  184.2350  178.3050  141.9050 C   0  0  0  0  0  3  0  0  0  0  0  0
  185.2790  177.6570  142.5710 C   0  0  0  0  0  0  0  0  0  0  0  0
  188.9210  176.1180  146.0630 C   0  0  2  0  0  3  0  0  0  0  0  0
  190.6500  176.7700  142.6960 C   0  0  0  0  0  2  0  0  0  0  0  0
  192.6550  176.5200  143.9150 O   0  0  0  0  0  0  0  0  0  0  0  0
  192.0900  176.4010  142.8400 C   0  0  0  0  0  3  0  0  0  0  0  0
  1  4  1  0  0  0  0
  2 19  1  0  0  0  0
  3 10  1  0  0  0  0
  4 20  2  0  0  0  0
  4 12  1  0  0  0  0
  5 11  1  0  0  0  0
  5  1  1  0  0  0  0
  7  9  1  0  0  0  0
  7 15  1  1  0  0  0
  8  6  2  0  0  0  0
  9 14  1  1  0  0  0
 10 22  1  0  0  0  0
 10 21  2  0  0  0  0
 11 28  1  1  0  0  0
 11  8  1  0  0  0  0
 12  8  1  6  0  0  0
 12 27  1  0  0  0  0
 13  2  2  0  0  0  0
 13 18  1  0  0  0  0
 14 23  1  0  0  0  0
 15 23  1  0  0  0  0
 16  2  1  0  0  0  0
 17 20  1  0  0  0  0
 17  3  1  0  0  0  0
 18 25  2  0  0  0  0
 19  1  2  0  0  0  0
 19 26  1  0  0  0  0
 22 20  1  6  0  0  0
 22  9  1  0  0  0  0
 25 26  1  0  0  0  0
 26 17  2  0  0  0  0
 27  7  1  0  0  0  0
 27 24  1  1  0  0  0
 28 30  1  0  0  0  0
 30 29  2  0  0  0  0
M  END
>  <MODEL>
4

>  <REMARK>
 VINA RESULT:      -7.5      1.716      5.032
  Name = 
  2 active torsions:
  status: ('A' for Active; 'I' for Inactive)
    1  A    between atoms: C_11  and  C_28
    2  A    between atoms: C_28  and  C_30
                            x       y       z     vdW  Elec       q    Type
                         _______ _______ _______ _____ _____    ______ ____

>  <TORSDO>
F 2

$$$$
=
 OpenBabel11112416113D

 30 35  0  0  1  0  0  0  0  0999 V2000
  188.8400  175.2420  144.1900 C   0  0  0  0  0  0  0  0  0  0  0  0
  186.6690  176.4390  143.8740 C   0  0  0  0  0  0  0  0  0  0  0  0
  189.8170  177.6250  147.4620 O   0  0  0  0  0  0  0  0  0  0  0  0
  190.0300  175.0680  144.9400 C   0  0  0  0  0  0  0  0  0  0  0  0
  188.6210  174.4140  143.0410 N   0  0  0  0  0  2  0  0  0  0  0  0
  191.0810  171.9830  143.3010 O   0  0  0  0  0  0  0  0  0  0  0  0
  192.8860  175.7020  144.6950 C   0  0  1  0  0  3  0  0  0  0  0  0
  190.6140  173.1010  143.4480 C   0  0  0  0  0  0  0  0  0  0  0  0
  192.6770  176.4600  146.0070 C   0  0  2  0  0  3  0  0  0  0  0  0
  191.0680  177.1120  147.7830 C   0  0  0  0  0  0  0  0  0  0  0  0
  189.6960  173.6580  142.4050 C   0  0  2  0  0  3  0  0  0  0  0  0
  190.9770  173.9110  144.6640 C   0  0  1  0  0  3  0  0  0  0  0  0
  185.7780  177.4340  144.2890 C   0  0  0  0  0  3  0  0  0  0  0  0
  193.8780  176.4180  146.7280 O   0  0  0  0  0  0  0  0  0  0  0  0
  194.3650  175.8430  144.4690 C   0  0  0  0  0  2  0  0  0  0  0  0
  186.3210  175.6700  142.7700 O   0  0  0  0  0  1  0  0  0  0  0  0
  189.3610  176.8910  146.3830 C   0  0  0  0  0  0  0  0  0  0  0  0
  186.0700  178.2390  145.3890 C   0  0  0  0  0  3  0  0  0  0  0  0
  187.8860  176.2350  144.5720 C   0  0  0  0  0  0  0  0  0  0  0  0
  190.2620  175.9190  146.0210 C   0  0  0  0  0  0  0  0  0  0  0  0
  191.7550  177.5380  148.7470 O   0  0  0  0  0  0  0  0  0  0  0  0
  191.4930  176.0000  146.8670 C   0  0  1  0  0  3  0  0  0  0  0  0
  194.8840  176.4740  145.7480 C   0  0  0  0  0  2  0  0  0  0  0  0
  193.1450  173.4110  145.8320 C   0  0  0  0  0  1  0  0  0  0  0  0
  187.2610  178.0580  146.0910 C   0  0  0  0  0  3  0  0  0  0  0  0
  188.1640  177.0680  145.6940 C   0  0  0  0  0  0  0  0  0  0  0  0
  192.4880  174.2090  144.7130 C   0  0  2  0  0  3  0  0  0  0  0  0
  190.4820  174.5550  141.4560 C   0  0  0  0  0  2  0  0  0  0  0  0
  190.2370  172.9570  139.7370 O   0  0  0  0  0  0  0  0  0  0  0  0
  190.9580  173.7880  140.2650 C   0  0  0  0  0  3  0  0  0  0  0  0
  1 19  2  0  0  0  0
  1  4  1  0  0  0  0
  2 13  2  0  0  0  0
  2 19  1  0  0  0  0
  3 10  1  0  0  0  0
  4 20  2  0  0  0  0
  5  1  1  0  0  0  0
  6  8  2  0  0  0  0
  7 15  1  1  0  0  0
  7 27  1  0  0  0  0
  7  9  1  0  0  0  0
  9 14  1  1  0  0  0
  9 22  1  0  0  0  0
 10 21  2  0  0  0  0
 11 28  1  6  0  0  0
 11  5  1  0  0  0  0
 11  8  1  0  0  0  0
 12  8  1  6  0  0  0
 12 27  1  0  0  0  0
 12  4  1  0  0  0  0
 13 18  1  0  0  0  0
 15 23  1  0  0  0  0
 16  2  1  0  0  0  0
 17  3  1  0  0  0  0
 18 25  2  0  0  0  0
 19 26  1  0  0  0  0
 20 17  1  0  0  0  0
 22 20  1  6  0  0  0
 22 10  1  0  0  0  0
 23 14  1  0  0  0  0
 26 25  1  0  0  0  0
 26 17  2  0  0  0  0
 27 24  1  1  0  0  0
 29 30  2  0  0  0  0
 30 28  1  0  0  0  0
M  END
>  <MODEL>
5

>  <REMARK>
 VINA RESULT:      -7.4      1.953      2.868
  Name = 
  2 active torsions:
  status: ('A' for Active; 'I' for Inactive)
    1  A    between atoms: C_11  and  C_28
    2  A    between atoms: C_28  and  C_30
                            x       y       z     vdW  Elec       q    Type
                         _______ _______ _______ _____ _____    ______ ____

>  <TORSDO>
F 2

$$$$
=
 OpenBabel11112416113D

 30 35  0  0  1  0  0  0  0  0999 V2000
  187.7500  175.6600  143.5720 C   0  0  0  0  0  0  0  0  0  0  0  0
  185.9230  177.3650  143.5570 C   0  0  0  0  0  0  0  0  0  0  0  0
  189.5820  177.4720  146.8420 O   0  0  0  0  0  0  0  0  0  0  0  0
  188.9230  175.1450  144.1780 C   0  0  0  0  0  0  0  0  0  0  0  0
  187.2280  175.0010  142.4110 N   0  0  0  0  0  2  0  0  0  0  0  0
  189.0230  172.0370  142.2720 O   0  0  0  0  0  0  0  0  0  0  0  0
  191.8130  175.0910  143.6600 C   0  0  1  0  0  3  0  0  0  0  0  0
  188.8630  173.2190  142.5290 C   0  0  0  0  0  0  0  0  0  0  0  0
  191.9190  175.7710  145.0260 C   0  0  2  0  0  3  0  0  0  0  0  0
  190.6910  176.6500  146.9970 C   0  0  0  0  0  0  0  0  0  0  0  0
  188.0200  174.0610  141.6230 C   0  0  2  0  0  3  0  0  0  0  0  0
  189.5260  173.8200  143.7400 C   0  0  1  0  0  3  0  0  0  0  0  0
  185.3480  178.5080  144.1190 C   0  0  0  0  0  3  0  0  0  0  0  0
  193.1330  175.3850  145.6090 O   0  0  0  0  0  0  0  0  0  0  0  0
  193.2530  174.8890  143.2830 C   0  0  0  0  0  2  0  0  0  0  0  0
  185.2950  176.7910  142.4580 O   0  0  0  0  0  1  0  0  0  0  0  0
  188.8620  176.9570  145.7800 C   0  0  0  0  0  0  0  0  0  0  0  0
  185.9300  179.1310  145.2230 C   0  0  0  0  0  3  0  0  0  0  0  0
  187.1110  176.8190  144.1080 C   0  0  0  0  0  0  0  0  0  0  0  0
  189.4570  175.8280  145.2720 C   0  0  0  0  0  0  0  0  0  0  0  0
  191.5480  176.8220  147.9020 O   0  0  0  0  0  0  0  0  0  0  0  0
  190.7420  175.5440  145.9820 C   0  0  1  0  0  3  0  0  0  0  0  0
  194.0270  175.2740  144.5300 C   0  0  0  0  0  2  0  0  0  0  0  0
  191.6000  172.7220  144.6380 C   0  0  0  0  0  1  0  0  0  0  0  0
  187.0980  178.6140  145.7800 C   0  0  0  0  0  3  0  0  0  0  0  0
  187.6880  177.4710  145.2360 C   0  0  0  0  0  0  0  0  0  0  0  0
  191.0610  173.7410  143.6410 C   0  0  2  0  0  3  0  0  0  0  0  0
  188.9130  174.8130  140.6440 C   0  0  0  0  0  2  0  0  0  0  0  0
  188.1870  173.1960  139.0860 O   0  0  0  0  0  0  0  0  0  0  0  0
  188.8980  174.1650  139.2980 C   0  0  0  0  0  3  0  0  0  0  0  0
  1 19  2  0  0  0  0
  1  4  1  0  0  0  0
  2 19  1  0  0  0  0
  2 13  2  0  0  0  0
  3 10  1  0  0  0  0
  4 20  2  0  0  0  0
  5  1  1  0  0  0  0
  6  8  2  0  0  0  0
  7 15  1  1  0  0  0
  7  9  1  0  0  0  0
  9 14  1  1  0  0  0
  9 22  1  0  0  0  0
 10 21  2  0  0  0  0
 11 28  1  6  0  0  0
 11  5  1  0  0  0  0
 11  8  1  0  0  0  0
 12  8  1  6  0  0  0
 12  4  1  0  0  0  0
 13 18  1  0  0  0  0
 15 23  1  0  0  0  0
 16  2  1  0  0  0  0
 17  3  1  0  0  0  0
 18 25  2  0  0  0  0
 19 26  1  0  0  0  0
 20 17  1  0  0  0  0
 22 20  1  6  0  0  0
 22 10  1  0  0  0  0
 23 14  1  0  0  0  0
 26 17  2  0  0  0  0
 26 25  1  0  0  0  0
 27  7  1  0  0  0  0
 27 12  1  0  0  0  0
 27 24  1  1  0  0  0
 29 30  2  0  0  0  0
 30 28  1  0  0  0  0
M  END
>  <MODEL>
6

>  <REMARK>
 VINA RESULT:      -7.3      1.585      2.007
  Name = 
  2 active torsions:
  status: ('A' for Active; 'I' for Inactive)
    1  A    between atoms: C_11  and  C_28
    2  A    between atoms: C_28  and  C_30
                            x       y       z     vdW  Elec       q    Type
                         _______ _______ _______ _____ _____    ______ ____

>  <TORSDO>
F 2

$$$$
=
 OpenBabel11112416113D

 30 35  0  0  1  0  0  0  0  0999 V2000
  189.7960  176.7040  144.9590 C   0  0  0  0  0  0  0  0  0  0  0  0
  187.7770  177.5360  146.1730 C   0  0  0  0  0  0  0  0  0  0  0  0
  187.4630  175.2090  141.8510 O   0  0  0  0  0  0  0  0  0  0  0  0
  190.3500  176.0760  143.8150 C   0  0  0  0  0  0  0  0  0  0  0  0
  190.6770  177.1290  146.0060 N   0  0  0  0  0  2  0  0  0  0  0  0
  193.8330  176.8280  144.5980 O   0  0  0  0  0  0  0  0  0  0  0  0
  191.4930  173.4720  143.0830 C   0  0  1  0  0  3  0  0  0  0  0  0
  192.6610  176.5230  144.7590 C   0  0  0  0  0  0  0  0  0  0  0  0
  190.3820  173.4480  142.0310 C   0  0  2  0  0  3  0  0  0  0  0  0
  188.4470  174.6500  141.0440 C   0  0  0  0  0  0  0  0  0  0  0  0
  192.0500  176.6450  146.1200 C   0  0  2  0  0  3  0  0  0  0  0  0
  191.8530  176.0130  143.5960 C   0  0  1  0  0  3  0  0  0  0  0  0
  186.3880  177.6860  146.2240 C   0  0  0  0  0  3  0  0  0  0  0  0
  190.8480  172.7240  140.9250 O   0  0  0  0  0  0  0  0  0  0  0  0
  192.2610  172.2180  142.7740 C   0  0  0  0  0  2  0  0  0  0  0  0
  188.5270  178.0330  147.2320 O   0  0  0  0  0  1  0  0  0  0  0  0
  188.1190  175.7700  142.9300 C   0  0  0  0  0  0  0  0  0  0  0  0
  185.5800  177.2090  145.1920 C   0  0  0  0  0  3  0  0  0  0  0  0
  188.3840  176.8950  145.0630 C   0  0  0  0  0  0  0  0  0  0  0  0
  189.4800  175.6110  142.8280 C   0  0  0  0  0  0  0  0  0  0  0  0
  188.1910  174.0780  139.9530 O   0  0  0  0  0  0  0  0  0  0  0  0
  189.8280  174.8150  141.6100 C   0  0  1  0  0  3  0  0  0  0  0  0
  191.6570  171.7160  141.4760 C   0  0  0  0  0  2  0  0  0  0  0  0
  193.0660  174.9390  141.6740 C   0  0  0  0  0  1  0  0  0  0  0  0
  186.1540  176.5740  144.0930 C   0  0  0  0  0  3  0  0  0  0  0  0
  187.5400  176.4150  144.0200 C   0  0  0  0  0  0  0  0  0  0  0  0
  192.4310  174.6980  143.0390 C   0  0  2  0  0  3  0  0  0  0  0  0
  192.0750  175.2900  146.8170 C   0  0  0  0  0  2  0  0  0  0  0  0
  190.0340  174.9110  147.9390 O   0  0  0  0  0  0  0  0  0  0  0  0
  191.1910  175.2910  148.0210 C   0  0  0  0  0  3  0  0  0  0  0  0
  1 19  1  0  0  0  0
  1  5  1  0  0  0  0
  2 13  1  0  0  0  0
  2 16  1  0  0  0  0
  3 17  1  0  0  0  0
  4  1  2  0  0  0  0
  5 11  1  0  0  0  0
  6  8  2  0  0  0  0
  7 15  1  6  0  0  0
  8 11  1  0  0  0  0
  9 14  1  6  0  0  0
  9  7  1  0  0  0  0
 10  3  1  0  0  0  0
 11 28  1  6  0  0  0
 12  4  1  1  0  0  0
 12  8  1  0  0  0  0
 14 23  1  0  0  0  0
 17 26  1  0  0  0  0
 18 13  2  0  0  0  0
 19  2  2  0  0  0  0
 20 17  2  0  0  0  0
 20  4  1  0  0  0  0
 21 10  2  0  0  0  0
 22 10  1  6  0  0  0
 22  9  1  0  0  0  0
 22 20  1  0  0  0  0
 23 15  1  0  0  0  0
 25 18  1  0  0  0  0
 26 25  2  0  0  0  0
 26 19  1  0  0  0  0
 27 24  1  6  0  0  0
 27  7  1  0  0  0  0
 27 12  1  0  0  0  0
 28 30  1  0  0  0  0
 29 30  2  0  0  0  0
M  END
>  <MODEL>
7

>  <REMARK>
 VINA RESULT:      -7.2      2.029      5.225
  Name = 
  2 active torsions:
  status: ('A' for Active; 'I' for Inactive)
    1  A    between atoms: C_11  and  C_28
    2  A    between atoms: C_28  and  C_30
                            x       y       z     vdW  Elec       q    Type
                         _______ _______ _______ _____ _____    ______ ____

>  <TORSDO>
F 2

$$$$
=
 OpenBabel11112416113D

 30 35  0  0  1  0  0  0  0  0999 V2000
  188.1380  175.5870  142.5410 C   0  0  0  0  0  0  0  0  0  0  0  0
  187.1300  176.4380  140.4180 C   0  0  0  0  0  0  0  0  0  0  0  0
  186.0770  178.4140  144.7970 O   0  0  0  0  0  0  0  0  0  0  0  0
  188.2270  175.6560  143.9540 C   0  0  0  0  0  0  0  0  0  0  0  0
  188.9350  174.6190  141.8460 N   0  0  0  0  0  2  0  0  0  0  0  0
  190.1510  172.5860  144.3790 O   0  0  0  0  0  0  0  0  0  0  0  0
  190.1050  176.6420  145.9850 C   0  0  1  0  0  3  0  0  0  0  0  0
  189.7650  173.6390  143.8980 C   0  0  0  0  0  0  0  0  0  0  0  0
  188.9250  177.5000  146.4440 C   0  0  2  0  0  3  0  0  0  0  0  0
  186.5470  178.1120  146.0700 C   0  0  0  0  0  0  0  0  0  0  0  0
  190.0760  173.9530  142.4680 C   0  0  2  0  0  3  0  0  0  0  0  0
  188.9990  174.6160  144.7500 C   0  0  1  0  0  3  0  0  0  0  0  0
  186.2780  177.3410  139.7750 C   0  0  0  0  0  3  0  0  0  0  0  0
  189.0440  177.6980  147.8260 O   0  0  0  0  0  0  0  0  0  0  0  0
  191.1560  176.9570  147.0110 C   0  0  0  0  0  2  0  0  0  0  0  0
  187.8150  175.5160  139.6360 O   0  0  0  0  0  1  0  0  0  0  0  0
  186.6790  177.5150  143.9380 C   0  0  0  0  0  0  0  0  0  0  0  0
  185.5640  178.2910  140.5050 C   0  0  0  0  0  3  0  0  0  0  0  0
  187.2770  176.4760  141.8290 C   0  0  0  0  0  0  0  0  0  0  0  0
  187.4940  176.6410  144.6160 C   0  0  0  0  0  0  0  0  0  0  0  0
  186.1730  178.7280  147.1010 O   0  0  0  0  0  0  0  0  0  0  0  0
  187.5310  176.9770  146.0730 C   0  0  1  0  0  3  0  0  0  0  0  0
  190.4280  177.7850  148.0540 C   0  0  0  0  0  2  0  0  0  0  0  0
  189.3200  174.5410  147.2420 C   0  0  0  0  0  1  0  0  0  0  0  0
  185.6920  178.3490  141.8910 C   0  0  0  0  0  3  0  0  0  0  0  0
  186.5370  177.4540  142.5540 C   0  0  0  0  0  0  0  0  0  0  0  0
  189.8470  175.1190  145.9340 C   0  0  2  0  0  3  0  0  0  0  0  0
  191.3110  174.8410  142.3950 C   0  0  0  0  0  2  0  0  0  0  0  0
  191.9570  173.5760  140.5110 O   0  0  0  0  0  0  0  0  0  0  0  0
  192.3140  174.2870  141.4360 C   0  0  0  0  0  3  0  0  0  0  0  0
  1  4  1  0  0  0  0
  2 19  1  0  0  0  0
  3 10  1  0  0  0  0
  4 20  2  0  0  0  0
  4 12  1  0  0  0  0
  5 11  1  0  0  0  0
  5  1  1  0  0  0  0
  7  9  1  0  0  0  0
  7 15  1  1  0  0  0
  8  6  2  0  0  0  0
  9 14  1  1  0  0  0
 10 22  1  0  0  0  0
 10 21  2  0  0  0  0
 11 28  1  1  0  0  0
 11  8  1  0  0  0  0
 12  8  1  6  0  0  0
 12 27  1  0  0  0  0
 13  2  2  0  0  0  0
 13 18  1  0  0  0  0
 14 23  1  0  0  0  0
 15 23  1  0  0  0  0
 16  2  1  0  0  0  0
 17 20  1  0  0  0  0
 17  3  1  0  0  0  0
 18 25  2  0  0  0  0
 19  1  2  0  0  0  0
 19 26  1  0  0  0  0
 22 20  1  6  0  0  0
 22  9  1  0  0  0  0
 25 26  1  0  0  0  0
 26 17  2  0  0  0  0
 27  7  1  0  0  0  0
 27 24  1  1  0  0  0
 29 30  2  0  0  0  0
 30 28  1  0  0  0  0
M  END
>  <MODEL>
8

>  <REMARK>
 VINA RESULT:      -7.2      1.872      4.569
  Name = 
  2 active torsions:
  status: ('A' for Active; 'I' for Inactive)
    1  A    between atoms: C_11  and  C_28
    2  A    between atoms: C_28  and  C_30
                            x       y       z     vdW  Elec       q    Type
                         _______ _______ _______ _____ _____    ______ ____

>  <TORSDO>
F 2

$$$$
=
 OpenBabel11112416113D

 30 35  0  0  1  0  0  0  0  0999 V2000
  192.1340  173.8130  145.1530 C   0  0  0  0  0  0  0  0  0  0  0  0
  193.7640  171.9440  144.8410 C   0  0  0  0  0  0  0  0  0  0  0  0
  189.5320  172.1750  142.3470 O   0  0  0  0  0  0  0  0  0  0  0  0
  190.8820  174.3960  144.8340 C   0  0  0  0  0  0  0  0  0  0  0  0
  192.9900  174.4850  146.0870 N   0  0  0  0  0  2  0  0  0  0  0  0
  190.9520  176.9400  147.4480 O   0  0  0  0  0  0  0  0  0  0  0  0
  189.8510  176.6340  143.2380 C   0  0  1  0  0  3  0  0  0  0  0  0
  191.3420  176.1930  146.5640 C   0  0  0  0  0  0  0  0  0  0  0  0
  189.0510  175.5510  142.5110 C   0  0  2  0  0  3  0  0  0  0  0  0
  188.5220  173.1300  142.3520 C   0  0  0  0  0  0  0  0  0  0  0  0
  192.8020  175.8870  146.4510 C   0  0  2  0  0  3  0  0  0  0  0  0
  190.3560  175.6050  145.5910 C   0  0  1  0  0  3  0  0  0  0  0  0
  194.1060  170.7480  144.2050 C   0  0  0  0  0  3  0  0  0  0  0  0
  187.8520  176.1230  142.0670 O   0  0  0  0  0  0  0  0  0  0  0  0
  189.3520  177.8960  142.5930 C   0  0  0  0  0  2  0  0  0  0  0  0
  194.6610  172.4730  145.7630 O   0  0  0  0  0  1  0  0  0  0  0  0
  190.4690  172.5960  143.2710 C   0  0  0  0  0  0  0  0  0  0  0  0
  193.2490  170.1670  143.2710 C   0  0  0  0  0  3  0  0  0  0  0  0
  192.5340  172.5850  144.5440 C   0  0  0  0  0  0  0  0  0  0  0  0
  190.0830  173.7650  143.8800 C   0  0  0  0  0  0  0  0  0  0  0  0
  187.4900  173.0380  141.6380 O   0  0  0  0  0  0  0  0  0  0  0  0
  188.7960  174.2610  143.3010 C   0  0  1  0  0  3  0  0  0  0  0  0
  188.1920  177.4430  141.7260 C   0  0  0  0  0  2  0  0  0  0  0  0
  188.1930  176.8220  145.1940 C   0  0  0  0  0  1  0  0  0  0  0  0
  192.0360  170.7780  142.9600 C   0  0  0  0  0  3  0  0  0  0  0  0
  191.6740  171.9730  143.5860 C   0  0  0  0  0  0  0  0  0  0  0  0
  189.6520  176.7000  144.7680 C   0  0  2  0  0  3  0  0  0  0  0  0
  193.4380  176.7940  145.4040 C   0  0  0  0  0  2  0  0  0  0  0  0
  195.2620  176.2230  144.0200 O   0  0  0  0  0  0  0  0  0  0  0  0
  194.8610  176.4110  145.1570 C   0  0  0  0  0  3  0  0  0  0  0  0
  1  5  1  0  0  0  0
  2 16  1  0  0  0  0
  3 10  1  0  0  0  0
  3 17  1  0  0  0  0
  4  1  1  0  0  0  0
  5 11  1  0  0  0  0
  7 15  1  6  0  0  0
  7 27  1  0  0  0  0
  8  6  2  0  0  0  0
  9 14  1  1  0  0  0
  9  7  1  0  0  0  0
  9 22  1  0  0  0  0
 11 28  1  6  0  0  0
 11  8  1  0  0  0  0
 12  4  1  6  0  0  0
 12  8  1  0  0  0  0
 13  2  2  0  0  0  0
 17 26  2  0  0  0  0
 17 20  1  0  0  0  0
 18 13  1  0  0  0  0
 19  2  1  0  0  0  0
 19  1  2  0  0  0  0
 20  4  2  0  0  0  0
 21 10  2  0  0  0  0
 22 10  1  6  0  0  0
 22 20  1  0  0  0  0
 23 14  1  0  0  0  0
 23 15  1  0  0  0  0
 25 18  2  0  0  0  0
 25 26  1  0  0  0  0
 26 19  1  0  0  0  0
 27 24  1  6  0  0  0
 27 12  1  0  0  0  0
 29 30  2  0  0  0  0
 30 28  1  0  0  0  0
M  END
>  <MODEL>
9

>  <REMARK>
 VINA RESULT:      -7.0      2.587      7.356
  Name = 
  2 active torsions:
  status: ('A' for Active; 'I' for Inactive)
    1  A    between atoms: C_11  and  C_28
    2  A    between atoms: C_28  and  C_30
                            x       y       z     vdW  Elec       q    Type
                         _______ _______ _______ _____ _____    ______ ____

>  <TORSDO>
F 2

$$$$
