=
 OpenBabel11112416143D

 30 35  0  0  1  0  0  0  0  0999 V2000
  186.9780  177.0740  143.9440 C   0  0  1  0  0  3  0  0  0  0  0  0
  185.0510  178.1850  145.1930 C   0  0  0  0  0  0  0  0  0  0  0  0
  189.4160  177.2510  147.5320 C   0  0  0  0  0  2  0  0  0  0  0  0
  188.2770  176.2660  144.1640 C   0  0  1  0  0  3  0  0  0  0  0  0
  186.0940  176.3260  143.1460 O   0  0  0  0  0  0  0  0  0  0  0  0
  188.4750  175.5000  140.6030 O   0  0  0  0  0  0  0  0  0  0  0  0
  191.3060  176.4970  143.0390 C   0  0  1  0  0  3  0  0  0  0  0  0
  188.0290  175.9060  141.7100 C   0  0  0  0  0  0  0  0  0  0  0  0
  191.6100  176.7650  144.5110 C   0  0  2  0  0  3  0  0  0  0  0  0
  190.6410  176.7810  146.8370 C   0  0  0  0  0  0  0  0  0  0  0  0
  186.5840  176.3360  141.8130 C   0  0  2  0  0  3  0  0  0  0  0  0
  188.8940  175.9920  142.8600 N   0  0  0  0  0  0  0  0  0  0  0  0
  184.5100  178.7510  146.3500 C   0  0  0  0  0  3  0  0  0  0  0  0
  192.7800  175.8620  144.8440 C   0  0  0  0  0  2  0  0  0  0  0  0
  192.6270  176.0620  142.4240 C   0  0  0  0  0  2  0  0  0  0  0  0
  184.3310  178.2280  144.0430 F   0  0  0  0  0  0  0  0  0  0  0  0
  188.4000  176.9460  146.4580 C   0  0  2  0  0  3  0  0  0  0  0  0
  185.2360  178.7510  147.5430 C   0  0  0  0  0  3  0  0  0  0  0  0
  186.3280  177.5960  145.2230 C   0  0  0  0  0  0  0  0  0  0  0  0
  189.1360  177.0710  145.1370 C   0  0  1  0  0  3  0  0  0  0  0  0
  191.7430  176.6340  147.4310 O   0  0  0  0  0  0  0  0  0  0  0  0
  190.4780  176.5750  145.4280 N   0  0  0  0  0  0  0  0  0  0  0  0
  193.5910  175.7920  143.5680 C   0  0  0  0  0  2  0  0  0  0  0  0
  190.3840  174.1310  143.5310 C   0  0  0  0  0  1  0  0  0  0  0  0
  186.5140  178.1940  147.5840 C   0  0  0  0  0  3  0  0  0  0  0  0
  187.0780  177.6470  146.4250 C   0  0  0  0  0  0  0  0  0  0  0  0
  190.2380  175.4370  142.7550 C   0  0  2  0  0  3  0  0  0  0  0  0
  186.3560  177.6820  141.1320 C   0  0  0  0  0  2  0  0  0  0  0  0
  184.3390  178.3260  140.5210 C   0  0  0  0  0  1  0  0  0  0  0  0
  185.4170  177.5430  140.1110 O   0  0  0  0  0  0  0  0  0  0  0  0
  1  5  1  1  0  0  0
  1  4  1  0  0  0  0
  1 19  1  0  0  0  0
  2 19  2  0  0  0  0
  2 13  1  0  0  0  0
  4 12  1  6  0  0  0
  4 20  1  0  0  0  0
  6  8  2  0  0  0  0
  7 15  1  6  0  0  0
  7  9  1  0  0  0  0
  8 11  1  0  0  0  0
  8 12  1  0  0  0  0
  9 14  1  1  0  0  0
  9 22  1  0  0  0  0
 10 21  2  0  0  0  0
 10  3  1  0  0  0  0
 11 28  1  1  0  0  0
 11  5  1  0  0  0  0
 13 18  2  0  0  0  0
 15 23  1  0  0  0  0
 16  2  1  0  0  0  0
 17  3  1  1  0  0  0
 18 25  1  0  0  0  0
 19 26  1  0  0  0  0
 20 22  1  1  0  0  0
 20 17  1  0  0  0  0
 22 10  1  0  0  0  0
 23 14  1  0  0  0  0
 26 17  1  0  0  0  0
 26 25  2  0  0  0  0
 27 12  1  0  0  0  0
 27  7  1  0  0  0  0
 27 24  1  1  0  0  0
 30 29  1  0  0  0  0
 30 28  1  0  0  0  0
M  END
>  <MODEL>
1

>  <REMARK>
 VINA RESULT:      -8.8      0.000      0.000
  Name = 
  2 active torsions:
  status: ('A' for Active; 'I' for Inactive)
    1  A    between atoms: C_11  and  C_28
    2  A    between atoms: C_28  and  O_30
                            x       y       z     vdW  Elec       q    Type
                         _______ _______ _______ _____ _____    ______ ____

>  <TORSDO>
F 2

$$$$
=
 OpenBabel11112416143D

 30 35  0  0  1  0  0  0  0  0999 V2000
  187.6900  176.2120  143.3270 C   0  0  1  0  0  3  0  0  0  0  0  0
  185.5310  177.5690  143.3680 C   0  0  0  0  0  0  0  0  0  0  0  0
  188.7440  177.7540  147.2470 C   0  0  0  0  0  2  0  0  0  0  0  0
  188.7750  175.6060  144.2470 C   0  0  1  0  0  3  0  0  0  0  0  0
  187.0870  175.1840  142.5790 O   0  0  0  0  0  0  0  0  0  0  0  0
  190.1390  173.6750  141.4690 O   0  0  0  0  0  0  0  0  0  0  0  0
  192.0140  175.6130  144.2380 C   0  0  1  0  0  3  0  0  0  0  0  0
  189.3660  174.4100  142.1420 C   0  0  0  0  0  0  0  0  0  0  0  0
  191.8080  176.3890  145.5380 C   0  0  2  0  0  3  0  0  0  0  0  0
  190.0980  177.1470  147.2260 C   0  0  0  0  0  0  0  0  0  0  0  0
  188.0080  174.7640  141.5820 C   0  0  2  0  0  3  0  0  0  0  0  0
  189.7840  174.9370  143.4170 N   0  0  0  0  0  0  0  0  0  0  0  0
  184.6630  178.4660  143.9970 C   0  0  0  0  0  3  0  0  0  0  0  0
  192.7260  175.7250  146.5430 C   0  0  0  0  0  2  0  0  0  0  0  0
  193.4340  175.0720  144.3090 C   0  0  0  0  0  2  0  0  0  0  0  0
  185.2570  177.1720  142.1000 F   0  0  0  0  0  0  0  0  0  0  0  0
  188.1430  177.0390  146.0610 C   0  0  2  0  0  3  0  0  0  0  0  0
  184.9300  178.9180  145.2910 C   0  0  0  0  0  3  0  0  0  0  0  0
  186.6750  177.1020  144.0400 C   0  0  0  0  0  0  0  0  0  0  0  0
  189.2970  176.7450  145.1200 C   0  0  1  0  0  3  0  0  0  0  0  0
  190.9140  177.2780  148.1770 O   0  0  0  0  0  0  0  0  0  0  0  0
  190.4190  176.4590  146.0100 N   0  0  0  0  0  0  0  0  0  0  0  0
  193.9220  175.2690  145.7360 C   0  0  0  0  0  2  0  0  0  0  0  0
  190.8200  173.5110  145.1570 C   0  0  0  0  0  1  0  0  0  0  0  0
  186.0740  178.4850  145.9610 C   0  0  0  0  0  3  0  0  0  0  0  0
  186.9650  177.6070  145.3320 C   0  0  0  0  0  0  0  0  0  0  0  0
  191.0410  174.4590  143.9820 C   0  0  2  0  0  3  0  0  0  0  0  0
  188.1220  175.7780  140.4480 C   0  0  0  0  0  2  0  0  0  0  0  0
  188.1770  174.4490  138.6900 C   0  0  0  0  0  1  0  0  0  0  0  0
  187.3590  175.3590  139.3600 O   0  0  0  0  0  0  0  0  0  0  0  0
  1  5  1  1  0  0  0
  1 19  1  0  0  0  0
  1  4  1  0  0  0  0
  2 13  2  0  0  0  0
  2 19  1  0  0  0  0
  4 12  1  6  0  0  0
  4 20  1  0  0  0  0
  6  8  2  0  0  0  0
  7 15  1  1  0  0  0
  7  9  1  0  0  0  0
  8 12  1  0  0  0  0
  9 22  1  0  0  0  0
  9 14  1  1  0  0  0
 10  3  1  0  0  0  0
 10 21  2  0  0  0  0
 11 28  1  6  0  0  0
 11  8  1  0  0  0  0
 11  5  1  0  0  0  0
 12 27  1  0  0  0  0
 13 18  1  0  0  0  0
 15 23  1  0  0  0  0
 16  2  1  0  0  0  0
 17  3  1  1  0  0  0
 18 25  2  0  0  0  0
 19 26  2  0  0  0  0
 20 22  1  1  0  0  0
 20 17  1  0  0  0  0
 22 10  1  0  0  0  0
 23 14  1  0  0  0  0
 26 25  1  0  0  0  0
 26 17  1  0  0  0  0
 27  7  1  0  0  0  0
 27 24  1  1  0  0  0
 29 30  1  0  0  0  0
 30 28  1  0  0  0  0
M  END
>  <MODEL>
2

>  <REMARK>
 VINA RESULT:      -7.9      1.528      2.048
  Name = 
  2 active torsions:
  status: ('A' for Active; 'I' for Inactive)
    1  A    between atoms: C_11  and  C_28
    2  A    between atoms: C_28  and  O_30
                            x       y       z     vdW  Elec       q    Type
                         _______ _______ _______ _____ _____    ______ ____

>  <TORSDO>
F 2

$$$$
=
 OpenBabel11112416143D

 30 35  0  0  1  0  0  0  0  0999 V2000
  187.1860  176.8900  143.9450 C   0  0  1  0  0  3  0  0  0  0  0  0
  185.2920  178.2910  142.9680 C   0  0  0  0  0  0  0  0  0  0  0  0
  188.0050  175.2380  140.0140 C   0  0  0  0  0  2  0  0  0  0  0  0
  188.4830  176.1430  143.5600 C   0  0  1  0  0  3  0  0  0  0  0  0
  187.4850  177.8750  144.9050 O   0  0  0  0  0  0  0  0  0  0  0  0
  189.3690  175.7410  147.0750 O   0  0  0  0  0  0  0  0  0  0  0  0
  189.6670  173.1930  144.1840 C   0  0  1  0  0  3  0  0  0  0  0  0
  188.7720  176.1290  146.0350 C   0  0  0  0  0  0  0  0  0  0  0  0
  189.5160  173.0410  142.6720 C   0  0  2  0  0  3  0  0  0  0  0  0
  188.9950  174.2580  140.5280 C   0  0  0  0  0  0  0  0  0  0  0  0
  187.7380  177.2260  146.1420 C   0  0  2  0  0  3  0  0  0  0  0  0
  189.0450  175.5130  144.7610 N   0  0  0  0  0  0  0  0  0  0  0  0
  184.5070  178.7000  141.8860 C   0  0  0  0  0  3  0  0  0  0  0  0
  190.8360  172.4660  142.1990 C   0  0  0  0  0  2  0  0  0  0  0  0
  190.6660  172.1250  144.6020 C   0  0  0  0  0  2  0  0  0  0  0  0
  184.9680  178.7230  144.2130 F   0  0  0  0  0  0  0  0  0  0  0  0
  187.8570  176.0970  141.2470 C   0  0  2  0  0  3  0  0  0  0  0  0
  184.7940  178.2520  140.5950 C   0  0  0  0  0  3  0  0  0  0  0  0
  186.3890  177.4350  142.7630 C   0  0  0  0  0  0  0  0  0  0  0  0
  188.1160  175.1830  142.4300 C   0  0  1  0  0  3  0  0  0  0  0  0
  189.5990  173.4490  139.7760 O   0  0  0  0  0  0  0  0  0  0  0  0
  189.1510  174.2690  141.9540 N   0  0  0  0  0  0  0  0  0  0  0  0
  191.3020  171.5790  143.3330 C   0  0  0  0  0  2  0  0  0  0  0  0
  191.3540  175.1380  143.9460 C   0  0  0  0  0  1  0  0  0  0  0  0
  185.8630  177.3810  140.3780 C   0  0  0  0  0  3  0  0  0  0  0  0
  186.6410  176.9440  141.4570 C   0  0  0  0  0  0  0  0  0  0  0  0
  190.1460  174.5600  144.6780 C   0  0  2  0  0  3  0  0  0  0  0  0
  186.4540  176.7170  146.7910 C   0  0  0  0  0  2  0  0  0  0  0  0
  185.2220  178.4030  147.4980 C   0  0  0  0  0  1  0  0  0  0  0  0
  186.1670  177.4720  147.9280 O   0  0  0  0  0  0  0  0  0  0  0  0
  1 19  1  6  0  0  0
  1  5  1  0  0  0  0
  2 16  1  0  0  0  0
  3 10  1  0  0  0  0
  4  1  1  0  0  0  0
  4 12  1  1  0  0  0
  5 11  1  0  0  0  0
  7 15  1  6  0  0  0
  7 27  1  0  0  0  0
  8 11  1  0  0  0  0
  8  6  2  0  0  0  0
  9 14  1  6  0  0  0
  9  7  1  0  0  0  0
 10 22  1  0  0  0  0
 11 28  1  6  0  0  0
 12  8  1  0  0  0  0
 13  2  2  0  0  0  0
 14 23  1  0  0  0  0
 17  3  1  6  0  0  0
 17 26  1  0  0  0  0
 17 20  1  0  0  0  0
 18 13  1  0  0  0  0
 19  2  1  0  0  0  0
 20 22  1  6  0  0  0
 20  4  1  0  0  0  0
 21 10  2  0  0  0  0
 22  9  1  0  0  0  0
 23 15  1  0  0  0  0
 25 18  2  0  0  0  0
 25 26  1  0  0  0  0
 26 19  2  0  0  0  0
 27 24  1  6  0  0  0
 27 12  1  0  0  0  0
 28 30  1  0  0  0  0
 29 30  1  0  0  0  0
M  END
>  <MODEL>
3

>  <REMARK>
 VINA RESULT:      -7.6      1.870      5.014
  Name = 
  2 active torsions:
  status: ('A' for Active; 'I' for Inactive)
    1  A    between atoms: C_11  and  C_28
    2  A    between atoms: C_28  and  O_30
                            x       y       z     vdW  Elec       q    Type
                         _______ _______ _______ _____ _____    ______ ____

>  <TORSDO>
F 2

$$$$
=
 OpenBabel11112416143D

 30 35  0  0  1  0  0  0  0  0999 V2000
  189.3640  175.7040  143.9610 C   0  0  1  0  0  3  0  0  0  0  0  0
  191.1700  174.6900  145.4510 C   0  0  0  0  0  0  0  0  0  0  0  0
  187.8510  177.9840  147.3320 C   0  0  0  0  0  2  0  0  0  0  0  0
  188.4050  176.9100  143.8460 C   0  0  1  0  0  3  0  0  0  0  0  0
  190.2050  175.6680  142.8340 O   0  0  0  0  0  0  0  0  0  0  0  0
  187.6030  176.0190  140.4000 O   0  0  0  0  0  0  0  0  0  0  0  0
  185.2450  177.2390  143.2110 C   0  0  1  0  0  3  0  0  0  0  0  0
  188.1690  176.0280  141.5270 C   0  0  0  0  0  0  0  0  0  0  0  0
  185.2280  177.7770  144.6400 C   0  0  2  0  0  3  0  0  0  0  0  0
  186.6650  178.4760  146.5880 C   0  0  0  0  0  0  0  0  0  0  0  0
  189.4370  175.2290  141.7230 C   0  0  2  0  0  3  0  0  0  0  0  0
  187.5990  176.7620  142.6280 N   0  0  0  0  0  0  0  0  0  0  0  0
  191.7960  174.5560  146.6930 C   0  0  0  0  0  3  0  0  0  0  0  0
  184.4400  179.0690  144.5650 C   0  0  0  0  0  2  0  0  0  0  0  0
  183.9770  177.7700  142.5600 C   0  0  0  0  0  2  0  0  0  0  0  0
  191.5720  173.8980  144.4250 F   0  0  0  0  0  0  0  0  0  0  0  0
  188.6380  177.4140  146.1770 C   0  0  2  0  0  3  0  0  0  0  0  0
  191.3880  175.3350  147.7780 C   0  0  0  0  0  3  0  0  0  0  0  0
  190.1320  175.6240  145.2790 C   0  0  0  0  0  0  0  0  0  0  0  0
  187.6130  176.9680  145.1500 C   0  0  1  0  0  3  0  0  0  0  0  0
  185.8050  179.2350  147.1100 O   0  0  0  0  0  0  0  0  0  0  0  0
  186.5490  177.9620  145.2540 N   0  0  0  0  0  0  0  0  0  0  0  0
  183.4040  178.8310  143.4870 C   0  0  0  0  0  2  0  0  0  0  0  0
  186.8350  179.1070  142.3930 C   0  0  0  0  0  1  0  0  0  0  0  0
  190.3420  176.2470  147.6310 C   0  0  0  0  0  3  0  0  0  0  0  0
  189.6900  176.3720  146.3990 C   0  0  0  0  0  0  0  0  0  0  0  0
  186.4570  177.6290  142.3600 C   0  0  2  0  0  3  0  0  0  0  0  0
  189.1460  173.7330  141.7860 C   0  0  0  0  0  2  0  0  0  0  0  0
  190.0040  171.7280  142.1100 C   0  0  0  0  0  1  0  0  0  0  0  0
  190.3380  173.0150  141.6880 O   0  0  0  0  0  0  0  0  0  0  0  0
  1  5  1  6  0  0  0
  1 19  1  0  0  0  0
  2 13  1  0  0  0  0
  4 12  1  6  0  0  0
  4  1  1  0  0  0  0
  4 20  1  0  0  0  0
  6  8  2  0  0  0  0
  7 15  1  6  0  0  0
  7  9  1  0  0  0  0
  8 11  1  0  0  0  0
  8 12  1  0  0  0  0
  9 14  1  6  0  0  0
  9 22  1  0  0  0  0
 10 21  2  0  0  0  0
 10  3  1  0  0  0  0
 11 28  1  1  0  0  0
 11  5  1  0  0  0  0
 13 18  2  0  0  0  0
 15 23  1  0  0  0  0
 16  2  1  0  0  0  0
 17 26  1  0  0  0  0
 17  3  1  1  0  0  0
 19  2  2  0  0  0  0
 19 26  1  0  0  0  0
 20 22  1  6  0  0  0
 20 17  1  0  0  0  0
 22 10  1  0  0  0  0
 23 14  1  0  0  0  0
 25 18  1  0  0  0  0
 26 25  2  0  0  0  0
 27 24  1  1  0  0  0
 27 12  1  0  0  0  0
 27  7  1  0  0  0  0
 30 28  1  0  0  0  0
 30 29  1  0  0  0  0
M  END
>  <MODEL>
4

>  <REMARK>
 VINA RESULT:      -7.4      2.576      5.674
  Name = 
  2 active torsions:
  status: ('A' for Active; 'I' for Inactive)
    1  A    between atoms: C_11  and  C_28
    2  A    between atoms: C_28  and  O_30
                            x       y       z     vdW  Elec       q    Type
                         _______ _______ _______ _____ _____    ______ ____

>  <TORSDO>
F 2

$$$$
=
 OpenBabel11112416143D

 30 35  0  0  1  0  0  0  0  0999 V2000
  188.2000  175.5010  143.0190 C   0  0  1  0  0  3  0  0  0  0  0  0
  186.1720  177.0450  143.1240 C   0  0  0  0  0  0  0  0  0  0  0  0
  189.7040  177.2080  146.7170 C   0  0  0  0  0  2  0  0  0  0  0  0
  189.3030  174.8650  143.8940 C   0  0  1  0  0  3  0  0  0  0  0  0
  187.4520  174.4820  142.3990 O   0  0  0  0  0  0  0  0  0  0  0  0
  190.2630  172.6350  141.1710 O   0  0  0  0  0  0  0  0  0  0  0  0
  192.5200  174.5830  143.6330 C   0  0  1  0  0  3  0  0  0  0  0  0
  189.6140  173.4810  141.8450 C   0  0  0  0  0  0  0  0  0  0  0  0
  192.4880  175.4610  144.8820 C   0  0  2  0  0  3  0  0  0  0  0  0
  190.9960  176.4820  146.6370 C   0  0  0  0  0  0  0  0  0  0  0  0
  188.2480  173.9150  141.3680 C   0  0  2  0  0  3  0  0  0  0  0  0
  190.1800  174.0540  143.0410 N   0  0  0  0  0  0  0  0  0  0  0  0
  185.4380  178.0560  143.7500 C   0  0  0  0  0  3  0  0  0  0  0  0
  193.4300  174.7890  145.8600 C   0  0  0  0  0  2  0  0  0  0  0  0
  193.8900  173.9230  143.6330 C   0  0  0  0  0  2  0  0  0  0  0  0
  185.7610  176.5880  141.9150 F   0  0  0  0  0  0  0  0  0  0  0  0
  188.9480  176.4700  145.6380 C   0  0  2  0  0  3  0  0  0  0  0  0
  185.8490  178.5700  144.9810 C   0  0  0  0  0  3  0  0  0  0  0  0
  187.3250  176.5250  143.7390 C   0  0  0  0  0  0  0  0  0  0  0  0
  189.9900  176.0100  144.6350 C   0  0  1  0  0  3  0  0  0  0  0  0
  191.8970  176.6040  147.5090 O   0  0  0  0  0  0  0  0  0  0  0  0
  191.1550  175.6870  145.4540 N   0  0  0  0  0  0  0  0  0  0  0  0
  194.5110  174.1730  144.9990 C   0  0  0  0  0  2  0  0  0  0  0  0
  191.2360  172.6630  144.7980 C   0  0  0  0  0  1  0  0  0  0  0  0
  187.0060  178.0840  145.5910 C   0  0  0  0  0  3  0  0  0  0  0  0
  187.7640  177.0890  144.9630 C   0  0  0  0  0  0  0  0  0  0  0  0
  191.4360  173.5050  143.5410 C   0  0  2  0  0  3  0  0  0  0  0  0
  188.3500  174.8350  140.1560 C   0  0  0  0  0  2  0  0  0  0  0  0
  187.8500  174.7690  138.0100 C   0  0  0  0  0  1  0  0  0  0  0  0
  188.5450  174.0770  139.0010 O   0  0  0  0  0  0  0  0  0  0  0  0
  1  5  1  1  0  0  0
  1 19  1  0  0  0  0
  1  4  1  0  0  0  0
  2 19  2  0  0  0  0
  2 13  1  0  0  0  0
  4 12  1  6  0  0  0
  4 20  1  0  0  0  0
  6  8  2  0  0  0  0
  7 15  1  1  0  0  0
  7  9  1  0  0  0  0
  8 12  1  0  0  0  0
  9 22  1  0  0  0  0
  9 14  1  1  0  0  0
 10  3  1  0  0  0  0
 10 21  2  0  0  0  0
 11 28  1  6  0  0  0
 11  8  1  0  0  0  0
 11  5  1  0  0  0  0
 12 27  1  0  0  0  0
 13 18  2  0  0  0  0
 15 23  1  0  0  0  0
 16  2  1  0  0  0  0
 17  3  1  1  0  0  0
 18 25  1  0  0  0  0
 19 26  1  0  0  0  0
 20 22  1  1  0  0  0
 20 17  1  0  0  0  0
 22 10  1  0  0  0  0
 23 14  1  0  0  0  0
 26 25  2  0  0  0  0
 26 17  1  0  0  0  0
 27  7  1  0  0  0  0
 27 24  1  1  0  0  0
 29 30  1  0  0  0  0
 30 28  1  0  0  0  0
M  END
>  <MODEL>
5

>  <REMARK>
 VINA RESULT:      -7.4      1.872      2.568
  Name = 
  2 active torsions:
  status: ('A' for Active; 'I' for Inactive)
    1  A    between atoms: C_11  and  C_28
    2  A    between atoms: C_28  and  O_30
                            x       y       z     vdW  Elec       q    Type
                         _______ _______ _______ _____ _____    ______ ____

>  <TORSDO>
F 2

$$$$
=
 OpenBabel11112416143D

 30 35  0  0  1  0  0  0  0  0999 V2000
  190.0870  175.1010  144.0180 C   0  0  1  0  0  3  0  0  0  0  0  0
  192.4080  174.0560  144.1880 C   0  0  0  0  0  0  0  0  0  0  0  0
  190.8410  177.3860  147.6320 C   0  0  0  0  0  2  0  0  0  0  0  0
  189.2550  176.3210  144.4740 C   0  0  1  0  0  3  0  0  0  0  0  0
  190.1180  175.0590  142.6110 O   0  0  0  0  0  0  0  0  0  0  0  0
  186.5920  175.4590  142.1360 O   0  0  0  0  0  0  0  0  0  0  0  0
  186.3180  176.6970  145.7880 C   0  0  1  0  0  3  0  0  0  0  0  0
  187.7070  175.4540  142.7250 C   0  0  0  0  0  0  0  0  0  0  0  0
  187.1400  177.2280  146.9600 C   0  0  2  0  0  3  0  0  0  0  0  0
  189.4490  177.8980  147.7110 C   0  0  0  0  0  0  0  0  0  0  0  0
  188.8420  174.6370  142.1530 C   0  0  2  0  0  3  0  0  0  0  0  0
  187.8910  176.1910  143.9500 N   0  0  0  0  0  0  0  0  0  0  0  0
  193.6360  173.9070  144.8380 C   0  0  0  0  0  3  0  0  0  0  0  0
  186.4720  178.5310  147.3510 C   0  0  0  0  0  2  0  0  0  0  0  0
  184.9150  177.2490  145.9900 C   0  0  0  0  0  2  0  0  0  0  0  0
  192.1290  173.2640  143.1220 F   0  0  0  0  0  0  0  0  0  0  0  0
  190.8040  176.8110  146.2360 C   0  0  2  0  0  3  0  0  0  0  0  0
  193.9430  174.6860  145.9550 C   0  0  0  0  0  3  0  0  0  0  0  0
  191.4750  175.0040  144.6460 C   0  0  0  0  0  0  0  0  0  0  0  0
  189.3680  176.3840  145.9960 C   0  0  1  0  0  3  0  0  0  0  0  0
  189.0620  178.6660  148.6320 O   0  0  0  0  0  0  0  0  0  0  0  0
  188.5750  177.3920  146.6940 N   0  0  0  0  0  0  0  0  0  0  0  0
  185.0010  178.3130  147.0740 C   0  0  0  0  0  2  0  0  0  0  0  0
  187.1660  178.5470  144.1920 C   0  0  0  0  0  1  0  0  0  0  0  0
  193.0190  175.6130  146.4380 C   0  0  0  0  0  3  0  0  0  0  0  0
  191.7750  175.7530  145.8120 C   0  0  0  0  0  0  0  0  0  0  0  0
  186.8170  177.0750  144.3900 C   0  0  2  0  0  3  0  0  0  0  0  0
  188.6200  173.1450  142.3790 C   0  0  0  0  0  2  0  0  0  0  0  0
  188.6040  172.8490  140.1940 C   0  0  0  0  0  1  0  0  0  0  0  0
  189.2340  172.4160  141.3610 O   0  0  0  0  0  0  0  0  0  0  0  0
  1  5  1  6  0  0  0
  1  4  1  0  0  0  0
  1 19  1  0  0  0  0
  2 19  2  0  0  0  0
  2 13  1  0  0  0  0
  3 10  1  0  0  0  0
  4 12  1  1  0  0  0
  4 20  1  0  0  0  0
  6  8  2  0  0  0  0
  7 15  1  1  0  0  0
  7  9  1  0  0  0  0
  8 12  1  0  0  0  0
  9 14  1  6  0  0  0
 10 21  2  0  0  0  0
 11 28  1  1  0  0  0
 11  5  1  0  0  0  0
 11  8  1  0  0  0  0
 12 27  1  0  0  0  0
 13 18  2  0  0  0  0
 15 23  1  0  0  0  0
 16  2  1  0  0  0  0
 17  3  1  1  0  0  0
 18 25  1  0  0  0  0
 19 26  1  0  0  0  0
 20 17  1  0  0  0  0
 20 22  1  6  0  0  0
 22  9  1  0  0  0  0
 22 10  1  0  0  0  0
 23 14  1  0  0  0  0
 26 17  1  0  0  0  0
 26 25  2  0  0  0  0
 27 24  1  1  0  0  0
 27  7  1  0  0  0  0
 29 30  1  0  0  0  0
 30 28  1  0  0  0  0
M  END
>  <MODEL>
6

>  <REMARK>
 VINA RESULT:      -7.4      2.539      5.765
  Name = 
  2 active torsions:
  status: ('A' for Active; 'I' for Inactive)
    1  A    between atoms: C_11  and  C_28
    2  A    between atoms: C_28  and  O_30
                            x       y       z     vdW  Elec       q    Type
                         _______ _______ _______ _____ _____    ______ ____

>  <TORSDO>
F 2

$$$$
=
 OpenBabel11112416143D

 30 35  0  0  1  0  0  0  0  0999 V2000
  188.8160  176.0250  143.9740 C   0  0  1  0  0  3  0  0  0  0  0  0
  187.2880  177.8720  144.8450 C   0  0  0  0  0  0  0  0  0  0  0  0
  187.0850  176.4480  140.0140 C   0  0  0  0  0  2  0  0  0  0  0  0
  189.4400  175.4600  142.6770 C   0  0  1  0  0  3  0  0  0  0  0  0
  189.8430  176.3860  144.8650 O   0  0  0  0  0  0  0  0  0  0  0  0
  191.6710  173.3180  144.6130 O   0  0  0  0  0  0  0  0  0  0  0  0
  189.6970  172.4970  141.3920 C   0  0  1  0  0  3  0  0  0  0  0  0
  190.8290  174.2130  144.3290 C   0  0  0  0  0  0  0  0  0  0  0  0
  188.8150  173.1180  140.3110 C   0  0  2  0  0  3  0  0  0  0  0  0
  187.8010  175.2660  139.4720 C   0  0  0  0  0  0  0  0  0  0  0  0
  190.4070  175.1960  145.3960 C   0  0  2  0  0  3  0  0  0  0  0  0
  190.2470  174.2800  143.0120 N   0  0  0  0  0  0  0  0  0  0  0  0
  186.2810  178.8200  144.6460 C   0  0  0  0  0  3  0  0  0  0  0  0
  189.4770  172.7440  139.0000 C   0  0  0  0  0  2  0  0  0  0  0  0
  190.3450  171.2850  140.7430 C   0  0  0  0  0  2  0  0  0  0  0  0
  187.7530  177.6630  146.1020 F   0  0  0  0  0  0  0  0  0  0  0  0
  187.8330  176.6030  141.3170 C   0  0  2  0  0  3  0  0  0  0  0  0
  185.7600  179.0400  143.3690 C   0  0  0  0  0  3  0  0  0  0  0  0
  187.7970  177.1410  143.7570 C   0  0  0  0  0  0  0  0  0  0  0  0
  188.2870  175.2090  141.7080 C   0  0  1  0  0  3  0  0  0  0  0  0
  187.6680  174.8830  138.2790 O   0  0  0  0  0  0  0  0  0  0  0  0
  188.5980  174.5650  140.4350 N   0  0  0  0  0  0  0  0  0  0  0  0
  190.0860  171.3810  139.2470 C   0  0  0  0  0  2  0  0  0  0  0  0
  191.6230  174.1670  140.9560 C   0  0  0  0  0  1  0  0  0  0  0  0
  186.2350  178.3040  142.2830 C   0  0  0  0  0  3  0  0  0  0  0  0
  187.2250  177.3330  142.4740 C   0  0  0  0  0  0  0  0  0  0  0  0
  190.7840  173.4040  141.9770 C   0  0  2  0  0  3  0  0  0  0  0  0
  189.4900  174.5400  146.4240 C   0  0  0  0  0  2  0  0  0  0  0  0
  190.9450  175.2910  147.9010 C   0  0  0  0  0  1  0  0  0  0  0  0
  189.5770  175.2210  147.6380 O   0  0  0  0  0  0  0  0  0  0  0  0
  1 19  1  6  0  0  0
  1  5  1  0  0  0  0
  2 16  1  0  0  0  0
  4 12  1  1  0  0  0
  4  1  1  0  0  0  0
  5 11  1  0  0  0  0
  7 15  1  6  0  0  0
  7 27  1  0  0  0  0
  8  6  2  0  0  0  0
  8 11  1  0  0  0  0
  9 14  1  6  0  0  0
  9 22  1  0  0  0  0
  9  7  1  0  0  0  0
 10  3  1  0  0  0  0
 10 22  1  0  0  0  0
 11 28  1  1  0  0  0
 12  8  1  0  0  0  0
 13  2  1  0  0  0  0
 14 23  1  0  0  0  0
 17  3  1  6  0  0  0
 17 20  1  0  0  0  0
 17 26  1  0  0  0  0
 18 13  2  0  0  0  0
 19  2  2  0  0  0  0
 20 22  1  6  0  0  0
 20  4  1  0  0  0  0
 21 10  2  0  0  0  0
 23 15  1  0  0  0  0
 25 26  2  0  0  0  0
 25 18  1  0  0  0  0
 26 19  1  0  0  0  0
 27 24  1  6  0  0  0
 27 12  1  0  0  0  0
 28 30  1  0  0  0  0
 30 29  1  0  0  0  0
M  END
>  <MODEL>
7

>  <REMARK>
 VINA RESULT:      -7.3      2.575      5.631
  Name = 
  2 active torsions:
  status: ('A' for Active; 'I' for Inactive)
    1  A    between atoms: C_11  and  C_28
    2  A    between atoms: C_28  and  O_30
                            x       y       z     vdW  Elec       q    Type
                         _______ _______ _______ _____ _____    ______ ____

>  <TORSDO>
F 2

$$$$
=
 OpenBabel11112416143D

 30 35  0  0  1  0  0  0  0  0999 V2000
  188.4490  175.9230  143.5140 C   0  0  1  0  0  3  0  0  0  0  0  0
  186.5400  177.1220  144.7070 C   0  0  0  0  0  0  0  0  0  0  0  0
  190.9900  176.4860  146.9890 C   0  0  0  0  0  2  0  0  0  0  0  0
  189.7680  175.1590  143.7700 C   0  0  1  0  0  3  0  0  0  0  0  0
  187.5540  175.0870  142.8200 O   0  0  0  0  0  0  0  0  0  0  0  0
  189.8730  174.0500  140.2960 O   0  0  0  0  0  0  0  0  0  0  0  0
  192.7570  175.3220  142.5340 C   0  0  1  0  0  3  0  0  0  0  0  0
  189.4530  174.5560  141.3730 C   0  0  0  0  0  0  0  0  0  0  0  0
  193.1000  175.7380  143.9620 C   0  0  2  0  0  3  0  0  0  0  0  0
  192.2010  175.9680  146.3050 C   0  0  0  0  0  0  0  0  0  0  0  0
  188.0050  174.9730  141.4780 C   0  0  2  0  0  3  0  0  0  0  0  0
  190.3500  174.7670  142.4810 N   0  0  0  0  0  0  0  0  0  0  0  0
  186.0250  177.7910  145.8210 C   0  0  0  0  0  3  0  0  0  0  0  0
  194.2950  174.8890  144.3440 C   0  0  0  0  0  2  0  0  0  0  0  0
  194.0670  174.8480  141.9220 C   0  0  0  0  0  2  0  0  0  0  0  0
  185.7860  177.0420  143.5830 F   0  0  0  0  0  0  0  0  0  0  0  0
  189.9470  176.0620  145.9820 C   0  0  2  0  0  3  0  0  0  0  0  0
  186.7860  177.9180  146.9850 C   0  0  0  0  0  3  0  0  0  0  0  0
  187.8280  176.5570  144.7560 C   0  0  0  0  0  0  0  0  0  0  0  0
  190.6410  176.0670  144.6330 C   0  0  1  0  0  3  0  0  0  0  0  0
  193.3220  175.8960  146.8750 O   0  0  0  0  0  0  0  0  0  0  0  0
  192.0000  175.6220  144.9280 N   0  0  0  0  0  0  0  0  0  0  0  0
  195.0700  174.7060  143.0570 C   0  0  0  0  0  2  0  0  0  0  0  0
  191.8930  173.0020  143.2830 C   0  0  0  0  0  1  0  0  0  0  0  0
  188.0740  177.3870  147.0400 C   0  0  0  0  0  3  0  0  0  0  0  0
  188.6130  176.7370  145.9230 C   0  0  0  0  0  0  0  0  0  0  0  0
  191.7000  174.2230  142.3880 C   0  0  2  0  0  3  0  0  0  0  0  0
  187.7330  176.2430  140.6770 C   0  0  0  0  0  2  0  0  0  0  0  0
  186.2910  177.8080  140.1020 C   0  0  0  0  0  1  0  0  0  0  0  0
  186.4300  176.6800  140.9100 O   0  0  0  0  0  0  0  0  0  0  0  0
  1  5  1  1  0  0  0
  1  4  1  0  0  0  0
  1 19  1  0  0  0  0
  2 19  2  0  0  0  0
  2 13  1  0  0  0  0
  4 12  1  6  0  0  0
  4 20  1  0  0  0  0
  6  8  2  0  0  0  0
  7 15  1  1  0  0  0
  7  9  1  0  0  0  0
  8 11  1  0  0  0  0
  8 12  1  0  0  0  0
  9 14  1  1  0  0  0
  9 22  1  0  0  0  0
 10 21  2  0  0  0  0
 10  3  1  0  0  0  0
 11 28  1  1  0  0  0
 11  5  1  0  0  0  0
 13 18  2  0  0  0  0
 15 23  1  0  0  0  0
 16  2  1  0  0  0  0
 17  3  1  1  0  0  0
 18 25  1  0  0  0  0
 19 26  1  0  0  0  0
 20 22  1  1  0  0  0
 20 17  1  0  0  0  0
 22 10  1  0  0  0  0
 23 14  1  0  0  0  0
 26 17  1  0  0  0  0
 26 25  2  0  0  0  0
 27 12  1  0  0  0  0
 27  7  1  0  0  0  0
 27 24  1  1  0  0  0
 28 30  1  0  0  0  0
 29 30  1  0  0  0  0
M  END
>  <MODEL>
8

>  <REMARK>
 VINA RESULT:      -7.2      1.404      1.901
  Name = 
  2 active torsions:
  status: ('A' for Active; 'I' for Inactive)
    1  A    between atoms: C_11  and  C_28
    2  A    between atoms: C_28  and  O_30
                            x       y       z     vdW  Elec       q    Type
                         _______ _______ _______ _____ _____    ______ ____

>  <TORSDO>
F 2

$$$$
=
 OpenBabel11112416143D

 30 35  0  0  1  0  0  0  0  0999 V2000
  188.6870  175.0990  141.4430 C   0  0  1  0  0  3  0  0  0  0  0  0
  187.0590  176.4320  140.0010 C   0  0  0  0  0  0  0  0  0  0  0  0
  187.9340  177.7720  144.7810 C   0  0  0  0  0  2  0  0  0  0  0  0
  189.0580  174.7950  142.9120 C   0  0  1  0  0  3  0  0  0  0  0  0
  188.3610  173.8980  140.7870 O   0  0  0  0  0  0  0  0  0  0  0  0
  191.2490  172.0750  141.8610 O   0  0  0  0  0  0  0  0  0  0  0  0
  191.8300  174.7530  144.5870 C   0  0  1  0  0  3  0  0  0  0  0  0
  190.3870  172.9940  141.8160 C   0  0  0  0  0  0  0  0  0  0  0  0
  191.1510  175.8980  145.3360 C   0  0  2  0  0  3  0  0  0  0  0  0
  188.9960  177.1690  145.6260 C   0  0  0  0  0  0  0  0  0  0  0  0
  189.5630  173.1750  140.5630 C   0  0  2  0  0  3  0  0  0  0  0  0
  190.2100  173.8870  142.9350 N   0  0  0  0  0  0  0  0  0  0  0  0
  186.1650  177.4930  139.8290 C   0  0  0  0  0  3  0  0  0  0  0  0
  191.3280  175.5680  146.8050 C   0  0  0  0  0  2  0  0  0  0  0  0
  192.9140  174.2400  145.5230 C   0  0  0  0  0  2  0  0  0  0  0  0
  187.3780  175.6630  138.9300 F   0  0  0  0  0  0  0  0  0  0  0  0
  187.8780  176.7310  143.6880 C   0  0  2  0  0  3  0  0  0  0  0  0
  185.8380  178.3220  140.9040 C   0  0  0  0  0  3  0  0  0  0  0  0
  187.6260  176.1820  141.2640 C   0  0  0  0  0  0  0  0  0  0  0  0
  189.2740  176.1420  143.5980 C   0  0  1  0  0  3  0  0  0  0  0  0
  189.2480  177.5790  146.7900 O   0  0  0  0  0  0  0  0  0  0  0  0
  189.7460  176.1320  144.9800 N   0  0  0  0  0  0  0  0  0  0  0  0
  192.6660  174.8660  146.8870 C   0  0  0  0  0  2  0  0  0  0  0  0
  189.9950  173.0590  145.2600 C   0  0  0  0  0  1  0  0  0  0  0  0
  186.4110  178.1040  142.1570 C   0  0  0  0  0  3  0  0  0  0  0  0
  187.3280  177.0610  142.3360 C   0  0  0  0  0  0  0  0  0  0  0  0
  190.9240  173.5910  144.1720 C   0  0  2  0  0  3  0  0  0  0  0  0
  190.3920  173.7830  139.4360 C   0  0  0  0  0  2  0  0  0  0  0  0
  190.7420  173.7960  137.2600 C   0  0  0  0  0  1  0  0  0  0  0  0
  189.7480  173.5880  138.2150 O   0  0  0  0  0  0  0  0  0  0  0  0
  1  5  1  1  0  0  0
  1  4  1  0  0  0  0
  2 19  1  0  0  0  0
  3 10  1  0  0  0  0
  4 12  1  6  0  0  0
  4 20  1  0  0  0  0
  7  9  1  0  0  0  0
  7 15  1  1  0  0  0
  8  6  2  0  0  0  0
  8 12  1  0  0  0  0
  9 14  1  1  0  0  0
 10 21  2  0  0  0  0
 11 28  1  6  0  0  0
 11  5  1  0  0  0  0
 11  8  1  0  0  0  0
 12 27  1  0  0  0  0
 13  2  2  0  0  0  0
 13 18  1  0  0  0  0
 14 23  1  0  0  0  0
 15 23  1  0  0  0  0
 16  2  1  0  0  0  0
 17  3  1  1  0  0  0
 18 25  2  0  0  0  0
 19  1  1  0  0  0  0
 19 26  2  0  0  0  0
 20 17  1  0  0  0  0
 20 22  1  1  0  0  0
 22  9  1  0  0  0  0
 22 10  1  0  0  0  0
 25 26  1  0  0  0  0
 26 17  1  0  0  0  0
 27  7  1  0  0  0  0
 27 24  1  1  0  0  0
 29 30  1  0  0  0  0
 30 28  1  0  0  0  0
M  END
>  <MODEL>
9

>  <REMARK>
 VINA RESULT:      -7.2      2.520      4.309
  Name = 
  2 active torsions:
  status: ('A' for Active; 'I' for Inactive)
    1  A    between atoms: C_11  and  C_28
    2  A    between atoms: C_28  and  O_30
                            x       y       z     vdW  Elec       q    Type
                         _______ _______ _______ _____ _____    ______ ____

>  <TORSDO>
F 2

$$$$
