=
 OpenBabel11112417553D

 34 41  0  0  1  0  0  0  0  0999 V2000
  189.4660  176.3610  142.8490 C   0  0  2  0  0  3  0  0  0  0  0  0
  191.0120  174.4520  142.6300 C   0  0  0  0  0  2  0  0  0  0  0  0
  185.3740  179.0550  147.0030 C   0  0  1  0  0  3  0  0  0  0  0  0
  187.1350  176.4830  143.6440 C   0  0  0  0  0  0  0  0  0  0  0  0
  186.9160  177.1530  146.0490 C   0  0  0  0  0  0  0  0  0  0  0  0
  185.6010  176.8170  148.2630 C   0  0  0  0  0  1  0  0  0  0  0  0
  186.7030  179.0360  147.7490 C   0  0  0  0  0  2  0  0  0  0  0  0
  185.3970  179.1050  144.4940 C   0  0  0  0  0  3  0  0  0  0  0  0
  191.3580  175.9460  144.4050 C   0  0  1  0  0  3  0  0  0  0  0  0
  193.4200  176.0970  146.4260 C   0  0  0  0  0  2  0  0  0  0  0  0
  188.1890  176.9320  146.2080 N   0  0  0  0  0  0  0  0  0  0  0  0
  185.0150  177.6560  144.4210 C   0  0  0  0  0  2  0  0  0  0  0  0
  190.3500  175.8850  145.5680 C   0  0  2  0  0  3  0  0  0  0  0  0
  192.2990  174.0150  143.2990 C   0  0  0  0  0  2  0  0  0  0  0  0
  186.1880  176.7260  144.7880 C   0  0  1  0  0  3  0  0  0  0  0  0
  185.5780  179.7260  145.6670 C   0  0  0  0  0  3  0  0  0  0  0  0
  193.5700  175.0820  145.2730 C   0  0  2  0  0  3  0  0  0  0  0  0
  188.4980  175.9200  143.9390 C   0  0  2  0  0  3  0  0  0  0  0  0
  186.1440  177.7440  147.1950 C   0  0  2  0  0  0  0  0  0  0  0  0
  189.0250  176.3850  145.2130 N   0  0  0  0  0  0  0  0  0  0  0  0
  187.6570  176.1880  141.2730 C   0  0  0  0  0  3  0  0  0  0  0  0
  192.1950  175.8580  147.3220 C   0  0  0  0  0  2  0  0  0  0  0  0
  186.7160  176.5110  142.3670 C   0  0  0  0  0  3  0  0  0  0  0  0
  190.9480  176.5850  146.7950 C   0  0  0  0  0  2  0  0  0  0  0  0
  192.2300  174.7300  144.6260 C   0  0  1  0  0  3  0  0  0  0  0  0
  188.9310  176.0770  141.5130 N   0  0  0  0  0  0  0  0  0  0  0  0
  190.8280  175.8410  143.0320 N   0  0  2  0  0  0  0  0  0  0  0  0
  194.1760  173.9190  145.7500 O   0  0  0  0  0  0  0  0  0  0  0  0
  195.4680  173.9380  145.2130 C   0  0  0  0  0  2  0  0  0  0  0  0
  196.7260  171.0270  146.2720 O   0  0  0  0  0  0  0  0  0  0  0  0
  194.8130  171.5430  144.9880 C   0  0  0  0  0  2  0  0  0  0  0  0
  195.8680  172.5640  144.6840 C   0  0  2  0  0  3  0  0  0  0  0  0
  195.5700  170.4590  145.7160 C   0  0  0  0  0  2  0  0  0  0  0  0
  197.1060  172.0430  145.3830 C   0  0  0  0  0  2  0  0  0  0  0  0
  1 26  1  6  0  0  0
  1 27  1  0  0  0  0
  1 18  1  0  0  0  0
  2 27  1  0  0  0  0
  2 14  1  0  0  0  0
  3 16  1  6  0  0  0
  3 19  1  0  0  0  0
  3  7  1  0  0  0  0
  4 18  1  0  0  0  0
  4 15  1  0  0  0  0
  5 11  2  0  0  0  0
  5 19  1  0  0  0  0
  8 16  2  0  0  0  0
  9 25  1  0  0  0  0
  9 13  1  0  0  0  0
 10 22  1  0  0  0  0
 12  8  1  0  0  0  0
 12 15  1  0  0  0  0
 13 24  1  0  0  0  0
 14 25  1  0  0  0  0
 15  5  1  0  0  0  0
 17 28  1  0  0  0  0
 17 10  1  0  0  0  0
 18 20  1  0  0  0  0
 19  7  1  0  0  0  0
 19  6  1  0  0  0  0
 20 13  1  0  0  0  0
 20 11  1  0  0  0  0
 21 26  2  0  0  0  0
 21 23  1  0  0  0  0
 23  4  2  0  0  0  0
 24 22  1  0  0  0  0
 25 17  1  0  0  0  0
 27  9  1  0  0  0  0
 29 28  1  0  0  0  0
 31 33  1  0  0  0  0
 32 31  1  0  0  0  0
 32 29  1  0  0  0  0
 32 34  1  0  0  0  0
 33 30  1  0  0  0  0
 34 30  1  0  0  0  0
M  END
>  <MODEL>
1

>  <REMARK>
 VINA RESULT:      -8.4      0.000      0.000
  Name = 
  3 active torsions:
  status: ('A' for Active; 'I' for Inactive)
    1  A    between atoms: C_17  and  O_28
    2  A    between atoms: O_28  and  C_29
    3  A    between atoms: C_29  and  C_32
                            x       y       z     vdW  Elec       q    Type
                         _______ _______ _______ _____ _____    ______ ____

>  <TORSDO>
F 3

$$$$
=
 OpenBabel11112417553D

 34 41  0  0  1  0  0  0  0  0999 V2000
  190.3750  173.0580  142.8480 C   0  0  2  0  0  3  0  0  0  0  0  0
  188.4400  174.2400  141.8790 C   0  0  0  0  0  2  0  0  0  0  0  0
  196.3160  174.1180  145.0460 C   0  0  1  0  0  3  0  0  0  0  0  0
  192.7780  173.1500  142.3000 C   0  0  0  0  0  0  0  0  0  0  0  0
  194.0950  174.6970  143.7670 C   0  0  0  0  0  0  0  0  0  0  0  0
  196.0490  176.4040  143.8850 C   0  0  0  0  0  1  0  0  0  0  0  0
  195.4360  175.0140  145.9080 C   0  0  0  0  0  2  0  0  0  0  0  0
  195.3140  172.0540  144.0300 C   0  0  0  0  0  3  0  0  0  0  0  0
  189.2180  174.9470  143.9750 C   0  0  1  0  0  3  0  0  0  0  0  0
  188.2400  176.9420  145.8250 C   0  0  0  0  0  2  0  0  0  0  0  0
  192.9800  175.2130  144.1950 N   0  0  0  0  0  0  0  0  0  0  0  0
  195.2530  172.7010  142.6770 C   0  0  0  0  0  2  0  0  0  0  0  0
  190.5540  175.7140  143.9960 C   0  0  2  0  0  3  0  0  0  0  0  0
  187.4590  175.2920  142.3560 C   0  0  0  0  0  2  0  0  0  0  0  0
  194.1280  173.7500  142.5830 C   0  0  1  0  0  3  0  0  0  0  0  0
  195.7770  172.7100  145.1010 C   0  0  0  0  0  3  0  0  0  0  0  0
  187.3930  176.5860  144.5850 C   0  0  2  0  0  3  0  0  0  0  0  0
  191.5490  173.9810  142.5500 C   0  0  2  0  0  3  0  0  0  0  0  0
  195.3820  175.1460  144.4020 C   0  0  2  0  0  0  0  0  0  0  0  0
  191.7090  174.8750  143.6870 N   0  0  0  0  0  0  0  0  0  0  0  0
  191.3010  171.4910  141.2770 C   0  0  0  0  0  3  0  0  0  0  0  0
  189.6150  177.5430  145.4970 C   0  0  0  0  0  2  0  0  0  0  0  0
  192.6470  172.0080  141.6040 C   0  0  0  0  0  3  0  0  0  0  0  0
  190.6910  176.4590  145.3300 C   0  0  0  0  0  2  0  0  0  0  0  0
  188.2290  175.9690  143.4640 C   0  0  1  0  0  3  0  0  0  0  0  0
  190.2450  172.0130  141.8280 N   0  0  0  0  0  0  0  0  0  0  0  0
  189.1150  173.7760  143.0840 N   0  0  2  0  0  0  0  0  0  0  0  0
  186.7520  177.7330  144.1120 O   0  0  0  0  0  0  0  0  0  0  0  0
  185.3860  177.4420  144.1890 C   0  0  0  0  0  2  0  0  0  0  0  0
  185.3480  177.9830  147.4880 O   0  0  0  0  0  0  0  0  0  0  0  0
  185.5720  179.4510  145.6530 C   0  0  0  0  0  2  0  0  0  0  0  0
  184.6930  178.3120  145.2340 C   0  0  2  0  0  3  0  0  0  0  0  0
  185.6340  179.3150  147.1550 C   0  0  0  0  0  2  0  0  0  0  0  0
  184.4410  177.5410  146.5130 C   0  0  0  0  0  2  0  0  0  0  0  0
  1 26  1  6  0  0  0
  1 27  1  0  0  0  0
  2 14  1  0  0  0  0
  2 27  1  0  0  0  0
  3 16  1  6  0  0  0
  3  7  1  0  0  0  0
  4 18  1  0  0  0  0
  4 15  1  0  0  0  0
  5 11  2  0  0  0  0
  5 19  1  0  0  0  0
  6 19  1  0  0  0  0
  8 16  2  0  0  0  0
  9 13  1  0  0  0  0
 12  8  1  0  0  0  0
 13 24  1  0  0  0  0
 14 25  1  0  0  0  0
 15 12  1  0  0  0  0
 15  5  1  0  0  0  0
 17 10  1  0  0  0  0
 18  1  1  0  0  0  0
 18 20  1  0  0  0  0
 19  3  1  0  0  0  0
 19  7  1  0  0  0  0
 20 13  1  0  0  0  0
 20 11  1  0  0  0  0
 21 23  1  0  0  0  0
 21 26  2  0  0  0  0
 22 10  1  0  0  0  0
 23  4  2  0  0  0  0
 24 22  1  0  0  0  0
 25  9  1  0  0  0  0
 25 17  1  0  0  0  0
 27  9  1  0  0  0  0
 28 29  1  0  0  0  0
 28 17  1  0  0  0  0
 29 32  1  0  0  0  0
 31 33  1  0  0  0  0
 32 31  1  0  0  0  0
 32 34  1  0  0  0  0
 33 30  1  0  0  0  0
 34 30  1  0  0  0  0
M  END
>  <MODEL>
2

>  <REMARK>
 VINA RESULT:      -8.1      3.066      8.514
  Name = 
  3 active torsions:
  status: ('A' for Active; 'I' for Inactive)
    1  A    between atoms: C_17  and  O_28
    2  A    between atoms: O_28  and  C_29
    3  A    between atoms: C_29  and  C_32
                            x       y       z     vdW  Elec       q    Type
                         _______ _______ _______ _____ _____    ______ ____

>  <TORSDO>
F 3

$$$$
=
 OpenBabel11112417553D

 34 41  0  0  1  0  0  0  0  0999 V2000
  192.4350  176.2240  144.9340 C   0  0  2  0  0  3  0  0  0  0  0  0
  190.3740  177.1540  145.9170 C   0  0  0  0  0  2  0  0  0  0  0  0
  194.9940  170.6700  142.9710 C   0  0  1  0  0  3  0  0  0  0  0  0
  193.7870  174.2570  145.5540 C   0  0  0  0  0  0  0  0  0  0  0  0
  193.2620  172.2030  144.2180 C   0  0  0  0  0  0  0  0  0  0  0  0
  193.0230  169.6170  144.2560 C   0  0  0  0  0  1  0  0  0  0  0  0
  193.7250  170.8100  142.1380 C   0  0  0  0  0  2  0  0  0  0  0  0
  196.1070  172.7460  143.8350 C   0  0  0  0  0  3  0  0  0  0  0  0
  190.1920  175.9920  143.8890 C   0  0  1  0  0  3  0  0  0  0  0  0
  187.9460  175.5110  142.1330 C   0  0  0  0  0  2  0  0  0  0  0  0
  192.1760  172.7790  143.7910 N   0  0  0  0  0  0  0  0  0  0  0  0
  195.5910  172.4940  145.2220 C   0  0  0  0  0  2  0  0  0  0  0  0
  190.3540  174.4610  143.9510 C   0  0  2  0  0  3  0  0  0  0  0  0
  188.9320  177.3070  145.4760 C   0  0  0  0  0  2  0  0  0  0  0  0
  194.0850  172.7970  145.3450 C   0  0  1  0  0  3  0  0  0  0  0  0
  195.8150  171.9270  142.8170 C   0  0  0  0  0  3  0  0  0  0  0  0
  187.7760  176.4760  143.3260 C   0  0  2  0  0  3  0  0  0  0  0  0
  192.3860  174.7510  145.3190 C   0  0  2  0  0  3  0  0  0  0  0  0
  193.6330  170.8620  143.6480 C   0  0  2  0  0  0  0  0  0  0  0  0
  191.7200  174.0340  144.2430 N   0  0  0  0  0  0  0  0  0  0  0  0
  194.2960  176.4810  146.4360 C   0  0  0  0  0  3  0  0  0  0  0  0
  188.2770  174.0650  142.5340 C   0  0  0  0  0  2  0  0  0  0  0  0
  194.6570  175.0700  146.1770 C   0  0  0  0  0  3  0  0  0  0  0  0
  189.7900  173.8380  142.6670 C   0  0  0  0  0  2  0  0  0  0  0  0
  188.8010  176.2250  144.4320 C   0  0  1  0  0  3  0  0  0  0  0  0
  193.2360  176.9990  145.8870 N   0  0  0  0  0  0  0  0  0  0  0  0
  191.1070  176.8110  144.7060 N   0  0  2  0  0  0  0  0  0  0  0  0
  186.4870  176.3510  143.8470 O   0  0  0  0  0  0  0  0  0  0  0  0
  185.9330  177.6330  143.7520 C   0  0  0  0  0  2  0  0  0  0  0  0
  185.9320  177.3820  147.0860 O   0  0  0  0  0  0  0  0  0  0  0  0
  185.5040  179.2000  145.6430 C   0  0  0  0  0  2  0  0  0  0  0  0
  185.0520  177.9460  144.9580 C   0  0  2  0  0  3  0  0  0  0  0  0
  185.7120  178.7660  147.0730 C   0  0  0  0  0  2  0  0  0  0  0  0
  185.1730  176.8740  146.0210 C   0  0  0  0  0  2  0  0  0  0  0  0
  1 18  1  0  0  0  0
  1 26  1  1  0  0  0
  3  7  1  6  0  0  0
  3 19  1  0  0  0  0
  4 23  2  0  0  0  0
  5 15  1  0  0  0  0
  7 19  1  0  0  0  0
  8 12  1  0  0  0  0
  9 13  1  0  0  0  0
  9 25  1  0  0  0  0
  9 27  1  0  0  0  0
 10 22  1  0  0  0  0
 10 17  1  0  0  0  0
 11  5  2  0  0  0  0
 11 20  1  0  0  0  0
 12 15  1  0  0  0  0
 13 20  1  0  0  0  0
 14  2  1  0  0  0  0
 15  4  1  0  0  0  0
 16  3  1  0  0  0  0
 16  8  2  0  0  0  0
 17 28  1  0  0  0  0
 17 25  1  0  0  0  0
 18  4  1  0  0  0  0
 19  5  1  0  0  0  0
 19  6  1  0  0  0  0
 20 18  1  0  0  0  0
 22 24  1  0  0  0  0
 23 21  1  0  0  0  0
 24 13  1  0  0  0  0
 25 14  1  0  0  0  0
 26 21  2  0  0  0  0
 27  1  1  0  0  0  0
 27  2  1  0  0  0  0
 29 28  1  0  0  0  0
 29 32  1  0  0  0  0
 31 33  1  0  0  0  0
 32 31  1  0  0  0  0
 32 34  1  0  0  0  0
 33 30  1  0  0  0  0
 34 30  1  0  0  0  0
M  END
>  <MODEL>
3

>  <REMARK>
 VINA RESULT:      -8.1      2.937      8.897
  Name = 
  3 active torsions:
  status: ('A' for Active; 'I' for Inactive)
    1  A    between atoms: C_17  and  O_28
    2  A    between atoms: O_28  and  C_29
    3  A    between atoms: C_29  and  C_32
                            x       y       z     vdW  Elec       q    Type
                         _______ _______ _______ _____ _____    ______ ____

>  <TORSDO>
F 3

$$$$
=
 OpenBabel11112417553D

 34 41  0  0  1  0  0  0  0  0999 V2000
  189.6910  174.6370  145.1420 C   0  0  2  0  0  3  0  0  0  0  0  0
  191.6420  174.1830  143.7040 C   0  0  0  0  0  2  0  0  0  0  0  0
  184.6380  178.5670  145.6520 C   0  0  1  0  0  3  0  0  0  0  0  0
  188.8190  176.7430  146.0820 C   0  0  0  0  0  0  0  0  0  0  0  0
  186.9660  177.7640  144.7380 C   0  0  0  0  0  0  0  0  0  0  0  0
  185.8900  179.9690  143.8880 C   0  0  0  0  0  1  0  0  0  0  0  0
  184.4660  177.9160  144.2850 C   0  0  0  0  0  2  0  0  0  0  0  0
  185.9100  177.3330  147.4280 C   0  0  0  0  0  3  0  0  0  0  0  0
  189.5150  174.1140  142.7190 C   0  0  1  0  0  3  0  0  0  0  0  0
  188.6450  173.4360  140.0460 C   0  0  0  0  0  2  0  0  0  0  0  0
  187.2630  176.9640  143.7550 N   0  0  0  0  0  0  0  0  0  0  0  0
  187.1060  178.2210  147.2450 C   0  0  0  0  0  2  0  0  0  0  0  0
  188.8040  175.4640  142.5090 C   0  0  2  0  0  3  0  0  0  0  0  0
  191.8550  173.7090  142.2810 C   0  0  0  0  0  2  0  0  0  0  0  0
  187.8720  177.9050  145.9460 C   0  0  1  0  0  3  0  0  0  0  0  0
  184.8040  177.4830  146.6880 C   0  0  0  0  0  3  0  0  0  0  0  0
  190.1230  173.2150  140.4360 C   0  0  2  0  0  3  0  0  0  0  0  0
  189.3450  176.0870  144.8350 C   0  0  2  0  0  3  0  0  0  0  0  0
  185.7540  178.6420  144.6050 C   0  0  2  0  0  0  0  0  0  0  0  0
  188.3680  176.0890  143.7560 N   0  0  0  0  0  0  0  0  0  0  0  0
  190.3850  175.3430  147.3340 C   0  0  0  0  0  3  0  0  0  0  0  0
  188.1920  174.9030  140.1040 C   0  0  0  0  0  2  0  0  0  0  0  0
  189.3980  176.4420  147.2570 C   0  0  0  0  0  3  0  0  0  0  0  0
  187.6670  175.2880  141.4960 C   0  0  0  0  0  2  0  0  0  0  0  0
  190.5510  174.0830  141.6190 C   0  0  1  0  0  3  0  0  0  0  0  0
  190.5460  174.5320  146.3290 N   0  0  0  0  0  0  0  0  0  0  0  0
  190.2390  173.9110  143.9880 N   0  0  2  0  0  0  0  0  0  0  0  0
  190.9410  173.4860  139.3380 O   0  0  0  0  0  0  0  0  0  0  0  0
  190.9390  172.3060  138.5860 C   0  0  0  0  0  2  0  0  0  0  0  0
  188.9420  173.7920  136.3530 O   0  0  0  0  0  0  0  0  0  0  0  0
  191.2480  174.0210  136.8020 C   0  0  0  0  0  2  0  0  0  0  0  0
  190.8560  172.6030  137.0910 C   0  0  2  0  0  3  0  0  0  0  0  0
  190.0680  174.5640  136.0350 C   0  0  0  0  0  2  0  0  0  0  0  0
  189.4320  172.4980  136.5870 C   0  0  0  0  0  2  0  0  0  0  0  0
  1 26  1  1  0  0  0
  2 27  1  0  0  0  0
  3  7  1  6  0  0  0
  3 16  1  0  0  0  0
  4 23  2  0  0  0  0
  5 15  1  0  0  0  0
  6 19  1  0  0  0  0
  7 19  1  0  0  0  0
  9 27  1  0  0  0  0
 10 22  1  0  0  0  0
 10 17  1  0  0  0  0
 11 20  1  0  0  0  0
 11  5  2  0  0  0  0
 12  8  1  0  0  0  0
 13  9  1  0  0  0  0
 13 20  1  0  0  0  0
 14  2  1  0  0  0  0
 15  4  1  0  0  0  0
 15 12  1  0  0  0  0
 16  8  2  0  0  0  0
 17 25  1  0  0  0  0
 18  1  1  0  0  0  0
 18  4  1  0  0  0  0
 19  5  1  0  0  0  0
 19  3  1  0  0  0  0
 20 18  1  0  0  0  0
 22 24  1  0  0  0  0
 23 21  1  0  0  0  0
 24 13  1  0  0  0  0
 25 14  1  0  0  0  0
 25  9  1  0  0  0  0
 26 21  2  0  0  0  0
 27  1  1  0  0  0  0
 28 17  1  0  0  0  0
 29 28  1  0  0  0  0
 30 34  1  0  0  0  0
 31 32  1  0  0  0  0
 32 29  1  0  0  0  0
 33 30  1  0  0  0  0
 33 31  1  0  0  0  0
 34 32  1  0  0  0  0
M  END
>  <MODEL>
4

>  <REMARK>
 VINA RESULT:      -8.1      3.442      5.993
  Name = 
  3 active torsions:
  status: ('A' for Active; 'I' for Inactive)
    1  A    between atoms: C_17  and  O_28
    2  A    between atoms: O_28  and  C_29
    3  A    between atoms: C_29  and  C_32
                            x       y       z     vdW  Elec       q    Type
                         _______ _______ _______ _____ _____    ______ ____

>  <TORSDO>
F 3

$$$$
=
 OpenBabel11112417553D

 34 41  0  0  1  0  0  0  0  0999 V2000
  195.2230  174.4940  143.9350 C   0  0  2  0  0  3  0  0  0  0  0  0
  194.1230  176.5460  144.7480 C   0  0  0  0  0  2  0  0  0  0  0  0
  195.6300  168.2010  145.1490 C   0  0  1  0  0  3  0  0  0  0  0  0
  196.4310  172.7120  145.1380 C   0  0  0  0  0  0  0  0  0  0  0  0
  195.0230  170.7060  145.6600 C   0  0  0  0  0  0  0  0  0  0  0  0
  194.5060  168.8310  147.3820 C   0  0  0  0  0  1  0  0  0  0  0  0
  194.1440  168.4380  144.9090 C   0  0  0  0  0  2  0  0  0  0  0  0
  197.2890  169.7510  144.0820 C   0  0  0  0  0  3  0  0  0  0  0  0
  192.7570  174.7490  144.1090 C   0  0  1  0  0  3  0  0  0  0  0  0
  189.8850  174.4730  143.9400 C   0  0  0  0  0  2  0  0  0  0  0  0
  193.9600  171.3980  145.3700 N   0  0  0  0  0  0  0  0  0  0  0  0
  197.5470  170.4400  145.3900 C   0  0  0  0  0  2  0  0  0  0  0  0
  192.7270  173.5320  145.0530 C   0  0  2  0  0  3  0  0  0  0  0  0
  192.6980  177.0530  144.8330 C   0  0  0  0  0  2  0  0  0  0  0  0
  196.3830  171.3620  145.8010 C   0  0  1  0  0  3  0  0  0  0  0  0
  196.4040  168.7520  143.9770 C   0  0  0  0  0  3  0  0  0  0  0  0
  190.4910  175.8620  144.2340 C   0  0  2  0  0  3  0  0  0  0  0  0
  195.1920  173.5650  145.1420 C   0  0  2  0  0  3  0  0  0  0  0  0
  194.8630  169.2430  145.9680 C   0  0  2  0  0  0  0  0  0  0  0  0
  193.9750  172.7730  145.0590 N   0  0  0  0  0  0  0  0  0  0  0  0
  197.6100  174.6370  144.1970 C   0  0  0  0  0  3  0  0  0  0  0  0
  190.1850  173.4140  145.0110 C   0  0  0  0  0  2  0  0  0  0  0  0
  197.5960  173.2750  144.7720 C   0  0  0  0  0  3  0  0  0  0  0  0
  191.5000  172.6710  144.7310 C   0  0  0  0  0  2  0  0  0  0  0  0
  191.9000  175.7720  144.8200 C   0  0  1  0  0  3  0  0  0  0  0  0
  196.4970  175.2150  143.8490 N   0  0  0  0  0  0  0  0  0  0  0  0
  194.0620  175.3920  143.8600 N   0  0  2  0  0  0  0  0  0  0  0  0
  189.6620  176.5550  145.1180 O   0  0  0  0  0  0  0  0  0  0  0  0
  188.6380  177.0770  144.3190 C   0  0  0  0  0  2  0  0  0  0  0  0
  185.3130  177.1780  144.6510 O   0  0  0  0  0  0  0  0  0  0  0  0
  187.0420  176.7980  146.2130 C   0  0  0  0  0  2  0  0  0  0  0  0
  187.5580  177.7410  145.1680 C   0  0  2  0  0  3  0  0  0  0  0  0
  185.5510  176.7920  145.9780 C   0  0  0  0  0  2  0  0  0  0  0  0
  186.3390  178.0830  144.3370 C   0  0  0  0  0  2  0  0  0  0  0  0
  1 26  1  1  0  0  0
  1 18  1  0  0  0  0
  2 14  1  0  0  0  0
  3 16  1  6  0  0  0
  3 19  1  0  0  0  0
  4 18  1  0  0  0  0
  4 15  1  0  0  0  0
  5 15  1  0  0  0  0
  5 19  1  0  0  0  0
  7  3  1  0  0  0  0
  7 19  1  0  0  0  0
  8 12  1  0  0  0  0
  9 25  1  0  0  0  0
  9 13  1  0  0  0  0
 10 17  1  0  0  0  0
 10 22  1  0  0  0  0
 11  5  2  0  0  0  0
 12 15  1  0  0  0  0
 13 20  1  0  0  0  0
 16  8  2  0  0  0  0
 17 25  1  0  0  0  0
 17 28  1  0  0  0  0
 19  6  1  0  0  0  0
 20 18  1  0  0  0  0
 20 11  1  0  0  0  0
 21 23  1  0  0  0  0
 23  4  2  0  0  0  0
 24 22  1  0  0  0  0
 24 13  1  0  0  0  0
 25 14  1  0  0  0  0
 26 21  2  0  0  0  0
 27  1  1  0  0  0  0
 27  9  1  0  0  0  0
 27  2  1  0  0  0  0
 29 28  1  0  0  0  0
 29 32  1  0  0  0  0
 30 33  1  0  0  0  0
 32 31  1  0  0  0  0
 33 31  1  0  0  0  0
 34 30  1  0  0  0  0
 34 32  1  0  0  0  0
M  END
>  <MODEL>
5

>  <REMARK>
 VINA RESULT:      -7.9      3.017      9.518
  Name = 
  3 active torsions:
  status: ('A' for Active; 'I' for Inactive)
    1  A    between atoms: C_17  and  O_28
    2  A    between atoms: O_28  and  C_29
    3  A    between atoms: C_29  and  C_32
                            x       y       z     vdW  Elec       q    Type
                         _______ _______ _______ _____ _____    ______ ____

>  <TORSDO>
F 3

$$$$
=
 OpenBabel11112417553D

 34 41  0  0  1  0  0  0  0  0999 V2000
  191.1610  174.0880  142.3610 C   0  0  2  0  0  3  0  0  0  0  0  0
  189.7320  176.0920  142.5170 C   0  0  0  0  0  2  0  0  0  0  0  0
  196.7420  171.7280  144.4890 C   0  0  1  0  0  3  0  0  0  0  0  0
  193.5780  173.8440  141.9380 C   0  0  0  0  0  0  0  0  0  0  0  0
  194.9520  173.5930  144.0200 C   0  0  0  0  0  0  0  0  0  0  0  0
  197.1950  174.1660  145.1960 C   0  0  0  0  0  1  0  0  0  0  0  0
  195.9580  172.0320  145.7600 C   0  0  0  0  0  2  0  0  0  0  0  0
  195.4790  171.2340  142.3780 C   0  0  0  0  0  3  0  0  0  0  0  0
  190.2930  174.9890  144.5090 C   0  0  1  0  0  3  0  0  0  0  0  0
  189.5030  175.4370  147.2530 C   0  0  0  0  0  2  0  0  0  0  0  0
  193.9280  173.9840  144.7220 N   0  0  0  0  0  0  0  0  0  0  0  0
  195.7910  172.5940  141.8250 C   0  0  0  0  0  2  0  0  0  0  0  0
  191.7460  175.1400  144.9990 C   0  0  2  0  0  3  0  0  0  0  0  0
  188.9500  176.7860  143.6140 C   0  0  0  0  0  2  0  0  0  0  0  0
  194.9640  173.7020  142.5060 C   0  0  1  0  0  3  0  0  0  0  0  0
  195.8950  170.8580  143.5940 C   0  0  0  0  0  3  0  0  0  0  0  0
  188.8130  176.2420  146.1300 C   0  0  2  0  0  3  0  0  0  0  0  0
  192.5460  174.6030  142.7280 C   0  0  2  0  0  3  0  0  0  0  0  0
  196.1840  173.1320  144.7460 C   0  0  2  0  0  0  0  0  0  0  0  0
  192.7150  174.4360  144.1630 N   0  0  0  0  0  0  0  0  0  0  0  0
  191.9530  173.7690  140.1130 C   0  0  0  0  0  3  0  0  0  0  0  0
  191.0130  175.6910  147.3730 C   0  0  0  0  0  2  0  0  0  0  0  0
  193.3080  173.5410  140.6570 C   0  0  0  0  0  3  0  0  0  0  0  0
  191.8270  174.7440  146.4780 C   0  0  0  0  0  2  0  0  0  0  0  0
  189.6600  176.3160  144.8600 C   0  0  1  0  0  3  0  0  0  0  0  0
  190.9660  174.0660  140.9080 N   0  0  0  0  0  0  0  0  0  0  0  0
  190.0750  174.7850  143.0640 N   0  0  2  0  0  0  0  0  0  0  0  0
  188.5360  177.5330  146.5830 O   0  0  0  0  0  0  0  0  0  0  0  0
  187.2340  177.4660  147.0920 C   0  0  0  0  0  2  0  0  0  0  0  0
  184.0740  178.3370  146.4330 O   0  0  0  0  0  0  0  0  0  0  0  0
  186.0900  178.7220  145.2670 C   0  0  0  0  0  2  0  0  0  0  0  0
  186.2030  177.4020  145.9690 C   0  0  2  0  0  3  0  0  0  0  0  0
  184.6180  179.0410  145.3490 C   0  0  0  0  0  2  0  0  0  0  0  0
  184.8130  177.1470  146.5130 C   0  0  0  0  0  2  0  0  0  0  0  0
  1 26  1  6  0  0  0
  1 18  1  0  0  0  0
  1 27  1  0  0  0  0
  2 27  1  0  0  0  0
  2 14  1  0  0  0  0
  3 16  1  6  0  0  0
  3 19  1  0  0  0  0
  3  7  1  0  0  0  0
  4 15  1  0  0  0  0
  4 18  1  0  0  0  0
  5 11  2  0  0  0  0
  5 19  1  0  0  0  0
  8 16  2  0  0  0  0
  9 25  1  0  0  0  0
  9 13  1  0  0  0  0
 10 22  1  0  0  0  0
 12  8  1  0  0  0  0
 12 15  1  0  0  0  0
 13 24  1  0  0  0  0
 14 25  1  0  0  0  0
 15  5  1  0  0  0  0
 17 28  1  0  0  0  0
 17 10  1  0  0  0  0
 18 20  1  0  0  0  0
 19  6  1  0  0  0  0
 19  7  1  0  0  0  0
 20 11  1  0  0  0  0
 20 13  1  0  0  0  0
 21 23  1  0  0  0  0
 21 26  2  0  0  0  0
 23  4  2  0  0  0  0
 24 22  1  0  0  0  0
 25 17  1  0  0  0  0
 27  9  1  0  0  0  0
 28 29  1  0  0  0  0
 30 34  1  0  0  0  0
 31 33  1  0  0  0  0
 31 32  1  0  0  0  0
 32 34  1  0  0  0  0
 32 29  1  0  0  0  0
 33 30  1  0  0  0  0
M  END
>  <MODEL>
6

>  <REMARK>
 VINA RESULT:      -7.8      2.845      8.683
  Name = 
  3 active torsions:
  status: ('A' for Active; 'I' for Inactive)
    1  A    between atoms: C_17  and  O_28
    2  A    between atoms: O_28  and  C_29
    3  A    between atoms: C_29  and  C_32
                            x       y       z     vdW  Elec       q    Type
                         _______ _______ _______ _____ _____    ______ ____

>  <TORSDO>
F 3

$$$$
=
 OpenBabel11112417553D

 34 41  0  0  1  0  0  0  0  0999 V2000
  189.6290  177.4650  146.0510 C   0  0  2  0  0  3  0  0  0  0  0  0
  187.2010  177.2980  146.4500 C   0  0  0  0  0  2  0  0  0  0  0  0
  194.3410  174.8000  142.5950 C   0  0  1  0  0  3  0  0  0  0  0  0
  191.3850  175.7360  145.9690 C   0  0  0  0  0  0  0  0  0  0  0  0
  191.9400  174.9620  143.6510 C   0  0  0  0  0  0  0  0  0  0  0  0
  192.6070  172.9420  142.1610 C   0  0  0  0  0  1  0  0  0  0  0  0
  193.3420  175.2850  141.5510 C   0  0  0  0  0  2  0  0  0  0  0  0
  194.4260  175.9620  144.8170 C   0  0  0  0  0  3  0  0  0  0  0  0
  187.9270  177.6860  144.2540 C   0  0  1  0  0  3  0  0  0  0  0  0
  186.4780  178.1700  141.7990 C   0  0  0  0  0  2  0  0  0  0  0  0
  190.8590  175.5430  143.2170 N   0  0  0  0  0  0  0  0  0  0  0  0
  193.7100  174.8240  145.4850 C   0  0  0  0  0  2  0  0  0  0  0  0
  188.5870  176.5010  143.5230 C   0  0  2  0  0  3  0  0  0  0  0  0
  185.9470  177.5220  145.6290 C   0  0  0  0  0  2  0  0  0  0  0  0
  192.2100  174.7950  145.1340 C   0  0  1  0  0  3  0  0  0  0  0  0
  194.6890  175.9530  143.5050 C   0  0  0  0  0  3  0  0  0  0  0  0
  185.7030  178.1220  143.1330 C   0  0  2  0  0  3  0  0  0  0  0  0
  190.0000  176.0930  145.5040 C   0  0  2  0  0  3  0  0  0  0  0  0
  192.8770  174.3510  142.6460 C   0  0  2  0  0  0  0  0  0  0  0  0
  189.9030  176.1550  144.0530 N   0  0  0  0  0  0  0  0  0  0  0  0
  190.8660  176.9260  148.0410 C   0  0  0  0  0  3  0  0  0  0  0  0
  187.1810  176.8540  141.4310 C   0  0  0  0  0  2  0  0  0  0  0  0
  191.7430  176.0620  147.2230 C   0  0  0  0  0  3  0  0  0  0  0  0
  188.6000  176.7790  142.0150 C   0  0  0  0  0  2  0  0  0  0  0  0
  186.4530  177.3490  144.2180 C   0  0  1  0  0  3  0  0  0  0  0  0
  189.8580  177.5430  147.4970 N   0  0  0  0  0  0  0  0  0  0  0  0
  188.2770  177.8980  145.6710 N   0  0  2  0  0  0  0  0  0  0  0  0
  184.4510  177.5400  142.9260 O   0  0  0  0  0  0  0  0  0  0  0  0
  183.7560  178.4530  142.1260 C   0  0  0  0  0  2  0  0  0  0  0  0
  180.7330  179.7940  141.6360 O   0  0  0  0  0  0  0  0  0  0  0  0
  181.8930  178.0720  140.5130 C   0  0  0  0  0  2  0  0  0  0  0  0
  182.2960  178.0410  141.9570 C   0  0  2  0  0  3  0  0  0  0  0  0
  180.6780  178.9670  140.5050 C   0  0  0  0  0  2  0  0  0  0  0  0
  181.3640  179.0280  142.6280 C   0  0  0  0  0  2  0  0  0  0  0  0
  1 26  1  1  0  0  0
  3  7  1  6  0  0  0
  3 19  1  0  0  0  0
  3 16  1  0  0  0  0
  4 23  2  0  0  0  0
  5 15  1  0  0  0  0
  6 19  1  0  0  0  0
  7 19  1  0  0  0  0
  8 12  1  0  0  0  0
  9 27  1  0  0  0  0
 10 17  1  0  0  0  0
 11  5  2  0  0  0  0
 11 20  1  0  0  0  0
 13 20  1  0  0  0  0
 13  9  1  0  0  0  0
 14  2  1  0  0  0  0
 15 12  1  0  0  0  0
 15  4  1  0  0  0  0
 16  8  2  0  0  0  0
 17 25  1  0  0  0  0
 18  4  1  0  0  0  0
 18  1  1  0  0  0  0
 19  5  1  0  0  0  0
 20 18  1  0  0  0  0
 22 10  1  0  0  0  0
 22 24  1  0  0  0  0
 23 21  1  0  0  0  0
 24 13  1  0  0  0  0
 25  9  1  0  0  0  0
 25 14  1  0  0  0  0
 26 21  2  0  0  0  0
 27  1  1  0  0  0  0
 27  2  1  0  0  0  0
 28 17  1  0  0  0  0
 29 28  1  0  0  0  0
 30 34  1  0  0  0  0
 31 32  1  0  0  0  0
 32 29  1  0  0  0  0
 32 34  1  0  0  0  0
 33 31  1  0  0  0  0
 33 30  1  0  0  0  0
M  END
>  <MODEL>
7

>  <REMARK>
 VINA RESULT:      -7.7      3.831      9.519
  Name = 
  3 active torsions:
  status: ('A' for Active; 'I' for Inactive)
    1  A    between atoms: C_17  and  O_28
    2  A    between atoms: O_28  and  C_29
    3  A    between atoms: C_29  and  C_32
                            x       y       z     vdW  Elec       q    Type
                         _______ _______ _______ _____ _____    ______ ____

>  <TORSDO>
F 3

$$$$
=
 OpenBabel11112417553D

 34 41  0  0  1  0  0  0  0  0999 V2000
  187.8290  176.6090  141.3190 C   0  0  2  0  0  3  0  0  0  0  0  0
  188.5670  174.4650  140.3500 C   0  0  0  0  0  2  0  0  0  0  0  0
  185.2000  179.0720  146.6360 C   0  0  1  0  0  3  0  0  0  0  0  0
  185.7420  177.2400  142.4710 C   0  0  0  0  0  0  0  0  0  0  0  0
  185.9000  177.1630  144.9710 C   0  0  0  0  0  0  0  0  0  0  0  0
  184.6640  176.6110  147.1870 C   0  0  0  0  0  1  0  0  0  0  0  0
  186.4670  178.3850  147.1310 C   0  0  0  0  0  2  0  0  0  0  0  0
  185.1150  179.8880  144.2650 C   0  0  0  0  0  3  0  0  0  0  0  0
  189.5180  175.1310  142.3870 C   0  0  1  0  0  3  0  0  0  0  0  0
  191.5910  173.9590  144.0250 C   0  0  0  0  0  2  0  0  0  0  0  0
  187.0130  176.4970  144.8630 N   0  0  0  0  0  0  0  0  0  0  0  0
  184.2320  178.7440  143.8600 C   0  0  0  0  0  2  0  0  0  0  0  0
  188.6150  175.0490  143.6330 C   0  0  2  0  0  3  0  0  0  0  0  0
  189.6410  173.4430  140.6640 C   0  0  0  0  0  2  0  0  0  0  0  0
  185.0060  177.4140  143.7720 C   0  0  1  0  0  3  0  0  0  0  0  0
  185.5660  180.0170  145.5190 C   0  0  0  0  0  3  0  0  0  0  0  0
  191.3060  173.3620  142.6300 C   0  0  2  0  0  3  0  0  0  0  0  0
  186.8230  176.1970  142.3850 C   0  0  2  0  0  3  0  0  0  0  0  0
  185.4510  177.5900  146.3410 C   0  0  2  0  0  0  0  0  0  0  0  0
  187.5440  176.0430  143.6390 N   0  0  0  0  0  0  0  0  0  0  0  0
  186.0050  177.5400  140.0590 C   0  0  0  0  0  3  0  0  0  0  0  0
  190.4090  173.8720  145.0020 C   0  0  0  0  0  2  0  0  0  0  0  0
  185.3000  177.8000  141.3320 C   0  0  0  0  0  3  0  0  0  0  0  0
  189.4850  175.0950  144.8950 C   0  0  0  0  0  2  0  0  0  0  0  0
  189.9000  173.6920  142.1300 C   0  0  1  0  0  3  0  0  0  0  0  0
  187.1630  176.9470  140.0570 N   0  0  0  0  0  0  0  0  0  0  0  0
  188.9180  175.6390  141.1390 N   0  0  2  0  0  0  0  0  0  0  0  0
  191.4740  171.9770  142.6720 O   0  0  0  0  0  0  0  0  0  0  0  0
  192.6430  171.7320  141.9430 C   0  0  0  0  0  2  0  0  0  0  0  0
  194.6880  172.3110  144.5250 O   0  0  0  0  0  0  0  0  0  0  0  0
  193.1130  170.6010  144.1150 C   0  0  0  0  0  2  0  0  0  0  0  0
  193.6910  171.0260  142.7990 C   0  0  2  0  0  3  0  0  0  0  0  0
  194.0450  171.2200  145.1270 C   0  0  0  0  0  2  0  0  0  0  0  0
  194.8200  171.9640  143.1710 C   0  0  0  0  0  2  0  0  0  0  0  0
  1 26  1  6  0  0  0
  1 18  1  0  0  0  0
  2 14  1  0  0  0  0
  2 27  1  0  0  0  0
  3 16  1  6  0  0  0
  3  7  1  0  0  0  0
  4 15  1  0  0  0  0
  5 19  1  0  0  0  0
  8 16  2  0  0  0  0
  9 13  1  0  0  0  0
 10 22  1  0  0  0  0
 11  5  2  0  0  0  0
 12  8  1  0  0  0  0
 13 20  1  0  0  0  0
 13 24  1  0  0  0  0
 14 25  1  0  0  0  0
 15 12  1  0  0  0  0
 15  5  1  0  0  0  0
 17 28  1  0  0  0  0
 17 10  1  0  0  0  0
 18  4  1  0  0  0  0
 18 20  1  0  0  0  0
 19  3  1  0  0  0  0
 19  7  1  0  0  0  0
 19  6  1  0  0  0  0
 20 11  1  0  0  0  0
 21 23  1  0  0  0  0
 23  4  2  0  0  0  0
 24 22  1  0  0  0  0
 25  9  1  0  0  0  0
 25 17  1  0  0  0  0
 26 21  2  0  0  0  0
 27  1  1  0  0  0  0
 27  9  1  0  0  0  0
 29 28  1  0  0  0  0
 29 32  1  0  0  0  0
 30 33  1  0  0  0  0
 31 33  1  0  0  0  0
 32 34  1  0  0  0  0
 32 31  1  0  0  0  0
 34 30  1  0  0  0  0
M  END
>  <MODEL>
8

>  <REMARK>
 VINA RESULT:      -7.7      1.858      2.676
  Name = 
  3 active torsions:
  status: ('A' for Active; 'I' for Inactive)
    1  A    between atoms: C_17  and  O_28
    2  A    between atoms: O_28  and  C_29
    3  A    between atoms: C_29  and  C_32
                            x       y       z     vdW  Elec       q    Type
                         _______ _______ _______ _____ _____    ______ ____

>  <TORSDO>
F 3

$$$$
=
 OpenBabel11112417553D

 34 41  0  0  1  0  0  0  0  0999 V2000
  186.3120  178.6610  145.4200 C   0  0  2  0  0  3  0  0  0  0  0  0
  183.9240  178.6660  144.8060 C   0  0  0  0  0  2  0  0  0  0  0  0
  191.6190  175.0810  144.8980 C   0  0  1  0  0  3  0  0  0  0  0  0
  187.7210  176.9200  146.4530 C   0  0  0  0  0  0  0  0  0  0  0  0
  189.0390  175.5700  144.8030 C   0  0  0  0  0  0  0  0  0  0  0  0
  189.9730  173.2220  144.2050 C   0  0  0  0  0  1  0  0  0  0  0  0
  191.1830  175.3140  143.4560 C   0  0  0  0  0  2  0  0  0  0  0  0
  190.9700  176.7640  146.6420 C   0  0  0  0  0  3  0  0  0  0  0  0
  185.4990  178.4670  143.0800 C   0  0  1  0  0  3  0  0  0  0  0  0
  185.2090  178.3540  140.2060 C   0  0  0  0  0  2  0  0  0  0  0  0
  188.3000  176.0520  143.8460 N   0  0  0  0  0  0  0  0  0  0  0  0
  189.9100  175.8520  147.1860 C   0  0  0  0  0  2  0  0  0  0  0  0
  186.2350  177.1180  142.9670 C   0  0  2  0  0  3  0  0  0  0  0  0
  183.1350  178.7100  143.5130 C   0  0  0  0  0  2  0  0  0  0  0  0
  188.6790  175.7760  146.2630 C   0  0  1  0  0  3  0  0  0  0  0  0
  191.7250  176.4160  145.5930 C   0  0  0  0  0  3  0  0  0  0  0  0
  183.9720  178.6670  141.0750 C   0  0  2  0  0  3  0  0  0  0  0  0
  186.6890  177.1860  145.3910 C   0  0  2  0  0  3  0  0  0  0  0  0
  190.2090  174.7000  144.4370 C   0  0  2  0  0  0  0  0  0  0  0  0
  187.1800  176.8810  144.0560 N   0  0  0  0  0  0  0  0  0  0  0  0
  186.5850  178.6090  147.8090 C   0  0  0  0  0  3  0  0  0  0  0  0
  185.8240  176.9690  140.4590 C   0  0  0  0  0  2  0  0  0  0  0  0
  187.5940  177.5420  147.6380 C   0  0  0  0  0  3  0  0  0  0  0  0
  186.8760  177.0050  141.5780 C   0  0  0  0  0  2  0  0  0  0  0  0
  184.1290  178.1720  142.5130 C   0  0  1  0  0  3  0  0  0  0  0  0
  185.9610  179.0950  146.7760 N   0  0  0  0  0  0  0  0  0  0  0  0
  185.2870  179.0210  144.4310 N   0  0  2  0  0  0  0  0  0  0  0  0
  182.8400  178.0850  140.5020 O   0  0  0  0  0  0  0  0  0  0  0  0
  181.8300  179.0420  140.6470 C   0  0  0  0  0  2  0  0  0  0  0  0
  178.9490  178.7880  142.3250 O   0  0  0  0  0  0  0  0  0  0  0  0
  179.4270  179.4240  140.1030 C   0  0  0  0  0  2  0  0  0  0  0  0
  180.4460  178.4100  140.5260 C   0  0  2  0  0  3  0  0  0  0  0  0
  178.3630  179.3220  141.1680 C   0  0  0  0  0  2  0  0  0  0  0  0
  179.9480  177.9150  141.8680 C   0  0  0  0  0  2  0  0  0  0  0  0
  1 26  1  1  0  0  0
  3  7  1  6  0  0  0
  3 16  1  0  0  0  0
  4 23  2  0  0  0  0
  5 15  1  0  0  0  0
  6 19  1  0  0  0  0
  7 19  1  0  0  0  0
  8 12  1  0  0  0  0
  9 27  1  0  0  0  0
 10 22  1  0  0  0  0
 10 17  1  0  0  0  0
 11 20  1  0  0  0  0
 11  5  2  0  0  0  0
 13  9  1  0  0  0  0
 13 20  1  0  0  0  0
 14  2  1  0  0  0  0
 15  4  1  0  0  0  0
 15 12  1  0  0  0  0
 16  8  2  0  0  0  0
 17 25  1  0  0  0  0
 18  1  1  0  0  0  0
 18  4  1  0  0  0  0
 19  5  1  0  0  0  0
 19  3  1  0  0  0  0
 20 18  1  0  0  0  0
 22 24  1  0  0  0  0
 23 21  1  0  0  0  0
 24 13  1  0  0  0  0
 25  9  1  0  0  0  0
 25 14  1  0  0  0  0
 26 21  2  0  0  0  0
 27  2  1  0  0  0  0
 27  1  1  0  0  0  0
 28 29  1  0  0  0  0
 28 17  1  0  0  0  0
 31 32  1  0  0  0  0
 31 33  1  0  0  0  0
 32 29  1  0  0  0  0
 32 34  1  0  0  0  0
 33 30  1  0  0  0  0
 34 30  1  0  0  0  0
M  END
>  <MODEL>
9

>  <REMARK>
 VINA RESULT:      -7.6      4.692      9.991
  Name = 
  3 active torsions:
  status: ('A' for Active; 'I' for Inactive)
    1  A    between atoms: C_17  and  O_28
    2  A    between atoms: O_28  and  C_29
    3  A    between atoms: C_29  and  C_32
                            x       y       z     vdW  Elec       q    Type
                         _______ _______ _______ _____ _____    ______ ____

>  <TORSDO>
F 3

$$$$
