=
 OpenBabel11112416123D

 30 35  0  0  1  0  0  0  0  0999 V2000
  187.4970  176.4530  145.7430 C   0  0  1  0  0  3  0  0  0  0  0  0
  185.8570  177.9180  147.1230 C   0  0  2  0  0  3  0  0  0  0  0  0
  185.5030  177.5510  142.1260 N   0  0  0  0  0  0  0  0  0  0  0  0
  188.2420  176.4150  144.3940 C   0  0  1  0  0  3  0  0  0  0  0  0
  188.5450  176.4650  146.8380 C   0  0  0  0  0  2  0  0  0  0  0  0
  190.5530  173.7480  145.4220 O   0  0  0  0  0  0  0  0  0  0  0  0
  188.6710  174.1380  142.1100 C   0  0  1  0  0  3  0  0  0  0  0  0
  189.7000  174.6720  145.5040 C   0  0  0  0  0  0  0  0  0  0  0  0
  187.7720  175.0680  141.2950 C   0  0  2  0  0  3  0  0  0  0  0  0
  186.4740  177.1650  141.1680 C   0  0  0  0  0  0  0  0  0  0  0  0
  189.2390  175.1100  146.8740 C   0  0  1  0  0  3  0  0  0  0  0  0
  189.1220  175.2310  144.3020 N   0  0  0  0  0  0  0  0  0  0  0  0
  184.8170  179.0300  146.9340 C   0  0  0  0  0  2  0  0  0  0  0  0
  188.1920  175.0240  139.9550 O   0  0  0  0  0  0  0  0  0  0  0  0
  189.3570  173.3010  141.0720 C   0  0  0  0  0  2  0  0  0  0  0  0
  186.7820  178.3360  148.0800 O   0  0  0  0  0  1  0  0  0  0  0  0
  186.1100  177.2060  143.3620 C   0  0  0  0  0  0  0  0  0  0  0  0
  183.8610  178.6660  145.9650 O   0  0  0  0  0  0  0  0  0  0  0  0
  186.5540  177.6660  145.7770 C   0  0  2  0  0  3  0  0  0  0  0  0
  187.2890  176.5900  143.2240 C   0  0  1  0  0  3  0  0  0  0  0  0
  186.3290  177.3730  139.9340 O   0  0  0  0  0  0  0  0  0  0  0  0
  187.6720  176.5180  141.7760 C   0  0  1  0  0  3  0  0  0  0  0  0
  188.7120  173.7350  139.7770 C   0  0  0  0  0  2  0  0  0  0  0  0
  190.5750  175.8760  142.3880 C   0  0  0  0  0  1  0  0  0  0  0  0
  184.5190  178.6330  144.7220 C   0  0  0  0  0  2  0  0  0  0  0  0
  185.4820  177.4500  144.7030 C   0  0  1  0  0  3  0  0  0  0  0  0
  189.7070  174.7980  143.0300 C   0  0  2  0  0  3  0  0  0  0  0  0
  190.3220  175.1670  147.7560 O   0  0  0  0  0  0  0  0  0  0  0  0
  192.2830  176.4150  147.2630 C   0  0  0  0  0  1  0  0  0  0  0  0
  190.8160  176.4670  147.6330 C   0  0  0  0  0  2  0  0  0  0  0  0
  1 19  1  0  0  0  0
  1  5  1  1  0  0  0
  2 16  1  1  0  0  0
  3 17  2  0  0  0  0
  4 12  1  6  0  0  0
  4  1  1  0  0  0  0
  5 11  1  0  0  0  0
  6  8  2  0  0  0  0
  7 15  1  6  0  0  0
  7 27  1  0  0  0  0
  8 11  1  0  0  0  0
  9 14  1  6  0  0  0
  9 22  1  0  0  0  0
  9  7  1  0  0  0  0
 10 22  1  0  0  0  0
 10  3  1  0  0  0  0
 11 28  1  1  0  0  0
 12  8  1  0  0  0  0
 13  2  1  0  0  0  0
 17 26  1  0  0  0  0
 18 13  1  0  0  0  0
 19  2  1  0  0  0  0
 20 17  1  0  0  0  0
 20  4  1  0  0  0  0
 21 10  2  0  0  0  0
 22 20  1  0  0  0  0
 23 14  1  0  0  0  0
 23 15  1  0  0  0  0
 24 27  1  0  0  0  0
 25 18  1  0  0  0  0
 26 25  1  0  0  0  0
 26 19  1  0  0  0  0
 27 12  1  0  0  0  0
 29 30  1  0  0  0  0
 30 28  1  0  0  0  0
M  END
>  <MODEL>
1

>  <REMARK>
 VINA RESULT:      -8.9      0.000      0.000
  Name = 
  2 active torsions:
  status: ('A' for Active; 'I' for Inactive)
    1  A    between atoms: C_11  and  O_28
    2  A    between atoms: O_28  and  C_30
                            x       y       z     vdW  Elec       q    Type
                         _______ _______ _______ _____ _____    ______ ____

>  <TORSDO>
F 2

$$$$
=
 OpenBabel11112416123D

 30 35  0  0  1  0  0  0  0  0999 V2000
  186.3260  177.7060  143.8020 C   0  0  1  0  0  3  0  0  0  0  0  0
  185.0030  178.9950  145.6260 C   0  0  2  0  0  3  0  0  0  0  0  0
  188.8770  176.0140  146.7840 N   0  0  0  0  0  0  0  0  0  0  0  0
  187.0470  176.3680  143.5500 C   0  0  1  0  0  3  0  0  0  0  0  0
  185.1880  177.8020  142.8050 C   0  0  0  0  0  2  0  0  0  0  0  0
  187.1890  176.8050  139.9020 O   0  0  0  0  0  0  0  0  0  0  0  0
  189.9250  175.5540  142.2700 C   0  0  1  0  0  3  0  0  0  0  0  0
  186.8480  176.9800  141.1040 C   0  0  0  0  0  0  0  0  0  0  0  0
  190.2310  175.1510  143.7130 C   0  0  2  0  0  3  0  0  0  0  0  0
  189.4610  174.9500  146.0510 C   0  0  0  0  0  0  0  0  0  0  0  0
  185.7670  177.9890  141.4090 C   0  0  1  0  0  3  0  0  0  0  0  0
  187.5460  176.2820  142.1610 N   0  0  0  0  0  0  0  0  0  0  0  0
  184.8010  179.0190  147.1470 C   0  0  0  0  0  2  0  0  0  0  0  0
  191.0590  174.0180  143.6890 O   0  0  0  0  0  0  0  0  0  0  0  0
  190.9430  174.8020  141.4650 C   0  0  0  0  0  2  0  0  0  0  0  0
  183.7530  178.8980  145.0160 O   0  0  0  0  0  1  0  0  0  0  0  0
  188.0120  176.6240  145.8380 C   0  0  0  0  0  0  0  0  0  0  0  0
  186.0370  179.1040  147.8180 O   0  0  0  0  0  0  0  0  0  0  0  0
  185.8710  177.7780  145.2680 C   0  0  2  0  0  3  0  0  0  0  0  0
  188.0890  176.0830  144.6180 C   0  0  1  0  0  3  0  0  0  0  0  0
  190.2520  174.1210  146.5740 O   0  0  0  0  0  0  0  0  0  0  0  0
  189.0240  174.9120  144.6260 C   0  0  1  0  0  3  0  0  0  0  0  0
  191.8080  174.1380  142.5100 C   0  0  0  0  0  2  0  0  0  0  0  0
  188.0000  173.8430  141.9760 C   0  0  0  0  0  1  0  0  0  0  0  0
  186.7100  177.8860  147.6080 C   0  0  0  0  0  2  0  0  0  0  0  0
  187.1290  177.7990  146.1430 C   0  0  1  0  0  3  0  0  0  0  0  0
  188.5130  175.2610  141.7470 C   0  0  2  0  0  3  0  0  0  0  0  0
  184.7400  177.9010  140.4660 O   0  0  0  0  0  0  0  0  0  0  0  0
  182.3680  177.9090  140.3330 C   0  0  0  0  0  1  0  0  0  0  0  0
  183.5850  178.2710  141.1570 C   0  0  0  0  0  2  0  0  0  0  0  0
  1  5  1  6  0  0  0
  1 19  1  0  0  0  0
  2 16  1  6  0  0  0
  2 13  1  0  0  0  0
  4 12  1  6  0  0  0
  4  1  1  0  0  0  0
  4 20  1  0  0  0  0
  6  8  2  0  0  0  0
  7 15  1  6  0  0  0
  7  9  1  0  0  0  0
  8 11  1  0  0  0  0
  8 12  1  0  0  0  0
  9 14  1  6  0  0  0
  9 22  1  0  0  0  0
 10 21  2  0  0  0  0
 10  3  1  0  0  0  0
 11 28  1  6  0  0  0
 11  5  1  0  0  0  0
 13 18  1  0  0  0  0
 15 23  1  0  0  0  0
 17 26  1  0  0  0  0
 17  3  2  0  0  0  0
 19  2  1  0  0  0  0
 19 26  1  0  0  0  0
 20 22  1  0  0  0  0
 20 17  1  0  0  0  0
 22 10  1  0  0  0  0
 23 14  1  0  0  0  0
 25 18  1  0  0  0  0
 26 25  1  0  0  0  0
 27 24  1  0  0  0  0
 27 12  1  0  0  0  0
 27  7  1  0  0  0  0
 28 30  1  0  0  0  0
 29 30  1  0  0  0  0
M  END
>  <MODEL>
2

>  <REMARK>
 VINA RESULT:      -8.1      1.528      5.205
  Name = 
  2 active torsions:
  status: ('A' for Active; 'I' for Inactive)
    1  A    between atoms: C_11  and  O_28
    2  A    between atoms: O_28  and  C_30
                            x       y       z     vdW  Elec       q    Type
                         _______ _______ _______ _____ _____    ______ ____

>  <TORSDO>
F 2

$$$$
=
 OpenBabel11112416123D

 30 35  0  0  1  0  0  0  0  0999 V2000
  190.7860  175.0130  143.8000 C   0  0  1  0  0  3  0  0  0  0  0  0
  193.2730  174.2670  143.8180 C   0  0  2  0  0  3  0  0  0  0  0  0
  191.2840  176.9200  147.5920 N   0  0  0  0  0  0  0  0  0  0  0  0
  189.8710  176.1810  144.2170 C   0  0  1  0  0  3  0  0  0  0  0  0
  190.6780  174.8680  142.2950 C   0  0  0  0  0  2  0  0  0  0  0  0
  187.0190  175.0410  142.1950 O   0  0  0  0  0  0  0  0  0  0  0  0
  187.0270  176.3790  145.7830 C   0  0  1  0  0  3  0  0  0  0  0  0
  188.2000  175.1420  142.6280 C   0  0  0  0  0  0  0  0  0  0  0  0
  187.8950  177.0090  146.8720 C   0  0  2  0  0  3  0  0  0  0  0  0
  190.1310  177.7460  147.6190 C   0  0  0  0  0  0  0  0  0  0  0  0
  189.2890  174.3490  141.9460 C   0  0  1  0  0  3  0  0  0  0  0  0
  188.4720  175.9380  143.8040 N   0  0  0  0  0  0  0  0  0  0  0  0
  194.5910  174.5590  144.5480 C   0  0  0  0  0  2  0  0  0  0  0  0
  187.1440  178.0080  147.5120 O   0  0  0  0  0  0  0  0  0  0  0  0
  185.6380  176.8330  146.1240 C   0  0  0  0  0  2  0  0  0  0  0  0
  193.4890  174.3970  142.4470 O   0  0  0  0  0  1  0  0  0  0  0  0
  191.1740  176.2510  146.3450 C   0  0  0  0  0  0  0  0  0  0  0  0
  194.4270  174.4540  145.9440 O   0  0  0  0  0  0  0  0  0  0  0  0
  192.2170  175.2780  144.2940 C   0  0  2  0  0  3  0  0  0  0  0  0
  190.0480  176.5350  145.6830 C   0  0  1  0  0  3  0  0  0  0  0  0
  189.9010  178.5570  148.5540 O   0  0  0  0  0  0  0  0  0  0  0  0
  189.2520  177.5640  146.4280 C   0  0  1  0  0  3  0  0  0  0  0  0
  185.8130  177.5750  147.4280 C   0  0  0  0  0  2  0  0  0  0  0  0
  187.5150  178.2240  144.0280 C   0  0  0  0  0  1  0  0  0  0  0  0
  193.6000  175.5180  146.3480 C   0  0  0  0  0  2  0  0  0  0  0  0
  192.1870  175.2720  145.8260 C   0  0  1  0  0  3  0  0  0  0  0  0
  187.3610  176.7360  144.3290 C   0  0  2  0  0  3  0  0  0  0  0  0
  189.1170  174.3790  140.5600 O   0  0  0  0  0  0  0  0  0  0  0  0
  188.1990  172.5500  139.3530 C   0  0  0  0  0  1  0  0  0  0  0  0
  189.3830  173.0760  140.1360 C   0  0  0  0  0  2  0  0  0  0  0  0
  1  5  1  6  0  0  0
  1  4  1  0  0  0  0
  1 19  1  0  0  0  0
  2 16  1  6  0  0  0
  2 19  1  0  0  0  0
  2 13  1  0  0  0  0
  3 10  1  0  0  0  0
  4 12  1  1  0  0  0
  4 20  1  0  0  0  0
  6  8  2  0  0  0  0
  7 15  1  1  0  0  0
  7  9  1  0  0  0  0
  8 12  1  0  0  0  0
  9 14  1  6  0  0  0
 10 21  2  0  0  0  0
 11 28  1  6  0  0  0
 11  5  1  0  0  0  0
 11  8  1  0  0  0  0
 12 27  1  0  0  0  0
 13 18  1  0  0  0  0
 15 23  1  0  0  0  0
 17  3  2  0  0  0  0
 18 25  1  0  0  0  0
 19 26  1  0  0  0  0
 20 17  1  0  0  0  0
 20 22  1  0  0  0  0
 22  9  1  0  0  0  0
 22 10  1  0  0  0  0
 23 14  1  0  0  0  0
 24 27  1  0  0  0  0
 26 17  1  0  0  0  0
 26 25  1  0  0  0  0
 27  7  1  0  0  0  0
 29 30  1  0  0  0  0
 30 28  1  0  0  0  0
M  END
>  <MODEL>
3

>  <REMARK>
 VINA RESULT:      -7.5      2.161      7.074
  Name = 
  2 active torsions:
  status: ('A' for Active; 'I' for Inactive)
    1  A    between atoms: C_11  and  O_28
    2  A    between atoms: O_28  and  C_30
                            x       y       z     vdW  Elec       q    Type
                         _______ _______ _______ _____ _____    ______ ____

>  <TORSDO>
F 2

$$$$
=
 OpenBabel11112416123D

 30 35  0  0  1  0  0  0  0  0999 V2000
  188.6390  176.0850  143.5460 C   0  0  1  0  0  3  0  0  0  0  0  0
  186.2500  177.0590  143.8340 C   0  0  2  0  0  3  0  0  0  0  0  0
  189.7460  177.5450  147.4080 N   0  0  0  0  0  0  0  0  0  0  0  0
  189.7750  175.4140  144.3430 C   0  0  1  0  0  3  0  0  0  0  0  0
  188.1900  175.1030  142.4820 C   0  0  0  0  0  2  0  0  0  0  0  0
  191.5700  174.2530  141.3520 O   0  0  0  0  0  0  0  0  0  0  0  0
  192.9910  175.8690  144.5180 C   0  0  1  0  0  3  0  0  0  0  0  0
  190.6400  174.7020  142.0750 C   0  0  0  0  0  0  0  0  0  0  0  0
  192.6460  176.3630  145.9230 C   0  0  2  0  0  3  0  0  0  0  0  0
  190.9230  176.7900  147.6410 C   0  0  0  0  0  0  0  0  0  0  0  0
  189.2940  174.9620  141.4420 C   0  0  1  0  0  3  0  0  0  0  0  0
  190.8980  175.0360  143.4580 N   0  0  0  0  0  0  0  0  0  0  0  0
  185.3200  177.6120  144.9220 C   0  0  0  0  0  2  0  0  0  0  0  0
  193.6880  175.9950  146.7890 O   0  0  0  0  0  0  0  0  0  0  0  0
  194.4540  175.5480  144.6000 C   0  0  0  0  0  2  0  0  0  0  0  0
  185.5790  176.0410  143.1560 O   0  0  0  0  0  1  0  0  0  0  0  0
  189.3270  177.1040  146.1250 C   0  0  0  0  0  0  0  0  0  0  0  0
  185.9530  178.6390  145.6500 O   0  0  0  0  0  0  0  0  0  0  0  0
  187.5170  176.5110  144.5070 C   0  0  2  0  0  3  0  0  0  0  0  0
  190.1710  176.2380  145.5550 C   0  0  1  0  0  3  0  0  0  0  0  0
  191.5650  176.8530  148.7230 O   0  0  0  0  0  0  0  0  0  0  0  0
  191.2960  175.9150  146.4920 C   0  0  1  0  0  3  0  0  0  0  0  0
  194.8410  175.9920  145.9910 C   0  0  0  0  0  2  0  0  0  0  0  0
  192.1380  173.4560  144.9260 C   0  0  0  0  0  1  0  0  0  0  0  0
  186.9900  178.0460  146.3930 C   0  0  0  0  0  2  0  0  0  0  0  0
  188.0870  177.5910  145.4340 C   0  0  1  0  0  3  0  0  0  0  0  0
  192.2100  174.6590  143.9910 C   0  0  2  0  0  3  0  0  0  0  0  0
  188.9660  173.9320  140.5570 O   0  0  0  0  0  0  0  0  0  0  0  0
  188.3590  173.7900  138.2640 C   0  0  0  0  0  1  0  0  0  0  0  0
  188.1920  174.5400  139.5670 C   0  0  0  0  0  2  0  0  0  0  0  0
  1  5  1  6  0  0  0
  1  4  1  0  0  0  0
  1 19  1  0  0  0  0
  2 16  1  1  0  0  0
  2 19  1  0  0  0  0
  2 13  1  0  0  0  0
  3 10  1  0  0  0  0
  4 12  1  6  0  0  0
  4 20  1  0  0  0  0
  6  8  2  0  0  0  0
  7 15  1  1  0  0  0
  7  9  1  0  0  0  0
  8 12  1  0  0  0  0
  9 22  1  0  0  0  0
  9 14  1  1  0  0  0
 10 21  2  0  0  0  0
 11 28  1  6  0  0  0
 11  8  1  0  0  0  0
 11  5  1  0  0  0  0
 12 27  1  0  0  0  0
 13 18  1  0  0  0  0
 15 23  1  0  0  0  0
 17  3  2  0  0  0  0
 18 25  1  0  0  0  0
 19 26  1  0  0  0  0
 20 17  1  0  0  0  0
 20 22  1  0  0  0  0
 22 10  1  0  0  0  0
 23 14  1  0  0  0  0
 26 17  1  0  0  0  0
 26 25  1  0  0  0  0
 27  7  1  0  0  0  0
 27 24  1  0  0  0  0
 29 30  1  0  0  0  0
 30 28  1  0  0  0  0
M  END
>  <MODEL>
4

>  <REMARK>
 VINA RESULT:      -7.4      2.134      5.720
  Name = 
  2 active torsions:
  status: ('A' for Active; 'I' for Inactive)
    1  A    between atoms: C_11  and  O_28
    2  A    between atoms: O_28  and  C_30
                            x       y       z     vdW  Elec       q    Type
                         _______ _______ _______ _____ _____    ______ ____

>  <TORSDO>
F 2

$$$$
=
 OpenBabel11112416123D

 30 35  0  0  1  0  0  0  0  0999 V2000
  188.1730  175.2030  141.3710 C   0  0  1  0  0  3  0  0  0  0  0  0
  188.1250  173.8510  139.1560 C   0  0  2  0  0  3  0  0  0  0  0  0
  191.2770  172.6870  142.8910 N   0  0  0  0  0  0  0  0  0  0  0  0
  189.1440  175.7200  142.4520 C   0  0  1  0  0  3  0  0  0  0  0  0
  187.5210  176.4130  140.7320 C   0  0  0  0  0  2  0  0  0  0  0  0
  186.7280  178.0860  143.8940 O   0  0  0  0  0  0  0  0  0  0  0  0
  189.1220  175.7090  145.7050 C   0  0  1  0  0  3  0  0  0  0  0  0
  187.2580  177.2840  143.0770 C   0  0  0  0  0  0  0  0  0  0  0  0
  190.2710  174.7180  145.5120 C   0  0  2  0  0  3  0  0  0  0  0  0
  191.7480  173.4800  143.9670 C   0  0  0  0  0  0  0  0  0  0  0  0
  186.5860  177.0630  141.7430 C   0  0  1  0  0  3  0  0  0  0  0  0
  188.4360  176.5380  143.4590 N   0  0  0  0  0  0  0  0  0  0  0  0
  188.9600  172.8280  138.3750 C   0  0  0  0  0  2  0  0  0  0  0  0
  191.2020  174.9160  146.5450 O   0  0  0  0  0  0  0  0  0  0  0  0
  189.2990  176.1940  147.1130 C   0  0  0  0  0  2  0  0  0  0  0  0
  187.8490  174.9300  138.3160 O   0  0  0  0  0  1  0  0  0  0  0  0
  190.2310  173.4750  142.3410 C   0  0  0  0  0  0  0  0  0  0  0  0
  189.2800  171.7180  139.1820 O   0  0  0  0  0  0  0  0  0  0  0  0
  188.9360  174.3140  140.3760 C   0  0  2  0  0  3  0  0  0  0  0  0
  189.9910  174.5970  143.0260 C   0  0  1  0  0  3  0  0  0  0  0  0
  192.7350  173.1450  144.6740 O   0  0  0  0  0  0  0  0  0  0  0  0
  190.9720  174.7410  144.1500 C   0  0  1  0  0  3  0  0  0  0  0  0
  190.4450  175.3620  147.6380 C   0  0  0  0  0  2  0  0  0  0  0  0
  190.3520  177.6830  144.5600 C   0  0  0  0  0  1  0  0  0  0  0  0
  190.1740  172.1660  140.1720 C   0  0  0  0  0  2  0  0  0  0  0  0
  189.4240  173.0780  141.1390 C   0  0  1  0  0  3  0  0  0  0  0  0
  189.0560  176.8980  144.7380 C   0  0  2  0  0  3  0  0  0  0  0  0
  186.1170  178.2750  141.2290 O   0  0  0  0  0  0  0  0  0  0  0  0
  183.8510  178.2910  140.5130 C   0  0  0  0  0  1  0  0  0  0  0  0
  185.2770  177.9160  140.1720 C   0  0  0  0  0  2  0  0  0  0  0  0
  1  5  1  6  0  0  0
  1  4  1  0  0  0  0
  2 16  1  6  0  0  0
  2 19  1  0  0  0  0
  3 10  1  0  0  0  0
  4 20  1  0  0  0  0
  4 12  1  1  0  0  0
  5 11  1  0  0  0  0
  7 15  1  1  0  0  0
  8 12  1  0  0  0  0
  8  6  2  0  0  0  0
  9  7  1  0  0  0  0
  9 14  1  1  0  0  0
 10 22  1  0  0  0  0
 10 21  2  0  0  0  0
 11 28  1  6  0  0  0
 11  8  1  0  0  0  0
 12 27  1  0  0  0  0
 13  2  1  0  0  0  0
 13 18  1  0  0  0  0
 14 23  1  0  0  0  0
 15 23  1  0  0  0  0
 17  3  2  0  0  0  0
 17 20  1  0  0  0  0
 18 25  1  0  0  0  0
 19 26  1  0  0  0  0
 19  1  1  0  0  0  0
 20 22  1  0  0  0  0
 22  9  1  0  0  0  0
 24 27  1  0  0  0  0
 25 26  1  0  0  0  0
 26 17  1  0  0  0  0
 27  7  1  0  0  0  0
 30 29  1  0  0  0  0
 30 28  1  0  0  0  0
M  END
>  <MODEL>
5

>  <REMARK>
 VINA RESULT:      -7.4      2.167      7.171
  Name = 
  2 active torsions:
  status: ('A' for Active; 'I' for Inactive)
    1  A    between atoms: C_11  and  O_28
    2  A    between atoms: O_28  and  C_30
                            x       y       z     vdW  Elec       q    Type
                         _______ _______ _______ _____ _____    ______ ____

>  <TORSDO>
F 2

$$$$
=
 OpenBabel11112416123D

 30 35  0  0  1  0  0  0  0  0999 V2000
  189.4040  176.2800  144.3790 C   0  0  1  0  0  3  0  0  0  0  0  0
  190.1950  177.2250  146.6640 C   0  0  2  0  0  3  0  0  0  0  0  0
  192.1460  173.0200  144.7280 N   0  0  0  0  0  0  0  0  0  0  0  0
  189.1390  174.9490  143.6470 C   0  0  1  0  0  3  0  0  0  0  0  0
  188.0900  177.0340  144.4400 C   0  0  0  0  0  2  0  0  0  0  0  0
  187.2290  176.5040  140.9180 O   0  0  0  0  0  0  0  0  0  0  0  0
  189.9190  173.7870  140.7110 C   0  0  1  0  0  3  0  0  0  0  0  0
  187.8040  176.3650  142.0320 C   0  0  0  0  0  0  0  0  0  0  0  0
  190.8130  172.8590  141.5340 C   0  0  2  0  0  3  0  0  0  0  0  0
  191.6210  172.1360  143.7530 C   0  0  0  0  0  0  0  0  0  0  0  0
  187.7160  177.4900  143.0350 C   0  0  1  0  0  3  0  0  0  0  0  0
  188.5960  175.1840  142.2930 N   0  0  0  0  0  0  0  0  0  0  0  0
  190.9870  176.8040  147.9090 C   0  0  0  0  0  2  0  0  0  0  0  0
  190.8470  171.6050  140.9030 O   0  0  0  0  0  0  0  0  0  0  0  0
  189.7770  173.0780  139.3970 C   0  0  0  0  0  2  0  0  0  0  0  0
  188.9540  177.7120  147.0750 O   0  0  0  0  0  1  0  0  0  0  0  0
  191.2710  174.1360  144.6590 C   0  0  0  0  0  0  0  0  0  0  0  0
  192.2500  176.2910  147.5520 O   0  0  0  0  0  0  0  0  0  0  0  0
  190.0170  175.9950  145.7600 C   0  0  2  0  0  3  0  0  0  0  0  0
  190.3480  174.0320  143.6980 C   0  0  1  0  0  3  0  0  0  0  0  0
  192.0940  170.9850  143.5570 O   0  0  0  0  0  0  0  0  0  0  0  0
  190.4550  172.7020  143.0150 C   0  0  1  0  0  3  0  0  0  0  0  0
  190.6870  171.8800  139.5370 C   0  0  0  0  0  2  0  0  0  0  0  0
  187.7060  172.9240  141.7490 C   0  0  0  0  0  1  0  0  0  0  0  0
  192.0310  175.0690  146.8890 C   0  0  0  0  0  2  0  0  0  0  0  0
  191.3890  175.3500  145.5330 C   0  0  1  0  0  3  0  0  0  0  0  0
  188.5360  174.1180  141.2880 C   0  0  2  0  0  3  0  0  0  0  0  0
  186.4270  178.0280  143.0510 O   0  0  0  0  0  0  0  0  0  0  0  0
  185.4140  179.8330  144.2190 C   0  0  0  0  0  1  0  0  0  0  0  0
  186.2930  178.6040  144.3160 C   0  0  0  0  0  2  0  0  0  0  0  0
  1  5  1  1  0  0  0
  1 19  1  0  0  0  0
  2 16  1  1  0  0  0
  2 13  1  0  0  0  0
  4 12  1  6  0  0  0
  4 20  1  0  0  0  0
  4  1  1  0  0  0  0
  6  8  2  0  0  0  0
  7 15  1  6  0  0  0
  7 27  1  0  0  0  0
  7  9  1  0  0  0  0
  8 12  1  0  0  0  0
  8 11  1  0  0  0  0
  9 14  1  6  0  0  0
  9 22  1  0  0  0  0
 10  3  1  0  0  0  0
 11 28  1  1  0  0  0
 11  5  1  0  0  0  0
 15 23  1  0  0  0  0
 17  3  2  0  0  0  0
 17 26  1  0  0  0  0
 18 13  1  0  0  0  0
 19  2  1  0  0  0  0
 20 17  1  0  0  0  0
 21 10  2  0  0  0  0
 22 20  1  0  0  0  0
 22 10  1  0  0  0  0
 23 14  1  0  0  0  0
 25 18  1  0  0  0  0
 26 19  1  0  0  0  0
 26 25  1  0  0  0  0
 27 24  1  0  0  0  0
 27 12  1  0  0  0  0
 28 30  1  0  0  0  0
 29 30  1  0  0  0  0
M  END
>  <MODEL>
6

>  <REMARK>
 VINA RESULT:      -7.3      2.070      5.450
  Name = 
  2 active torsions:
  status: ('A' for Active; 'I' for Inactive)
    1  A    between atoms: C_11  and  O_28
    2  A    between atoms: O_28  and  C_30
                            x       y       z     vdW  Elec       q    Type
                         _______ _______ _______ _____ _____    ______ ____

>  <TORSDO>
F 2

$$$$
=
 OpenBabel11112416123D

 30 35  0  0  1  0  0  0  0  0999 V2000
  187.3790  176.8330  143.1420 C   0  0  1  0  0  3  0  0  0  0  0  0
  186.6990  178.0830  145.3120 C   0  0  2  0  0  3  0  0  0  0  0  0
  189.9370  174.2430  145.3830 N   0  0  0  0  0  0  0  0  0  0  0  0
  187.7290  175.4270  142.6150 C   0  0  1  0  0  3  0  0  0  0  0  0
  186.1450  177.3010  142.3980 C   0  0  0  0  0  2  0  0  0  0  0  0
  187.3650  176.3520  139.0760 O   0  0  0  0  0  0  0  0  0  0  0  0
  190.0990  174.2420  140.7280 C   0  0  1  0  0  3  0  0  0  0  0  0
  187.2740  176.4150  140.3320 C   0  0  0  0  0  0  0  0  0  0  0  0
  190.5390  173.5800  142.0350 C   0  0  2  0  0  3  0  0  0  0  0  0
  190.1370  173.2010  144.4430 C   0  0  0  0  0  0  0  0  0  0  0  0
  186.5140  177.5680  140.9440 C   0  0  1  0  0  3  0  0  0  0  0  0
  187.9610  175.4450  141.1550 N   0  0  0  0  0  0  0  0  0  0  0  0
  186.7600  177.9260  146.8380 C   0  0  0  0  0  2  0  0  0  0  0  0
  191.0740  172.3180  141.7320 O   0  0  0  0  0  0  0  0  0  0  0  0
  190.7760  173.4250  139.6670 C   0  0  0  0  0  2  0  0  0  0  0  0
  185.3760  178.3310  144.9460 O   0  0  0  0  0  1  0  0  0  0  0  0
  189.0890  175.1470  144.6900 C   0  0  0  0  0  0  0  0  0  0  0  0
  188.0760  177.6600  147.2640 O   0  0  0  0  0  0  0  0  0  0  0  0
  187.1990  176.7810  144.6680 C   0  0  2  0  0  3  0  0  0  0  0  0
  188.8410  174.7850  143.4270 C   0  0  1  0  0  3  0  0  0  0  0  0
  190.7950  172.1620  144.7120 O   0  0  0  0  0  0  0  0  0  0  0  0
  189.4750  173.4600  143.1310 C   0  0  1  0  0  3  0  0  0  0  0  0
  191.6270  172.4540  140.4510 C   0  0  0  0  0  2  0  0  0  0  0  0
  187.8160  173.0170  140.6290 C   0  0  0  0  0  1  0  0  0  0  0  0
  188.4130  176.3750  146.8010 C   0  0  0  0  0  2  0  0  0  0  0  0
  188.5560  176.4190  145.2820 C   0  0  1  0  0  3  0  0  0  0  0  0
  188.5910  174.3210  140.4580 C   0  0  2  0  0  3  0  0  0  0  0  0
  185.3530  177.8280  140.2110 O   0  0  0  0  0  0  0  0  0  0  0  0
  183.0420  178.2900  140.5130 C   0  0  0  0  0  1  0  0  0  0  0  0
  184.4070  178.2150  141.1620 C   0  0  0  0  0  2  0  0  0  0  0  0
  1  5  1  6  0  0  0
  1 19  1  0  0  0  0
  2 16  1  1  0  0  0
  2 13  1  0  0  0  0
  4 12  1  6  0  0  0
  4  1  1  0  0  0  0
  4 20  1  0  0  0  0
  6  8  2  0  0  0  0
  7 15  1  6  0  0  0
  7  9  1  0  0  0  0
  8 11  1  0  0  0  0
  8 12  1  0  0  0  0
  9 14  1  6  0  0  0
  9 22  1  0  0  0  0
 10 21  2  0  0  0  0
 10  3  1  0  0  0  0
 11 28  1  6  0  0  0
 11  5  1  0  0  0  0
 13 18  1  0  0  0  0
 15 23  1  0  0  0  0
 17 26  1  0  0  0  0
 17  3  2  0  0  0  0
 19 26  1  0  0  0  0
 19  2  1  0  0  0  0
 20 17  1  0  0  0  0
 22 20  1  0  0  0  0
 22 10  1  0  0  0  0
 23 14  1  0  0  0  0
 25 18  1  0  0  0  0
 26 25  1  0  0  0  0
 27 24  1  0  0  0  0
 27  7  1  0  0  0  0
 27 12  1  0  0  0  0
 28 30  1  0  0  0  0
 29 30  1  0  0  0  0
M  END
>  <MODEL>
7

>  <REMARK>
 VINA RESULT:      -7.3      1.795      5.290
  Name = 
  2 active torsions:
  status: ('A' for Active; 'I' for Inactive)
    1  A    between atoms: C_11  and  O_28
    2  A    between atoms: O_28  and  C_30
                            x       y       z     vdW  Elec       q    Type
                         _______ _______ _______ _____ _____    ______ ____

>  <TORSDO>
F 2

$$$$
=
 OpenBabel11112416123D

 30 35  0  0  1  0  0  0  0  0999 V2000
  187.2880  176.6760  143.6620 C   0  0  1  0  0  3  0  0  0  0  0  0
  185.6650  178.2040  142.3320 C   0  0  2  0  0  3  0  0  0  0  0  0
  188.5660  174.8050  140.0390 N   0  0  0  0  0  0  0  0  0  0  0  0
  188.6780  176.0160  143.5680 C   0  0  1  0  0  3  0  0  0  0  0  0
  187.3120  177.6150  144.8530 C   0  0  0  0  0  2  0  0  0  0  0  0
  188.8530  175.2130  147.1510 O   0  0  0  0  0  0  0  0  0  0  0  0
  189.8060  173.0230  144.1590 C   0  0  1  0  0  3  0  0  0  0  0  0
  188.4700  175.7450  146.0740 C   0  0  0  0  0  0  0  0  0  0  0  0
  189.9760  173.0010  142.6400 C   0  0  2  0  0  3  0  0  0  0  0  0
  189.7590  174.1780  140.4790 C   0  0  0  0  0  0  0  0  0  0  0  0
  187.3810  176.7900  146.1320 C   0  0  1  0  0  3  0  0  0  0  0  0
  189.0110  175.2900  144.8120 N   0  0  0  0  0  0  0  0  0  0  0  0
  185.3820  178.6660  140.8960 C   0  0  0  0  0  2  0  0  0  0  0  0
  191.1310  172.2610  142.3360 O   0  0  0  0  0  0  0  0  0  0  0  0
  190.7190  171.9340  144.6390 C   0  0  0  0  0  2  0  0  0  0  0  0
  185.8110  179.3340  143.1380 O   0  0  0  0  0  1  0  0  0  0  0  0
  188.0870  175.4480  141.2100 C   0  0  0  0  0  0  0  0  0  0  0  0
  185.2380  177.5620  140.0320 O   0  0  0  0  0  0  0  0  0  0  0  0
  186.9570  177.3730  142.3330 C   0  0  2  0  0  3  0  0  0  0  0  0
  188.8230  175.1980  142.2970 C   0  0  1  0  0  3  0  0  0  0  0  0
  190.5220  173.5490  139.6990 O   0  0  0  0  0  0  0  0  0  0  0  0
  190.0140  174.3610  141.9370 C   0  0  1  0  0  3  0  0  0  0  0  0
  191.2370  171.3120  143.3630 C   0  0  0  0  0  2  0  0  0  0  0  0
  191.4630  174.9810  144.5310 C   0  0  0  0  0  1  0  0  0  0  0  0
  186.5000  176.9480  139.9250 C   0  0  0  0  0  2  0  0  0  0  0  0
  186.8430  176.2880  141.2570 C   0  0  1  0  0  3  0  0  0  0  0  0
  190.1240  174.3390  144.8790 C   0  0  2  0  0  3  0  0  0  0  0  0
  187.5820  177.6410  147.2210 O   0  0  0  0  0  0  0  0  0  0  0  0
  186.0150  179.3780  147.6370 C   0  0  0  0  0  1  0  0  0  0  0  0
  186.3030  177.8950  147.7200 C   0  0  0  0  0  2  0  0  0  0  0  0
  1  5  1  1  0  0  0
  2 19  1  0  0  0  0
  2 16  1  1  0  0  0
  3 10  1  0  0  0  0
  3 17  2  0  0  0  0
  4  1  1  0  0  0  0
  4 12  1  1  0  0  0
  5 11  1  0  0  0  0
  7 15  1  1  0  0  0
  7 27  1  0  0  0  0
  8 11  1  0  0  0  0
  8  6  2  0  0  0  0
  9 14  1  1  0  0  0
  9  7  1  0  0  0  0
 10 22  1  0  0  0  0
 11 28  1  1  0  0  0
 12 27  1  0  0  0  0
 12  8  1  0  0  0  0
 13  2  1  0  0  0  0
 14 23  1  0  0  0  0
 17 26  1  0  0  0  0
 17 20  1  0  0  0  0
 18 13  1  0  0  0  0
 19  1  1  0  0  0  0
 20  4  1  0  0  0  0
 21 10  2  0  0  0  0
 22 20  1  0  0  0  0
 22  9  1  0  0  0  0
 23 15  1  0  0  0  0
 24 27  1  0  0  0  0
 25 18  1  0  0  0  0
 25 26  1  0  0  0  0
 26 19  1  0  0  0  0
 28 30  1  0  0  0  0
 29 30  1  0  0  0  0
M  END
>  <MODEL>
8

>  <REMARK>
 VINA RESULT:      -7.2      1.927      4.035
  Name = 
  2 active torsions:
  status: ('A' for Active; 'I' for Inactive)
    1  A    between atoms: C_11  and  O_28
    2  A    between atoms: O_28  and  C_30
                            x       y       z     vdW  Elec       q    Type
                         _______ _______ _______ _____ _____    ______ ____

>  <TORSDO>
F 2

$$$$
=
 OpenBabel11112416123D

 30 35  0  0  1  0  0  0  0  0999 V2000
  188.5160  174.9030  141.8790 C   0  0  1  0  0  3  0  0  0  0  0  0
  188.5450  173.8010  139.5280 C   0  0  2  0  0  3  0  0  0  0  0  0
  192.4250  173.3750  142.6910 N   0  0  0  0  0  0  0  0  0  0  0  0
  189.4370  175.6040  142.8970 C   0  0  1  0  0  3  0  0  0  0  0  0
  187.4420  175.8950  141.4810 C   0  0  0  0  0  2  0  0  0  0  0  0
  186.6670  176.9510  144.9030 O   0  0  0  0  0  0  0  0  0  0  0  0
  189.9090  175.3060  146.1010 C   0  0  1  0  0  3  0  0  0  0  0  0
  187.2840  176.4320  143.9330 C   0  0  0  0  0  0  0  0  0  0  0  0
  191.2600  174.7490  145.6510 C   0  0  2  0  0  3  0  0  0  0  0  0
  192.7910  174.1800  143.7980 C   0  0  0  0  0  0  0  0  0  0  0  0
  186.5170  176.1260  142.6690 C   0  0  1  0  0  3  0  0  0  0  0  0
  188.6760  176.0670  144.0760 N   0  0  0  0  0  0  0  0  0  0  0  0
  189.5220  173.1660  138.5300 C   0  0  0  0  0  2  0  0  0  0  0  0
  192.2330  175.1410  146.5850 O   0  0  0  0  0  0  0  0  0  0  0  0
  190.1410  175.6980  147.5310 C   0  0  0  0  0  2  0  0  0  0  0  0
  187.8340  174.8060  138.8720 O   0  0  0  0  0  1  0  0  0  0  0  0
  191.1200  173.8360  142.3720 C   0  0  0  0  0  0  0  0  0  0  0  0
  190.2790  172.1490  139.1450 O   0  0  0  0  0  0  0  0  0  0  0  0
  189.3530  174.3900  140.6950 C   0  0  2  0  0  3  0  0  0  0  0  0
  190.6590  174.7610  143.2200 C   0  0  1  0  0  3  0  0  0  0  0  0
  193.9280  174.1150  144.3370 O   0  0  0  0  0  0  0  0  0  0  0  0
  191.7080  175.1100  144.2310 C   0  0  1  0  0  3  0  0  0  0  0  0
  191.5500  175.2290  147.8070 C   0  0  0  0  0  2  0  0  0  0  0  0
  190.3000  177.6590  145.0860 C   0  0  0  0  0  1  0  0  0  0  0  0
  191.1350  172.7690  140.0740 C   0  0  0  0  0  2  0  0  0  0  0  0
  190.3000  173.3100  141.2310 C   0  0  1  0  0  3  0  0  0  0  0  0
  189.3430  176.4920  145.3100 C   0  0  2  0  0  3  0  0  0  0  0  0
  185.6330  177.1670  142.3730 O   0  0  0  0  0  0  0  0  0  0  0  0
  184.8330  178.2970  140.4420 C   0  0  0  0  0  1  0  0  0  0  0  0
  186.0060  177.6030  141.1000 C   0  0  0  0  0  2  0  0  0  0  0  0
  1  5  1  6  0  0  0
  1  4  1  0  0  0  0
  2 16  1  6  0  0  0
  2 19  1  0  0  0  0
  3 10  1  0  0  0  0
  4 20  1  0  0  0  0
  4 12  1  1  0  0  0
  5 11  1  0  0  0  0
  7 15  1  1  0  0  0
  8 12  1  0  0  0  0
  8  6  2  0  0  0  0
  9  7  1  0  0  0  0
  9 14  1  1  0  0  0
 10 22  1  0  0  0  0
 10 21  2  0  0  0  0
 11 28  1  6  0  0  0
 11  8  1  0  0  0  0
 12 27  1  0  0  0  0
 13 18  1  0  0  0  0
 13  2  1  0  0  0  0
 14 23  1  0  0  0  0
 15 23  1  0  0  0  0
 17  3  2  0  0  0  0
 17 20  1  0  0  0  0
 18 25  1  0  0  0  0
 19 26  1  0  0  0  0
 19  1  1  0  0  0  0
 20 22  1  0  0  0  0
 22  9  1  0  0  0  0
 24 27  1  0  0  0  0
 25 26  1  0  0  0  0
 26 17  1  0  0  0  0
 27  7  1  0  0  0  0
 29 30  1  0  0  0  0
 30 28  1  0  0  0  0
M  END
>  <MODEL>
9

>  <REMARK>
 VINA RESULT:      -7.1      2.163      7.110
  Name = 
  2 active torsions:
  status: ('A' for Active; 'I' for Inactive)
    1  A    between atoms: C_11  and  O_28
    2  A    between atoms: O_28  and  C_30
                            x       y       z     vdW  Elec       q    Type
                         _______ _______ _______ _____ _____    ______ ____

>  <TORSDO>
F 2

$$$$
