=
 OpenBabel11112416243D

 30 35  0  0  1  0  0  0  0  0999 V2000
  186.9280  178.1290  143.5810 C   0  0  0  0  0  0  0  0  0  0  0  0
  184.8210  178.8040  144.6290 C   0  0  0  0  0  0  0  0  0  0  0  0
  188.1340  176.1550  147.1150 N   0  0  0  0  0  0  0  0  0  0  0  0
  188.3190  177.4980  143.6020 C   0  0  0  0  0  0  0  0  0  0  0  0
  186.5370  178.6730  142.2470 C   0  0  0  0  0  2  0  0  0  0  0  0
  187.7400  175.7740  140.3940 O   0  0  0  0  0  0  0  0  0  0  0  0
  190.9790  176.3140  143.2270 C   0  0  1  0  0  3  0  0  0  0  0  0
  187.6350  176.6260  141.3190 C   0  0  0  0  0  0  0  0  0  0  0  0
  190.7590  175.7950  144.5640 N   0  0  0  0  0  0  0  0  0  0  0  0
  189.2850  175.6980  146.7230 C   0  0  2  0  0  3  0  0  0  0  0  0
  186.5790  177.5970  141.2690 N   0  0  0  0  0  0  0  0  0  0  0  0
  188.5670  176.6270  142.4290 N   0  0  0  0  0  0  0  0  0  0  0  0
  183.9900  178.8180  145.7520 C   0  0  0  0  0  3  0  0  0  0  0  0
  191.8910  175.0500  145.0750 C   0  0  0  0  0  2  0  0  0  0  0  0
  192.3090  175.7340  142.7720 C   0  0  0  0  0  2  0  0  0  0  0  0
  184.3690  179.4460  143.5230 F   0  0  0  0  0  0  0  0  0  0  0  0
  187.6180  176.8560  145.9850 C   0  0  0  0  0  0  0  0  0  0  0  0
  184.3780  178.1950  146.9330 C   0  0  0  0  0  3  0  0  0  0  0  0
  186.0880  178.1560  144.6720 C   0  0  0  0  0  0  0  0  0  0  0  0
  188.5380  176.7710  144.8920 C   0  0  0  0  0  0  0  0  0  0  0  0
  190.1670  174.8990  147.6150 C   0  0  0  0  0  1  0  0  0  0  0  0
  189.5780  176.0810  145.3280 C   0  0  0  0  0  0  0  0  0  0  0  0
  192.9770  175.1710  144.0200 C   0  0  0  0  0  2  0  0  0  0  0  0
  189.9750  174.9840  141.5040 O   0  0  0  0  0  0  0  0  0  0  0  0
  185.6060  177.5450  147.0040 C   0  0  0  0  0  3  0  0  0  0  0  0
  186.4610  177.5130  145.8970 C   0  0  0  0  0  0  0  0  0  0  0  0
  189.8350  175.9370  142.3200 C   0  0  0  0  0  0  0  0  0  0  0  0
  185.5950  177.5780  140.1930 C   0  0  0  0  0  2  0  0  0  0  0  0
  183.1510  177.9920  140.4850 C   0  0  0  0  0  1  0  0  0  0  0  0
  184.5250  178.6340  140.4260 C   0  0  0  0  0  2  0  0  0  0  0  0
  1  4  2  0  0  0  0
  1 19  1  0  0  0  0
  2 19  2  0  0  0  0
  2 13  1  0  0  0  0
  4 20  1  0  0  0  0
  5  1  1  0  0  0  0
  6  8  2  0  0  0  0
  7 15  1  6  0  0  0
  7  9  1  0  0  0  0
  8 12  1  0  0  0  0
  9 14  1  0  0  0  0
  9 22  1  0  0  0  0
 10  3  1  0  0  0  0
 10 21  1  1  0  0  0
 11  8  1  0  0  0  0
 11  5  1  0  0  0  0
 12  4  1  0  0  0  0
 13 18  2  0  0  0  0
 15 23  1  0  0  0  0
 16  2  1  0  0  0  0
 17  3  2  0  0  0  0
 18 25  1  0  0  0  0
 19 26  1  0  0  0  0
 20 22  2  0  0  0  0
 20 17  1  0  0  0  0
 22 10  1  0  0  0  0
 23 14  1  0  0  0  0
 24 27  2  0  0  0  0
 26 17  1  0  0  0  0
 26 25  2  0  0  0  0
 27 12  1  0  0  0  0
 27  7  1  0  0  0  0
 28 30  1  0  0  0  0
 28 11  1  0  0  0  0
 30 29  1  0  0  0  0
M  END
>  <MODEL>
1

>  <REMARK>
 VINA RESULT:      -9.4      0.000      0.000
  Name = 
  2 active torsions:
  status: ('A' for Active; 'I' for Inactive)
    1  A    between atoms: N_11  and  C_28
    2  A    between atoms: C_28  and  C_30
                            x       y       z     vdW  Elec       q    Type
                         _______ _______ _______ _____ _____    ______ ____

>  <TORSDO>
F 2

$$$$
=
 OpenBabel11112416243D

 30 35  0  0  1  0  0  0  0  0999 V2000
  187.8860  176.2320  144.9640 C   0  0  0  0  0  0  0  0  0  0  0  0
  186.7660  177.9680  146.2760 C   0  0  0  0  0  0  0  0  0  0  0  0
  186.2930  177.8110  141.3850 N   0  0  0  0  0  0  0  0  0  0  0  0
  188.1860  175.4860  143.6650 C   0  0  0  0  0  0  0  0  0  0  0  0
  188.6090  175.6830  146.1490 C   0  0  0  0  0  2  0  0  0  0  0  0
  191.7940  175.3480  144.4090 O   0  0  0  0  0  0  0  0  0  0  0  0
  189.0670  173.8690  141.3790 C   0  0  1  0  0  3  0  0  0  0  0  0
  190.5480  175.4250  144.5890 C   0  0  0  0  0  0  0  0  0  0  0  0
  188.3600  174.8700  140.6030 N   0  0  0  0  0  0  0  0  0  0  0  0
  186.8190  176.9840  140.5340 C   0  0  0  0  0  0  0  0  0  0  0  0
  190.0410  175.7390  145.8960 N   0  0  0  0  0  0  0  0  0  0  0  0
  189.6290  175.2020  143.4900 N   0  0  0  0  0  0  0  0  0  0  0  0
  185.9280  179.0850  146.3210 C   0  0  0  0  0  3  0  0  0  0  0  0
  188.3630  174.5920  139.1830 C   0  0  0  0  0  2  0  0  0  0  0  0
  189.7090  172.9360  140.3630 C   0  0  0  0  0  2  0  0  0  0  0  0
  187.2540  177.5190  147.4600 F   0  0  0  0  0  0  0  0  0  0  0  0
  186.7660  177.3710  142.6570 C   0  0  2  0  0  3  0  0  0  0  0  0
  185.3730  179.6060  145.1570 C   0  0  0  0  0  3  0  0  0  0  0  0
  187.0660  177.3350  145.0370 C   0  0  0  0  0  0  0  0  0  0  0  0
  187.6200  176.2340  142.4980 C   0  0  0  0  0  0  0  0  0  0  0  0
  186.5730  177.0870  139.0700 C   0  0  0  0  0  1  0  0  0  0  0  0
  187.6510  175.9660  141.2040 C   0  0  0  0  0  0  0  0  0  0  0  0
  189.0490  173.2460  139.0260 C   0  0  0  0  0  2  0  0  0  0  0  0
  191.2960  174.5150  141.9780 O   0  0  0  0  0  0  0  0  0  0  0  0
  185.6540  179.0170  143.9290 C   0  0  0  0  0  3  0  0  0  0  0  0
  186.4900  177.8970  143.8510 C   0  0  0  0  0  0  0  0  0  0  0  0
  190.0740  174.5210  142.2920 C   0  0  0  0  0  0  0  0  0  0  0  0
  190.9460  176.0240  147.0010 C   0  0  0  0  0  2  0  0  0  0  0  0
  191.4650  177.5810  148.8820 C   0  0  0  0  0  1  0  0  0  0  0  0
  190.5280  177.2970  147.7240 C   0  0  0  0  0  2  0  0  0  0  0  0
  1 19  1  0  0  0  0
  1  5  1  0  0  0  0
  2 13  1  0  0  0  0
  2 16  1  0  0  0  0
  4  1  2  0  0  0  0
  6  8  2  0  0  0  0
  7 15  1  6  0  0  0
  7 27  1  0  0  0  0
  8 11  1  0  0  0  0
  9 22  1  0  0  0  0
  9  7  1  0  0  0  0
 10 22  1  0  0  0  0
 10  3  2  0  0  0  0
 11  5  1  0  0  0  0
 11 28  1  0  0  0  0
 12  4  1  0  0  0  0
 12  8  1  0  0  0  0
 14  9  1  0  0  0  0
 17  3  1  1  0  0  0
 17 26  1  0  0  0  0
 18 13  2  0  0  0  0
 19  2  2  0  0  0  0
 20 17  1  0  0  0  0
 20  4  1  0  0  0  0
 21 10  1  0  0  0  0
 22 20  2  0  0  0  0
 23 14  1  0  0  0  0
 23 15  1  0  0  0  0
 24 27  2  0  0  0  0
 25 18  1  0  0  0  0
 26 25  2  0  0  0  0
 26 19  1  0  0  0  0
 27 12  1  0  0  0  0
 28 30  1  0  0  0  0
 30 29  1  0  0  0  0
M  END
>  <MODEL>
2

>  <REMARK>
 VINA RESULT:      -8.2      2.168      5.389
  Name = 
  2 active torsions:
  status: ('A' for Active; 'I' for Inactive)
    1  A    between atoms: N_11  and  C_28
    2  A    between atoms: C_28  and  C_30
                            x       y       z     vdW  Elec       q    Type
                         _______ _______ _______ _____ _____    ______ ____

>  <TORSDO>
F 2

$$$$
=
 OpenBabel11112416243D

 30 35  0  0  1  0  0  0  0  0999 V2000
  188.5820  176.4790  143.1600 C   0  0  0  0  0  0  0  0  0  0  0  0
  186.2000  176.9610  143.4540 C   0  0  0  0  0  0  0  0  0  0  0  0
  189.3170  177.2600  147.2450 N   0  0  0  0  0  0  0  0  0  0  0  0
  190.0290  176.4130  143.6460 C   0  0  0  0  0  0  0  0  0  0  0  0
  188.4060  176.0480  141.7420 C   0  0  0  0  0  2  0  0  0  0  0  0
  190.5570  173.1230  142.0660 O   0  0  0  0  0  0  0  0  0  0  0  0
  192.8860  176.0720  144.2300 C   0  0  1  0  0  3  0  0  0  0  0  0
  190.0750  174.2670  142.2930 C   0  0  0  0  0  0  0  0  0  0  0  0
  192.4740  176.3450  145.5940 N   0  0  0  0  0  0  0  0  0  0  0  0
  190.5950  177.0290  147.2810 C   0  0  2  0  0  3  0  0  0  0  0  0
  188.8850  174.6810  141.6020 N   0  0  0  0  0  0  0  0  0  0  0  0
  190.7080  175.1590  143.2430 N   0  0  0  0  0  0  0  0  0  0  0  0
  185.1490  177.3480  144.2890 C   0  0  0  0  0  3  0  0  0  0  0  0
  193.5850  176.3840  146.5230 C   0  0  0  0  0  2  0  0  0  0  0  0
  194.3730  175.7630  144.3000 C   0  0  0  0  0  2  0  0  0  0  0  0
  185.8940  176.7130  142.1560 F   0  0  0  0  0  0  0  0  0  0  0  0
  188.9450  177.0260  145.8880 C   0  0  0  0  0  0  0  0  0  0  0  0
  185.3730  177.6330  145.6320 C   0  0  0  0  0  3  0  0  0  0  0  0
  187.5270  176.8560  143.9600 C   0  0  0  0  0  0  0  0  0  0  0  0
  190.0880  176.6270  145.1260 C   0  0  0  0  0  0  0  0  0  0  0  0
  191.3910  177.1630  148.5300 C   0  0  0  0  0  1  0  0  0  0  0  0
  191.1170  176.6410  145.9560 C   0  0  0  0  0  0  0  0  0  0  0  0
  194.8360  176.2160  145.6790 C   0  0  0  0  0  2  0  0  0  0  0  0
  192.5900  173.7860  143.5760 O   0  0  0  0  0  0  0  0  0  0  0  0
  186.6560  177.5300  146.1590 C   0  0  0  0  0  3  0  0  0  0  0  0
  187.7300  177.1460  145.3490 C   0  0  0  0  0  0  0  0  0  0  0  0
  192.0790  174.9370  143.6510 C   0  0  0  0  0  0  0  0  0  0  0  0
  188.1980  173.7790  140.6870 C   0  0  0  0  0  2  0  0  0  0  0  0
  188.5930  172.8710  138.3950 C   0  0  0  0  0  1  0  0  0  0  0  0
  188.5250  174.1280  139.2420 C   0  0  0  0  0  2  0  0  0  0  0  0
  1  4  2  0  0  0  0
  1 19  1  0  0  0  0
  2 19  2  0  0  0  0
  2 13  1  0  0  0  0
  3 10  1  0  0  0  0
  4 20  1  0  0  0  0
  5  1  1  0  0  0  0
  6  8  2  0  0  0  0
  7 15  1  1  0  0  0
  7  9  1  0  0  0  0
  8 12  1  0  0  0  0
  9 22  1  0  0  0  0
  9 14  1  0  0  0  0
 10 21  1  6  0  0  0
 11  5  1  0  0  0  0
 11  8  1  0  0  0  0
 12  4  1  0  0  0  0
 12 27  1  0  0  0  0
 13 18  2  0  0  0  0
 15 23  1  0  0  0  0
 16  2  1  0  0  0  0
 17  3  2  0  0  0  0
 18 25  1  0  0  0  0
 19 26  1  0  0  0  0
 20 17  1  0  0  0  0
 20 22  2  0  0  0  0
 22 10  1  0  0  0  0
 23 14  1  0  0  0  0
 24 27  2  0  0  0  0
 26 17  1  0  0  0  0
 26 25  2  0  0  0  0
 27  7  1  0  0  0  0
 28 11  1  0  0  0  0
 29 30  1  0  0  0  0
 30 28  1  0  0  0  0
M  END
>  <MODEL>
3

>  <REMARK>
 VINA RESULT:      -7.9      2.159      3.150
  Name = 
  2 active torsions:
  status: ('A' for Active; 'I' for Inactive)
    1  A    between atoms: N_11  and  C_28
    2  A    between atoms: C_28  and  C_30
                            x       y       z     vdW  Elec       q    Type
                         _______ _______ _______ _____ _____    ______ ____

>  <TORSDO>
F 2

$$$$
=
 OpenBabel11112416243D

 30 35  0  0  1  0  0  0  0  0999 V2000
  189.3150  174.6850  144.4400 C   0  0  0  0  0  0  0  0  0  0  0  0
  188.6910  176.0430  146.3780 C   0  0  0  0  0  0  0  0  0  0  0  0
  186.9820  177.1180  141.8950 N   0  0  0  0  0  0  0  0  0  0  0  0
  189.2210  174.2860  142.9680 C   0  0  0  0  0  0  0  0  0  0  0  0
  190.2740  173.8530  145.2260 C   0  0  0  0  0  2  0  0  0  0  0  0
  192.8810  173.9470  142.6800 O   0  0  0  0  0  0  0  0  0  0  0  0
  189.3770  173.2880  140.2120 C   0  0  1  0  0  3  0  0  0  0  0  0
  191.7300  173.9830  143.1950 C   0  0  0  0  0  0  0  0  0  0  0  0
  188.5690  174.4550  139.9140 N   0  0  0  0  0  0  0  0  0  0  0  0
  187.2150  176.5270  140.7620 C   0  0  0  0  0  0  0  0  0  0  0  0
  191.5950  173.9630  144.6250 N   0  0  0  0  0  0  0  0  0  0  0  0
  190.5490  174.0470  142.3570 N   0  0  0  0  0  0  0  0  0  0  0  0
  187.9730  177.1180  146.9090 C   0  0  0  0  0  3  0  0  0  0  0  0
  188.1910  174.5410  138.5190 C   0  0  0  0  0  2  0  0  0  0  0  0
  189.6720  172.6360  138.8700 C   0  0  0  0  0  2  0  0  0  0  0  0
  189.4300  175.3100  147.2480 F   0  0  0  0  0  0  0  0  0  0  0  0
  187.7300  176.3710  142.8530 C   0  0  2  0  0  3  0  0  0  0  0  0
  187.1790  177.9170  146.0930 C   0  0  0  0  0  3  0  0  0  0  0  0
  188.6210  175.7390  144.9900 C   0  0  0  0  0  0  0  0  0  0  0  0
  188.4330  175.3060  142.2060 C   0  0  0  0  0  0  0  0  0  0  0  0
  186.6130  176.9950  139.4840 C   0  0  0  0  0  1  0  0  0  0  0  0
  188.1150  175.3690  140.9250 C   0  0  0  0  0  0  0  0  0  0  0  0
  188.7180  173.2730  137.8690 C   0  0  0  0  0  2  0  0  0  0  0  0
  191.7250  173.7510  140.3400 O   0  0  0  0  0  0  0  0  0  0  0  0
  187.0970  177.6520  144.7300 C   0  0  0  0  0  3  0  0  0  0  0  0
  187.8040  176.5830  144.1680 C   0  0  0  0  0  0  0  0  0  0  0  0
  190.6260  173.6850  140.9570 C   0  0  0  0  0  0  0  0  0  0  0  0
  192.7690  173.9580  145.4880 C   0  0  0  0  0  2  0  0  0  0  0  0
  192.7690  176.4130  145.9380 C   0  0  0  0  0  1  0  0  0  0  0  0
  192.6540  175.0330  146.5580 C   0  0  0  0  0  2  0  0  0  0  0  0
  1 19  1  0  0  0  0
  1  5  1  0  0  0  0
  2 13  1  0  0  0  0
  2 16  1  0  0  0  0
  4  1  2  0  0  0  0
  6  8  2  0  0  0  0
  7 15  1  6  0  0  0
  7 27  1  0  0  0  0
  8 11  1  0  0  0  0
  9  7  1  0  0  0  0
  9 22  1  0  0  0  0
 10 22  1  0  0  0  0
 10  3  2  0  0  0  0
 11  5  1  0  0  0  0
 11 28  1  0  0  0  0
 12  4  1  0  0  0  0
 12  8  1  0  0  0  0
 14  9  1  0  0  0  0
 17  3  1  1  0  0  0
 17 26  1  0  0  0  0
 18 13  2  0  0  0  0
 19  2  2  0  0  0  0
 20 17  1  0  0  0  0
 20  4  1  0  0  0  0
 21 10  1  0  0  0  0
 22 20  2  0  0  0  0
 23 14  1  0  0  0  0
 23 15  1  0  0  0  0
 24 27  2  0  0  0  0
 25 18  1  0  0  0  0
 26 25  2  0  0  0  0
 26 19  1  0  0  0  0
 27 12  1  0  0  0  0
 28 30  1  0  0  0  0
 29 30  1  0  0  0  0
M  END
>  <MODEL>
4

>  <REMARK>
 VINA RESULT:      -7.8      2.665      5.984
  Name = 
  2 active torsions:
  status: ('A' for Active; 'I' for Inactive)
    1  A    between atoms: N_11  and  C_28
    2  A    between atoms: C_28  and  C_30
                            x       y       z     vdW  Elec       q    Type
                         _______ _______ _______ _____ _____    ______ ____

>  <TORSDO>
F 2

$$$$
=
 OpenBabel11112416243D

 30 35  0  0  1  0  0  0  0  0999 V2000
  188.8290  175.1700  145.3790 C   0  0  0  0  0  0  0  0  0  0  0  0
  187.5000  177.1560  145.9090 C   0  0  0  0  0  0  0  0  0  0  0  0
  187.9170  175.5680  141.2740 N   0  0  0  0  0  0  0  0  0  0  0  0
  189.3540  174.0960  144.4280 C   0  0  0  0  0  0  0  0  0  0  0  0
  189.3230  175.0230  146.7800 C   0  0  0  0  0  2  0  0  0  0  0  0
  192.7680  174.3510  145.7970 O   0  0  0  0  0  0  0  0  0  0  0  0
  190.6250  171.9300  142.9070 C   0  0  1  0  0  3  0  0  0  0  0  0
  191.5100  174.4170  145.7260 C   0  0  0  0  0  0  0  0  0  0  0  0
  190.0750  172.6300  141.7610 N   0  0  0  0  0  0  0  0  0  0  0  0
  188.5840  174.5570  140.8080 C   0  0  0  0  0  0  0  0  0  0  0  0
  190.7770  175.0710  146.7740 N   0  0  0  0  0  0  0  0  0  0  0  0
  190.8040  173.8420  144.5980 N   0  0  0  0  0  0  0  0  0  0  0  0
  186.6740  178.1970  145.4780 C   0  0  0  0  0  3  0  0  0  0  0  0
  190.3330  171.9530  140.5070 C   0  0  0  0  0  2  0  0  0  0  0  0
  191.4350  170.7760  142.3370 C   0  0  0  0  0  2  0  0  0  0  0  0
  187.7640  177.0920  147.2380 F   0  0  0  0  0  0  0  0  0  0  0  0
  188.1500  175.5380  142.6810 C   0  0  1  0  0  3  0  0  0  0  0  0
  186.3410  178.3320  144.1340 C   0  0  0  0  0  3  0  0  0  0  0  0
  188.0150  176.2070  144.9820 C   0  0  0  0  0  0  0  0  0  0  0  0
  189.0130  174.4460  143.0130 C   0  0  0  0  0  0  0  0  0  0  0  0
  188.6060  174.2210  139.3580 C   0  0  0  0  0  1  0  0  0  0  0  0
  189.2760  173.8170  141.8810 C   0  0  0  0  0  0  0  0  0  0  0  0
  191.0280  170.6530  140.8740 C   0  0  0  0  0  2  0  0  0  0  0  0
  192.7130  172.8280  143.6690 O   0  0  0  0  0  0  0  0  0  0  0  0
  186.8360  177.4270  143.2010 C   0  0  0  0  0  3  0  0  0  0  0  0
  187.6660  176.3740  143.6010 C   0  0  0  0  0  0  0  0  0  0  0  0
  191.4540  172.8660  143.7490 C   0  0  0  0  0  0  0  0  0  0  0  0
  191.4700  175.7070  147.8880 C   0  0  0  0  0  2  0  0  0  0  0  0
  191.5580  177.7550  149.3110 C   0  0  0  0  0  1  0  0  0  0  0  0
  191.0860  177.1750  147.9920 C   0  0  0  0  0  2  0  0  0  0  0  0
  1  5  1  0  0  0  0
  2 16  1  0  0  0  0
  4 12  1  0  0  0  0
  4  1  2  0  0  0  0
  7 15  1  6  0  0  0
  7 27  1  0  0  0  0
  8  6  2  0  0  0  0
  8 11  1  0  0  0  0
  9 22  1  0  0  0  0
  9  7  1  0  0  0  0
 10  3  2  0  0  0  0
 10 22  1  0  0  0  0
 11  5  1  0  0  0  0
 11 28  1  0  0  0  0
 12  8  1  0  0  0  0
 13  2  1  0  0  0  0
 14 23  1  0  0  0  0
 14  9  1  0  0  0  0
 17  3  1  6  0  0  0
 17 20  1  0  0  0  0
 17 26  1  0  0  0  0
 18 13  2  0  0  0  0
 19  1  1  0  0  0  0
 19  2  2  0  0  0  0
 20  4  1  0  0  0  0
 21 10  1  0  0  0  0
 22 20  2  0  0  0  0
 23 15  1  0  0  0  0
 24 27  2  0  0  0  0
 25 26  2  0  0  0  0
 25 18  1  0  0  0  0
 26 19  1  0  0  0  0
 27 12  1  0  0  0  0
 28 30  1  0  0  0  0
 30 29  1  0  0  0  0
M  END
>  <MODEL>
5

>  <REMARK>
 VINA RESULT:      -7.5      2.963      5.838
  Name = 
  2 active torsions:
  status: ('A' for Active; 'I' for Inactive)
    1  A    between atoms: N_11  and  C_28
    2  A    between atoms: C_28  and  C_30
                            x       y       z     vdW  Elec       q    Type
                         _______ _______ _______ _____ _____    ______ ____

>  <TORSDO>
F 2

$$$$
=
 OpenBabel11112416243D

 30 35  0  0  1  0  0  0  0  0999 V2000
  189.3870  174.6370  143.6630 C   0  0  0  0  0  0  0  0  0  0  0  0
  191.6420  173.7960  143.2140 C   0  0  0  0  0  0  0  0  0  0  0  0
  190.8240  176.9820  146.8690 N   0  0  0  0  0  0  0  0  0  0  0  0
  188.3640  175.4260  144.4790 C   0  0  2  0  0  3  0  0  0  0  0  0
  188.8040  173.9580  142.4680 C   0  0  0  0  0  2  0  0  0  0  0  0
  186.8210  176.8400  141.4440 O   0  0  0  0  0  0  0  0  0  0  0  0
  186.1420  176.8830  145.7270 C   0  0  1  0  0  3  0  0  0  0  0  0
  187.4590  176.0490  142.1930 C   0  0  0  0  0  0  0  0  0  0  0  0
  187.1930  177.4650  146.5410 N   0  0  0  0  0  0  0  0  0  0  0  0
  189.7130  177.5410  147.2400 C   0  0  0  0  0  0  0  0  0  0  0  0
  188.1910  174.9600  141.6100 N   0  0  0  0  0  0  0  0  0  0  0  0
  187.4600  176.2350  143.6300 N   0  0  0  0  0  0  0  0  0  0  0  0
  192.9990  173.7640  143.5460 C   0  0  0  0  0  3  0  0  0  0  0  0
  186.6890  178.3710  147.5510 C   0  0  0  0  0  2  0  0  0  0  0  0
  184.8580  177.5800  146.1480 C   0  0  0  0  0  2  0  0  0  0  0  0
  191.2480  173.0300  142.1660 F   0  0  0  0  0  0  0  0  0  0  0  0
  190.4610  176.1480  145.7700 C   0  0  0  0  0  0  0  0  0  0  0  0
  193.4890  174.5100  144.6130 C   0  0  0  0  0  3  0  0  0  0  0  0
  190.7290  174.5890  143.9660 C   0  0  0  0  0  0  0  0  0  0  0  0
  189.0590  176.2620  145.5080 C   0  0  0  0  0  0  0  0  0  0  0  0
  189.6460  178.4990  148.3770 C   0  0  0  0  0  1  0  0  0  0  0  0
  188.5750  177.0970  146.4120 C   0  0  0  0  0  0  0  0  0  0  0  0
  185.1750  178.3030  147.4510 C   0  0  0  0  0  2  0  0  0  0  0  0
  185.8610  177.9620  143.6050 O   0  0  0  0  0  0  0  0  0  0  0  0
  192.6250  175.3030  145.3610 C   0  0  0  0  0  3  0  0  0  0  0  0
  191.2610  175.3560  145.0540 C   0  0  0  0  0  0  0  0  0  0  0  0
  186.4500  177.0590  144.2610 C   0  0  0  0  0  0  0  0  0  0  0  0
  188.2520  174.7880  140.1630 C   0  0  0  0  0  2  0  0  0  0  0  0
  188.3220  172.5780  139.0060 C   0  0  0  0  0  1  0  0  0  0  0  0
  189.1210  173.5930  139.8010 C   0  0  0  0  0  2  0  0  0  0  0  0
  1 19  2  0  0  0  0
  2 13  2  0  0  0  0
  2 19  1  0  0  0  0
  3 10  2  0  0  0  0
  4  1  1  6  0  0  0
  4 20  1  0  0  0  0
  5  1  1  0  0  0  0
  6  8  2  0  0  0  0
  7 15  1  1  0  0  0
  7  9  1  0  0  0  0
  8 12  1  0  0  0  0
  9 14  1  0  0  0  0
 10 21  1  0  0  0  0
 11  8  1  0  0  0  0
 11  5  1  0  0  0  0
 12 27  1  0  0  0  0
 12  4  1  0  0  0  0
 13 18  1  0  0  0  0
 15 23  1  0  0  0  0
 16  2  1  0  0  0  0
 17  3  1  0  0  0  0
 18 25  2  0  0  0  0
 19 26  1  0  0  0  0
 20 17  1  0  0  0  0
 20 22  2  0  0  0  0
 22  9  1  0  0  0  0
 22 10  1  0  0  0  0
 23 14  1  0  0  0  0
 24 27  2  0  0  0  0
 26 25  1  0  0  0  0
 26 17  2  0  0  0  0
 27  7  1  0  0  0  0
 28 11  1  0  0  0  0
 29 30  1  0  0  0  0
 30 28  1  0  0  0  0
M  END
>  <MODEL>
6

>  <REMARK>
 VINA RESULT:      -7.5      2.753      5.821
  Name = 
  2 active torsions:
  status: ('A' for Active; 'I' for Inactive)
    1  A    between atoms: N_11  and  C_28
    2  A    between atoms: C_28  and  C_30
                            x       y       z     vdW  Elec       q    Type
                         _______ _______ _______ _____ _____    ______ ____

>  <TORSDO>
F 2

$$$$
=
 OpenBabel11112416243D

 30 35  0  0  1  0  0  0  0  0999 V2000
  187.2360  177.0130  142.0990 C   0  0  0  0  0  0  0  0  0  0  0  0
  185.1600  177.6180  140.9510 C   0  0  0  0  0  0  0  0  0  0  0  0
  185.6970  178.4250  145.7710 N   0  0  0  0  0  0  0  0  0  0  0  0
  188.1590  176.9770  143.3160 C   0  0  2  0  0  3  0  0  0  0  0  0
  187.8160  176.3630  140.8880 C   0  0  0  0  0  2  0  0  0  0  0  0
  189.0680  173.4580  142.6980 O   0  0  0  0  0  0  0  0  0  0  0  0
  190.1620  176.6380  145.4350 C   0  0  1  0  0  3  0  0  0  0  0  0
  188.6820  174.6390  142.4810 C   0  0  0  0  0  0  0  0  0  0  0  0
  189.1060  177.1440  146.2920 N   0  0  0  0  0  0  0  0  0  0  0  0
  186.7070  178.1580  146.5420 C   0  0  0  0  0  0  0  0  0  0  0  0
  188.1250  174.9760  141.2000 N   0  0  0  0  0  0  0  0  0  0  0  0
  188.7920  175.6520  143.5120 N   0  0  0  0  0  0  0  0  0  0  0  0
  183.8790  178.1720  141.0010 C   0  0  0  0  0  3  0  0  0  0  0  0
  189.5200  177.2960  147.6710 C   0  0  0  0  0  2  0  0  0  0  0  0
  191.3170  176.2940  146.3620 C   0  0  0  0  0  2  0  0  0  0  0  0
  185.5890  177.1720  139.7430 F   0  0  0  0  0  0  0  0  0  0  0  0
  186.1050  177.9860  144.4760 C   0  0  0  0  0  0  0  0  0  0  0  0
  183.3620  178.6650  142.1950 C   0  0  0  0  0  3  0  0  0  0  0  0
  185.9680  177.5520  142.1200 C   0  0  0  0  0  0  0  0  0  0  0  0
  187.4210  177.4280  144.5380 C   0  0  0  0  0  0  0  0  0  0  0  0
  186.6970  178.4670  147.9980 C   0  0  0  0  0  1  0  0  0  0  0  0
  187.8190  177.5420  145.7930 C   0  0  0  0  0  0  0  0  0  0  0  0
  190.9980  176.9490  147.6990 C   0  0  0  0  0  2  0  0  0  0  0  0
  190.0020  174.2870  144.9980 O   0  0  0  0  0  0  0  0  0  0  0  0
  184.1230  178.6050  143.3580 C   0  0  0  0  0  3  0  0  0  0  0  0
  185.4100  178.0570  143.3400 C   0  0  0  0  0  0  0  0  0  0  0  0
  189.6760  175.4530  144.6410 C   0  0  0  0  0  0  0  0  0  0  0  0
  187.9510  173.9600  140.1690 C   0  0  0  0  0  2  0  0  0  0  0  0
  188.2450  174.1300  137.6970 C   0  0  0  0  0  1  0  0  0  0  0  0
  188.9490  174.1650  139.0390 C   0  0  0  0  0  2  0  0  0  0  0  0
  1 19  2  0  0  0  0
  2 13  2  0  0  0  0
  2 19  1  0  0  0  0
  3 10  2  0  0  0  0
  4  1  1  6  0  0  0
  4 12  1  0  0  0  0
  4 20  1  0  0  0  0
  5 11  1  0  0  0  0
  5  1  1  0  0  0  0
  7  9  1  0  0  0  0
  7 15  1  1  0  0  0
  8  6  2  0  0  0  0
  8 12  1  0  0  0  0
  9 14  1  0  0  0  0
 10 21  1  0  0  0  0
 11  8  1  0  0  0  0
 12 27  1  0  0  0  0
 13 18  1  0  0  0  0
 14 23  1  0  0  0  0
 15 23  1  0  0  0  0
 16  2  1  0  0  0  0
 17 20  1  0  0  0  0
 17  3  1  0  0  0  0
 18 25  2  0  0  0  0
 19 26  1  0  0  0  0
 20 22  2  0  0  0  0
 22  9  1  0  0  0  0
 22 10  1  0  0  0  0
 26 25  1  0  0  0  0
 26 17  2  0  0  0  0
 27 24  2  0  0  0  0
 27  7  1  0  0  0  0
 28 11  1  0  0  0  0
 29 30  1  0  0  0  0
 30 28  1  0  0  0  0
M  END
>  <MODEL>
7

>  <REMARK>
 VINA RESULT:      -7.4      2.136      3.712
  Name = 
  2 active torsions:
  status: ('A' for Active; 'I' for Inactive)
    1  A    between atoms: N_11  and  C_28
    2  A    between atoms: C_28  and  C_30
                            x       y       z     vdW  Elec       q    Type
                         _______ _______ _______ _____ _____    ______ ____

>  <TORSDO>
F 2

$$$$
=
 OpenBabel11112416243D

 30 35  0  0  1  0  0  0  0  0999 V2000
  187.8030  177.4290  144.3480 C   0  0  0  0  0  0  0  0  0  0  0  0
  188.6860  176.6880  146.5080 C   0  0  0  0  0  0  0  0  0  0  0  0
  189.0680  173.8380  142.5190 N   0  0  0  0  0  0  0  0  0  0  0  0
  187.5880  177.2860  142.8420 C   0  0  0  0  0  0  0  0  0  0  0  0
  187.1960  178.6650  144.9250 C   0  0  0  0  0  2  0  0  0  0  0  0
  184.0560  178.3120  143.1080 O   0  0  0  0  0  0  0  0  0  0  0  0
  186.9020  177.3230  139.9890 C   0  0  1  0  0  3  0  0  0  0  0  0
  185.2820  178.1950  143.3840 C   0  0  0  0  0  0  0  0  0  0  0  0
  187.4370  175.9740  140.0080 N   0  0  0  0  0  0  0  0  0  0  0  0
  188.6490  174.0550  141.3090 C   0  0  0  0  0  0  0  0  0  0  0  0
  185.7660  178.6570  144.6550 N   0  0  0  0  0  0  0  0  0  0  0  0
  186.1980  177.5960  142.4340 N   0  0  0  0  0  0  0  0  0  0  0  0
  189.3530  175.7190  147.2630 C   0  0  0  0  0  3  0  0  0  0  0  0
  187.4430  175.3490  138.7010 C   0  0  0  0  0  2  0  0  0  0  0  0
  186.3800  177.5410  138.5770 C   0  0  0  0  0  2  0  0  0  0  0  0
  188.2960  177.8120  147.1580 F   0  0  0  0  0  0  0  0  0  0  0  0
  188.6920  175.0060  143.2470 C   0  0  2  0  0  3  0  0  0  0  0  0
  189.7990  174.5400  146.6750 C   0  0  0  0  0  3  0  0  0  0  0  0
  188.4550  176.4910  145.1170 C   0  0  0  0  0  0  0  0  0  0  0  0
  188.0110  175.9240  142.3870 C   0  0  0  0  0  0  0  0  0  0  0  0
  188.8450  173.0700  140.2120 C   0  0  0  0  0  1  0  0  0  0  0  0
  187.9900  175.3700  141.1870 C   0  0  0  0  0  0  0  0  0  0  0  0
  186.9580  176.4130  137.7320 C   0  0  0  0  0  2  0  0  0  0  0  0
  184.6160  177.4590  140.6970 O   0  0  0  0  0  0  0  0  0  0  0  0
  189.5790  174.3130  145.3210 C   0  0  0  0  0  3  0  0  0  0  0  0
  188.9160  175.2640  144.5370 C   0  0  0  0  0  0  0  0  0  0  0  0
  185.8310  177.4810  141.0380 C   0  0  0  0  0  0  0  0  0  0  0  0
  184.8540  179.2080  145.6490 C   0  0  0  0  0  2  0  0  0  0  0  0
  184.8160  176.9060  146.6120 C   0  0  0  0  0  1  0  0  0  0  0  0
  184.8950  178.3870  146.9290 C   0  0  0  0  0  2  0  0  0  0  0  0
  1  5  1  0  0  0  0
  1 19  1  0  0  0  0
  2 16  1  0  0  0  0
  2 13  1  0  0  0  0
  3 17  1  0  0  0  0
  4  1  2  0  0  0  0
  6  8  2  0  0  0  0
  7 15  1  6  0  0  0
  7  9  1  0  0  0  0
  7 27  1  0  0  0  0
  8 11  1  0  0  0  0
  9 22  1  0  0  0  0
 10  3  2  0  0  0  0
 11  5  1  0  0  0  0
 11 28  1  0  0  0  0
 12  4  1  0  0  0  0
 12  8  1  0  0  0  0
 14  9  1  0  0  0  0
 17 20  1  6  0  0  0
 17 26  1  0  0  0  0
 18 13  2  0  0  0  0
 19  2  2  0  0  0  0
 20  4  1  0  0  0  0
 21 10  1  0  0  0  0
 22 10  1  0  0  0  0
 22 20  2  0  0  0  0
 23 15  1  0  0  0  0
 23 14  1  0  0  0  0
 24 27  2  0  0  0  0
 25 18  1  0  0  0  0
 26 19  1  0  0  0  0
 26 25  2  0  0  0  0
 27 12  1  0  0  0  0
 28 30  1  0  0  0  0
 29 30  1  0  0  0  0
M  END
>  <MODEL>
8

>  <REMARK>
 VINA RESULT:      -7.3      2.529      5.303
  Name = 
  2 active torsions:
  status: ('A' for Active; 'I' for Inactive)
    1  A    between atoms: N_11  and  C_28
    2  A    between atoms: C_28  and  C_30
                            x       y       z     vdW  Elec       q    Type
                         _______ _______ _______ _____ _____    ______ ____

>  <TORSDO>
F 2

$$$$
=
 OpenBabel11112416243D

 30 35  0  0  1  0  0  0  0  0999 V2000
  189.7000  176.1030  142.9950 C   0  0  0  0  0  0  0  0  0  0  0  0
  187.6640  176.2930  144.3400 C   0  0  0  0  0  0  0  0  0  0  0  0
  192.1010  176.7200  146.4150 N   0  0  0  0  0  0  0  0  0  0  0  0
  191.2130  176.1720  142.7960 C   0  0  0  0  0  0  0  0  0  0  0  0
  188.9490  175.7390  141.7570 C   0  0  0  0  0  2  0  0  0  0  0  0
  191.2370  173.0620  140.8160 O   0  0  0  0  0  0  0  0  0  0  0  0
  194.0510  176.1240  142.0470 C   0  0  1  0  0  3  0  0  0  0  0  0
  190.8200  174.1280  141.3450 C   0  0  0  0  0  0  0  0  0  0  0  0
  194.2640  176.2680  143.4740 N   0  0  0  0  0  0  0  0  0  0  0  0
  193.2760  176.6330  145.8690 C   0  0  2  0  0  3  0  0  0  0  0  0
  189.4200  174.4450  141.2840 N   0  0  0  0  0  0  0  0  0  0  0  0
  191.7380  175.0290  142.0130 N   0  0  0  0  0  0  0  0  0  0  0  0
  187.0630  176.5090  145.5830 C   0  0  0  0  0  3  0  0  0  0  0  0
  195.6640  176.3770  143.8290 C   0  0  0  0  0  2  0  0  0  0  0  0
  195.4350  175.9820  141.4330 C   0  0  0  0  0  2  0  0  0  0  0  0
  186.8360  176.0890  143.2850 F   0  0  0  0  0  0  0  0  0  0  0  0
  191.1870  176.5260  145.3370 C   0  0  0  0  0  0  0  0  0  0  0  0
  187.8340  176.7380  146.7170 C   0  0  0  0  0  3  0  0  0  0  0  0
  189.0810  176.3100  144.2070 C   0  0  0  0  0  0  0  0  0  0  0  0
  191.9020  176.3040  144.1180 C   0  0  0  0  0  0  0  0  0  0  0  0
  194.5300  176.7830  146.6560 C   0  0  0  0  0  1  0  0  0  0  0  0
  193.1880  176.3860  144.4170 C   0  0  0  0  0  0  0  0  0  0  0  0
  196.4230  176.4020  142.5140 C   0  0  0  0  0  2  0  0  0  0  0  0
  193.6710  173.8610  141.3540 O   0  0  0  0  0  0  0  0  0  0  0  0
  189.2210  176.7500  146.6230 C   0  0  0  0  0  3  0  0  0  0  0  0
  189.8540  176.5380  145.3930 C   0  0  0  0  0  0  0  0  0  0  0  0
  193.1610  174.9410  141.7610 C   0  0  0  0  0  0  0  0  0  0  0  0
  188.4700  173.5260  140.6690 C   0  0  0  0  0  2  0  0  0  0  0  0
  188.4700  172.2490  142.8140 C   0  0  0  0  0  1  0  0  0  0  0  0
  187.6040  172.8610  141.7290 C   0  0  0  0  0  2  0  0  0  0  0  0
  1 19  1  0  0  0  0
  2 13  1  0  0  0  0
  4  1  2  0  0  0  0
  4 20  1  0  0  0  0
  5  1  1  0  0  0  0
  6  8  2  0  0  0  0
  7 15  1  6  0  0  0
  7  9  1  0  0  0  0
  8 12  1  0  0  0  0
  9 14  1  0  0  0  0
  9 22  1  0  0  0  0
 10  3  1  0  0  0  0
 10 21  1  6  0  0  0
 11  8  1  0  0  0  0
 11  5  1  0  0  0  0
 12  4  1  0  0  0  0
 13 18  2  0  0  0  0
 15 23  1  0  0  0  0
 16  2  1  0  0  0  0
 17 26  1  0  0  0  0
 17  3  2  0  0  0  0
 19  2  2  0  0  0  0
 19 26  1  0  0  0  0
 20 22  2  0  0  0  0
 20 17  1  0  0  0  0
 22 10  1  0  0  0  0
 23 14  1  0  0  0  0
 24 27  2  0  0  0  0
 25 18  1  0  0  0  0
 26 25  2  0  0  0  0
 27 12  1  0  0  0  0
 27  7  1  0  0  0  0
 28 11  1  0  0  0  0
 28 30  1  0  0  0  0
 30 29  1  0  0  0  0
M  END
>  <MODEL>
9

>  <REMARK>
 VINA RESULT:      -7.3      2.943      4.220
  Name = 
  2 active torsions:
  status: ('A' for Active; 'I' for Inactive)
    1  A    between atoms: N_11  and  C_28
    2  A    between atoms: C_28  and  C_30
                            x       y       z     vdW  Elec       q    Type
                         _______ _______ _______ _____ _____    ______ ____

>  <TORSDO>
F 2

$$$$
