=
 OpenBabel11112416283D

 32 37  0  0  1  0  0  0  0  0999 V2000
  186.4170  176.7040  146.5000 C   0  0  0  0  0  2  0  0  0  0  0  0
  191.2090  175.9500  143.7390 C   0  0  1  0  0  3  0  0  0  0  0  0
  190.3900  172.5360  140.3560 C   0  0  0  0  0  3  0  0  0  0  0  0
  191.7210  172.8140  139.7140 C   0  0  0  0  0  2  0  0  0  0  0  0
  193.6260  176.2920  144.5620 C   0  0  0  0  0  0  0  0  0  0  0  0
  195.0570  175.8480  144.6900 C   0  0  1  0  0  3  0  0  0  0  0  0
  189.2730  176.9090  145.0390 C   0  0  1  0  0  3  0  0  0  0  0  0
  189.0030  175.6040  142.9220 C   0  0  0  0  0  2  0  0  0  0  0  0
  196.5990  174.1110  144.0690 N   0  0  0  0  0  0  0  0  0  0  0  0
  186.9450  176.5000  143.9890 C   0  0  0  0  0  2  0  0  0  0  0  0
  189.9350  173.3420  141.3240 C   0  0  0  0  0  3  0  0  0  0  0  0
  190.3040  174.9550  143.1270 N   0  0  1  0  0  0  0  0  0  0  0  0
  190.7540  174.5330  141.7890 C   0  0  1  0  0  3  0  0  0  0  0  0
  193.2250  174.9410  142.5720 C   0  0  2  0  0  3  0  0  0  0  0  0
  196.5170  174.1910  145.5280 C   0  0  0  0  0  2  0  0  0  0  0  0
  187.7590  176.2500  146.8890 N   0  0  0  0  0  2  0  0  0  0  0  0
  188.3530  175.9530  144.2540 C   0  0  2  0  0  3  0  0  0  0  0  0
  195.2900  174.9980  145.9030 C   0  0  0  0  0  2  0  0  0  0  0  0
  188.7750  177.2110  146.4610 C   0  0  0  0  0  2  0  0  0  0  0  0
  186.3570  177.3620  145.1090 C   0  0  1  0  0  3  0  0  0  0  0  0
  192.6790  173.4120  140.7120 C   0  0  0  0  0  3  0  0  0  0  0  0
  192.2370  174.1920  141.7200 C   0  0  0  0  0  0  0  0  0  0  0  0
  194.4830  174.1250  142.8710 C   0  0  0  0  0  2  0  0  0  0  0  0
  190.6690  176.3110  145.1310 C   0  0  0  0  0  2  0  0  0  0  0  0
  193.3030  177.3920  144.9810 O   0  0  0  0  0  0  0  0  0  0  0  0
  197.8860  174.6660  143.6830 C   0  0  0  0  0  1  0  0  0  0  0  0
  192.6240  175.3680  143.9020 C   0  0  2  0  0  3  0  0  0  0  0  0
  195.5670  174.9930  143.5270 C   0  0  1  0  0  3  0  0  0  0  0  0
  184.9850  177.7140  144.7800 N   0  0  0  0  0  2  0  0  0  0  0  0
  184.6330  178.9870  144.2360 C   0  0  0  0  0  0  0  0  0  0  0  0
  185.6120  179.9370  143.9730 O   0  0  0  0  0  0  0  0  0  0  0  0
  183.4280  179.2470  143.9900 O   0  0  0  0  0  1  0  0  0  0  0  0
  1 16  1  0  0  0  0
  2 27  1  0  0  0  0
  2 24  1  1  0  0  0
  3 11  2  0  0  0  0
  4  3  1  0  0  0  0
  4 21  1  0  0  0  0
  5  6  1  0  0  0  0
  5 25  2  0  0  0  0
  6 18  1  1  0  0  0
  7 24  1  1  0  0  0
  7 19  1  0  0  0  0
  9 15  1  0  0  0  0
 10 17  1  0  0  0  0
 10 20  1  0  0  0  0
 12  8  1  6  0  0  0
 12  2  1  0  0  0  0
 13 11  1  1  0  0  0
 13 12  1  0  0  0  0
 14 23  1  1  0  0  0
 14 27  1  0  0  0  0
 15 18  1  0  0  0  0
 17  8  1  6  0  0  0
 17  7  1  0  0  0  0
 19 16  1  0  0  0  0
 20 29  1  6  0  0  0
 20  1  1  0  0  0  0
 21 22  2  0  0  0  0
 22 13  1  0  0  0  0
 22 14  1  0  0  0  0
 26  9  1  0  0  0  0
 27  5  1  6  0  0  0
 28 23  1  1  0  0  0
 28  9  1  0  0  0  0
 28  6  1  0  0  0  0
 30 29  1  0  0  0  0
 31 30  2  0  0  0  0
 32 30  1  0  0  0  0
M  END
>  <MODEL>
1

>  <REMARK>
 VINA RESULT:      -8.5      0.000      0.000
  Name = 
  1 active torsions:
  status: ('A' for Active; 'I' for Inactive)
    1  A    between atoms: C_20  and  N_29
                            x       y       z     vdW  Elec       q    Type
                         _______ _______ _______ _____ _____    ______ ____

>  <TORSDO>
F 1

$$$$
=
 OpenBabel11112416283D

 32 37  0  0  1  0  0  0  0  0999 V2000
  190.4150  173.3200  142.0400 C   0  0  0  0  0  2  0  0  0  0  0  0
  186.5100  177.2680  142.6030 C   0  0  1  0  0  3  0  0  0  0  0  0
  185.3090  177.4310  147.3250 C   0  0  0  0  0  3  0  0  0  0  0  0
  184.5200  178.6920  147.1090 C   0  0  0  0  0  2  0  0  0  0  0  0
  184.7860  178.1020  140.8800 C   0  0  0  0  0  0  0  0  0  0  0  0
  183.3920  178.5100  140.4920 C   0  0  1  0  0  3  0  0  0  0  0  0
  188.4830  175.8840  141.8630 C   0  0  1  0  0  3  0  0  0  0  0  0
  188.0690  176.5360  144.2420 C   0  0  0  0  0  2  0  0  0  0  0  0
  181.1680  178.8260  141.3480 N   0  0  0  0  0  0  0  0  0  0  0  0
  190.1180  175.2170  143.7540 C   0  0  0  0  0  2  0  0  0  0  0  0
  186.0760  176.9470  146.3400 C   0  0  0  0  0  3  0  0  0  0  0  0
  186.6380  176.7200  143.9690 N   0  0  1  0  0  0  0  0  0  0  0  0
  186.1520  177.6540  144.9990 C   0  0  1  0  0  3  0  0  0  0  0  0
  184.4320  178.5770  143.2450 C   0  0  2  0  0  3  0  0  0  0  0  0
  181.1430  177.8170  140.2870 C   0  0  0  0  0  2  0  0  0  0  0  0
  189.0580  173.4980  141.5060 N   0  0  0  0  0  2  0  0  0  0  0  0
  188.6630  175.4670  143.3370 C   0  0  2  0  0  3  0  0  0  0  0  0
  182.5610  177.3520  140.0260 C   0  0  0  0  0  2  0  0  0  0  0  0
  188.9220  174.8040  140.8610 C   0  0  0  0  0  2  0  0  0  0  0  0
  191.0080  174.5900  142.6790 C   0  0  1  0  0  3  0  0  0  0  0  0
  184.0640  178.7970  145.6760 C   0  0  0  0  0  3  0  0  0  0  0  0
  184.8010  178.2780  144.6720 C   0  0  0  0  0  0  0  0  0  0  0  0
  182.9190  178.5870  143.0170 C   0  0  0  0  0  2  0  0  0  0  0  0
  187.0220  176.2190  141.6040 C   0  0  0  0  0  2  0  0  0  0  0  0
  185.6890  178.2150  140.0660 O   0  0  0  0  0  0  0  0  0  0  0  0
  180.5630  180.0300  140.8050 C   0  0  0  0  0  1  0  0  0  0  0  0
  185.0380  177.5730  142.2760 C   0  0  2  0  0  3  0  0  0  0  0  0
  182.5700  179.1320  141.6240 C   0  0  1  0  0  3  0  0  0  0  0  0
  192.3180  174.3020  143.2410 N   0  0  0  0  0  2  0  0  0  0  0  0
  193.4190  175.2040  143.1100 C   0  0  0  0  0  0  0  0  0  0  0  0
  193.2630  176.4180  142.4540 O   0  0  0  0  0  0  0  0  0  0  0  0
  194.5370  174.8960  143.5980 O   0  0  0  0  0  1  0  0  0  0  0  0
  1 20  1  0  0  0  0
  2 24  1  6  0  0  0
  2 12  1  0  0  0  0
  4  3  1  0  0  0  0
  6 18  1  1  0  0  0
  6  5  1  0  0  0  0
  6 28  1  0  0  0  0
  7 19  1  6  0  0  0
  7 17  1  0  0  0  0
  9 28  1  0  0  0  0
 11  3  2  0  0  0  0
 12  8  1  1  0  0  0
 12 13  1  0  0  0  0
 13 11  1  1  0  0  0
 14 23  1  1  0  0  0
 14 22  1  0  0  0  0
 15  9  1  0  0  0  0
 16  1  1  0  0  0  0
 17 10  1  1  0  0  0
 17  8  1  0  0  0  0
 18 15  1  0  0  0  0
 19 16  1  0  0  0  0
 20 29  1  1  0  0  0
 20 10  1  0  0  0  0
 21  4  1  0  0  0  0
 22 13  1  0  0  0  0
 22 21  2  0  0  0  0
 24  7  1  0  0  0  0
 25  5  2  0  0  0  0
 26  9  1  0  0  0  0
 27  5  1  6  0  0  0
 27  2  1  0  0  0  0
 27 14  1  0  0  0  0
 28 23  1  1  0  0  0
 30 29  1  0  0  0  0
 30 32  1  0  0  0  0
 31 30  2  0  0  0  0
M  END
>  <MODEL>
2

>  <REMARK>
 VINA RESULT:      -8.2      2.759      9.834
  Name = 
  1 active torsions:
  status: ('A' for Active; 'I' for Inactive)
    1  A    between atoms: C_20  and  N_29
                            x       y       z     vdW  Elec       q    Type
                         _______ _______ _______ _____ _____    ______ ____

>  <TORSDO>
F 1

$$$$
=
 OpenBabel11112416283D

 32 37  0  0  1  0  0  0  0  0999 V2000
  189.4580  171.9530  138.8650 C   0  0  0  0  0  2  0  0  0  0  0  0
  189.3280  175.7530  142.9500 C   0  0  1  0  0  3  0  0  0  0  0  0
  192.8220  174.5540  146.1330 C   0  0  0  0  0  3  0  0  0  0  0  0
  192.6520  175.8630  146.8530 C   0  0  0  0  0  2  0  0  0  0  0  0
  187.3420  177.1570  143.7970 C   0  0  0  0  0  0  0  0  0  0  0  0
  186.5060  177.7380  144.9040 C   0  0  1  0  0  3  0  0  0  0  0  0
  189.1880  174.5510  140.7380 C   0  0  1  0  0  3  0  0  0  0  0  0
  191.2000  174.4800  142.2230 C   0  0  0  0  0  2  0  0  0  0  0  0
  186.3210  177.9010  147.2950 N   0  0  0  0  0  0  0  0  0  0  0  0
  191.3250  173.2610  140.0610 C   0  0  0  0  0  2  0  0  0  0  0  0
  192.1940  174.3480  144.9670 C   0  0  0  0  0  3  0  0  0  0  0  0
  190.3790  174.8140  143.3940 N   0  0  1  0  0  0  0  0  0  0  0  0
  191.3020  175.4200  144.3680 C   0  0  1  0  0  3  0  0  0  0  0  0
  189.3170  176.9180  145.2060 C   0  0  2  0  0  3  0  0  0  0  0  0
  185.1200  177.2600  146.7560 C   0  0  0  0  0  2  0  0  0  0  0  0
  188.4490  172.3550  139.8530 N   0  0  0  0  0  2  0  0  0  0  0  0
  190.3910  173.7010  141.1950 C   0  0  2  0  0  3  0  0  0  0  0  0
  185.4010  176.8200  145.3340 C   0  0  0  0  0  2  0  0  0  0  0  0
  188.2240  173.8000  139.8060 C   0  0  0  0  0  2  0  0  0  0  0  0
  190.6340  172.9380  138.7330 C   0  0  1  0  0  3  0  0  0  0  0  0
  191.2690  176.4170  146.6330 C   0  0  0  0  0  3  0  0  0  0  0  0
  190.6010  176.1850  145.4830 C   0  0  0  0  0  0  0  0  0  0  0  0
  188.4480  177.0780  146.4540 C   0  0  0  0  0  2  0  0  0  0  0  0
  188.4090  175.0270  141.9560 C   0  0  0  0  0  2  0  0  0  0  0  0
  187.0930  177.4620  142.6410 O   0  0  0  0  0  0  0  0  0  0  0  0
  185.9410  179.2430  147.7020 C   0  0  0  0  0  1  0  0  0  0  0  0
  188.4790  176.2210  144.1450 C   0  0  2  0  0  3  0  0  0  0  0  0
  187.2730  178.0340  146.1950 C   0  0  1  0  0  3  0  0  0  0  0  0
  191.6140  172.4250  137.7890 N   0  0  0  0  0  2  0  0  0  0  0  0
  191.5780  172.7520  136.3990 C   0  0  0  0  0  0  0  0  0  0  0  0
  190.6030  173.6080  135.9000 O   0  0  0  0  0  1  0  0  0  0  0  0
  192.4380  172.2640  135.6220 O   0  0  0  0  0  0  0  0  0  0  0  0
  1 16  1  0  0  0  0
  2 24  1  6  0  0  0
  2 12  1  0  0  0  0
  2 27  1  0  0  0  0
  3  4  1  0  0  0  0
  5  6  1  0  0  0  0
  6 18  1  1  0  0  0
  6 28  1  0  0  0  0
  7 19  1  6  0  0  0
  7 17  1  0  0  0  0
  7 24  1  0  0  0  0
  9 26  1  0  0  0  0
 11  3  2  0  0  0  0
 12  8  1  6  0  0  0
 12 13  1  0  0  0  0
 13 11  1  1  0  0  0
 13 22  1  0  0  0  0
 14 22  1  0  0  0  0
 14 23  1  1  0  0  0
 15  9  1  0  0  0  0
 17 10  1  6  0  0  0
 17  8  1  0  0  0  0
 18 15  1  0  0  0  0
 19 16  1  0  0  0  0
 20 29  1  6  0  0  0
 20  1  1  0  0  0  0
 20 10  1  0  0  0  0
 21  4  1  0  0  0  0
 22 21  2  0  0  0  0
 25  5  2  0  0  0  0
 27  5  1  6  0  0  0
 27 14  1  0  0  0  0
 28 23  1  1  0  0  0
 28  9  1  0  0  0  0
 30 29  1  0  0  0  0
 31 30  1  0  0  0  0
 32 30  2  0  0  0  0
M  END
>  <MODEL>
3

>  <REMARK>
 VINA RESULT:      -8.2      3.315      8.110
  Name = 
  1 active torsions:
  status: ('A' for Active; 'I' for Inactive)
    1  A    between atoms: C_20  and  N_29
                            x       y       z     vdW  Elec       q    Type
                         _______ _______ _______ _____ _____    ______ ____

>  <TORSDO>
F 1

$$$$
=
 OpenBabel11112416283D

 32 37  0  0  1  0  0  0  0  0999 V2000
  185.6650  178.4000  140.8780 C   0  0  0  0  0  2  0  0  0  0  0  0
  189.3410  175.0320  143.3870 C   0  0  1  0  0  3  0  0  0  0  0  0
  190.5430  177.1260  147.6220 C   0  0  0  0  0  3  0  0  0  0  0  0
  191.2590  175.8810  148.0660 C   0  0  0  0  0  2  0  0  0  0  0  0
  191.0100  173.3800  142.3300 C   0  0  0  0  0  0  0  0  0  0  0  0
  192.3790  172.7640  142.2240 C   0  0  1  0  0  3  0  0  0  0  0  0
  187.4480  175.9800  142.0180 C   0  0  1  0  0  3  0  0  0  0  0  0
  187.8310  176.5470  144.4240 C   0  0  0  0  0  2  0  0  0  0  0  0
  194.5830  172.7920  143.1830 N   0  0  0  0  0  0  0  0  0  0  0  0
  185.8580  177.5640  143.3050 C   0  0  0  0  0  2  0  0  0  0  0  0
  189.8020  177.1080  146.5060 C   0  0  0  0  0  3  0  0  0  0  0  0
  189.2480  176.1820  144.3110 N   0  0  1  0  0  0  0  0  0  0  0  0
  189.6830  175.8430  145.6770 C   0  0  1  0  0  3  0  0  0  0  0  0
  191.3440  174.0980  144.6360 C   0  0  2  0  0  3  0  0  0  0  0  0
  194.6620  173.1540  141.7670 C   0  0  0  0  0  2  0  0  0  0  0  0
  187.0080  177.9170  140.5320 N   0  0  0  0  0  2  0  0  0  0  0  0
  187.2950  177.0700  143.0980 C   0  0  2  0  0  3  0  0  0  0  0  0
  193.2720  173.5050  141.2760 C   0  0  0  0  0  2  0  0  0  0  0  0
  187.0690  176.4570  140.6070 C   0  0  0  0  0  2  0  0  0  0  0  0
  185.0020  177.6330  142.0380 C   0  0  1  0  0  3  0  0  0  0  0  0
  191.7040  175.0700  146.8770 C   0  0  0  0  0  3  0  0  0  0  0  0
  190.9950  175.0710  145.7290 C   0  0  0  0  0  0  0  0  0  0  0  0
  192.8520  173.9010  144.4810 C   0  0  0  0  0  2  0  0  0  0  0  0
  188.8870  175.4870  141.9910 C   0  0  0  0  0  2  0  0  0  0  0  0
  190.1010  172.9300  141.6510 O   0  0  0  0  0  0  0  0  0  0  0  0
  195.1180  171.4460  143.3090 C   0  0  0  0  0  1  0  0  0  0  0  0
  190.7930  174.5320  143.2870 C   0  0  2  0  0  3  0  0  0  0  0  0
  193.1670  172.7310  143.5370 C   0  0  1  0  0  3  0  0  0  0  0  0
  183.7120  178.2240  142.3560 N   0  0  0  0  0  2  0  0  0  0  0  0
  182.6280  178.2340  141.4260 C   0  0  0  0  0  0  0  0  0  0  0  0
  182.7650  177.6440  140.1750 O   0  0  0  0  0  0  0  0  0  0  0  0
  181.5390  178.7770  141.7450 O   0  0  0  0  0  1  0  0  0  0  0  0
  1 20  1  0  0  0  0
  2 24  1  6  0  0  0
  2 12  1  0  0  0  0
  3  4  1  0  0  0  0
  6 18  1  6  0  0  0
  6  5  1  0  0  0  0
  6 28  1  0  0  0  0
  7 19  1  6  0  0  0
  7 17  1  0  0  0  0
  9 26  1  0  0  0  0
  9 28  1  0  0  0  0
 11  3  2  0  0  0  0
 12  8  1  1  0  0  0
 12 13  1  0  0  0  0
 13 22  1  0  0  0  0
 13 11  1  1  0  0  0
 14 23  1  6  0  0  0
 14 22  1  0  0  0  0
 15  9  1  0  0  0  0
 16 19  1  0  0  0  0
 16  1  1  0  0  0  0
 17 10  1  1  0  0  0
 17  8  1  0  0  0  0
 18 15  1  0  0  0  0
 20 29  1  1  0  0  0
 20 10  1  0  0  0  0
 21  4  1  0  0  0  0
 22 21  2  0  0  0  0
 24  7  1  0  0  0  0
 25  5  2  0  0  0  0
 27  5  1  6  0  0  0
 27  2  1  0  0  0  0
 27 14  1  0  0  0  0
 28 23  1  1  0  0  0
 30 32  1  0  0  0  0
 30 29  1  0  0  0  0
 31 30  2  0  0  0  0
M  END
>  <MODEL>
4

>  <REMARK>
 VINA RESULT:      -7.9      2.567      4.638
  Name = 
  1 active torsions:
  status: ('A' for Active; 'I' for Inactive)
    1  A    between atoms: C_20  and  N_29
                            x       y       z     vdW  Elec       q    Type
                         _______ _______ _______ _____ _____    ______ ____

>  <TORSDO>
F 1

$$$$
=
 OpenBabel11112416283D

 32 37  0  0  1  0  0  0  0  0999 V2000
  185.9420  179.0700  143.1850 C   0  0  0  0  0  2  0  0  0  0  0  0
  189.3530  174.7970  142.0640 C   0  0  1  0  0  3  0  0  0  0  0  0
  193.5630  175.6860  144.3580 C   0  0  0  0  0  3  0  0  0  0  0  0
  194.0510  174.2960  144.0590 C   0  0  0  0  0  2  0  0  0  0  0  0
  189.3940  173.2510  140.0050 C   0  0  0  0  0  0  0  0  0  0  0  0
  190.1220  172.5190  138.9110 C   0  0  1  0  0  3  0  0  0  0  0  0
  187.3490  176.2560  142.5230 C   0  0  1  0  0  3  0  0  0  0  0  0
  189.3770  176.1960  143.9860 C   0  0  0  0  0  2  0  0  0  0  0  0
  192.3090  172.0610  138.0250 N   0  0  0  0  0  0  0  0  0  0  0  0
  187.5030  177.6730  144.6820 C   0  0  0  0  0  2  0  0  0  0  0  0
  192.2910  176.0170  144.0980 C   0  0  0  0  0  3  0  0  0  0  0  0
  190.1970  175.7020  142.8730 N   0  0  1  0  0  0  0  0  0  0  0  0
  191.3350  175.0040  143.4960 C   0  0  1  0  0  3  0  0  0  0  0  0
  191.3570  173.3660  141.4460 C   0  0  2  0  0  3  0  0  0  0  0  0
  191.5010  172.7320  137.0060 C   0  0  0  0  0  2  0  0  0  0  0  0
  186.5240  178.5250  141.9520 N   0  0  0  0  0  2  0  0  0  0  0  0
  188.2410  177.0740  143.4790 C   0  0  2  0  0  3  0  0  0  0  0  0
  190.2900  173.3500  137.6740 C   0  0  0  0  0  2  0  0  0  0  0  0
  186.2540  177.0910  141.8410 C   0  0  0  0  0  2  0  0  0  0  0  0
  186.0710  178.1370  144.4040 C   0  0  1  0  0  3  0  0  0  0  0  0
  193.3580  173.7370  142.8430 C   0  0  0  0  0  3  0  0  0  0  0  0
  192.0920  174.0910  142.5390 C   0  0  0  0  0  0  0  0  0  0  0  0
  192.2540  173.0330  140.2520 C   0  0  0  0  0  2  0  0  0  0  0  0
  188.2110  175.6160  141.4440 C   0  0  0  0  0  2  0  0  0  0  0  0
  188.1910  173.0840  140.1350 O   0  0  0  0  0  0  0  0  0  0  0  0
  192.4320  170.6690  137.6240 C   0  0  0  0  0  1  0  0  0  0  0  0
  190.1730  174.1660  140.9250 C   0  0  2  0  0  3  0  0  0  0  0  0
  191.5460  172.0870  139.2710 C   0  0  1  0  0  3  0  0  0  0  0  0
  185.5330  178.7860  145.5900 N   0  0  0  0  0  2  0  0  0  0  0  0
  184.9080  178.0520  146.6440 C   0  0  0  0  0  0  0  0  0  0  0  0
  184.8160  176.6670  146.5820 O   0  0  0  0  0  0  0  0  0  0  0  0
  184.4410  178.6660  147.6380 O   0  0  0  0  0  1  0  0  0  0  0  0
  1 20  1  0  0  0  0
  2 24  1  6  0  0  0
  2 12  1  0  0  0  0
  4  3  1  0  0  0  0
  5 25  2  0  0  0  0
  6 18  1  6  0  0  0
  6 28  1  0  0  0  0
  6  5  1  0  0  0  0
  7 24  1  6  0  0  0
  7 17  1  0  0  0  0
  9 28  1  0  0  0  0
 11  3  2  0  0  0  0
 12 13  1  0  0  0  0
 12  8  1  1  0  0  0
 13 11  1  6  0  0  0
 14 23  1  6  0  0  0
 14 22  1  0  0  0  0
 15 18  1  0  0  0  0
 15  9  1  0  0  0  0
 16  1  1  0  0  0  0
 17  8  1  1  0  0  0
 17 10  1  0  0  0  0
 19 16  1  0  0  0  0
 19  7  1  0  0  0  0
 20 10  1  0  0  0  0
 20 29  1  1  0  0  0
 21  4  1  0  0  0  0
 22 21  2  0  0  0  0
 22 13  1  0  0  0  0
 26  9  1  0  0  0  0
 27  5  1  1  0  0  0
 27 14  1  0  0  0  0
 27  2  1  0  0  0  0
 28 23  1  1  0  0  0
 29 30  1  0  0  0  0
 30 32  1  0  0  0  0
 31 30  2  0  0  0  0
M  END
>  <MODEL>
5

>  <REMARK>
 VINA RESULT:      -7.9      2.665      5.173
  Name = 
  1 active torsions:
  status: ('A' for Active; 'I' for Inactive)
    1  A    between atoms: C_20  and  N_29
                            x       y       z     vdW  Elec       q    Type
                         _______ _______ _______ _____ _____    ______ ____

>  <TORSDO>
F 1

$$$$
=
 OpenBabel11112416283D

 32 37  0  0  1  0  0  0  0  0999 V2000
  191.4570  170.9640  140.3910 C   0  0  0  0  0  2  0  0  0  0  0  0
  189.8330  175.6670  142.9210 C   0  0  1  0  0  3  0  0  0  0  0  0
  191.2870  175.3700  147.5650 C   0  0  0  0  0  3  0  0  0  0  0  0
  190.9390  176.8140  147.7950 C   0  0  0  0  0  2  0  0  0  0  0  0
  187.8420  177.2020  142.3660 C   0  0  0  0  0  0  0  0  0  0  0  0
  186.6510  178.0270  142.7710 C   0  0  1  0  0  3  0  0  0  0  0  0
  190.6170  173.9440  141.2550 C   0  0  1  0  0  3  0  0  0  0  0  0
  191.6820  174.2850  143.4920 C   0  0  0  0  0  2  0  0  0  0  0  0
  185.3890  178.7830  144.6720 N   0  0  0  0  0  0  0  0  0  0  0  0
  192.6740  172.5640  141.9990 C   0  0  0  0  0  2  0  0  0  0  0  0
  191.2590  174.8650  146.3240 C   0  0  0  0  0  3  0  0  0  0  0  0
  190.4500  174.8880  144.0150 N   0  0  1  0  0  0  0  0  0  0  0  0
  190.8690  175.7370  145.1440 C   0  0  1  0  0  3  0  0  0  0  0  0
  188.8920  177.3610  144.5600 C   0  0  2  0  0  3  0  0  0  0  0  0
  184.5190  178.0060  143.7870 C   0  0  0  0  0  2  0  0  0  0  0  0
  190.1510  171.5830  140.6540 N   0  0  0  0  0  2  0  0  0  0  0  0
  191.3710  173.2590  142.4120 C   0  0  2  0  0  3  0  0  0  0  0  0
  185.3840  177.2270  142.8170 C   0  0  0  0  0  2  0  0  0  0  0  0
  190.1280  172.9650  140.1750 C   0  0  0  0  0  2  0  0  0  0  0  0
  192.6540  171.9050  140.6170 C   0  0  1  0  0  3  0  0  0  0  0  0
  189.8860  177.2700  146.8190 C   0  0  0  0  0  3  0  0  0  0  0  0
  189.8130  176.7450  145.5780 C   0  0  0  0  0  0  0  0  0  0  0  0
  187.5630  177.8140  145.1650 C   0  0  0  0  0  2  0  0  0  0  0  0
  189.4150  174.6970  141.8050 C   0  0  0  0  0  2  0  0  0  0  0  0
  188.1960  177.2020  141.1980 O   0  0  0  0  0  0  0  0  0  0  0  0
  185.0070  180.1780  144.5270 C   0  0  0  0  0  1  0  0  0  0  0  0
  188.5790  176.4040  143.4200 C   0  0  2  0  0  3  0  0  0  0  0  0
  186.7530  178.6520  144.1650 C   0  0  1  0  0  3  0  0  0  0  0  0
  193.9020  171.1890  140.4030 N   0  0  0  0  0  2  0  0  0  0  0  0
  194.9670  171.7290  139.6200 C   0  0  0  0  0  0  0  0  0  0  0  0
  194.8550  172.9920  139.0500 O   0  0  0  0  0  0  0  0  0  0  0  0
  196.0170  171.0580  139.4500 O   0  0  0  0  0  1  0  0  0  0  0  0
  1 20  1  0  0  0  0
  1 16  1  0  0  0  0
  2 24  1  6  0  0  0
  2 27  1  0  0  0  0
  2 12  1  0  0  0  0
  3  4  1  0  0  0  0
  5  6  1  0  0  0  0
  6 18  1  1  0  0  0
  6 28  1  0  0  0  0
  7 19  1  6  0  0  0
  7 24  1  0  0  0  0
  7 17  1  0  0  0  0
 11  3  2  0  0  0  0
 12  8  1  6  0  0  0
 12 13  1  0  0  0  0
 13 22  1  0  0  0  0
 13 11  1  1  0  0  0
 14 23  1  1  0  0  0
 14 22  1  0  0  0  0
 15  9  1  0  0  0  0
 17 10  1  6  0  0  0
 17  8  1  0  0  0  0
 18 15  1  0  0  0  0
 19 16  1  0  0  0  0
 20 29  1  1  0  0  0
 20 10  1  0  0  0  0
 21  4  1  0  0  0  0
 22 21  2  0  0  0  0
 25  5  2  0  0  0  0
 26  9  1  0  0  0  0
 27  5  1  6  0  0  0
 27 14  1  0  0  0  0
 28  9  1  0  0  0  0
 28 23  1  1  0  0  0
 30 29  1  0  0  0  0
 31 30  2  0  0  0  0
 32 30  1  0  0  0  0
M  END
>  <MODEL>
6

>  <REMARK>
 VINA RESULT:      -7.8      3.059      8.689
  Name = 
  1 active torsions:
  status: ('A' for Active; 'I' for Inactive)
    1  A    between atoms: C_20  and  N_29
                            x       y       z     vdW  Elec       q    Type
                         _______ _______ _______ _____ _____    ______ ____

>  <TORSDO>
F 1

$$$$
=
 OpenBabel11112416283D

 32 37  0  0  1  0  0  0  0  0999 V2000
  186.9520  177.4040  141.2830 C   0  0  0  0  0  2  0  0  0  0  0  0
  190.6200  174.1740  143.9780 C   0  0  1  0  0  3  0  0  0  0  0  0
  194.2070  177.0810  145.5450 C   0  0  0  0  0  3  0  0  0  0  0  0
  194.7790  175.9700  146.3810 C   0  0  0  0  0  2  0  0  0  0  0  0
  191.1440  171.6760  143.6310 C   0  0  0  0  0  0  0  0  0  0  0  0
  192.1090  170.5320  143.4840 C   0  0  1  0  0  3  0  0  0  0  0  0
  188.5330  175.1870  142.9930 C   0  0  1  0  0  3  0  0  0  0  0  0
  190.1930  176.4850  144.3410 C   0  0  0  0  0  2  0  0  0  0  0  0
  194.4470  169.9710  143.4930 N   0  0  0  0  0  0  0  0  0  0  0  0
  188.1800  177.6930  143.5280 C   0  0  0  0  0  2  0  0  0  0  0  0
  193.0160  176.9250  144.9530 C   0  0  0  0  0  3  0  0  0  0  0  0
  191.2470  175.5120  144.0260 N   0  0  1  0  0  0  0  0  0  0  0  0
  192.2370  175.6320  145.1100 C   0  0  1  0  0  3  0  0  0  0  0  0
  192.7420  173.0720  144.8320 C   0  0  2  0  0  3  0  0  0  0  0  0
  193.8660  169.6170  142.1970 C   0  0  0  0  0  2  0  0  0  0  0  0
  187.8010  176.2730  140.8860 N   0  0  0  0  0  2  0  0  0  0  0  0
  189.1760  176.5710  143.2120 C   0  0  2  0  0  3  0  0  0  0  0  0
  192.5250  170.3090  142.0610 C   0  0  0  0  0  2  0  0  0  0  0  0
  187.5940  175.1310  141.7770 C   0  0  0  0  0  2  0  0  0  0  0  0
  186.8330  177.5930  142.8070 C   0  0  1  0  0  3  0  0  0  0  0  0
  194.3820  174.6270  145.8270 C   0  0  0  0  0  3  0  0  0  0  0  0
  193.2040  174.4580  145.1890 C   0  0  0  0  0  0  0  0  0  0  0  0
  193.8850  172.1730  144.3580 C   0  0  0  0  0  2  0  0  0  0  0  0
  189.6230  174.1410  142.8110 C   0  0  0  0  0  2  0  0  0  0  0  0
  189.9460  171.4430  143.6710 O   0  0  0  0  0  0  0  0  0  0  0  0
  194.6850  168.7280  144.2070 C   0  0  0  0  0  1  0  0  0  0  0  0
  191.6830  173.0860  143.7410 C   0  0  2  0  0  3  0  0  0  0  0  0
  193.4300  170.7100  144.2380 C   0  0  1  0  0  3  0  0  0  0  0  0
  186.0350  178.7730  143.1040 N   0  0  0  0  0  2  0  0  0  0  0  0
  185.0770  178.7990  144.1630 C   0  0  0  0  0  0  0  0  0  0  0  0
  184.8910  177.6870  144.9750 O   0  0  0  0  0  1  0  0  0  0  0  0
  184.3980  179.8390  144.3630 O   0  0  0  0  0  0  0  0  0  0  0  0
  1 20  1  0  0  0  0
  2 24  1  6  0  0  0
  2 12  1  0  0  0  0
  3  4  1  0  0  0  0
  5 25  2  0  0  0  0
  6 18  1  6  0  0  0
  6  5  1  0  0  0  0
  6 28  1  0  0  0  0
  7 19  1  6  0  0  0
  7 17  1  0  0  0  0
  9 26  1  0  0  0  0
  9 28  1  0  0  0  0
 11  3  2  0  0  0  0
 12  8  1  1  0  0  0
 12 13  1  0  0  0  0
 13 11  1  6  0  0  0
 13 22  1  0  0  0  0
 14 23  1  6  0  0  0
 14 22  1  0  0  0  0
 15  9  1  0  0  0  0
 16  1  1  0  0  0  0
 16 19  1  0  0  0  0
 17 10  1  1  0  0  0
 17  8  1  0  0  0  0
 18 15  1  0  0  0  0
 20 29  1  6  0  0  0
 20 10  1  0  0  0  0
 21  4  1  0  0  0  0
 22 21  2  0  0  0  0
 24  7  1  0  0  0  0
 27  5  1  1  0  0  0
 27  2  1  0  0  0  0
 27 14  1  0  0  0  0
 28 23  1  6  0  0  0
 29 30  1  0  0  0  0
 30 32  2  0  0  0  0
 30 31  1  0  0  0  0
M  END
>  <MODEL>
7

>  <REMARK>
 VINA RESULT:      -7.8      2.808      4.593
  Name = 
  1 active torsions:
  status: ('A' for Active; 'I' for Inactive)
    1  A    between atoms: C_20  and  N_29
                            x       y       z     vdW  Elec       q    Type
                         _______ _______ _______ _____ _____    ______ ____

>  <TORSDO>
F 1

$$$$
=
 OpenBabel11112416283D

 32 37  0  0  1  0  0  0  0  0999 V2000
  186.2000  178.8620  143.0820 C   0  0  0  0  0  2  0  0  0  0  0  0
  190.2320  175.0050  142.9470 C   0  0  1  0  0  3  0  0  0  0  0  0
  193.8890  176.6590  145.7140 C   0  0  0  0  0  3  0  0  0  0  0  0
  194.5810  175.3260  145.6450 C   0  0  0  0  0  2  0  0  0  0  0  0
  190.7810  173.2980  141.0980 C   0  0  0  0  0  0  0  0  0  0  0  0
  191.7560  172.5750  140.2090 C   0  0  1  0  0  3  0  0  0  0  0  0
  188.0200  176.2160  142.9460 C   0  0  1  0  0  3  0  0  0  0  0  0
  189.7840  176.5640  144.6860 C   0  0  0  0  0  2  0  0  0  0  0  0
  194.0940  172.3370  139.7060 N   0  0  0  0  0  0  0  0  0  0  0  0
  187.6600  177.8310  144.9350 C   0  0  0  0  0  2  0  0  0  0  0  0
  192.6440  176.7910  145.2380 C   0  0  0  0  0  3  0  0  0  0  0  0
  190.8220  176.0850  143.7650 N   0  0  1  0  0  0  0  0  0  0  0  0
  191.9230  175.6070  144.6190 C   0  0  1  0  0  3  0  0  0  0  0  0
  192.4640  173.8070  142.7870 C   0  0  2  0  0  3  0  0  0  0  0  0
  193.3830  172.7980  138.5120 C   0  0  0  0  0  2  0  0  0  0  0  0
  187.0300  178.2910  142.0140 N   0  0  0  0  0  2  0  0  0  0  0  0
  188.6460  177.2300  143.9250 C   0  0  2  0  0  3  0  0  0  0  0  0
  192.0160  173.3050  138.9260 C   0  0  0  0  0  2  0  0  0  0  0  0
  186.9550  176.8300  142.0240 C   0  0  0  0  0  2  0  0  0  0  0  0
  186.2450  178.0710  144.4030 C   0  0  1  0  0  3  0  0  0  0  0  0
  194.1610  174.5710  144.4100 C   0  0  0  0  0  3  0  0  0  0  0  0
  192.9250  174.7220  143.8890 C   0  0  0  0  0  0  0  0  0  0  0  0
  193.5720  173.4920  141.7810 C   0  0  0  0  0  2  0  0  0  0  0  0
  189.1120  175.6030  142.0810 C   0  0  0  0  0  2  0  0  0  0  0  0
  189.6020  172.9820  141.0700 O   0  0  0  0  0  0  0  0  0  0  0  0
  194.4440  170.9450  139.4830 C   0  0  0  0  0  1  0  0  0  0  0  0
  191.2900  174.3890  142.0150 C   0  0  2  0  0  3  0  0  0  0  0  0
  193.1460  172.3730  140.8170 C   0  0  1  0  0  3  0  0  0  0  0  0
  185.4530  178.7460  145.4190 N   0  0  0  0  0  2  0  0  0  0  0  0
  184.7540  178.0330  146.4400 C   0  0  0  0  0  0  0  0  0  0  0  0
  184.8310  176.6470  146.5130 O   0  0  0  0  0  0  0  0  0  0  0  0
  184.0670  178.6660  147.2820 O   0  0  0  0  0  1  0  0  0  0  0  0
  1 20  1  0  0  0  0
  2 24  1  6  0  0  0
  2 12  1  0  0  0  0
  4  3  1  0  0  0  0
  6 18  1  6  0  0  0
  6 28  1  0  0  0  0
  6  5  1  0  0  0  0
  7 19  1  6  0  0  0
  7 17  1  0  0  0  0
  9 28  1  0  0  0  0
 11  3  2  0  0  0  0
 12 13  1  0  0  0  0
 12  8  1  1  0  0  0
 13 11  1  6  0  0  0
 14 23  1  6  0  0  0
 14 22  1  0  0  0  0
 15 18  1  0  0  0  0
 15  9  1  0  0  0  0
 16 19  1  0  0  0  0
 16  1  1  0  0  0  0
 17  8  1  1  0  0  0
 17 10  1  0  0  0  0
 20 10  1  0  0  0  0
 20 29  1  1  0  0  0
 21  4  1  0  0  0  0
 22 21  2  0  0  0  0
 22 13  1  0  0  0  0
 24  7  1  0  0  0  0
 25  5  2  0  0  0  0
 26  9  1  0  0  0  0
 27  5  1  1  0  0  0
 27 14  1  0  0  0  0
 27  2  1  0  0  0  0
 28 23  1  1  0  0  0
 29 30  1  0  0  0  0
 30 31  2  0  0  0  0
 30 32  1  0  0  0  0
M  END
>  <MODEL>
8

>  <REMARK>
 VINA RESULT:      -7.7      2.355      4.538
  Name = 
  1 active torsions:
  status: ('A' for Active; 'I' for Inactive)
    1  A    between atoms: C_20  and  N_29
                            x       y       z     vdW  Elec       q    Type
                         _______ _______ _______ _____ _____    ______ ____

>  <TORSDO>
F 1

$$$$
=
 OpenBabel11112416283D

 32 37  0  0  1  0  0  0  0  0999 V2000
  195.6870  174.6900  145.6550 C   0  0  0  0  0  2  0  0  0  0  0  0
  190.4640  174.6390  143.6870 C   0  0  1  0  0  3  0  0  0  0  0  0
  190.7220  173.4160  138.9740 C   0  0  0  0  0  3  0  0  0  0  0  0
  189.2290  173.2540  138.9060 C   0  0  0  0  0  2  0  0  0  0  0  0
  188.4170  175.9840  144.4830 C   0  0  0  0  0  0  0  0  0  0  0  0
  187.2000  176.8270  144.2180 C   0  0  1  0  0  3  0  0  0  0  0  0
  192.5220  174.4730  145.1340 C   0  0  1  0  0  3  0  0  0  0  0  0
  192.3170  173.3760  142.8950 C   0  0  0  0  0  2  0  0  0  0  0  0
  185.8580  177.7740  142.4620 N   0  0  0  0  0  0  0  0  0  0  0  0
  194.4250  173.0160  144.1610 C   0  0  0  0  0  2  0  0  0  0  0  0
  191.3200  173.6030  140.1580 C   0  0  0  0  0  3  0  0  0  0  0  0
  191.2800  174.3350  142.4920 N   0  0  1  0  0  0  0  0  0  0  0  0
  190.5040  173.6620  141.4360 C   0  0  1  0  0  3  0  0  0  0  0  0
  188.3820  174.9630  142.2700 C   0  0  2  0  0  3  0  0  0  0  0  0
  186.3890  178.8480  143.3040 C   0  0  0  0  0  2  0  0  0  0  0  0
  194.6380  175.7090  145.5160 N   0  0  0  0  0  2  0  0  0  0  0  0
  193.2900  174.0090  143.8810 C   0  0  2  0  0  3  0  0  0  0  0  0
  187.5150  178.2910  144.1500 C   0  0  0  0  0  2  0  0  0  0  0  0
  193.3910  175.2570  146.1310 C   0  0  0  0  0  2  0  0  0  0  0  0
  195.1850  173.2460  145.4700 C   0  0  1  0  0  3  0  0  0  0  0  0
  188.5540  174.0800  139.9710 C   0  0  0  0  0  3  0  0  0  0  0  0
  189.1570  174.3160  141.1550 C   0  0  0  0  0  0  0  0  0  0  0  0
  187.4440  176.0640  141.7750 C   0  0  0  0  0  2  0  0  0  0  0  0
  191.3520  175.3530  144.7170 C   0  0  0  0  0  2  0  0  0  0  0  0
  188.6660  175.6410  145.6280 O   0  0  0  0  0  0  0  0  0  0  0  0
  184.4410  177.6570  142.7630 C   0  0  0  0  0  1  0  0  0  0  0  0
  189.2960  175.5720  143.3220 C   0  0  2  0  0  3  0  0  0  0  0  0
  186.4960  176.5310  142.8900 C   0  0  1  0  0  3  0  0  0  0  0  0
  196.2990  172.3150  145.5530 N   0  0  0  0  0  2  0  0  0  0  0  0
  196.1200  170.9400  145.8960 C   0  0  0  0  0  0  0  0  0  0  0  0
  194.8500  170.4320  146.1380 O   0  0  0  0  0  1  0  0  0  0  0  0
  197.1210  170.1820  145.9740 O   0  0  0  0  0  0  0  0  0  0  0  0
  2 24  1  1  0  0  0
  3 11  2  0  0  0  0
  4  3  1  0  0  0  0
  4 21  1  0  0  0  0
  5 25  2  0  0  0  0
  6 18  1  6  0  0  0
  6  5  1  0  0  0  0
  7 24  1  6  0  0  0
  7 19  1  0  0  0  0
  9 26  1  0  0  0  0
  9 28  1  0  0  0  0
  9 15  1  0  0  0  0
 10 20  1  0  0  0  0
 12  8  1  1  0  0  0
 12  2  1  0  0  0  0
 13 11  1  6  0  0  0
 13 12  1  0  0  0  0
 14 23  1  6  0  0  0
 14 27  1  0  0  0  0
 15 18  1  0  0  0  0
 16  1  1  0  0  0  0
 16 19  1  0  0  0  0
 17  8  1  6  0  0  0
 17 10  1  0  0  0  0
 17  7  1  0  0  0  0
 20 29  1  6  0  0  0
 20  1  1  0  0  0  0
 21 22  2  0  0  0  0
 22 13  1  0  0  0  0
 22 14  1  0  0  0  0
 27  2  1  0  0  0  0
 27  5  1  1  0  0  0
 28 23  1  6  0  0  0
 28  6  1  0  0  0  0
 29 30  1  0  0  0  0
 30 32  2  0  0  0  0
 30 31  1  0  0  0  0
M  END
>  <MODEL>
9

>  <REMARK>
 VINA RESULT:      -7.6      2.673      8.030
  Name = 
  1 active torsions:
  status: ('A' for Active; 'I' for Inactive)
    1  A    between atoms: C_20  and  N_29
                            x       y       z     vdW  Elec       q    Type
                         _______ _______ _______ _____ _____    ______ ____

>  <TORSDO>
F 1

$$$$
