=
 OpenBabel11112416243D

 30 35  0  0  1  0  0  0  0  0999 V2000
  186.9420  178.1310  143.5740 C   0  0  0  0  0  0  0  0  0  0  0  0
  184.8350  178.8110  144.6190 C   0  0  0  0  0  0  0  0  0  0  0  0
  188.1440  176.1660  147.1130 N   0  0  0  0  0  0  0  0  0  0  0  0
  188.3330  177.5000  143.5970 C   0  0  0  0  0  0  0  0  0  0  0  0
  186.5520  178.6730  142.2380 C   0  0  0  0  0  2  0  0  0  0  0  0
  187.7550  175.7670  140.3940 O   0  0  0  0  0  0  0  0  0  0  0  0
  190.9910  176.3110  143.2270 C   0  0  1  0  0  3  0  0  0  0  0  0
  187.6500  176.6210  141.3160 C   0  0  0  0  0  0  0  0  0  0  0  0
  190.7720  175.7970  144.5660 N   0  0  0  0  0  0  0  0  0  0  0  0
  189.2950  175.7080  146.7240 C   0  0  2  0  0  3  0  0  0  0  0  0
  186.5940  177.5940  141.2630 N   0  0  0  0  0  0  0  0  0  0  0  0
  188.5810  176.6240  142.4270 N   0  0  0  0  0  0  0  0  0  0  0  0
  184.0050  178.8300  145.7420 C   0  0  0  0  0  3  0  0  0  0  0  0
  191.9010  175.0520  145.0790 C   0  0  0  0  0  2  0  0  0  0  0  0
  192.3220  175.7290  142.7750 C   0  0  0  0  0  2  0  0  0  0  0  0
  184.3840  179.4500  143.5110 F   0  0  0  0  0  0  0  0  0  0  0  0
  187.6300  176.8650  145.9820 C   0  0  0  0  0  0  0  0  0  0  0  0
  184.3900  178.2100  146.9250 C   0  0  0  0  0  3  0  0  0  0  0  0
  186.1020  178.1630  144.6640 C   0  0  0  0  0  0  0  0  0  0  0  0
  188.5490  176.7770  144.8890 C   0  0  0  0  0  0  0  0  0  0  0  0
  190.1760  174.9090  147.6180 C   0  0  0  0  0  1  0  0  0  0  0  0
  189.5900  176.0870  145.3290 C   0  0  0  0  0  0  0  0  0  0  0  0
  192.9880  175.1700  144.0240 C   0  0  0  0  0  2  0  0  0  0  0  0
  189.9870  174.9780  141.5070 O   0  0  0  0  0  0  0  0  0  0  0  0
  185.6170  177.5580  146.9980 C   0  0  0  0  0  3  0  0  0  0  0  0
  186.4730  177.5220  145.8910 C   0  0  0  0  0  0  0  0  0  0  0  0
  189.8490  175.9340  142.3200 C   0  0  0  0  0  0  0  0  0  0  0  0
  185.6110  177.5740  140.1870 C   0  0  0  0  0  2  0  0  0  0  0  0
  183.1650  177.9910  140.4650 C   0  0  0  0  0  1  0  0  0  0  0  0
  184.5410  178.6290  140.4180 C   0  0  0  0  0  2  0  0  0  0  0  0
  1  4  2  0  0  0  0
  1 19  1  0  0  0  0
  2 19  2  0  0  0  0
  2 13  1  0  0  0  0
  4 20  1  0  0  0  0
  5  1  1  0  0  0  0
  6  8  2  0  0  0  0
  7 15  1  6  0  0  0
  7  9  1  0  0  0  0
  8 12  1  0  0  0  0
  9 14  1  0  0  0  0
  9 22  1  0  0  0  0
 10  3  1  0  0  0  0
 10 21  1  1  0  0  0
 11  8  1  0  0  0  0
 11  5  1  0  0  0  0
 12  4  1  0  0  0  0
 13 18  2  0  0  0  0
 15 23  1  0  0  0  0
 16  2  1  0  0  0  0
 17  3  2  0  0  0  0
 18 25  1  0  0  0  0
 19 26  1  0  0  0  0
 20 22  2  0  0  0  0
 20 17  1  0  0  0  0
 22 10  1  0  0  0  0
 23 14  1  0  0  0  0
 24 27  2  0  0  0  0
 26 17  1  0  0  0  0
 26 25  2  0  0  0  0
 27 12  1  0  0  0  0
 27  7  1  0  0  0  0
 28 30  1  0  0  0  0
 28 11  1  0  0  0  0
 30 29  1  0  0  0  0
M  END
>  <MODEL>
1

>  <REMARK>
 VINA RESULT:      -9.4      0.000      0.000
  Name = 
  2 active torsions:
  status: ('A' for Active; 'I' for Inactive)
    1  A    between atoms: N_11  and  C_28
    2  A    between atoms: C_28  and  C_30
                            x       y       z     vdW  Elec       q    Type
                         _______ _______ _______ _____ _____    ______ ____

>  <TORSDO>
F 2

$$$$
=
 OpenBabel11112416243D

 30 35  0  0  1  0  0  0  0  0999 V2000
  187.8300  176.3500  145.3440 C   0  0  0  0  0  0  0  0  0  0  0  0
  186.6600  178.0710  146.6350 C   0  0  0  0  0  0  0  0  0  0  0  0
  186.2410  177.8760  141.7410 N   0  0  0  0  0  0  0  0  0  0  0  0
  188.1570  175.6040  144.0520 C   0  0  0  0  0  0  0  0  0  0  0  0
  188.5510  175.8240  146.5400 C   0  0  0  0  0  2  0  0  0  0  0  0
  191.7610  175.5460  144.8330 O   0  0  0  0  0  0  0  0  0  0  0  0
  189.0960  173.9940  141.7850 C   0  0  1  0  0  3  0  0  0  0  0  0
  190.5110  175.5970  145.0000 C   0  0  0  0  0  0  0  0  0  0  0  0
  188.3760  174.9740  140.9960 N   0  0  0  0  0  0  0  0  0  0  0  0
  186.7920  177.0550  140.9000 C   0  0  0  0  0  0  0  0  0  0  0  0
  189.9840  175.9090  146.3000 N   0  0  0  0  0  0  0  0  0  0  0  0
  189.6090  175.3500  143.8940 N   0  0  0  0  0  0  0  0  0  0  0  0
  185.7970  179.1680  146.6650 C   0  0  0  0  0  3  0  0  0  0  0  0
  188.4000  174.6890  139.5770 C   0  0  0  0  0  2  0  0  0  0  0  0
  189.7680  173.0690  140.7800 C   0  0  0  0  0  2  0  0  0  0  0  0
  187.1450  177.6380  147.8260 F   0  0  0  0  0  0  0  0  0  0  0  0
  186.7090  177.4530  143.0190 C   0  0  1  0  0  3  0  0  0  0  0  0
  185.2430  179.6730  145.4930 C   0  0  0  0  0  3  0  0  0  0  0  0
  186.9850  177.4360  145.4030 C   0  0  0  0  0  0  0  0  0  0  0  0
  187.5880  176.3340  142.8760 C   0  0  0  0  0  0  0  0  0  0  0  0
  186.5580  177.1450  139.4320 C   0  0  0  0  0  1  0  0  0  0  0  0
  187.6380  176.0580  141.5830 C   0  0  0  0  0  0  0  0  0  0  0  0
  189.1150  173.3570  139.4360 C   0  0  0  0  0  2  0  0  0  0  0  0
  191.3050  174.6900  142.4030 O   0  0  0  0  0  0  0  0  0  0  0  0
  185.5500  179.0830  144.2720 C   0  0  0  0  0  3  0  0  0  0  0  0
  186.4100  177.9800  144.2080 C   0  0  0  0  0  0  0  0  0  0  0  0
  190.0790  174.6710  142.7050 C   0  0  0  0  0  0  0  0  0  0  0  0
  190.8720  176.2190  147.4140 C   0  0  0  0  0  2  0  0  0  0  0  0
  191.4220  177.8710  149.2030 C   0  0  0  0  0  1  0  0  0  0  0  0
  190.5090  177.5610  148.0310 C   0  0  0  0  0  2  0  0  0  0  0  0
  1 19  1  0  0  0  0
  1  5  1  0  0  0  0
  2 13  1  0  0  0  0
  2 16  1  0  0  0  0
  4  1  2  0  0  0  0
  6  8  2  0  0  0  0
  7 15  1  6  0  0  0
  7 27  1  0  0  0  0
  8 11  1  0  0  0  0
  9 22  1  0  0  0  0
  9  7  1  0  0  0  0
 10 22  1  0  0  0  0
 10  3  2  0  0  0  0
 11  5  1  0  0  0  0
 11 28  1  0  0  0  0
 12  4  1  0  0  0  0
 12  8  1  0  0  0  0
 14  9  1  0  0  0  0
 17  3  1  6  0  0  0
 17 26  1  0  0  0  0
 18 13  2  0  0  0  0
 19  2  2  0  0  0  0
 20 17  1  0  0  0  0
 20  4  1  0  0  0  0
 21 10  1  0  0  0  0
 22 20  2  0  0  0  0
 23 14  1  0  0  0  0
 23 15  1  0  0  0  0
 24 27  2  0  0  0  0
 25 18  1  0  0  0  0
 26 25  2  0  0  0  0
 26 19  1  0  0  0  0
 27 12  1  0  0  0  0
 28 30  1  0  0  0  0
 30 29  1  0  0  0  0
M  END
>  <MODEL>
2

>  <REMARK>
 VINA RESULT:      -8.3      2.137      5.344
  Name = 
  2 active torsions:
  status: ('A' for Active; 'I' for Inactive)
    1  A    between atoms: N_11  and  C_28
    2  A    between atoms: C_28  and  C_30
                            x       y       z     vdW  Elec       q    Type
                         _______ _______ _______ _____ _____    ______ ____

>  <TORSDO>
F 2

$$$$
=
 OpenBabel11112416243D

 30 35  0  0  1  0  0  0  0  0999 V2000
  187.7470  176.5490  144.4430 C   0  0  0  0  0  0  0  0  0  0  0  0
  186.5050  178.3470  145.5480 C   0  0  0  0  0  0  0  0  0  0  0  0
  186.1420  177.6500  140.6950 N   0  0  0  0  0  0  0  0  0  0  0  0
  188.1130  175.6890  143.2340 C   0  0  0  0  0  0  0  0  0  0  0  0
  188.4730  176.1700  145.6910 C   0  0  0  0  0  2  0  0  0  0  0  0
  191.7080  175.8360  144.0410 O   0  0  0  0  0  0  0  0  0  0  0  0
  189.1290  173.8950  141.1460 C   0  0  1  0  0  3  0  0  0  0  0  0
  190.4560  175.8600  144.1940 C   0  0  0  0  0  0  0  0  0  0  0  0
  188.3830  174.7650  140.2580 N   0  0  0  0  0  0  0  0  0  0  0  0
  186.7300  176.7690  139.9440 C   0  0  0  0  0  0  0  0  0  0  0  0
  189.9050  176.2810  145.4530 N   0  0  0  0  0  0  0  0  0  0  0  0
  189.5730  175.4720  143.1120 N   0  0  0  0  0  0  0  0  0  0  0  0
  185.6050  179.4110  145.4620 C   0  0  0  0  0  3  0  0  0  0  0  0
  188.4320  174.3410  138.8750 C   0  0  0  0  0  2  0  0  0  0  0  0
  189.8430  172.8990  140.2440 C   0  0  0  0  0  2  0  0  0  0  0  0
  186.9930  178.0530  146.7790 F   0  0  0  0  0  0  0  0  0  0  0  0
  186.6120  177.3740  142.0120 C   0  0  2  0  0  3  0  0  0  0  0  0
  185.0460  179.7760  144.2420 C   0  0  0  0  0  3  0  0  0  0  0  0
  186.8640  177.6040  144.3870 C   0  0  0  0  0  0  0  0  0  0  0  0
  187.5300  176.2770  141.9880 C   0  0  0  0  0  0  0  0  0  0  0  0
  186.5080  176.7040  138.4730 C   0  0  0  0  0  1  0  0  0  0  0  0
  187.6030  175.8760  140.7290 C   0  0  0  0  0  0  0  0  0  0  0  0
  189.1940  173.0270  138.8730 C   0  0  0  0  0  2  0  0  0  0  0  0
  191.3060  174.7270  141.7060 O   0  0  0  0  0  0  0  0  0  0  0  0
  185.3840  179.0780  143.0880 C   0  0  0  0  0  3  0  0  0  0  0  0
  186.2830  178.0060  143.1410 C   0  0  0  0  0  0  0  0  0  0  0  0
  190.0790  174.6950  142.0000 C   0  0  0  0  0  0  0  0  0  0  0  0
  190.7700  176.7320  146.5360 C   0  0  0  0  0  2  0  0  0  0  0  0
  192.3020  174.8830  147.2200 C   0  0  0  0  0  1  0  0  0  0  0  0
  191.0080  175.6110  147.5350 C   0  0  0  0  0  2  0  0  0  0  0  0
  1  5  1  0  0  0  0
  2 16  1  0  0  0  0
  4  1  2  0  0  0  0
  6  8  2  0  0  0  0
  7 15  1  6  0  0  0
  7 27  1  0  0  0  0
  8 11  1  0  0  0  0
  9 22  1  0  0  0  0
  9  7  1  0  0  0  0
 10  3  2  0  0  0  0
 10 22  1  0  0  0  0
 11  5  1  0  0  0  0
 11 28  1  0  0  0  0
 12  4  1  0  0  0  0
 12  8  1  0  0  0  0
 13  2  1  0  0  0  0
 14  9  1  0  0  0  0
 17  3  1  1  0  0  0
 17 26  1  0  0  0  0
 18 13  2  0  0  0  0
 19  1  1  0  0  0  0
 19  2  2  0  0  0  0
 20 17  1  0  0  0  0
 20  4  1  0  0  0  0
 21 10  1  0  0  0  0
 22 20  2  0  0  0  0
 23 14  1  0  0  0  0
 23 15  1  0  0  0  0
 24 27  2  0  0  0  0
 25 26  2  0  0  0  0
 25 18  1  0  0  0  0
 26 19  1  0  0  0  0
 27 12  1  0  0  0  0
 28 30  1  0  0  0  0
 29 30  1  0  0  0  0
M  END
>  <MODEL>
3

>  <REMARK>
 VINA RESULT:      -8.2      2.094      5.452
  Name = 
  2 active torsions:
  status: ('A' for Active; 'I' for Inactive)
    1  A    between atoms: N_11  and  C_28
    2  A    between atoms: C_28  and  C_30
                            x       y       z     vdW  Elec       q    Type
                         _______ _______ _______ _____ _____    ______ ____

>  <TORSDO>
F 2

$$$$
=
 OpenBabel11112416243D

 30 35  0  0  1  0  0  0  0  0999 V2000
  188.6410  176.4530  143.1820 C   0  0  0  0  0  0  0  0  0  0  0  0
  186.2550  176.9040  143.4930 C   0  0  0  0  0  0  0  0  0  0  0  0
  189.3920  177.2380  147.2630 N   0  0  0  0  0  0  0  0  0  0  0  0
  190.0920  176.4040  143.6580 C   0  0  0  0  0  0  0  0  0  0  0  0
  188.4600  176.0210  141.7640 C   0  0  0  0  0  2  0  0  0  0  0  0
  190.6500  173.1220  142.0720 O   0  0  0  0  0  0  0  0  0  0  0  0
  192.9550  176.0980  144.2240 C   0  0  1  0  0  3  0  0  0  0  0  0
  190.1550  174.2600  142.3030 C   0  0  0  0  0  0  0  0  0  0  0  0
  192.5500  176.3650  145.5910 N   0  0  0  0  0  0  0  0  0  0  0  0
  190.6720  177.0230  147.2900 C   0  0  2  0  0  3  0  0  0  0  0  0
  188.9560  174.6600  141.6200 N   0  0  0  0  0  0  0  0  0  0  0  0
  190.7830  175.1590  143.2500 N   0  0  0  0  0  0  0  0  0  0  0  0
  185.2050  177.2780  144.3340 C   0  0  0  0  0  3  0  0  0  0  0  0
  193.6650  176.4160  146.5130 C   0  0  0  0  0  2  0  0  0  0  0  0
  194.4470  175.8080  144.2850 C   0  0  0  0  0  2  0  0  0  0  0  0
  185.9430  176.6540  142.1960 F   0  0  0  0  0  0  0  0  0  0  0  0
  189.0130  177.0020  145.9090 C   0  0  0  0  0  0  0  0  0  0  0  0
  185.4320  177.5650  145.6760 C   0  0  0  0  0  3  0  0  0  0  0  0
  187.5860  176.8160  143.9890 C   0  0  0  0  0  0  0  0  0  0  0  0
  190.1560  176.6180  145.1380 C   0  0  0  0  0  0  0  0  0  0  0  0
  191.4750  177.1660  148.5350 C   0  0  0  0  0  1  0  0  0  0  0  0
  191.1910  176.6440  145.9620 C   0  0  0  0  0  0  0  0  0  0  0  0
  194.9130  176.2650  145.6600 C   0  0  0  0  0  2  0  0  0  0  0  0
  192.6840  173.8090  143.5690 O   0  0  0  0  0  0  0  0  0  0  0  0
  186.7200  177.4770  146.1940 C   0  0  0  0  0  3  0  0  0  0  0  0
  187.7940  177.1060  145.3770 C   0  0  0  0  0  0  0  0  0  0  0  0
  192.1600  174.9550  143.6490 C   0  0  0  0  0  0  0  0  0  0  0  0
  188.2740  173.7510  140.7080 C   0  0  0  0  0  2  0  0  0  0  0  0
  189.6890  173.4160  138.6790 C   0  0  0  0  0  1  0  0  0  0  0  0
  188.5070  174.1660  139.2630 C   0  0  0  0  0  2  0  0  0  0  0  0
  1  4  2  0  0  0  0
  1 19  1  0  0  0  0
  2 19  2  0  0  0  0
  2 13  1  0  0  0  0
  3 10  1  0  0  0  0
  4 20  1  0  0  0  0
  5  1  1  0  0  0  0
  6  8  2  0  0  0  0
  7 15  1  1  0  0  0
  7  9  1  0  0  0  0
  8 12  1  0  0  0  0
  9 22  1  0  0  0  0
  9 14  1  0  0  0  0
 10 21  1  6  0  0  0
 11  5  1  0  0  0  0
 11  8  1  0  0  0  0
 12 27  1  0  0  0  0
 12  4  1  0  0  0  0
 13 18  2  0  0  0  0
 15 23  1  0  0  0  0
 16  2  1  0  0  0  0
 17  3  2  0  0  0  0
 18 25  1  0  0  0  0
 19 26  1  0  0  0  0
 20 17  1  0  0  0  0
 20 22  2  0  0  0  0
 22 10  1  0  0  0  0
 23 14  1  0  0  0  0
 24 27  2  0  0  0  0
 26 17  1  0  0  0  0
 26 25  2  0  0  0  0
 27  7  1  0  0  0  0
 28 11  1  0  0  0  0
 29 30  1  0  0  0  0
 30 28  1  0  0  0  0
M  END
>  <MODEL>
4

>  <REMARK>
 VINA RESULT:      -8.0      2.189      3.215
  Name = 
  2 active torsions:
  status: ('A' for Active; 'I' for Inactive)
    1  A    between atoms: N_11  and  C_28
    2  A    between atoms: C_28  and  C_30
                            x       y       z     vdW  Elec       q    Type
                         _______ _______ _______ _____ _____    ______ ____

>  <TORSDO>
F 2

$$$$
=
 OpenBabel11112416243D

 30 35  0  0  1  0  0  0  0  0999 V2000
  189.2600  174.7170  144.4330 C   0  0  0  0  0  0  0  0  0  0  0  0
  188.6590  176.0530  146.3950 C   0  0  0  0  0  0  0  0  0  0  0  0
  186.9310  177.2040  141.9390 N   0  0  0  0  0  0  0  0  0  0  0  0
  189.1530  174.3400  142.9560 C   0  0  0  0  0  0  0  0  0  0  0  0
  190.2180  173.8660  145.2010 C   0  0  0  0  0  2  0  0  0  0  0  0
  192.8090  173.9760  142.6390 O   0  0  0  0  0  0  0  0  0  0  0  0
  189.2830  173.3800  140.1860 C   0  0  1  0  0  3  0  0  0  0  0  0
  191.6610  174.0140  143.1620 C   0  0  0  0  0  0  0  0  0  0  0  0
  188.4820  174.5570  139.9090 N   0  0  0  0  0  0  0  0  0  0  0  0
  187.1500  176.6270  140.7970 C   0  0  0  0  0  0  0  0  0  0  0  0
  191.5350  173.9750  144.5930 N   0  0  0  0  0  0  0  0  0  0  0  0
  190.4760  174.1000  142.3330 N   0  0  0  0  0  0  0  0  0  0  0  0
  187.9520  177.1240  146.9450 C   0  0  0  0  0  3  0  0  0  0  0  0
  188.0970  174.6670  138.5180 C   0  0  0  0  0  2  0  0  0  0  0  0
  189.5650  172.7450  138.8320 C   0  0  0  0  0  2  0  0  0  0  0  0
  189.3980  175.3020  147.2490 F   0  0  0  0  0  0  0  0  0  0  0  0
  187.6780  176.4380  142.8810 C   0  0  1  0  0  3  0  0  0  0  0  0
  187.1600  177.9420  146.1470 C   0  0  0  0  0  3  0  0  0  0  0  0
  188.5770  175.7680  145.0020 C   0  0  0  0  0  0  0  0  0  0  0  0
  188.3680  175.3760  142.2160 C   0  0  0  0  0  0  0  0  0  0  0  0
  186.5440  177.1190  139.5290 C   0  0  0  0  0  1  0  0  0  0  0  0
  188.0430  175.4610  140.9360 C   0  0  0  0  0  0  0  0  0  0  0  0
  188.6090  173.4040  137.8470 C   0  0  0  0  0  2  0  0  0  0  0  0
  191.6360  173.8240  140.3050 O   0  0  0  0  0  0  0  0  0  0  0  0
  187.0670  177.6970  144.7810 C   0  0  0  0  0  3  0  0  0  0  0  0
  187.7630  176.6310  144.1990 C   0  0  0  0  0  0  0  0  0  0  0  0
  190.5400  173.7570  140.9280 C   0  0  0  0  0  0  0  0  0  0  0  0
  192.7150  173.9480  145.4480 C   0  0  0  0  0  2  0  0  0  0  0  0
  192.7280  176.3750  146.0340 C   0  0  0  0  0  1  0  0  0  0  0  0
  192.5850  174.9630  146.5730 C   0  0  0  0  0  2  0  0  0  0  0  0
  1 19  1  0  0  0  0
  1  5  1  0  0  0  0
  2 13  1  0  0  0  0
  2 16  1  0  0  0  0
  4  1  2  0  0  0  0
  6  8  2  0  0  0  0
  7 15  1  6  0  0  0
  7 27  1  0  0  0  0
  8 11  1  0  0  0  0
  9  7  1  0  0  0  0
  9 22  1  0  0  0  0
 10 22  1  0  0  0  0
 10  3  2  0  0  0  0
 11  5  1  0  0  0  0
 11 28  1  0  0  0  0
 12  4  1  0  0  0  0
 12  8  1  0  0  0  0
 14  9  1  0  0  0  0
 17  3  1  6  0  0  0
 17 26  1  0  0  0  0
 18 13  2  0  0  0  0
 19  2  2  0  0  0  0
 20 17  1  0  0  0  0
 20  4  1  0  0  0  0
 21 10  1  0  0  0  0
 22 20  2  0  0  0  0
 23 14  1  0  0  0  0
 23 15  1  0  0  0  0
 24 27  2  0  0  0  0
 25 18  1  0  0  0  0
 26 25  2  0  0  0  0
 26 19  1  0  0  0  0
 27 12  1  0  0  0  0
 28 30  1  0  0  0  0
 29 30  1  0  0  0  0
M  END
>  <MODEL>
5

>  <REMARK>
 VINA RESULT:      -7.9      2.630      5.961
  Name = 
  2 active torsions:
  status: ('A' for Active; 'I' for Inactive)
    1  A    between atoms: N_11  and  C_28
    2  A    between atoms: C_28  and  C_30
                            x       y       z     vdW  Elec       q    Type
                         _______ _______ _______ _____ _____    ______ ____

>  <TORSDO>
F 2

$$$$
=
 OpenBabel11112416243D

 30 35  0  0  1  0  0  0  0  0999 V2000
  187.2260  177.0600  141.8010 C   0  0  0  0  0  0  0  0  0  0  0  0
  185.1570  177.5920  140.6040 C   0  0  0  0  0  0  0  0  0  0  0  0
  185.4870  178.2330  145.4670 N   0  0  0  0  0  0  0  0  0  0  0  0
  188.1090  177.0290  143.0470 C   0  0  2  0  0  3  0  0  0  0  0  0
  187.8830  176.4930  140.5860 C   0  0  0  0  0  2  0  0  0  0  0  0
  189.2420  173.5940  142.3290 O   0  0  0  0  0  0  0  0  0  0  0  0
  190.0560  176.7200  145.2210 C   0  0  1  0  0  3  0  0  0  0  0  0
  188.7950  174.7590  142.1430 C   0  0  0  0  0  0  0  0  0  0  0  0
  188.9460  177.1310  146.0590 N   0  0  0  0  0  0  0  0  0  0  0  0
  186.4850  177.9950  146.2620 C   0  0  0  0  0  0  0  0  0  0  0  0
  188.2620  175.1150  140.8570 N   0  0  0  0  0  0  0  0  0  0  0  0
  188.8100  175.7340  143.2150 N   0  0  0  0  0  0  0  0  0  0  0  0
  183.8450  178.0700  140.6300 C   0  0  0  0  0  3  0  0  0  0  0  0
  189.3040  177.2490  147.4570 C   0  0  0  0  0  2  0  0  0  0  0  0
  191.1990  176.4060  146.1750 C   0  0  0  0  0  2  0  0  0  0  0  0
  185.6510  177.2190  139.3960 F   0  0  0  0  0  0  0  0  0  0  0  0
  185.9620  177.8710  144.1720 C   0  0  0  0  0  0  0  0  0  0  0  0
  183.2610  178.4840  141.8220 C   0  0  0  0  0  3  0  0  0  0  0  0
  185.9300  177.5250  141.7980 C   0  0  0  0  0  0  0  0  0  0  0  0
  187.3050  177.3880  144.2580 C   0  0  0  0  0  0  0  0  0  0  0  0
  186.4090  178.2440  147.7280 C   0  0  0  0  0  1  0  0  0  0  0  0
  187.6550  177.4740  145.5310 C   0  0  0  0  0  0  0  0  0  0  0  0
  190.7990  176.9880  147.5240 C   0  0  0  0  0  2  0  0  0  0  0  0
  190.0490  174.3830  144.6900 O   0  0  0  0  0  0  0  0  0  0  0  0
  183.9850  178.4210  143.0080 C   0  0  0  0  0  3  0  0  0  0  0  0
  185.3020  177.9470  143.0150 C   0  0  0  0  0  0  0  0  0  0  0  0
  189.6680  175.5420  144.3660 C   0  0  0  0  0  0  0  0  0  0  0  0
  188.1810  174.1330  139.7820 C   0  0  0  0  0  2  0  0  0  0  0  0
  188.6530  174.0920  137.3310 C   0  0  0  0  0  1  0  0  0  0  0  0
  187.9280  174.8180  138.4480 C   0  0  0  0  0  2  0  0  0  0  0  0
  2 13  2  0  0  0  0
  2 19  1  0  0  0  0
  3 10  2  0  0  0  0
  4  1  1  6  0  0  0
  4 12  1  0  0  0  0
  4 20  1  0  0  0  0
  5 11  1  0  0  0  0
  5  1  1  0  0  0  0
  7  9  1  0  0  0  0
  7 15  1  1  0  0  0
  8  6  2  0  0  0  0
  8 12  1  0  0  0  0
  9 14  1  0  0  0  0
 10 21  1  0  0  0  0
 11  8  1  0  0  0  0
 12 27  1  0  0  0  0
 13 18  1  0  0  0  0
 14 23  1  0  0  0  0
 15 23  1  0  0  0  0
 16  2  1  0  0  0  0
 17 20  1  0  0  0  0
 17  3  1  0  0  0  0
 18 25  2  0  0  0  0
 19  1  2  0  0  0  0
 19 26  1  0  0  0  0
 20 22  2  0  0  0  0
 22  9  1  0  0  0  0
 22 10  1  0  0  0  0
 25 26  1  0  0  0  0
 26 17  2  0  0  0  0
 27 24  2  0  0  0  0
 27  7  1  0  0  0  0
 28 11  1  0  0  0  0
 29 30  1  0  0  0  0
 30 28  1  0  0  0  0
M  END
>  <MODEL>
6

>  <REMARK>
 VINA RESULT:      -7.6      2.129      3.757
  Name = 
  2 active torsions:
  status: ('A' for Active; 'I' for Inactive)
    1  A    between atoms: N_11  and  C_28
    2  A    between atoms: C_28  and  C_30
                            x       y       z     vdW  Elec       q    Type
                         _______ _______ _______ _____ _____    ______ ____

>  <TORSDO>
F 2

$$$$
=
 OpenBabel11112416243D

 30 35  0  0  1  0  0  0  0  0999 V2000
  186.8700  176.7590  144.4170 C   0  0  0  0  0  0  0  0  0  0  0  0
  185.5030  177.2910  142.4570 C   0  0  0  0  0  0  0  0  0  0  0  0
  190.4010  177.0470  142.1190 N   0  0  0  0  0  0  0  0  0  0  0  0
  188.1940  176.4390  145.1090 C   0  0  2  0  0  3  0  0  0  0  0  0
  185.6980  176.7720  145.3430 C   0  0  0  0  0  2  0  0  0  0  0  0
  187.4140  178.6650  147.9430 O   0  0  0  0  0  0  0  0  0  0  0  0
  190.5310  175.8790  146.7930 C   0  0  1  0  0  3  0  0  0  0  0  0
  187.2450  177.9020  146.9530 C   0  0  0  0  0  0  0  0  0  0  0  0
  191.2750  176.2020  145.5910 N   0  0  0  0  0  0  0  0  0  0  0  0
  191.2780  176.7960  143.0430 C   0  0  0  0  0  0  0  0  0  0  0  0
  185.9330  177.7590  146.3850 N   0  0  0  0  0  0  0  0  0  0  0  0
  188.3630  177.1750  146.3840 N   0  0  0  0  0  0  0  0  0  0  0  0
  185.4240  177.5840  141.0940 C   0  0  0  0  0  3  0  0  0  0  0  0
  192.7050  176.0480  145.7510 C   0  0  0  0  0  2  0  0  0  0  0  0
  191.5760  175.6310  147.8710 C   0  0  0  0  0  2  0  0  0  0  0  0
  184.3330  177.2260  143.1400 F   0  0  0  0  0  0  0  0  0  0  0  0
  189.1430  176.9750  142.7860 C   0  0  0  0  0  0  0  0  0  0  0  0
  186.5720  177.6610  140.3130 C   0  0  0  0  0  3  0  0  0  0  0  0
  186.7620  177.0540  143.0770 C   0  0  0  0  0  0  0  0  0  0  0  0
  189.3360  176.6790  144.1720 C   0  0  0  0  0  0  0  0  0  0  0  0
  192.7400  176.7680  142.7640 C   0  0  0  0  0  1  0  0  0  0  0  0
  190.6400  176.5450  144.3490 C   0  0  0  0  0  0  0  0  0  0  0  0
  192.9060  175.4830  147.1470 C   0  0  0  0  0  2  0  0  0  0  0  0
  189.8810  177.8010  148.0690 O   0  0  0  0  0  0  0  0  0  0  0  0
  187.8190  177.4450  140.8900 C   0  0  0  0  0  3  0  0  0  0  0  0
  187.9320  177.1480  142.2530 C   0  0  0  0  0  0  0  0  0  0  0  0
  189.5810  176.9950  147.1450 C   0  0  0  0  0  0  0  0  0  0  0  0
  184.8060  178.5250  146.9030 C   0  0  0  0  0  2  0  0  0  0  0  0
  184.7550  179.9120  144.8290 C   0  0  0  0  0  1  0  0  0  0  0  0
  183.9390  179.0400  145.7650 C   0  0  0  0  0  2  0  0  0  0  0  0
  1  4  1  0  0  0  0
  1  5  1  0  0  0  0
  2 19  1  0  0  0  0
  2 16  1  0  0  0  0
  3 17  1  0  0  0  0
  3 10  2  0  0  0  0
  4 20  1  6  0  0  0
  4 12  1  0  0  0  0
  5 11  1  0  0  0  0
  7 27  1  0  0  0  0
  7 15  1  1  0  0  0
  8  6  2  0  0  0  0
  9 14  1  0  0  0  0
  9  7  1  0  0  0  0
 10 22  1  0  0  0  0
 11 28  1  0  0  0  0
 11  8  1  0  0  0  0
 12  8  1  0  0  0  0
 12 27  1  0  0  0  0
 13  2  2  0  0  0  0
 14 23  1  0  0  0  0
 17 20  1  0  0  0  0
 18 25  2  0  0  0  0
 18 13  1  0  0  0  0
 19  1  2  0  0  0  0
 20 22  2  0  0  0  0
 21 10  1  0  0  0  0
 22  9  1  0  0  0  0
 23 15  1  0  0  0  0
 25 26  1  0  0  0  0
 26 17  2  0  0  0  0
 26 19  1  0  0  0  0
 27 24  2  0  0  0  0
 29 30  1  0  0  0  0
 30 28  1  0  0  0  0
M  END
>  <MODEL>
7

>  <REMARK>
 VINA RESULT:      -7.6      2.468      4.614
  Name = 
  2 active torsions:
  status: ('A' for Active; 'I' for Inactive)
    1  A    between atoms: N_11  and  C_28
    2  A    between atoms: C_28  and  C_30
                            x       y       z     vdW  Elec       q    Type
                         _______ _______ _______ _____ _____    ______ ____

>  <TORSDO>
F 2

$$$$
=
 OpenBabel11112416243D

 30 35  0  0  1  0  0  0  0  0999 V2000
  188.8820  175.2850  145.4620 C   0  0  0  0  0  0  0  0  0  0  0  0
  187.5450  177.2760  145.9570 C   0  0  0  0  0  0  0  0  0  0  0  0
  187.9010  175.5620  141.3640 N   0  0  0  0  0  0  0  0  0  0  0  0
  189.3990  174.1880  144.5330 C   0  0  0  0  0  0  0  0  0  0  0  0
  189.3980  175.1810  146.8590 C   0  0  0  0  0  2  0  0  0  0  0  0
  192.8330  174.5070  145.8380 O   0  0  0  0  0  0  0  0  0  0  0  0
  190.6620  171.9910  143.0530 C   0  0  1  0  0  3  0  0  0  0  0  0
  191.5730  174.5610  145.7870 C   0  0  0  0  0  0  0  0  0  0  0  0
  190.0870  172.6530  141.8970 N   0  0  0  0  0  0  0  0  0  0  0  0
  188.5660  174.5420  140.9150 C   0  0  0  0  0  0  0  0  0  0  0  0
  190.8520  175.2400  146.8280 N   0  0  0  0  0  0  0  0  0  0  0  0
  190.8530  173.9510  144.6870 N   0  0  0  0  0  0  0  0  0  0  0  0
  186.7040  178.2970  145.5110 C   0  0  0  0  0  3  0  0  0  0  0  0
  190.3310  171.9440  140.6590 C   0  0  0  0  0  2  0  0  0  0  0  0
  191.4710  170.8270  142.5020 C   0  0  0  0  0  2  0  0  0  0  0  0
  187.8310  177.2520  147.2830 F   0  0  0  0  0  0  0  0  0  0  0  0
  188.1560  175.5730  142.7660 C   0  0  1  0  0  3  0  0  0  0  0  0
  186.3480  178.3940  144.1700 C   0  0  0  0  0  3  0  0  0  0  0  0
  188.0530  176.3040  145.0490 C   0  0  0  0  0  0  0  0  0  0  0  0
  189.0320  174.4980  143.1160 C   0  0  0  0  0  0  0  0  0  0  0  0
  188.5680  174.1660  139.4750 C   0  0  0  0  0  1  0  0  0  0  0  0
  189.2810  173.8380  141.9970 C   0  0  0  0  0  0  0  0  0  0  0  0
  191.0420  170.6600  141.0510 C   0  0  0  0  0  2  0  0  0  0  0  0
  192.7540  172.9250  143.7550 O   0  0  0  0  0  0  0  0  0  0  0  0
  186.8350  177.4670  143.2560 C   0  0  0  0  0  3  0  0  0  0  0  0
  187.6800  176.4310  143.6710 C   0  0  0  0  0  0  0  0  0  0  0  0
  191.4960  172.9560  143.8550 C   0  0  0  0  0  0  0  0  0  0  0  0
  191.5580  175.9120  147.9120 C   0  0  0  0  0  2  0  0  0  0  0  0
  191.5660  177.9150  149.4030 C   0  0  0  0  0  1  0  0  0  0  0  0
  190.9950  177.3070  148.1350 C   0  0  0  0  0  2  0  0  0  0  0  0
  1  5  1  0  0  0  0
  2 16  1  0  0  0  0
  4 12  1  0  0  0  0
  4  1  2  0  0  0  0
  7 15  1  6  0  0  0
  7 27  1  0  0  0  0
  8  6  2  0  0  0  0
  8 11  1  0  0  0  0
  9 22  1  0  0  0  0
  9  7  1  0  0  0  0
 10  3  2  0  0  0  0
 10 22  1  0  0  0  0
 11  5  1  0  0  0  0
 11 28  1  0  0  0  0
 12  8  1  0  0  0  0
 13  2  1  0  0  0  0
 14 23  1  0  0  0  0
 14  9  1  0  0  0  0
 17  3  1  6  0  0  0
 17 20  1  0  0  0  0
 17 26  1  0  0  0  0
 18 13  2  0  0  0  0
 19  1  1  0  0  0  0
 19  2  2  0  0  0  0
 20  4  1  0  0  0  0
 21 10  1  0  0  0  0
 22 20  2  0  0  0  0
 23 15  1  0  0  0  0
 24 27  2  0  0  0  0
 25 26  2  0  0  0  0
 25 18  1  0  0  0  0
 26 19  1  0  0  0  0
 27 12  1  0  0  0  0
 28 30  1  0  0  0  0
 30 29  1  0  0  0  0
M  END
>  <MODEL>
8

>  <REMARK>
 VINA RESULT:      -7.6      2.939      5.815
  Name = 
  2 active torsions:
  status: ('A' for Active; 'I' for Inactive)
    1  A    between atoms: N_11  and  C_28
    2  A    between atoms: C_28  and  C_30
                            x       y       z     vdW  Elec       q    Type
                         _______ _______ _______ _____ _____    ______ ____

>  <TORSDO>
F 2

$$$$
=
 OpenBabel11112416243D

 30 35  0  0  1  0  0  0  0  0999 V2000
  189.4850  174.6020  143.7910 C   0  0  0  0  0  0  0  0  0  0  0  0
  191.7500  173.7650  143.3880 C   0  0  0  0  0  0  0  0  0  0  0  0
  190.8670  177.0080  146.9750 N   0  0  0  0  0  0  0  0  0  0  0  0
  188.4470  175.3990  144.5810 C   0  0  2  0  0  3  0  0  0  0  0  0
  188.9220  173.8990  142.6010 C   0  0  0  0  0  2  0  0  0  0  0  0
  186.9390  176.7540  141.5010 O   0  0  0  0  0  0  0  0  0  0  0  0
  186.2020  176.8660  145.7720 C   0  0  1  0  0  3  0  0  0  0  0  0
  187.5700  175.9790  142.2720 C   0  0  0  0  0  0  0  0  0  0  0  0
  187.2370  177.4660  146.5910 N   0  0  0  0  0  0  0  0  0  0  0  0
  189.7470  177.5660  147.3230 C   0  0  0  0  0  0  0  0  0  0  0  0
  188.3160  174.8840  141.7170 N   0  0  0  0  0  0  0  0  0  0  0  0
  187.5510  176.1900  143.7050 N   0  0  0  0  0  0  0  0  0  0  0  0
  193.1010  173.7450  143.7390 C   0  0  0  0  0  3  0  0  0  0  0  0
  186.7160  178.3880  147.5780 C   0  0  0  0  0  2  0  0  0  0  0  0
  184.9090  177.5640  146.1650 C   0  0  0  0  0  2  0  0  0  0  0  0
  191.3740  172.9790  142.3480 F   0  0  0  0  0  0  0  0  0  0  0  0
  190.5230  176.1530  145.8880 C   0  0  0  0  0  0  0  0  0  0  0  0
  193.5750  174.5110  144.7990 C   0  0  0  0  0  3  0  0  0  0  0  0
  190.8230  174.5650  144.1140 C   0  0  0  0  0  0  0  0  0  0  0  0
  189.1240  176.2550  145.6040 C   0  0  0  0  0  0  0  0  0  0  0  0
  189.6610  178.5440  148.4420 C   0  0  0  0  0  1  0  0  0  0  0  0
  188.6230  177.1030  146.4870 C   0  0  0  0  0  0  0  0  0  0  0  0
  185.2040  178.3090  147.4590 C   0  0  0  0  0  2  0  0  0  0  0  0
  185.9440  177.9070  143.6290 O   0  0  0  0  0  0  0  0  0  0  0  0
  192.6970  175.3120  145.5220 C   0  0  0  0  0  3  0  0  0  0  0  0
  191.3360  175.3530  145.1950 C   0  0  0  0  0  0  0  0  0  0  0  0
  186.5280  177.0180  144.3090 C   0  0  0  0  0  0  0  0  0  0  0  0
  188.3980  174.6870  140.2750 C   0  0  0  0  0  2  0  0  0  0  0  0
  188.3380  172.5590  138.9710 C   0  0  0  0  0  1  0  0  0  0  0  0
  189.1370  173.3990  139.9500 C   0  0  0  0  0  2  0  0  0  0  0  0
  1 19  2  0  0  0  0
  2 13  2  0  0  0  0
  2 19  1  0  0  0  0
  3 10  2  0  0  0  0
  4  1  1  6  0  0  0
  4 20  1  0  0  0  0
  5  1  1  0  0  0  0
  6  8  2  0  0  0  0
  7 15  1  6  0  0  0
  7  9  1  0  0  0  0
  8 12  1  0  0  0  0
  9 14  1  0  0  0  0
 10 21  1  0  0  0  0
 11  8  1  0  0  0  0
 11  5  1  0  0  0  0
 12 27  1  0  0  0  0
 12  4  1  0  0  0  0
 13 18  1  0  0  0  0
 15 23  1  0  0  0  0
 16  2  1  0  0  0  0
 17  3  1  0  0  0  0
 18 25  2  0  0  0  0
 19 26  1  0  0  0  0
 20 17  1  0  0  0  0
 20 22  2  0  0  0  0
 22  9  1  0  0  0  0
 22 10  1  0  0  0  0
 23 14  1  0  0  0  0
 24 27  2  0  0  0  0
 26 25  1  0  0  0  0
 26 17  2  0  0  0  0
 27  7  1  0  0  0  0
 28 11  1  0  0  0  0
 29 30  1  0  0  0  0
 30 28  1  0  0  0  0
M  END
>  <MODEL>
9

>  <REMARK>
 VINA RESULT:      -7.4      2.796      5.854
  Name = 
  2 active torsions:
  status: ('A' for Active; 'I' for Inactive)
    1  A    between atoms: N_11  and  C_28
    2  A    between atoms: C_28  and  C_30
                            x       y       z     vdW  Elec       q    Type
                         _______ _______ _______ _____ _____    ______ ____

>  <TORSDO>
F 2

$$$$
