=
 OpenBabel11112416333D

 32 37  0  0  1  0  0  0  0  0999 V2000
  191.9040  174.5010  143.9870 C   0  0  0  0  0  2  0  0  0  0  0  0
  187.4510  177.0910  143.3850 C   0  0  0  0  0  0  0  0  0  0  0  0
  186.0520  177.8400  147.9780 C   0  0  0  0  0  3  0  0  0  0  0  0
  184.8020  178.4760  147.5180 C   0  0  0  0  0  3  0  0  0  0  0  0
  185.8310  177.4800  141.5020 C   0  0  0  0  0  0  0  0  0  0  0  0
  184.4490  177.8390  141.2140 C   0  0  0  0  0  0  0  0  0  0  0  0
  189.7980  176.3110  142.9260 C   0  0  1  0  0  3  0  0  0  0  0  0
  189.1700  176.9310  145.2420 C   0  0  0  0  0  2  0  0  0  0  0  0
  182.3420  178.5270  141.5490 C   0  0  0  0  0  0  0  0  0  0  0  0
  191.3030  175.6300  144.8310 C   0  0  2  0  0  3  0  0  0  0  0  0
  187.0510  177.5900  147.1250 C   0  0  0  0  0  3  0  0  0  0  0  0
  187.7970  177.2010  144.7940 N   0  0  0  0  0  0  0  0  0  0  0  0
  186.9900  178.0460  145.6860 C   0  0  1  0  0  3  0  0  0  0  0  0
  185.2450  178.0870  143.9260 C   0  0  0  0  0  0  0  0  0  0  0  0
  182.5120  178.2840  140.2870 N   0  0  0  0  0  0  0  0  0  0  0  0
  191.6130  174.6430  142.5110 C   0  0  0  0  0  3  0  0  0  0  0  0
  189.8560  175.8760  144.3870 C   0  0  2  0  0  3  0  0  0  0  0  0
  183.8380  177.8510  140.0740 N   0  0  0  0  0  0  0  0  0  0  0  0
  190.6300  175.4250  142.0360 C   0  0  0  0  0  3  0  0  0  0  0  0
  184.5610  178.6440  146.2150 C   0  0  0  0  0  3  0  0  0  0  0  0
  185.5660  178.2210  145.2170 C   0  0  0  0  0  0  0  0  0  0  0  0
  183.8980  178.3990  143.4940 N   0  0  0  0  0  0  0  0  0  0  0  0
  188.3540  176.3080  142.4620 C   0  0  0  0  0  2  0  0  0  0  0  0
  186.6120  177.1620  140.5650 O   0  0  0  0  0  0  0  0  0  0  0  0
  181.1220  178.9910  142.1150 N   0  0  0  0  0  1  0  0  0  0  0  0
  186.2540  177.5510  142.9400 C   0  0  0  0  0  0  0  0  0  0  0  0
  183.5710  178.2620  142.2500 C   0  0  0  0  0  0  0  0  0  0  0  0
  192.1630  176.8940  144.7560 C   0  0  0  0  0  2  0  0  0  0  0  0
  193.5430  176.5560  144.7530 O   0  0  0  0  0  0  0  0  0  0  0  0
  194.2690  176.3480  145.9280 C   0  0  0  0  0  0  0  0  0  0  0  0
  195.1340  175.1450  146.1120 C   0  0  0  0  0  1  0  0  0  0  0  0
  194.2020  177.1990  146.8530 O   0  0  0  0  0  0  0  0  0  0  0  0
  1 10  1  0  0  0  0
  2 12  1  0  0  0  0
  4  3  1  0  0  0  0
  5 26  1  0  0  0  0
  6  5  1  0  0  0  0
  6 27  1  0  0  0  0
  7 19  1  6  0  0  0
  7 17  1  0  0  0  0
  9 25  1  0  0  0  0
  9 27  1  0  0  0  0
 10 28  1  6  0  0  0
 11  3  2  0  0  0  0
 12  8  1  0  0  0  0
 12 13  1  0  0  0  0
 13 11  1  1  0  0  0
 14 21  2  0  0  0  0
 15  9  2  0  0  0  0
 16  1  1  0  0  0  0
 17 10  1  0  0  0  0
 17  8  1  1  0  0  0
 18 15  1  0  0  0  0
 18  6  2  0  0  0  0
 19 16  2  0  0  0  0
 20  4  2  0  0  0  0
 21 13  1  0  0  0  0
 21 20  1  0  0  0  0
 22 14  1  0  0  0  0
 23  7  1  0  0  0  0
 23  2  1  0  0  0  0
 24  5  2  0  0  0  0
 26  2  2  0  0  0  0
 26 14  1  0  0  0  0
 27 22  2  0  0  0  0
 29 28  1  0  0  0  0
 29 30  1  0  0  0  0
 30 31  1  0  0  0  0
 30 32  2  0  0  0  0
M  END
>  <MODEL>
1

>  <REMARK>
 VINA RESULT:      -9.1      0.000      0.000
  Name = 
  3 active torsions:
  status: ('A' for Active; 'I' for Inactive)
    1  A    between atoms: C_10  and  C_20
    2  A    between atoms: C_20  and  O_29
    3  A    between atoms: O_29  and  C_30
                            x       y       z     vdW  Elec       q    Type
                         _______ _______ _______ _____ _____    ______ ____

>  <TORSDO>
F 3

$$$$
=
 OpenBabel11112416333D

 32 37  0  0  1  0  0  0  0  0999 V2000
  184.8160  177.3990  146.5120 C   0  0  0  0  0  2  0  0  0  0  0  0
  189.5940  176.2590  144.8480 C   0  0  0  0  0  0  0  0  0  0  0  0
  188.7150  173.8950  140.6950 C   0  0  0  0  0  3  0  0  0  0  0  0
  190.1570  173.6390  140.5090 C   0  0  0  0  0  3  0  0  0  0  0  0
  191.8900  176.1860  145.8710 C   0  0  0  0  0  0  0  0  0  0  0  0
  193.2150  175.5990  145.7130 C   0  0  0  0  0  0  0  0  0  0  0  0
  187.7330  177.5400  145.9520 C   0  0  1  0  0  3  0  0  0  0  0  0
  187.3460  176.5500  143.7130 C   0  0  0  0  0  2  0  0  0  0  0  0
  194.9180  174.4730  144.7890 C   0  0  0  0  0  0  0  0  0  0  0  0
  185.3720  177.3470  145.0860 C   0  0  2  0  0  3  0  0  0  0  0  0
  188.2840  174.7620  141.6180 C   0  0  0  0  0  3  0  0  0  0  0  0
  188.7000  175.9800  143.7350 N   0  0  0  0  0  0  0  0  0  0  0  0
  189.2500  175.5940  142.4290 C   0  0  1  0  0  3  0  0  0  0  0  0
  191.4140  175.1720  143.5620 C   0  0  0  0  0  0  0  0  0  0  0  0
  195.3000  174.9550  145.9300 N   0  0  0  0  0  0  0  0  0  0  0  0
  185.8220  177.8980  147.5240 C   0  0  0  0  0  3  0  0  0  0  0  0
  186.7680  176.7100  145.1110 C   0  0  2  0  0  3  0  0  0  0  0  0
  194.2280  175.6660  146.5130 N   0  0  0  0  0  2  0  0  0  0  0  0
  187.1430  177.9170  147.2870 C   0  0  0  0  0  3  0  0  0  0  0  0
  191.0530  174.1160  141.3770 C   0  0  0  0  0  3  0  0  0  0  0  0
  190.6080  174.9390  142.5210 C   0  0  0  0  0  0  0  0  0  0  0  0
  192.7610  174.6380  143.5480 N   0  0  0  0  0  2  0  0  0  0  0  0
  189.0170  176.7610  146.1510 C   0  0  0  0  0  2  0  0  0  0  0  0
  191.6290  176.8980  146.8770 O   0  0  0  0  0  0  0  0  0  0  0  0
  195.7520  173.7090  143.9270 N   0  0  0  0  0  1  0  0  0  0  0  0
  190.9070  175.9230  144.7690 C   0  0  0  0  0  0  0  0  0  0  0  0
  193.5480  174.8460  144.5530 C   0  0  0  0  0  0  0  0  0  0  0  0
  185.3730  178.7350  144.4400 C   0  0  0  0  0  2  0  0  0  0  0  0
  184.2060  178.9150  143.6490 O   0  0  0  0  0  0  0  0  0  0  0  0
  184.0710  178.3670  142.3720 C   0  0  0  0  0  0  0  0  0  0  0  0
  185.2230  178.2910  141.4270 C   0  0  0  0  0  1  0  0  0  0  0  0
  182.9530  177.9160  142.0100 O   0  0  0  0  0  0  0  0  0  0  0  0
  1 16  1  0  0  0  0
  2 23  1  0  0  0  0
  3 11  2  0  0  0  0
  4  3  1  0  0  0  0
  4 20  2  0  0  0  0
  5 24  2  0  0  0  0
  6  5  1  0  0  0  0
  6 18  1  0  0  0  0
  7 23  1  1  0  0  0
  7 19  1  0  0  0  0
  8 12  1  0  0  0  0
  9 15  2  0  0  0  0
 10 28  1  1  0  0  0
 10 17  1  0  0  0  0
 10  1  1  0  0  0  0
 12  2  1  0  0  0  0
 13 11  1  1  0  0  0
 13 21  1  0  0  0  0
 13 12  1  0  0  0  0
 14 26  1  0  0  0  0
 15 18  1  0  0  0  0
 17  8  1  6  0  0  0
 17  7  1  0  0  0  0
 19 16  2  0  0  0  0
 20 21  1  0  0  0  0
 21 14  2  0  0  0  0
 22 14  1  0  0  0  0
 22 27  1  0  0  0  0
 25  9  1  0  0  0  0
 26  2  2  0  0  0  0
 26  5  1  0  0  0  0
 27  9  1  0  0  0  0
 27  6  2  0  0  0  0
 29 28  1  0  0  0  0
 30 29  1  0  0  0  0
 31 30  1  0  0  0  0
 32 30  2  0  0  0  0
M  END
>  <MODEL>
2

>  <REMARK>
 VINA RESULT:      -8.8      3.074      8.816
  Name = 
  3 active torsions:
  status: ('A' for Active; 'I' for Inactive)
    1  A    between atoms: C_10  and  C_20
    2  A    between atoms: C_20  and  O_29
    3  A    between atoms: O_29  and  C_30
                            x       y       z     vdW  Elec       q    Type
                         _______ _______ _______ _____ _____    ______ ____

>  <TORSDO>
F 3

$$$$
=
 OpenBabel11112416333D

 32 37  0  0  1  0  0  0  0  0999 V2000
  185.3780  179.4120  143.5380 C   0  0  0  0  0  2  0  0  0  0  0  0
  188.6500  175.3910  143.4150 C   0  0  0  0  0  0  0  0  0  0  0  0
  191.6480  176.3720  147.1100 C   0  0  0  0  0  3  0  0  0  0  0  0
  192.4630  175.1830  146.7950 C   0  0  0  0  0  3  0  0  0  0  0  0
  189.2580  173.6120  141.7450 C   0  0  0  0  0  0  0  0  0  0  0  0
  190.3130  172.6760  141.3760 C   0  0  0  0  0  0  0  0  0  0  0  0
  186.5030  176.6820  143.1960 C   0  0  1  0  0  3  0  0  0  0  0  0
  187.9010  177.0100  145.2160 C   0  0  0  0  0  2  0  0  0  0  0  0
  192.2110  171.4910  141.5040 C   0  0  0  0  0  0  0  0  0  0  0  0
  186.0580  178.6650  144.6900 C   0  0  2  0  0  3  0  0  0  0  0  0
  190.4490  176.5540  146.5460 C   0  0  0  0  0  3  0  0  0  0  0  0
  188.8980  176.0760  144.6730 N   0  0  0  0  0  0  0  0  0  0  0  0
  189.8330  175.5030  145.6510 C   0  0  1  0  0  3  0  0  0  0  0  0
  190.6660  174.0150  143.8520 C   0  0  0  0  0  0  0  0  0  0  0  0
  191.5860  171.1720  140.4140 N   0  0  0  0  0  0  0  0  0  0  0  0
  185.0080  178.5130  142.3810 C   0  0  0  0  0  3  0  0  0  0  0  0
  187.1270  177.7240  144.1180 C   0  0  2  0  0  3  0  0  0  0  0  0
  190.3900  171.9170  140.3320 N   0  0  0  0  0  0  0  0  0  0  0  0
  185.5520  177.2990  142.2030 C   0  0  0  0  0  3  0  0  0  0  0  0
  192.1150  174.3600  145.8020 C   0  0  0  0  0  3  0  0  0  0  0  0
  190.8840  174.6170  145.0260 C   0  0  0  0  0  0  0  0  0  0  0  0
  191.6380  173.0650  143.3530 N   0  0  0  0  0  0  0  0  0  0  0  0
  187.6040  175.9360  142.4700 C   0  0  0  0  0  2  0  0  0  0  0  0
  188.2340  173.7290  141.0210 O   0  0  0  0  0  0  0  0  0  0  0  0
  193.4510  170.9230  141.9080 N   0  0  0  0  0  1  0  0  0  0  0  0
  189.4560  174.3710  143.0240 C   0  0  0  0  0  0  0  0  0  0  0  0
  191.4460  172.4830  142.2140 C   0  0  0  0  0  0  0  0  0  0  0  0
  185.0320  177.9290  145.5540 C   0  0  0  0  0  2  0  0  0  0  0  0
  184.9960  178.4840  146.8630 O   0  0  0  0  0  0  0  0  0  0  0  0
  185.9650  178.1980  147.8280 C   0  0  0  0  0  0  0  0  0  0  0  0
  186.8480  179.2630  148.3890 C   0  0  0  0  0  1  0  0  0  0  0  0
  186.0920  177.0170  148.2420 O   0  0  0  0  0  0  0  0  0  0  0  0
  1 10  1  0  0  0  0
  2 12  1  0  0  0  0
  4  3  1  0  0  0  0
  5 26  1  0  0  0  0
  6  5  1  0  0  0  0
  6 27  1  0  0  0  0
  7 19  1  6  0  0  0
  7 17  1  0  0  0  0
  9 25  1  0  0  0  0
  9 27  1  0  0  0  0
 10 28  1  6  0  0  0
 11  3  2  0  0  0  0
 12  8  1  0  0  0  0
 12 13  1  0  0  0  0
 13 11  1  6  0  0  0
 14 21  2  0  0  0  0
 15  9  2  0  0  0  0
 16  1  1  0  0  0  0
 17 10  1  0  0  0  0
 17  8  1  1  0  0  0
 18 15  1  0  0  0  0
 18  6  2  0  0  0  0
 19 16  2  0  0  0  0
 20  4  2  0  0  0  0
 21 13  1  0  0  0  0
 21 20  1  0  0  0  0
 22 14  1  0  0  0  0
 23  7  1  0  0  0  0
 23  2  1  0  0  0  0
 24  5  2  0  0  0  0
 26  2  2  0  0  0  0
 26 14  1  0  0  0  0
 27 22  2  0  0  0  0
 28 29  1  0  0  0  0
 29 30  1  0  0  0  0
 30 32  2  0  0  0  0
 30 31  1  0  0  0  0
M  END
>  <MODEL>
3

>  <REMARK>
 VINA RESULT:      -8.5      3.656      7.432
  Name = 
  3 active torsions:
  status: ('A' for Active; 'I' for Inactive)
    1  A    between atoms: C_10  and  C_20
    2  A    between atoms: C_20  and  O_29
    3  A    between atoms: O_29  and  C_30
                            x       y       z     vdW  Elec       q    Type
                         _______ _______ _______ _____ _____    ______ ____

>  <TORSDO>
F 3

$$$$
=
 OpenBabel11112416333D

 32 37  0  0  1  0  0  0  0  0999 V2000
  195.0360  175.3840  145.5500 C   0  0  0  0  0  2  0  0  0  0  0  0
  190.1810  175.9120  143.8030 C   0  0  0  0  0  0  0  0  0  0  0  0
  190.2950  173.4160  139.6370 C   0  0  0  0  0  3  0  0  0  0  0  0
  188.8980  173.7920  139.3460 C   0  0  0  0  0  3  0  0  0  0  0  0
  188.2400  177.4310  144.3020 C   0  0  0  0  0  0  0  0  0  0  0  0
  187.0050  177.9610  143.7390 C   0  0  0  0  0  0  0  0  0  0  0  0
  192.0790  175.6680  145.4360 C   0  0  1  0  0  3  0  0  0  0  0  0
  192.0200  174.2060  143.4350 C   0  0  0  0  0  2  0  0  0  0  0  0
  185.2850  178.2330  142.3290 C   0  0  0  0  0  0  0  0  0  0  0  0
  194.1540  174.3900  144.7870 C   0  0  2  0  0  3  0  0  0  0  0  0
  190.8280  173.6260  140.8450 C   0  0  0  0  0  3  0  0  0  0  0  0
  190.7990  174.8840  142.9800 N   0  0  0  0  0  0  0  0  0  0  0  0
  189.9950  174.1530  141.9910 C   0  0  1  0  0  3  0  0  0  0  0  0
  188.2530  175.8990  142.2430 C   0  0  0  0  0  0  0  0  0  0  0  0
  185.1400  179.0410  143.3330 N   0  0  0  0  0  0  0  0  0  0  0  0
  194.2580  176.2510  146.5130 C   0  0  0  0  0  3  0  0  0  0  0  0
  192.9020  175.1160  144.2770 C   0  0  2  0  0  3  0  0  0  0  0  0
  186.2230  178.8700  144.2220 N   0  0  0  0  0  2  0  0  0  0  0  0
  192.9280  176.4160  146.4310 C   0  0  0  0  0  3  0  0  0  0  0  0
  188.1920  174.5200  140.2150 C   0  0  0  0  0  3  0  0  0  0  0  0
  188.7990  174.9310  141.4990 C   0  0  0  0  0  0  0  0  0  0  0  0
  187.0260  176.5270  141.8010 N   0  0  0  0  0  2  0  0  0  0  0  0
  190.9950  176.5760  144.8900 C   0  0  0  0  0  2  0  0  0  0  0  0
  188.6510  177.8350  145.4230 O   0  0  0  0  0  0  0  0  0  0  0  0
  184.3670  178.1340  141.2460 N   0  0  0  0  0  1  0  0  0  0  0  0
  188.9450  176.3790  143.4960 C   0  0  0  0  0  0  0  0  0  0  0  0
  186.4930  177.4720  142.5060 C   0  0  0  0  0  0  0  0  0  0  0  0
  193.8150  173.1740  145.6510 C   0  0  0  0  0  2  0  0  0  0  0  0
  194.3730  171.9940  145.0880 O   0  0  0  0  0  0  0  0  0  0  0  0
  195.4460  171.3160  145.6720 C   0  0  0  0  0  0  0  0  0  0  0  0
  196.8040  171.9300  145.7630 C   0  0  0  0  0  1  0  0  0  0  0  0
  195.2630  170.1640  146.1440 O   0  0  0  0  0  0  0  0  0  0  0  0
  1 16  1  0  0  0  0
  2 23  1  0  0  0  0
  3 11  2  0  0  0  0
  4  3  1  0  0  0  0
  4 20  2  0  0  0  0
  5 24  2  0  0  0  0
  6 18  1  0  0  0  0
  6  5  1  0  0  0  0
  7 23  1  6  0  0  0
  7 19  1  0  0  0  0
  9 27  1  0  0  0  0
  9 15  2  0  0  0  0
 10  1  1  0  0  0  0
 10 28  1  1  0  0  0
 12  8  1  0  0  0  0
 12  2  1  0  0  0  0
 13 11  1  6  0  0  0
 13 12  1  0  0  0  0
 14 26  1  0  0  0  0
 15 18  1  0  0  0  0
 17  8  1  1  0  0  0
 17 10  1  0  0  0  0
 17  7  1  0  0  0  0
 19 16  2  0  0  0  0
 20 21  1  0  0  0  0
 21 13  1  0  0  0  0
 21 14  2  0  0  0  0
 22 14  1  0  0  0  0
 22 27  1  0  0  0  0
 25  9  1  0  0  0  0
 26  2  2  0  0  0  0
 26  5  1  0  0  0  0
 27  6  2  0  0  0  0
 29 28  1  0  0  0  0
 29 30  1  0  0  0  0
 30 31  1  0  0  0  0
 30 32  2  0  0  0  0
M  END
>  <MODEL>
4

>  <REMARK>
 VINA RESULT:      -8.0      2.628      5.224
  Name = 
  3 active torsions:
  status: ('A' for Active; 'I' for Inactive)
    1  A    between atoms: C_10  and  C_20
    2  A    between atoms: C_20  and  O_29
    3  A    between atoms: O_29  and  C_30
                            x       y       z     vdW  Elec       q    Type
                         _______ _______ _______ _____ _____    ______ ____

>  <TORSDO>
F 3

$$$$
=
 OpenBabel11112416333D

 32 37  0  0  1  0  0  0  0  0999 V2000
  185.2550  177.1030  145.9590 C   0  0  0  0  0  2  0  0  0  0  0  0
  189.6960  175.0950  144.1850 C   0  0  0  0  0  0  0  0  0  0  0  0
  188.6070  174.0800  139.5600 C   0  0  0  0  0  3  0  0  0  0  0  0
  189.9410  173.4840  139.3530 C   0  0  0  0  0  3  0  0  0  0  0  0
  191.7900  174.1580  145.2150 C   0  0  0  0  0  0  0  0  0  0  0  0
  192.9220  173.2790  144.9510 C   0  0  0  0  0  0  0  0  0  0  0  0
  188.1440  176.5540  145.5230 C   0  0  1  0  0  3  0  0  0  0  0  0
  187.7150  176.2480  143.1010 C   0  0  0  0  0  2  0  0  0  0  0  0
  194.3460  171.9680  143.8230 C   0  0  0  0  0  0  0  0  0  0  0  0
  185.9040  177.2250  144.5770 C   0  0  2  0  0  3  0  0  0  0  0  0
  188.3360  174.7980  140.6550 C   0  0  0  0  0  3  0  0  0  0  0  0
  188.8640  175.3360  143.0160 N   0  0  0  0  0  0  0  0  0  0  0  0
  189.4100  175.1220  141.6690 C   0  0  1  0  0  3  0  0  0  0  0  0
  191.2750  173.8700  142.7170 C   0  0  0  0  0  0  0  0  0  0  0  0
  194.7360  172.0520  145.0560 N   0  0  0  0  0  0  0  0  0  0  0  0
  186.2600  177.0590  147.0860 C   0  0  0  0  0  3  0  0  0  0  0  0
  187.0750  176.2390  144.4810 C   0  0  2  0  0  3  0  0  0  0  0  0
  193.8400  172.8780  145.7680 N   0  0  0  0  0  2  0  0  0  0  0  0
  187.5560  176.7650  146.8940 C   0  0  0  0  0  3  0  0  0  0  0  0
  190.8490  173.4830  140.3330 C   0  0  0  0  0  3  0  0  0  0  0  0
  190.5340  174.1140  141.6320 C   0  0  0  0  0  0  0  0  0  0  0  0
  192.4290  173.0020  142.6070 N   0  0  0  0  0  2  0  0  0  0  0  0
  189.1550  175.4260  145.5560 C   0  0  0  0  0  2  0  0  0  0  0  0
  191.6340  174.6650  146.3580 O   0  0  0  0  0  0  0  0  0  0  0  0
  195.0250  171.2200  142.8210 N   0  0  0  0  0  1  0  0  0  0  0  0
  190.8750  174.4360  144.0580 C   0  0  0  0  0  0  0  0  0  0  0  0
  193.1490  172.7490  143.6510 C   0  0  0  0  0  0  0  0  0  0  0  0
  186.3280  178.6680  144.2910 C   0  0  0  0  0  2  0  0  0  0  0  0
  185.4490  179.2650  143.3470 O   0  0  0  0  0  0  0  0  0  0  0  0
  184.9520  178.5740  142.2390 C   0  0  0  0  0  0  0  0  0  0  0  0
  183.5570  178.0460  142.2080 C   0  0  0  0  0  1  0  0  0  0  0  0
  185.6940  178.4010  141.2380 O   0  0  0  0  0  0  0  0  0  0  0  0
  1 16  1  0  0  0  0
  2 23  1  0  0  0  0
  3 11  2  0  0  0  0
  4  3  1  0  0  0  0
  4 20  2  0  0  0  0
  5 24  2  0  0  0  0
  6  5  1  0  0  0  0
  6 18  1  0  0  0  0
  7 23  1  1  0  0  0
  7 19  1  0  0  0  0
  9 15  2  0  0  0  0
 10 28  1  1  0  0  0
 10  1  1  0  0  0  0
 12  8  1  0  0  0  0
 12  2  1  0  0  0  0
 13 11  1  6  0  0  0
 13 12  1  0  0  0  0
 14 26  1  0  0  0  0
 15 18  1  0  0  0  0
 17  8  1  6  0  0  0
 17 10  1  0  0  0  0
 17  7  1  0  0  0  0
 19 16  2  0  0  0  0
 20 21  1  0  0  0  0
 21 13  1  0  0  0  0
 21 14  2  0  0  0  0
 22 14  1  0  0  0  0
 22 27  1  0  0  0  0
 25  9  1  0  0  0  0
 26  2  2  0  0  0  0
 26  5  1  0  0  0  0
 27  9  1  0  0  0  0
 27  6  2  0  0  0  0
 29 28  1  0  0  0  0
 30 29  1  0  0  0  0
 31 30  1  0  0  0  0
 32 30  2  0  0  0  0
M  END
>  <MODEL>
5

>  <REMARK>
 VINA RESULT:      -8.0      3.445      8.871
  Name = 
  3 active torsions:
  status: ('A' for Active; 'I' for Inactive)
    1  A    between atoms: C_10  and  C_20
    2  A    between atoms: C_20  and  O_29
    3  A    between atoms: O_29  and  C_30
                            x       y       z     vdW  Elec       q    Type
                         _______ _______ _______ _____ _____    ______ ____

>  <TORSDO>
F 3

$$$$
=
 OpenBabel11112416333D

 32 37  0  0  1  0  0  0  0  0999 V2000
  186.1860  178.6350  141.5990 C   0  0  0  0  0  2  0  0  0  0  0  0
  189.6840  175.3850  143.6250 C   0  0  0  0  0  0  0  0  0  0  0  0
  190.5830  177.3910  147.9590 C   0  0  0  0  0  3  0  0  0  0  0  0
  191.6050  176.3660  148.2470 C   0  0  0  0  0  3  0  0  0  0  0  0
  191.1990  173.5850  142.7380 C   0  0  0  0  0  0  0  0  0  0  0  0
  192.4230  172.8490  143.0290 C   0  0  0  0  0  0  0  0  0  0  0  0
  187.7020  176.1730  142.2920 C   0  0  1  0  0  3  0  0  0  0  0  0
  188.0080  177.0180  144.6030 C   0  0  0  0  0  2  0  0  0  0  0  0
  194.2090  172.1040  144.1570 C   0  0  0  0  0  0  0  0  0  0  0  0
  186.3820  178.1840  143.0500 C   0  0  2  0  0  3  0  0  0  0  0  0
  189.7430  177.2550  146.9260 C   0  0  0  0  0  3  0  0  0  0  0  0
  189.2570  176.2510  144.7130 N   0  0  0  0  0  0  0  0  0  0  0  0
  189.7320  176.0020  146.0810 C   0  0  1  0  0  3  0  0  0  0  0  0
  191.4650  174.5150  145.1160 C   0  0  0  0  0  0  0  0  0  0  0  0
  194.1790  171.5360  142.9920 N   0  0  0  0  0  0  0  0  0  0  0  0
  186.4890  177.5480  140.5930 C   0  0  0  0  0  3  0  0  0  0  0  0
  187.7090  177.4230  143.1670 C   0  0  2  0  0  3  0  0  0  0  0  0
  193.0530  172.0040  142.2800 N   0  0  0  0  0  0  0  0  0  0  0  0
  187.2140  176.4600  140.8960 C   0  0  0  0  0  3  0  0  0  0  0  0
  191.8450  175.3780  147.3810 C   0  0  0  0  0  3  0  0  0  0  0  0
  191.0590  175.2840  146.1320 C   0  0  0  0  0  0  0  0  0  0  0  0
  192.6750  173.7330  145.2580 N   0  0  0  0  0  0  0  0  0  0  0  0
  189.1000  175.5880  142.2470 C   0  0  0  0  0  2  0  0  0  0  0  0
  190.5930  173.4030  141.6480 O   0  0  0  0  0  0  0  0  0  0  0  0
  195.2080  171.8540  145.1400 N   0  0  0  0  0  1  0  0  0  0  0  0
  190.7080  174.5140  143.8100 C   0  0  0  0  0  0  0  0  0  0  0  0
  193.0850  172.9940  144.2790 C   0  0  0  0  0  0  0  0  0  0  0  0
  185.1890  177.3600  143.5400 C   0  0  0  0  0  2  0  0  0  0  0  0
  184.5310  178.0270  144.6090 O   0  0  0  0  0  0  0  0  0  0  0  0
  184.8940  177.8470  145.9460 C   0  0  0  0  0  0  0  0  0  0  0  0
  185.3660  178.9840  146.7900 C   0  0  0  0  0  1  0  0  0  0  0  0
  184.8120  176.6990  146.4560 O   0  0  0  0  0  0  0  0  0  0  0  0
  1 10  1  0  0  0  0
  2 26  2  0  0  0  0
  2 12  1  0  0  0  0
  3  4  1  0  0  0  0
  5  6  1  0  0  0  0
  5 26  1  0  0  0  0
  6 27  1  0  0  0  0
  7 19  1  6  0  0  0
  7 17  1  0  0  0  0
  8 12  1  0  0  0  0
  9 27  1  0  0  0  0
  9 25  1  0  0  0  0
 10 17  1  0  0  0  0
 10 28  1  6  0  0  0
 11  3  2  0  0  0  0
 12 13  1  0  0  0  0
 13 21  1  0  0  0  0
 13 11  1  6  0  0  0
 14 22  1  0  0  0  0
 14 21  2  0  0  0  0
 15  9  2  0  0  0  0
 16 19  2  0  0  0  0
 16  1  1  0  0  0  0
 17  8  1  1  0  0  0
 18 15  1  0  0  0  0
 18  6  2  0  0  0  0
 20  4  2  0  0  0  0
 21 20  1  0  0  0  0
 23  7  1  0  0  0  0
 23  2  1  0  0  0  0
 24  5  2  0  0  0  0
 26 14  1  0  0  0  0
 27 22  2  0  0  0  0
 28 29  1  0  0  0  0
 29 30  1  0  0  0  0
 30 32  2  0  0  0  0
 30 31  1  0  0  0  0
M  END
>  <MODEL>
6

>  <REMARK>
 VINA RESULT:      -7.9      3.633      7.953
  Name = 
  3 active torsions:
  status: ('A' for Active; 'I' for Inactive)
    1  A    between atoms: C_10  and  C_20
    2  A    between atoms: C_20  and  O_29
    3  A    between atoms: O_29  and  C_30
                            x       y       z     vdW  Elec       q    Type
                         _______ _______ _______ _____ _____    ______ ____

>  <TORSDO>
F 3

$$$$
=
 OpenBabel11112416333D

 32 37  0  0  1  0  0  0  0  0999 V2000
  190.6670  171.6550  140.1090 C   0  0  0  0  0  2  0  0  0  0  0  0
  188.9420  175.4030  143.2520 C   0  0  0  0  0  0  0  0  0  0  0  0
  192.1730  175.2910  146.8790 C   0  0  0  0  0  3  0  0  0  0  0  0
  191.4250  176.3330  147.6080 C   0  0  0  0  0  3  0  0  0  0  0  0
  186.7920  176.6790  143.5260 C   0  0  0  0  0  0  0  0  0  0  0  0
  186.0160  177.4550  144.4840 C   0  0  0  0  0  0  0  0  0  0  0  0
  189.4450  174.1700  141.1180 C   0  0  1  0  0  3  0  0  0  0  0  0
  191.2000  174.3180  142.8620 C   0  0  0  0  0  2  0  0  0  0  0  0
  185.4990  178.5690  146.3590 C   0  0  0  0  0  0  0  0  0  0  0  0
  191.4490  172.6470  140.9750 C   0  0  2  0  0  3  0  0  0  0  0  0
  191.8950  175.0110  145.6010 C   0  0  0  0  0  3  0  0  0  0  0  0
  190.2690  175.0500  143.7310 N   0  0  0  0  0  0  0  0  0  0  0  0
  190.8860  175.8210  144.8190 C   0  0  1  0  0  3  0  0  0  0  0  0
  188.6490  176.7760  145.2960 C   0  0  0  0  0  0  0  0  0  0  0  0
  184.4920  178.6230  145.5440 N   0  0  0  0  0  0  0  0  0  0  0  0
  189.4030  172.2430  139.5260 C   0  0  0  0  0  3  0  0  0  0  0  0
  190.4760  173.3750  141.9120 C   0  0  2  0  0  3  0  0  0  0  0  0
  184.8170  177.9220  144.3620 N   0  0  0  0  0  0  0  0  0  0  0  0
  188.8260  173.3540  140.0120 C   0  0  0  0  0  3  0  0  0  0  0  0
  190.3320  176.8890  147.0760 C   0  0  0  0  0  3  0  0  0  0  0  0
  189.8800  176.4840  145.7290 C   0  0  0  0  0  0  0  0  0  0  0  0
  187.7590  177.5360  146.1490 N   0  0  0  0  0  0  0  0  0  0  0  0
  188.3690  174.6710  142.0610 C   0  0  0  0  0  2  0  0  0  0  0  0
  186.3160  176.4160  142.3890 O   0  0  0  0  0  0  0  0  0  0  0  0
  185.5180  179.1800  147.6430 N   0  0  0  0  0  1  0  0  0  0  0  0
  188.1670  176.2620  143.9600 C   0  0  0  0  0  0  0  0  0  0  0  0
  186.5620  177.8160  145.7480 C   0  0  0  0  0  0  0  0  0  0  0  0
  192.2650  173.6120  140.1120 C   0  0  0  0  0  2  0  0  0  0  0  0
  193.6450  173.5290  140.4450 O   0  0  0  0  0  0  0  0  0  0  0  0
  194.3720  174.6250  140.9150 C   0  0  0  0  0  0  0  0  0  0  0  0
  194.8850  174.6820  142.3150 C   0  0  0  0  0  1  0  0  0  0  0  0
  194.6110  175.5850  140.1370 O   0  0  0  0  0  0  0  0  0  0  0  0
  1 10  1  0  0  0  0
  2 12  1  0  0  0  0
  2 26  2  0  0  0  0
  3  4  1  0  0  0  0
  5 26  1  0  0  0  0
  5  6  1  0  0  0  0
  6 27  1  0  0  0  0
  7 19  1  6  0  0  0
  7 17  1  0  0  0  0
  7 23  1  0  0  0  0
  8 12  1  0  0  0  0
  9 25  1  0  0  0  0
 10 28  1  6  0  0  0
 10 17  1  0  0  0  0
 11  3  2  0  0  0  0
 12 13  1  0  0  0  0
 13 11  1  1  0  0  0
 13 21  1  0  0  0  0
 14 21  2  0  0  0  0
 14 22  1  0  0  0  0
 15  9  2  0  0  0  0
 16 19  2  0  0  0  0
 16  1  1  0  0  0  0
 17  8  1  1  0  0  0
 18  6  2  0  0  0  0
 18 15  1  0  0  0  0
 20  4  2  0  0  0  0
 21 20  1  0  0  0  0
 23  2  1  0  0  0  0
 24  5  2  0  0  0  0
 26 14  1  0  0  0  0
 27 22  2  0  0  0  0
 27  9  1  0  0  0  0
 28 29  1  0  0  0  0
 29 30  1  0  0  0  0
 30 31  1  0  0  0  0
 32 30  2  0  0  0  0
M  END
>  <MODEL>
7

>  <REMARK>
 VINA RESULT:      -7.8      2.707      4.731
  Name = 
  3 active torsions:
  status: ('A' for Active; 'I' for Inactive)
    1  A    between atoms: C_10  and  C_20
    2  A    between atoms: C_20  and  O_29
    3  A    between atoms: O_29  and  C_30
                            x       y       z     vdW  Elec       q    Type
                         _______ _______ _______ _____ _____    ______ ____

>  <TORSDO>
F 3

$$$$
=
 OpenBabel11112416333D

 32 37  0  0  1  0  0  0  0  0999 V2000
  187.2370  178.0580  142.6090 C   0  0  0  0  0  2  0  0  0  0  0  0
  190.5390  174.2570  143.8520 C   0  0  0  0  0  0  0  0  0  0  0  0
  194.1680  176.6840  145.9840 C   0  0  0  0  0  3  0  0  0  0  0  0
  194.9420  175.4360  146.1410 C   0  0  0  0  0  3  0  0  0  0  0  0
  190.8630  171.8570  143.1750 C   0  0  0  0  0  0  0  0  0  0  0  0
  191.8530  170.7890  143.1190 C   0  0  0  0  0  0  0  0  0  0  0  0
  188.3540  175.4290  143.4340 C   0  0  1  0  0  3  0  0  0  0  0  0
  190.1080  176.5900  144.7440 C   0  0  0  0  0  2  0  0  0  0  0  0
  193.7740  169.6830  143.4540 C   0  0  0  0  0  0  0  0  0  0  0  0
  188.1500  177.9110  143.8310 C   0  0  2  0  0  3  0  0  0  0  0  0
  192.8780  176.6550  145.6340 C   0  0  0  0  0  3  0  0  0  0  0  0
  191.0070  175.4440  144.5500 N   0  0  0  0  0  0  0  0  0  0  0  0
  192.1310  175.3490  145.4920 C   0  0  1  0  0  3  0  0  0  0  0  0
  192.6420  173.1250  144.5220 C   0  0  0  0  0  0  0  0  0  0  0  0
  192.9590  168.9230  142.7920 N   0  0  0  0  0  0  0  0  0  0  0  0
  186.6770  176.7410  142.1240 C   0  0  0  0  0  3  0  0  0  0  0  0
  189.1150  176.7400  143.6020 C   0  0  2  0  0  3  0  0  0  0  0  0
  191.7480  169.6180  142.5810 N   0  0  0  0  0  0  0  0  0  0  0  0
  187.2110  175.5560  142.4600 C   0  0  0  0  0  3  0  0  0  0  0  0
  194.4310  174.2640  145.7550 C   0  0  0  0  0  3  0  0  0  0  0  0
  193.0660  174.2010  145.1940 C   0  0  0  0  0  0  0  0  0  0  0  0
  193.5260  171.9870  144.3770 N   0  0  0  0  0  0  0  0  0  0  0  0
  189.3150  174.3510  142.9720 C   0  0  0  0  0  2  0  0  0  0  0  0
  189.7150  171.6820  142.6870 O   0  0  0  0  0  0  0  0  0  0  0  0
  195.0850  169.2950  143.8470 N   0  0  0  0  0  1  0  0  0  0  0  0
  191.2830  173.1220  143.8640 C   0  0  0  0  0  0  0  0  0  0  0  0
  193.1330  170.9440  143.7210 C   0  0  0  0  0  0  0  0  0  0  0  0
  187.3330  177.7550  145.1160 C   0  0  0  0  0  2  0  0  0  0  0  0
  186.1820  178.5880  145.0770 O   0  0  0  0  0  0  0  0  0  0  0  0
  184.9900  178.2550  145.7230 C   0  0  0  0  0  0  0  0  0  0  0  0
  184.8520  176.9950  146.5110 C   0  0  0  0  0  1  0  0  0  0  0  0
  184.0080  179.0400  145.6480 O   0  0  0  0  0  0  0  0  0  0  0  0
  1 10  1  0  0  0  0
  2 26  2  0  0  0  0
  2 12  1  0  0  0  0
  3  4  1  0  0  0  0
  5 26  1  0  0  0  0
  6  5  1  0  0  0  0
  6 27  1  0  0  0  0
  7 19  1  6  0  0  0
  7 17  1  0  0  0  0
  9 27  1  0  0  0  0
  9 25  1  0  0  0  0
 10 28  1  1  0  0  0
 11  3  2  0  0  0  0
 12  8  1  0  0  0  0
 12 13  1  0  0  0  0
 13 11  1  6  0  0  0
 14 21  2  0  0  0  0
 15  9  2  0  0  0  0
 16 19  2  0  0  0  0
 16  1  1  0  0  0  0
 17 10  1  0  0  0  0
 17  8  1  1  0  0  0
 18 15  1  0  0  0  0
 18  6  2  0  0  0  0
 20  4  2  0  0  0  0
 21 13  1  0  0  0  0
 21 20  1  0  0  0  0
 22 14  1  0  0  0  0
 23  7  1  0  0  0  0
 23  2  1  0  0  0  0
 24  5  2  0  0  0  0
 26 14  1  0  0  0  0
 27 22  2  0  0  0  0
 29 28  1  0  0  0  0
 29 30  1  0  0  0  0
 30 31  1  0  0  0  0
 32 30  2  0  0  0  0
M  END
>  <MODEL>
8

>  <REMARK>
 VINA RESULT:      -7.8      4.248      8.723
  Name = 
  3 active torsions:
  status: ('A' for Active; 'I' for Inactive)
    1  A    between atoms: C_10  and  C_20
    2  A    between atoms: C_20  and  O_29
    3  A    between atoms: O_29  and  C_30
                            x       y       z     vdW  Elec       q    Type
                         _______ _______ _______ _____ _____    ______ ____

>  <TORSDO>
F 3

$$$$
=
 OpenBabel11112416333D

 32 37  0  0  1  0  0  0  0  0999 V2000
  186.1240  178.5050  144.0700 C   0  0  0  0  0  2  0  0  0  0  0  0
  190.0540  175.2440  143.1660 C   0  0  0  0  0  0  0  0  0  0  0  0
  193.2080  176.4170  146.6710 C   0  0  0  0  0  3  0  0  0  0  0  0
  194.1910  175.4510  146.1420 C   0  0  0  0  0  3  0  0  0  0  0  0
  190.7950  173.8000  141.2450 C   0  0  0  0  0  0  0  0  0  0  0  0
  191.9570  173.1340  140.6730 C   0  0  0  0  0  0  0  0  0  0  0  0
  187.6930  176.1000  143.2990 C   0  0  1  0  0  3  0  0  0  0  0  0
  189.2220  176.4910  145.2110 C   0  0  0  0  0  2  0  0  0  0  0  0
  194.0450  172.3420  140.4860 C   0  0  0  0  0  0  0  0  0  0  0  0
  187.0550  177.7930  145.0560 C   0  0  2  0  0  3  0  0  0  0  0  0
  191.9420  176.4150  146.2430 C   0  0  0  0  0  3  0  0  0  0  0  0
  190.3080  175.8330  144.4720 N   0  0  0  0  0  0  0  0  0  0  0  0
  191.4370  175.3600  145.2850 C   0  0  1  0  0  3  0  0  0  0  0  0
  192.3280  174.2570  143.2520 C   0  0  0  0  0  0  0  0  0  0  0  0
  193.3740  172.0180  139.4250 N   0  0  0  0  0  0  0  0  0  0  0  0
  185.8030  177.6730  142.8500 C   0  0  0  0  0  3  0  0  0  0  0  0
  188.2110  177.1460  144.2820 C   0  0  2  0  0  3  0  0  0  0  0  0
  192.0580  172.5160  139.5420 N   0  0  0  0  0  0  0  0  0  0  0  0
  186.5400  176.6150  142.4770 C   0  0  0  0  0  3  0  0  0  0  0  0
  193.8950  174.6810  145.0910 C   0  0  0  0  0  3  0  0  0  0  0  0
  192.5580  174.7680  144.4660 C   0  0  0  0  0  0  0  0  0  0  0  0
  193.3980  173.5740  142.5560 N   0  0  0  0  0  0  0  0  0  0  0  0
  188.8270  175.6650  142.3930 C   0  0  0  0  0  2  0  0  0  0  0  0
  189.6920  173.7860  140.6350 O   0  0  0  0  0  0  0  0  0  0  0  0
  195.4070  171.9920  140.7060 N   0  0  0  0  0  1  0  0  0  0  0  0
  190.9880  174.4490  142.5840 C   0  0  0  0  0  0  0  0  0  0  0  0
  193.1930  173.0850  141.3760 C   0  0  0  0  0  0  0  0  0  0  0  0
  186.2870  176.7840  145.9140 C   0  0  0  0  0  2  0  0  0  0  0  0
  186.3450  177.1530  147.2850 O   0  0  0  0  0  0  0  0  0  0  0  0
  185.8780  178.3830  147.7550 C   0  0  0  0  0  0  0  0  0  0  0  0
  186.7930  179.3760  148.3900 C   0  0  0  0  0  1  0  0  0  0  0  0
  184.6580  178.6660  147.6310 O   0  0  0  0  0  0  0  0  0  0  0  0
  1 10  1  0  0  0  0
  2 12  1  0  0  0  0
  4  3  1  0  0  0  0
  5 26  1  0  0  0  0
  6  5  1  0  0  0  0
  6 27  1  0  0  0  0
  7 23  1  6  0  0  0
  7 17  1  0  0  0  0
  9 25  1  0  0  0  0
  9 27  1  0  0  0  0
 10 28  1  6  0  0  0
 11  3  2  0  0  0  0
 12  8  1  0  0  0  0
 12 13  1  0  0  0  0
 13 11  1  6  0  0  0
 14 21  2  0  0  0  0
 15 18  1  0  0  0  0
 15  9  2  0  0  0  0
 16  1  1  0  0  0  0
 17 10  1  0  0  0  0
 17  8  1  1  0  0  0
 18  6  2  0  0  0  0
 19 16  2  0  0  0  0
 19  7  1  0  0  0  0
 20  4  2  0  0  0  0
 21 20  1  0  0  0  0
 21 13  1  0  0  0  0
 22 14  1  0  0  0  0
 23  2  1  0  0  0  0
 24  5  2  0  0  0  0
 26  2  2  0  0  0  0
 26 14  1  0  0  0  0
 27 22  2  0  0  0  0
 28 29  1  0  0  0  0
 29 30  1  0  0  0  0
 30 31  1  0  0  0  0
 32 30  2  0  0  0  0
M  END
>  <MODEL>
9

>  <REMARK>
 VINA RESULT:      -7.6      3.911      8.002
  Name = 
  3 active torsions:
  status: ('A' for Active; 'I' for Inactive)
    1  A    between atoms: C_10  and  C_20
    2  A    between atoms: C_20  and  O_29
    3  A    between atoms: O_29  and  C_30
                            x       y       z     vdW  Elec       q    Type
                         _______ _______ _______ _____ _____    ______ ____

>  <TORSDO>
F 3

$$$$
