=
 OpenBabel11112417413D

 28 32  0  0  1  0  0  0  0  0999 V2000
  186.6730  178.3060  144.7240 C   0  0  0  0  0  0  0  0  0  0  0  0
  189.8490  177.6260  147.3380 O   0  0  0  0  0  0  0  0  0  0  0  0
  187.4790  173.7730  141.5770 O   0  0  0  0  0  0  0  0  0  0  0  0
  185.8380  176.7770  146.9180 C   0  0  0  0  0  3  0  0  0  0  0  0
  189.5750  174.5740  142.2690 N   0  0  0  0  0  0  0  0  0  0  0  0
  187.0480  179.0840  143.4930 C   0  0  0  0  0  2  0  0  0  0  0  0
  190.0140  175.2230  147.8110 O   0  0  0  0  0  0  0  0  0  0  0  0
  190.3870  176.3110  146.8460 S   0  0  0  0  0  0  0  0  0  0  0  0
  192.7280  176.5080  145.4640 C   0  0  0  0  0  0  0  0  0  0  0  0
  189.7030  175.9080  145.2370 C   0  0  2  0  0  3  0  0  0  0  0  0
  184.6740  177.4340  141.2760 O   0  0  0  0  0  1  0  0  0  0  0  0
  188.8860  176.7080  143.1000 C   0  0  1  0  0  3  0  0  0  0  0  0
  191.9680  176.3250  144.2710 N   0  0  0  0  0  2  0  0  0  0  0  0
  192.1040  176.4070  146.7380 N   0  0  0  0  0  2  0  0  0  0  0  0
  185.7630  177.5050  142.1430 C   0  0  1  0  0  3  0  0  0  0  0  0
  187.5080  177.2730  145.2140 C   0  0  0  0  0  0  0  0  0  0  0  0
  188.1800  174.6810  142.0970 C   0  0  0  0  0  0  0  0  0  0  0  0
  194.2840  176.9870  145.3640 S   0  0  0  0  0  0  0  0  0  0  0  0
  186.9350  176.7440  141.5390 C   0  0  0  0  0  2  0  0  0  0  0  0
  187.0650  176.5110  146.3090 C   0  0  0  0  0  3  0  0  0  0  0  0
  185.4480  178.5720  145.3490 C   0  0  0  0  0  3  0  0  0  0  0  0
  185.0330  177.8120  146.4420 C   0  0  0  0  0  3  0  0  0  0  0  0
  186.0890  178.9130  142.3940 N   0  0  0  0  0  2  0  0  0  0  0  0
  190.1020  175.7950  142.8450 C   0  0  1  0  0  3  0  0  0  0  0  0
  187.6330  175.9460  142.6280 C   0  0  2  0  0  3  0  0  0  0  0  0
  190.7530  175.5170  144.1940 C   0  0  2  0  0  3  0  0  0  0  0  0
  190.3960  173.5040  141.7290 C   0  0  0  0  0  1  0  0  0  0  0  0
  188.8830  177.0210  144.6020 C   0  0  1  0  0  3  0  0  0  0  0  0
  1 16  2  0  0  0  0
  1 21  1  0  0  0  0
  3 17  2  0  0  0  0
  5 24  1  0  0  0  0
  6  1  1  0  0  0  0
  8  2  2  0  0  0  0
  8  7  2  0  0  0  0
  9 14  1  0  0  0  0
 10  8  1  1  0  0  0
 11 15  1  0  0  0  0
 12 28  1  0  0  0  0
 13  9  1  0  0  0  0
 14  8  1  0  0  0  0
 15 23  1  0  0  0  0
 16 20  1  0  0  0  0
 17  5  1  0  0  0  0
 17 25  1  0  0  0  0
 18  9  2  0  0  0  0
 19 15  1  0  0  0  0
 19 25  1  0  0  0  0
 20  4  2  0  0  0  0
 21 22  2  0  0  0  0
 22  4  1  0  0  0  0
 23  6  1  0  0  0  0
 24 12  1  0  0  0  0
 24 26  1  0  0  0  0
 25 12  1  0  0  0  0
 26 13  1  0  0  0  0
 26 10  1  0  0  0  0
 27  5  1  0  0  0  0
 28 16  1  0  0  0  0
 28 10  1  0  0  0  0
M  END
>  <MODEL>
1

>  <REMARK>
 VINA RESULT:      -8.8      0.000      0.000
  Name = 
  0 active torsions:
  status: ('A' for Active; 'I' for Inactive)
                            x       y       z     vdW  Elec       q    Type
                         _______ _______ _______ _____ _____    ______ ____

>  <TORSDO>
F 0

$$$$
=
 OpenBabel11112417413D

 28 32  0  0  1  0  0  0  0  0999 V2000
  188.4410  175.7430  146.1690 C   0  0  0  0  0  0  0  0  0  0  0  0
  187.0420  174.9040  142.3320 O   0  0  0  0  0  0  0  0  0  0  0  0
  193.4750  177.5690  144.6080 O   0  0  0  0  0  0  0  0  0  0  0  0
  187.1610  177.9800  145.0730 C   0  0  0  0  0  3  0  0  0  0  0  0
  192.8320  175.8390  143.1560 N   0  0  0  0  0  0  0  0  0  0  0  0
  189.1830  174.6050  146.8140 C   0  0  0  0  0  2  0  0  0  0  0  0
  187.8270  176.6370  140.7820 O   0  0  0  0  0  0  0  0  0  0  0  0
  188.1900  175.3540  141.4720 S   0  0  0  0  0  0  0  0  0  0  0  0
  189.6630  173.3180  140.4190 C   0  0  0  0  0  0  0  0  0  0  0  0
  189.6570  175.6340  142.4670 C   0  0  2  0  0  3  0  0  0  0  0  0
  191.5010  176.6930  148.6950 O   0  0  0  0  0  1  0  0  0  0  0  0
  190.9720  174.9970  144.4010 C   0  0  1  0  0  3  0  0  0  0  0  0
  190.6540  173.6050  141.4040 N   0  0  0  0  0  2  0  0  0  0  0  0
  188.5160  174.1470  140.2870 N   0  0  0  0  0  2  0  0  0  0  0  0
  190.8990  176.1810  147.5470 C   0  0  1  0  0  3  0  0  0  0  0  0
  188.6570  176.0750  144.8100 C   0  0  0  0  0  0  0  0  0  0  0  0
  192.7010  176.6150  144.3250 C   0  0  0  0  0  0  0  0  0  0  0  0
  189.7700  171.9450  139.5450 S   0  0  0  0  0  0  0  0  0  0  0  0
  191.9780  175.7970  146.5430 C   0  0  0  0  0  2  0  0  0  0  0  0
  188.0130  177.2070  144.2830 C   0  0  0  0  0  3  0  0  0  0  0  0
  187.5760  176.5190  146.9510 C   0  0  0  0  0  3  0  0  0  0  0  0
  186.9370  177.6320  146.4040 C   0  0  0  0  0  3  0  0  0  0  0  0
  190.0540  175.0400  147.9140 N   0  0  0  0  0  2  0  0  0  0  0  0
  191.8320  174.7910  143.1370 C   0  0  1  0  0  3  0  0  0  0  0  0
  191.5420  176.2180  145.1490 C   0  0  2  0  0  3  0  0  0  0  0  0
  190.9130  174.9440  141.9320 C   0  0  2  0  0  3  0  0  0  0  0  0
  193.9500  175.9190  142.2290 C   0  0  0  0  0  1  0  0  0  0  0  0
  189.5290  175.1960  143.9180 C   0  0  1  0  0  3  0  0  0  0  0  0
  1  6  1  0  0  0  0
  1 21  1  0  0  0  0
  4 22  1  0  0  0  0
  5 17  1  0  0  0  0
  6 23  1  0  0  0  0
  7  8  2  0  0  0  0
  8  2  2  0  0  0  0
  9 13  1  0  0  0  0
 10  8  1  6  0  0  0
 10 28  1  0  0  0  0
 12 25  1  0  0  0  0
 13 26  1  0  0  0  0
 14  9  1  0  0  0  0
 14  8  1  0  0  0  0
 15 23  1  0  0  0  0
 15 11  1  0  0  0  0
 16  1  2  0  0  0  0
 17  3  2  0  0  0  0
 17 25  1  0  0  0  0
 18  9  2  0  0  0  0
 19 15  1  0  0  0  0
 20 16  1  0  0  0  0
 20  4  2  0  0  0  0
 22 21  2  0  0  0  0
 24  5  1  0  0  0  0
 24 12  1  0  0  0  0
 25 19  1  0  0  0  0
 26 10  1  0  0  0  0
 26 24  1  0  0  0  0
 27  5  1  0  0  0  0
 28 12  1  0  0  0  0
 28 16  1  0  0  0  0
M  END
>  <MODEL>
2

>  <REMARK>
 VINA RESULT:      -8.2      2.726      5.526
  Name = 
  0 active torsions:
  status: ('A' for Active; 'I' for Inactive)
                            x       y       z     vdW  Elec       q    Type
                         _______ _______ _______ _____ _____    ______ ____

>  <TORSDO>
F 0

$$$$
=
 OpenBabel11112417413D

 28 32  0  0  1  0  0  0  0  0999 V2000
  189.1640  176.6730  145.3170 C   0  0  0  0  0  0  0  0  0  0  0  0
  193.0900  176.0080  146.5510 O   0  0  0  0  0  0  0  0  0  0  0  0
  189.2640  173.1410  141.0010 O   0  0  0  0  0  0  0  0  0  0  0  0
  189.2740  174.5840  147.1790 C   0  0  0  0  0  3  0  0  0  0  0  0
  191.3860  174.1270  141.2000 N   0  0  0  0  0  0  0  0  0  0  0  0
  189.0210  177.7530  144.2790 C   0  0  0  0  0  2  0  0  0  0  0  0
  193.6290  173.6270  146.3030 O   0  0  0  0  0  0  0  0  0  0  0  0
  193.5470  174.9460  145.5900 S   0  0  0  0  0  0  0  0  0  0  0  0
  195.2460  175.8440  143.6580 C   0  0  0  0  0  0  0  0  0  0  0  0
  192.3950  174.7880  144.2240 C   0  0  2  0  0  3  0  0  0  0  0  0
  186.1970  176.2340  142.5500 O   0  0  0  0  0  1  0  0  0  0  0  0
  190.8270  175.8770  142.7310 C   0  0  1  0  0  3  0  0  0  0  0  0
  194.1450  175.7940  142.7520 N   0  0  0  0  0  2  0  0  0  0  0  0
  195.1070  175.3620  144.9880 N   0  0  0  0  0  2  0  0  0  0  0  0
  187.5050  176.3040  143.0270 C   0  0  1  0  0  3  0  0  0  0  0  0
  190.2080  175.7210  145.2360 C   0  0  0  0  0  0  0  0  0  0  0  0
  190.0120  174.0240  141.5000 C   0  0  0  0  0  0  0  0  0  0  0  0
  196.6230  176.5970  143.2130 S   0  0  0  0  0  0  0  0  0  0  0  0
  188.4660  175.9080  141.9130 C   0  0  0  0  0  2  0  0  0  0  0  0
  190.2390  174.6750  146.1750 C   0  0  0  0  0  3  0  0  0  0  0  0
  188.2060  176.5790  146.3350 C   0  0  0  0  0  3  0  0  0  0  0  0
  188.2620  175.5400  147.2640 C   0  0  0  0  0  3  0  0  0  0  0  0
  187.7640  177.6590  143.5250 N   0  0  0  0  0  2  0  0  0  0  0  0
  191.9620  175.2670  141.8840 C   0  0  1  0  0  3  0  0  0  0  0  0
  189.5650  175.0280  142.4860 C   0  0  2  0  0  3  0  0  0  0  0  0
  193.0570  174.8220  142.8440 C   0  0  2  0  0  3  0  0  0  0  0  0
  192.0690  173.3600  140.1720 C   0  0  0  0  0  1  0  0  0  0  0  0
  191.3080  175.8510  144.1880 C   0  0  1  0  0  3  0  0  0  0  0  0
  1 21  1  0  0  0  0
  3 17  2  0  0  0  0
  4 22  1  0  0  0  0
  5 17  1  0  0  0  0
  5 24  1  0  0  0  0
  6  1  1  0  0  0  0
  8  7  2  0  0  0  0
  8  2  2  0  0  0  0
  9 14  1  0  0  0  0
 10  8  1  1  0  0  0
 11 15  1  0  0  0  0
 12 28  1  0  0  0  0
 13 26  1  0  0  0  0
 13  9  1  0  0  0  0
 14  8  1  0  0  0  0
 15 23  1  0  0  0  0
 16  1  2  0  0  0  0
 16 20  1  0  0  0  0
 17 25  1  0  0  0  0
 18  9  2  0  0  0  0
 19 25  1  0  0  0  0
 19 15  1  0  0  0  0
 20  4  2  0  0  0  0
 21 22  2  0  0  0  0
 23  6  1  0  0  0  0
 24 12  1  0  0  0  0
 24 26  1  0  0  0  0
 25 12  1  0  0  0  0
 26 10  1  0  0  0  0
 27  5  1  0  0  0  0
 28 10  1  0  0  0  0
 28 16  1  0  0  0  0
M  END
>  <MODEL>
3

>  <REMARK>
 VINA RESULT:      -7.9      2.300      2.963
  Name = 
  0 active torsions:
  status: ('A' for Active; 'I' for Inactive)
                            x       y       z     vdW  Elec       q    Type
                         _______ _______ _______ _____ _____    ______ ____

>  <TORSDO>
F 0

$$$$
=
 OpenBabel11112417413D

 28 32  0  0  1  0  0  0  0  0999 V2000
  188.8080  175.3630  145.7980 C   0  0  0  0  0  0  0  0  0  0  0  0
  187.8610  173.4900  142.1960 O   0  0  0  0  0  0  0  0  0  0  0  0
  194.0220  176.7770  144.4100 O   0  0  0  0  0  0  0  0  0  0  0  0
  187.7060  177.1970  143.9910 C   0  0  0  0  0  3  0  0  0  0  0  0
  193.5280  174.7070  143.4170 N   0  0  0  0  0  0  0  0  0  0  0  0
  189.4490  174.4550  146.8120 C   0  0  0  0  0  2  0  0  0  0  0  0
  188.8540  174.7490  140.3380 O   0  0  0  0  0  0  0  0  0  0  0  0
  189.1110  173.7080  141.3890 S   0  0  0  0  0  0  0  0  0  0  0  0
  190.6640  171.4860  141.1120 C   0  0  0  0  0  0  0  0  0  0  0  0
  190.4540  174.2720  142.4370 C   0  0  2  0  0  3  0  0  0  0  0  0
  191.5620  177.0130  148.3160 O   0  0  0  0  0  1  0  0  0  0  0  0
  191.5180  174.2060  144.6130 C   0  0  1  0  0  3  0  0  0  0  0  0
  191.5350  172.0470  142.0920 N   0  0  0  0  0  2  0  0  0  0  0  0
  189.5550  172.2290  140.6240 N   0  0  0  0  0  2  0  0  0  0  0  0
  191.0920  176.1990  147.2880 C   0  0  1  0  0  3  0  0  0  0  0  0
  189.1900  175.3160  144.4360 C   0  0  0  0  0  0  0  0  0  0  0  0
  193.2720  175.7700  144.3070 C   0  0  0  0  0  0  0  0  0  0  0  0
  190.8510  169.9290  140.6640 S   0  0  0  0  0  0  0  0  0  0  0  0
  192.2760  175.5740  146.5620 C   0  0  0  0  0  2  0  0  0  0  0  0
  188.6320  176.2520  143.5480 C   0  0  0  0  0  3  0  0  0  0  0  0
  187.8690  176.3090  146.2310 C   0  0  0  0  0  3  0  0  0  0  0  0
  187.3190  177.2210  145.3300 C   0  0  0  0  0  3  0  0  0  0  0  0
  190.1910  175.1870  147.8470 N   0  0  0  0  0  2  0  0  0  0  0  0
  192.5190  173.6770  143.5650 C   0  0  1  0  0  3  0  0  0  0  0  0
  192.0160  175.5930  145.0650 C   0  0  2  0  0  3  0  0  0  0  0  0
  191.7530  173.4820  142.2640 C   0  0  2  0  0  3  0  0  0  0  0  0
  194.7480  174.5500  142.6440 C   0  0  0  0  0  1  0  0  0  0  0  0
  190.1460  174.2420  143.9270 C   0  0  1  0  0  3  0  0  0  0  0  0
  1 21  1  0  0  0  0
  1  6  1  0  0  0  0
  4 22  1  0  0  0  0
  5 24  1  0  0  0  0
  5 17  1  0  0  0  0
  6 23  1  0  0  0  0
  7  8  2  0  0  0  0
  8  2  2  0  0  0  0
  9 13  1  0  0  0  0
 10  8  1  6  0  0  0
 10 28  1  0  0  0  0
 12 25  1  0  0  0  0
 13 26  1  0  0  0  0
 14  9  1  0  0  0  0
 14  8  1  0  0  0  0
 15 23  1  0  0  0  0
 15 11  1  0  0  0  0
 16  1  2  0  0  0  0
 17  3  2  0  0  0  0
 17 25  1  0  0  0  0
 18  9  2  0  0  0  0
 19 15  1  0  0  0  0
 20  4  2  0  0  0  0
 20 16  1  0  0  0  0
 22 21  2  0  0  0  0
 24 12  1  0  0  0  0
 25 19  1  0  0  0  0
 26 10  1  0  0  0  0
 26 24  1  0  0  0  0
 27  5  1  0  0  0  0
 28 16  1  0  0  0  0
 28 12  1  0  0  0  0
M  END
>  <MODEL>
4

>  <REMARK>
 VINA RESULT:      -7.6      3.067      5.797
  Name = 
  0 active torsions:
  status: ('A' for Active; 'I' for Inactive)
                            x       y       z     vdW  Elec       q    Type
                         _______ _______ _______ _____ _____    ______ ____

>  <TORSDO>
F 0

$$$$
=
 OpenBabel11112417413D

 28 32  0  0  1  0  0  0  0  0999 V2000
  190.0440  177.4180  144.4980 C   0  0  0  0  0  0  0  0  0  0  0  0
  194.1040  177.4360  145.4430 O   0  0  0  0  0  0  0  0  0  0  0  0
  189.8260  172.1110  142.7970 O   0  0  0  0  0  0  0  0  0  0  0  0
  190.4400  176.6680  147.1670 C   0  0  0  0  0  3  0  0  0  0  0  0
  191.9140  172.9970  142.1900 N   0  0  0  0  0  0  0  0  0  0  0  0
  189.7450  177.7670  143.0660 C   0  0  0  0  0  2  0  0  0  0  0  0
  194.7120  175.2880  146.4620 O   0  0  0  0  0  0  0  0  0  0  0  0
  194.4990  176.0120  145.1640 S   0  0  0  0  0  0  0  0  0  0  0  0
  195.9410  175.6810  142.8760 C   0  0  0  0  0  0  0  0  0  0  0  0
  193.2150  175.1660  144.2400 C   0  0  2  0  0  3  0  0  0  0  0  0
  186.8180  175.6200  142.7640 O   0  0  0  0  0  1  0  0  0  0  0  0
  191.4510  175.3100  142.5840 C   0  0  1  0  0  3  0  0  0  0  0  0
  194.7530  175.1740  142.2720 N   0  0  0  0  0  2  0  0  0  0  0  0
  195.9670  175.9990  144.2610 N   0  0  0  0  0  2  0  0  0  0  0  0
  188.1650  175.9070  142.9750 C   0  0  1  0  0  3  0  0  0  0  0  0
  191.1120  176.5490  144.8280 C   0  0  0  0  0  0  0  0  0  0  0  0
  190.5860  173.1050  142.6510 C   0  0  0  0  0  0  0  0  0  0  0  0
  197.2290  176.0410  141.9420 S   0  0  0  0  0  0  0  0  0  0  0  0
  189.0170  174.9480  142.1520 C   0  0  0  0  0  2  0  0  0  0  0  0
  191.2870  176.1780  146.1720 C   0  0  0  0  0  3  0  0  0  0  0  0
  189.2060  177.9130  145.5060 C   0  0  0  0  0  3  0  0  0  0  0  0
  189.4050  177.5410  146.8360 C   0  0  0  0  0  3  0  0  0  0  0  0
  188.4200  177.3090  142.6290 N   0  0  0  0  0  2  0  0  0  0  0  0
  192.5130  174.3120  142.0790 C   0  0  1  0  0  3  0  0  0  0  0  0
  190.2060  174.4930  142.9810 C   0  0  2  0  0  3  0  0  0  0  0  0
  193.7220  174.4330  142.9970 C   0  0  2  0  0  3  0  0  0  0  0  0
  192.5140  171.7800  141.6700 C   0  0  0  0  0  1  0  0  0  0  0  0
  192.0860  176.0660  143.7590 C   0  0  1  0  0  3  0  0  0  0  0  0
  1 16  2  0  0  0  0
  1 21  1  0  0  0  0
  5 17  1  0  0  0  0
  6  1  1  0  0  0  0
  8  2  2  0  0  0  0
  8  7  2  0  0  0  0
  9 14  1  0  0  0  0
 10  8  1  6  0  0  0
 11 15  1  0  0  0  0
 12 25  1  0  0  0  0
 12 28  1  0  0  0  0
 13  9  1  0  0  0  0
 13 26  1  0  0  0  0
 14  8  1  0  0  0  0
 16 20  1  0  0  0  0
 17  3  2  0  0  0  0
 17 25  1  0  0  0  0
 18  9  2  0  0  0  0
 19 15  1  0  0  0  0
 19 25  1  0  0  0  0
 20  4  2  0  0  0  0
 21 22  2  0  0  0  0
 22  4  1  0  0  0  0
 23 15  1  0  0  0  0
 23  6  1  0  0  0  0
 24  5  1  0  0  0  0
 24 12  1  0  0  0  0
 24 26  1  0  0  0  0
 26 10  1  0  0  0  0
 27  5  1  0  0  0  0
 28 10  1  0  0  0  0
 28 16  1  0  0  0  0
M  END
>  <MODEL>
5

>  <REMARK>
 VINA RESULT:      -7.3      2.877      3.680
  Name = 
  0 active torsions:
  status: ('A' for Active; 'I' for Inactive)
                            x       y       z     vdW  Elec       q    Type
                         _______ _______ _______ _____ _____    ______ ____

>  <TORSDO>
F 0

$$$$
=
 OpenBabel11112417413D

 28 32  0  0  1  0  0  0  0  0999 V2000
  186.9820  176.8780  143.3990 C   0  0  0  0  0  0  0  0  0  0  0  0
  190.0110  174.6400  141.6110 O   0  0  0  0  0  0  0  0  0  0  0  0
  189.8660  178.2920  147.9590 O   0  0  0  0  0  0  0  0  0  0  0  0
  188.5660  178.4980  141.7530 C   0  0  0  0  0  3  0  0  0  0  0  0
  190.5030  176.1230  147.3240 N   0  0  0  0  0  0  0  0  0  0  0  0
  186.1100  176.0900  144.3380 C   0  0  0  0  0  2  0  0  0  0  0  0
  192.1710  175.7410  141.9940 O   0  0  0  0  0  0  0  0  0  0  0  0
  191.1460  174.8130  142.5810 S   0  0  0  0  0  0  0  0  0  0  0  0
  191.6480  172.6180  144.1160 C   0  0  0  0  0  0  0  0  0  0  0  0
  190.5600  175.5120  144.1260 C   0  0  2  0  0  3  0  0  0  0  0  0
  185.4690  178.8380  146.6420 O   0  0  0  0  0  1  0  0  0  0  0  0
  188.7630  175.6860  145.7430 C   0  0  1  0  0  3  0  0  0  0  0  0
  190.9970  173.2940  145.1890 N   0  0  0  0  0  2  0  0  0  0  0  0
  191.8750  173.2800  142.8780 N   0  0  0  0  0  2  0  0  0  0  0  0
  186.2550  177.9160  145.9540 C   0  0  1  0  0  3  0  0  0  0  0  0
  188.3880  176.7100  143.3990 C   0  0  0  0  0  0  0  0  0  0  0  0
  189.6720  177.2600  147.2630 C   0  0  0  0  0  0  0  0  0  0  0  0
  191.9960  171.0310  144.2560 S   0  0  0  0  0  0  0  0  0  0  0  0
  187.2220  177.2560  146.9280 C   0  0  0  0  0  2  0  0  0  0  0  0
  189.1650  177.5400  142.5730 C   0  0  0  0  0  3  0  0  0  0  0  0
  186.3900  177.8350  142.5640 C   0  0  0  0  0  3  0  0  0  0  0  0
  187.1790  178.6400  141.7430 C   0  0  0  0  0  3  0  0  0  0  0  0
  185.3840  176.9380  145.2930 N   0  0  0  0  0  2  0  0  0  0  0  0
  189.9960  175.0860  146.4480 C   0  0  1  0  0  3  0  0  0  0  0  0
  188.5860  177.1230  146.2710 C   0  0  2  0  0  3  0  0  0  0  0  0
  191.0150  174.7450  145.3690 C   0  0  2  0  0  3  0  0  0  0  0  0
  191.5660  175.9260  148.2950 C   0  0  0  0  0  1  0  0  0  0  0  0
  189.0460  175.6180  144.2360 C   0  0  1  0  0  3  0  0  0  0  0  0
  1 16  1  0  0  0  0
  1  6  1  0  0  0  0
  2  8  2  0  0  0  0
  4 20  1  0  0  0  0
  5 27  1  0  0  0  0
  6 23  1  0  0  0  0
  7  8  2  0  0  0  0
  8 14  1  0  0  0  0
  9 18  2  0  0  0  0
  9 13  1  0  0  0  0
 10  8  1  6  0  0  0
 10 28  1  0  0  0  0
 10 26  1  0  0  0  0
 12 25  1  0  0  0  0
 12 24  1  0  0  0  0
 13 26  1  0  0  0  0
 14  9  1  0  0  0  0
 15 11  1  0  0  0  0
 15 19  1  0  0  0  0
 16 28  1  0  0  0  0
 17  5  1  0  0  0  0
 17  3  2  0  0  0  0
 20 16  2  0  0  0  0
 21  1  2  0  0  0  0
 22  4  2  0  0  0  0
 22 21  1  0  0  0  0
 23 15  1  0  0  0  0
 24  5  1  0  0  0  0
 25 19  1  0  0  0  0
 25 17  1  0  0  0  0
 26 24  1  0  0  0  0
 28 12  1  0  0  0  0
M  END
>  <MODEL>
6

>  <REMARK>
 VINA RESULT:      -7.2      2.668      4.716
  Name = 
  0 active torsions:
  status: ('A' for Active; 'I' for Inactive)
                            x       y       z     vdW  Elec       q    Type
                         _______ _______ _______ _____ _____    ______ ____

>  <TORSDO>
F 0

$$$$
=
 OpenBabel11112417413D

 28 32  0  0  1  0  0  0  0  0999 V2000
  189.1110  176.0190  144.8820 C   0  0  0  0  0  0  0  0  0  0  0  0
  190.2040  173.4150  141.8160 O   0  0  0  0  0  0  0  0  0  0  0  0
  194.2940  177.1820  146.5840 O   0  0  0  0  0  0  0  0  0  0  0  0
  189.4630  177.4150  142.4790 C   0  0  0  0  0  3  0  0  0  0  0  0
  194.2320  174.9420  145.8810 N   0  0  0  0  0  0  0  0  0  0  0  0
  188.9470  175.3550  146.2220 C   0  0  0  0  0  2  0  0  0  0  0  0
  192.2180  174.2680  140.7020 O   0  0  0  0  0  0  0  0  0  0  0  0
  191.7050  173.4760  141.8700 S   0  0  0  0  0  0  0  0  0  0  0  0
  192.8730  171.2670  142.9590 C   0  0  0  0  0  0  0  0  0  0  0  0
  192.2540  174.2660  143.3840 C   0  0  2  0  0  3  0  0  0  0  0  0
  190.0820  178.2020  148.1900 O   0  0  0  0  0  1  0  0  0  0  0  0
  191.8590  174.6760  145.7400 C   0  0  1  0  0  3  0  0  0  0  0  0
  193.0790  172.0340  144.1430 N   0  0  0  0  0  2  0  0  0  0  0  0
  192.3390  171.8750  141.7900 N   0  0  0  0  0  2  0  0  0  0  0  0
  190.2010  177.1830  147.2470 C   0  0  1  0  0  3  0  0  0  0  0  0
  190.1990  175.6910  144.0370 C   0  0  0  0  0  0  0  0  0  0  0  0
  193.6320  176.1650  146.2440 C   0  0  0  0  0  0  0  0  0  0  0  0
  193.1070  169.6530  142.9920 S   0  0  0  0  0  0  0  0  0  0  0  0
  191.5080  176.4360  147.4790 C   0  0  0  0  0  2  0  0  0  0  0  0
  190.3620  176.4110  142.8410 C   0  0  0  0  0  3  0  0  0  0  0  0
  188.2080  177.0220  144.5060 C   0  0  0  0  0  3  0  0  0  0  0  0
  188.3820  177.7150  143.3080 C   0  0  0  0  0  3  0  0  0  0  0  0
  189.0340  176.2990  147.3440 N   0  0  0  0  0  2  0  0  0  0  0  0
  193.2130  173.9530  145.5920 C   0  0  1  0  0  3  0  0  0  0  0  0
  192.1600  176.1340  146.1400 C   0  0  2  0  0  3  0  0  0  0  0  0
  193.3180  173.4770  144.1490 C   0  0  2  0  0  3  0  0  0  0  0  0
  195.6480  174.6430  146.0120 C   0  0  0  0  0  1  0  0  0  0  0  0
  191.1450  174.5480  144.3870 C   0  0  1  0  0  3  0  0  0  0  0  0
  1  6  1  0  0  0  0
  2  8  2  0  0  0  0
  4 20  2  0  0  0  0
  4 22  1  0  0  0  0
  5 27  1  0  0  0  0
  5 17  1  0  0  0  0
  6 23  1  0  0  0  0
  7  8  2  0  0  0  0
  9 18  2  0  0  0  0
  9 13  1  0  0  0  0
 10  8  1  6  0  0  0
 10 26  1  0  0  0  0
 10 28  1  0  0  0  0
 12 25  1  0  0  0  0
 13 26  1  0  0  0  0
 14  8  1  0  0  0  0
 14  9  1  0  0  0  0
 15 23  1  0  0  0  0
 15 19  1  0  0  0  0
 15 11  1  0  0  0  0
 16 28  1  0  0  0  0
 16  1  2  0  0  0  0
 17  3  2  0  0  0  0
 20 16  1  0  0  0  0
 21  1  1  0  0  0  0
 22 21  2  0  0  0  0
 24 12  1  0  0  0  0
 24  5  1  0  0  0  0
 25 17  1  0  0  0  0
 25 19  1  0  0  0  0
 26 24  1  0  0  0  0
 28 12  1  0  0  0  0
M  END
>  <MODEL>
7

>  <REMARK>
 VINA RESULT:      -7.1      3.221      5.904
  Name = 
  0 active torsions:
  status: ('A' for Active; 'I' for Inactive)
                            x       y       z     vdW  Elec       q    Type
                         _______ _______ _______ _____ _____    ______ ____

>  <TORSDO>
F 0

$$$$
=
 OpenBabel11112417413D

 28 32  0  0  1  0  0  0  0  0999 V2000
  191.8770  175.1450  144.6070 C   0  0  0  0  0  0  0  0  0  0  0  0
  190.0210  174.1310  141.0140 O   0  0  0  0  0  0  0  0  0  0  0  0
  187.1920  176.1190  147.4720 O   0  0  0  0  0  0  0  0  0  0  0  0
  191.3750  172.3910  144.4960 C   0  0  0  0  0  3  0  0  0  0  0  0
  186.8550  176.7990  145.2500 N   0  0  0  0  0  0  0  0  0  0  0  0
  192.1420  176.6170  144.7670 C   0  0  0  0  0  2  0  0  0  0  0  0
  188.0000  172.8200  141.4830 O   0  0  0  0  0  0  0  0  0  0  0  0
  188.5640  174.2080  141.3790 S   0  0  0  0  0  0  0  0  0  0  0  0
  187.2800  176.4010  140.3970 C   0  0  0  0  0  0  0  0  0  0  0  0
  188.3470  175.0340  142.9570 C   0  0  2  0  0  3  0  0  0  0  0  0
  191.6890  176.6840  148.3810 O   0  0  0  0  0  1  0  0  0  0  0  0
  189.1260  176.7290  144.5040 C   0  0  1  0  0  3  0  0  0  0  0  0
  187.3500  176.9550  141.7100 N   0  0  0  0  0  2  0  0  0  0  0  0
  187.7180  175.0720  140.1510 N   0  0  0  0  0  2  0  0  0  0  0  0
  191.3020  176.4870  147.0570 C   0  0  1  0  0  3  0  0  0  0  0  0
  190.6460  174.6800  144.0840 C   0  0  0  0  0  0  0  0  0  0  0  0
  187.6580  176.3830  146.3310 C   0  0  0  0  0  0  0  0  0  0  0  0
  186.8400  177.3490  139.1450 S   0  0  0  0  0  0  0  0  0  0  0  0
  189.9540  177.1560  146.8230 C   0  0  0  0  0  2  0  0  0  0  0  0
  190.4110  173.2950  144.0470 C   0  0  0  0  0  3  0  0  0  0  0  0
  192.8430  174.2290  145.0460 C   0  0  0  0  0  3  0  0  0  0  0  0
  192.5930  172.8580  144.9890 C   0  0  0  0  0  3  0  0  0  0  0  0
  192.3420  177.0140  146.1670 N   0  0  0  0  0  2  0  0  0  0  0  0
  187.6810  177.0740  144.0910 C   0  0  1  0  0  3  0  0  0  0  0  0
  189.0830  176.2500  145.9690 C   0  0  2  0  0  3  0  0  0  0  0  0
  187.3080  176.1570  142.9340 C   0  0  2  0  0  3  0  0  0  0  0  0
  185.4450  177.1380  145.3470 C   0  0  0  0  0  1  0  0  0  0  0  0
  189.6160  175.6550  143.5240 C   0  0  1  0  0  3  0  0  0  0  0  0
  1  6  1  0  0  0  0
  1 21  1  0  0  0  0
  2  8  2  0  0  0  0
  4 22  1  0  0  0  0
  5 27  1  0  0  0  0
  5 17  1  0  0  0  0
  6 23  1  0  0  0  0
  8  7  2  0  0  0  0
  9 13  1  0  0  0  0
 10  8  1  6  0  0  0
 10 28  1  0  0  0  0
 12 25  1  0  0  0  0
 13 26  1  0  0  0  0
 14  9  1  0  0  0  0
 14  8  1  0  0  0  0
 15 11  1  0  0  0  0
 16  1  2  0  0  0  0
 17  3  2  0  0  0  0
 18  9  2  0  0  0  0
 19 15  1  0  0  0  0
 20 16  1  0  0  0  0
 20  4  2  0  0  0  0
 22 21  2  0  0  0  0
 23 15  1  0  0  0  0
 24 12  1  0  0  0  0
 24  5  1  0  0  0  0
 25 17  1  0  0  0  0
 25 19  1  0  0  0  0
 26 10  1  0  0  0  0
 26 24  1  0  0  0  0
 28 16  1  0  0  0  0
 28 12  1  0  0  0  0
M  END
>  <MODEL>
8

>  <REMARK>
 VINA RESULT:      -7.0      2.753      6.392
  Name = 
  0 active torsions:
  status: ('A' for Active; 'I' for Inactive)
                            x       y       z     vdW  Elec       q    Type
                         _______ _______ _______ _____ _____    ______ ____

>  <TORSDO>
F 0

$$$$
=
 OpenBabel11112417413D

 28 32  0  0  1  0  0  0  0  0999 V2000
  193.1180  174.5890  143.0250 C   0  0  0  0  0  0  0  0  0  0  0  0
  189.6710  174.2040  140.7120 O   0  0  0  0  0  0  0  0  0  0  0  0
  190.5160  175.6480  147.8430 O   0  0  0  0  0  0  0  0  0  0  0  0
  192.2370  171.9300  142.9990 C   0  0  0  0  0  3  0  0  0  0  0  0
  189.2760  176.6230  146.1030 N   0  0  0  0  0  0  0  0  0  0  0  0
  193.6330  175.9980  143.1290 C   0  0  0  0  0  2  0  0  0  0  0  0
  187.9430  173.0440  142.0120 O   0  0  0  0  0  0  0  0  0  0  0  0
  188.5830  174.3740  141.7360 S   0  0  0  0  0  0  0  0  0  0  0  0
  187.3150  176.7840  141.6290 C   0  0  0  0  0  0  0  0  0  0  0  0
  189.2520  175.0180  143.2710 C   0  0  2  0  0  3  0  0  0  0  0  0
  194.9420  175.6660  146.5120 O   0  0  0  0  0  1  0  0  0  0  0  0
  190.8970  176.4290  144.3550 C   0  0  1  0  0  3  0  0  0  0  0  0
  188.0700  177.1630  142.7780 N   0  0  0  0  0  2  0  0  0  0  0  0
  187.3930  175.4580  141.1210 N   0  0  0  0  0  2  0  0  0  0  0  0
  193.9560  175.6700  145.5280 C   0  0  1  0  0  3  0  0  0  0  0  0
  191.7340  174.3110  143.1310 C   0  0  0  0  0  0  0  0  0  0  0  0
  190.4240  176.0030  146.6380 C   0  0  0  0  0  0  0  0  0  0  0  0
  186.4790  177.9150  140.8040 S   0  0  0  0  0  0  0  0  0  0  0  0
  192.7660  176.4880  146.0130 C   0  0  0  0  0  2  0  0  0  0  0  0
  191.3140  172.9700  143.1260 C   0  0  0  0  0  3  0  0  0  0  0  0
  194.0350  173.5390  142.8880 C   0  0  0  0  0  3  0  0  0  0  0  0
  193.5960  172.2150  142.8730 C   0  0  0  0  0  3  0  0  0  0  0  0
  194.5200  176.2000  144.2820 N   0  0  0  0  0  2  0  0  0  0  0  0
  189.4920  176.9580  144.7100 C   0  0  1  0  0  3  0  0  0  0  0  0
  191.4770  175.7810  145.6270 C   0  0  2  0  0  3  0  0  0  0  0  0
  188.4940  176.2290  143.8200 C   0  0  2  0  0  3  0  0  0  0  0  0
  188.1410  177.0800  146.8870 C   0  0  0  0  0  1  0  0  0  0  0  0
  190.7110  175.4410  143.1960 C   0  0  1  0  0  3  0  0  0  0  0  0
  1  6  1  0  0  0  0
  1 16  1  0  0  0  0
  2  8  2  0  0  0  0
  4 20  1  0  0  0  0
  5 17  1  0  0  0  0
  5 27  1  0  0  0  0
  6 23  1  0  0  0  0
  8  7  2  0  0  0  0
  9 13  1  0  0  0  0
 10  8  1  6  0  0  0
 10 26  1  0  0  0  0
 12 24  1  0  0  0  0
 12 25  1  0  0  0  0
 13 26  1  0  0  0  0
 14  9  1  0  0  0  0
 14  8  1  0  0  0  0
 15 19  1  0  0  0  0
 15 11  1  0  0  0  0
 16 28  1  0  0  0  0
 17  3  2  0  0  0  0
 18  9  2  0  0  0  0
 20 16  2  0  0  0  0
 21  1  2  0  0  0  0
 22 21  1  0  0  0  0
 22  4  2  0  0  0  0
 23 15  1  0  0  0  0
 24  5  1  0  0  0  0
 25 19  1  0  0  0  0
 25 17  1  0  0  0  0
 26 24  1  0  0  0  0
 28 10  1  0  0  0  0
 28 12  1  0  0  0  0
M  END
>  <MODEL>
9

>  <REMARK>
 VINA RESULT:      -6.8      2.799      6.985
  Name = 
  0 active torsions:
  status: ('A' for Active; 'I' for Inactive)
                            x       y       z     vdW  Elec       q    Type
                         _______ _______ _______ _____ _____    ______ ____

>  <TORSDO>
F 0

$$$$
