=
 OpenBabel11112417123D

 37 43  0  0  1  0  0  0  0  0999 V2000
  193.2080  175.4490  144.1850 C   0  0  0  0  0  2  0  0  0  0  0  0
  192.2110  171.7890  140.6280 C   0  0  0  0  0  0  0  0  0  0  0  0
  189.7180  174.7850  142.1510 C   0  0  0  0  0  0  0  0  0  0  0  0
  194.2230  175.8630  145.2520 C   0  0  2  0  0  3  0  0  0  0  0  0
  189.3100  174.4520  145.7780 C   0  0  0  0  0  2  0  0  0  0  0  0
  190.2190  173.2500  140.3580 C   0  0  0  0  0  0  0  0  0  0  0  0
  190.3130  175.1150  143.4900 C   0  0  1  0  0  3  0  0  0  0  0  0
  192.0570  176.4290  146.6030 C   0  0  2  0  0  3  0  0  0  0  0  0
  190.5020  173.8250  141.5790 C   0  0  0  0  0  0  0  0  0  0  0  0
  189.3650  175.4770  144.6510 C   0  0  1  0  0  3  0  0  0  0  0  0
  189.1140  173.7230  139.6380 C   0  0  0  0  0  3  0  0  0  0  0  0
  193.5880  176.5270  146.4850 C   0  0  0  0  0  2  0  0  0  0  0  0
  191.5100  173.3330  142.4260 N   0  0  0  0  0  0  0  0  0  0  0  0
  193.3920  172.5850  140.0990 C   0  0  0  0  0  1  0  0  0  0  0  0
  187.6210  176.2490  142.0700 C   0  0  0  0  0  2  0  0  0  0  0  0
  188.3070  174.7410  140.1910 C   0  0  0  0  0  3  0  0  0  0  0  0
  192.0880  172.0170  142.1550 C   0  0  0  0  0  2  0  0  0  0  0  0
  191.5580  175.0540  146.7750 N   0  0  1  0  0  0  0  0  0  0  0  0
  190.1070  174.9440  146.9910 C   0  0  0  0  0  2  0  0  0  0  0  0
  188.6000  175.2890  141.4580 C   0  0  0  0  0  0  0  0  0  0  0  0
  191.2240  173.8830  143.7460 C   0  0  1  0  0  3  0  0  0  0  0  0
  191.0170  172.1830  139.9230 O   0  0  0  0  0  0  0  0  0  0  0  0
  188.0060  176.0630  144.2550 C   0  0  2  0  0  3  0  0  0  0  0  0
  192.4720  170.3200  140.3740 C   0  0  0  0  0  1  0  0  0  0  0  0
  192.2190  173.9390  146.0710 C   0  0  0  0  0  2  0  0  0  0  0  0
  191.4260  177.1020  145.5730 F   0  0  0  0  0  0  0  0  0  0  0  0
  192.4760  174.1580  144.5690 C   0  0  2  0  0  3  0  0  0  0  0  0
  188.1650  176.9300  143.1660 O   0  0  0  0  0  0  0  0  0  0  0  0
  188.1610  177.5100  146.3190 C   0  0  0  0  0  3  0  0  0  0  0  0
  187.3760  176.7950  145.4000 C   0  0  0  0  0  0  0  0  0  0  0  0
  185.9880  176.7490  145.5620 C   0  0  0  0  0  3  0  0  0  0  0  0
  184.0390  177.3680  146.7870 F   0  0  0  0  0  0  0  0  0  0  0  0
  186.1670  178.1260  147.5460 C   0  0  0  0  0  3  0  0  0  0  0  0
  185.3850  177.4140  146.6340 C   0  0  0  0  0  0  0  0  0  0  0  0
  187.5560  178.1730  147.3890 C   0  0  0  0  0  3  0  0  0  0  0  0
  195.6980  176.3090  143.3670 N   0  0  0  0  0  1  0  0  0  0  0  0
  195.2520  176.8060  144.6570 C   0  0  0  0  0  2  0  0  0  0  0  0
  1  4  1  0  0  0  0
  2 17  1  0  0  0  0
  4 37  1  6  0  0  0
  4 12  1  0  0  0  0
  5 19  1  0  0  0  0
  6  9  2  0  0  0  0
  7  3  1  6  0  0  0
  7 21  1  0  0  0  0
  7 10  1  0  0  0  0
  8 26  1  6  0  0  0
  8 18  1  0  0  0  0
  9  3  1  0  0  0  0
  9 13  1  0  0  0  0
 10  5  1  6  0  0  0
 11 16  2  0  0  0  0
 11  6  1  0  0  0  0
 12  8  1  0  0  0  0
 14  2  1  0  0  0  0
 15 28  1  0  0  0  0
 16 20  1  0  0  0  0
 17 13  1  0  0  0  0
 18 25  1  6  0  0  0
 18 19  1  0  0  0  0
 20 15  1  0  0  0  0
 20  3  2  0  0  0  0
 21 13  1  6  0  0  0
 21 27  1  0  0  0  0
 22  6  1  0  0  0  0
 22  2  1  0  0  0  0
 23 10  1  0  0  0  0
 23 30  1  1  0  0  0
 24  2  1  0  0  0  0
 27  1  1  1  0  0  0
 27 25  1  0  0  0  0
 28 23  1  0  0  0  0
 29 35  1  0  0  0  0
 30 31  1  0  0  0  0
 30 29  2  0  0  0  0
 31 34  2  0  0  0  0
 34 32  1  0  0  0  0
 34 33  1  0  0  0  0
 35 33  2  0  0  0  0
 36 37  1  0  0  0  0
M  END
>  <MODEL>
1

>  <REMARK>
 VINA RESULT:      -9.0      0.000      0.000
  Name = 
  2 active torsions:
  status: ('A' for Active; 'I' for Inactive)
    1  A    between atoms: C_4  and  C_37
    2  A    between atoms: C_23  and  C_30
                            x       y       z     vdW  Elec       q    Type
                         _______ _______ _______ _____ _____    ______ ____

>  <TORSDO>
F 2

$$$$
=
 OpenBabel11112417123D

 37 43  0  0  1  0  0  0  0  0999 V2000
  191.1320  172.8440  142.5960 C   0  0  0  0  0  2  0  0  0  0  0  0
  195.7630  175.1170  143.2530 C   0  0  0  0  0  0  0  0  0  0  0  0
  192.1280  175.8470  145.1940 C   0  0  0  0  0  0  0  0  0  0  0  0
  190.3550  171.9200  141.6580 C   0  0  2  0  0  3  0  0  0  0  0  0
  189.5340  176.8590  142.8110 C   0  0  0  0  0  2  0  0  0  0  0  0
  194.5370  175.9870  145.2320 C   0  0  0  0  0  0  0  0  0  0  0  0
  191.0890  175.3560  144.2270 C   0  0  1  0  0  3  0  0  0  0  0  0
  188.4300  173.6260  142.1290 C   0  0  2  0  0  3  0  0  0  0  0  0
  193.3510  175.6140  144.6340 C   0  0  0  0  0  0  0  0  0  0  0  0
  189.7540  176.1210  144.1260 C   0  0  1  0  0  3  0  0  0  0  0  0
  194.4880  176.5690  146.5060 C   0  0  0  0  0  3  0  0  0  0  0  0
  188.8620  172.2730  141.5390 C   0  0  0  0  0  2  0  0  0  0  0  0
  193.2920  175.1410  143.3120 N   0  0  0  0  0  0  0  0  0  0  0  0
  195.9780  173.6350  143.5100 C   0  0  0  0  0  1  0  0  0  0  0  0
  190.7310  176.8290  147.1000 C   0  0  0  0  0  2  0  0  0  0  0  0
  193.2360  176.7880  147.1230 C   0  0  0  0  0  3  0  0  0  0  0  0
  194.4570  175.3090  142.4440 C   0  0  0  0  0  2  0  0  0  0  0  0
  189.0180  174.7910  141.4450 N   0  0  1  0  0  0  0  0  0  0  0  0
  188.5420  176.0970  141.9270 C   0  0  0  0  0  2  0  0  0  0  0  0
  192.0360  176.4270  146.4750 C   0  0  0  0  0  0  0  0  0  0  0  0
  191.8980  175.2730  142.9040 C   0  0  1  0  0  3  0  0  0  0  0  0
  195.7280  175.8170  144.5130 O   0  0  0  0  0  0  0  0  0  0  0  0
  189.3270  176.9010  145.3740 C   0  0  2  0  0  3  0  0  0  0  0  0
  196.9260  175.6340  142.4350 C   0  0  0  0  0  1  0  0  0  0  0  0
  190.4020  174.7250  140.9400 C   0  0  0  0  0  2  0  0  0  0  0  0
  188.6130  173.6620  143.5000 F   0  0  0  0  0  0  0  0  0  0  0  0
  191.4500  174.1880  141.9330 C   0  0  2  0  0  3  0  0  0  0  0  0
  189.6430  176.1640  146.5230 O   0  0  0  0  0  0  0  0  0  0  0  0
  186.9490  176.4100  146.0670 C   0  0  0  0  0  3  0  0  0  0  0  0
  187.8600  177.2020  145.3510 C   0  0  0  0  0  0  0  0  0  0  0  0
  187.3940  178.2790  144.5900 C   0  0  0  0  0  3  0  0  0  0  0  0
  185.5780  179.6110  143.8070 F   0  0  0  0  0  0  0  0  0  0  0  0
  185.1210  177.7770  145.2590 C   0  0  0  0  0  3  0  0  0  0  0  0
  186.0260  178.5660  144.5450 C   0  0  0  0  0  0  0  0  0  0  0  0
  185.5830  176.6980  146.0200 C   0  0  0  0  0  3  0  0  0  0  0  0
  190.8770  169.6350  140.9990 N   0  0  0  0  0  1  0  0  0  0  0  0
  190.4870  170.4780  142.1150 C   0  0  0  0  0  2  0  0  0  0  0  0
  2 14  1  0  0  0  0
  2 22  1  0  0  0  0
  3 20  1  0  0  0  0
  4 37  1  1  0  0  0
  4  1  1  0  0  0  0
  6 11  2  0  0  0  0
  7  3  1  1  0  0  0
  8 26  1  1  0  0  0
  9  3  2  0  0  0  0
  9  6  1  0  0  0  0
 10  5  1  6  0  0  0
 10  7  1  0  0  0  0
 10 23  1  0  0  0  0
 11 16  1  0  0  0  0
 12  4  1  0  0  0  0
 12  8  1  0  0  0  0
 13  9  1  0  0  0  0
 17  2  1  0  0  0  0
 17 13  1  0  0  0  0
 18 25  1  1  0  0  0
 18 19  1  0  0  0  0
 18  8  1  0  0  0  0
 19  5  1  0  0  0  0
 20 15  1  0  0  0  0
 20 16  2  0  0  0  0
 21 13  1  1  0  0  0
 21  7  1  0  0  0  0
 22  6  1  0  0  0  0
 23 30  1  6  0  0  0
 23 28  1  0  0  0  0
 24  2  1  0  0  0  0
 27 25  1  1  0  0  0
 27  1  1  0  0  0  0
 27 21  1  0  0  0  0
 28 15  1  0  0  0  0
 30 29  2  0  0  0  0
 31 30  1  0  0  0  0
 32 34  1  0  0  0  0
 33 35  2  0  0  0  0
 34 31  2  0  0  0  0
 34 33  1  0  0  0  0
 35 29  1  0  0  0  0
 36 37  1  0  0  0  0
M  END
>  <MODEL>
2

>  <REMARK>
 VINA RESULT:      -9.0      2.451      5.247
  Name = 
  2 active torsions:
  status: ('A' for Active; 'I' for Inactive)
    1  A    between atoms: C_4  and  C_37
    2  A    between atoms: C_23  and  C_30
                            x       y       z     vdW  Elec       q    Type
                         _______ _______ _______ _____ _____    ______ ____

>  <TORSDO>
F 2

$$$$
=
 OpenBabel11112417123D

 37 43  0  0  1  0  0  0  0  0999 V2000
  192.8810  175.7300  144.6050 C   0  0  0  0  0  2  0  0  0  0  0  0
  192.1650  172.0830  140.9670 C   0  0  0  0  0  0  0  0  0  0  0  0
  189.5100  174.9800  142.4060 C   0  0  0  0  0  0  0  0  0  0  0  0
  193.8330  176.1620  145.7210 C   0  0  2  0  0  3  0  0  0  0  0  0
  188.9490  174.5910  146.0070 C   0  0  0  0  0  2  0  0  0  0  0  0
  190.1410  173.4840  140.6220 C   0  0  0  0  0  0  0  0  0  0  0  0
  190.0330  175.3130  143.7740 C   0  0  1  0  0  3  0  0  0  0  0  0
  191.5910  176.6440  146.9780 C   0  0  2  0  0  3  0  0  0  0  0  0
  190.3500  174.0520  141.8610 C   0  0  0  0  0  0  0  0  0  0  0  0
  189.0220  175.6300  144.8950 C   0  0  1  0  0  3  0  0  0  0  0  0
  189.0550  173.9300  139.8570 C   0  0  0  0  0  3  0  0  0  0  0  0
  193.1220  176.7910  146.9310 C   0  0  0  0  0  2  0  0  0  0  0  0
  191.3330  173.5820  142.7480 N   0  0  0  0  0  0  0  0  0  0  0  0
  193.3420  172.9220  140.5010 C   0  0  0  0  0  1  0  0  0  0  0  0
  187.3730  176.3780  142.2460 C   0  0  0  0  0  2  0  0  0  0  0  0
  188.1910  174.9150  140.3830 C   0  0  0  0  0  3  0  0  0  0  0  0
  191.9640  172.2890  142.4890 C   0  0  0  0  0  2  0  0  0  0  0  0
  191.1290  175.2510  147.1120 N   0  0  1  0  0  0  0  0  0  0  0  0
  189.6740  175.0940  147.2600 C   0  0  0  0  0  2  0  0  0  0  0  0
  188.4090  175.4570  141.6680 C   0  0  0  0  0  0  0  0  0  0  0  0
  190.9700  174.1070  144.0590 C   0  0  1  0  0  3  0  0  0  0  0  0
  190.9910  172.4480  140.2120 O   0  0  0  0  0  0  0  0  0  0  0  0
  187.6650  176.1780  144.4430 C   0  0  2  0  0  3  0  0  0  0  0  0
  192.4830  170.6260  140.7090 C   0  0  0  0  0  1  0  0  0  0  0  0
  191.8560  174.1670  146.4280 C   0  0  0  0  0  2  0  0  0  0  0  0
  190.9860  177.3090  145.9270 F   0  0  0  0  0  0  0  0  0  0  0  0
  192.1750  174.4120  144.9410 C   0  0  2  0  0  3  0  0  0  0  0  0
  187.8440  177.0630  143.3720 O   0  0  0  0  0  0  0  0  0  0  0  0
  185.5660  176.7910  145.7070 C   0  0  0  0  0  3  0  0  0  0  0  0
  186.9600  176.8760  145.5660 C   0  0  0  0  0  0  0  0  0  0  0  0
  187.7040  177.6360  146.4750 C   0  0  0  0  0  3  0  0  0  0  0  0
  187.7850  179.0410  148.3990 F   0  0  0  0  0  0  0  0  0  0  0  0
  185.6730  178.2190  147.6590 C   0  0  0  0  0  3  0  0  0  0  0  0
  187.0610  178.3060  147.5200 C   0  0  0  0  0  0  0  0  0  0  0  0
  184.9260  177.4610  146.7520 C   0  0  0  0  0  3  0  0  0  0  0  0
  195.6360  176.5250  144.1250 N   0  0  0  0  0  1  0  0  0  0  0  0
  194.8570  177.1450  145.1840 C   0  0  0  0  0  2  0  0  0  0  0  0
  1  4  1  0  0  0  0
  2 17  1  0  0  0  0
  4 37  1  6  0  0  0
  4 12  1  0  0  0  0
  5 19  1  0  0  0  0
  6  9  2  0  0  0  0
  7  3  1  6  0  0  0
  7 21  1  0  0  0  0
  7 10  1  0  0  0  0
  8 26  1  6  0  0  0
  8 18  1  0  0  0  0
  9  3  1  0  0  0  0
  9 13  1  0  0  0  0
 10  5  1  6  0  0  0
 11 16  2  0  0  0  0
 11  6  1  0  0  0  0
 12  8  1  0  0  0  0
 14  2  1  0  0  0  0
 15 28  1  0  0  0  0
 16 20  1  0  0  0  0
 17 13  1  0  0  0  0
 18 25  1  6  0  0  0
 18 19  1  0  0  0  0
 20 15  1  0  0  0  0
 20  3  2  0  0  0  0
 21 13  1  6  0  0  0
 21 27  1  0  0  0  0
 22  6  1  0  0  0  0
 22  2  1  0  0  0  0
 23 10  1  0  0  0  0
 23 30  1  1  0  0  0
 24  2  1  0  0  0  0
 27  1  1  1  0  0  0
 27 25  1  0  0  0  0
 28 23  1  0  0  0  0
 29 35  1  0  0  0  0
 30 29  2  0  0  0  0
 30 31  1  0  0  0  0
 31 34  2  0  0  0  0
 34 33  1  0  0  0  0
 34 32  1  0  0  0  0
 35 33  2  0  0  0  0
 36 37  1  0  0  0  0
M  END
>  <MODEL>
3

>  <REMARK>
 VINA RESULT:      -8.9      0.878      1.185
  Name = 
  2 active torsions:
  status: ('A' for Active; 'I' for Inactive)
    1  A    between atoms: C_4  and  C_37
    2  A    between atoms: C_23  and  C_30
                            x       y       z     vdW  Elec       q    Type
                         _______ _______ _______ _____ _____    ______ ____

>  <TORSDO>
F 2

$$$$
=
 OpenBabel11112417123D

 37 43  0  0  1  0  0  0  0  0999 V2000
  192.7590  171.8430  141.7770 C   0  0  0  0  0  2  0  0  0  0  0  0
  196.4870  174.7850  139.6580 C   0  0  0  0  0  0  0  0  0  0  0  0
  194.2890  175.3750  143.1700 C   0  0  0  0  0  0  0  0  0  0  0  0
  191.8240  170.6690  141.4840 C   0  0  2  0  0  3  0  0  0  0  0  0
  190.6990  175.5850  142.4660 C   0  0  0  0  0  2  0  0  0  0  0  0
  196.2910  175.8340  141.9020 C   0  0  0  0  0  0  0  0  0  0  0  0
  193.0310  174.5840  142.9550 C   0  0  1  0  0  3  0  0  0  0  0  0
  190.1020  172.1660  142.7620 C   0  0  2  0  0  3  0  0  0  0  0  0
  195.0740  175.2060  142.0650 C   0  0  0  0  0  0  0  0  0  0  0  0
  191.7050  175.1360  143.5180 C   0  0  1  0  0  3  0  0  0  0  0  0
  196.7780  176.6280  142.9490 C   0  0  0  0  0  3  0  0  0  0  0  0
  190.4440  170.7960  142.1510 C   0  0  0  0  0  2  0  0  0  0  0  0
  194.4490  174.4960  141.0260 N   0  0  0  0  0  0  0  0  0  0  0  0
  197.1050  173.4160  139.8870 C   0  0  0  0  0  1  0  0  0  0  0  0
  193.8900  176.4990  145.4340 C   0  0  0  0  0  2  0  0  0  0  0  0
  196.0020  176.7910  144.1180 C   0  0  0  0  0  3  0  0  0  0  0  0
  194.9440  174.6530  139.6590 C   0  0  0  0  0  2  0  0  0  0  0  0
  190.0020  173.2520  141.7720 N   0  0  1  0  0  0  0  0  0  0  0  0
  189.5780  174.5510  142.3190 C   0  0  0  0  0  2  0  0  0  0  0  0
  194.7450  176.1630  144.2460 C   0  0  0  0  0  0  0  0  0  0  0  0
  193.0500  174.3660  141.4170 C   0  0  1  0  0  3  0  0  0  0  0  0
  196.9540  175.6930  140.6760 O   0  0  0  0  0  0  0  0  0  0  0  0
  191.8230  176.0680  144.7280 C   0  0  2  0  0  3  0  0  0  0  0  0
  196.9330  175.2910  138.3040 C   0  0  0  0  0  1  0  0  0  0  0  0
  190.9130  173.2770  140.6130 C   0  0  0  0  0  2  0  0  0  0  0  0
  190.9460  172.4760  143.8130 F   0  0  0  0  0  0  0  0  0  0  0  0
  192.4060  173.0730  140.9340 C   0  0  2  0  0  3  0  0  0  0  0  0
  192.8250  175.6020  145.5890 O   0  0  0  0  0  0  0  0  0  0  0  0
  189.6960  177.2910  145.3260 C   0  0  0  0  0  3  0  0  0  0  0  0
  190.5230  176.1660  145.4660 C   0  0  0  0  0  0  0  0  0  0  0  0
  190.1410  175.1260  146.3200 C   0  0  0  0  0  3  0  0  0  0  0  0
  188.5700  174.1970  147.8540 F   0  0  0  0  0  0  0  0  0  0  0  0
  188.1150  176.3270  146.8860 C   0  0  0  0  0  3  0  0  0  0  0  0
  188.9380  175.2070  147.0280 C   0  0  0  0  0  0  0  0  0  0  0  0
  188.4950  177.3700  146.0350 C   0  0  0  0  0  3  0  0  0  0  0  0
  192.6920  169.3780  143.3570 N   0  0  0  0  0  1  0  0  0  0  0  0
  192.4670  169.3660  141.9220 C   0  0  0  0  0  2  0  0  0  0  0  0
  2 17  1  0  0  0  0
  2 14  1  0  0  0  0
  2 22  1  0  0  0  0
  3 20  1  0  0  0  0
  4  1  1  0  0  0  0
  4 37  1  1  0  0  0
  4 12  1  0  0  0  0
  6  9  1  0  0  0  0
  6 11  2  0  0  0  0
  7  3  1  6  0  0  0
  7 10  1  0  0  0  0
  8 26  1  1  0  0  0
  9  3  2  0  0  0  0
 10  5  1  6  0  0  0
 10 23  1  0  0  0  0
 11 16  1  0  0  0  0
 12  8  1  0  0  0  0
 13  9  1  0  0  0  0
 15 28  1  0  0  0  0
 16 20  2  0  0  0  0
 17 13  1  0  0  0  0
 18 25  1  1  0  0  0
 18 19  1  0  0  0  0
 18  8  1  0  0  0  0
 19  5  1  0  0  0  0
 20 15  1  0  0  0  0
 21 13  1  1  0  0  0
 21  7  1  0  0  0  0
 22  6  1  0  0  0  0
 23 30  1  1  0  0  0
 23 28  1  0  0  0  0
 24  2  1  0  0  0  0
 27 25  1  1  0  0  0
 27 21  1  0  0  0  0
 27  1  1  0  0  0  0
 29 30  2  0  0  0  0
 29 35  1  0  0  0  0
 30 31  1  0  0  0  0
 31 34  2  0  0  0  0
 33 34  1  0  0  0  0
 34 32  1  0  0  0  0
 35 33  2  0  0  0  0
 37 36  1  0  0  0  0
M  END
>  <MODEL>
4

>  <REMARK>
 VINA RESULT:      -8.3      2.756      5.479
  Name = 
  2 active torsions:
  status: ('A' for Active; 'I' for Inactive)
    1  A    between atoms: C_4  and  C_37
    2  A    between atoms: C_23  and  C_30
                            x       y       z     vdW  Elec       q    Type
                         _______ _______ _______ _____ _____    ______ ____

>  <TORSDO>
F 2

$$$$
=
 OpenBabel11112417123D

 37 43  0  0  1  0  0  0  0  0999 V2000
  191.5810  175.4620  144.6660 C   0  0  0  0  0  2  0  0  0  0  0  0
  191.0510  171.1820  141.7610 C   0  0  0  0  0  0  0  0  0  0  0  0
  188.8890  174.7630  141.6620 C   0  0  0  0  0  0  0  0  0  0  0  0
  192.2550  175.9970  145.9290 C   0  0  2  0  0  3  0  0  0  0  0  0
  187.2590  175.4160  144.8790 C   0  0  0  0  0  2  0  0  0  0  0  0
  189.6120  172.7720  140.5060 C   0  0  0  0  0  0  0  0  0  0  0  0
  189.0700  175.3410  143.0360 C   0  0  1  0  0  3  0  0  0  0  0  0
  189.9390  177.1640  146.2590 C   0  0  2  0  0  3  0  0  0  0  0  0
  189.5950  173.5960  141.6120 C   0  0  0  0  0  0  0  0  0  0  0  0
  187.8940  176.1060  143.6780 C   0  0  1  0  0  3  0  0  0  0  0  0
  188.9280  173.1860  139.3550 C   0  0  0  0  0  3  0  0  0  0  0  0
  191.4080  177.0290  146.6940 C   0  0  0  0  0  2  0  0  0  0  0  0
  190.1440  173.2080  142.8470 N   0  0  0  0  0  0  0  0  0  0  0  0
  192.4790  171.6570  141.5590 C   0  0  0  0  0  1  0  0  0  0  0  0
  187.2910  176.4180  140.5410 C   0  0  0  0  0  2  0  0  0  0  0  0
  188.2190  174.4070  139.3690 C   0  0  0  0  0  3  0  0  0  0  0  0
  190.4870  171.8030  143.0630 C   0  0  0  0  0  2  0  0  0  0  0  0
  189.1320  175.9540  146.4960 N   0  0  1  0  0  0  0  0  0  0  0  0
  187.7020  176.0920  146.1810 C   0  0  0  0  0  2  0  0  0  0  0  0
  188.1910  175.2160  140.5250 C   0  0  0  0  0  0  0  0  0  0  0  0
  189.5660  174.1070  143.8390 C   0  0  1  0  0  3  0  0  0  0  0  0
  190.2640  171.5360  140.6060 O   0  0  0  0  0  0  0  0  0  0  0  0
  186.8950  176.7440  142.7070 C   0  0  2  0  0  3  0  0  0  0  0  0
  191.0640  169.6750  141.9050 C   0  0  0  0  0  1  0  0  0  0  0  0
  189.7350  174.6210  146.3100 C   0  0  0  0  0  2  0  0  0  0  0  0
  189.8350  177.6300  144.9610 F   0  0  0  0  0  0  0  0  0  0  0  0
  190.5100  174.4170  144.9940 C   0  0  2  0  0  3  0  0  0  0  0  0
  187.5790  177.2780  141.6080 O   0  0  0  0  0  0  0  0  0  0  0  0
  186.6910  178.6890  144.3040 C   0  0  0  0  0  3  0  0  0  0  0  0
  186.0950  177.8170  143.3790 C   0  0  0  0  0  0  0  0  0  0  0  0
  184.7320  177.9380  143.0910 C   0  0  0  0  0  3  0  0  0  0  0  0
  182.6470  179.0410  143.4380 F   0  0  0  0  0  0  0  0  0  0  0  0
  184.5630  179.7930  144.6400 C   0  0  0  0  0  3  0  0  0  0  0  0
  183.9670  178.9250  143.7200 C   0  0  0  0  0  0  0  0  0  0  0  0
  185.9250  179.6740  144.9320 C   0  0  0  0  0  3  0  0  0  0  0  0
  194.2270  177.1430  146.7840 N   0  0  0  0  0  1  0  0  0  0  0  0
  193.5970  176.6180  145.5850 C   0  0  0  0  0  2  0  0  0  0  0  0
  1  4  1  0  0  0  0
  2 24  1  0  0  0  0
  2 17  1  0  0  0  0
  4 37  1  6  0  0  0
  4 12  1  0  0  0  0
  5 19  1  0  0  0  0
  6 22  1  0  0  0  0
  6  9  2  0  0  0  0
  7  3  1  6  0  0  0
  7 10  1  0  0  0  0
  7 21  1  0  0  0  0
  8 26  1  6  0  0  0
  8 18  1  0  0  0  0
  8 12  1  0  0  0  0
  9  3  1  0  0  0  0
  9 13  1  0  0  0  0
 10  5  1  1  0  0  0
 11 16  2  0  0  0  0
 11  6  1  0  0  0  0
 13 17  1  0  0  0  0
 14  2  1  0  0  0  0
 15 28  1  0  0  0  0
 16 20  1  0  0  0  0
 18 19  1  6  0  0  0
 20 15  1  0  0  0  0
 20  3  2  0  0  0  0
 21 13  1  6  0  0  0
 21 27  1  0  0  0  0
 22  2  1  0  0  0  0
 23 30  1  1  0  0  0
 23 10  1  0  0  0  0
 25 18  1  0  0  0  0
 27  1  1  6  0  0  0
 27 25  1  0  0  0  0
 28 23  1  0  0  0  0
 29 35  1  0  0  0  0
 30 29  2  0  0  0  0
 31 30  1  0  0  0  0
 31 34  2  0  0  0  0
 32 34  1  0  0  0  0
 33 35  2  0  0  0  0
 34 33  1  0  0  0  0
 37 36  1  0  0  0  0
M  END
>  <MODEL>
5

>  <REMARK>
 VINA RESULT:      -8.3      1.871      2.253
  Name = 
  2 active torsions:
  status: ('A' for Active; 'I' for Inactive)
    1  A    between atoms: C_4  and  C_37
    2  A    between atoms: C_23  and  C_30
                            x       y       z     vdW  Elec       q    Type
                         _______ _______ _______ _____ _____    ______ ____

>  <TORSDO>
F 2

$$$$
=
 OpenBabel11112417123D

 37 43  0  0  1  0  0  0  0  0999 V2000
  193.4650  175.0970  143.1090 C   0  0  0  0  0  2  0  0  0  0  0  0
  192.0210  171.5430  139.5970 C   0  0  0  0  0  0  0  0  0  0  0  0
  189.7580  174.5250  141.4680 C   0  0  0  0  0  0  0  0  0  0  0  0
  194.6000  175.4710  144.0630 C   0  0  2  0  0  3  0  0  0  0  0  0
  189.7590  174.1010  145.1080 C   0  0  0  0  0  2  0  0  0  0  0  0
  190.0320  173.0330  139.5920 C   0  0  0  0  0  0  0  0  0  0  0  0
  190.5060  174.8120  142.7390 C   0  0  1  0  0  3  0  0  0  0  0  0
  192.6100  176.0250  145.6660 C   0  0  2  0  0  3  0  0  0  0  0  0
  190.4600  173.5710  140.7870 C   0  0  0  0  0  0  0  0  0  0  0  0
  189.7010  175.1540  144.0090 C   0  0  1  0  0  3  0  0  0  0  0  0
  188.8590  173.5360  139.0140 C   0  0  0  0  0  3  0  0  0  0  0  0
  194.1180  176.1090  145.3770 C   0  0  0  0  0  2  0  0  0  0  0  0
  191.5490  173.0460  141.5020 N   0  0  0  0  0  0  0  0  0  0  0  0
  193.1450  172.3400  138.9570 C   0  0  0  0  0  1  0  0  0  0  0  0
  187.6860  176.0130  141.6630 C   0  0  0  0  0  2  0  0  0  0  0  0
  188.1340  174.5480  139.6810 C   0  0  0  0  0  3  0  0  0  0  0  0
  192.0750  171.7320  141.1340 C   0  0  0  0  0  2  0  0  0  0  0  0
  192.1140  174.6510  145.8590 N   0  0  1  0  0  0  0  0  0  0  0  0
  190.6950  174.5520  146.2350 C   0  0  0  0  0  2  0  0  0  0  0  0
  188.5760  175.0590  140.9190 C   0  0  0  0  0  0  0  0  0  0  0  0
  191.4230  173.5650  142.8590 C   0  0  1  0  0  3  0  0  0  0  0  0
  190.7600  171.9690  139.0420 O   0  0  0  0  0  0  0  0  0  0  0  0
  188.3140  175.7650  143.7840 C   0  0  2  0  0  3  0  0  0  0  0  0
  192.2310  170.0790  139.2780 C   0  0  0  0  0  1  0  0  0  0  0  0
  192.6750  173.5480  145.0570 C   0  0  0  0  0  2  0  0  0  0  0  0
  191.8750  176.7320  144.7310 F   0  0  0  0  0  0  0  0  0  0  0  0
  192.7640  173.8040  143.5400 C   0  0  2  0  0  3  0  0  0  0  0  0
  188.3600  176.6590  142.7070 O   0  0  0  0  0  0  0  0  0  0  0  0
  186.4640  176.4850  145.3450 C   0  0  0  0  0  3  0  0  0  0  0  0
  187.8280  176.4730  145.0120 C   0  0  0  0  0  0  0  0  0  0  0  0
  188.7470  177.1450  145.8250 C   0  0  0  0  0  3  0  0  0  0  0  0
  189.2010  178.4710  147.7520 F   0  0  0  0  0  0  0  0  0  0  0  0
  186.9510  177.8330  147.2970 C   0  0  0  0  0  3  0  0  0  0  0  0
  188.3080  177.8230  146.9660 C   0  0  0  0  0  0  0  0  0  0  0  0
  186.0290  177.1640  146.4860 C   0  0  0  0  0  3  0  0  0  0  0  0
  196.9290  175.9290  143.5200 N   0  0  0  0  0  1  0  0  0  0  0  0
  195.5680  176.4190  143.3790 C   0  0  0  0  0  2  0  0  0  0  0  0
  1  4  1  0  0  0  0
  2 17  1  0  0  0  0
  4 37  1  6  0  0  0
  4 12  1  0  0  0  0
  5 19  1  0  0  0  0
  6  9  1  0  0  0  0
  7  3  1  6  0  0  0
  7 21  1  0  0  0  0
  7 10  1  0  0  0  0
  8 26  1  6  0  0  0
  8 18  1  0  0  0  0
  9  3  2  0  0  0  0
  9 13  1  0  0  0  0
 10  5  1  6  0  0  0
 11  6  2  0  0  0  0
 11 16  1  0  0  0  0
 12  8  1  0  0  0  0
 14  2  1  0  0  0  0
 15 28  1  0  0  0  0
 16 20  2  0  0  0  0
 17 13  1  0  0  0  0
 18 25  1  6  0  0  0
 18 19  1  0  0  0  0
 20  3  1  0  0  0  0
 20 15  1  0  0  0  0
 21 13  1  6  0  0  0
 21 27  1  0  0  0  0
 22  6  1  0  0  0  0
 22  2  1  0  0  0  0
 23 10  1  0  0  0  0
 23 30  1  1  0  0  0
 24  2  1  0  0  0  0
 27  1  1  1  0  0  0
 27 25  1  0  0  0  0
 28 23  1  0  0  0  0
 29 35  1  0  0  0  0
 30 29  2  0  0  0  0
 30 31  1  0  0  0  0
 31 34  2  0  0  0  0
 34 33  1  0  0  0  0
 34 32  1  0  0  0  0
 35 33  2  0  0  0  0
 37 36  1  0  0  0  0
M  END
>  <MODEL>
6

>  <REMARK>
 VINA RESULT:      -8.2      1.252      1.519
  Name = 
  2 active torsions:
  status: ('A' for Active; 'I' for Inactive)
    1  A    between atoms: C_4  and  C_37
    2  A    between atoms: C_23  and  C_30
                            x       y       z     vdW  Elec       q    Type
                         _______ _______ _______ _____ _____    ______ ____

>  <TORSDO>
F 2

$$$$
=
 OpenBabel11112417123D

 37 43  0  0  1  0  0  0  0  0999 V2000
  192.4330  172.0250  142.0330 C   0  0  0  0  0  2  0  0  0  0  0  0
  196.4360  174.8320  140.2580 C   0  0  0  0  0  0  0  0  0  0  0  0
  193.9000  175.5500  143.5090 C   0  0  0  0  0  0  0  0  0  0  0  0
  191.5050  170.8670  141.6660 C   0  0  2  0  0  3  0  0  0  0  0  0
  190.4090  175.8280  142.4290 C   0  0  0  0  0  2  0  0  0  0  0  0
  196.0330  175.9340  142.4490 C   0  0  0  0  0  0  0  0  0  0  0  0
  192.6510  174.7840  143.1790 C   0  0  1  0  0  3  0  0  0  0  0  0
  189.6980  172.4310  142.7280 C   0  0  2  0  0  3  0  0  0  0  0  0
  194.7900  175.3380  142.4960 C   0  0  0  0  0  0  0  0  0  0  0  0
  191.2880  175.3790  143.5890 C   0  0  1  0  0  3  0  0  0  0  0  0
  196.4290  176.7400  143.5250 C   0  0  0  0  0  3  0  0  0  0  0  0
  190.0660  171.0400  142.1830 C   0  0  0  0  0  2  0  0  0  0  0  0
  194.2590  174.6200  141.4110 N   0  0  0  0  0  0  0  0  0  0  0  0
  196.9910  173.4540  140.5770 C   0  0  0  0  0  1  0  0  0  0  0  0
  193.2950  176.7320  145.6960 C   0  0  0  0  0  2  0  0  0  0  0  0
  195.5400  176.9460  144.6030 C   0  0  0  0  0  3  0  0  0  0  0  0
  194.8980  174.7360  140.1010 C   0  0  0  0  0  2  0  0  0  0  0  0
  189.7290  173.4970  141.7120 N   0  0  1  0  0  0  0  0  0  0  0  0
  189.2830  174.8170  142.1860 C   0  0  0  0  0  2  0  0  0  0  0  0
  194.2600  176.3510  144.6110 C   0  0  0  0  0  0  0  0  0  0  0  0
  192.8250  174.5320  141.6560 C   0  0  1  0  0  3  0  0  0  0  0  0
  196.8170  175.7510  141.3020 O   0  0  0  0  0  0  0  0  0  0  0  0
  191.3030  176.3350  144.7860 C   0  0  2  0  0  3  0  0  0  0  0  0
  197.0330  175.2980  138.9490 C   0  0  0  0  0  1  0  0  0  0  0  0
  190.7560  173.4750  140.6540 C   0  0  0  0  0  2  0  0  0  0  0  0
  190.4350  172.7440  143.8550 F   0  0  0  0  0  0  0  0  0  0  0  0
  192.2020  173.2440  141.1330 C   0  0  2  0  0  3  0  0  0  0  0  0
  192.1980  175.8650  145.7560 O   0  0  0  0  0  0  0  0  0  0  0  0
  189.4750  175.5770  146.3540 C   0  0  0  0  0  3  0  0  0  0  0  0
  189.9370  176.4780  145.3830 C   0  0  0  0  0  0  0  0  0  0  0  0
  189.1060  177.5170  144.9510 C   0  0  0  0  0  3  0  0  0  0  0  0
  187.0200  178.6660  145.0660 F   0  0  0  0  0  0  0  0  0  0  0  0
  187.3650  176.7590  146.4540 C   0  0  0  0  0  3  0  0  0  0  0  0
  187.8220  177.6580  145.4860 C   0  0  0  0  0  0  0  0  0  0  0  0
  188.1920  175.7180  146.8880 C   0  0  0  0  0  3  0  0  0  0  0  0
  191.2300  168.4490  141.7680 N   0  0  0  0  0  1  0  0  0  0  0  0
  192.0650  169.5590  142.1950 C   0  0  0  0  0  2  0  0  0  0  0  0
  2 14  1  0  0  0  0
  2 22  1  0  0  0  0
  3 20  1  0  0  0  0
  4  1  1  0  0  0  0
  4 12  1  0  0  0  0
  4 37  1  1  0  0  0
  6  9  1  0  0  0  0
  6 11  2  0  0  0  0
  7  3  1  6  0  0  0
  7 10  1  0  0  0  0
  8 26  1  1  0  0  0
  9  3  2  0  0  0  0
 10  5  1  6  0  0  0
 10 23  1  0  0  0  0
 11 16  1  0  0  0  0
 12  8  1  0  0  0  0
 13  9  1  0  0  0  0
 15 28  1  0  0  0  0
 16 20  2  0  0  0  0
 17  2  1  0  0  0  0
 17 13  1  0  0  0  0
 18 25  1  1  0  0  0
 18 19  1  0  0  0  0
 18  8  1  0  0  0  0
 19  5  1  0  0  0  0
 20 15  1  0  0  0  0
 21 13  1  1  0  0  0
 21  7  1  0  0  0  0
 22  6  1  0  0  0  0
 23 30  1  1  0  0  0
 23 28  1  0  0  0  0
 24  2  1  0  0  0  0
 27 25  1  1  0  0  0
 27 21  1  0  0  0  0
 27  1  1  0  0  0  0
 29 35  1  0  0  0  0
 30 29  2  0  0  0  0
 31 30  1  0  0  0  0
 31 34  2  0  0  0  0
 32 34  1  0  0  0  0
 33 35  2  0  0  0  0
 34 33  1  0  0  0  0
 36 37  1  0  0  0  0
M  END
>  <MODEL>
7

>  <REMARK>
 VINA RESULT:      -8.1      2.666      5.338
  Name = 
  2 active torsions:
  status: ('A' for Active; 'I' for Inactive)
    1  A    between atoms: C_4  and  C_37
    2  A    between atoms: C_23  and  C_30
                            x       y       z     vdW  Elec       q    Type
                         _______ _______ _______ _____ _____    ______ ____

>  <TORSDO>
F 2

$$$$
=
 OpenBabel11112417123D

 37 43  0  0  1  0  0  0  0  0999 V2000
  193.9740  174.5630  144.0260 C   0  0  0  0  0  2  0  0  0  0  0  0
  193.4430  169.4010  143.6850 C   0  0  0  0  0  0  0  0  0  0  0  0
  191.0830  172.4450  142.0480 C   0  0  0  0  0  0  0  0  0  0  0  0
  194.7220  175.6600  144.7860 C   0  0  2  0  0  3  0  0  0  0  0  0
  189.6950  174.6000  144.6670 C   0  0  0  0  0  2  0  0  0  0  0  0
  191.8170  170.1480  141.9600 C   0  0  0  0  0  0  0  0  0  0  0  0
  191.3460  173.6310  142.9310 C   0  0  1  0  0  3  0  0  0  0  0  0
  192.3790  176.8200  144.7270 C   0  0  2  0  0  3  0  0  0  0  0  0
  191.8480  171.4120  142.5100 C   0  0  0  0  0  0  0  0  0  0  0  0
  190.1870  174.6050  143.2250 C   0  0  1  0  0  3  0  0  0  0  0  0
  191.0170  169.9300  140.8300 C   0  0  0  0  0  3  0  0  0  0  0  0
  193.8850  176.9290  145.0210 C   0  0  0  0  0  2  0  0  0  0  0  0
  192.5180  171.6930  143.7130 N   0  0  0  0  0  0  0  0  0  0  0  0
  194.8200  169.7230  143.1320 C   0  0  0  0  0  1  0  0  0  0  0  0
  189.3080  173.3130  140.4220 C   0  0  0  0  0  2  0  0  0  0  0  0
  190.2450  170.9920  140.3100 C   0  0  0  0  0  3  0  0  0  0  0  0
  192.9560  170.5840  144.5590 C   0  0  0  0  0  2  0  0  0  0  0  0
  191.6640  175.8820  145.6100 N   0  0  1  0  0  0  0  0  0  0  0  0
  190.2070  175.8360  145.4140 C   0  0  0  0  0  2  0  0  0  0  0  0
  190.2680  172.2680  140.9120 C   0  0  0  0  0  0  0  0  0  0  0  0
  191.9760  172.9620  144.1830 C   0  0  1  0  0  3  0  0  0  0  0  0
  192.5430  169.1290  142.5920 O   0  0  0  0  0  0  0  0  0  0  0  0
  189.0770  174.6690  142.1720 C   0  0  2  0  0  3  0  0  0  0  0  0
  193.5520  168.1660  144.5520 C   0  0  0  0  0  1  0  0  0  0  0  0
  192.3230  174.6380  146.0470 C   0  0  0  0  0  2  0  0  0  0  0  0
  192.1420  176.5780  143.3860 F   0  0  0  0  0  0  0  0  0  0  0  0
  192.9940  173.8120  144.9330 C   0  0  2  0  0  3  0  0  0  0  0  0
  189.6350  174.5910  140.8900 O   0  0  0  0  0  0  0  0  0  0  0  0
  188.8770  177.1860  142.1250 C   0  0  0  0  0  3  0  0  0  0  0  0
  188.2770  175.9290  142.3030 C   0  0  0  0  0  0  0  0  0  0  0  0
  186.9180  175.8490  142.6230 C   0  0  0  0  0  3  0  0  0  0  0  0
  184.8440  176.9340  143.0720 F   0  0  0  0  0  0  0  0  0  0  0  0
  186.7600  178.2650  142.5840 C   0  0  0  0  0  3  0  0  0  0  0  0
  186.1600  177.0150  142.7630 C   0  0  0  0  0  0  0  0  0  0  0  0
  188.1180  178.3500  142.2660 C   0  0  0  0  0  3  0  0  0  0  0  0
  195.6970  176.3030  142.6490 N   0  0  0  0  0  1  0  0  0  0  0  0
  195.9930  176.0360  144.0460 C   0  0  0  0  0  2  0  0  0  0  0  0
  1  4  1  0  0  0  0
  2 24  1  0  0  0  0
  2 17  1  0  0  0  0
  3  9  1  0  0  0  0
  4 37  1  6  0  0  0
  4 12  1  0  0  0  0
  5 19  1  0  0  0  0
  6  9  2  0  0  0  0
  6 22  1  0  0  0  0
  7  3  1  6  0  0  0
  7 10  1  0  0  0  0
  7 21  1  0  0  0  0
  8 26  1  6  0  0  0
  8 12  1  0  0  0  0
  8 18  1  0  0  0  0
  9 13  1  0  0  0  0
 10  5  1  1  0  0  0
 11  6  1  0  0  0  0
 13 17  1  0  0  0  0
 14  2  1  0  0  0  0
 15 28  1  0  0  0  0
 15 20  1  0  0  0  0
 16 11  2  0  0  0  0
 16 20  1  0  0  0  0
 18 19  1  6  0  0  0
 18 25  1  0  0  0  0
 20  3  2  0  0  0  0
 21 13  1  6  0  0  0
 21 27  1  0  0  0  0
 22  2  1  0  0  0  0
 23 30  1  6  0  0  0
 23 10  1  0  0  0  0
 27  1  1  6  0  0  0
 27 25  1  0  0  0  0
 28 23  1  0  0  0  0
 29 35  2  0  0  0  0
 29 30  1  0  0  0  0
 30 31  2  0  0  0  0
 31 34  1  0  0  0  0
 33 34  2  0  0  0  0
 34 32  1  0  0  0  0
 35 33  1  0  0  0  0
 36 37  1  0  0  0  0
M  END
>  <MODEL>
8

>  <REMARK>
 VINA RESULT:      -8.0      2.183      3.120
  Name = 
  2 active torsions:
  status: ('A' for Active; 'I' for Inactive)
    1  A    between atoms: C_4  and  C_37
    2  A    between atoms: C_23  and  C_30
                            x       y       z     vdW  Elec       q    Type
                         _______ _______ _______ _____ _____    ______ ____

>  <TORSDO>
F 2

$$$$
=
 OpenBabel11112417123D

 37 43  0  0  1  0  0  0  0  0999 V2000
  190.8070  175.4780  145.3520 C   0  0  0  0  0  2  0  0  0  0  0  0
  187.4600  176.5680  141.5240 C   0  0  0  0  0  0  0  0  0  0  0  0
  190.6770  173.8920  141.5800 C   0  0  0  0  0  0  0  0  0  0  0  0
  191.2940  175.9680  146.7160 C   0  0  2  0  0  3  0  0  0  0  0  0
  193.8320  175.6280  142.2610 C   0  0  0  0  0  2  0  0  0  0  0  0
  188.5660  174.5410  140.6060 C   0  0  0  0  0  0  0  0  0  0  0  0
  191.5800  174.4240  142.6560 C   0  0  1  0  0  3  0  0  0  0  0  0
  193.6300  175.3350  145.7270 C   0  0  2  0  0  3  0  0  0  0  0  0
  189.5830  174.7080  141.5230 C   0  0  0  0  0  0  0  0  0  0  0  0
  193.1050  174.3040  142.4670 C   0  0  1  0  0  3  0  0  0  0  0  0
  188.6230  173.4420  139.7390 C   0  0  0  0  0  3  0  0  0  0  0  0
  192.7970  175.7430  146.9540 C   0  0  0  0  0  2  0  0  0  0  0  0
  189.6760  175.8440  142.3440 N   0  0  0  0  0  0  0  0  0  0  0  0
  186.6210  176.0950  142.6980 C   0  0  0  0  0  1  0  0  0  0  0  0
  191.9950  171.9090  140.6420 C   0  0  0  0  0  2  0  0  0  0  0  0
  189.7270  172.5630  139.8010 C   0  0  0  0  0  3  0  0  0  0  0  0
  188.8520  177.0120  142.0380 C   0  0  0  0  0  2  0  0  0  0  0  0
  193.6950  176.3680  144.6790 N   0  0  1  0  0  0  0  0  0  0  0  0
  194.5680  176.0410  143.5410 C   0  0  0  0  0  2  0  0  0  0  0  0
  190.7700  172.7750  140.7270 C   0  0  0  0  0  0  0  0  0  0  0  0
  191.0510  175.8740  142.8290 C   0  0  1  0  0  3  0  0  0  0  0  0
  187.5550  175.5090  140.5500 O   0  0  0  0  0  0  0  0  0  0  0  0
  193.5860  173.1660  141.5610 C   0  0  2  0  0  3  0  0  0  0  0  0
  186.7710  177.7580  140.8920 C   0  0  0  0  0  1  0  0  0  0  0  0
  192.5160  177.2080  144.4010 C   0  0  0  0  0  2  0  0  0  0  0  0
  193.2400  174.1010  145.2380 F   0  0  0  0  0  0  0  0  0  0  0  0
  191.1840  176.4530  144.2310 C   0  0  2  0  0  3  0  0  0  0  0  0
  192.8020  172.0250  141.7800 O   0  0  0  0  0  0  0  0  0  0  0  0
  195.9850  172.9940  140.7930 C   0  0  0  0  0  3  0  0  0  0  0  0
  195.0280  172.8470  141.8090 C   0  0  0  0  0  0  0  0  0  0  0  0
  195.4200  172.3800  143.0680 C   0  0  0  0  0  3  0  0  0  0  0  0
  197.1370  171.6130  144.5330 F   0  0  0  0  0  0  0  0  0  0  0  0
  197.7110  172.2130  142.2990 C   0  0  0  0  0  3  0  0  0  0  0  0
  196.7600  172.0640  143.3120 C   0  0  0  0  0  0  0  0  0  0  0  0
  197.3230  172.6770  141.0390 C   0  0  0  0  0  3  0  0  0  0  0  0
  189.3160  174.6650  147.2830 N   0  0  0  0  0  1  0  0  0  0  0  0
  190.5100  175.2910  147.8260 C   0  0  0  0  0  2  0  0  0  0  0  0
  1  4  1  0  0  0  0
  2 17  1  0  0  0  0
  2 14  1  0  0  0  0
  4 12  1  0  0  0  0
  4 37  1  1  0  0  0
  5 19  1  0  0  0  0
  6  9  2  0  0  0  0
  7  3  1  6  0  0  0
  7 21  1  0  0  0  0
  8 26  1  6  0  0  0
  8 12  1  0  0  0  0
  9  3  1  0  0  0  0
  9 13  1  0  0  0  0
 10  5  1  6  0  0  0
 10  7  1  0  0  0  0
 11 16  2  0  0  0  0
 11  6  1  0  0  0  0
 15 20  1  0  0  0  0
 15 28  1  0  0  0  0
 16 20  1  0  0  0  0
 17 13  1  0  0  0  0
 18 19  1  6  0  0  0
 18  8  1  0  0  0  0
 20  3  2  0  0  0  0
 21 13  1  1  0  0  0
 21 27  1  0  0  0  0
 22  6  1  0  0  0  0
 22  2  1  0  0  0  0
 23 28  1  0  0  0  0
 23 30  1  1  0  0  0
 23 10  1  0  0  0  0
 24  2  1  0  0  0  0
 25 18  1  0  0  0  0
 27 25  1  1  0  0  0
 27  1  1  0  0  0  0
 29 35  2  0  0  0  0
 29 30  1  0  0  0  0
 30 31  2  0  0  0  0
 31 34  1  0  0  0  0
 33 34  2  0  0  0  0
 34 32  1  0  0  0  0
 35 33  1  0  0  0  0
 36 37  1  0  0  0  0
M  END
>  <MODEL>
9

>  <REMARK>
 VINA RESULT:      -7.9      2.756      6.856
  Name = 
  2 active torsions:
  status: ('A' for Active; 'I' for Inactive)
    1  A    between atoms: C_4  and  C_37
    2  A    between atoms: C_23  and  C_30
                            x       y       z     vdW  Elec       q    Type
                         _______ _______ _______ _____ _____    ______ ____

>  <TORSDO>
F 2

$$$$
