=
 OpenBabel11112416533D

 31 35  0  0  1  0  0  0  0  0999 V2000
  184.4430  178.3350  146.5170 C   0  0  0  0  0  0  0  0  0  0  0  0
  187.0350  176.7670  144.2810 N   0  0  0  0  0  0  0  0  0  0  0  0
  186.7280  177.1010  142.9060 C   0  0  0  0  0  0  0  0  0  0  0  0
  185.2290  177.9500  141.1870 C   0  0  0  0  0  0  0  0  0  0  0  0
  186.3980  177.4220  145.4000 C   0  0  0  0  0  0  0  0  0  0  0  0
  185.2210  178.6530  147.6320 C   0  0  0  0  0  3  0  0  0  0  0  0
  185.4870  177.6350  142.5250 C   0  0  0  0  0  3  0  0  0  0  0  0
  189.2410  176.8590  145.3780 C   0  0  2  0  0  3  0  0  0  0  0  0
  183.1190  178.6220  146.5120 F   0  0  0  0  0  0  0  0  0  0  0  0
  189.0350  176.3650  142.3380 C   0  0  0  0  0  2  0  0  0  0  0  0
  184.0280  178.4640  140.8310 F   0  0  0  0  0  0  0  0  0  0  0  0
  188.5690  177.4160  146.5520 N   0  0  0  0  0  2  0  0  0  0  0  0
  188.2530  175.9910  144.5930 C   0  0  2  0  0  3  0  0  0  0  0  0
  185.0270  177.7180  145.4080 C   0  0  0  0  0  3  0  0  0  0  0  0
  186.2140  177.7400  140.2190 C   0  0  0  0  0  3  0  0  0  0  0  0
  187.1760  177.7440  146.5310 C   0  0  0  0  0  0  0  0  0  0  0  0
  186.5860  178.3550  147.6400 C   0  0  0  0  0  3  0  0  0  0  0  0
  188.8640  175.3790  143.4030 N   0  0  0  0  0  2  0  0  0  0  0  0
  187.7030  176.8850  141.9220 C   0  0  0  0  0  0  0  0  0  0  0  0
  187.4540  177.2110  140.5860 C   0  0  0  0  0  3  0  0  0  0  0  0
  191.9310  177.2640  144.5290 O   0  0  0  0  0  0  0  0  0  0  0  0
  191.7100  176.3250  145.3410 C   0  0  0  0  0  0  0  0  0  0  0  0
  190.3840  176.0620  145.7990 N   0  0  0  0  0  2  0  0  0  0  0  0
  195.3050  176.0210  144.5390 C   0  0  1  0  0  3  0  0  0  0  0  0
  193.8890  176.2830  146.5780 C   0  0  0  0  0  2  0  0  0  0  0  0
  192.5350  173.7850  143.9470 C   0  0  0  0  0  1  0  0  0  0  0  0
  196.1990  176.7030  143.6220 N   0  0  0  0  0  1  0  0  0  0  0  0
  194.8250  177.0050  145.6070 C   0  0  0  0  0  2  0  0  0  0  0  0
  193.5220  174.6520  144.7100 C   0  0  2  0  0  3  0  0  0  0  0  0
  192.8360  175.4580  145.8310 C   0  0  2  0  0  3  0  0  0  0  0  0
  194.2070  175.5070  143.8260 O   0  0  0  0  0  0  0  0  0  0  0  0
  1  6  1  0  0  0  0
  2 13  1  0  0  0  0
  2  5  1  0  0  0  0
  3  2  1  0  0  0  0
  4  7  2  0  0  0  0
  5 14  1  0  0  0  0
  5 16  2  0  0  0  0
  6 17  2  0  0  0  0
  7  3  1  0  0  0  0
  8 23  1  1  0  0  0
  8 12  1  0  0  0  0
  9  1  1  0  0  0  0
 10 18  1  0  0  0  0
 11  4  1  0  0  0  0
 13 18  1  6  0  0  0
 13  8  1  0  0  0  0
 14  1  2  0  0  0  0
 15 20  2  0  0  0  0
 15  4  1  0  0  0  0
 16 12  1  0  0  0  0
 16 17  1  0  0  0  0
 19 10  1  0  0  0  0
 19  3  2  0  0  0  0
 20 19  1  0  0  0  0
 21 22  2  0  0  0  0
 22 23  1  0  0  0  0
 24 27  1  6  0  0  0
 24 28  1  0  0  0  0
 28 25  1  0  0  0  0
 29 26  1  6  0  0  0
 29 30  1  0  0  0  0
 30 22  1  6  0  0  0
 30 25  1  0  0  0  0
 31 24  1  0  0  0  0
 31 29  1  0  0  0  0
M  END
>  <MODEL>
1

>  <REMARK>
 VINA RESULT:      -9.4      0.000      0.000
  Name = 
  2 active torsions:
  status: ('A' for Active; 'I' for Inactive)
    1  A    between atoms: C_5  and  C_30
    2  A    between atoms: C_10  and  N_16
                            x       y       z     vdW  Elec       q    Type
                         _______ _______ _______ _____ _____    ______ ____

>  <TORSDO>
F 2

$$$$
=
 OpenBabel11112416533D

 31 35  0  0  1  0  0  0  0  0999 V2000
  186.0600  177.9800  140.8720 C   0  0  0  0  0  0  0  0  0  0  0  0
  187.6360  177.7340  144.2820 N   0  0  0  0  0  0  0  0  0  0  0  0
  186.6170  177.9580  145.2850 C   0  0  0  0  0  0  0  0  0  0  0  0
  184.3980  178.6930  145.9620 C   0  0  0  0  0  0  0  0  0  0  0  0
  187.3210  177.4990  142.8920 C   0  0  0  0  0  0  0  0  0  0  0  0
  186.7970  177.0190  140.1760 C   0  0  0  0  0  3  0  0  0  0  0  0
  185.3590  178.4950  144.9670 C   0  0  0  0  0  3  0  0  0  0  0  0
  189.3540  175.9640  144.2760 C   0  0  2  0  0  3  0  0  0  0  0  0
  185.0900  178.6790  140.2360 F   0  0  0  0  0  0  0  0  0  0  0  0
  188.2100  177.0120  146.9450 C   0  0  0  0  0  2  0  0  0  0  0  0
  183.1890  179.2130  145.6420 F   0  0  0  0  0  0  0  0  0  0  0  0
  189.1090  175.8120  142.8420 N   0  0  0  0  0  2  0  0  0  0  0  0
  189.0140  177.3970  144.6990 C   0  0  2  0  0  3  0  0  0  0  0  0
  186.3230  178.2220  142.2230 C   0  0  0  0  0  3  0  0  0  0  0  0
  184.6830  178.3480  147.2860 C   0  0  0  0  0  3  0  0  0  0  0  0
  188.0630  176.5340  142.1820 C   0  0  0  0  0  0  0  0  0  0  0  0
  187.8010  176.2990  140.8290 C   0  0  0  0  0  3  0  0  0  0  0  0
  189.2530  177.6320  146.1320 N   0  0  0  0  0  2  0  0  0  0  0  0
  186.8940  177.6270  146.6190 C   0  0  0  0  0  0  0  0  0  0  0  0
  185.9300  177.8110  147.6150 C   0  0  0  0  0  3  0  0  0  0  0  0
  190.2750  174.2470  146.3560 O   0  0  0  0  0  0  0  0  0  0  0  0
  191.1440  174.7950  145.6230 C   0  0  0  0  0  0  0  0  0  0  0  0
  190.7500  175.6730  144.5690 N   0  0  0  0  0  2  0  0  0  0  0  0
  194.2380  175.4880  143.7240 C   0  0  1  0  0  3  0  0  0  0  0  0
  193.3760  175.8560  146.0380 C   0  0  0  0  0  2  0  0  0  0  0  0
  192.5750  172.3860  144.5180 C   0  0  0  0  0  1  0  0  0  0  0  0
  194.5240  176.1240  142.4510 N   0  0  0  0  0  1  0  0  0  0  0  0
  193.6690  176.5250  144.6930 C   0  0  0  0  0  2  0  0  0  0  0  0
  193.2710  173.7180  144.7320 C   0  0  2  0  0  3  0  0  0  0  0  0
  192.6070  174.5430  145.8530 C   0  0  2  0  0  3  0  0  0  0  0  0
  193.3110  174.4480  143.5300 O   0  0  0  0  0  0  0  0  0  0  0  0
  1 14  1  0  0  0  0
  2 13  1  0  0  0  0
  2  3  1  0  0  0  0
  3 19  1  0  0  0  0
  4 15  2  0  0  0  0
  5  2  1  0  0  0  0
  6 17  1  0  0  0  0
  6  1  2  0  0  0  0
  7  3  2  0  0  0  0
  7  4  1  0  0  0  0
  8 23  1  6  0  0  0
  8 13  1  0  0  0  0
  9  1  1  0  0  0  0
 11  4  1  0  0  0  0
 12  8  1  0  0  0  0
 13 18  1  1  0  0  0
 14  5  2  0  0  0  0
 15 20  1  0  0  0  0
 16 12  1  0  0  0  0
 16  5  1  0  0  0  0
 17 16  2  0  0  0  0
 18 10  1  0  0  0  0
 19 10  1  0  0  0  0
 19 20  2  0  0  0  0
 22 21  2  0  0  0  0
 23 22  1  0  0  0  0
 24 27  1  6  0  0  0
 24 28  1  0  0  0  0
 28 25  1  0  0  0  0
 29 26  1  6  0  0  0
 29 30  1  0  0  0  0
 30 22  1  6  0  0  0
 30 25  1  0  0  0  0
 31 24  1  0  0  0  0
 31 29  1  0  0  0  0
M  END
>  <MODEL>
2

>  <REMARK>
 VINA RESULT:      -9.1      1.290      4.071
  Name = 
  2 active torsions:
  status: ('A' for Active; 'I' for Inactive)
    1  A    between atoms: C_5  and  C_30
    2  A    between atoms: C_10  and  N_16
                            x       y       z     vdW  Elec       q    Type
                         _______ _______ _______ _____ _____    ______ ____

>  <TORSDO>
F 2

$$$$
=
 OpenBabel11112416533D

 31 35  0  0  1  0  0  0  0  0999 V2000
  185.6870  178.2870  140.8930 C   0  0  0  0  0  0  0  0  0  0  0  0
  187.6170  177.7950  144.0870 N   0  0  0  0  0  0  0  0  0  0  0  0
  186.7050  177.9090  145.2060 C   0  0  0  0  0  0  0  0  0  0  0  0
  184.5580  178.5270  146.1690 C   0  0  0  0  0  0  0  0  0  0  0  0
  187.1620  177.6700  142.7220 C   0  0  0  0  0  0  0  0  0  0  0  0
  186.3630  177.4080  140.0440 C   0  0  0  0  0  3  0  0  0  0  0  0
  185.4130  178.4380  145.0660 C   0  0  0  0  0  3  0  0  0  0  0  0
  189.3540  176.0770  143.7510 C   0  0  2  0  0  3  0  0  0  0  0  0
  184.6440  179.0130  140.4230 F   0  0  0  0  0  0  0  0  0  0  0  0
  188.4790  176.8670  146.6040 C   0  0  0  0  0  2  0  0  0  0  0  0
  183.3140  179.0410  146.0220 F   0  0  0  0  0  0  0  0  0  0  0  0
  188.9620  176.0400  142.3420 N   0  0  0  0  0  2  0  0  0  0  0  0
  189.0370  177.4590  144.3290 C   0  0  2  0  0  3  0  0  0  0  0  0
  186.0870  178.4220  142.2240 C   0  0  0  0  0  3  0  0  0  0  0  0
  184.9860  178.0790  147.4210 C   0  0  0  0  0  3  0  0  0  0  0  0
  187.8400  176.7880  141.8580 C   0  0  0  0  0  0  0  0  0  0  0  0
  187.4410  176.6610  140.5250 C   0  0  0  0  0  3  0  0  0  0  0  0
  189.4210  177.5790  145.7440 N   0  0  0  0  0  2  0  0  0  0  0  0
  187.1260  177.4740  146.4700 C   0  0  0  0  0  0  0  0  0  0  0  0
  186.2690  177.5490  147.5720 C   0  0  0  0  0  3  0  0  0  0  0  0
  190.5040  173.4830  144.0100 O   0  0  0  0  0  0  0  0  0  0  0  0
  191.2890  174.4710  143.9900 C   0  0  0  0  0  0  0  0  0  0  0  0
  190.7770  175.7980  143.8710 N   0  0  0  0  0  2  0  0  0  0  0  0
  193.9980  176.0820  145.9200 C   0  0  1  0  0  3  0  0  0  0  0  0
  193.1630  173.7670  145.4970 C   0  0  0  0  0  2  0  0  0  0  0  0
  193.2750  176.0670  142.3840 C   0  0  0  0  0  1  0  0  0  0  0  0
  194.0480  177.1660  146.8840 N   0  0  0  0  0  1  0  0  0  0  0  0
  193.2080  174.9130  146.5100 C   0  0  0  0  0  2  0  0  0  0  0  0
  193.5910  175.5340  143.7710 C   0  0  2  0  0  3  0  0  0  0  0  0
  192.7740  174.2700  144.1020 C   0  0  2  0  0  3  0  0  0  0  0  0
  193.3810  176.5340  144.7390 O   0  0  0  0  0  0  0  0  0  0  0  0
  1 14  1  0  0  0  0
  2 13  1  0  0  0  0
  2  3  1  0  0  0  0
  3 19  1  0  0  0  0
  4 15  2  0  0  0  0
  5  2  1  0  0  0  0
  6 17  1  0  0  0  0
  6  1  2  0  0  0  0
  7  3  2  0  0  0  0
  7  4  1  0  0  0  0
  8 23  1  6  0  0  0
  8 13  1  0  0  0  0
  9  1  1  0  0  0  0
 11  4  1  0  0  0  0
 12  8  1  0  0  0  0
 13 18  1  1  0  0  0
 14  5  2  0  0  0  0
 15 20  1  0  0  0  0
 16 12  1  0  0  0  0
 16  5  1  0  0  0  0
 17 16  2  0  0  0  0
 18 10  1  0  0  0  0
 19 10  1  0  0  0  0
 19 20  2  0  0  0  0
 22 21  2  0  0  0  0
 23 22  1  0  0  0  0
 24 28  1  0  0  0  0
 24 27  1  1  0  0  0
 25 28  1  0  0  0  0
 29 26  1  6  0  0  0
 29 30  1  0  0  0  0
 29 31  1  0  0  0  0
 30 22  1  1  0  0  0
 30 25  1  0  0  0  0
 31 24  1  0  0  0  0
M  END
>  <MODEL>
3

>  <REMARK>
 VINA RESULT:      -9.1      1.495      4.236
  Name = 
  2 active torsions:
  status: ('A' for Active; 'I' for Inactive)
    1  A    between atoms: C_5  and  C_30
    2  A    between atoms: C_10  and  N_16
                            x       y       z     vdW  Elec       q    Type
                         _______ _______ _______ _____ _____    ______ ____

>  <TORSDO>
F 2

$$$$
=
 OpenBabel11112416533D

 31 35  0  0  1  0  0  0  0  0999 V2000
  185.4610  178.2360  140.8280 C   0  0  0  0  0  0  0  0  0  0  0  0
  187.6930  177.9270  143.8440 N   0  0  0  0  0  0  0  0  0  0  0  0
  186.8730  177.9610  145.0370 C   0  0  0  0  0  0  0  0  0  0  0  0
  184.7690  178.3880  146.1820 C   0  0  0  0  0  0  0  0  0  0  0  0
  187.1360  177.7580  142.5220 C   0  0  0  0  0  0  0  0  0  0  0  0
  186.1380  177.4180  139.9200 C   0  0  0  0  0  3  0  0  0  0  0  0
  185.5310  178.3730  145.0100 C   0  0  0  0  0  3  0  0  0  0  0  0
  189.5410  176.3690  143.3530 C   0  0  2  0  0  3  0  0  0  0  0  0
  184.3220  178.8650  140.4520 F   0  0  0  0  0  0  0  0  0  0  0  0
  188.8450  177.0860  146.2730 C   0  0  0  0  0  2  0  0  0  0  0  0
  183.4760  178.7890  146.1440 F   0  0  0  0  0  0  0  0  0  0  0  0
  189.0350  176.2940  141.9820 N   0  0  0  0  0  2  0  0  0  0  0  0
  189.1520  177.7200  143.9620 C   0  0  2  0  0  3  0  0  0  0  0  0
  185.9600  178.4100  142.1210 C   0  0  0  0  0  3  0  0  0  0  0  0
  185.3400  177.9840  147.3910 C   0  0  0  0  0  3  0  0  0  0  0  0
  187.8140  176.9370  141.5990 C   0  0  0  0  0  0  0  0  0  0  0  0
  187.3160  176.7720  140.3040 C   0  0  0  0  0  3  0  0  0  0  0  0
  189.6430  177.8770  145.3400 N   0  0  0  0  0  2  0  0  0  0  0  0
  187.4370  177.5690  146.2580 C   0  0  0  0  0  0  0  0  0  0  0  0
  186.6740  177.5700  147.4300 C   0  0  0  0  0  3  0  0  0  0  0  0
  190.9860  174.3510  144.7510 O   0  0  0  0  0  0  0  0  0  0  0  0
  191.6500  175.1770  144.0680 C   0  0  0  0  0  0  0  0  0  0  0  0
  190.9880  176.2190  143.3500 N   0  0  0  0  0  2  0  0  0  0  0  0
  194.1510  172.6270  145.0170 C   0  0  1  0  0  3  0  0  0  0  0  0
  193.6020  174.0120  143.0140 C   0  0  0  0  0  2  0  0  0  0  0  0
  193.4210  175.8790  146.4020 C   0  0  0  0  0  1  0  0  0  0  0  0
  194.0730  171.2990  145.5970 N   0  0  0  0  0  1  0  0  0  0  0  0
  193.5120  172.6140  143.6280 C   0  0  0  0  0  2  0  0  0  0  0  0
  193.8040  174.8260  145.3760 C   0  0  2  0  0  3  0  0  0  0  0  0
  193.1490  175.0890  144.0060 C   0  0  2  0  0  3  0  0  0  0  0  0
  193.4790  173.5410  145.8490 O   0  0  0  0  0  0  0  0  0  0  0  0
  1 14  1  0  0  0  0
  2 13  1  0  0  0  0
  2  3  1  0  0  0  0
  3 19  1  0  0  0  0
  4 15  2  0  0  0  0
  5  2  1  0  0  0  0
  6 17  1  0  0  0  0
  6  1  2  0  0  0  0
  7  3  2  0  0  0  0
  7  4  1  0  0  0  0
  8 23  1  6  0  0  0
  8 13  1  0  0  0  0
  9  1  1  0  0  0  0
 11  4  1  0  0  0  0
 12  8  1  0  0  0  0
 13 18  1  1  0  0  0
 14  5  2  0  0  0  0
 15 20  1  0  0  0  0
 16 12  1  0  0  0  0
 16  5  1  0  0  0  0
 17 16  2  0  0  0  0
 18 10  1  0  0  0  0
 19 10  1  0  0  0  0
 19 20  2  0  0  0  0
 22 21  2  0  0  0  0
 23 22  1  0  0  0  0
 24 27  1  1  0  0  0
 24 31  1  0  0  0  0
 25 28  1  0  0  0  0
 25 30  1  0  0  0  0
 28 24  1  0  0  0  0
 29 31  1  0  0  0  0
 29 26  1  1  0  0  0
 30 22  1  1  0  0  0
 30 29  1  0  0  0  0
M  END
>  <MODEL>
4

>  <REMARK>
 VINA RESULT:      -8.9      1.724      4.464
  Name = 
  2 active torsions:
  status: ('A' for Active; 'I' for Inactive)
    1  A    between atoms: C_5  and  C_30
    2  A    between atoms: C_10  and  N_16
                            x       y       z     vdW  Elec       q    Type
                         _______ _______ _______ _____ _____    ______ ____

>  <TORSDO>
F 2

$$$$
=
 OpenBabel11112416533D

 31 35  0  0  1  0  0  0  0  0999 V2000
  184.9650  178.0330  146.9530 C   0  0  0  0  0  0  0  0  0  0  0  0
  186.5650  176.8440  143.7580 N   0  0  0  0  0  0  0  0  0  0  0  0
  185.7780  177.3170  142.6390 C   0  0  0  0  0  0  0  0  0  0  0  0
  183.7550  178.2850  141.6950 C   0  0  0  0  0  0  0  0  0  0  0  0
  186.3800  177.3400  145.1020 C   0  0  0  0  0  0  0  0  0  0  0  0
  186.0970  178.2580  147.7400 C   0  0  0  0  0  3  0  0  0  0  0  0
  184.4830  177.8340  142.8000 C   0  0  0  0  0  3  0  0  0  0  0  0
  189.0190  176.9110  143.9850 C   0  0  2  0  0  3  0  0  0  0  0  0
  183.7310  178.2590  147.4620 F   0  0  0  0  0  0  0  0  0  0  0  0
  187.7200  176.7530  141.1900 C   0  0  0  0  0  2  0  0  0  0  0  0
  182.5060  178.7810  141.8630 F   0  0  0  0  0  0  0  0  0  0  0  0
  188.8220  177.3010  145.3810 N   0  0  0  0  0  2  0  0  0  0  0  0
  187.8140  176.0930  143.5120 C   0  0  2  0  0  3  0  0  0  0  0  0
  185.1050  177.5710  145.6420 C   0  0  0  0  0  3  0  0  0  0  0  0
  184.3190  178.2300  140.4180 C   0  0  0  0  0  3  0  0  0  0  0  0
  187.5160  177.5670  145.9050 C   0  0  0  0  0  0  0  0  0  0  0  0
  187.3710  178.0220  147.2180 C   0  0  0  0  0  3  0  0  0  0  0  0
  187.9490  175.6470  142.1160 N   0  0  0  0  0  2  0  0  0  0  0  0
  186.3270  177.2560  141.3510 C   0  0  0  0  0  0  0  0  0  0  0  0
  185.6080  177.7190  140.2450 C   0  0  0  0  0  3  0  0  0  0  0  0
  191.6150  177.9660  143.4640 O   0  0  0  0  0  0  0  0  0  0  0  0
  191.5110  176.7170  143.6100 C   0  0  0  0  0  0  0  0  0  0  0  0
  190.2370  176.1230  143.8640 N   0  0  0  0  0  2  0  0  0  0  0  0
  192.1350  173.0990  144.0290 C   0  0  1  0  0  3  0  0  0  0  0  0
  192.6020  174.8630  142.3250 C   0  0  0  0  0  2  0  0  0  0  0  0
  193.1670  175.9380  146.0020 C   0  0  0  0  0  1  0  0  0  0  0  0
  191.3000  171.9580  144.3540 N   0  0  0  0  0  1  0  0  0  0  0  0
  191.7150  173.6660  142.6720 C   0  0  0  0  0  2  0  0  0  0  0  0
  193.0070  175.0330  144.7930 C   0  0  2  0  0  3  0  0  0  0  0  0
  192.7200  175.8320  143.5070 C   0  0  2  0  0  3  0  0  0  0  0  0
  191.9970  174.0810  145.0270 O   0  0  0  0  0  0  0  0  0  0  0  0
  1  9  1  0  0  0  0
  1  6  1  0  0  0  0
  2  5  1  0  0  0  0
  3  7  1  0  0  0  0
  3  2  1  0  0  0  0
  4 11  1  0  0  0  0
  4  7  2  0  0  0  0
  5 14  1  0  0  0  0
  5 16  2  0  0  0  0
  8 23  1  1  0  0  0
  8 12  1  0  0  0  0
 10 19  1  0  0  0  0
 10 18  1  0  0  0  0
 12 16  1  0  0  0  0
 13 18  1  6  0  0  0
 13  2  1  0  0  0  0
 13  8  1  0  0  0  0
 14  1  2  0  0  0  0
 15  4  1  0  0  0  0
 16 17  1  0  0  0  0
 17  6  2  0  0  0  0
 19  3  2  0  0  0  0
 20 15  2  0  0  0  0
 20 19  1  0  0  0  0
 21 22  2  0  0  0  0
 22 23  1  0  0  0  0
 24 27  1  1  0  0  0
 24 31  1  0  0  0  0
 25 28  1  0  0  0  0
 25 30  1  0  0  0  0
 28 24  1  0  0  0  0
 29 31  1  0  0  0  0
 29 26  1  1  0  0  0
 30 22  1  1  0  0  0
 30 29  1  0  0  0  0
M  END
>  <MODEL>
5

>  <REMARK>
 VINA RESULT:      -8.7      1.678      2.431
  Name = 
  2 active torsions:
  status: ('A' for Active; 'I' for Inactive)
    1  A    between atoms: C_5  and  C_30
    2  A    between atoms: C_10  and  N_16
                            x       y       z     vdW  Elec       q    Type
                         _______ _______ _______ _____ _____    ______ ____

>  <TORSDO>
F 2

$$$$
=
 OpenBabel11112416533D

 31 35  0  0  1  0  0  0  0  0999 V2000
  186.3070  177.6480  140.8400 C   0  0  0  0  0  0  0  0  0  0  0  0
  187.8450  177.6650  144.2770 N   0  0  0  0  0  0  0  0  0  0  0  0
  186.8050  177.9160  145.2520 C   0  0  0  0  0  0  0  0  0  0  0  0
  184.5540  178.6160  145.8570 C   0  0  0  0  0  0  0  0  0  0  0  0
  187.5560  177.3350  142.9010 C   0  0  0  0  0  0  0  0  0  0  0  0
  187.0850  176.6720  140.2140 C   0  0  0  0  0  3  0  0  0  0  0  0
  185.5350  178.3900  144.8870 C   0  0  0  0  0  3  0  0  0  0  0  0
  189.6190  175.9570  144.4000 C   0  0  2  0  0  3  0  0  0  0  0  0
  185.3230  178.2740  140.1510 F   0  0  0  0  0  0  0  0  0  0  0  0
  188.4060  177.1280  146.9850 C   0  0  0  0  0  2  0  0  0  0  0  0
  183.3330  179.0750  145.4920 F   0  0  0  0  0  0  0  0  0  0  0  0
  189.3990  175.7090  142.9750 N   0  0  0  0  0  2  0  0  0  0  0  0
  189.2270  177.4010  144.7290 C   0  0  2  0  0  3  0  0  0  0  0  0
  186.5440  177.9820  142.1760 C   0  0  0  0  0  3  0  0  0  0  0  0
  184.8320  178.3630  147.2020 C   0  0  0  0  0  3  0  0  0  0  0  0
  188.3380  176.3530  142.2600 C   0  0  0  0  0  0  0  0  0  0  0  0
  188.1030  176.0270  140.9220 C   0  0  0  0  0  3  0  0  0  0  0  0
  189.4390  177.7320  146.1480 N   0  0  0  0  0  2  0  0  0  0  0  0
  187.0740  177.6780  146.6070 C   0  0  0  0  0  0  0  0  0  0  0  0
  186.0910  177.8900  147.5780 C   0  0  0  0  0  3  0  0  0  0  0  0
  191.8320  177.1510  143.0590 O   0  0  0  0  0  0  0  0  0  0  0  0
  192.0820  176.3700  144.0180 C   0  0  0  0  0  0  0  0  0  0  0  0
  191.0200  175.7320  144.7260 N   0  0  0  0  0  2  0  0  0  0  0  0
  193.9680  173.3340  144.9600 C   0  0  1  0  0  3  0  0  0  0  0  0
  194.2230  175.2410  143.3680 C   0  0  0  0  0  2  0  0  0  0  0  0
  192.9520  176.2040  146.8970 C   0  0  0  0  0  1  0  0  0  0  0  0
  193.6290  171.9280  145.0790 N   0  0  0  0  0  1  0  0  0  0  0  0
  193.8580  173.7610  143.4950 C   0  0  0  0  0  2  0  0  0  0  0  0
  193.6210  175.3990  145.7970 C   0  0  2  0  0  3  0  0  0  0  0  0
  193.5010  176.0870  144.4230 C   0  0  2  0  0  3  0  0  0  0  0  0
  193.0910  174.0960  145.7520 O   0  0  0  0  0  0  0  0  0  0  0  0
  1 14  1  0  0  0  0
  2 13  1  0  0  0  0
  2  3  1  0  0  0  0
  3 19  1  0  0  0  0
  4 15  2  0  0  0  0
  5  2  1  0  0  0  0
  6  1  2  0  0  0  0
  6 17  1  0  0  0  0
  7  3  2  0  0  0  0
  7  4  1  0  0  0  0
  8 23  1  6  0  0  0
  8 13  1  0  0  0  0
  9  1  1  0  0  0  0
 11  4  1  0  0  0  0
 12  8  1  0  0  0  0
 13 18  1  1  0  0  0
 14  5  2  0  0  0  0
 15 20  1  0  0  0  0
 16  5  1  0  0  0  0
 16 12  1  0  0  0  0
 17 16  2  0  0  0  0
 18 10  1  0  0  0  0
 19 10  1  0  0  0  0
 19 20  2  0  0  0  0
 21 22  2  0  0  0  0
 22 23  1  0  0  0  0
 24 27  1  6  0  0  0
 24 31  1  0  0  0  0
 25 28  1  0  0  0  0
 25 30  1  0  0  0  0
 28 24  1  0  0  0  0
 29 26  1  1  0  0  0
 30 22  1  6  0  0  0
 30 29  1  0  0  0  0
 31 29  1  0  0  0  0
M  END
>  <MODEL>
6

>  <REMARK>
 VINA RESULT:      -8.0      1.522      4.327
  Name = 
  2 active torsions:
  status: ('A' for Active; 'I' for Inactive)
    1  A    between atoms: C_5  and  C_30
    2  A    between atoms: C_10  and  N_16
                            x       y       z     vdW  Elec       q    Type
                         _______ _______ _______ _____ _____    ______ ____

>  <TORSDO>
F 2

$$$$
=
 OpenBabel11112416533D

 31 35  0  0  1  0  0  0  0  0999 V2000
  189.7530  171.8300  142.4040 C   0  0  0  0  0  0  0  0  0  0  0  0
  189.7520  174.8750  144.6180 N   0  0  0  0  0  0  0  0  0  0  0  0
  191.0630  175.0190  145.2140 C   0  0  0  0  0  0  0  0  0  0  0  0
  193.2720  174.1630  145.7720 C   0  0  0  0  0  0  0  0  0  0  0  0
  189.4920  173.9720  143.5210 C   0  0  0  0  0  0  0  0  0  0  0  0
  188.9020  172.2530  141.3810 C   0  0  0  0  0  3  0  0  0  0  0  0
  192.0130  173.9860  145.1900 C   0  0  0  0  0  3  0  0  0  0  0  0
  188.3840  176.6490  143.5870 C   0  0  2  0  0  3  0  0  0  0  0  0
  190.2950  170.5890  142.3630 F   0  0  0  0  0  0  0  0  0  0  0  0
  190.4040  177.3410  145.8160 C   0  0  0  0  0  2  0  0  0  0  0  0
  194.1790  173.1590  145.7430 F   0  0  0  0  0  0  0  0  0  0  0  0
  188.0320  175.6890  142.5400 N   0  0  0  0  0  2  0  0  0  0  0  0
  188.7120  175.8930  144.8780 C   0  0  2  0  0  3  0  0  0  0  0  0
  190.0430  172.6820  143.4720 C   0  0  0  0  0  3  0  0  0  0  0  0
  193.5950  175.3800  146.3790 C   0  0  0  0  0  3  0  0  0  0  0  0
  188.6310  174.3900  142.4860 C   0  0  0  0  0  0  0  0  0  0  0  0
  188.3380  173.5310  141.4230 C   0  0  0  0  0  3  0  0  0  0  0  0
  189.0590  176.7970  145.9860 N   0  0  0  0  0  2  0  0  0  0  0  0
  191.3960  176.2300  145.8360 C   0  0  0  0  0  0  0  0  0  0  0  0
  192.6580  176.4160  146.4080 C   0  0  0  0  0  3  0  0  0  0  0  0
  187.4700  178.6110  141.7340 O   0  0  0  0  0  0  0  0  0  0  0  0
  186.8580  178.5170  142.8330 C   0  0  0  0  0  0  0  0  0  0  0  0
  187.2710  177.5610  143.8090 N   0  0  0  0  0  2  0  0  0  0  0  0
  184.3270  178.6780  145.5210 C   0  0  1  0  0  3  0  0  0  0  0  0
  185.9410  180.2290  144.4160 C   0  0  0  0  0  2  0  0  0  0  0  0
  184.0340  177.8610  142.0180 C   0  0  0  0  0  1  0  0  0  0  0  0
  184.0650  177.8930  146.7140 N   0  0  0  0  0  1  0  0  0  0  0  0
  185.6690  179.3960  145.6700 C   0  0  0  0  0  2  0  0  0  0  0  0
  184.3550  178.6650  143.2660 C   0  0  2  0  0  3  0  0  0  0  0  0
  185.6950  179.4170  143.1400 C   0  0  2  0  0  3  0  0  0  0  0  0
  184.3540  177.8300  144.3990 O   0  0  0  0  0  0  0  0  0  0  0  0
  1 14  1  0  0  0  0
  2 13  1  0  0  0  0
  2  3  1  0  0  0  0
  3 19  1  0  0  0  0
  4 15  2  0  0  0  0
  5  2  1  0  0  0  0
  6 17  1  0  0  0  0
  6  1  2  0  0  0  0
  7  3  2  0  0  0  0
  7  4  1  0  0  0  0
  8 23  1  1  0  0  0
  8 13  1  0  0  0  0
  9  1  1  0  0  0  0
 10 19  1  0  0  0  0
 10 18  1  0  0  0  0
 11  4  1  0  0  0  0
 12  8  1  0  0  0  0
 13 18  1  1  0  0  0
 14  5  2  0  0  0  0
 15 20  1  0  0  0  0
 16 12  1  0  0  0  0
 16  5  1  0  0  0  0
 17 16  2  0  0  0  0
 19 20  2  0  0  0  0
 21 22  2  0  0  0  0
 22 23  1  0  0  0  0
 24 28  1  0  0  0  0
 24 27  1  1  0  0  0
 25 28  1  0  0  0  0
 29 26  1  6  0  0  0
 29 31  1  0  0  0  0
 30 22  1  1  0  0  0
 30 29  1  0  0  0  0
 30 25  1  0  0  0  0
 31 24  1  0  0  0  0
M  END
>  <MODEL>
7

>  <REMARK>
 VINA RESULT:      -7.9      3.852      8.020
  Name = 
  2 active torsions:
  status: ('A' for Active; 'I' for Inactive)
    1  A    between atoms: C_5  and  C_30
    2  A    between atoms: C_10  and  N_16
                            x       y       z     vdW  Elec       q    Type
                         _______ _______ _______ _____ _____    ______ ____

>  <TORSDO>
F 2

$$$$
=
 OpenBabel11112416533D

 31 35  0  0  1  0  0  0  0  0999 V2000
  185.6110  178.2840  147.3460 C   0  0  0  0  0  0  0  0  0  0  0  0
  186.8540  176.7440  144.1430 N   0  0  0  0  0  0  0  0  0  0  0  0
  186.0780  177.2720  143.0400 C   0  0  0  0  0  0  0  0  0  0  0  0
  184.1590  178.4720  142.1470 C   0  0  0  0  0  0  0  0  0  0  0  0
  186.8130  177.3190  145.4670 C   0  0  0  0  0  0  0  0  0  0  0  0
  186.8050  178.3840  148.0650 C   0  0  0  0  0  3  0  0  0  0  0  0
  184.8780  177.9720  143.2370 C   0  0  0  0  0  3  0  0  0  0  0  0
  189.3030  176.4760  144.2470 C   0  0  2  0  0  3  0  0  0  0  0  0
  184.4500  178.7030  147.9020 F   0  0  0  0  0  0  0  0  0  0  0  0
  187.8420  176.3790  141.5300 C   0  0  0  0  0  2  0  0  0  0  0  0
  183.0020  179.1450  142.3500 F   0  0  0  0  0  0  0  0  0  0  0  0
  189.2380  176.9520  145.6290 N   0  0  0  0  0  2  0  0  0  0  0  0
  187.9720  175.8150  143.8750 C   0  0  2  0  0  3  0  0  0  0  0  0
  185.6140  177.7500  146.0550 C   0  0  0  0  0  3  0  0  0  0  0  0
  184.6390  178.2820  140.8490 C   0  0  0  0  0  3  0  0  0  0  0  0
  188.0120  177.4210  146.2010 C   0  0  0  0  0  0  0  0  0  0  0  0
  188.0040  177.9490  147.4950 C   0  0  0  0  0  3  0  0  0  0  0  0
  187.9680  175.2940  142.4990 N   0  0  0  0  0  2  0  0  0  0  0  0
  186.5430  177.0790  141.7320 C   0  0  0  0  0  0  0  0  0  0  0  0
  185.8340  177.5890  140.6400 C   0  0  0  0  0  3  0  0  0  0  0  0
  191.8140  177.0160  143.0120 O   0  0  0  0  0  0  0  0  0  0  0  0
  191.6320  175.8600  143.4840 C   0  0  0  0  0  0  0  0  0  0  0  0
  190.3930  175.5220  144.1080 N   0  0  0  0  0  2  0  0  0  0  0  0
  195.0530  175.7670  142.0900 C   0  0  1  0  0  3  0  0  0  0  0  0
  193.9250  175.1920  144.2420 C   0  0  0  0  0  2  0  0  0  0  0  0
  192.0100  174.1310  141.0480 C   0  0  0  0  0  1  0  0  0  0  0  0
  195.8990  176.7350  141.4180 N   0  0  0  0  0  1  0  0  0  0  0  0
  194.8100  176.2180  143.5310 C   0  0  0  0  0  2  0  0  0  0  0  0
  193.1670  174.5400  141.9430 C   0  0  2  0  0  3  0  0  0  0  0  0
  192.7080  174.8170  143.3880 C   0  0  2  0  0  3  0  0  0  0  0  0
  193.8290  175.6590  141.4050 O   0  0  0  0  0  0  0  0  0  0  0  0
  1  9  1  0  0  0  0
  1  6  1  0  0  0  0
  2  5  1  0  0  0  0
  3  7  1  0  0  0  0
  3  2  1  0  0  0  0
  4 11  1  0  0  0  0
  4  7  2  0  0  0  0
  5 14  1  0  0  0  0
  5 16  2  0  0  0  0
  8 23  1  1  0  0  0
  8 12  1  0  0  0  0
 10 19  1  0  0  0  0
 10 18  1  0  0  0  0
 12 16  1  0  0  0  0
 13 18  1  6  0  0  0
 13  2  1  0  0  0  0
 13  8  1  0  0  0  0
 14  1  2  0  0  0  0
 15  4  1  0  0  0  0
 16 17  1  0  0  0  0
 17  6  2  0  0  0  0
 19  3  2  0  0  0  0
 20 15  2  0  0  0  0
 20 19  1  0  0  0  0
 21 22  2  0  0  0  0
 22 23  1  0  0  0  0
 24 27  1  6  0  0  0
 24 28  1  0  0  0  0
 28 25  1  0  0  0  0
 29 26  1  6  0  0  0
 29 30  1  0  0  0  0
 30 22  1  6  0  0  0
 30 25  1  0  0  0  0
 31 29  1  0  0  0  0
 31 24  1  0  0  0  0
M  END
>  <MODEL>
8

>  <REMARK>
 VINA RESULT:      -7.9      1.466      1.758
  Name = 
  2 active torsions:
  status: ('A' for Active; 'I' for Inactive)
    1  A    between atoms: C_5  and  C_30
    2  A    between atoms: C_10  and  N_16
                            x       y       z     vdW  Elec       q    Type
                         _______ _______ _______ _____ _____    ______ ____

>  <TORSDO>
F 2

$$$$
=
 OpenBabel11112416533D

 31 35  0  0  1  0  0  0  0  0999 V2000
  194.2630  176.5050  145.1740 C   0  0  0  0  0  0  0  0  0  0  0  0
  190.8820  176.1650  143.5520 N   0  0  0  0  0  0  0  0  0  0  0  0
  190.9940  175.2620  142.4250 C   0  0  0  0  0  0  0  0  0  0  0  0
  192.3030  174.0040  140.8060 C   0  0  0  0  0  0  0  0  0  0  0  0
  191.9250  176.3060  144.5410 C   0  0  0  0  0  0  0  0  0  0  0  0
  193.8950  176.6310  146.5150 C   0  0  0  0  0  3  0  0  0  0  0  0
  192.2350  174.8820  141.8910 C   0  0  0  0  0  3  0  0  0  0  0  0
  189.1270  176.1740  145.2840 C   0  0  2  0  0  3  0  0  0  0  0  0
  195.5710  176.5380  144.8260 F   0  0  0  0  0  0  0  0  0  0  0  0
  188.5110  175.1150  142.4500 C   0  0  0  0  0  2  0  0  0  0  0  0
  193.5070  173.6460  140.2990 F   0  0  0  0  0  0  0  0  0  0  0  0
  190.1790  176.4320  146.2670 N   0  0  0  0  0  2  0  0  0  0  0  0
  189.5620  176.7190  143.9200 C   0  0  2  0  0  3  0  0  0  0  0  0
  193.2830  176.3480  144.1900 C   0  0  0  0  0  3  0  0  0  0  0  0
  191.1290  173.4910  140.2490 C   0  0  0  0  0  3  0  0  0  0  0  0
  191.5630  176.4370  145.8970 C   0  0  0  0  0  0  0  0  0  0  0  0
  192.5450  176.6010  146.8760 C   0  0  0  0  0  3  0  0  0  0  0  0
  188.5430  176.5110  142.8800 N   0  0  0  0  0  2  0  0  0  0  0  0
  189.8230  174.7490  141.8500 C   0  0  0  0  0  0  0  0  0  0  0  0
  189.8880  173.8600  140.7730 C   0  0  0  0  0  3  0  0  0  0  0  0
  187.6820  175.5480  147.6590 O   0  0  0  0  0  0  0  0  0  0  0  0
  187.2210  176.4590  146.9170 C   0  0  0  0  0  0  0  0  0  0  0  0
  187.8910  176.8150  145.7080 N   0  0  0  0  0  2  0  0  0  0  0  0
  185.2270  179.1760  145.3990 C   0  0  1  0  0  3  0  0  0  0  0  0
  184.8320  176.8750  146.2850 C   0  0  0  0  0  2  0  0  0  0  0  0
  187.2040  179.0720  148.4170 C   0  0  0  0  0  1  0  0  0  0  0  0
  185.3570  179.9760  144.1950 N   0  0  0  0  0  1  0  0  0  0  0  0
  184.9770  177.7170  145.0150 C   0  0  0  0  0  2  0  0  0  0  0  0
  186.1260  178.7020  147.4120 C   0  0  2  0  0  3  0  0  0  0  0  0
  185.9530  177.1760  147.2860 C   0  0  2  0  0  3  0  0  0  0  0  0
  186.4060  179.2800  146.1600 O   0  0  0  0  0  0  0  0  0  0  0  0
  1  6  1  0  0  0  0
  2 13  1  0  0  0  0
  2  5  1  0  0  0  0
  3  2  1  0  0  0  0
  4  7  2  0  0  0  0
  5 16  2  0  0  0  0
  6 17  2  0  0  0  0
  7  3  1  0  0  0  0
  8 23  1  1  0  0  0
  8 12  1  0  0  0  0
  9  1  1  0  0  0  0
 10 18  1  0  0  0  0
 11  4  1  0  0  0  0
 13 18  1  6  0  0  0
 13  8  1  0  0  0  0
 14  5  1  0  0  0  0
 14  1  2  0  0  0  0
 15 20  2  0  0  0  0
 15  4  1  0  0  0  0
 16 12  1  0  0  0  0
 16 17  1  0  0  0  0
 19  3  2  0  0  0  0
 19 10  1  0  0  0  0
 20 19  1  0  0  0  0
 22 21  2  0  0  0  0
 23 22  1  0  0  0  0
 24 27  1  6  0  0  0
 24 31  1  0  0  0  0
 25 30  1  0  0  0  0
 28 24  1  0  0  0  0
 28 25  1  0  0  0  0
 29 26  1  1  0  0  0
 30 22  1  6  0  0  0
 30 29  1  0  0  0  0
 31 29  1  0  0  0  0
M  END
>  <MODEL>
9

>  <REMARK>
 VINA RESULT:      -7.9      3.947      7.245
  Name = 
  2 active torsions:
  status: ('A' for Active; 'I' for Inactive)
    1  A    between atoms: C_5  and  C_30
    2  A    between atoms: C_10  and  N_16
                            x       y       z     vdW  Elec       q    Type
                         _______ _______ _______ _____ _____    ______ ____

>  <TORSDO>
F 2

$$$$
