=
 OpenBabel11112416453D

 31 35  0  0  1  0  0  0  0  0999 V2000
  184.8410  178.3880  146.8120 C   0  0  0  0  0  0  0  0  0  0  0  0
  187.3230  175.9860  145.2290 C   0  0  2  0  0  3  0  0  0  0  0  0
  187.3950  176.3670  143.7590 C   0  0  0  0  0  0  0  0  0  0  0  0
  186.3440  177.3080  141.7750 C   0  0  0  0  0  0  0  0  0  0  0  0
  186.7460  177.0760  146.1090 C   0  0  0  0  0  0  0  0  0  0  0  0
  185.6420  179.1010  147.6470 N   0  0  0  0  0  0  0  0  0  0  0  0
  186.3180  177.0230  143.1420 C   0  0  0  0  0  3  0  0  0  0  0  0
  189.6080  176.6340  146.1350 C   0  0  2  0  0  3  0  0  0  0  0  0
  183.5190  178.6730  146.7340 F   0  0  0  0  0  0  0  0  0  0  0  0
  189.6590  175.2500  143.5730 C   0  0  0  0  0  2  0  0  0  0  0  0
  185.2030  178.0180  141.1420 C   0  0  0  0  0  1  0  0  0  0  0  0
  188.9890  177.4710  147.2500 C   0  0  0  0  0  2  0  0  0  0  0  0
  188.6740  175.4710  145.7640 C   0  0  2  0  0  3  0  0  0  0  0  0
  185.3770  177.3620  146.0340 C   0  0  0  0  0  3  0  0  0  0  0  0
  187.4410  176.9220  141.0040 C   0  0  0  0  0  3  0  0  0  0  0  0
  187.5550  177.8250  146.9890 C   0  0  0  0  0  0  0  0  0  0  0  0
  186.9700  178.8350  147.7570 C   0  0  0  0  0  3  0  0  0  0  0  0
  189.2900  174.5460  144.8030 N   0  0  0  0  0  2  0  0  0  0  0  0
  188.4810  175.9460  142.9630 C   0  0  0  0  0  0  0  0  0  0  0  0
  188.5070  176.2440  141.5960 C   0  0  0  0  0  3  0  0  0  0  0  0
  192.1020  177.1420  144.8500 O   0  0  0  0  0  0  0  0  0  0  0  0
  192.1150  176.4190  145.8840 C   0  0  0  0  0  0  0  0  0  0  0  0
  190.9000  176.1210  146.5720 N   0  0  0  0  0  2  0  0  0  0  0  0
  195.5800  176.1810  144.5230 C   0  0  1  0  0  3  0  0  0  0  0  0
  194.4930  176.9200  146.5090 C   0  0  0  0  0  2  0  0  0  0  0  0
  192.8720  173.5840  145.3630 C   0  0  0  0  0  1  0  0  0  0  0  0
  196.1900  176.6230  143.2100 C   0  0  0  0  0  1  0  0  0  0  0  0
  194.9600  177.3290  145.1820 N   0  0  0  0  0  2  0  0  0  0  0  0
  193.9290  174.6520  145.5830 C   0  0  2  0  0  3  0  0  0  0  0  0
  193.4050  175.8460  146.4000 C   0  0  2  0  0  3  0  0  0  0  0  0
  194.5370  175.0990  144.2570 C   0  0  0  0  0  2  0  0  0  0  0  0
  1  6  1  0  0  0  0
  2  3  1  6  0  0  0
  2 13  1  0  0  0  0
  2  5  1  0  0  0  0
  4  7  2  0  0  0  0
  5 16  2  0  0  0  0
  6 17  2  0  0  0  0
  7  3  1  0  0  0  0
  8 23  1  1  0  0  0
  8 12  1  0  0  0  0
  9  1  1  0  0  0  0
 10 18  1  0  0  0  0
 11  4  1  0  0  0  0
 13 18  1  6  0  0  0
 13  8  1  0  0  0  0
 14  5  1  0  0  0  0
 14  1  2  0  0  0  0
 15 20  2  0  0  0  0
 15  4  1  0  0  0  0
 16 12  1  0  0  0  0
 16 17  1  0  0  0  0
 19 10  1  0  0  0  0
 19  3  2  0  0  0  0
 20 19  1  0  0  0  0
 21 22  2  0  0  0  0
 22 23  1  0  0  0  0
 24 27  1  6  0  0  0
 24 28  1  0  0  0  0
 28 25  1  0  0  0  0
 29 26  1  6  0  0  0
 29 30  1  0  0  0  0
 30 22  1  6  0  0  0
 30 25  1  0  0  0  0
 31 24  1  0  0  0  0
 31 29  1  0  0  0  0
M  END
>  <MODEL>
1

>  <REMARK>
 VINA RESULT:      -9.0      0.000      0.000
  Name = 
  2 active torsions:
  status: ('A' for Active; 'I' for Inactive)
    1  A    between atoms: C_5  and  C_30
    2  A    between atoms: C_10  and  N_16
                            x       y       z     vdW  Elec       q    Type
                         _______ _______ _______ _____ _____    ______ ____

>  <TORSDO>
F 2

$$$$
=
 OpenBabel11112416453D

 31 35  0  0  1  0  0  0  0  0999 V2000
  184.9490  177.7950  146.7820 C   0  0  0  0  0  0  0  0  0  0  0  0
  187.1360  175.9770  144.2620 C   0  0  2  0  0  3  0  0  0  0  0  0
  186.8390  176.6140  142.9140 C   0  0  0  0  0  0  0  0  0  0  0  0
  185.2990  177.7740  141.4270 C   0  0  0  0  0  0  0  0  0  0  0  0
  186.7140  176.8300  145.4400 C   0  0  0  0  0  0  0  0  0  0  0  0
  185.8780  178.4300  147.5440 N   0  0  0  0  0  0  0  0  0  0  0  0
  185.6100  177.2530  142.6850 C   0  0  0  0  0  3  0  0  0  0  0  0
  189.5250  176.6900  144.7560 C   0  0  2  0  0  3  0  0  0  0  0  0
  183.6310  177.9520  147.0510 F   0  0  0  0  0  0  0  0  0  0  0  0
  189.0610  175.7870  142.0260 C   0  0  0  0  0  2  0  0  0  0  0  0
  184.0010  178.4620  141.2070 C   0  0  0  0  0  1  0  0  0  0  0  0
  189.1330  177.2500  146.1200 C   0  0  0  0  0  2  0  0  0  0  0  0
  188.6030  175.5190  144.3800 C   0  0  2  0  0  3  0  0  0  0  0  0
  185.3510  176.9820  145.7220 C   0  0  0  0  0  3  0  0  0  0  0  0
  186.2080  177.6440  140.3750 C   0  0  0  0  0  3  0  0  0  0  0  0
  187.6590  177.4940  146.2510 C   0  0  0  0  0  0  0  0  0  0  0  0
  187.2090  178.2880  147.3090 C   0  0  0  0  0  3  0  0  0  0  0  0
  189.0330  174.8450  143.1480 N   0  0  0  0  0  2  0  0  0  0  0  0
  187.7330  176.4530  141.8340 C   0  0  0  0  0  0  0  0  0  0  0  0
  187.4220  176.9870  140.5790 C   0  0  0  0  0  3  0  0  0  0  0  0
  191.7590  178.1790  143.7980 O   0  0  0  0  0  0  0  0  0  0  0  0
  191.9860  177.0450  144.3010 C   0  0  0  0  0  0  0  0  0  0  0  0
  190.9110  176.2450  144.7940 N   0  0  0  0  0  2  0  0  0  0  0  0
  193.4480  173.6240  144.5770 C   0  0  1  0  0  3  0  0  0  0  0  0
  193.6890  175.5590  143.2100 C   0  0  0  0  0  2  0  0  0  0  0  0
  193.3700  176.6760  146.9150 C   0  0  0  0  0  1  0  0  0  0  0  0
  192.8150  172.2520  144.6770 C   0  0  0  0  0  1  0  0  0  0  0  0
  192.9700  174.2930  143.3680 N   0  0  0  0  0  2  0  0  0  0  0  0
  193.7240  175.8210  145.7100 C   0  0  2  0  0  3  0  0  0  0  0  0
  193.3880  176.5090  144.3750 C   0  0  2  0  0  3  0  0  0  0  0  0
  193.0800  174.4420  145.8120 C   0  0  0  0  0  2  0  0  0  0  0  0
  1  9  1  0  0  0  0
  1  6  1  0  0  0  0
  2  3  1  6  0  0  0
  2 13  1  0  0  0  0
  2  5  1  0  0  0  0
  4  7  2  0  0  0  0
  5 14  1  0  0  0  0
  5 16  2  0  0  0  0
  7  3  1  0  0  0  0
  8 23  1  1  0  0  0
  8 12  1  0  0  0  0
 10 18  1  0  0  0  0
 11  4  1  0  0  0  0
 12 16  1  0  0  0  0
 13 18  1  6  0  0  0
 13  8  1  0  0  0  0
 14  1  2  0  0  0  0
 15 20  2  0  0  0  0
 15  4  1  0  0  0  0
 16 17  1  0  0  0  0
 17  6  2  0  0  0  0
 19 10  1  0  0  0  0
 19  3  2  0  0  0  0
 20 19  1  0  0  0  0
 21 22  2  0  0  0  0
 22 23  1  0  0  0  0
 24 27  1  1  0  0  0
 24 31  1  0  0  0  0
 25 28  1  0  0  0  0
 25 30  1  0  0  0  0
 28 24  1  0  0  0  0
 29 31  1  0  0  0  0
 29 26  1  1  0  0  0
 30 22  1  1  0  0  0
 30 29  1  0  0  0  0
M  END
>  <MODEL>
2

>  <REMARK>
 VINA RESULT:      -8.9      1.394      2.071
  Name = 
  2 active torsions:
  status: ('A' for Active; 'I' for Inactive)
    1  A    between atoms: C_5  and  C_30
    2  A    between atoms: C_10  and  N_16
                            x       y       z     vdW  Elec       q    Type
                         _______ _______ _______ _____ _____    ______ ____

>  <TORSDO>
F 2

$$$$
=
 OpenBabel11112416453D

 31 35  0  0  1  0  0  0  0  0999 V2000
  187.0550  177.3890  140.8650 C   0  0  0  0  0  0  0  0  0  0  0  0
  188.5610  177.7750  144.3310 C   0  0  2  0  0  3  0  0  0  0  0  0
  187.3860  177.8440  145.2930 C   0  0  0  0  0  0  0  0  0  0  0  0
  185.0630  178.4180  145.7400 C   0  0  0  0  0  0  0  0  0  0  0  0
  188.2050  177.1860  142.9810 C   0  0  0  0  0  0  0  0  0  0  0  0
  187.4670  176.1390  140.5240 N   0  0  0  0  0  0  0  0  0  0  0  0
  186.1280  178.2790  144.8470 C   0  0  0  0  0  3  0  0  0  0  0  0
  189.6600  175.5480  144.8760 C   0  0  2  0  0  3  0  0  0  0  0  0
  186.2870  178.1060  140.0090 F   0  0  0  0  0  0  0  0  0  0  0  0
  188.8940  177.1310  147.1970 C   0  0  0  0  0  2  0  0  0  0  0  0
  183.7340  178.8640  145.2480 C   0  0  0  0  0  1  0  0  0  0  0  0
  189.6020  175.1010  143.4180 C   0  0  0  0  0  2  0  0  0  0  0  0
  189.7850  177.0780  144.9570 C   0  0  2  0  0  3  0  0  0  0  0  0
  187.4200  177.9340  142.0950 C   0  0  0  0  0  3  0  0  0  0  0  0
  185.2490  178.1410  147.0950 C   0  0  0  0  0  3  0  0  0  0  0  0
  188.6270  175.8950  142.6010 C   0  0  0  0  0  0  0  0  0  0  0  0
  188.2450  175.3960  141.3530 C   0  0  0  0  0  3  0  0  0  0  0  0
  189.9990  177.5470  146.3320 N   0  0  0  0  0  2  0  0  0  0  0  0
  187.5740  177.6060  146.6710 C   0  0  0  0  0  0  0  0  0  0  0  0
  186.5010  177.7350  147.5590 C   0  0  0  0  0  3  0  0  0  0  0  0
  192.3900  175.8760  144.1250 O   0  0  0  0  0  0  0  0  0  0  0  0
  192.1420  175.1280  145.1090 C   0  0  0  0  0  0  0  0  0  0  0  0
  190.7950  174.9160  145.5330 N   0  0  0  0  0  2  0  0  0  0  0  0
  195.8350  174.9160  144.6240 C   0  0  1  0  0  3  0  0  0  0  0  0
  194.2930  175.4330  146.3640 C   0  0  0  0  0  2  0  0  0  0  0  0
  192.9750  172.3550  144.3980 C   0  0  0  0  0  1  0  0  0  0  0  0
  196.7580  175.5010  143.5770 C   0  0  0  0  0  1  0  0  0  0  0  0
  195.0810  175.9930  145.2650 N   0  0  0  0  0  2  0  0  0  0  0  0
  193.9550  173.3360  145.0200 C   0  0  2  0  0  3  0  0  0  0  0  0
  193.2550  174.4330  145.8420 C   0  0  2  0  0  3  0  0  0  0  0  0
  194.8790  173.9270  143.9610 C   0  0  0  0  0  2  0  0  0  0  0  0
  1 14  1  0  0  0  0
  2  5  1  6  0  0  0
  2 13  1  0  0  0  0
  2  3  1  0  0  0  0
  3 19  1  0  0  0  0
  4 15  2  0  0  0  0
  6  1  2  0  0  0  0
  6 17  1  0  0  0  0
  7  3  2  0  0  0  0
  7  4  1  0  0  0  0
  8 13  1  0  0  0  0
  8 23  1  6  0  0  0
  9  1  1  0  0  0  0
 11  4  1  0  0  0  0
 12  8  1  0  0  0  0
 13 18  1  1  0  0  0
 14  5  2  0  0  0  0
 15 20  1  0  0  0  0
 16  5  1  0  0  0  0
 16 12  1  0  0  0  0
 17 16  2  0  0  0  0
 18 10  1  0  0  0  0
 19 10  1  0  0  0  0
 19 20  2  0  0  0  0
 21 22  2  0  0  0  0
 22 23  1  0  0  0  0
 24 27  1  6  0  0  0
 24 28  1  0  0  0  0
 28 25  1  0  0  0  0
 29 26  1  6  0  0  0
 29 30  1  0  0  0  0
 30 22  1  6  0  0  0
 30 25  1  0  0  0  0
 31 24  1  0  0  0  0
 31 29  1  0  0  0  0
M  END
>  <MODEL>
3

>  <REMARK>
 VINA RESULT:      -8.8      1.990      4.029
  Name = 
  2 active torsions:
  status: ('A' for Active; 'I' for Inactive)
    1  A    between atoms: C_5  and  C_30
    2  A    between atoms: C_10  and  N_16
                            x       y       z     vdW  Elec       q    Type
                         _______ _______ _______ _____ _____    ______ ____

>  <TORSDO>
F 2

$$$$
=
 OpenBabel11112416453D

 31 35  0  0  1  0  0  0  0  0999 V2000
  194.3960  176.4140  144.8770 C   0  0  0  0  0  0  0  0  0  0  0  0
  190.9430  176.8890  143.3660 C   0  0  2  0  0  3  0  0  0  0  0  0
  190.6750  175.6460  142.5340 C   0  0  0  0  0  0  0  0  0  0  0  0
  191.5060  173.7910  141.1940 C   0  0  0  0  0  0  0  0  0  0  0  0
  192.0470  176.7080  144.3870 C   0  0  0  0  0  0  0  0  0  0  0  0
  194.1050  176.3120  146.2010 N   0  0  0  0  0  0  0  0  0  0  0  0
  191.7430  174.8900  142.0220 C   0  0  0  0  0  3  0  0  0  0  0  0
  189.2960  176.6940  145.2930 C   0  0  2  0  0  3  0  0  0  0  0  0
  195.6800  176.3160  144.4570 F   0  0  0  0  0  0  0  0  0  0  0  0
  188.1850  176.0800  142.6710 C   0  0  0  0  0  2  0  0  0  0  0  0
  192.6470  172.9920  140.6750 C   0  0  0  0  0  1  0  0  0  0  0  0
  190.4040  176.8600  146.3280 C   0  0  0  0  0  2  0  0  0  0  0  0
  189.6570  177.4500  144.0040 C   0  0  2  0  0  3  0  0  0  0  0  0
  193.3740  176.6180  143.9500 C   0  0  0  0  0  3  0  0  0  0  0  0
  190.1990  173.4450  140.8500 C   0  0  0  0  0  3  0  0  0  0  0  0
  191.7710  176.6070  145.7670 C   0  0  0  0  0  0  0  0  0  0  0  0
  192.8300  176.4150  146.6590 C   0  0  0  0  0  3  0  0  0  0  0  0
  188.5560  177.4510  143.0310 N   0  0  0  0  0  2  0  0  0  0  0  0
  189.3600  175.3120  142.1470 C   0  0  0  0  0  0  0  0  0  0  0  0
  189.1280  174.2040  141.3260 C   0  0  0  0  0  3  0  0  0  0  0  0
  187.8000  175.4700  147.3880 O   0  0  0  0  0  0  0  0  0  0  0  0
  187.3450  176.5380  146.8930 C   0  0  0  0  0  0  0  0  0  0  0  0
  188.0420  177.1980  145.8370 N   0  0  0  0  0  2  0  0  0  0  0  0
  184.8820  178.9690  145.5000 C   0  0  1  0  0  3  0  0  0  0  0  0
  184.8860  176.7910  146.4620 C   0  0  0  0  0  2  0  0  0  0  0  0
  187.3020  179.0560  148.4880 C   0  0  0  0  0  1  0  0  0  0  0  0
  184.8440  179.7480  144.2030 C   0  0  0  0  0  1  0  0  0  0  0  0
  184.9850  177.5410  145.2080 N   0  0  0  0  0  2  0  0  0  0  0  0
  186.1130  178.6430  147.6380 C   0  0  2  0  0  3  0  0  0  0  0  0
  186.0550  177.1250  147.3950 C   0  0  2  0  0  3  0  0  0  0  0  0
  186.0810  179.4250  146.3280 C   0  0  0  0  0  2  0  0  0  0  0  0
  1  6  1  0  0  0  0
  2  3  1  1  0  0  0
  2 13  1  0  0  0  0
  2  5  1  0  0  0  0
  4  7  1  0  0  0  0
  5 16  2  0  0  0  0
  6 17  2  0  0  0  0
  7  3  2  0  0  0  0
  8 23  1  1  0  0  0
  8 12  1  0  0  0  0
  9  1  1  0  0  0  0
 10 18  1  0  0  0  0
 11  4  1  0  0  0  0
 13 18  1  6  0  0  0
 13  8  1  0  0  0  0
 14  5  1  0  0  0  0
 14  1  2  0  0  0  0
 15  4  2  0  0  0  0
 15 20  1  0  0  0  0
 16 12  1  0  0  0  0
 16 17  1  0  0  0  0
 19  3  1  0  0  0  0
 19 10  1  0  0  0  0
 20 19  2  0  0  0  0
 22 21  2  0  0  0  0
 23 22  1  0  0  0  0
 24 27  1  6  0  0  0
 24 31  1  0  0  0  0
 25 30  1  0  0  0  0
 28 24  1  0  0  0  0
 28 25  1  0  0  0  0
 29 26  1  6  0  0  0
 30 22  1  6  0  0  0
 30 29  1  0  0  0  0
 31 29  1  0  0  0  0
M  END
>  <MODEL>
4

>  <REMARK>
 VINA RESULT:      -8.3      3.198      7.094
  Name = 
  2 active torsions:
  status: ('A' for Active; 'I' for Inactive)
    1  A    between atoms: C_5  and  C_30
    2  A    between atoms: C_10  and  N_16
                            x       y       z     vdW  Elec       q    Type
                         _______ _______ _______ _____ _____    ______ ____

>  <TORSDO>
F 2

$$$$
=
 OpenBabel11112416453D

 31 35  0  0  1  0  0  0  0  0999 V2000
  186.3900  177.9160  140.9430 C   0  0  0  0  0  0  0  0  0  0  0  0
  188.6210  177.9150  144.0190 C   0  0  2  0  0  3  0  0  0  0  0  0
  187.6980  177.6890  145.2050 C   0  0  0  0  0  0  0  0  0  0  0  0
  185.5030  177.9050  146.2360 C   0  0  0  0  0  0  0  0  0  0  0  0
  188.0110  177.5130  142.6920 C   0  0  0  0  0  0  0  0  0  0  0  0
  186.8100  176.7950  140.2990 N   0  0  0  0  0  0  0  0  0  0  0  0
  186.3400  178.0380  145.1260 C   0  0  0  0  0  3  0  0  0  0  0  0
  189.9890  175.7750  143.8990 C   0  0  2  0  0  3  0  0  0  0  0  0
  185.3920  178.6660  140.4170 F   0  0  0  0  0  0  0  0  0  0  0  0
  189.6560  176.8620  146.5800 C   0  0  0  0  0  2  0  0  0  0  0  0
  184.0650  178.2640  146.1290 C   0  0  0  0  0  1  0  0  0  0  0  0
  189.6320  175.5650  142.4310 C   0  0  0  0  0  2  0  0  0  0  0  0
  190.0080  177.2760  144.2300 C   0  0  2  0  0  3  0  0  0  0  0  0
  186.9860  178.2960  142.1460 C   0  0  0  0  0  3  0  0  0  0  0  0
  186.0180  177.4380  147.4450 C   0  0  0  0  0  3  0  0  0  0  0  0
  188.4340  176.3590  142.0000 C   0  0  0  0  0  0  0  0  0  0  0  0
  187.8160  176.0250  140.7920 C   0  0  0  0  0  3  0  0  0  0  0  0
  190.4960  177.5400  145.5900 N   0  0  0  0  0  2  0  0  0  0  0  0
  188.2170  177.2560  146.4440 C   0  0  0  0  0  0  0  0  0  0  0  0
  187.3720  177.1130  147.5490 C   0  0  0  0  0  3  0  0  0  0  0  0
  192.4720  176.7120  142.8590 O   0  0  0  0  0  0  0  0  0  0  0  0
  192.5000  175.7080  143.6220 C   0  0  0  0  0  0  0  0  0  0  0  0
  191.2910  175.1840  144.1720 N   0  0  0  0  0  2  0  0  0  0  0  0
  193.5150  172.1710  144.2370 C   0  0  1  0  0  3  0  0  0  0  0  0
  194.1920  174.0080  142.8820 C   0  0  0  0  0  2  0  0  0  0  0  0
  193.3740  175.3160  146.4450 C   0  0  0  0  0  1  0  0  0  0  0  0
  192.7290  170.8770  144.2620 C   0  0  0  0  0  1  0  0  0  0  0  0
  193.3240  172.8300  142.9460 N   0  0  0  0  0  2  0  0  0  0  0  0
  193.8320  174.3760  145.3420 C   0  0  2  0  0  3  0  0  0  0  0  0
  193.8030  175.0350  143.9520 C   0  0  2  0  0  3  0  0  0  0  0  0
  193.0340  173.0770  145.3670 C   0  0  0  0  0  2  0  0  0  0  0  0
  1 14  1  0  0  0  0
  2  5  1  6  0  0  0
  2 13  1  0  0  0  0
  2  3  1  0  0  0  0
  3 19  1  0  0  0  0
  4 15  2  0  0  0  0
  6 17  1  0  0  0  0
  6  1  2  0  0  0  0
  7  3  2  0  0  0  0
  7  4  1  0  0  0  0
  8 23  1  6  0  0  0
  8 13  1  0  0  0  0
  9  1  1  0  0  0  0
 11  4  1  0  0  0  0
 12  8  1  0  0  0  0
 13 18  1  1  0  0  0
 14  5  2  0  0  0  0
 15 20  1  0  0  0  0
 16 12  1  0  0  0  0
 16  5  1  0  0  0  0
 17 16  2  0  0  0  0
 18 10  1  0  0  0  0
 19 10  1  0  0  0  0
 19 20  2  0  0  0  0
 21 22  2  0  0  0  0
 22 23  1  0  0  0  0
 24 27  1  6  0  0  0
 24 31  1  0  0  0  0
 25 28  1  0  0  0  0
 25 30  1  0  0  0  0
 28 24  1  0  0  0  0
 29 31  1  0  0  0  0
 29 26  1  1  0  0  0
 30 22  1  6  0  0  0
 30 29  1  0  0  0  0
M  END
>  <MODEL>
5

>  <REMARK>
 VINA RESULT:      -8.0      2.259      4.513
  Name = 
  2 active torsions:
  status: ('A' for Active; 'I' for Inactive)
    1  A    between atoms: C_5  and  C_30
    2  A    between atoms: C_10  and  N_16
                            x       y       z     vdW  Elec       q    Type
                         _______ _______ _______ _____ _____    ______ ____

>  <TORSDO>
F 2

$$$$
=
 OpenBabel11112416453D

 31 35  0  0  1  0  0  0  0  0999 V2000
  187.2300  176.5070  140.4990 C   0  0  0  0  0  0  0  0  0  0  0  0
  189.4150  177.5200  143.4380 C   0  0  2  0  0  3  0  0  0  0  0  0
  188.5080  177.5090  144.6570 C   0  0  0  0  0  0  0  0  0  0  0  0
  186.2910  177.7510  145.6340 C   0  0  0  0  0  0  0  0  0  0  0  0
  188.8650  176.7330  142.2660 C   0  0  0  0  0  0  0  0  0  0  0  0
  187.7720  175.3090  140.1540 N   0  0  0  0  0  0  0  0  0  0  0  0
  187.1220  177.6840  144.5140 C   0  0  0  0  0  3  0  0  0  0  0  0
  191.0000  175.5750  143.8430 C   0  0  2  0  0  3  0  0  0  0  0  0
  186.1650  176.9900  139.8160 F   0  0  0  0  0  0  0  0  0  0  0  0
  190.5260  177.2680  146.1650 C   0  0  0  0  0  2  0  0  0  0  0  0
  184.8250  177.9190  145.4630 C   0  0  0  0  0  1  0  0  0  0  0  0
  190.6830  174.9620  142.4830 C   0  0  0  0  0  2  0  0  0  0  0  0
  190.8590  177.1040  143.7820 C   0  0  2  0  0  3  0  0  0  0  0  0
  187.7700  177.2400  141.5560 C   0  0  0  0  0  3  0  0  0  0  0  0
  186.8390  177.6630  146.9140 C   0  0  0  0  0  3  0  0  0  0  0  0
  189.4140  175.4920  141.8840 C   0  0  0  0  0  0  0  0  0  0  0  0
  188.8470  174.7990  140.8110 C   0  0  0  0  0  3  0  0  0  0  0  0
  191.3010  177.7550  145.0220 N   0  0  0  0  0  2  0  0  0  0  0  0
  189.0560  177.4620  145.9570 C   0  0  0  0  0  0  0  0  0  0  0  0
  188.2180  177.5180  147.0750 C   0  0  0  0  0  3  0  0  0  0  0  0
  191.6900  174.0340  146.1400 O   0  0  0  0  0  0  0  0  0  0  0  0
  192.6310  174.4300  145.3990 C   0  0  0  0  0  0  0  0  0  0  0  0
  192.3540  175.2110  144.2360 N   0  0  0  0  0  2  0  0  0  0  0  0
  195.9330  175.4890  144.0230 C   0  0  1  0  0  3  0  0  0  0  0  0
  194.8440  175.3550  146.1370 C   0  0  0  0  0  2  0  0  0  0  0  0
  194.0410  172.1420  144.1100 C   0  0  0  0  0  1  0  0  0  0  0  0
  196.3110  176.4120  142.8840 C   0  0  0  0  0  1  0  0  0  0  0  0
  195.0920  176.2120  144.9760 N   0  0  0  0  0  2  0  0  0  0  0  0
  194.8070  173.3520  144.6180 C   0  0  2  0  0  3  0  0  0  0  0  0
  194.0590  174.1020  145.7350 C   0  0  2  0  0  3  0  0  0  0  0  0
  195.1810  174.2820  143.4680 C   0  0  0  0  0  2  0  0  0  0  0  0
  1 14  1  0  0  0  0
  2  5  1  6  0  0  0
  2 13  1  0  0  0  0
  2  3  1  0  0  0  0
  3 19  1  0  0  0  0
  4 15  2  0  0  0  0
  6  1  2  0  0  0  0
  6 17  1  0  0  0  0
  7  3  2  0  0  0  0
  7  4  1  0  0  0  0
  8 23  1  6  0  0  0
  9  1  1  0  0  0  0
 11  4  1  0  0  0  0
 12  8  1  0  0  0  0
 13  8  1  0  0  0  0
 13 18  1  1  0  0  0
 14  5  2  0  0  0  0
 15 20  1  0  0  0  0
 16  5  1  0  0  0  0
 16 12  1  0  0  0  0
 17 16  2  0  0  0  0
 18 10  1  0  0  0  0
 19 10  1  0  0  0  0
 19 20  2  0  0  0  0
 22 21  2  0  0  0  0
 23 22  1  0  0  0  0
 24 27  1  6  0  0  0
 24 28  1  0  0  0  0
 28 25  1  0  0  0  0
 29 26  1  6  0  0  0
 29 30  1  0  0  0  0
 30 22  1  6  0  0  0
 30 25  1  0  0  0  0
 31 24  1  0  0  0  0
 31 29  1  0  0  0  0
M  END
>  <MODEL>
6

>  <REMARK>
 VINA RESULT:      -7.7      2.365      4.326
  Name = 
  2 active torsions:
  status: ('A' for Active; 'I' for Inactive)
    1  A    between atoms: C_5  and  C_30
    2  A    between atoms: C_10  and  N_16
                            x       y       z     vdW  Elec       q    Type
                         _______ _______ _______ _____ _____    ______ ____

>  <TORSDO>
F 2

$$$$
=
 OpenBabel11112416453D

 31 35  0  0  1  0  0  0  0  0999 V2000
  184.9890  177.8830  146.6220 C   0  0  0  0  0  0  0  0  0  0  0  0
  186.9070  175.9600  143.9650 C   0  0  2  0  0  3  0  0  0  0  0  0
  186.5890  176.6420  142.6440 C   0  0  0  0  0  0  0  0  0  0  0  0
  185.0640  177.9360  141.2560 C   0  0  0  0  0  0  0  0  0  0  0  0
  186.6090  176.8190  145.1760 C   0  0  0  0  0  0  0  0  0  0  0  0
  186.0000  178.4360  147.3440 N   0  0  0  0  0  0  0  0  0  0  0  0
  185.4000  177.3710  142.4880 C   0  0  0  0  0  3  0  0  0  0  0  0
  189.3640  176.4900  144.3440 C   0  0  2  0  0  3  0  0  0  0  0  0
  183.7010  178.1290  146.9610 F   0  0  0  0  0  0  0  0  0  0  0  0
  188.6970  175.6740  141.6290 C   0  0  0  0  0  2  0  0  0  0  0  0
  183.8100  178.7190  141.1140 C   0  0  0  0  0  1  0  0  0  0  0  0
  189.0840  177.0520  145.7350 C   0  0  0  0  0  2  0  0  0  0  0  0
  188.3410  175.3960  143.9990 C   0  0  2  0  0  3  0  0  0  0  0  0
  185.2770  177.0630  145.5300 C   0  0  0  0  0  3  0  0  0  0  0  0
  185.9060  177.7610  140.1570 C   0  0  0  0  0  3  0  0  0  0  0  0
  187.6400  177.3980  145.9460 C   0  0  0  0  0  0  0  0  0  0  0  0
  187.3030  178.2030  147.0380 C   0  0  0  0  0  3  0  0  0  0  0  0
  188.6580  174.7160  142.7370 N   0  0  0  0  0  2  0  0  0  0  0  0
  187.4130  176.4370  141.5160 C   0  0  0  0  0  0  0  0  0  0  0  0
  187.0780  177.0140  140.2870 C   0  0  0  0  0  3  0  0  0  0  0  0
  190.2500  174.1750  145.7530 O   0  0  0  0  0  0  0  0  0  0  0  0
  191.0920  174.7770  145.0300 C   0  0  0  0  0  0  0  0  0  0  0  0
  190.7140  175.9460  144.3030 N   0  0  0  0  0  2  0  0  0  0  0  0
  194.4340  176.3780  145.4580 C   0  0  1  0  0  3  0  0  0  0  0  0
  193.2580  174.4680  146.2590 C   0  0  0  0  0  2  0  0  0  0  0  0
  192.5880  174.8440  142.4530 C   0  0  0  0  0  1  0  0  0  0  0  0
  194.8480  177.7980  145.7770 C   0  0  0  0  0  1  0  0  0  0  0  0
  193.5440  175.8830  146.5060 N   0  0  0  0  0  2  0  0  0  0  0  0
  193.3140  174.9160  143.7860 C   0  0  2  0  0  3  0  0  0  0  0  0
  192.5080  174.2830  144.9350 C   0  0  2  0  0  3  0  0  0  0  0  0
  193.7240  176.3490  144.1070 C   0  0  0  0  0  2  0  0  0  0  0  0
  1  9  1  0  0  0  0
  1  6  1  0  0  0  0
  2  3  1  6  0  0  0
  2 13  1  0  0  0  0
  2  5  1  0  0  0  0
  4  7  2  0  0  0  0
  5 14  1  0  0  0  0
  5 16  2  0  0  0  0
  7  3  1  0  0  0  0
  8 23  1  1  0  0  0
  8 12  1  0  0  0  0
 10 18  1  0  0  0  0
 11  4  1  0  0  0  0
 12 16  1  0  0  0  0
 13 18  1  6  0  0  0
 13  8  1  0  0  0  0
 14  1  2  0  0  0  0
 15 20  2  0  0  0  0
 15  4  1  0  0  0  0
 16 17  1  0  0  0  0
 17  6  2  0  0  0  0
 19 10  1  0  0  0  0
 19  3  2  0  0  0  0
 20 19  1  0  0  0  0
 22 21  2  0  0  0  0
 23 22  1  0  0  0  0
 24 27  1  1  0  0  0
 24 28  1  0  0  0  0
 25 28  1  0  0  0  0
 29 26  1  6  0  0  0
 29 31  1  0  0  0  0
 29 30  1  0  0  0  0
 30 22  1  1  0  0  0
 30 25  1  0  0  0  0
 31 24  1  0  0  0  0
M  END
>  <MODEL>
7

>  <REMARK>
 VINA RESULT:      -7.5      1.460      1.923
  Name = 
  2 active torsions:
  status: ('A' for Active; 'I' for Inactive)
    1  A    between atoms: C_5  and  C_30
    2  A    between atoms: C_10  and  N_16
                            x       y       z     vdW  Elec       q    Type
                         _______ _______ _______ _____ _____    ______ ____

>  <TORSDO>
F 2

$$$$
=
 OpenBabel11112416453D

 31 35  0  0  1  0  0  0  0  0999 V2000
  191.9600  173.2990  141.3740 C   0  0  0  0  0  0  0  0  0  0  0  0
  191.4040  174.1080  145.0450 C   0  0  2  0  0  3  0  0  0  0  0  0
  192.4680  175.1280  145.4140 C   0  0  0  0  0  0  0  0  0  0  0  0
  194.6830  176.0800  145.0690 C   0  0  0  0  0  0  0  0  0  0  0  0
  191.1710  173.9890  143.5530 C   0  0  0  0  0  0  0  0  0  0  0  0
  190.8300  173.8010  140.8090 N   0  0  0  0  0  0  0  0  0  0  0  0
  193.6690  175.1980  144.6890 C   0  0  0  0  0  3  0  0  0  0  0  0
  189.2340  175.4260  145.1570 C   0  0  2  0  0  3  0  0  0  0  0  0
  192.9060  172.7190  140.5980 F   0  0  0  0  0  0  0  0  0  0  0  0
  191.0630  175.8940  147.3750 C   0  0  0  0  0  2  0  0  0  0  0  0
  195.9390  176.1520  144.2800 C   0  0  0  0  0  1  0  0  0  0  0  0
  188.8440  175.0080  143.7430 C   0  0  0  0  0  2  0  0  0  0  0  0
  190.0890  174.3320  145.8160 C   0  0  2  0  0  3  0  0  0  0  0  0
  192.1470  173.3800  142.7540 C   0  0  0  0  0  3  0  0  0  0  0  0
  194.5150  176.8910  146.1920 C   0  0  0  0  0  3  0  0  0  0  0  0
  190.0040  174.4950  142.9430 C   0  0  0  0  0  0  0  0  0  0  0  0
  189.8560  174.3800  141.5580 C   0  0  0  0  0  3  0  0  0  0  0  0
  190.3630  174.6160  147.2310 N   0  0  0  0  0  2  0  0  0  0  0  0
  192.3270  175.9240  146.5710 C   0  0  0  0  0  0  0  0  0  0  0  0
  193.3400  176.8140  146.9410 C   0  0  0  0  0  3  0  0  0  0  0  0
  188.4090  177.9580  146.1750 O   0  0  0  0  0  0  0  0  0  0  0  0
  187.6730  176.9630  146.4190 C   0  0  0  0  0  0  0  0  0  0  0  0
  188.0320  175.6660  145.9430 N   0  0  0  0  0  2  0  0  0  0  0  0
  184.3890  178.6250  145.8110 C   0  0  1  0  0  3  0  0  0  0  0  0
  185.2080  176.5030  146.5140 C   0  0  0  0  0  2  0  0  0  0  0  0
  187.2880  179.2830  148.2500 C   0  0  0  0  0  1  0  0  0  0  0  0
  183.8510  179.4160  144.6370 C   0  0  0  0  0  1  0  0  0  0  0  0
  184.8160  177.3040  145.3530 N   0  0  0  0  0  2  0  0  0  0  0  0
  186.1020  178.5790  147.6140 C   0  0  2  0  0  3  0  0  0  0  0  0
  186.4150  177.1220  147.2260 C   0  0  2  0  0  3  0  0  0  0  0  0
  185.5670  179.3750  146.4280 C   0  0  0  0  0  2  0  0  0  0  0  0
  1 14  1  0  0  0  0
  2  5  1  6  0  0  0
  2  3  1  0  0  0  0
  2 13  1  0  0  0  0
  3 19  1  0  0  0  0
  4 15  2  0  0  0  0
  6  1  2  0  0  0  0
  6 17  1  0  0  0  0
  7  4  1  0  0  0  0
  7  3  2  0  0  0  0
  8 13  1  0  0  0  0
  8 23  1  1  0  0  0
  9  1  1  0  0  0  0
 11  4  1  0  0  0  0
 12  8  1  0  0  0  0
 13 18  1  1  0  0  0
 14  5  2  0  0  0  0
 15 20  1  0  0  0  0
 16  5  1  0  0  0  0
 16 12  1  0  0  0  0
 17 16  2  0  0  0  0
 18 10  1  0  0  0  0
 19 20  2  0  0  0  0
 19 10  1  0  0  0  0
 21 22  2  0  0  0  0
 23 22  1  0  0  0  0
 24 27  1  6  0  0  0
 24 31  1  0  0  0  0
 25 30  1  0  0  0  0
 28 24  1  0  0  0  0
 28 25  1  0  0  0  0
 29 26  1  6  0  0  0
 30 22  1  6  0  0  0
 30 29  1  0  0  0  0
 31 29  1  0  0  0  0
M  END
>  <MODEL>
8

>  <REMARK>
 VINA RESULT:      -7.5      3.184      7.910
  Name = 
  2 active torsions:
  status: ('A' for Active; 'I' for Inactive)
    1  A    between atoms: C_5  and  C_30
    2  A    between atoms: C_10  and  N_16
                            x       y       z     vdW  Elec       q    Type
                         _______ _______ _______ _____ _____    ______ ____

>  <TORSDO>
F 2

$$$$
=
 OpenBabel11112416453D

 31 35  0  0  1  0  0  0  0  0999 V2000
  188.0420  175.9230  141.5730 C   0  0  0  0  0  0  0  0  0  0  0  0
  191.2930  176.5320  143.4430 C   0  0  2  0  0  3  0  0  0  0  0  0
  190.9250  176.5870  144.9160 C   0  0  0  0  0  0  0  0  0  0  0  0
  189.2990  177.0680  146.6640 C   0  0  0  0  0  0  0  0  0  0  0  0
  190.2400  175.8690  142.5790 C   0  0  0  0  0  0  0  0  0  0  0  0
  188.2480  174.6810  141.0610 N   0  0  0  0  0  0  0  0  0  0  0  0
  189.6250  176.9410  145.3110 C   0  0  0  0  0  3  0  0  0  0  0  0
  192.6410  174.3870  143.2340 C   0  0  2  0  0  3  0  0  0  0  0  0
  186.8710  176.5640  141.3440 F   0  0  0  0  0  0  0  0  0  0  0  0
  193.3140  176.0310  145.5410 C   0  0  0  0  0  2  0  0  0  0  0  0
  187.9140  177.4270  147.0640 C   0  0  0  0  0  1  0  0  0  0  0  0
  191.7530  173.8750  142.1040 C   0  0  0  0  0  2  0  0  0  0  0  0
  192.6910  175.9230  143.2140 C   0  0  2  0  0  3  0  0  0  0  0  0
  189.0350  176.5390  142.3360 C   0  0  0  0  0  3  0  0  0  0  0  0
  190.2760  176.8600  147.6380 C   0  0  0  0  0  3  0  0  0  0  0  0
  190.4330  174.5840  142.0300 C   0  0  0  0  0  0  0  0  0  0  0  0
  189.4140  174.0130  141.2630 C   0  0  0  0  0  3  0  0  0  0  0  0
  193.6530  176.4620  144.1830 N   0  0  0  0  0  2  0  0  0  0  0  0
  191.9140  176.4190  145.9080 C   0  0  0  0  0  0  0  0  0  0  0  0
  191.5800  176.5350  147.2610 C   0  0  0  0  0  3  0  0  0  0  0  0
  193.8350  172.4590  144.9600 O   0  0  0  0  0  0  0  0  0  0  0  0
  194.5190  172.8700  143.9830 C   0  0  0  0  0  0  0  0  0  0  0  0
  193.9820  173.8400  143.0830 N   0  0  0  0  0  2  0  0  0  0  0  0
  196.6600  170.3300  145.6810 C   0  0  1  0  0  3  0  0  0  0  0  0
  195.9210  170.8510  143.4780 C   0  0  0  0  0  2  0  0  0  0  0  0
  196.8710  174.1500  145.2910 C   0  0  0  0  0  1  0  0  0  0  0  0
  196.4260  169.4450  146.8860 C   0  0  0  0  0  1  0  0  0  0  0  0
  195.6120  170.0910  144.6910 N   0  0  0  0  0  2  0  0  0  0  0  0
  196.8900  172.6820  144.9020 C   0  0  2  0  0  3  0  0  0  0  0  0
  195.9140  172.3580  143.7580 C   0  0  2  0  0  3  0  0  0  0  0  0
  196.6480  171.7930  146.1180 C   0  0  0  0  0  2  0  0  0  0  0  0
  1 14  1  0  0  0  0
  2  5  1  6  0  0  0
  2  3  1  0  0  0  0
  3  7  2  0  0  0  0
  3 19  1  0  0  0  0
  4 11  1  0  0  0  0
  4 15  2  0  0  0  0
  6 17  1  0  0  0  0
  6  1  2  0  0  0  0
  7  4  1  0  0  0  0
  8 23  1  6  0  0  0
  9  1  1  0  0  0  0
 10 19  1  0  0  0  0
 12  8  1  0  0  0  0
 13  8  1  0  0  0  0
 13  2  1  0  0  0  0
 13 18  1  1  0  0  0
 14  5  2  0  0  0  0
 16 12  1  0  0  0  0
 16  5  1  0  0  0  0
 17 16  2  0  0  0  0
 18 10  1  0  0  0  0
 19 20  2  0  0  0  0
 20 15  1  0  0  0  0
 22 21  2  0  0  0  0
 23 22  1  0  0  0  0
 24 31  1  0  0  0  0
 24 27  1  1  0  0  0
 25 30  1  0  0  0  0
 25 28  1  0  0  0  0
 28 24  1  0  0  0  0
 29 26  1  1  0  0  0
 29 31  1  0  0  0  0
 30 22  1  1  0  0  0
 30 29  1  0  0  0  0
M  END
>  <MODEL>
9

>  <REMARK>
 VINA RESULT:      -7.5      3.261      5.818
  Name = 
  2 active torsions:
  status: ('A' for Active; 'I' for Inactive)
    1  A    between atoms: C_5  and  C_30
    2  A    between atoms: C_10  and  N_16
                            x       y       z     vdW  Elec       q    Type
                         _______ _______ _______ _____ _____    ______ ____

>  <TORSDO>
F 2

$$$$
