=
 OpenBabel11112417373D

 28 32  0  0  1  0  0  0  0  0999 V2000
  186.1040  178.4660  144.3880 C   0  0  0  0  0  0  0  0  0  0  0  0
  190.4250  178.2920  144.7000 O   0  0  0  0  0  0  0  0  0  0  0  0
  189.2760  174.9220  140.3760 O   0  0  0  0  0  1  0  0  0  0  0  0
  184.9650  177.0320  146.5100 C   0  0  0  0  0  3  0  0  0  0  0  0
  188.7160  173.7870  142.4000 C   0  0  1  0  0  3  0  0  0  0  0  0
  186.6320  179.2260  143.2150 C   0  0  0  0  0  2  0  0  0  0  0  0
  189.8880  177.8520  147.0570 O   0  0  0  0  0  0  0  0  0  0  0  0
  190.2010  177.2190  145.7320 S   0  0  0  0  0  0  0  0  0  0  0  0
  191.7630  175.2320  145.1280 C   0  0  0  0  0  0  0  0  0  0  0  0
  188.8820  176.1720  145.2740 N   0  0  2  0  0  0  0  0  0  0  0  0
  185.6900  177.3900  140.1910 O   0  0  0  0  0  0  0  0  0  0  0  0
  187.7640  175.7750  143.2560 C   0  0  2  0  0  3  0  0  0  0  0  0
  190.7330  174.8880  144.0950 C   0  0  0  0  0  2  0  0  0  0  0  0
  191.6150  176.2640  145.8770 N   0  0  0  0  0  0  0  0  0  0  0  0
  186.4240  177.8130  141.1200 C   0  0  0  0  0  0  0  0  0  0  0  0
  186.7540  177.3150  144.8810 C   0  0  0  0  0  0  0  0  0  0  0  0
  188.2230  174.6780  141.2580 C   0  0  1  0  0  3  0  0  0  0  0  0
  192.9710  174.3740  145.2790 C   0  0  0  0  0  1  0  0  0  0  0  0
  187.8110  177.2770  141.2630 C   0  0  0  0  0  2  0  0  0  0  0  0
  186.1630  176.6000  145.9370 C   0  0  0  0  0  3  0  0  0  0  0  0
  184.9030  178.8900  144.9660 C   0  0  0  0  0  3  0  0  0  0  0  0
  184.3370  178.1800  146.0270 C   0  0  0  0  0  3  0  0  0  0  0  0
  185.9260  178.8150  142.0100 N   0  0  0  0  0  2  0  0  0  0  0  0
  188.2420  174.4650  143.6900 C   0  0  2  0  0  3  0  0  0  0  0  0
  187.8110  175.9390  141.9410 C   0  0  2  0  0  3  0  0  0  0  0  0
  189.3180  174.8620  144.7110 C   0  0  2  0  0  3  0  0  0  0  0  0
  188.0960  172.4100  142.2830 C   0  0  0  0  0  1  0  0  0  0  0  0
  188.0390  176.8260  144.2650 C   0  0  1  0  0  3  0  0  0  0  0  0
  1 16  2  0  0  0  0
  1 21  1  0  0  0  0
  2  8  2  0  0  0  0
  3 17  1  0  0  0  0
  5 27  1  6  0  0  0
  5 24  1  0  0  0  0
  6  1  1  0  0  0  0
  8 14  1  0  0  0  0
  8  7  2  0  0  0  0
  9 18  1  0  0  0  0
  9 14  2  0  0  0  0
 10  8  1  6  0  0  0
 11 15  2  0  0  0  0
 12 24  1  0  0  0  0
 12 28  1  0  0  0  0
 13 26  1  0  0  0  0
 13  9  1  0  0  0  0
 15 19  1  0  0  0  0
 15 23  1  0  0  0  0
 16 20  1  0  0  0  0
 17 25  1  0  0  0  0
 17  5  1  0  0  0  0
 19 25  1  0  0  0  0
 20  4  2  0  0  0  0
 21 22  2  0  0  0  0
 22  4  1  0  0  0  0
 23  6  1  0  0  0  0
 24 26  1  0  0  0  0
 25 12  1  0  0  0  0
 26 10  1  0  0  0  0
 28 16  1  0  0  0  0
 28 10  1  0  0  0  0
M  END
>  <MODEL>
1

>  <REMARK>
 VINA RESULT:      -8.3      0.000      0.000
  Name = 
  0 active torsions:
  status: ('A' for Active; 'I' for Inactive)
                            x       y       z     vdW  Elec       q    Type
                         _______ _______ _______ _____ _____    ______ ____

>  <TORSDO>
F 0

$$$$
=
 OpenBabel11112417373D

 28 32  0  0  1  0  0  0  0  0999 V2000
  190.8350  174.5350  142.0820 C   0  0  0  0  0  0  0  0  0  0  0  0
  188.9900  178.4470  141.7820 O   0  0  0  0  0  0  0  0  0  0  0  0
  190.0080  177.8830  147.2610 O   0  0  0  0  0  1  0  0  0  0  0  0
  188.8850  172.5600  141.6860 C   0  0  0  0  0  3  0  0  0  0  0  0
  188.1170  176.5420  146.6920 C   0  0  1  0  0  3  0  0  0  0  0  0
  191.9270  175.5240  142.3280 C   0  0  0  0  0  2  0  0  0  0  0  0
  187.3340  177.1810  140.4820 O   0  0  0  0  0  0  0  0  0  0  0  0
  187.6770  177.7150  141.8430 S   0  0  0  0  0  0  0  0  0  0  0  0
  186.2040  178.9220  143.6120 C   0  0  0  0  0  0  0  0  0  0  0  0
  187.7480  176.3890  142.9750 N   0  0  2  0  0  0  0  0  0  0  0  0
  193.0330  175.1110  145.7940 O   0  0  0  0  0  0  0  0  0  0  0  0
  189.2090  175.8330  144.7170 C   0  0  2  0  0  3  0  0  0  0  0  0
  187.0210  178.1790  144.6260 C   0  0  0  0  0  2  0  0  0  0  0  0
  186.4490  178.7910  142.3580 N   0  0  0  0  0  0  0  0  0  0  0  0
  192.4430  175.6230  144.8080 C   0  0  0  0  0  0  0  0  0  0  0  0
  189.5160  174.7550  142.5310 C   0  0  0  0  0  0  0  0  0  0  0  0
  189.6360  176.5950  146.8720 C   0  0  1  0  0  3  0  0  0  0  0  0
  185.1100  179.8250  144.0630 C   0  0  0  0  0  1  0  0  0  0  0  0
  191.5040  176.7650  145.0270 C   0  0  0  0  0  2  0  0  0  0  0  0
  188.5530  173.7500  142.3370 C   0  0  0  0  0  3  0  0  0  0  0  0
  191.1590  173.3380  141.4330 C   0  0  0  0  0  3  0  0  0  0  0  0
  190.1870  172.3560  141.2310 C   0  0  0  0  0  3  0  0  0  0  0  0
  192.6980  175.1180  143.4950 N   0  0  0  0  0  2  0  0  0  0  0  0
  187.8840  175.8760  145.3310 C   0  0  2  0  0  3  0  0  0  0  0  0
  190.1680  176.2860  145.5130 C   0  0  2  0  0  3  0  0  0  0  0  0
  187.0960  176.6760  144.2840 C   0  0  2  0  0  3  0  0  0  0  0  0
  187.4990  175.7000  147.7900 C   0  0  0  0  0  1  0  0  0  0  0  0
  189.1440  176.0280  143.2490 C   0  0  1  0  0  3  0  0  0  0  0  0
  1  6  1  0  0  0  0
  1 16  1  0  0  0  0
  2  8  2  0  0  0  0
  4 20  1  0  0  0  0
  5 17  1  0  0  0  0
  5 27  1  1  0  0  0
  6 23  1  0  0  0  0
  7  8  2  0  0  0  0
  8 14  1  0  0  0  0
  9 18  1  0  0  0  0
  9 13  1  0  0  0  0
 10  8  1  6  0  0  0
 10 28  1  0  0  0  0
 10 26  1  0  0  0  0
 12 24  1  0  0  0  0
 12 25  1  0  0  0  0
 14  9  2  0  0  0  0
 15 19  1  0  0  0  0
 15 11  2  0  0  0  0
 16 28  1  0  0  0  0
 17  3  1  0  0  0  0
 19 25  1  0  0  0  0
 20 16  2  0  0  0  0
 21  1  2  0  0  0  0
 22 21  1  0  0  0  0
 22  4  2  0  0  0  0
 23 15  1  0  0  0  0
 24  5  1  0  0  0  0
 25 17  1  0  0  0  0
 26 13  1  0  0  0  0
 26 24  1  0  0  0  0
 28 12  1  0  0  0  0
M  END
>  <MODEL>
2

>  <REMARK>
 VINA RESULT:      -7.9      2.126      6.266
  Name = 
  0 active torsions:
  status: ('A' for Active; 'I' for Inactive)
                            x       y       z     vdW  Elec       q    Type
                         _______ _______ _______ _____ _____    ______ ____

>  <TORSDO>
F 0

$$$$
=
 OpenBabel11112417373D

 28 32  0  0  1  0  0  0  0  0999 V2000
  195.1960  173.7760  144.6820 C   0  0  0  0  0  0  0  0  0  0  0  0
  192.3540  174.1970  141.4350 O   0  0  0  0  0  0  0  0  0  0  0  0
  190.1330  177.2890  145.5430 O   0  0  0  0  0  1  0  0  0  0  0  0
  194.9850  171.2000  145.7680 C   0  0  0  0  0  3  0  0  0  0  0  0
  189.7780  174.9830  146.0450 C   0  0  1  0  0  3  0  0  0  0  0  0
  195.3520  175.1740  144.1780 C   0  0  0  0  0  2  0  0  0  0  0  0
  192.5480  171.7480  141.4120 O   0  0  0  0  0  0  0  0  0  0  0  0
  191.7540  172.9110  141.9350 S   0  0  0  0  0  0  0  0  0  0  0  0
  189.1860  173.2730  142.1020 C   0  0  0  0  0  0  0  0  0  0  0  0
  191.7440  172.8580  143.6790 N   0  0  2  0  0  0  0  0  0  0  0  0
  194.2870  177.4390  146.8500 O   0  0  0  0  0  0  0  0  0  0  0  0
  191.9820  174.4870  145.3430 C   0  0  2  0  0  3  0  0  0  0  0  0
  189.4890  173.9920  143.3820 C   0  0  0  0  0  2  0  0  0  0  0  0
  190.1360  172.7870  141.3880 N   0  0  0  0  0  0  0  0  0  0  0  0
  194.2250  176.7870  145.7760 C   0  0  0  0  0  0  0  0  0  0  0  0
  193.9390  173.1370  144.7260 C   0  0  0  0  0  0  0  0  0  0  0  0
  190.6830  176.2030  146.2250 C   0  0  1  0  0  3  0  0  0  0  0  0
  187.7740  173.1320  141.6520 C   0  0  0  0  0  1  0  0  0  0  0  0
  192.9460  176.7640  145.0040 C   0  0  0  0  0  2  0  0  0  0  0  0
  193.8480  171.8510  145.2850 C   0  0  0  0  0  3  0  0  0  0  0  0
  196.3300  173.1170  145.1700 C   0  0  0  0  0  3  0  0  0  0  0  0
  196.2270  171.8320  145.7060 C   0  0  0  0  0  3  0  0  0  0  0  0
  195.3850  176.0970  145.3030 N   0  0  0  0  0  2  0  0  0  0  0  0
  190.7050  173.8360  145.6280 C   0  0  2  0  0  3  0  0  0  0  0  0
  191.9710  175.7890  145.5940 C   0  0  2  0  0  3  0  0  0  0  0  0
  190.4140  173.1500  144.2850 C   0  0  2  0  0  3  0  0  0  0  0  0
  189.1010  174.6470  147.3570 C   0  0  0  0  0  1  0  0  0  0  0  0
  192.6990  173.8310  144.2240 C   0  0  1  0  0  3  0  0  0  0  0  0
  1 16  2  0  0  0  0
  1 21  1  0  0  0  0
  2  8  2  0  0  0  0
  3 17  1  0  0  0  0
  5 17  1  0  0  0  0
  5 27  1  1  0  0  0
  6  1  1  0  0  0  0
  6 23  1  0  0  0  0
  7  8  2  0  0  0  0
  9 13  1  0  0  0  0
 10  8  1  6  0  0  0
 10 28  1  0  0  0  0
 10 26  1  0  0  0  0
 12 25  1  0  0  0  0
 12 24  1  0  0  0  0
 13 26  1  0  0  0  0
 14  8  1  0  0  0  0
 14  9  2  0  0  0  0
 15 11  2  0  0  0  0
 16 20  1  0  0  0  0
 18  9  1  0  0  0  0
 19 25  1  0  0  0  0
 19 15  1  0  0  0  0
 20  4  2  0  0  0  0
 21 22  2  0  0  0  0
 22  4  1  0  0  0  0
 23 15  1  0  0  0  0
 24  5  1  0  0  0  0
 25 17  1  0  0  0  0
 26 24  1  0  0  0  0
 28 16  1  0  0  0  0
 28 12  1  0  0  0  0
M  END
>  <MODEL>
3

>  <REMARK>
 VINA RESULT:      -7.6      4.062      7.692
  Name = 
  0 active torsions:
  status: ('A' for Active; 'I' for Inactive)
                            x       y       z     vdW  Elec       q    Type
                         _______ _______ _______ _____ _____    ______ ____

>  <TORSDO>
F 0

$$$$
=
 OpenBabel11112417373D

 28 32  0  0  1  0  0  0  0  0999 V2000
  193.0040  174.2790  144.1110 C   0  0  0  0  0  0  0  0  0  0  0  0
  189.4290  173.7840  146.5140 O   0  0  0  0  0  0  0  0  0  0  0  0
  187.4410  175.0640  141.4360 O   0  0  0  0  0  1  0  0  0  0  0  0
  194.2690  176.6790  144.8180 C   0  0  0  0  0  3  0  0  0  0  0  0
  188.2910  177.0520  142.4480 C   0  0  1  0  0  3  0  0  0  0  0  0
  192.3780  173.0000  143.6580 C   0  0  0  0  0  2  0  0  0  0  0  0
  190.6490  175.3020  148.0130 O   0  0  0  0  0  0  0  0  0  0  0  0
  189.6280  175.2210  146.9140 S   0  0  0  0  0  0  0  0  0  0  0  0
  187.3400  176.4220  146.6330 C   0  0  0  0  0  0  0  0  0  0  0  0
  190.1680  176.1820  145.5610 N   0  0  2  0  0  0  0  0  0  0  0  0
  191.2980  173.4620  140.1910 O   0  0  0  0  0  0  0  0  0  0  0  0
  190.1650  175.8500  143.2450 C   0  0  2  0  0  3  0  0  0  0  0  0
  187.6720  176.4590  145.1710 C   0  0  0  0  0  2  0  0  0  0  0  0
  188.1420  175.8690  147.4680 N   0  0  0  0  0  0  0  0  0  0  0  0
  191.2040  173.3630  141.4410 C   0  0  0  0  0  0  0  0  0  0  0  0
  192.2270  175.3900  144.4990 C   0  0  0  0  0  0  0  0  0  0  0  0
  188.5850  175.8570  141.5390 C   0  0  1  0  0  3  0  0  0  0  0  0
  186.0670  177.0240  147.1160 C   0  0  0  0  0  1  0  0  0  0  0  0
  189.8950  173.6450  142.1040 C   0  0  0  0  0  2  0  0  0  0  0  0
  192.8750  176.5900  144.8380 C   0  0  0  0  0  3  0  0  0  0  0  0
  194.3990  174.3770  144.0910 C   0  0  0  0  0  3  0  0  0  0  0  0
  195.0310  175.5710  144.4490 C   0  0  0  0  0  3  0  0  0  0  0  0
  192.3450  172.9610  142.2030 N   0  0  0  0  0  2  0  0  0  0  0  0
  189.4500  177.1070  143.4490 C   0  0  2  0  0  3  0  0  0  0  0  0
  189.6670  175.1200  142.2550 C   0  0  2  0  0  3  0  0  0  0  0  0
  189.0950  177.0090  144.9400 C   0  0  2  0  0  3  0  0  0  0  0  0
  188.2570  178.3250  141.6280 C   0  0  0  0  0  1  0  0  0  0  0  0
  190.7210  175.3180  144.5110 C   0  0  1  0  0  3  0  0  0  0  0  0
  1 16  1  0  0  0  0
  2  8  2  0  0  0  0
  3 17  1  0  0  0  0
  4 20  1  0  0  0  0
  5 27  1  6  0  0  0
  5 24  1  0  0  0  0
  6  1  1  0  0  0  0
  8 14  1  0  0  0  0
  8  7  2  0  0  0  0
  9 18  1  0  0  0  0
  9 14  2  0  0  0  0
 10  8  1  1  0  0  0
 11 15  2  0  0  0  0
 12 24  1  0  0  0  0
 12 28  1  0  0  0  0
 13  9  1  0  0  0  0
 15 19  1  0  0  0  0
 15 23  1  0  0  0  0
 16 28  1  0  0  0  0
 16 20  2  0  0  0  0
 17 25  1  0  0  0  0
 17  5  1  0  0  0  0
 19 25  1  0  0  0  0
 21  1  2  0  0  0  0
 21 22  1  0  0  0  0
 22  4  2  0  0  0  0
 23  6  1  0  0  0  0
 24 26  1  0  0  0  0
 25 12  1  0  0  0  0
 26 13  1  0  0  0  0
 26 10  1  0  0  0  0
 28 10  1  0  0  0  0
M  END
>  <MODEL>
4

>  <REMARK>
 VINA RESULT:      -7.5      2.309      5.854
  Name = 
  0 active torsions:
  status: ('A' for Active; 'I' for Inactive)
                            x       y       z     vdW  Elec       q    Type
                         _______ _______ _______ _____ _____    ______ ____

>  <TORSDO>
F 0

$$$$
=
 OpenBabel11112417373D

 28 32  0  0  1  0  0  0  0  0999 V2000
  189.4180  176.2920  144.8200 C   0  0  0  0  0  0  0  0  0  0  0  0
  193.7120  176.8840  144.7410 O   0  0  0  0  0  0  0  0  0  0  0  0
  192.9030  172.6090  141.2140 O   0  0  0  0  0  1  0  0  0  0  0  0
  188.6900  175.1240  147.2630 C   0  0  0  0  0  3  0  0  0  0  0  0
  192.6850  171.8060  143.4500 C   0  0  1  0  0  3  0  0  0  0  0  0
  189.7260  176.8890  143.4850 C   0  0  0  0  0  2  0  0  0  0  0  0
  193.4150  176.8220  147.1790 O   0  0  0  0  0  0  0  0  0  0  0  0
  193.7490  176.0070  145.9630 S   0  0  0  0  0  0  0  0  0  0  0  0
  195.5970  174.2210  145.5730 C   0  0  0  0  0  0  0  0  0  0  0  0
  192.6100  174.6910  145.8270 N   0  0  2  0  0  0  0  0  0  0  0  0
  188.9310  174.3800  140.9400 O   0  0  0  0  0  0  0  0  0  0  0  0
  191.4530  173.7400  144.0290 C   0  0  2  0  0  3  0  0  0  0  0  0
  194.5790  173.5240  144.7220 C   0  0  0  0  0  2  0  0  0  0  0  0
  195.3160  175.3390  146.1380 N   0  0  0  0  0  0  0  0  0  0  0  0
  189.6370  175.0870  141.7050 C   0  0  0  0  0  0  0  0  0  0  0  0
  190.2920  175.3770  145.4450 C   0  0  0  0  0  0  0  0  0  0  0  0
  191.9690  172.3700  142.2220 C   0  0  1  0  0  3  0  0  0  0  0  0
  196.9450  173.6160  145.7570 C   0  0  0  0  0  1  0  0  0  0  0  0
  191.1030  174.8210  141.8050 C   0  0  0  0  0  2  0  0  0  0  0  0
  189.9070  174.7910  146.6630 C   0  0  0  0  0  3  0  0  0  0  0  0
  188.2000  176.6180  145.4270 C   0  0  0  0  0  3  0  0  0  0  0  0
  187.8390  176.0410  146.6470 C   0  0  0  0  0  3  0  0  0  0  0  0
  189.0270  176.1460  142.4460 N   0  0  0  0  0  2  0  0  0  0  0  0
  192.1820  172.6320  144.6400 C   0  0  2  0  0  3  0  0  0  0  0  0
  191.3850  173.6550  142.7070 C   0  0  2  0  0  3  0  0  0  0  0  0
  193.2340  173.3860  145.4660 C   0  0  2  0  0  3  0  0  0  0  0  0
  192.3120  170.3500  143.6400 C   0  0  0  0  0  1  0  0  0  0  0  0
  191.6010  174.9940  144.8040 C   0  0  1  0  0  3  0  0  0  0  0  0
  1 21  2  0  0  0  0
  1 16  1  0  0  0  0
  2  8  2  0  0  0  0
  3 17  1  0  0  0  0
  5 27  1  1  0  0  0
  5 24  1  0  0  0  0
  6  1  1  0  0  0  0
  8 14  1  0  0  0  0
  8  7  2  0  0  0  0
  9 18  1  0  0  0  0
  9 14  2  0  0  0  0
 10  8  1  6  0  0  0
 11 15  2  0  0  0  0
 12 24  1  0  0  0  0
 12 28  1  0  0  0  0
 13 26  1  0  0  0  0
 13  9  1  0  0  0  0
 15 19  1  0  0  0  0
 15 23  1  0  0  0  0
 16 20  2  0  0  0  0
 17 25  1  0  0  0  0
 17  5  1  0  0  0  0
 19 25  1  0  0  0  0
 20  4  1  0  0  0  0
 21 22  1  0  0  0  0
 22  4  2  0  0  0  0
 23  6  1  0  0  0  0
 24 26  1  0  0  0  0
 25 12  1  0  0  0  0
 26 10  1  0  0  0  0
 28 16  1  0  0  0  0
 28 10  1  0  0  0  0
M  END
>  <MODEL>
5

>  <REMARK>
 VINA RESULT:      -7.5      2.828      4.164
  Name = 
  0 active torsions:
  status: ('A' for Active; 'I' for Inactive)
                            x       y       z     vdW  Elec       q    Type
                         _______ _______ _______ _____ _____    ______ ____

>  <TORSDO>
F 0

$$$$
=
 OpenBabel11112417373D

 28 32  0  0  1  0  0  0  0  0999 V2000
  188.4460  176.1230  145.3610 C   0  0  0  0  0  0  0  0  0  0  0  0
  189.3160  172.1690  143.8100 O   0  0  0  0  0  0  0  0  0  0  0  0
  194.3830  174.3490  144.7870 O   0  0  0  0  0  1  0  0  0  0  0  0
  187.5460  177.7590  143.2700 C   0  0  0  0  0  3  0  0  0  0  0  0
  193.4960  175.3340  142.8020 C   0  0  1  0  0  3  0  0  0  0  0  0
  188.9410  175.3250  146.5230 C   0  0  0  0  0  2  0  0  0  0  0  0
  187.7450  172.8890  142.0630 O   0  0  0  0  0  0  0  0  0  0  0  0
  189.1950  172.7930  142.4460 S   0  0  0  0  0  0  0  0  0  0  0  0
  191.2660  172.0420  141.0680 C   0  0  0  0  0  0  0  0  0  0  0  0
  189.8990  174.3890  142.4200 N   0  0  2  0  0  0  0  0  0  0  0  0
  192.1200  176.7910  147.5980 O   0  0  0  0  0  0  0  0  0  0  0  0
  191.3780  175.5220  143.8370 C   0  0  2  0  0  3  0  0  0  0  0  0
  192.0080  173.1000  141.8280 C   0  0  0  0  0  2  0  0  0  0  0  0
  190.0230  171.8260  141.3010 N   0  0  0  0  0  0  0  0  0  0  0  0
  191.3350  175.9770  147.0470 C   0  0  0  0  0  0  0  0  0  0  0  0
  188.9690  175.9480  144.0620 C   0  0  0  0  0  0  0  0  0  0  0  0
  193.6510  175.4410  144.3200 C   0  0  1  0  0  3  0  0  0  0  0  0
  191.9800  171.2320  140.0430 C   0  0  0  0  0  1  0  0  0  0  0  0
  191.8900  174.8830  146.1950 C   0  0  0  0  0  2  0  0  0  0  0  0
  188.5170  176.7850  143.0280 C   0  0  0  0  0  3  0  0  0  0  0  0
  187.4760  177.1030  145.5950 C   0  0  0  0  0  3  0  0  0  0  0  0
  187.0230  177.9150  144.5530 C   0  0  0  0  0  3  0  0  0  0  0  0
  189.9270  176.1010  147.2630 N   0  0  0  0  0  2  0  0  0  0  0  0
  192.0070  175.5640  142.5200 C   0  0  2  0  0  3  0  0  0  0  0  0
  192.2480  175.3850  144.8280 C   0  0  2  0  0  3  0  0  0  0  0  0
  191.2500  174.4440  141.7920 C   0  0  2  0  0  3  0  0  0  0  0  0
  194.3210  176.4090  142.1240 C   0  0  0  0  0  1  0  0  0  0  0  0
  190.0280  174.9110  143.7860 C   0  0  1  0  0  3  0  0  0  0  0  0
  1 21  1  0  0  0  0
  1  6  1  0  0  0  0
  4 22  1  0  0  0  0
  5 27  1  6  0  0  0
  5 17  1  0  0  0  0
  6 23  1  0  0  0  0
  7  8  2  0  0  0  0
  8  2  2  0  0  0  0
  9 14  2  0  0  0  0
  9 13  1  0  0  0  0
 10  8  1  1  0  0  0
 10 28  1  0  0  0  0
 12 25  1  0  0  0  0
 14  8  1  0  0  0  0
 15 23  1  0  0  0  0
 15 11  2  0  0  0  0
 16  1  2  0  0  0  0
 17  3  1  0  0  0  0
 17 25  1  0  0  0  0
 18  9  1  0  0  0  0
 19 15  1  0  0  0  0
 20  4  2  0  0  0  0
 20 16  1  0  0  0  0
 22 21  2  0  0  0  0
 24  5  1  0  0  0  0
 24 12  1  0  0  0  0
 25 19  1  0  0  0  0
 26 13  1  0  0  0  0
 26 10  1  0  0  0  0
 26 24  1  0  0  0  0
 28 12  1  0  0  0  0
 28 16  1  0  0  0  0
M  END
>  <MODEL>
6

>  <REMARK>
 VINA RESULT:      -7.4      2.987      5.539
  Name = 
  0 active torsions:
  status: ('A' for Active; 'I' for Inactive)
                            x       y       z     vdW  Elec       q    Type
                         _______ _______ _______ _____ _____    ______ ____

>  <TORSDO>
F 0

$$$$
=
 OpenBabel11112417373D

 28 32  0  0  1  0  0  0  0  0999 V2000
  188.0130  177.5410  145.2930 C   0  0  0  0  0  0  0  0  0  0  0  0
  192.3330  177.2280  145.1120 O   0  0  0  0  0  0  0  0  0  0  0  0
  190.5930  173.9220  140.9380 O   0  0  0  0  0  1  0  0  0  0  0  0
  187.0760  176.1300  147.5280 C   0  0  0  0  0  3  0  0  0  0  0  0
  190.2300  172.7930  143.0090 C   0  0  1  0  0  3  0  0  0  0  0  0
  188.4280  178.2910  144.0690 C   0  0  0  0  0  2  0  0  0  0  0  0
  192.0530  176.7910  147.5130 O   0  0  0  0  0  0  0  0  0  0  0  0
  192.1940  176.1570  146.1590 S   0  0  0  0  0  0  0  0  0  0  0  0
  193.6120  174.1240  145.3770 C   0  0  0  0  0  0  0  0  0  0  0  0
  190.7980  175.1540  145.8520 N   0  0  2  0  0  0  0  0  0  0  0  0
  187.0900  176.5030  141.1680 O   0  0  0  0  0  0  0  0  0  0  0  0
  189.4460  174.8060  143.9730 C   0  0  2  0  0  3  0  0  0  0  0  0
  192.4600  173.8200  144.4670 C   0  0  0  0  0  2  0  0  0  0  0  0
  193.5830  175.1560  146.1400 N   0  0  0  0  0  0  0  0  0  0  0  0
  187.9380  176.8980  142.0090 C   0  0  0  0  0  0  0  0  0  0  0  0
  188.6770  176.3670  145.7070 C   0  0  0  0  0  0  0  0  0  0  0  0
  189.6390  173.7060  141.9330 C   0  0  1  0  0  3  0  0  0  0  0  0
  194.8010  173.2280  145.3880 C   0  0  0  0  0  1  0  0  0  0  0  0
  189.3140  176.3170  141.9910 C   0  0  0  0  0  2  0  0  0  0  0  0
  188.1870  175.6640  146.8210 C   0  0  0  0  0  3  0  0  0  0  0  0
  186.8990  177.9990  146.0050 C   0  0  0  0  0  3  0  0  0  0  0  0
  186.4350  177.3000  147.1210 C   0  0  0  0  0  3  0  0  0  0  0  0
  187.5760  177.9100  142.9510 N   0  0  0  0  0  2  0  0  0  0  0  0
  189.9270  173.4780  144.3470 C   0  0  2  0  0  3  0  0  0  0  0  0
  189.3490  174.9760  142.6620 C   0  0  2  0  0  3  0  0  0  0  0  0
  191.1240  173.8350  145.2400 C   0  0  2  0  0  3  0  0  0  0  0  0
  189.5560  171.4370  142.9600 C   0  0  0  0  0  1  0  0  0  0  0  0
  189.8680  175.8400  144.9470 C   0  0  1  0  0  3  0  0  0  0  0  0
  1 16  2  0  0  0  0
  1 21  1  0  0  0  0
  2  8  2  0  0  0  0
  3 17  1  0  0  0  0
  5 27  1  1  0  0  0
  5 24  1  0  0  0  0
  6  1  1  0  0  0  0
  8  7  2  0  0  0  0
  9 18  1  0  0  0  0
  9 14  2  0  0  0  0
 10  8  1  6  0  0  0
 11 15  2  0  0  0  0
 12 24  1  0  0  0  0
 12 28  1  0  0  0  0
 13 26  1  0  0  0  0
 13  9  1  0  0  0  0
 14  8  1  0  0  0  0
 15 23  1  0  0  0  0
 16 20  1  0  0  0  0
 17 25  1  0  0  0  0
 17  5  1  0  0  0  0
 19 15  1  0  0  0  0
 19 25  1  0  0  0  0
 20  4  2  0  0  0  0
 21 22  2  0  0  0  0
 22  4  1  0  0  0  0
 23  6  1  0  0  0  0
 24 26  1  0  0  0  0
 25 12  1  0  0  0  0
 26 10  1  0  0  0  0
 28 16  1  0  0  0  0
 28 10  1  0  0  0  0
M  END
>  <MODEL>
7

>  <REMARK>
 VINA RESULT:      -7.4      1.751      2.162
  Name = 
  0 active torsions:
  status: ('A' for Active; 'I' for Inactive)
                            x       y       z     vdW  Elec       q    Type
                         _______ _______ _______ _____ _____    ______ ____

>  <TORSDO>
F 0

$$$$
=
 OpenBabel11112417373D

 28 32  0  0  1  0  0  0  0  0999 V2000
  189.1460  176.2580  145.1340 C   0  0  0  0  0  0  0  0  0  0  0  0
  190.6490  172.3060  144.1770 O   0  0  0  0  0  0  0  0  0  0  0  0
  195.0510  174.8630  146.5120 O   0  0  0  0  0  1  0  0  0  0  0  0
  188.8540  177.7340  142.7680 C   0  0  0  0  0  3  0  0  0  0  0  0
  194.7720  175.6950  144.2930 C   0  0  1  0  0  3  0  0  0  0  0  0
  189.2980  175.5490  146.4400 C   0  0  0  0  0  2  0  0  0  0  0  0
  189.6590  172.8390  141.9920 O   0  0  0  0  0  0  0  0  0  0  0  0
  190.9220  172.8580  142.8040 S   0  0  0  0  0  0  0  0  0  0  0  0
  193.3530  172.1860  142.1740 C   0  0  0  0  0  0  0  0  0  0  0  0
  191.5200  174.4950  142.8920 N   0  0  2  0  0  0  0  0  0  0  0  0
  191.9120  177.2720  148.3380 O   0  0  0  0  0  0  0  0  0  0  0  0
  192.4310  175.7880  144.6180 C   0  0  2  0  0  3  0  0  0  0  0  0
  193.7710  173.3250  143.0550 C   0  0  0  0  0  2  0  0  0  0  0  0
  192.1110  171.8980  142.0300 N   0  0  0  0  0  0  0  0  0  0  0  0
  191.3770  176.3830  147.6260 C   0  0  0  0  0  0  0  0  0  0  0  0
  190.0520  176.0600  144.0700 C   0  0  0  0  0  0  0  0  0  0  0  0
  194.4450  175.8810  145.7760 C   0  0  1  0  0  3  0  0  0  0  0  0
  194.3880  171.3800  141.4700 C   0  0  0  0  0  1  0  0  0  0  0  0
  192.2220  175.2910  147.0560 C   0  0  0  0  0  2  0  0  0  0  0  0
  189.9000  176.8180  142.8960 C   0  0  0  0  0  3  0  0  0  0  0  0
  188.1030  177.1810  144.9970 C   0  0  0  0  0  3  0  0  0  0  0  0
  187.9540  177.9130  143.8170 C   0  0  0  0  0  3  0  0  0  0  0  0
  189.9670  176.4220  147.3940 N   0  0  0  0  0  2  0  0  0  0  0  0
  193.4330  175.8120  143.5560 C   0  0  2  0  0  3  0  0  0  0  0  0
  192.9590  175.7540  145.8340 C   0  0  2  0  0  3  0  0  0  0  0  0
  192.9940  174.6120  142.7040 C   0  0  2  0  0  3  0  0  0  0  0  0
  195.7110  176.7910  143.8320 C   0  0  0  0  0  1  0  0  0  0  0  0
  191.1950  175.0860  144.1970 C   0  0  1  0  0  3  0  0  0  0  0  0
  1  6  1  0  0  0  0
  4 20  2  0  0  0  0
  4 22  1  0  0  0  0
  5 27  1  6  0  0  0
  5 17  1  0  0  0  0
  6 23  1  0  0  0  0
  7  8  2  0  0  0  0
  8  2  2  0  0  0  0
  9 13  1  0  0  0  0
 10  8  1  1  0  0  0
 10 28  1  0  0  0  0
 12 25  1  0  0  0  0
 14  9  2  0  0  0  0
 14  8  1  0  0  0  0
 15 11  2  0  0  0  0
 16 28  1  0  0  0  0
 16  1  2  0  0  0  0
 17 25  1  0  0  0  0
 17  3  1  0  0  0  0
 18  9  1  0  0  0  0
 19 15  1  0  0  0  0
 20 16  1  0  0  0  0
 21  1  1  0  0  0  0
 22 21  2  0  0  0  0
 23 15  1  0  0  0  0
 24  5  1  0  0  0  0
 24 12  1  0  0  0  0
 25 19  1  0  0  0  0
 26 10  1  0  0  0  0
 26 13  1  0  0  0  0
 26 24  1  0  0  0  0
 28 12  1  0  0  0  0
M  END
>  <MODEL>
8

>  <REMARK>
 VINA RESULT:      -7.0      3.208      6.060
  Name = 
  0 active torsions:
  status: ('A' for Active; 'I' for Inactive)
                            x       y       z     vdW  Elec       q    Type
                         _______ _______ _______ _____ _____    ______ ____

>  <TORSDO>
F 0

$$$$
=
 OpenBabel11112417373D

 28 32  0  0  1  0  0  0  0  0999 V2000
  187.7000  176.8600  144.1380 C   0  0  0  0  0  0  0  0  0  0  0  0
  188.7580  172.6670  143.8190 O   0  0  0  0  0  0  0  0  0  0  0  0
  193.0740  174.9110  146.5950 O   0  0  0  0  0  1  0  0  0  0  0  0
  187.9790  178.0780  141.6280 C   0  0  0  0  0  3  0  0  0  0  0  0
  193.2520  175.5100  144.2920 C   0  0  1  0  0  3  0  0  0  0  0  0
  187.5520  176.2920  145.5130 C   0  0  0  0  0  2  0  0  0  0  0  0
  188.1930  173.0640  141.4600 O   0  0  0  0  0  0  0  0  0  0  0  0
  189.3100  173.0190  142.4640 S   0  0  0  0  0  0  0  0  0  0  0  0
  191.6890  171.9830  142.3090 C   0  0  0  0  0  0  0  0  0  0  0  0
  190.1120  174.5690  142.4950 N   0  0  2  0  0  0  0  0  0  0  0  0
  190.0670  177.8850  147.6440 O   0  0  0  0  0  0  0  0  0  0  0  0
  190.9260  175.9290  144.2170 C   0  0  2  0  0  3  0  0  0  0  0  0
  192.1250  173.1550  143.1350 C   0  0  0  0  0  2  0  0  0  0  0  0
  190.4540  171.8360  141.9900 N   0  0  0  0  0  0  0  0  0  0  0  0
  189.5260  176.9940  146.9410 C   0  0  0  0  0  0  0  0  0  0  0  0
  188.7190  176.4290  143.2620 C   0  0  0  0  0  0  0  0  0  0  0  0
  192.7360  175.9050  145.6770 C   0  0  1  0  0  3  0  0  0  0  0  0
  192.6940  170.9790  141.8640 C   0  0  0  0  0  1  0  0  0  0  0  0
  190.2850  175.7470  146.6230 C   0  0  0  0  0  2  0  0  0  0  0  0
  188.8540  177.0590  142.0120 C   0  0  0  0  0  3  0  0  0  0  0  0
  186.8300  177.8830  143.7460 C   0  0  0  0  0  3  0  0  0  0  0  0
  186.9650  178.4870  142.4940 C   0  0  0  0  0  3  0  0  0  0  0  0
  188.1860  177.1800  146.4770 N   0  0  0  0  0  2  0  0  0  0  0  0
  192.0700  175.7060  143.3370 C   0  0  2  0  0  3  0  0  0  0  0  0
  191.2550  175.9700  145.5010 C   0  0  2  0  0  3  0  0  0  0  0  0
  191.5990  174.4790  142.5420 C   0  0  2  0  0  3  0  0  0  0  0  0
  194.3950  176.4200  143.8910 C   0  0  0  0  0  1  0  0  0  0  0  0
  189.6810  175.3420  143.6660 C   0  0  1  0  0  3  0  0  0  0  0  0
  1  6  1  0  0  0  0
  4 20  2  0  0  0  0
  4 22  1  0  0  0  0
  5 27  1  6  0  0  0
  5 17  1  0  0  0  0
  6 23  1  0  0  0  0
  7  8  2  0  0  0  0
  8  2  2  0  0  0  0
  9 13  1  0  0  0  0
 10  8  1  1  0  0  0
 10 26  1  0  0  0  0
 10 28  1  0  0  0  0
 12 25  1  0  0  0  0
 14  9  2  0  0  0  0
 14  8  1  0  0  0  0
 15 11  2  0  0  0  0
 16 28  1  0  0  0  0
 16  1  2  0  0  0  0
 17  3  1  0  0  0  0
 18  9  1  0  0  0  0
 19 15  1  0  0  0  0
 20 16  1  0  0  0  0
 21  1  1  0  0  0  0
 22 21  2  0  0  0  0
 23 15  1  0  0  0  0
 24 12  1  0  0  0  0
 24  5  1  0  0  0  0
 25 17  1  0  0  0  0
 25 19  1  0  0  0  0
 26 13  1  0  0  0  0
 26 24  1  0  0  0  0
 28 12  1  0  0  0  0
M  END
>  <MODEL>
9

>  <REMARK>
 VINA RESULT:      -7.0      2.701      5.202
  Name = 
  0 active torsions:
  status: ('A' for Active; 'I' for Inactive)
                            x       y       z     vdW  Elec       q    Type
                         _______ _______ _______ _____ _____    ______ ____

>  <TORSDO>
F 0

$$$$
