=
 OpenBabel11112417393D

 28 32  0  0  1  0  0  0  0  0999 V2000
  186.2860  178.4020  144.3080 C   0  0  0  0  0  0  0  0  0  0  0  0
  190.0850  178.4140  144.6330 O   0  0  0  0  0  0  0  0  0  0  0  0
  188.1710  174.9750  139.3130 O   0  0  0  0  0  0  0  0  0  0  0  0
  185.5280  176.9360  146.5730 C   0  0  0  0  0  3  0  0  0  0  0  0
  188.2670  173.7370  141.4000 C   0  0  2  0  0  3  0  0  0  0  0  0
  186.6020  179.1860  143.0740 C   0  0  0  0  0  2  0  0  0  0  0  0
  190.4990  176.8550  146.4840 O   0  0  0  0  0  0  0  0  0  0  0  0
  190.3860  176.9860  144.9920 S   0  0  0  0  0  0  0  0  0  0  0  0
  191.8620  175.6830  143.1010 C   0  0  0  0  0  0  0  0  0  0  0  0
  189.0840  175.8960  144.4130 C   0  0  2  0  0  3  0  0  0  0  0  0
  185.1080  177.5270  140.1720 O   0  0  0  0  0  0  0  0  0  0  0  0
  187.3710  175.6010  142.7140 C   0  0  2  0  0  3  0  0  0  0  0  0
  190.5660  175.3360  142.4470 C   0  0  0  0  0  2  0  0  0  0  0  0
  191.8770  176.5100  144.2600 N   0  0  0  0  0  2  0  0  0  0  0  0
  186.0020  177.8990  140.9740 C   0  0  0  0  0  0  0  0  0  0  0  0
  186.9220  177.1770  144.5920 C   0  0  0  0  0  0  0  0  0  0  0  0
  188.0050  174.9290  140.5610 C   0  0  0  0  0  0  0  0  0  0  0  0
  192.9720  175.3620  142.5290 N   0  0  0  0  0  2  0  0  0  0  0  0
  187.3920  177.3760  140.8160 C   0  0  0  0  0  2  0  0  0  0  0  0
  186.5220  176.4450  145.7230 C   0  0  0  0  0  3  0  0  0  0  0  0
  185.2870  178.8840  145.1620 C   0  0  0  0  0  3  0  0  0  0  0  0
  184.9140  178.1570  146.2940 C   0  0  0  0  0  3  0  0  0  0  0  0
  185.6740  178.8250  142.0120 N   0  0  0  0  0  2  0  0  0  0  0  0
  188.2270  174.3290  142.8280 C   0  0  2  0  0  3  0  0  0  0  0  0
  187.4890  176.0100  141.3170 N   0  0  0  0  0  0  0  0  0  0  0  0
  189.5540  174.7890  143.4710 C   0  0  2  0  0  3  0  0  0  0  0  0
  189.5360  172.9810  141.0300 C   0  0  0  0  0  1  0  0  0  0  0  0
  187.9760  176.6280  143.6670 C   0  0  1  0  0  3  0  0  0  0  0  0
  1 16  2  0  0  0  0
  1 21  1  0  0  0  0
  2  8  2  0  0  0  0
  3 17  2  0  0  0  0
  5 27  1  6  0  0  0
  5 24  1  0  0  0  0
  6  1  1  0  0  0  0
  8  7  2  0  0  0  0
  9 14  1  0  0  0  0
 10  8  1  6  0  0  0
 11 15  2  0  0  0  0
 12 25  1  6  0  0  0
 12 24  1  0  0  0  0
 12 28  1  0  0  0  0
 13  9  1  0  0  0  0
 13 26  1  0  0  0  0
 14  8  1  0  0  0  0
 15 23  1  0  0  0  0
 16 20  1  0  0  0  0
 17 25  1  0  0  0  0
 17  5  1  0  0  0  0
 18  9  2  0  0  0  0
 19 15  1  0  0  0  0
 19 25  1  0  0  0  0
 20  4  2  0  0  0  0
 21 22  2  0  0  0  0
 22  4  1  0  0  0  0
 23  6  1  0  0  0  0
 24 26  1  0  0  0  0
 26 10  1  0  0  0  0
 28 10  1  0  0  0  0
 28 16  1  0  0  0  0
M  END
>  <MODEL>
1

>  <REMARK>
 VINA RESULT:      -8.7      0.000      0.000
  Name = 
  0 active torsions:
  status: ('A' for Active; 'I' for Inactive)
                            x       y       z     vdW  Elec       q    Type
                         _______ _______ _______ _____ _____    ______ ____

>  <TORSDO>
F 0

$$$$
=
 OpenBabel11112417393D

 28 32  0  0  1  0  0  0  0  0999 V2000
  190.6450  175.2870  142.3360 C   0  0  0  0  0  0  0  0  0  0  0  0
  188.2960  178.0970  141.2790 O   0  0  0  0  0  0  0  0  0  0  0  0
  189.1420  178.0580  147.8410 O   0  0  0  0  0  0  0  0  0  0  0  0
  189.1470  173.0140  141.6700 C   0  0  0  0  0  3  0  0  0  0  0  0
  187.3760  176.6260  146.9900 C   0  0  2  0  0  3  0  0  0  0  0  0
  191.5070  176.4440  142.7290 C   0  0  0  0  0  2  0  0  0  0  0  0
  186.2110  176.9180  140.7360 O   0  0  0  0  0  0  0  0  0  0  0  0
  186.9710  177.6350  141.8160 S   0  0  0  0  0  0  0  0  0  0  0  0
  185.9510  179.2780  143.7430 C   0  0  0  0  0  0  0  0  0  0  0  0
  187.2000  176.5160  143.2000 C   0  0  2  0  0  3  0  0  0  0  0  0
  192.3870  176.1480  146.2720 O   0  0  0  0  0  0  0  0  0  0  0  0
  188.6820  175.9320  145.0370 C   0  0  2  0  0  3  0  0  0  0  0  0
  186.7300  178.4700  144.7280 C   0  0  0  0  0  2  0  0  0  0  0  0
  186.0570  178.9990  142.3510 N   0  0  0  0  0  2  0  0  0  0  0  0
  191.8010  176.5750  145.2430 C   0  0  0  0  0  0  0  0  0  0  0  0
  189.2960  175.1970  142.7360 C   0  0  0  0  0  0  0  0  0  0  0  0
  188.7050  177.2770  146.9550 C   0  0  0  0  0  0  0  0  0  0  0  0
  185.3050  180.3200  144.1410 N   0  0  0  0  0  2  0  0  0  0  0  0
  190.6820  177.5530  145.3910 C   0  0  0  0  0  2  0  0  0  0  0  0
  188.5610  174.0450  142.4070 C   0  0  0  0  0  3  0  0  0  0  0  0
  191.2260  174.2460  141.6020 C   0  0  0  0  0  3  0  0  0  0  0  0
  190.4770  173.1170  141.2630 C   0  0  0  0  0  3  0  0  0  0  0  0
  192.2260  176.1260  143.9560 N   0  0  0  0  0  2  0  0  0  0  0  0
  187.2390  176.0840  145.5480 C   0  0  2  0  0  3  0  0  0  0  0  0
  189.4630  176.8810  145.8260 N   0  0  0  0  0  0  0  0  0  0  0  0
  186.5260  176.9620  144.4960 C   0  0  2  0  0  3  0  0  0  0  0  0
  186.2490  177.5330  147.4670 C   0  0  0  0  0  1  0  0  0  0  0  0
  188.6650  176.2920  143.5540 C   0  0  1  0  0  3  0  0  0  0  0  0
  1  6  1  0  0  0  0
  1 16  1  0  0  0  0
  2  8  2  0  0  0  0
  4 20  1  0  0  0  0
  5 27  1  6  0  0  0
  6 23  1  0  0  0  0
  7  8  2  0  0  0  0
  8 14  1  0  0  0  0
  9 18  2  0  0  0  0
  9 13  1  0  0  0  0
 10  8  1  6  0  0  0
 10 28  1  0  0  0  0
 10 26  1  0  0  0  0
 12 24  1  0  0  0  0
 12 25  1  1  0  0  0
 14  9  1  0  0  0  0
 15 19  1  0  0  0  0
 15 11  2  0  0  0  0
 16 28  1  0  0  0  0
 17  5  1  0  0  0  0
 17  3  2  0  0  0  0
 19 25  1  0  0  0  0
 20 16  2  0  0  0  0
 21  1  2  0  0  0  0
 22 21  1  0  0  0  0
 22  4  2  0  0  0  0
 23 15  1  0  0  0  0
 24  5  1  0  0  0  0
 25 17  1  0  0  0  0
 26 13  1  0  0  0  0
 26 24  1  0  0  0  0
 28 12  1  0  0  0  0
M  END
>  <MODEL>
2

>  <REMARK>
 VINA RESULT:      -8.3      1.891      6.373
  Name = 
  0 active torsions:
  status: ('A' for Active; 'I' for Inactive)
                            x       y       z     vdW  Elec       q    Type
                         _______ _______ _______ _____ _____    ______ ____

>  <TORSDO>
F 0

$$$$
=
 OpenBabel11112417393D

 28 32  0  0  1  0  0  0  0  0999 V2000
  192.2690  174.2480  143.8840 C   0  0  0  0  0  0  0  0  0  0  0  0
  189.6700  174.5430  146.6570 O   0  0  0  0  0  0  0  0  0  0  0  0
  187.0660  176.1390  140.7870 O   0  0  0  0  0  0  0  0  0  0  0  0
  194.0750  176.2760  144.5810 C   0  0  0  0  0  3  0  0  0  0  0  0
  188.1590  177.9430  141.9890 C   0  0  2  0  0  3  0  0  0  0  0  0
  191.3560  173.1530  143.4360 C   0  0  0  0  0  2  0  0  0  0  0  0
  190.3220  176.6020  147.8270 O   0  0  0  0  0  0  0  0  0  0  0  0
  189.4520  176.0270  146.7440 S   0  0  0  0  0  0  0  0  0  0  0  0
  186.9170  176.7910  146.0800 C   0  0  0  0  0  0  0  0  0  0  0  0
  189.8650  176.8240  145.1900 C   0  0  2  0  0  3  0  0  0  0  0  0
  190.3040  173.7910  139.9870 O   0  0  0  0  0  0  0  0  0  0  0  0
  189.9780  176.5060  142.7820 C   0  0  2  0  0  3  0  0  0  0  0  0
  187.3950  176.8570  144.6680 C   0  0  0  0  0  2  0  0  0  0  0  0
  187.7950  176.3470  147.1100 N   0  0  0  0  0  2  0  0  0  0  0  0
  190.2240  173.7230  141.2410 C   0  0  0  0  0  0  0  0  0  0  0  0
  191.7880  175.5360  144.1950 C   0  0  0  0  0  0  0  0  0  0  0  0
  187.9960  176.5440  141.5330 C   0  0  0  0  0  0  0  0  0  0  0  0
  185.6700  176.9890  146.3420 N   0  0  0  0  0  2  0  0  0  0  0  0
  189.0080  174.2520  141.9270 C   0  0  0  0  0  2  0  0  0  0  0  0
  192.7050  176.5470  144.5290 C   0  0  0  0  0  3  0  0  0  0  0  0
  193.6440  173.9870  143.9340 C   0  0  0  0  0  3  0  0  0  0  0  0
  194.5430  174.9950  144.2880 C   0  0  0  0  0  3  0  0  0  0  0  0
  191.2930  173.1300  141.9810 N   0  0  0  0  0  2  0  0  0  0  0  0
  189.2150  177.8000  143.1100 C   0  0  2  0  0  3  0  0  0  0  0  0
  189.0450  175.7090  141.9920 N   0  0  0  0  0  0  0  0  0  0  0  0
  188.7250  177.6250  144.5650 C   0  0  2  0  0  3  0  0  0  0  0  0
  186.8570  178.6240  142.3880 C   0  0  0  0  0  1  0  0  0  0  0  0
  190.3160  175.8430  144.1150 C   0  0  1  0  0  3  0  0  0  0  0  0
  1 21  2  0  0  0  0
  1 16  1  0  0  0  0
  2  8  2  0  0  0  0
  3 17  2  0  0  0  0
  5 27  1  1  0  0  0
  5 24  1  0  0  0  0
  6  1  1  0  0  0  0
  8 14  1  0  0  0  0
  8  7  2  0  0  0  0
  9 18  2  0  0  0  0
  9 14  1  0  0  0  0
 10  8  1  1  0  0  0
 11 15  2  0  0  0  0
 12 25  1  6  0  0  0
 12 24  1  0  0  0  0
 12 28  1  0  0  0  0
 13  9  1  0  0  0  0
 15 19  1  0  0  0  0
 15 23  1  0  0  0  0
 16 20  2  0  0  0  0
 17  5  1  0  0  0  0
 17 25  1  0  0  0  0
 19 25  1  0  0  0  0
 20  4  1  0  0  0  0
 21 22  1  0  0  0  0
 22  4  2  0  0  0  0
 23  6  1  0  0  0  0
 24 26  1  0  0  0  0
 26 13  1  0  0  0  0
 26 10  1  0  0  0  0
 28 16  1  0  0  0  0
 28 10  1  0  0  0  0
M  END
>  <MODEL>
3

>  <REMARK>
 VINA RESULT:      -8.1      2.215      5.652
  Name = 
  0 active torsions:
  status: ('A' for Active; 'I' for Inactive)
                            x       y       z     vdW  Elec       q    Type
                         _______ _______ _______ _____ _____    ______ ____

>  <TORSDO>
F 0

$$$$
=
 OpenBabel11112417393D

 28 32  0  0  1  0  0  0  0  0999 V2000
  188.8510  175.5470  146.3360 C   0  0  0  0  0  0  0  0  0  0  0  0
  189.3160  172.2560  144.4690 O   0  0  0  0  0  0  0  0  0  0  0  0
  194.9020  175.8030  144.4490 O   0  0  0  0  0  0  0  0  0  0  0  0
  187.0070  176.8750  144.6940 C   0  0  0  0  0  3  0  0  0  0  0  0
  193.3330  176.2840  142.6600 C   0  0  2  0  0  3  0  0  0  0  0  0
  189.8400  174.9160  147.2630 C   0  0  0  0  0  2  0  0  0  0  0  0
  188.1250  172.6320  142.3550 O   0  0  0  0  0  0  0  0  0  0  0  0
  189.4590  172.7070  143.0430 S   0  0  0  0  0  0  0  0  0  0  0  0
  191.9060  172.1500  141.9710 C   0  0  0  0  0  0  0  0  0  0  0  0
  190.0530  174.3980  142.9660 C   0  0  2  0  0  3  0  0  0  0  0  0
  192.7320  177.1290  147.6380 O   0  0  0  0  0  0  0  0  0  0  0  0
  191.3790  176.0750  144.1240 C   0  0  2  0  0  3  0  0  0  0  0  0
  192.3550  173.4620  142.5210 C   0  0  0  0  0  2  0  0  0  0  0  0
  190.5840  171.6840  142.2240 N   0  0  0  0  0  2  0  0  0  0  0  0
  192.0550  176.1460  147.2410 C   0  0  0  0  0  0  0  0  0  0  0  0
  189.0720  175.6100  144.9450 C   0  0  0  0  0  0  0  0  0  0  0  0
  193.7160  175.9330  144.0460 C   0  0  0  0  0  0  0  0  0  0  0  0
  192.7600  171.3710  141.3980 N   0  0  0  0  0  2  0  0  0  0  0  0
  192.6390  175.2170  146.2280 C   0  0  0  0  0  2  0  0  0  0  0  0
  188.1470  176.2910  144.1350 C   0  0  0  0  0  3  0  0  0  0  0  0
  187.7090  176.1400  146.8880 C   0  0  0  0  0  3  0  0  0  0  0  0
  186.7870  176.7950  146.0690 C   0  0  0  0  0  3  0  0  0  0  0  0
  190.7490  175.9300  147.7770 N   0  0  0  0  0  2  0  0  0  0  0  0
  191.8170  175.9760  142.6520 C   0  0  2  0  0  3  0  0  0  0  0  0
  192.5890  175.8090  144.8950 N   0  0  0  0  0  0  0  0  0  0  0  0
  191.3520  174.5800  142.1830 C   0  0  2  0  0  3  0  0  0  0  0  0
  194.1570  175.5830  141.5890 C   0  0  0  0  0  1  0  0  0  0  0  0
  190.3110  175.0060  144.3380 C   0  0  1  0  0  3  0  0  0  0  0  0
  1 21  1  0  0  0  0
  1  6  1  0  0  0  0
  4 22  1  0  0  0  0
  5 27  1  6  0  0  0
  5 17  1  0  0  0  0
  6 23  1  0  0  0  0
  7  8  2  0  0  0  0
  8  2  2  0  0  0  0
  9 14  1  0  0  0  0
  9 13  1  0  0  0  0
 10  8  1  1  0  0  0
 10 28  1  0  0  0  0
 12 28  1  0  0  0  0
 12 25  1  1  0  0  0
 14  8  1  0  0  0  0
 15 11  2  0  0  0  0
 15 23  1  0  0  0  0
 16  1  2  0  0  0  0
 17  3  2  0  0  0  0
 17 25  1  0  0  0  0
 18  9  2  0  0  0  0
 19 15  1  0  0  0  0
 20  4  2  0  0  0  0
 20 16  1  0  0  0  0
 22 21  2  0  0  0  0
 24  5  1  0  0  0  0
 24 12  1  0  0  0  0
 25 19  1  0  0  0  0
 26 13  1  0  0  0  0
 26 24  1  0  0  0  0
 26 10  1  0  0  0  0
 28 16  1  0  0  0  0
M  END
>  <MODEL>
4

>  <REMARK>
 VINA RESULT:      -7.7      3.206      5.566
  Name = 
  0 active torsions:
  status: ('A' for Active; 'I' for Inactive)
                            x       y       z     vdW  Elec       q    Type
                         _______ _______ _______ _____ _____    ______ ____

>  <TORSDO>
F 0

$$$$
=
 OpenBabel11112417393D

 28 32  0  0  1  0  0  0  0  0999 V2000
  185.9410  176.8470  143.2980 C   0  0  0  0  0  0  0  0  0  0  0  0
  187.4910  173.4950  142.3490 O   0  0  0  0  0  0  0  0  0  0  0  0
  191.1250  176.5710  146.9440 O   0  0  0  0  0  0  0  0  0  0  0  0
  186.2090  178.2910  140.9100 C   0  0  0  0  0  3  0  0  0  0  0  0
  191.6210  177.1470  144.6380 C   0  0  2  0  0  3  0  0  0  0  0  0
  185.7660  176.1530  144.6100 C   0  0  0  0  0  2  0  0  0  0  0  0
  188.4670  173.9280  140.1380 O   0  0  0  0  0  0  0  0  0  0  0  0
  188.7360  173.9060  141.6160 S   0  0  0  0  0  0  0  0  0  0  0  0
  191.0350  173.1310  142.8670 C   0  0  0  0  0  0  0  0  0  0  0  0
  189.2660  175.5420  142.1300 C   0  0  2  0  0  3  0  0  0  0  0  0
  187.3670  178.1290  147.2450 O   0  0  0  0  0  0  0  0  0  0  0  0
  189.2620  177.1250  143.9740 C   0  0  2  0  0  3  0  0  0  0  0  0
  190.9560  174.4120  143.6280 C   0  0  0  0  0  2  0  0  0  0  0  0
  190.0020  172.7800  141.9510 N   0  0  0  0  0  2  0  0  0  0  0  0
  187.2080  177.1970  146.4150 C   0  0  0  0  0  0  0  0  0  0  0  0
  187.1810  176.8650  142.6270 C   0  0  0  0  0  0  0  0  0  0  0  0
  190.7320  176.7910  145.7670 C   0  0  0  0  0  0  0  0  0  0  0  0
  191.9570  172.2750  143.1500 N   0  0  0  0  0  2  0  0  0  0  0  0
  188.3040  176.2050  146.2080 C   0  0  0  0  0  2  0  0  0  0  0  0
  187.3050  177.6050  141.4390 C   0  0  0  0  0  3  0  0  0  0  0  0
  184.8490  177.5410  142.7630 C   0  0  0  0  0  3  0  0  0  0  0  0
  184.9800  178.2550  141.5700 C   0  0  0  0  0  3  0  0  0  0  0  0
  185.9760  177.0990  145.6970 N   0  0  0  0  0  2  0  0  0  0  0  0
  190.6870  176.9640  143.4180 C   0  0  2  0  0  3  0  0  0  0  0  0
  189.3680  176.7750  145.3880 N   0  0  0  0  0  0  0  0  0  0  0  0
  190.6860  175.6020  142.6890 C   0  0  2  0  0  3  0  0  0  0  0  0
  192.9240  176.3610  144.5980 C   0  0  0  0  0  1  0  0  0  0  0  0
  188.3750  176.1510  143.2040 C   0  0  1  0  0  3  0  0  0  0  0  0
  1  6  1  0  0  0  0
  4 20  2  0  0  0  0
  4 22  1  0  0  0  0
  5 27  1  6  0  0  0
  5 17  1  0  0  0  0
  6 23  1  0  0  0  0
  7  8  2  0  0  0  0
  8 14  1  0  0  0  0
  8  2  2  0  0  0  0
  9 18  2  0  0  0  0
  9 13  1  0  0  0  0
 10  8  1  1  0  0  0
 10 26  1  0  0  0  0
 10 28  1  0  0  0  0
 12 25  1  1  0  0  0
 14  9  1  0  0  0  0
 15 11  2  0  0  0  0
 16 28  1  0  0  0  0
 16  1  2  0  0  0  0
 17  3  2  0  0  0  0
 19 15  1  0  0  0  0
 20 16  1  0  0  0  0
 21  1  1  0  0  0  0
 22 21  2  0  0  0  0
 23 15  1  0  0  0  0
 24 12  1  0  0  0  0
 24  5  1  0  0  0  0
 25 17  1  0  0  0  0
 25 19  1  0  0  0  0
 26 24  1  0  0  0  0
 26 13  1  0  0  0  0
 28 12  1  0  0  0  0
M  END
>  <MODEL>
5

>  <REMARK>
 VINA RESULT:      -7.6      2.456      4.714
  Name = 
  0 active torsions:
  status: ('A' for Active; 'I' for Inactive)
                            x       y       z     vdW  Elec       q    Type
                         _______ _______ _______ _____ _____    ______ ____

>  <TORSDO>
F 0

$$$$
=
 OpenBabel11112417393D

 28 32  0  0  1  0  0  0  0  0999 V2000
  188.6170  176.2260  145.1770 C   0  0  0  0  0  0  0  0  0  0  0  0
  189.6080  173.0200  143.3670 O   0  0  0  0  0  0  0  0  0  0  0  0
  194.7930  175.6650  146.5130 O   0  0  0  0  0  0  0  0  0  0  0  0
  187.9850  177.9160  143.0320 C   0  0  0  0  0  3  0  0  0  0  0  0
  194.3830  176.4870  144.2650 C   0  0  2  0  0  3  0  0  0  0  0  0
  188.9420  175.3960  146.3780 C   0  0  0  0  0  2  0  0  0  0  0  0
  189.6740  173.6990  141.0080 O   0  0  0  0  0  0  0  0  0  0  0  0
  190.4870  173.5280  142.2600 S   0  0  0  0  0  0  0  0  0  0  0  0
  193.0710  172.6680  142.4490 C   0  0  0  0  0  0  0  0  0  0  0  0
  191.2110  175.1100  142.6980 C   0  0  2  0  0  3  0  0  0  0  0  0
  191.4740  177.1150  148.3880 O   0  0  0  0  0  0  0  0  0  0  0  0
  191.9500  176.4920  144.5560 C   0  0  2  0  0  3  0  0  0  0  0  0
  193.3190  173.8610  143.3100 C   0  0  0  0  0  2  0  0  0  0  0  0
  191.7590  172.3960  141.9670 N   0  0  0  0  0  2  0  0  0  0  0  0
  190.9870  176.2720  147.5900 C   0  0  0  0  0  0  0  0  0  0  0  0
  189.5070  176.3370  144.0890 C   0  0  0  0  0  0  0  0  0  0  0  0
  193.9860  175.9990  145.6050 C   0  0  0  0  0  0  0  0  0  0  0  0
  194.0110  171.8040  142.2680 N   0  0  0  0  0  2  0  0  0  0  0  0
  191.8980  175.3270  146.8780 C   0  0  0  0  0  2  0  0  0  0  0  0
  189.1840  177.1990  143.0270 C   0  0  0  0  0  3  0  0  0  0  0  0
  187.4200  176.9520  145.1760 C   0  0  0  0  0  3  0  0  0  0  0  0
  187.1010  177.7890  144.1040 C   0  0  0  0  0  3  0  0  0  0  0  0
  189.5730  176.2270  147.3930 N   0  0  0  0  0  2  0  0  0  0  0  0
  193.0490  176.4160  143.4840 C   0  0  2  0  0  3  0  0  0  0  0  0
  192.5800  175.9980  145.7770 N   0  0  0  0  0  0  0  0  0  0  0  0
  192.7380  175.1380  142.6740 C   0  0  2  0  0  3  0  0  0  0  0  0
  195.5530  175.7330  143.6490 C   0  0  0  0  0  1  0  0  0  0  0  0
  190.8130  175.5880  144.0880 C   0  0  1  0  0  3  0  0  0  0  0  0
  1  6  1  0  0  0  0
  4 22  1  0  0  0  0
  5 27  1  6  0  0  0
  5 17  1  0  0  0  0
  6 23  1  0  0  0  0
  7  8  2  0  0  0  0
  8  2  2  0  0  0  0
  9 13  1  0  0  0  0
 10  8  1  1  0  0  0
 10 28  1  0  0  0  0
 12 25  1  1  0  0  0
 14  8  1  0  0  0  0
 14  9  1  0  0  0  0
 15 11  2  0  0  0  0
 16  1  2  0  0  0  0
 17 25  1  0  0  0  0
 17  3  2  0  0  0  0
 18  9  2  0  0  0  0
 19 15  1  0  0  0  0
 20  4  2  0  0  0  0
 20 16  1  0  0  0  0
 21  1  1  0  0  0  0
 22 21  2  0  0  0  0
 23 15  1  0  0  0  0
 24  5  1  0  0  0  0
 24 12  1  0  0  0  0
 25 19  1  0  0  0  0
 26 10  1  0  0  0  0
 26 13  1  0  0  0  0
 26 24  1  0  0  0  0
 28 16  1  0  0  0  0
 28 12  1  0  0  0  0
M  END
>  <MODEL>
6

>  <REMARK>
 VINA RESULT:      -7.4      3.139      5.768
  Name = 
  0 active torsions:
  status: ('A' for Active; 'I' for Inactive)
                            x       y       z     vdW  Elec       q    Type
                         _______ _______ _______ _____ _____    ______ ____

>  <TORSDO>
F 0

$$$$
=
 OpenBabel11112417393D

 28 32  0  0  1  0  0  0  0  0999 V2000
  191.4780  174.9860  144.9960 C   0  0  0  0  0  0  0  0  0  0  0  0
  189.8760  177.1230  142.2750 O   0  0  0  0  0  0  0  0  0  0  0  0
  187.5570  178.7620  148.2520 O   0  0  0  0  0  0  0  0  0  0  0  0
  190.4810  172.4400  144.3770 C   0  0  0  0  0  3  0  0  0  0  0  0
  186.4030  176.9460  147.1270 C   0  0  2  0  0  3  0  0  0  0  0  0
  192.0480  176.3070  145.4000 C   0  0  0  0  0  2  0  0  0  0  0  0
  188.2950  175.5800  141.2020 O   0  0  0  0  0  0  0  0  0  0  0  0
  188.4560  176.6290  142.2650 S   0  0  0  0  0  0  0  0  0  0  0  0
  186.6430  178.5320  143.0000 C   0  0  0  0  0  0  0  0  0  0  0  0
  188.0200  175.9130  143.8520 C   0  0  2  0  0  3  0  0  0  0  0  0
  191.1720  176.9850  148.8900 O   0  0  0  0  0  0  0  0  0  0  0  0
  188.4760  175.9870  146.2390 C   0  0  2  0  0  3  0  0  0  0  0  0
  186.8760  178.0940  144.4070 C   0  0  0  0  0  2  0  0  0  0  0  0
  187.3890  177.9470  141.9380 N   0  0  0  0  0  2  0  0  0  0  0  0
  191.1310  177.0720  147.6360 C   0  0  0  0  0  0  0  0  0  0  0  0
  190.0990  174.8140  144.7560 C   0  0  0  0  0  0  0  0  0  0  0  0
  187.5890  177.7420  147.5140 C   0  0  0  0  0  0  0  0  0  0  0  0
  185.8780  179.5440  142.7640 N   0  0  0  0  0  2  0  0  0  0  0  0
  190.0670  177.8980  146.9930 C   0  0  0  0  0  2  0  0  0  0  0  0
  189.6110  173.5300  144.4610 C   0  0  0  0  0  3  0  0  0  0  0  0
  192.3420  173.8870  144.9140 C   0  0  0  0  0  3  0  0  0  0  0  0
  191.8460  172.6200  144.6000 C   0  0  0  0  0  3  0  0  0  0  0  0
  192.1120  176.3900  146.8530 N   0  0  0  0  0  2  0  0  0  0  0  0
  186.9600  176.0620  145.9860 C   0  0  2  0  0  3  0  0  0  0  0  0
  188.7900  177.1920  147.0010 N   0  0  0  0  0  0  0  0  0  0  0  0
  186.8160  176.5610  144.5310 C   0  0  2  0  0  3  0  0  0  0  0  0
  185.1780  177.7810  146.7800 C   0  0  0  0  0  1  0  0  0  0  0  0
  189.1510  175.9780  144.8700 C   0  0  1  0  0  3  0  0  0  0  0  0
  1  6  1  0  0  0  0
  4 20  2  0  0  0  0
  4 22  1  0  0  0  0
  5 27  1  6  0  0  0
  5 17  1  0  0  0  0
  6 23  1  0  0  0  0
  7  8  2  0  0  0  0
  8  2  2  0  0  0  0
  9 13  1  0  0  0  0
 10  8  1  6  0  0  0
 10 26  1  0  0  0  0
 10 28  1  0  0  0  0
 12 25  1  1  0  0  0
 13 26  1  0  0  0  0
 14  8  1  0  0  0  0
 14  9  1  0  0  0  0
 15 11  2  0  0  0  0
 16 28  1  0  0  0  0
 16  1  2  0  0  0  0
 17  3  2  0  0  0  0
 18  9  2  0  0  0  0
 19 25  1  0  0  0  0
 19 15  1  0  0  0  0
 20 16  1  0  0  0  0
 21  1  1  0  0  0  0
 22 21  2  0  0  0  0
 23 15  1  0  0  0  0
 24 12  1  0  0  0  0
 24  5  1  0  0  0  0
 25 17  1  0  0  0  0
 26 24  1  0  0  0  0
 28 12  1  0  0  0  0
M  END
>  <MODEL>
7

>  <REMARK>
 VINA RESULT:      -7.4      2.345      6.509
  Name = 
  0 active torsions:
  status: ('A' for Active; 'I' for Inactive)
                            x       y       z     vdW  Elec       q    Type
                         _______ _______ _______ _____ _____    ______ ____

>  <TORSDO>
F 0

$$$$
=
 OpenBabel11112417393D

 28 32  0  0  1  0  0  0  0  0999 V2000
  188.0660  177.4960  144.6390 C   0  0  0  0  0  0  0  0  0  0  0  0
  191.6750  177.5960  145.8620 O   0  0  0  0  0  0  0  0  0  0  0  0
  190.7920  172.7140  141.4850 O   0  0  0  0  0  0  0  0  0  0  0  0
  186.6940  176.7850  146.9770 C   0  0  0  0  0  3  0  0  0  0  0  0
  190.3070  172.1650  143.8000 C   0  0  2  0  0  3  0  0  0  0  0  0
  188.7180  177.8680  143.3460 C   0  0  0  0  0  2  0  0  0  0  0  0
  191.5290  176.6690  148.1320 O   0  0  0  0  0  0  0  0  0  0  0  0
  191.7760  176.3440  146.6860 S   0  0  0  0  0  0  0  0  0  0  0  0
  193.5470  174.5260  145.6800 C   0  0  0  0  0  0  0  0  0  0  0  0
  190.5650  175.1320  146.1530 C   0  0  2  0  0  3  0  0  0  0  0  0
  187.8160  175.4130  140.7840 O   0  0  0  0  0  0  0  0  0  0  0  0
  189.2750  174.3410  144.2500 C   0  0  2  0  0  3  0  0  0  0  0  0
  192.4150  174.0000  144.8610 C   0  0  0  0  0  2  0  0  0  0  0  0
  193.3550  175.6650  146.5130 N   0  0  0  0  0  2  0  0  0  0  0  0
  188.5260  176.0090  141.6350 C   0  0  0  0  0  0  0  0  0  0  0  0
  188.5240  176.4120  145.4160 C   0  0  0  0  0  0  0  0  0  0  0  0
  190.3380  173.0470  142.6110 C   0  0  0  0  0  0  0  0  0  0  0  0
  194.7320  174.0450  145.5160 N   0  0  0  0  0  2  0  0  0  0  0  0
  189.8700  175.4590  141.9810 C   0  0  0  0  0  2  0  0  0  0  0  0
  187.8180  176.0580  146.5780 C   0  0  0  0  0  3  0  0  0  0  0  0
  186.9360  178.2160  145.0440 C   0  0  0  0  0  3  0  0  0  0  0  0
  186.2560  177.8660  146.2120 C   0  0  0  0  0  3  0  0  0  0  0  0
  188.0370  177.2050  142.2430 N   0  0  0  0  0  2  0  0  0  0  0  0
  189.9830  173.1610  144.9380 C   0  0  2  0  0  3  0  0  0  0  0  0
  189.7440  174.3080  142.8680 N   0  0  0  0  0  0  0  0  0  0  0  0
  191.1550  173.7920  145.7210 C   0  0  2  0  0  3  0  0  0  0  0  0
  191.5660  171.3300  143.9890 C   0  0  0  0  0  1  0  0  0  0  0  0
  189.7190  175.6070  144.9790 C   0  0  1  0  0  3  0  0  0  0  0  0
  1 21  2  0  0  0  0
  1 16  1  0  0  0  0
  2  8  2  0  0  0  0
  3 17  2  0  0  0  0
  5 27  1  1  0  0  0
  5 24  1  0  0  0  0
  6  1  1  0  0  0  0
  8  7  2  0  0  0  0
  9 14  1  0  0  0  0
 10  8  1  6  0  0  0
 11 15  2  0  0  0  0
 12 25  1  6  0  0  0
 12 24  1  0  0  0  0
 12 28  1  0  0  0  0
 13  9  1  0  0  0  0
 13 26  1  0  0  0  0
 14  8  1  0  0  0  0
 15 19  1  0  0  0  0
 15 23  1  0  0  0  0
 16 20  2  0  0  0  0
 17 25  1  0  0  0  0
 17  5  1  0  0  0  0
 18  9  2  0  0  0  0
 19 25  1  0  0  0  0
 20  4  1  0  0  0  0
 21 22  1  0  0  0  0
 22  4  2  0  0  0  0
 23  6  1  0  0  0  0
 24 26  1  0  0  0  0
 26 10  1  0  0  0  0
 28 16  1  0  0  0  0
 28 10  1  0  0  0  0
M  END
>  <MODEL>
8

>  <REMARK>
 VINA RESULT:      -7.4      2.274      2.852
  Name = 
  0 active torsions:
  status: ('A' for Active; 'I' for Inactive)
                            x       y       z     vdW  Elec       q    Type
                         _______ _______ _______ _____ _____    ______ ____

>  <TORSDO>
F 0

$$$$
=
 OpenBabel11112417393D

 28 32  0  0  1  0  0  0  0  0999 V2000
  188.7880  176.5930  145.3750 C   0  0  0  0  0  0  0  0  0  0  0  0
  192.3690  176.7080  144.0740 O   0  0  0  0  0  0  0  0  0  0  0  0
  188.1920  174.7150  139.3450 O   0  0  0  0  0  0  0  0  0  0  0  0
  188.9420  174.5410  147.2790 C   0  0  0  0  0  3  0  0  0  0  0  0
  189.0610  172.9730  140.7960 C   0  0  2  0  0  3  0  0  0  0  0  0
  188.6150  177.6900  144.3750 C   0  0  0  0  0  2  0  0  0  0  0  0
  193.4090  174.7350  145.1030 O   0  0  0  0  0  0  0  0  0  0  0  0
  192.6960  175.2530  143.8860 S   0  0  0  0  0  0  0  0  0  0  0  0
  193.1610  174.5740  141.2830 C   0  0  0  0  0  0  0  0  0  0  0  0
  191.2010  174.2910  143.6420 C   0  0  2  0  0  3  0  0  0  0  0  0
  185.9420  176.7900  142.0410 O   0  0  0  0  0  0  0  0  0  0  0  0
  188.9210  174.3740  142.8020 C   0  0  2  0  0  3  0  0  0  0  0  0
  191.6900  174.3490  141.1650 C   0  0  0  0  0  2  0  0  0  0  0  0
  193.7120  175.0630  142.5020 N   0  0  0  0  0  2  0  0  0  0  0  0
  187.1120  176.9800  142.4620 C   0  0  0  0  0  0  0  0  0  0  0  0
  189.4000  175.3690  145.0360 C   0  0  0  0  0  0  0  0  0  0  0  0
  188.5560  174.3300  140.4880 C   0  0  0  0  0  0  0  0  0  0  0  0
  193.9090  174.4730  140.2380 N   0  0  0  0  0  2  0  0  0  0  0  0
  188.2710  176.5880  141.6070 C   0  0  0  0  0  2  0  0  0  0  0  0
  189.4580  174.3440  145.9960 C   0  0  0  0  0  3  0  0  0  0  0  0
  188.2690  176.7800  146.6620 C   0  0  0  0  0  3  0  0  0  0  0  0
  188.3520  175.7600  147.6130 C   0  0  0  0  0  3  0  0  0  0  0  0
  187.3070  177.5790  143.7450 N   0  0  0  0  0  2  0  0  0  0  0  0
  189.6590  173.1610  142.2110 C   0  0  2  0  0  3  0  0  0  0  0  0
  188.4750  175.1440  141.6440 N   0  0  0  0  0  0  0  0  0  0  0  0
  191.1610  173.5000  142.3360 C   0  0  2  0  0  3  0  0  0  0  0  0
  190.0080  172.4070  139.7470 C   0  0  0  0  0  1  0  0  0  0  0  0
  189.9350  175.1390  143.6470 C   0  0  1  0  0  3  0  0  0  0  0  0
  1 21  1  0  0  0  0
  3 17  2  0  0  0  0
  4 22  1  0  0  0  0
  5 27  1  6  0  0  0
  5 24  1  0  0  0  0
  6  1  1  0  0  0  0
  8  2  2  0  0  0  0
  8  7  2  0  0  0  0
  9 14  1  0  0  0  0
 10 28  1  0  0  0  0
 10  8  1  6  0  0  0
 11 15  2  0  0  0  0
 12 25  1  6  0  0  0
 12 28  1  0  0  0  0
 13  9  1  0  0  0  0
 13 26  1  0  0  0  0
 14  8  1  0  0  0  0
 15 23  1  0  0  0  0
 16  1  2  0  0  0  0
 16 20  1  0  0  0  0
 17  5  1  0  0  0  0
 17 25  1  0  0  0  0
 18  9  2  0  0  0  0
 19 25  1  0  0  0  0
 19 15  1  0  0  0  0
 20  4  2  0  0  0  0
 21 22  2  0  0  0  0
 23  6  1  0  0  0  0
 24 26  1  0  0  0  0
 24 12  1  0  0  0  0
 26 10  1  0  0  0  0
 28 16  1  0  0  0  0
M  END
>  <MODEL>
9

>  <REMARK>
 VINA RESULT:      -7.4      2.085      2.700
  Name = 
  0 active torsions:
  status: ('A' for Active; 'I' for Inactive)
                            x       y       z     vdW  Elec       q    Type
                         _______ _______ _______ _____ _____    ______ ____

>  <TORSDO>
F 0

$$$$
