=
 OpenBabel11112416483D

 31 35  0  0  1  0  0  0  0  0999 V2000
  191.1410  171.3170  143.0360 C   0  0  0  0  0  0  0  0  0  0  0  0
  190.9370  174.1180  145.5360 N   0  0  0  0  0  0  0  0  0  0  0  0
  192.2640  174.6430  145.7830 C   0  0  0  0  0  0  0  0  0  0  0  0
  194.6700  174.6250  145.4180 C   0  0  0  0  0  0  0  0  0  0  0  0
  190.6730  173.2660  144.4020 C   0  0  0  0  0  0  0  0  0  0  0  0
  190.0840  171.6550  142.1860 C   0  0  0  0  0  3  0  0  0  0  0  0
  193.4100  174.0520  145.2260 C   0  0  0  0  0  3  0  0  0  0  0  0
  189.1210  175.6130  144.9050 C   0  0  2  0  0  3  0  0  0  0  0  0
  191.9200  170.1560  142.7750 N   0  0  0  0  0  1  0  0  0  0  0  0
  191.2850  176.4230  147.0990 O   0  0  0  0  0  0  0  0  0  0  0  0
  196.0860  173.8730  144.7170 Cl  0  0  0  0  0  0  0  0  0  0  0  0
  188.8160  174.7250  143.8240 O   0  0  0  0  0  0  0  0  0  0  0  0
  189.7570  174.8280  146.0560 C   0  0  2  0  0  3  0  0  0  0  0  0
  191.4340  172.1170  144.1440 C   0  0  0  0  0  3  0  0  0  0  0  0
  194.7970  175.8050  146.1540 C   0  0  0  0  0  3  0  0  0  0  0  0
  189.6030  173.5980  143.5480 C   0  0  0  0  0  0  0  0  0  0  0  0
  189.3140  172.7930  142.4430 C   0  0  0  0  0  3  0  0  0  0  0  0
  190.0800  175.6890  147.2830 C   0  0  0  0  0  2  0  0  0  0  0  0
  192.4070  175.8220  146.5380 C   0  0  0  0  0  0  0  0  0  0  0  0
  193.6660  176.4040  146.7120 C   0  0  0  0  0  3  0  0  0  0  0  0
  187.8620  176.3470  145.3420 C   0  0  0  0  0  2  0  0  0  0  0  0
  188.8540  177.8920  143.8080 O   0  0  0  0  0  1  0  0  0  0  0  0
  187.6790  177.6070  144.5040 C   0  0  1  0  0  3  0  0  0  0  0  0
  184.6840  178.1090  141.5500 C   0  0  0  0  0  0  0  0  0  0  0  0
  186.8520  177.0400  142.2000 C   0  0  0  0  0  2  0  0  0  0  0  0
  184.8530  177.9500  145.1030 O   0  0  0  0  0  0  0  0  0  0  0  0
  183.7090  178.3660  140.4600 C   0  0  0  0  0  1  0  0  0  0  0  0
  186.1480  177.9750  141.2160 C   0  0  0  0  0  2  0  0  0  0  0  0
  185.2150  177.8260  143.9040 C   0  0  0  0  0  0  0  0  0  0  0  0
  186.5640  177.4550  143.5710 N   0  0  0  0  0  0  0  0  0  0  0  0
  184.2600  178.0820  142.8170 C   0  0  0  0  0  3  0  0  0  0  0  0
  1 14  1  0  0  0  0
  2  3  1  0  0  0  0
  2 13  1  0  0  0  0
  3 19  1  0  0  0  0
  4 15  2  0  0  0  0
  5  2  1  0  0  0  0
  6 17  1  0  0  0  0
  6  1  2  0  0  0  0
  7  4  1  0  0  0  0
  7  3  2  0  0  0  0
  8 21  1  1  0  0  0
  8 13  1  0  0  0  0
  9  1  1  0  0  0  0
 10 18  1  0  0  0  0
 11  4  1  0  0  0  0
 12  8  1  0  0  0  0
 13 18  1  1  0  0  0
 14  5  2  0  0  0  0
 15 20  1  0  0  0  0
 16 12  1  0  0  0  0
 16  5  1  0  0  0  0
 17 16  2  0  0  0  0
 19 20  2  0  0  0  0
 19 10  1  0  0  0  0
 23 22  1  6  0  0  0
 23 21  1  0  0  0  0
 24 31  2  0  0  0  0
 25 30  1  0  0  0  0
 27 24  1  0  0  0  0
 28 24  1  0  0  0  0
 28 25  1  0  0  0  0
 29 26  2  0  0  0  0
 30 29  1  0  0  0  0
 30 23  1  0  0  0  0
 31 29  1  0  0  0  0
M  END
>  <MODEL>
1

>  <REMARK>
 VINA RESULT:      -8.1      0.000      0.000
  Name = 
  3 active torsions:
  status: ('A' for Active; 'I' for Inactive)
    1  A    between atoms: C_5  and  C_16
    2  A    between atoms: C_5  and  N_30
    3  A    between atoms: C_10  and  C_16
                            x       y       z     vdW  Elec       q    Type
                         _______ _______ _______ _____ _____    ______ ____

>  <TORSDO>
F 3

$$$$
=
 OpenBabel11112416483D

 31 35  0  0  1  0  0  0  0  0999 V2000
  187.5480  176.8340  140.9700 C   0  0  0  0  0  0  0  0  0  0  0  0
  187.8530  177.4620  144.6640 N   0  0  0  0  0  0  0  0  0  0  0  0
  186.5910  177.9550  145.1770 C   0  0  0  0  0  0  0  0  0  0  0  0
  184.2790  178.6460  144.8570 C   0  0  0  0  0  0  0  0  0  0  0  0
  187.9370  176.8430  143.3640 C   0  0  0  0  0  0  0  0  0  0  0  0
  188.1550  175.5780  140.8720 C   0  0  0  0  0  3  0  0  0  0  0  0
  185.5100  178.2450  144.3290 C   0  0  0  0  0  3  0  0  0  0  0  0
  188.9390  175.5470  145.7070 C   0  0  2  0  0  3  0  0  0  0  0  0
  187.0380  177.4690  139.8040 N   0  0  0  0  0  1  0  0  0  0  0  0
  187.4730  177.7940  147.4250 O   0  0  0  0  0  0  0  0  0  0  0  0
  182.9440  179.0040  143.7840 Cl  0  0  0  0  0  0  0  0  0  0  0  0
  189.0860  174.9690  144.4050 O   0  0  0  0  0  0  0  0  0  0  0  0
  188.9240  177.0740  145.5960 C   0  0  2  0  0  3  0  0  0  0  0  0
  187.4420  177.4680  142.2110 C   0  0  0  0  0  3  0  0  0  0  0  0
  184.1120  178.7450  146.2400 C   0  0  0  0  0  3  0  0  0  0  0  0
  188.5560  175.5810  143.2600 C   0  0  0  0  0  0  0  0  0  0  0  0
  188.6600  174.9530  142.0160 C   0  0  0  0  0  3  0  0  0  0  0  0
  188.8140  177.7870  146.9500 C   0  0  0  0  0  2  0  0  0  0  0  0
  186.4150  178.0760  146.5670 C   0  0  0  0  0  0  0  0  0  0  0  0
  185.1780  178.4580  147.0950 C   0  0  0  0  0  3  0  0  0  0  0  0
  190.0490  175.0510  146.6210 C   0  0  0  0  0  2  0  0  0  0  0  0
  191.7240  176.1810  147.9020 O   0  0  0  0  0  1  0  0  0  0  0  0
  191.2070  176.0420  146.6140 C   0  0  1  0  0  3  0  0  0  0  0  0
  194.8400  175.3310  144.5530 C   0  0  0  0  0  0  0  0  0  0  0  0
  193.0340  174.4200  146.0270 C   0  0  0  0  0  2  0  0  0  0  0  0
  191.8890  177.2620  144.0620 O   0  0  0  0  0  0  0  0  0  0  0  0
  196.1710  175.0970  143.9380 C   0  0  0  0  0  1  0  0  0  0  0  0
  194.5280  174.7190  145.8950 C   0  0  0  0  0  2  0  0  0  0  0  0
  192.6500  176.3830  144.5440 C   0  0  0  0  0  0  0  0  0  0  0  0
  192.2570  175.6110  145.6930 N   0  0  0  0  0  0  0  0  0  0  0  0
  193.9710  176.1460  143.9470 C   0  0  0  0  0  3  0  0  0  0  0  0
  1 14  1  0  0  0  0
  2  3  1  0  0  0  0
  2 13  1  0  0  0  0
  3 19  1  0  0  0  0
  4 15  2  0  0  0  0
  5  2  1  0  0  0  0
  6  1  2  0  0  0  0
  6 17  1  0  0  0  0
  7  4  1  0  0  0  0
  7  3  2  0  0  0  0
  8 21  1  1  0  0  0
  9  1  1  0  0  0  0
 11  4  1  0  0  0  0
 12  8  1  0  0  0  0
 13  8  1  0  0  0  0
 13 18  1  1  0  0  0
 14  5  2  0  0  0  0
 15 20  1  0  0  0  0
 16  5  1  0  0  0  0
 16 12  1  0  0  0  0
 17 16  2  0  0  0  0
 18 10  1  0  0  0  0
 19 20  2  0  0  0  0
 19 10  1  0  0  0  0
 23 21  1  0  0  0  0
 23 22  1  1  0  0  0
 24 28  1  0  0  0  0
 26 29  2  0  0  0  0
 27 24  1  0  0  0  0
 28 25  1  0  0  0  0
 29 30  1  0  0  0  0
 30 25  1  0  0  0  0
 30 23  1  0  0  0  0
 31 29  1  0  0  0  0
 31 24  2  0  0  0  0
M  END
>  <MODEL>
2

>  <REMARK>
 VINA RESULT:      -8.1      3.498      7.490
  Name = 
  3 active torsions:
  status: ('A' for Active; 'I' for Inactive)
    1  A    between atoms: C_5  and  C_16
    2  A    between atoms: C_5  and  N_30
    3  A    between atoms: C_10  and  C_16
                            x       y       z     vdW  Elec       q    Type
                         _______ _______ _______ _____ _____    ______ ____

>  <TORSDO>
F 3

$$$$
=
 OpenBabel11112416483D

 31 35  0  0  1  0  0  0  0  0999 V2000
  185.4390  177.6530  146.4770 C   0  0  0  0  0  0  0  0  0  0  0  0
  187.4890  176.0570  143.7610 N   0  0  0  0  0  0  0  0  0  0  0  0
  186.9950  176.4820  142.4680 C   0  0  0  0  0  0  0  0  0  0  0  0
  185.4300  177.7330  141.0860 C   0  0  0  0  0  0  0  0  0  0  0  0
  187.1080  176.7470  144.9680 C   0  0  0  0  0  0  0  0  0  0  0  0
  186.4500  178.0830  147.3420 C   0  0  0  0  0  3  0  0  0  0  0  0
  185.8410  177.2720  142.3400 C   0  0  0  0  0  3  0  0  0  0  0  0
  189.8510  176.2870  144.3100 C   0  0  2  0  0  3  0  0  0  0  0  0
  184.0750  177.8960  146.8020 N   0  0  0  0  0  1  0  0  0  0  0  0
  188.8760  175.3800  141.4160 O   0  0  0  0  0  0  0  0  0  0  0  0
  183.9880  178.7150  140.9470 Cl  0  0  0  0  0  0  0  0  0  0  0  0
  189.4650  176.9070  145.5430 O   0  0  0  0  0  0  0  0  0  0  0  0
  188.7580  175.3160  143.8550 C   0  0  2  0  0  3  0  0  0  0  0  0
  185.7650  176.9830  145.2950 C   0  0  0  0  0  3  0  0  0  0  0  0
  186.1780  177.4240  139.9490 C   0  0  0  0  0  3  0  0  0  0  0  0
  188.1230  177.1740  145.8470 C   0  0  0  0  0  0  0  0  0  0  0  0
  187.7900  177.8420  147.0290 C   0  0  0  0  0  3  0  0  0  0  0  0
  189.1010  174.5670  142.5610 C   0  0  0  0  0  2  0  0  0  0  0  0
  187.7300  176.1620  141.3120 C   0  0  0  0  0  0  0  0  0  0  0  0
  187.3290  176.6410  140.0610 C   0  0  0  0  0  3  0  0  0  0  0  0
  191.1960  175.5960  144.4790 C   0  0  0  0  0  2  0  0  0  0  0  0
  192.0240  177.7950  144.0320 O   0  0  0  0  0  1  0  0  0  0  0  0
  192.2960  176.4400  143.8460 C   0  0  1  0  0  3  0  0  0  0  0  0
  195.7040  174.5360  145.4920 C   0  0  0  0  0  0  0  0  0  0  0  0
  194.6580  175.6530  143.5110 C   0  0  0  0  0  2  0  0  0  0  0  0
  193.0900  176.6660  146.6360 O   0  0  0  0  0  0  0  0  0  0  0  0
  196.8640  173.7660  146.0090 C   0  0  0  0  0  1  0  0  0  0  0  0
  195.2900  174.3690  144.0520 C   0  0  0  0  0  2  0  0  0  0  0  0
  193.8480  176.0680  145.8290 C   0  0  0  0  0  0  0  0  0  0  0  0
  193.6010  176.1050  144.4120 N   0  0  0  0  0  0  0  0  0  0  0  0
  194.9960  175.3000  146.3290 C   0  0  0  0  0  3  0  0  0  0  0  0
  1  9  1  0  0  0  0
  1  6  1  0  0  0  0
  2 13  1  0  0  0  0
  2  5  1  0  0  0  0
  3  2  1  0  0  0  0
  4  7  2  0  0  0  0
  5 14  1  0  0  0  0
  5 16  2  0  0  0  0
  7  3  1  0  0  0  0
  8 21  1  1  0  0  0
  8 12  1  0  0  0  0
 10 18  1  0  0  0  0
 11  4  1  0  0  0  0
 12 16  1  0  0  0  0
 13 18  1  6  0  0  0
 13  8  1  0  0  0  0
 14  1  2  0  0  0  0
 15 20  2  0  0  0  0
 15  4  1  0  0  0  0
 16 17  1  0  0  0  0
 17  6  2  0  0  0  0
 19 10  1  0  0  0  0
 19  3  2  0  0  0  0
 20 19  1  0  0  0  0
 23 22  1  1  0  0  0
 23 30  1  0  0  0  0
 23 21  1  0  0  0  0
 24 27  1  0  0  0  0
 24 31  2  0  0  0  0
 25 28  1  0  0  0  0
 25 30  1  0  0  0  0
 28 24  1  0  0  0  0
 29 31  1  0  0  0  0
 29 26  2  0  0  0  0
 30 29  1  0  0  0  0
M  END
>  <MODEL>
3

>  <REMARK>
 VINA RESULT:      -8.1      3.439      8.324
  Name = 
  3 active torsions:
  status: ('A' for Active; 'I' for Inactive)
    1  A    between atoms: C_5  and  C_16
    2  A    between atoms: C_5  and  N_30
    3  A    between atoms: C_10  and  C_16
                            x       y       z     vdW  Elec       q    Type
                         _______ _______ _______ _____ _____    ______ ____

>  <TORSDO>
F 3

$$$$
=
 OpenBabel11112416483D

 31 35  0  0  1  0  0  0  0  0999 V2000
  185.1060  178.2040  146.6600 C   0  0  0  0  0  0  0  0  0  0  0  0
  187.7970  176.0700  145.1320 N   0  0  0  0  0  0  0  0  0  0  0  0
  187.7050  176.1350  143.6880 C   0  0  0  0  0  0  0  0  0  0  0  0
  186.6370  176.9300  141.6500 C   0  0  0  0  0  0  0  0  0  0  0  0
  187.1080  177.0230  145.9660 C   0  0  0  0  0  0  0  0  0  0  0  0
  185.8410  178.8820  147.6380 C   0  0  0  0  0  3  0  0  0  0  0  0
  186.6590  176.8170  143.0430 C   0  0  0  0  0  3  0  0  0  0  0  0
  189.9100  176.5350  146.2500 C   0  0  2  0  0  3  0  0  0  0  0  0
  183.7150  178.4600  146.5130 N   0  0  0  0  0  1  0  0  0  0  0  0
  189.7740  174.8890  143.5260 O   0  0  0  0  0  0  0  0  0  0  0  0
  185.3250  177.7810  140.8650 Cl  0  0  0  0  0  0  0  0  0  0  0  0
  189.2080  177.4260  147.1250 O   0  0  0  0  0  0  0  0  0  0  0  0
  188.9640  175.4340  145.7660 C   0  0  2  0  0  3  0  0  0  0  0  0
  185.7360  177.2750  145.8280 C   0  0  0  0  0  3  0  0  0  0  0  0
  187.6690  176.3780  140.8880 C   0  0  0  0  0  3  0  0  0  0  0  0
  187.8430  177.7020  146.9580 C   0  0  0  0  0  0  0  0  0  0  0  0
  187.2080  178.6290  147.7880 C   0  0  0  0  0  3  0  0  0  0  0  0
  189.6390  174.4000  144.8550 C   0  0  0  0  0  2  0  0  0  0  0  0
  188.7290  175.5690  142.9070 C   0  0  0  0  0  0  0  0  0  0  0  0
  188.7150  175.7000  141.5160 C   0  0  0  0  0  3  0  0  0  0  0  0
  191.1290  175.9680  146.9620 C   0  0  0  0  0  2  0  0  0  0  0  0
  193.3560  176.7900  147.2630 O   0  0  0  0  0  1  0  0  0  0  0  0
  192.4020  176.4770  146.2950 C   0  0  1  0  0  3  0  0  0  0  0  0
  194.8310  173.9780  143.8860 C   0  0  0  0  0  0  0  0  0  0  0  0
  193.3470  174.1840  145.8910 C   0  0  0  0  0  2  0  0  0  0  0  0
  192.6570  176.7570  143.4100 O   0  0  0  0  0  0  0  0  0  0  0  0
  195.7720  173.1160  143.1260 C   0  0  0  0  0  1  0  0  0  0  0  0
  194.7490  173.8390  145.3840 C   0  0  0  0  0  2  0  0  0  0  0  0
  193.1990  175.7750  143.9810 C   0  0  0  0  0  0  0  0  0  0  0  0
  192.9350  175.4830  145.3650 N   0  0  0  0  0  0  0  0  0  0  0  0
  194.1350  174.9180  143.2410 C   0  0  0  0  0  3  0  0  0  0  0  0
  1  6  1  0  0  0  0
  2 13  1  0  0  0  0
  2  5  1  0  0  0  0
  3  2  1  0  0  0  0
  4  7  2  0  0  0  0
  5 16  2  0  0  0  0
  6 17  2  0  0  0  0
  7  3  1  0  0  0  0
  8 21  1  1  0  0  0
  8 12  1  0  0  0  0
  9  1  1  0  0  0  0
 10 18  1  0  0  0  0
 11  4  1  0  0  0  0
 13 18  1  6  0  0  0
 13  8  1  0  0  0  0
 14  5  1  0  0  0  0
 14  1  2  0  0  0  0
 15 20  2  0  0  0  0
 15  4  1  0  0  0  0
 16 12  1  0  0  0  0
 16 17  1  0  0  0  0
 19 10  1  0  0  0  0
 19  3  2  0  0  0  0
 20 19  1  0  0  0  0
 23 21  1  0  0  0  0
 23 22  1  1  0  0  0
 24 28  1  0  0  0  0
 26 29  2  0  0  0  0
 27 24  1  0  0  0  0
 28 25  1  0  0  0  0
 29 30  1  0  0  0  0
 30 25  1  0  0  0  0
 30 23  1  0  0  0  0
 31 24  2  0  0  0  0
 31 29  1  0  0  0  0
M  END
>  <MODEL>
4

>  <REMARK>
 VINA RESULT:      -8.0      3.270      7.853
  Name = 
  3 active torsions:
  status: ('A' for Active; 'I' for Inactive)
    1  A    between atoms: C_5  and  C_16
    2  A    between atoms: C_5  and  N_30
    3  A    between atoms: C_10  and  C_16
                            x       y       z     vdW  Elec       q    Type
                         _______ _______ _______ _____ _____    ______ ____

>  <TORSDO>
F 3

$$$$
=
 OpenBabel11112416483D

 31 35  0  0  1  0  0  0  0  0999 V2000
  187.1950  177.1130  141.0490 C   0  0  0  0  0  0  0  0  0  0  0  0
  188.2700  177.3590  144.6430 N   0  0  0  0  0  0  0  0  0  0  0  0
  187.1590  177.8200  145.4510 C   0  0  0  0  0  0  0  0  0  0  0  0
  184.8580  178.5780  145.6820 C   0  0  0  0  0  0  0  0  0  0  0  0
  188.0650  176.8740  143.3010 C   0  0  0  0  0  0  0  0  0  0  0  0
  187.7210  175.8640  140.7090 C   0  0  0  0  0  3  0  0  0  0  0  0
  185.9390  178.2120  144.8760 C   0  0  0  0  0  3  0  0  0  0  0  0
  189.4730  175.3310  145.2520 C   0  0  2  0  0  3  0  0  0  0  0  0
  186.4820  177.8720  140.0800 N   0  0  0  0  0  1  0  0  0  0  0  0
  188.4750  177.4180  147.4420 O   0  0  0  0  0  0  0  0  0  0  0  0
  183.3460  179.0650  144.9470 Cl  0  0  0  0  0  0  0  0  0  0  0  0
  189.3310  174.8850  143.8980 O   0  0  0  0  0  0  0  0  0  0  0  0
  189.4940  176.8620  145.2930 C   0  0  2  0  0  3  0  0  0  0  0  0
  187.3680  177.6200  142.3400 C   0  0  0  0  0  3  0  0  0  0  0  0
  184.9800  178.5400  147.0730 C   0  0  0  0  0  3  0  0  0  0  0  0
  188.6010  175.6190  142.9510 C   0  0  0  0  0  0  0  0  0  0  0  0
  188.4260  175.1180  141.6590 C   0  0  0  0  0  3  0  0  0  0  0  0
  189.6890  177.4360  146.7010 C   0  0  0  0  0  2  0  0  0  0  0  0
  187.2750  177.8020  146.8520 C   0  0  0  0  0  0  0  0  0  0  0  0
  186.1860  178.1500  147.6580 C   0  0  0  0  0  3  0  0  0  0  0  0
  190.7280  174.7270  145.8650 C   0  0  0  0  0  2  0  0  0  0  0  0
  192.1970  176.0460  144.5140 O   0  0  0  0  0  1  0  0  0  0  0  0
  191.8590  174.7340  144.8430 C   0  0  1  0  0  3  0  0  0  0  0  0
  195.6750  173.0090  145.4840 C   0  0  0  0  0  0  0  0  0  0  0  0
  194.0240  174.7800  146.1180 C   0  0  0  0  0  2  0  0  0  0  0  0
  192.4120  171.8870  144.6070 O   0  0  0  0  0  0  0  0  0  0  0  0
  197.0600  172.4950  145.6400 C   0  0  0  0  0  1  0  0  0  0  0  0
  195.4240  174.4920  145.5710 C   0  0  0  0  0  2  0  0  0  0  0  0
  193.3140  172.6530  145.0330 C   0  0  0  0  0  0  0  0  0  0  0  0
  193.0300  174.0260  145.3580 N   0  0  0  0  0  0  0  0  0  0  0  0
  194.6890  172.1580  145.1870 C   0  0  0  0  0  3  0  0  0  0  0  0
  1 14  1  0  0  0  0
  2 13  1  0  0  0  0
  2  3  1  0  0  0  0
  3 19  1  0  0  0  0
  4 15  2  0  0  0  0
  5  2  1  0  0  0  0
  6  1  2  0  0  0  0
  6 17  1  0  0  0  0
  7  3  2  0  0  0  0
  7  4  1  0  0  0  0
  8 13  1  0  0  0  0
  8 21  1  6  0  0  0
  9  1  1  0  0  0  0
 11  4  1  0  0  0  0
 12  8  1  0  0  0  0
 13 18  1  1  0  0  0
 14  5  2  0  0  0  0
 15 20  1  0  0  0  0
 16  5  1  0  0  0  0
 16 12  1  0  0  0  0
 17 16  2  0  0  0  0
 18 10  1  0  0  0  0
 19 10  1  0  0  0  0
 19 20  2  0  0  0  0
 23 22  1  1  0  0  0
 23 30  1  0  0  0  0
 23 21  1  0  0  0  0
 24 28  1  0  0  0  0
 24 27  1  0  0  0  0
 26 29  2  0  0  0  0
 28 25  1  0  0  0  0
 29 31  1  0  0  0  0
 29 30  1  0  0  0  0
 30 25  1  0  0  0  0
 31 24  2  0  0  0  0
M  END
>  <MODEL>
5

>  <REMARK>
 VINA RESULT:      -8.0      3.390      7.905
  Name = 
  3 active torsions:
  status: ('A' for Active; 'I' for Inactive)
    1  A    between atoms: C_5  and  C_16
    2  A    between atoms: C_5  and  N_30
    3  A    between atoms: C_10  and  C_16
                            x       y       z     vdW  Elec       q    Type
                         _______ _______ _______ _____ _____    ______ ____

>  <TORSDO>
F 3

$$$$
=
 OpenBabel11112416483D

 31 35  0  0  1  0  0  0  0  0999 V2000
  191.4840  171.3380  142.7410 C   0  0  0  0  0  0  0  0  0  0  0  0
  192.0600  174.0290  145.3020 N   0  0  0  0  0  0  0  0  0  0  0  0
  193.2440  174.7870  144.9500 C   0  0  0  0  0  0  0  0  0  0  0  0
  195.1530  175.2150  143.5030 C   0  0  0  0  0  0  0  0  0  0  0  0
  191.4250  173.1540  144.3480 C   0  0  0  0  0  0  0  0  0  0  0  0
  190.1110  171.4850  142.5200 C   0  0  0  0  0  3  0  0  0  0  0  0
  194.0620  174.4220  143.8680 C   0  0  0  0  0  3  0  0  0  0  0  0
  189.9550  175.1720  145.7400 C   0  0  2  0  0  3  0  0  0  0  0  0
  192.2150  170.3420  142.0360 N   0  0  0  0  0  1  0  0  0  0  0  0
  192.7450  176.3430  146.7350 O   0  0  0  0  0  0  0  0  0  0  0  0
  196.1610  174.7430  142.1530 Cl  0  0  0  0  0  0  0  0  0  0  0  0
  189.3140  174.2530  144.8470 O   0  0  0  0  0  0  0  0  0  0  0  0
  191.1760  174.5050  146.3790 C   0  0  2  0  0  3  0  0  0  0  0  0
  192.1400  172.1680  143.6550 C   0  0  0  0  0  3  0  0  0  0  0  0
  195.4280  176.3910  144.2040 C   0  0  0  0  0  3  0  0  0  0  0  0
  190.0400  173.2930  144.1290 C   0  0  0  0  0  0  0  0  0  0  0  0
  189.3890  172.4590  143.2150 C   0  0  0  0  0  3  0  0  0  0  0  0
  191.9060  175.3990  147.3890 C   0  0  0  0  0  2  0  0  0  0  0  0
  193.5420  175.9640  145.6600 C   0  0  0  0  0  0  0  0  0  0  0  0
  194.6220  176.7660  145.2800 C   0  0  0  0  0  3  0  0  0  0  0  0
  188.9590  175.6570  146.7830 C   0  0  0  0  0  2  0  0  0  0  0  0
  189.5930  177.7140  145.7380 O   0  0  0  0  0  1  0  0  0  0  0  0
  188.6070  177.1170  146.5230 C   0  0  1  0  0  3  0  0  0  0  0  0
  184.9920  178.4310  144.7470 C   0  0  0  0  0  0  0  0  0  0  0  0
  187.2640  177.4310  144.4230 C   0  0  0  0  0  2  0  0  0  0  0  0
  185.9990  176.8860  147.7930 O   0  0  0  0  0  0  0  0  0  0  0  0
  183.7840  178.9960  144.0930 C   0  0  0  0  0  1  0  0  0  0  0  0
  186.3360  178.6000  144.0860 C   0  0  0  0  0  2  0  0  0  0  0  0
  186.0680  177.2910  146.6030 C   0  0  0  0  0  0  0  0  0  0  0  0
  187.3050  177.2310  145.8700 N   0  0  0  0  0  0  0  0  0  0  0  0
  184.8810  177.8560  145.9480 C   0  0  0  0  0  3  0  0  0  0  0  0
  1 14  1  0  0  0  0
  2 13  1  0  0  0  0
  3  2  1  0  0  0  0
  3 19  1  0  0  0  0
  4  7  1  0  0  0  0
  4 15  2  0  0  0  0
  5  2  1  0  0  0  0
  6  1  2  0  0  0  0
  6 17  1  0  0  0  0
  7  3  2  0  0  0  0
  8 13  1  0  0  0  0
  8 21  1  1  0  0  0
  9  1  1  0  0  0  0
 10 18  1  0  0  0  0
 11  4  1  0  0  0  0
 12  8  1  0  0  0  0
 13 18  1  1  0  0  0
 14  5  2  0  0  0  0
 15 20  1  0  0  0  0
 16  5  1  0  0  0  0
 16 12  1  0  0  0  0
 17 16  2  0  0  0  0
 19 10  1  0  0  0  0
 20 19  2  0  0  0  0
 23 22  1  6  0  0  0
 23 21  1  0  0  0  0
 24 31  2  0  0  0  0
 25 30  1  0  0  0  0
 27 24  1  0  0  0  0
 28 25  1  0  0  0  0
 28 24  1  0  0  0  0
 29 26  2  0  0  0  0
 30 23  1  0  0  0  0
 30 29  1  0  0  0  0
 31 29  1  0  0  0  0
M  END
>  <MODEL>
6

>  <REMARK>
 VINA RESULT:      -7.9      1.703      2.022
  Name = 
  3 active torsions:
  status: ('A' for Active; 'I' for Inactive)
    1  A    between atoms: C_5  and  C_16
    2  A    between atoms: C_5  and  N_30
    3  A    between atoms: C_10  and  C_16
                            x       y       z     vdW  Elec       q    Type
                         _______ _______ _______ _____ _____    ______ ____

>  <TORSDO>
F 3

$$$$
=
 OpenBabel11112416483D

 31 35  0  0  1  0  0  0  0  0999 V2000
  185.8230  178.0960  140.8970 C   0  0  0  0  0  0  0  0  0  0  0  0
  188.2350  177.8590  143.7700 N   0  0  0  0  0  0  0  0  0  0  0  0
  187.5030  177.8830  145.0200 C   0  0  0  0  0  0  0  0  0  0  0  0
  185.4220  178.0340  146.2730 C   0  0  0  0  0  0  0  0  0  0  0  0
  187.5630  177.6170  142.5180 C   0  0  0  0  0  0  0  0  0  0  0  0
  186.3220  177.0940  140.0600 C   0  0  0  0  0  3  0  0  0  0  0  0
  186.1150  178.0930  145.0610 C   0  0  0  0  0  3  0  0  0  0  0  0
  189.8360  176.0800  143.3180 C   0  0  2  0  0  3  0  0  0  0  0  0
  184.6830  178.8500  140.5020 N   0  0  0  0  0  1  0  0  0  0  0  0
  189.5600  177.4030  146.2030 O   0  0  0  0  0  0  0  0  0  0  0  0
  183.6920  178.3000  146.3040 Cl  0  0  0  0  0  0  0  0  0  0  0  0
  189.2100  175.8930  142.0430 O   0  0  0  0  0  0  0  0  0  0  0  0
  189.6710  177.5350  143.7660 C   0  0  2  0  0  3  0  0  0  0  0  0
  186.4420  178.3610  142.1210 C   0  0  0  0  0  3  0  0  0  0  0  0
  186.1070  177.7480  147.4560 C   0  0  0  0  0  3  0  0  0  0  0  0
  188.0680  176.6140  141.6680 C   0  0  0  0  0  0  0  0  0  0  0  0
  187.4450  176.3550  140.4440 C   0  0  0  0  0  3  0  0  0  0  0  0
  190.3500  177.8460  145.1060 C   0  0  0  0  0  2  0  0  0  0  0  0
  188.1840  177.6130  146.2210 C   0  0  0  0  0  0  0  0  0  0  0  0
  187.4870  177.5350  147.4300 C   0  0  0  0  0  3  0  0  0  0  0  0
  191.2980  175.6690  143.2410 C   0  0  0  0  0  2  0  0  0  0  0  0
  191.0670  173.5660  144.3580 O   0  0  0  0  0  1  0  0  0  0  0  0
  191.6640  174.8230  144.4550 C   0  0  1  0  0  3  0  0  0  0  0  0
  195.6300  173.9320  145.6490 C   0  0  0  0  0  0  0  0  0  0  0  0
  193.7450  173.4680  144.0690 C   0  0  0  0  0  2  0  0  0  0  0  0
  193.5130  176.7930  145.5340 O   0  0  0  0  0  0  0  0  0  0  0  0
  196.9750  173.5200  146.1260 C   0  0  0  0  0  1  0  0  0  0  0  0
  194.6770  172.8850  145.1320 C   0  0  0  0  0  2  0  0  0  0  0  0
  193.9290  175.6300  145.2930 C   0  0  0  0  0  0  0  0  0  0  0  0
  193.1140  174.6850  144.5760 N   0  0  0  0  0  0  0  0  0  0  0  0
  195.2550  175.2090  145.7630 C   0  0  0  0  0  3  0  0  0  0  0  0
  1 14  1  0  0  0  0
  2  3  1  0  0  0  0
  3  7  2  0  0  0  0
  3 19  1  0  0  0  0
  4 11  1  0  0  0  0
  4 15  2  0  0  0  0
  5  2  1  0  0  0  0
  6 17  1  0  0  0  0
  6  1  2  0  0  0  0
  7  4  1  0  0  0  0
  8 21  1  6  0  0  0
  8 13  1  0  0  0  0
  9  1  1  0  0  0  0
 10 19  1  0  0  0  0
 12  8  1  0  0  0  0
 13  2  1  0  0  0  0
 13 18  1  1  0  0  0
 14  5  2  0  0  0  0
 16 12  1  0  0  0  0
 16  5  1  0  0  0  0
 17 16  2  0  0  0  0
 18 10  1  0  0  0  0
 19 20  2  0  0  0  0
 20 15  1  0  0  0  0
 21 23  1  0  0  0  0
 23 22  1  6  0  0  0
 23 30  1  0  0  0  0
 24 31  2  0  0  0  0
 24 27  1  0  0  0  0
 25 30  1  0  0  0  0
 25 28  1  0  0  0  0
 28 24  1  0  0  0  0
 29 26  2  0  0  0  0
 29 31  1  0  0  0  0
 30 29  1  0  0  0  0
M  END
>  <MODEL>
7

>  <REMARK>
 VINA RESULT:      -7.9      3.390      7.931
  Name = 
  3 active torsions:
  status: ('A' for Active; 'I' for Inactive)
    1  A    between atoms: C_5  and  C_16
    2  A    between atoms: C_5  and  N_30
    3  A    between atoms: C_10  and  C_16
                            x       y       z     vdW  Elec       q    Type
                         _______ _______ _______ _____ _____    ______ ____

>  <TORSDO>
F 3

$$$$
=
 OpenBabel11112416483D

 31 35  0  0  1  0  0  0  0  0999 V2000
  195.4320  174.4660  144.4980 C   0  0  0  0  0  0  0  0  0  0  0  0
  191.8740  174.8930  143.3640 N   0  0  0  0  0  0  0  0  0  0  0  0
  191.3360  173.6100  142.9630 C   0  0  0  0  0  0  0  0  0  0  0  0
  191.5730  171.2140  142.6000 C   0  0  0  0  0  0  0  0  0  0  0  0
  193.0910  174.9840  144.1320 C   0  0  0  0  0  0  0  0  0  0  0  0
  195.4190  175.2220  145.6740 C   0  0  0  0  0  3  0  0  0  0  0  0
  192.1340  172.4550  142.9170 C   0  0  0  0  0  3  0  0  0  0  0  0
  190.6850  176.2710  144.9840 C   0  0  2  0  0  3  0  0  0  0  0  0
  196.6280  173.8160  144.0840 N   0  0  0  0  0  1  0  0  0  0  0  0
  189.1530  174.6280  142.7240 O   0  0  0  0  0  0  0  0  0  0  0  0
  192.5840  169.7870  142.5470 Cl  0  0  0  0  0  0  0  0  0  0  0  0
  191.9140  176.4180  145.7040 O   0  0  0  0  0  0  0  0  0  0  0  0
  190.9800  176.0560  143.4970 C   0  0  2  0  0  3  0  0  0  0  0  0
  194.2730  174.3490  143.7260 C   0  0  0  0  0  3  0  0  0  0  0  0
  190.2040  171.1130  142.3440 C   0  0  0  0  0  3  0  0  0  0  0  0
  193.0850  175.7510  145.3130 C   0  0  0  0  0  0  0  0  0  0  0  0
  194.2470  175.8660  146.0800 C   0  0  0  0  0  3  0  0  0  0  0  0
  189.7180  175.9300  142.6320 C   0  0  0  0  0  2  0  0  0  0  0  0
  189.9620  173.4970  142.6850 C   0  0  0  0  0  0  0  0  0  0  0  0
  189.3980  172.2520  142.3880 C   0  0  0  0  0  3  0  0  0  0  0  0
  189.7990  177.4840  145.2210 C   0  0  0  0  0  2  0  0  0  0  0  0
  188.9800  178.0190  147.4040 O   0  0  0  0  0  1  0  0  0  0  0  0
  188.7790  177.1770  146.3110 C   0  0  1  0  0  3  0  0  0  0  0  0
  184.9320  178.5460  145.1830 C   0  0  0  0  0  0  0  0  0  0  0  0
  187.2240  177.8530  144.4560 C   0  0  0  0  0  2  0  0  0  0  0  0
  186.3250  176.4280  147.6830 O   0  0  0  0  0  0  0  0  0  0  0  0
  183.6320  179.1390  144.7780 C   0  0  0  0  0  1  0  0  0  0  0  0
  186.1920  178.9820  144.4810 C   0  0  0  0  0  2  0  0  0  0  0  0
  186.2530  177.1040  146.6230 C   0  0  0  0  0  0  0  0  0  0  0  0
  187.4160  177.3250  145.8050 N   0  0  0  0  0  0  0  0  0  0  0  0
  184.9740  177.6990  146.2150 C   0  0  0  0  0  3  0  0  0  0  0  0
  1  6  1  0  0  0  0
  2 13  1  0  0  0  0
  2  5  1  0  0  0  0
  3  2  1  0  0  0  0
  4  7  2  0  0  0  0
  5 16  2  0  0  0  0
  6 17  2  0  0  0  0
  7  3  1  0  0  0  0
  8 21  1  6  0  0  0
  8 12  1  0  0  0  0
  9  1  1  0  0  0  0
 11  4  1  0  0  0  0
 13 18  1  6  0  0  0
 13  8  1  0  0  0  0
 14  5  1  0  0  0  0
 14  1  2  0  0  0  0
 15 20  2  0  0  0  0
 15  4  1  0  0  0  0
 16 12  1  0  0  0  0
 16 17  1  0  0  0  0
 18 10  1  0  0  0  0
 19 10  1  0  0  0  0
 19  3  2  0  0  0  0
 20 19  1  0  0  0  0
 21 23  1  0  0  0  0
 23 22  1  1  0  0  0
 24 31  2  0  0  0  0
 25 28  1  0  0  0  0
 25 30  1  0  0  0  0
 27 24  1  0  0  0  0
 28 24  1  0  0  0  0
 29 26  2  0  0  0  0
 30 23  1  0  0  0  0
 30 29  1  0  0  0  0
 31 29  1  0  0  0  0
M  END
>  <MODEL>
8

>  <REMARK>
 VINA RESULT:      -7.6      2.416      4.489
  Name = 
  3 active torsions:
  status: ('A' for Active; 'I' for Inactive)
    1  A    between atoms: C_5  and  C_16
    2  A    between atoms: C_5  and  N_30
    3  A    between atoms: C_10  and  C_16
                            x       y       z     vdW  Elec       q    Type
                         _______ _______ _______ _____ _____    ______ ____

>  <TORSDO>
F 3

$$$$
=
 OpenBabel11112416483D

 31 35  0  0  1  0  0  0  0  0999 V2000
  193.6320  170.8960  144.1010 C   0  0  0  0  0  0  0  0  0  0  0  0
  194.0270  174.4520  145.2560 N   0  0  0  0  0  0  0  0  0  0  0  0
  195.1040  175.0830  144.5210 C   0  0  0  0  0  0  0  0  0  0  0  0
  196.8900  175.0110  142.8690 C   0  0  0  0  0  0  0  0  0  0  0  0
  193.4480  173.2090  144.8080 C   0  0  0  0  0  0  0  0  0  0  0  0
  192.2430  170.8260  143.9580 C   0  0  0  0  0  3  0  0  0  0  0  0
  195.9080  174.3620  143.6220 C   0  0  0  0  0  3  0  0  0  0  0  0
  191.8310  175.5010  145.3580 C   0  0  2  0  0  3  0  0  0  0  0  0
  194.4340  169.7570  143.8130 N   0  0  0  0  0  1  0  0  0  0  0  0
  194.5200  177.2010  145.5350 O   0  0  0  0  0  0  0  0  0  0  0  0
  197.8830  174.0960  141.7560 Cl  0  0  0  0  0  0  0  0  0  0  0  0
  191.2540  174.2440  144.9850 O   0  0  0  0  0  0  0  0  0  0  0  0
  193.1450  175.2650  146.1090 C   0  0  2  0  0  3  0  0  0  0  0  0
  194.2340  172.0820  144.5290 C   0  0  0  0  0  3  0  0  0  0  0  0
  197.0680  176.3910  142.9940 C   0  0  0  0  0  3  0  0  0  0  0  0
  192.0480  173.1310  144.6710 C   0  0  0  0  0  0  0  0  0  0  0  0
  191.4510  171.9420  144.2440 C   0  0  0  0  0  3  0  0  0  0  0  0
  193.8180  176.5560  146.5910 C   0  0  0  0  0  2  0  0  0  0  0  0
  195.3050  176.4680  144.6500 C   0  0  0  0  0  0  0  0  0  0  0  0
  196.2740  177.1190  143.8810 C   0  0  0  0  0  3  0  0  0  0  0  0
  190.8360  176.3000  146.1870 C   0  0  0  0  0  2  0  0  0  0  0  0
  189.0250  175.0170  147.0810 O   0  0  0  0  0  1  0  0  0  0  0  0
  189.4280  175.7580  145.9700 C   0  0  1  0  0  3  0  0  0  0  0  0
  186.0720  178.1570  145.0040 C   0  0  0  0  0  0  0  0  0  0  0  0
  187.5660  177.2340  146.7870 C   0  0  0  0  0  2  0  0  0  0  0  0
  189.2210  177.3570  143.5480 O   0  0  0  0  0  0  0  0  0  0  0  0
  184.8250  178.9030  144.6980 C   0  0  0  0  0  1  0  0  0  0  0  0
  186.1370  177.3050  146.2450 C   0  0  0  0  0  2  0  0  0  0  0  0
  188.3260  177.4570  144.4260 C   0  0  0  0  0  0  0  0  0  0  0  0
  188.4840  176.8450  145.7190 N   0  0  0  0  0  0  0  0  0  0  0  0
  187.0860  178.1880  144.1340 C   0  0  0  0  0  3  0  0  0  0  0  0
  1 14  1  0  0  0  0
  2 13  1  0  0  0  0
  3 19  1  0  0  0  0
  3  2  1  0  0  0  0
  4 15  2  0  0  0  0
  4  7  1  0  0  0  0
  5  2  1  0  0  0  0
  6  1  2  0  0  0  0
  6 17  1  0  0  0  0
  7  3  2  0  0  0  0
  8 13  1  0  0  0  0
  8 21  1  1  0  0  0
  9  1  1  0  0  0  0
 10 18  1  0  0  0  0
 11  4  1  0  0  0  0
 12  8  1  0  0  0  0
 13 18  1  6  0  0  0
 14  5  2  0  0  0  0
 15 20  1  0  0  0  0
 16  5  1  0  0  0  0
 16 12  1  0  0  0  0
 17 16  2  0  0  0  0
 19 10  1  0  0  0  0
 20 19  2  0  0  0  0
 23 21  1  0  0  0  0
 23 22  1  1  0  0  0
 24 28  1  0  0  0  0
 26 29  2  0  0  0  0
 27 24  1  0  0  0  0
 28 25  1  0  0  0  0
 29 30  1  0  0  0  0
 30 23  1  0  0  0  0
 30 25  1  0  0  0  0
 31 29  1  0  0  0  0
 31 24  2  0  0  0  0
M  END
>  <MODEL>
9

>  <REMARK>
 VINA RESULT:      -7.5      2.301      3.475
  Name = 
  3 active torsions:
  status: ('A' for Active; 'I' for Inactive)
    1  A    between atoms: C_5  and  C_16
    2  A    between atoms: C_5  and  N_30
    3  A    between atoms: C_10  and  C_16
                            x       y       z     vdW  Elec       q    Type
                         _______ _______ _______ _____ _____    ______ ____

>  <TORSDO>
F 3

$$$$
