=
 OpenBabel11112417073D

 37 44  0  0  1  0  0  0  0  0999 V2000
  191.0800  173.2170  141.5380 C   0  0  0  0  0  2  0  0  0  0  0  0
  195.2540  173.9260  143.3070 C   0  0  0  0  0  0  0  0  0  0  0  0
  192.0530  175.7930  145.2730 C   0  0  0  0  0  0  0  0  0  0  0  0
  190.9030  172.9330  140.0430 C   0  0  2  0  0  3  0  0  0  0  0  0
  188.5540  175.4860  143.7020 O   0  0  0  0  0  0  0  0  0  0  0  0
  194.4240  175.2990  145.2500 C   0  0  0  0  0  0  0  0  0  0  0  0
  190.9990  175.6230  144.3750 C   0  0  0  0  0  0  0  0  0  0  0  0
  188.5220  173.5960  140.4800 C   0  0  0  0  0  0  0  0  0  0  0  0
  193.1720  175.2830  144.6770 C   0  0  0  0  0  0  0  0  0  0  0  0
  189.5340  175.9720  144.5950 C   0  0  0  0  0  0  0  0  0  0  0  0
  194.5660  175.8850  146.5130 C   0  0  0  0  0  3  0  0  0  0  0  0
  189.6180  173.5290  139.4630 C   0  0  0  0  0  2  0  0  0  0  0  0
  192.9370  174.8210  143.4580 N   0  0  0  0  0  0  0  0  0  0  0  0
  195.0460  172.4790  143.7150 C   0  0  0  0  0  1  0  0  0  0  0  0
  191.0640  177.0790  147.2010 C   0  0  0  0  0  3  0  0  0  0  0  0
  193.4300  176.4360  147.1450 C   0  0  0  0  0  3  0  0  0  0  0  0
  194.0010  174.4150  142.5350 C   0  0  0  0  0  2  0  0  0  0  0  0
  188.3850  174.8080  141.3520 C   0  0  1  0  0  3  0  0  0  0  0  0
  188.8990  174.5820  142.6880 C   0  0  1  0  0  3  0  0  0  0  0  0
  192.1570  176.3990  146.5270 C   0  0  0  0  0  0  0  0  0  0  0  0
  191.6230  175.0310  143.2210 C   0  0  0  0  0  0  0  0  0  0  0  0
  195.5110  174.7350  144.5110 N   0  0  0  0  0  2  0  0  0  0  0  0
  189.0600  176.7190  145.6270 C   0  0  0  0  0  0  0  0  0  0  0  0
  196.4570  174.0010  142.3920 C   0  0  0  0  0  1  0  0  0  0  0  0
  189.7010  175.3820  141.7470 N   0  0  1  0  0  0  0  0  0  0  0  0
  187.7440  172.6630  140.6010 O   0  0  0  0  0  0  0  0  0  0  0  0
  191.0100  174.7210  141.8650 C   0  0  2  0  0  3  0  0  0  0  0  0
  189.8030  177.2080  146.8090 C   0  0  0  0  0  3  0  0  0  0  0  0
  186.7380  176.4280  146.5240 C   0  0  0  0  0  3  0  0  0  0  0  0
  187.6220  177.0910  145.6570 C   0  0  0  0  0  0  0  0  0  0  0  0
  187.1350  178.1360  144.8540 C   0  0  0  0  0  3  0  0  0  0  0  0
  185.1910  179.7920  143.8880 Cl  0  0  0  0  0  0  0  0  0  0  0  0
  184.9120  177.8230  145.7600 C   0  0  0  0  0  3  0  0  0  0  0  0
  185.7860  178.4960  144.9020 C   0  0  0  0  0  0  0  0  0  0  0  0
  185.3880  176.7910  146.5720 C   0  0  0  0  0  3  0  0  0  0  0  0
  190.8160  170.6760  141.1020 C   0  0  0  0  0  1  0  0  0  0  0  0
  190.9270  171.4340  139.7930 C   0  0  0  0  0  2  0  0  0  0  0  0
  1 27  1  0  0  0  0
  2 14  1  0  0  0  0
  2 22  1  0  0  0  0
  3 20  1  0  0  0  0
  4 37  1  1  0  0  0
  4  1  1  0  0  0  0
  5 10  1  0  0  0  0
  6 11  2  0  0  0  0
  7 10  1  0  0  0  0
  7  3  1  0  0  0  0
  8 26  2  0  0  0  0
  9  6  1  0  0  0  0
  9  3  2  0  0  0  0
 10 23  2  0  0  0  0
 11 16  1  0  0  0  0
 12  4  1  0  0  0  0
 12  8  1  0  0  0  0
 13  9  1  0  0  0  0
 17  2  1  0  0  0  0
 17 13  1  0  0  0  0
 18  8  1  6  0  0  0
 18 25  1  0  0  0  0
 18 19  1  0  0  0  0
 19  5  1  1  0  0  0
 20 16  2  0  0  0  0
 20 15  1  0  0  0  0
 21 13  1  0  0  0  0
 21  7  2  0  0  0  0
 22  6  1  0  0  0  0
 23 30  1  0  0  0  0
 23 28  1  0  0  0  0
 24  2  1  0  0  0  0
 25 27  1  0  0  0  0
 25 19  1  0  0  0  0
 27 21  1  0  0  0  0
 28 15  2  0  0  0  0
 29 35  1  0  0  0  0
 30 29  2  0  0  0  0
 31 34  2  0  0  0  0
 31 30  1  0  0  0  0
 32 34  1  0  0  0  0
 33 35  2  0  0  0  0
 34 33  1  0  0  0  0
 37 36  1  0  0  0  0
M  END
>  <MODEL>
1

>  <REMARK>
 VINA RESULT:      -9.5      0.000      0.000
  Name = 
  2 active torsions:
  status: ('A' for Active; 'I' for Inactive)
    1  A    between atoms: C_4  and  C_37
    2  A    between atoms: C_23  and  C_30
                            x       y       z     vdW  Elec       q    Type
                         _______ _______ _______ _____ _____    ______ ____

>  <TORSDO>
F 2

$$$$
=
 OpenBabel11112417073D

 37 44  0  0  1  0  0  0  0  0999 V2000
  190.6820  172.7560  141.6370 C   0  0  0  0  0  2  0  0  0  0  0  0
  194.1300  173.3080  144.6140 C   0  0  0  0  0  0  0  0  0  0  0  0
  190.7380  175.7010  145.2230 C   0  0  0  0  0  0  0  0  0  0  0  0
  190.9550  172.2950  140.2020 C   0  0  2  0  0  3  0  0  0  0  0  0
  187.9120  175.5090  142.6180 O   0  0  0  0  0  0  0  0  0  0  0  0
  192.9090  174.9940  146.0340 C   0  0  0  0  0  0  0  0  0  0  0  0
  190.0120  175.5110  144.0470 C   0  0  0  0  0  0  0  0  0  0  0  0
  188.6650  173.2240  139.7600 C   0  0  0  0  0  0  0  0  0  0  0  0
  191.9130  175.0170  145.0820 C   0  0  0  0  0  0  0  0  0  0  0  0
  188.6110  176.0180  143.7340 C   0  0  0  0  0  0  0  0  0  0  0  0
  192.7160  175.7260  147.2110 C   0  0  0  0  0  3  0  0  0  0  0  0
  190.0100  172.9250  139.1750 C   0  0  0  0  0  2  0  0  0  0  0  0
  192.0210  174.4220  143.9030 N   0  0  0  0  0  0  0  0  0  0  0  0
  193.6180  171.9520  145.0650 C   0  0  0  0  0  1  0  0  0  0  0  0
  189.3610  177.3130  146.5840 C   0  0  0  0  0  3  0  0  0  0  0  0
  191.5180  176.4560  147.3760 C   0  0  0  0  0  3  0  0  0  0  0  0
  193.2620  173.8030  143.4280 C   0  0  0  0  0  2  0  0  0  0  0  0
  188.4150  174.5470  140.4200 C   0  0  1  0  0  3  0  0  0  0  0  0
  188.4430  174.4530  141.8650 C   0  0  1  0  0  3  0  0  0  0  0  0
  190.5150  176.4540  146.3780 C   0  0  0  0  0  0  0  0  0  0  0  0
  190.8900  174.7180  143.2260 C   0  0  0  0  0  0  0  0  0  0  0  0
  194.0920  174.2410  145.7530 N   0  0  0  0  0  2  0  0  0  0  0  0
  187.9340  176.9340  144.4760 C   0  0  0  0  0  0  0  0  0  0  0  0
  195.5610  173.1520  144.1460 C   0  0  0  0  0  1  0  0  0  0  0  0
  189.5990  175.0460  141.1730 N   0  0  1  0  0  0  0  0  0  0  0  0
  187.7760  172.3890  139.7050 O   0  0  0  0  0  0  0  0  0  0  0  0
  190.7060  174.2890  141.7790 C   0  0  2  0  0  3  0  0  0  0  0  0
  188.3180  177.5040  145.7860 C   0  0  0  0  0  3  0  0  0  0  0  0
  185.6090  177.7630  144.9090 C   0  0  0  0  0  3  0  0  0  0  0  0
  186.6220  177.4360  143.9930 C   0  0  0  0  0  0  0  0  0  0  0  0
  186.3900  177.6310  142.6210 C   0  0  0  0  0  3  0  0  0  0  0  0
  184.8840  178.3520  140.4610 Cl  0  0  0  0  0  0  0  0  0  0  0  0
  184.1560  178.4360  143.0920 C   0  0  0  0  0  3  0  0  0  0  0  0
  185.1620  178.1240  142.1730 C   0  0  0  0  0  0  0  0  0  0  0  0
  184.3800  178.2570  144.4600 C   0  0  0  0  0  3  0  0  0  0  0  0
  190.7290  170.1780  141.5020 C   0  0  0  0  0  1  0  0  0  0  0  0
  190.8640  170.7800  140.1160 C   0  0  0  0  0  2  0  0  0  0  0  0
  1 27  1  0  0  0  0
  2 14  1  0  0  0  0
  2 22  1  0  0  0  0
  3 20  1  0  0  0  0
  4 37  1  1  0  0  0
  4  1  1  0  0  0  0
  5 10  1  0  0  0  0
  6 11  2  0  0  0  0
  7  3  1  0  0  0  0
  9  3  2  0  0  0  0
  9  6  1  0  0  0  0
 10  7  1  0  0  0  0
 10 23  2  0  0  0  0
 11 16  1  0  0  0  0
 12  8  1  0  0  0  0
 12  4  1  0  0  0  0
 13  9  1  0  0  0  0
 17 13  1  0  0  0  0
 17  2  1  0  0  0  0
 18  8  1  6  0  0  0
 18 25  1  0  0  0  0
 18 19  1  0  0  0  0
 19  5  1  1  0  0  0
 20 15  1  0  0  0  0
 20 16  2  0  0  0  0
 21 13  1  0  0  0  0
 21  7  2  0  0  0  0
 22  6  1  0  0  0  0
 23 28  1  0  0  0  0
 24  2  1  0  0  0  0
 25 27  1  0  0  0  0
 25 19  1  0  0  0  0
 26  8  2  0  0  0  0
 27 21  1  0  0  0  0
 28 15  2  0  0  0  0
 30 23  1  0  0  0  0
 30 29  2  0  0  0  0
 31 30  1  0  0  0  0
 32 34  1  0  0  0  0
 33 35  2  0  0  0  0
 34 31  2  0  0  0  0
 34 33  1  0  0  0  0
 35 29  1  0  0  0  0
 37 36  1  0  0  0  0
M  END
>  <MODEL>
2

>  <REMARK>
 VINA RESULT:      -8.8      1.387      1.719
  Name = 
  2 active torsions:
  status: ('A' for Active; 'I' for Inactive)
    1  A    between atoms: C_4  and  C_37
    2  A    between atoms: C_23  and  C_30
                            x       y       z     vdW  Elec       q    Type
                         _______ _______ _______ _____ _____    ______ ____

>  <TORSDO>
F 2

$$$$
=
 OpenBabel11112417073D

 37 44  0  0  1  0  0  0  0  0999 V2000
  190.9160  172.6210  141.4760 C   0  0  0  0  0  2  0  0  0  0  0  0
  194.9240  173.0400  143.6700 C   0  0  0  0  0  0  0  0  0  0  0  0
  191.8360  175.5900  144.9210 C   0  0  0  0  0  0  0  0  0  0  0  0
  190.8670  172.1360  140.0240 C   0  0  2  0  0  3  0  0  0  0  0  0
  188.5290  175.5060  142.9570 O   0  0  0  0  0  0  0  0  0  0  0  0
  194.0950  174.7930  145.2810 C   0  0  0  0  0  0  0  0  0  0  0  0
  190.8760  175.4240  143.9230 C   0  0  0  0  0  0  0  0  0  0  0  0
  188.5780  173.1640  140.0460 C   0  0  0  0  0  0  0  0  0  0  0  0
  192.9270  174.8520  144.5540 C   0  0  0  0  0  0  0  0  0  0  0  0
  189.4640  175.9910  143.8970 C   0  0  0  0  0  0  0  0  0  0  0  0
  194.1800  175.5420  146.4600 C   0  0  0  0  0  3  0  0  0  0  0  0
  189.7590  172.8000  139.2020 C   0  0  0  0  0  2  0  0  0  0  0  0
  192.7640  174.2440  143.3890 N   0  0  0  0  0  0  0  0  0  0  0  0
  194.4590  171.7130  144.2410 C   0  0  0  0  0  1  0  0  0  0  0  0
  190.8400  177.2750  146.5080 C   0  0  0  0  0  3  0  0  0  0  0  0
  193.0740  176.3270  146.8540 C   0  0  0  0  0  3  0  0  0  0  0  0
  193.8530  173.5650  142.6800 C   0  0  0  0  0  2  0  0  0  0  0  0
  188.5260  174.5030  140.7190 C   0  0  1  0  0  3  0  0  0  0  0  0
  188.8470  174.4200  142.1300 C   0  0  1  0  0  3  0  0  0  0  0  0
  191.8880  176.3620  146.0840 C   0  0  0  0  0  0  0  0  0  0  0  0
  191.5310  174.5850  142.9530 C   0  0  0  0  0  0  0  0  0  0  0  0
  195.1620  173.9840  144.7760 N   0  0  0  0  0  2  0  0  0  0  0  0
  188.9930  176.9430  144.7460 C   0  0  0  0  0  0  0  0  0  0  0  0
  196.2200  172.8160  142.9210 C   0  0  0  0  0  1  0  0  0  0  0  0
  189.8600  174.9540  141.2040 N   0  0  1  0  0  0  0  0  0  0  0  0
  187.6610  172.3710  140.1890 O   0  0  0  0  0  0  0  0  0  0  0  0
  191.0340  174.1530  141.5830 C   0  0  2  0  0  3  0  0  0  0  0  0
  189.6640  177.5070  145.9380 C   0  0  0  0  0  3  0  0  0  0  0  0
  187.3000  178.1090  143.3130 C   0  0  0  0  0  3  0  0  0  0  0  0
  187.6330  177.5010  144.5340 C   0  0  0  0  0  0  0  0  0  0  0  0
  186.6500  177.3910  145.5310 C   0  0  0  0  0  3  0  0  0  0  0  0
  184.1540  177.7620  146.5740 Cl  0  0  0  0  0  0  0  0  0  0  0  0
  185.0470  178.5100  144.1040 C   0  0  0  0  0  3  0  0  0  0  0  0
  185.3650  177.8970  145.3190 C   0  0  0  0  0  0  0  0  0  0  0  0
  186.0140  178.6150  143.1010 C   0  0  0  0  0  3  0  0  0  0  0  0
  190.7740  170.0480  141.3850 C   0  0  0  0  0  1  0  0  0  0  0  0
  190.6960  170.6260  139.9850 C   0  0  0  0  0  2  0  0  0  0  0  0
  1 27  1  0  0  0  0
  2 14  1  0  0  0  0
  2 22  1  0  0  0  0
  3 20  1  0  0  0  0
  4 37  1  1  0  0  0
  4  1  1  0  0  0  0
  5 10  1  0  0  0  0
  6 11  2  0  0  0  0
  7  3  1  0  0  0  0
  8 26  2  0  0  0  0
  9  3  2  0  0  0  0
  9  6  1  0  0  0  0
 10  7  1  0  0  0  0
 10 23  2  0  0  0  0
 11 16  1  0  0  0  0
 12  4  1  0  0  0  0
 12  8  1  0  0  0  0
 13  9  1  0  0  0  0
 17 13  1  0  0  0  0
 17  2  1  0  0  0  0
 18  8  1  6  0  0  0
 18 25  1  0  0  0  0
 18 19  1  0  0  0  0
 19  5  1  1  0  0  0
 20 15  1  0  0  0  0
 20 16  2  0  0  0  0
 21 13  1  0  0  0  0
 21  7  2  0  0  0  0
 22  6  1  0  0  0  0
 23 28  1  0  0  0  0
 24  2  1  0  0  0  0
 25 27  1  0  0  0  0
 25 19  1  0  0  0  0
 27 21  1  0  0  0  0
 28 15  2  0  0  0  0
 29 30  1  0  0  0  0
 30 23  1  0  0  0  0
 30 31  2  0  0  0  0
 33 34  2  0  0  0  0
 34 31  1  0  0  0  0
 34 32  1  0  0  0  0
 35 29  2  0  0  0  0
 35 33  1  0  0  0  0
 37 36  1  0  0  0  0
M  END
>  <MODEL>
3

>  <REMARK>
 VINA RESULT:      -8.5      1.004      1.324
  Name = 
  2 active torsions:
  status: ('A' for Active; 'I' for Inactive)
    1  A    between atoms: C_4  and  C_37
    2  A    between atoms: C_23  and  C_30
                            x       y       z     vdW  Elec       q    Type
                         _______ _______ _______ _____ _____    ______ ____

>  <TORSDO>
F 2

$$$$
=
 OpenBabel11112417073D

 37 44  0  0  1  0  0  0  0  0999 V2000
  189.8510  174.0430  140.6660 C   0  0  0  0  0  2  0  0  0  0  0  0
  187.1170  176.8990  142.9940 C   0  0  0  0  0  0  0  0  0  0  0  0
  190.5730  175.5900  144.9800 C   0  0  0  0  0  0  0  0  0  0  0  0
  189.2770  173.1140  139.5910 C   0  0  2  0  0  3  0  0  0  0  0  0
  192.7790  172.9770  143.2160 O   0  0  0  0  0  0  0  0  0  0  0  0
  188.6210  177.0240  145.0120 C   0  0  0  0  0  0  0  0  0  0  0  0
  191.0310  174.5620  144.1560 C   0  0  0  0  0  0  0  0  0  0  0  0
  191.4250  171.8580  139.9190 C   0  0  0  0  0  0  0  0  0  0  0  0
  189.3920  176.0300  144.4520 C   0  0  0  0  0  0  0  0  0  0  0  0
  192.3360  173.7890  144.2820 C   0  0  0  0  0  0  0  0  0  0  0  0
  189.0640  177.6120  146.2020 C   0  0  0  0  0  3  0  0  0  0  0  0
  189.9850  171.7580  139.5220 C   0  0  0  0  0  2  0  0  0  0  0  0
  189.0320  175.3550  143.3700 N   0  0  0  0  0  0  0  0  0  0  0  0
  187.7070  177.8720  141.9890 C   0  0  0  0  0  1  0  0  0  0  0  0
  192.2160  175.6740  146.8880 C   0  0  0  0  0  3  0  0  0  0  0  0
  190.2730  177.1660  146.7800 C   0  0  0  0  0  3  0  0  0  0  0  0
  187.7160  175.4910  142.7400 C   0  0  0  0  0  2  0  0  0  0  0  0
  191.8160  171.7000  141.3580 C   0  0  1  0  0  3  0  0  0  0  0  0
  192.0960  172.9720  141.9930 C   0  0  1  0  0  3  0  0  0  0  0  0
  191.0410  176.1430  146.1740 C   0  0  0  0  0  0  0  0  0  0  0  0
  189.9950  174.4290  143.1640 C   0  0  0  0  0  0  0  0  0  0  0  0
  187.4010  177.3820  144.3570 N   0  0  0  0  0  2  0  0  0  0  0  0
  193.1610  173.8290  145.3630 C   0  0  0  0  0  0  0  0  0  0  0  0
  185.6200  176.8420  142.7890 C   0  0  0  0  0  1  0  0  0  0  0  0
  190.8210  172.2970  142.2920 N   0  0  1  0  0  0  0  0  0  0  0  0
  192.2780  172.0710  139.0720 O   0  0  0  0  0  0  0  0  0  0  0  0
  189.8650  173.3920  142.0610 C   0  0  2  0  0  3  0  0  0  0  0  0
  193.0660  174.7150  146.5440 C   0  0  0  0  0  3  0  0  0  0  0  0
  195.6330  173.4470  145.2140 C   0  0  0  0  0  3  0  0  0  0  0  0
  194.3420  172.9300  145.4120 C   0  0  0  0  0  0  0  0  0  0  0  0
  194.1910  171.5620  145.6970 C   0  0  0  0  0  3  0  0  0  0  0  0
  195.1040  169.0230  146.1090 Cl  0  0  0  0  0  0  0  0  0  0  0  0
  196.5870  171.2470  145.5540 C   0  0  0  0  0  3  0  0  0  0  0  0
  195.3080  170.7250  145.7630 C   0  0  0  0  0  0  0  0  0  0  0  0
  196.7500  172.6080  145.2810 C   0  0  0  0  0  3  0  0  0  0  0  0
  188.0380  174.5100  137.9350 C   0  0  0  0  0  1  0  0  0  0  0  0
  189.3400  173.7910  138.2310 C   0  0  0  0  0  2  0  0  0  0  0  0
  1 27  1  0  0  0  0
  2 22  1  0  0  0  0
  3 20  1  0  0  0  0
  4 37  1  6  0  0  0
  4  1  1  0  0  0  0
  5 10  1  0  0  0  0
  6 11  2  0  0  0  0
  7 10  1  0  0  0  0
  7  3  1  0  0  0  0
  9  3  2  0  0  0  0
  9  6  1  0  0  0  0
 10 23  2  0  0  0  0
 11 16  1  0  0  0  0
 12  4  1  0  0  0  0
 12  8  1  0  0  0  0
 13  9  1  0  0  0  0
 14  2  1  0  0  0  0
 17  2  1  0  0  0  0
 17 13  1  0  0  0  0
 18  8  1  6  0  0  0
 18 19  1  0  0  0  0
 18 25  1  0  0  0  0
 19 25  1  0  0  0  0
 19  5  1  1  0  0  0
 20 16  2  0  0  0  0
 20 15  1  0  0  0  0
 21 13  1  0  0  0  0
 21  7  2  0  0  0  0
 22  6  1  0  0  0  0
 23 30  1  0  0  0  0
 23 28  1  0  0  0  0
 24  2  1  0  0  0  0
 26  8  2  0  0  0  0
 27 25  1  0  0  0  0
 27 21  1  0  0  0  0
 28 15  2  0  0  0  0
 29 35  2  0  0  0  0
 29 30  1  0  0  0  0
 30 31  2  0  0  0  0
 31 34  1  0  0  0  0
 33 34  2  0  0  0  0
 34 32  1  0  0  0  0
 35 33  1  0  0  0  0
 36 37  1  0  0  0  0
M  END
>  <MODEL>
4

>  <REMARK>
 VINA RESULT:      -8.5      3.336      6.744
  Name = 
  2 active torsions:
  status: ('A' for Active; 'I' for Inactive)
    1  A    between atoms: C_4  and  C_37
    2  A    between atoms: C_23  and  C_30
                            x       y       z     vdW  Elec       q    Type
                         _______ _______ _______ _____ _____    ______ ____

>  <TORSDO>
F 2

$$$$
=
 OpenBabel11112417073D

 37 44  0  0  1  0  0  0  0  0999 V2000
  194.0840  174.9030  143.7200 C   0  0  0  0  0  2  0  0  0  0  0  0
  193.5420  171.7360  140.4440 C   0  0  0  0  0  0  0  0  0  0  0  0
  190.0810  173.7680  141.6660 C   0  0  0  0  0  0  0  0  0  0  0  0
  195.2130  174.7770  144.7490 C   0  0  2  0  0  3  0  0  0  0  0  0
  190.3890  176.2390  144.5990 O   0  0  0  0  0  0  0  0  0  0  0  0
  191.0800  172.1760  140.1380 C   0  0  0  0  0  0  0  0  0  0  0  0
  190.5050  174.4360  142.8150 C   0  0  0  0  0  0  0  0  0  0  0  0
  193.8220  176.4010  146.0650 C   0  0  0  0  0  0  0  0  0  0  0  0
  191.1300  173.0050  141.2360 C   0  0  0  0  0  0  0  0  0  0  0  0
  189.7240  175.4540  143.6330 C   0  0  0  0  0  0  0  0  0  0  0  0
  189.8790  172.0960  139.4240 C   0  0  0  0  0  3  0  0  0  0  0  0
  194.8240  175.2920  146.1380 C   0  0  0  0  0  2  0  0  0  0  0  0
  192.1900  173.1010  142.0260 N   0  0  0  0  0  0  0  0  0  0  0  0
  194.2490  172.8140  139.6430 C   0  0  0  0  0  1  0  0  0  0  0  0
  187.6490  174.3760  141.4210 C   0  0  0  0  0  3  0  0  0  0  0  0
  188.7730  172.8610  139.8550 C   0  0  0  0  0  3  0  0  0  0  0  0
  193.3640  172.2310  141.9030 C   0  0  0  0  0  2  0  0  0  0  0  0
  192.3560  176.0840  146.0540 C   0  0  1  0  0  3  0  0  0  0  0  0
  191.7830  176.1820  144.7270 C   0  0  1  0  0  3  0  0  0  0  0  0
  188.8620  173.7050  140.9870 C   0  0  0  0  0  0  0  0  0  0  0  0
  191.8450  173.9480  143.0200 C   0  0  0  0  0  0  0  0  0  0  0  0
  192.2520  171.4270  139.8040 N   0  0  0  0  0  2  0  0  0  0  0  0
  188.3940  175.7030  143.4970 C   0  0  0  0  0  0  0  0  0  0  0  0
  194.4060  170.4940  140.4470 C   0  0  0  0  0  1  0  0  0  0  0  0
  192.0420  174.8460  145.2880 N   0  0  1  0  0  0  0  0  0  0  0  0
  194.1980  177.5610  146.0090 O   0  0  0  0  0  0  0  0  0  0  0  0
  192.7850  174.2180  144.1840 C   0  0  2  0  0  3  0  0  0  0  0  0
  187.4750  175.1830  142.4610 C   0  0  0  0  0  3  0  0  0  0  0  0
  187.8120  176.4160  145.8280 C   0  0  0  0  0  3  0  0  0  0  0  0
  187.7270  176.6330  144.4430 C   0  0  0  0  0  0  0  0  0  0  0  0
  187.0380  177.7640  143.9720 C   0  0  0  0  0  3  0  0  0  0  0  0
  185.5670  180.0450  144.2660 Cl  0  0  0  0  0  0  0  0  0  0  0  0
  186.5120  178.4160  146.2430 C   0  0  0  0  0  3  0  0  0  0  0  0
  186.4300  178.6470  144.8670 C   0  0  0  0  0  0  0  0  0  0  0  0
  187.2050  177.3010  146.7230 C   0  0  0  0  0  3  0  0  0  0  0  0
  196.0990  176.4070  143.0820 C   0  0  0  0  0  1  0  0  0  0  0  0
  196.4470  175.5170  144.2590 C   0  0  0  0  0  2  0  0  0  0  0  0
  1 27  1  0  0  0  0
  1  4  1  0  0  0  0
  2 24  1  0  0  0  0
  2 17  1  0  0  0  0
  3  7  1  0  0  0  0
  4 37  1  6  0  0  0
  4 12  1  0  0  0  0
  6  9  2  0  0  0  0
  7 21  2  0  0  0  0
  7 10  1  0  0  0  0
  8 12  1  0  0  0  0
  9  3  1  0  0  0  0
  9 13  1  0  0  0  0
 10  5  1  0  0  0  0
 11 16  2  0  0  0  0
 11  6  1  0  0  0  0
 13 21  1  0  0  0  0
 14  2  1  0  0  0  0
 15 28  2  0  0  0  0
 16 20  1  0  0  0  0
 17 13  1  0  0  0  0
 18  8  1  6  0  0  0
 19  5  1  1  0  0  0
 19 25  1  0  0  0  0
 19 18  1  0  0  0  0
 20 15  1  0  0  0  0
 20  3  2  0  0  0  0
 21 27  1  0  0  0  0
 22  6  1  0  0  0  0
 22  2  1  0  0  0  0
 23 10  2  0  0  0  0
 23 30  1  0  0  0  0
 25 18  1  0  0  0  0
 26  8  2  0  0  0  0
 27 25  1  0  0  0  0
 28 23  1  0  0  0  0
 29 35  1  0  0  0  0
 30 29  2  0  0  0  0
 31 30  1  0  0  0  0
 31 34  2  0  0  0  0
 32 34  1  0  0  0  0
 33 35  2  0  0  0  0
 34 33  1  0  0  0  0
 36 37  1  0  0  0  0
M  END
>  <MODEL>
5

>  <REMARK>
 VINA RESULT:      -8.4      2.065      5.306
  Name = 
  2 active torsions:
  status: ('A' for Active; 'I' for Inactive)
    1  A    between atoms: C_4  and  C_37
    2  A    between atoms: C_23  and  C_30
                            x       y       z     vdW  Elec       q    Type
                         _______ _______ _______ _____ _____    ______ ____

>  <TORSDO>
F 2

$$$$
=
 OpenBabel11112417073D

 37 44  0  0  1  0  0  0  0  0999 V2000
  189.5720  174.5120  143.2120 C   0  0  0  0  0  2  0  0  0  0  0  0
  191.0460  176.3380  147.1550 C   0  0  0  0  0  0  0  0  0  0  0  0
  187.3860  177.7710  145.6880 C   0  0  0  0  0  0  0  0  0  0  0  0
  190.5680  173.9730  142.1800 C   0  0  2  0  0  3  0  0  0  0  0  0
  186.2080  176.5050  142.2510 O   0  0  0  0  0  0  0  0  0  0  0  0
  189.0100  177.7860  147.4850 C   0  0  0  0  0  0  0  0  0  0  0  0
  187.3480  177.2510  144.3940 C   0  0  0  0  0  0  0  0  0  0  0  0
  188.6260  174.1830  140.6030 C   0  0  0  0  0  0  0  0  0  0  0  0
  188.5940  177.4220  146.2240 C   0  0  0  0  0  0  0  0  0  0  0  0
  186.1910  177.3150  143.4070 C   0  0  0  0  0  0  0  0  0  0  0  0
  188.1540  178.5740  148.2630 C   0  0  0  0  0  3  0  0  0  0  0  0
  190.1170  174.1930  140.7330 C   0  0  0  0  0  2  0  0  0  0  0  0
  189.3520  176.7410  145.3770 N   0  0  0  0  0  0  0  0  0  0  0  0
  190.6460  174.9580  147.6460 C   0  0  0  0  0  1  0  0  0  0  0  0
  185.2580  179.0990  145.9180 C   0  0  0  0  0  3  0  0  0  0  0  0
  186.9060  178.9640  147.7280 C   0  0  0  0  0  3  0  0  0  0  0  0
  190.7620  176.4310  145.6340 C   0  0  0  0  0  2  0  0  0  0  0  0
  187.8540  175.4580  140.7660 C   0  0  1  0  0  3  0  0  0  0  0  0
  187.2160  175.5500  142.0640 C   0  0  1  0  0  3  0  0  0  0  0  0
  186.5100  178.5690  146.4280 C   0  0  0  0  0  0  0  0  0  0  0  0
  188.6390  176.6330  144.2340 C   0  0  0  0  0  0  0  0  0  0  0  0
  190.3040  177.3560  147.9190 N   0  0  0  0  0  2  0  0  0  0  0  0
  185.0870  178.0940  143.5550 C   0  0  0  0  0  0  0  0  0  0  0  0
  192.5290  176.5220  147.3920 C   0  0  0  0  0  1  0  0  0  0  0  0
  188.4290  176.3470  141.8130 N   0  0  1  0  0  0  0  0  0  0  0  0
  188.0410  173.1380  140.3690 O   0  0  0  0  0  0  0  0  0  0  0  0
  189.2400  176.0000  142.9900 C   0  0  2  0  0  3  0  0  0  0  0  0
  184.6970  178.9020  144.7320 C   0  0  0  0  0  3  0  0  0  0  0  0
  184.4690  177.8720  141.1360 C   0  0  0  0  0  3  0  0  0  0  0  0
  184.0880  178.1580  142.4570 C   0  0  0  0  0  0  0  0  0  0  0  0
  182.7440  178.4630  142.7280 C   0  0  0  0  0  3  0  0  0  0  0  0
  180.1350  178.8930  142.0450 Cl  0  0  0  0  0  0  0  0  0  0  0  0
  182.1960  178.2250  140.3820 C   0  0  0  0  0  3  0  0  0  0  0  0
  181.8040  178.5010  141.6950 C   0  0  0  0  0  0  0  0  0  0  0  0
  183.5280  177.9080  140.1030 C   0  0  0  0  0  3  0  0  0  0  0  0
  189.7440  171.9180  143.3280 C   0  0  0  0  0  1  0  0  0  0  0  0
  190.8130  172.4920  142.4170 C   0  0  0  0  0  2  0  0  0  0  0  0
  2 24  1  0  0  0  0
  2 14  1  0  0  0  0
  2 22  1  0  0  0  0
  3  9  2  0  0  0  0
  3 20  1  0  0  0  0
  4 37  1  1  0  0  0
  4  1  1  0  0  0  0
  5 10  1  0  0  0  0
  6 22  1  0  0  0  0
  6 11  2  0  0  0  0
  7  3  1  0  0  0  0
  8 12  1  0  0  0  0
  9  6  1  0  0  0  0
 10 23  2  0  0  0  0
 10  7  1  0  0  0  0
 12  4  1  0  0  0  0
 13 17  1  0  0  0  0
 13  9  1  0  0  0  0
 15 20  1  0  0  0  0
 16 11  1  0  0  0  0
 17  2  1  0  0  0  0
 18  8  1  1  0  0  0
 18 25  1  0  0  0  0
 18 19  1  0  0  0  0
 19  5  1  6  0  0  0
 20 16  2  0  0  0  0
 21  7  2  0  0  0  0
 21 13  1  0  0  0  0
 23 28  1  0  0  0  0
 25 19  1  0  0  0  0
 25 27  1  0  0  0  0
 26  8  2  0  0  0  0
 27  1  1  0  0  0  0
 27 21  1  0  0  0  0
 28 15  2  0  0  0  0
 29 30  1  0  0  0  0
 30 31  2  0  0  0  0
 30 23  1  0  0  0  0
 33 34  2  0  0  0  0
 34 32  1  0  0  0  0
 34 31  1  0  0  0  0
 35 33  1  0  0  0  0
 35 29  2  0  0  0  0
 37 36  1  0  0  0  0
M  END
>  <MODEL>
6

>  <REMARK>
 VINA RESULT:      -8.3      2.729      4.826
  Name = 
  2 active torsions:
  status: ('A' for Active; 'I' for Inactive)
    1  A    between atoms: C_4  and  C_37
    2  A    between atoms: C_23  and  C_30
                            x       y       z     vdW  Elec       q    Type
                         _______ _______ _______ _____ _____    ______ ____

>  <TORSDO>
F 2

$$$$
=
 OpenBabel11112417073D

 37 44  0  0  1  0  0  0  0  0999 V2000
  192.8080  174.7250  144.3650 C   0  0  0  0  0  2  0  0  0  0  0  0
  192.5550  172.2000  140.5420 C   0  0  0  0  0  0  0  0  0  0  0  0
  189.3060  174.7380  141.3210 C   0  0  0  0  0  0  0  0  0  0  0  0
  193.6070  174.2320  145.5760 C   0  0  2  0  0  3  0  0  0  0  0  0
  189.3010  176.6830  144.6410 O   0  0  0  0  0  0  0  0  0  0  0  0
  190.3600  173.1840  139.7910 C   0  0  0  0  0  0  0  0  0  0  0  0
  189.5410  175.1450  142.6350 C   0  0  0  0  0  0  0  0  0  0  0  0
  192.2370  175.9260  146.8230 C   0  0  0  0  0  0  0  0  0  0  0  0
  190.2800  173.8340  141.0020 C   0  0  0  0  0  0  0  0  0  0  0  0
  188.7700  176.1890  143.4300 C   0  0  0  0  0  0  0  0  0  0  0  0
  189.3790  173.4530  138.8300 C   0  0  0  0  0  3  0  0  0  0  0  0
  192.9810  174.6300  146.9160 C   0  0  0  0  0  2  0  0  0  0  0  0
  191.1110  173.6000  142.0080 N   0  0  0  0  0  0  0  0  0  0  0  0
  193.6140  173.2010  140.1180 C   0  0  0  0  0  1  0  0  0  0  0  0
  187.1540  175.8710  140.6650 C   0  0  0  0  0  3  0  0  0  0  0  0
  188.3510  174.3710  139.1380 C   0  0  0  0  0  3  0  0  0  0  0  0
  192.1090  172.5260  141.9910 C   0  0  0  0  0  2  0  0  0  0  0  0
  190.7880  175.9280  146.4380 C   0  0  1  0  0  3  0  0  0  0  0  0
  190.5880  176.3180  145.0570 C   0  0  1  0  0  3  0  0  0  0  0  0
  188.3020  175.0220  140.3940 C   0  0  0  0  0  0  0  0  0  0  0  0
  190.6820  174.3640  143.0370 C   0  0  0  0  0  0  0  0  0  0  0  0
  191.4300  172.2560  139.5930 N   0  0  0  0  0  2  0  0  0  0  0  0
  187.5800  176.7280  143.0540 C   0  0  0  0  0  0  0  0  0  0  0  0
  193.1610  170.8140  140.5140 C   0  0  0  0  0  1  0  0  0  0  0  0
  190.4630  174.8950  145.4160 N   0  0  1  0  0  0  0  0  0  0  0  0
  192.8110  176.9770  147.0570 O   0  0  0  0  0  0  0  0  0  0  0  0
  191.3360  174.2750  144.4070 C   0  0  2  0  0  3  0  0  0  0  0  0
  186.8710  176.5540  141.7670 C   0  0  0  0  0  3  0  0  0  0  0  0
  186.2840  178.8270  143.4980 C   0  0  0  0  0  3  0  0  0  0  0  0
  186.8710  177.6460  143.9820 C   0  0  0  0  0  0  0  0  0  0  0  0
  186.7390  177.3280  145.3440 C   0  0  0  0  0  3  0  0  0  0  0  0
  185.9060  177.7800  147.9040 Cl  0  0  0  0  0  0  0  0  0  0  0  0
  185.4810  179.3620  145.7190 C   0  0  0  0  0  3  0  0  0  0  0  0
  186.0530  178.1840  146.2080 C   0  0  0  0  0  0  0  0  0  0  0  0
  185.5960  179.6820  144.3630 C   0  0  0  0  0  3  0  0  0  0  0  0
  195.1620  175.8000  144.4160 C   0  0  0  0  0  1  0  0  0  0  0  0
  195.0330  174.7520  145.5050 C   0  0  0  0  0  2  0  0  0  0  0  0
  1 27  1  0  0  0  0
  1  4  1  0  0  0  0
  2 17  1  0  0  0  0
  3  7  1  0  0  0  0
  4 37  1  6  0  0  0
  4 12  1  0  0  0  0
  6  9  2  0  0  0  0
  7 21  2  0  0  0  0
  7 10  1  0  0  0  0
  8 12  1  0  0  0  0
  8 26  2  0  0  0  0
  9  3  1  0  0  0  0
  9 13  1  0  0  0  0
 10  5  1  0  0  0  0
 11 16  2  0  0  0  0
 11  6  1  0  0  0  0
 13 21  1  0  0  0  0
 14  2  1  0  0  0  0
 15 28  2  0  0  0  0
 16 20  1  0  0  0  0
 17 13  1  0  0  0  0
 18  8  1  6  0  0  0
 19  5  1  1  0  0  0
 19 25  1  0  0  0  0
 19 18  1  0  0  0  0
 20 15  1  0  0  0  0
 20  3  2  0  0  0  0
 21 27  1  0  0  0  0
 22  6  1  0  0  0  0
 22  2  1  0  0  0  0
 23 10  2  0  0  0  0
 23 30  1  0  0  0  0
 24  2  1  0  0  0  0
 25 18  1  0  0  0  0
 27 25  1  0  0  0  0
 28 23  1  0  0  0  0
 29 30  2  0  0  0  0
 29 35  1  0  0  0  0
 30 31  1  0  0  0  0
 31 34  2  0  0  0  0
 33 34  1  0  0  0  0
 34 32  1  0  0  0  0
 35 33  2  0  0  0  0
 36 37  1  0  0  0  0
M  END
>  <MODEL>
7

>  <REMARK>
 VINA RESULT:      -8.2      2.145      5.402
  Name = 
  2 active torsions:
  status: ('A' for Active; 'I' for Inactive)
    1  A    between atoms: C_4  and  C_37
    2  A    between atoms: C_23  and  C_30
                            x       y       z     vdW  Elec       q    Type
                         _______ _______ _______ _____ _____    ______ ____

>  <TORSDO>
F 2

$$$$
=
 OpenBabel11112417073D

 37 44  0  0  1  0  0  0  0  0999 V2000
  191.1260  173.8320  142.3000 C   0  0  0  0  0  2  0  0  0  0  0  0
  190.0190  172.8510  137.9560 C   0  0  0  0  0  0  0  0  0  0  0  0
  187.6290  175.7030  139.8930 C   0  0  0  0  0  0  0  0  0  0  0  0
  191.8120  172.7870  143.1860 C   0  0  2  0  0  3  0  0  0  0  0  0
  188.3050  176.3840  143.6190 O   0  0  0  0  0  0  0  0  0  0  0  0
  188.1470  174.5340  137.8360 C   0  0  0  0  0  0  0  0  0  0  0  0
  188.0250  175.5840  141.2250 C   0  0  0  0  0  0  0  0  0  0  0  0
  191.0160  174.2560  145.0600 C   0  0  0  0  0  0  0  0  0  0  0  0
  188.3020  174.7460  139.1880 C   0  0  0  0  0  0  0  0  0  0  0  0
  187.6050  176.4620  142.3950 C   0  0  0  0  0  0  0  0  0  0  0  0
  187.2350  175.3360  137.1410 C   0  0  0  0  0  3  0  0  0  0  0  0
  191.3800  172.8620  144.6540 C   0  0  0  0  0  2  0  0  0  0  0  0
  189.0810  173.9980  139.9560 N   0  0  0  0  0  0  0  0  0  0  0  0
  191.2920  173.6440  137.7230 C   0  0  0  0  0  1  0  0  0  0  0  0
  185.8420  177.4800  139.9020 C   0  0  0  0  0  3  0  0  0  0  0  0
  186.5130  176.3230  137.8470 C   0  0  0  0  0  3  0  0  0  0  0  0
  189.7450  172.7800  139.4810 C   0  0  0  0  0  2  0  0  0  0  0  0
  189.6070  174.7390  144.8880 C   0  0  1  0  0  3  0  0  0  0  0  0
  189.4600  175.5990  143.7310 C   0  0  1  0  0  3  0  0  0  0  0  0
  186.7000  176.5140  139.2360 C   0  0  0  0  0  0  0  0  0  0  0  0
  188.9250  174.4600  141.2160 C   0  0  0  0  0  0  0  0  0  0  0  0
  188.9110  173.4900  137.2250 N   0  0  0  0  0  2  0  0  0  0  0  0
  186.5930  177.3700  142.3610 C   0  0  0  0  0  0  0  0  0  0  0  0
  190.2210  171.4480  137.4260 C   0  0  0  0  0  1  0  0  0  0  0  0
  188.9670  174.2140  143.6500 N   0  0  1  0  0  0  0  0  0  0  0  0
  191.8660  174.9970  145.5260 O   0  0  0  0  0  0  0  0  0  0  0  0
  189.5900  173.7680  142.3950 C   0  0  2  0  0  3  0  0  0  0  0  0
  185.8070  177.8080  141.1880 C   0  0  0  0  0  3  0  0  0  0  0  0
  185.7400  179.3990  143.5590 C   0  0  0  0  0  3  0  0  0  0  0  0
  186.2050  178.0750  143.6100 C   0  0  0  0  0  0  0  0  0  0  0  0
  186.2560  177.4170  144.8500 C   0  0  0  0  0  3  0  0  0  0  0  0
  185.9480  177.2480  147.5580 Cl  0  0  0  0  0  0  0  0  0  0  0  0
  185.4180  179.3980  145.9590 C   0  0  0  0  0  3  0  0  0  0  0  0
  185.8690  178.0770  146.0190 C   0  0  0  0  0  0  0  0  0  0  0  0
  185.3520  180.0580  144.7290 C   0  0  0  0  0  3  0  0  0  0  0  0
  193.6860  174.0360  142.1130 C   0  0  0  0  0  1  0  0  0  0  0  0
  193.3220  172.9360  143.0920 C   0  0  0  0  0  2  0  0  0  0  0  0
  1 27  1  0  0  0  0
  1  4  1  0  0  0  0
  2 17  1  0  0  0  0
  3  7  1  0  0  0  0
  4 37  1  1  0  0  0
  4 12  1  0  0  0  0
  6  9  1  0  0  0  0
  7 10  1  0  0  0  0
  8 26  2  0  0  0  0
  9  3  2  0  0  0  0
  9 13  1  0  0  0  0
 10  5  1  0  0  0  0
 11  6  2  0  0  0  0
 11 16  1  0  0  0  0
 12  8  1  0  0  0  0
 13 21  1  0  0  0  0
 14  2  1  0  0  0  0
 15 28  2  0  0  0  0
 16 20  2  0  0  0  0
 17 13  1  0  0  0  0
 18  8  1  6  0  0  0
 19  5  1  1  0  0  0
 19 18  1  0  0  0  0
 20  3  1  0  0  0  0
 20 15  1  0  0  0  0
 21  7  2  0  0  0  0
 21 27  1  0  0  0  0
 22  6  1  0  0  0  0
 22  2  1  0  0  0  0
 23 10  2  0  0  0  0
 23 30  1  0  0  0  0
 24  2  1  0  0  0  0
 25 19  1  0  0  0  0
 25 18  1  0  0  0  0
 27 25  1  0  0  0  0
 28 23  1  0  0  0  0
 29 30  2  0  0  0  0
 29 35  1  0  0  0  0
 30 31  1  0  0  0  0
 31 34  2  0  0  0  0
 33 34  1  0  0  0  0
 34 32  1  0  0  0  0
 35 33  2  0  0  0  0
 36 37  1  0  0  0  0
M  END
>  <MODEL>
8

>  <REMARK>
 VINA RESULT:      -8.0      2.605      5.983
  Name = 
  2 active torsions:
  status: ('A' for Active; 'I' for Inactive)
    1  A    between atoms: C_4  and  C_37
    2  A    between atoms: C_23  and  C_30
                            x       y       z     vdW  Elec       q    Type
                         _______ _______ _______ _____ _____    ______ ____

>  <TORSDO>
F 2

$$$$
=
 OpenBabel11112417073D

 37 44  0  0  1  0  0  0  0  0999 V2000
  189.3390  174.9710  141.9990 C   0  0  0  0  0  2  0  0  0  0  0  0
  187.2310  177.0660  145.4950 C   0  0  0  0  0  0  0  0  0  0  0  0
  191.3070  176.2170  146.0130 C   0  0  0  0  0  0  0  0  0  0  0  0
  188.5570  174.0590  141.0490 C   0  0  2  0  0  3  0  0  0  0  0  0
  193.0900  174.2140  143.2520 O   0  0  0  0  0  0  0  0  0  0  0  0
  189.3140  177.2700  146.8990 C   0  0  0  0  0  0  0  0  0  0  0  0
  191.5830  175.3680  144.9400 C   0  0  0  0  0  0  0  0  0  0  0  0
  190.8340  173.1810  140.4600 C   0  0  0  0  0  0  0  0  0  0  0  0
  189.9670  176.4860  145.9750 C   0  0  0  0  0  0  0  0  0  0  0  0
  192.9420  174.8320  144.5140 C   0  0  0  0  0  0  0  0  0  0  0  0
  190.0600  177.8160  147.9500 C   0  0  0  0  0  3  0  0  0  0  0  0
  189.3740  172.8630  140.5510 C   0  0  0  0  0  2  0  0  0  0  0  0
  189.3470  175.8610  144.9850 N   0  0  0  0  0  0  0  0  0  0  0  0
  187.2940  178.2180  144.5080 C   0  0  0  0  0  1  0  0  0  0  0  0
  193.4850  176.4160  147.2620 C   0  0  0  0  0  3  0  0  0  0  0  0
  191.4440  177.5410  148.0230 C   0  0  0  0  0  3  0  0  0  0  0  0
  187.8880  175.8180  144.8520 C   0  0  0  0  0  2  0  0  0  0  0  0
  191.7200  172.9630  141.6490 C   0  0  1  0  0  3  0  0  0  0  0  0
  192.0290  174.2000  142.3370 C   0  0  1  0  0  3  0  0  0  0  0  0
  192.0820  176.7320  147.0530 C   0  0  0  0  0  0  0  0  0  0  0  0
  190.2940  175.1450  144.3380 C   0  0  0  0  0  0  0  0  0  0  0  0
  187.9050  177.4640  146.7430 N   0  0  0  0  0  2  0  0  0  0  0  0
  194.0790  174.9180  145.2550 C   0  0  0  0  0  0  0  0  0  0  0  0
  185.7780  176.7620  145.7890 C   0  0  0  0  0  1  0  0  0  0  0  0
  191.0440  173.2840  142.9360 N   0  0  1  0  0  0  0  0  0  0  0  0
  191.2990  173.6200  139.4210 O   0  0  0  0  0  0  0  0  0  0  0  0
  189.9290  174.2070  143.1990 C   0  0  2  0  0  3  0  0  0  0  0  0
  194.2840  175.6610  146.5180 C   0  0  0  0  0  3  0  0  0  0  0  0
  196.1860  174.9060  143.8990 C   0  0  0  0  0  3  0  0  0  0  0  0
  195.3130  174.2440  144.7770 C   0  0  0  0  0  0  0  0  0  0  0  0
  195.6460  172.9550  145.2270 C   0  0  0  0  0  3  0  0  0  0  0  0
  197.2160  170.7250  145.3530 Cl  0  0  0  0  0  0  0  0  0  0  0  0
  197.6760  172.9980  143.9100 C   0  0  0  0  0  3  0  0  0  0  0  0
  196.8190  172.3340  144.7920 C   0  0  0  0  0  0  0  0  0  0  0  0
  197.3610  174.2840  143.4650 C   0  0  0  0  0  3  0  0  0  0  0  0
  187.4410  176.1690  140.3240 C   0  0  0  0  0  1  0  0  0  0  0  0
  188.0480  174.8580  139.8610 C   0  0  0  0  0  2  0  0  0  0  0  0
  1 27  1  0  0  0  0
  2 24  1  0  0  0  0
  2 22  1  0  0  0  0
  3 20  1  0  0  0  0
  4 37  1  6  0  0  0
  4  1  1  0  0  0  0
  5 10  1  0  0  0  0
  6 11  2  0  0  0  0
  7  3  1  0  0  0  0
  8 12  1  0  0  0  0
  9  3  2  0  0  0  0
  9  6  1  0  0  0  0
 10  7  1  0  0  0  0
 10 23  2  0  0  0  0
 11 16  1  0  0  0  0
 12  4  1  0  0  0  0
 13  9  1  0  0  0  0
 14  2  1  0  0  0  0
 17 13  1  0  0  0  0
 17  2  1  0  0  0  0
 18  8  1  6  0  0  0
 18 19  1  0  0  0  0
 18 25  1  0  0  0  0
 19 25  1  0  0  0  0
 19  5  1  1  0  0  0
 20 15  1  0  0  0  0
 20 16  2  0  0  0  0
 21  7  2  0  0  0  0
 21 13  1  0  0  0  0
 22  6  1  0  0  0  0
 23 28  1  0  0  0  0
 25 27  1  0  0  0  0
 26  8  2  0  0  0  0
 27 21  1  0  0  0  0
 28 15  2  0  0  0  0
 29 30  1  0  0  0  0
 30 31  2  0  0  0  0
 30 23  1  0  0  0  0
 33 34  2  0  0  0  0
 34 31  1  0  0  0  0
 34 32  1  0  0  0  0
 35 29  2  0  0  0  0
 35 33  1  0  0  0  0
 37 36  1  0  0  0  0
M  END
>  <MODEL>
9

>  <REMARK>
 VINA RESULT:      -7.5      3.108      6.879
  Name = 
  2 active torsions:
  status: ('A' for Active; 'I' for Inactive)
    1  A    between atoms: C_4  and  C_37
    2  A    between atoms: C_23  and  C_30
                            x       y       z     vdW  Elec       q    Type
                         _______ _______ _______ _____ _____    ______ ____

>  <TORSDO>
F 2

$$$$
