=
 OpenBabel11112417343D

 37 41  0  0  1  0  0  0  0  0999 V2000
  189.3220  176.3870  145.0060 C   0  0  1  0  0  3  0  0  0  0  0  0
  190.5490  174.3340  142.1260 C   0  0  0  0  0  2  0  0  0  0  0  0
  187.1840  177.7580  145.3120 C   0  0  2  0  0  3  0  0  0  0  0  0
  189.1820  175.6600  143.7650 N   0  0  2  0  0  0  0  0  0  0  0  0
  188.6290  177.7130  144.7730 C   0  0  2  0  0  3  0  0  0  0  0  0
  190.4670  174.9740  143.5180 C   0  0  1  0  0  3  0  0  0  0  0  0
  187.1540  177.2620  146.7270 C   0  0  0  0  0  3  0  0  0  0  0  0
  188.6580  177.9500  143.3920 O   0  0  0  0  0  0  0  0  0  0  0  0
  189.4490  174.3840  146.5630 C   0  0  0  0  0  2  0  0  0  0  0  0
  187.8870  176.2130  147.0790 C   0  0  0  0  0  3  0  0  0  0  0  0
  188.1290  173.9790  142.0140 O   0  0  0  0  0  0  0  0  0  0  0  0
  189.3860  173.3780  141.8230 C   0  0  0  0  0  2  0  0  0  0  0  0
  188.7830  175.6100  146.1380 N   0  0  0  0  0  0  0  0  0  0  0  0
  188.9770  176.7210  142.7630 C   0  0  2  0  0  3  0  0  0  0  0  0
  190.7580  173.9610  144.5470 N   0  0  0  0  0  0  0  0  0  0  0  0
  188.0380  175.0110  141.0720 C   0  0  0  0  0  2  0  0  0  0  0  0
  187.8600  176.3700  141.7550 C   0  0  2  0  0  3  0  0  0  0  0  0
  189.6780  173.4450  145.3870 C   0  0  0  0  0  2  0  0  0  0  0  0
  192.5300  172.2310  144.5920 C   0  0  0  0  0  3  0  0  0  0  0  0
  192.1210  173.5590  144.8050 C   0  0  0  0  0  0  0  0  0  0  0  0
  193.0650  174.4900  145.2710 C   0  0  0  0  0  3  0  0  0  0  0  0
  195.3720  175.0980  146.0130 C   0  0  0  0  0  1  0  0  0  0  0  0
  194.7770  172.7790  145.3050 C   0  0  0  0  0  3  0  0  0  0  0  0
  194.3850  174.1010  145.5200 C   0  0  0  0  0  0  0  0  0  0  0  0
  193.8490  171.8430  144.8410 C   0  0  0  0  0  3  0  0  0  0  0  0
  187.8370  177.3500  140.7430 O   0  0  0  0  0  0  0  0  0  0  0  0
  186.5880  177.3430  140.0810 C   0  0  1  0  0  3  0  0  0  0  0  0
  184.5350  177.9840  140.0870 O   0  0  0  0  0  1  0  0  0  0  0  0
  185.7140  178.3320  140.5560 O   0  0  0  0  0  0  0  0  0  0  0  0
  186.7530  177.4120  138.5690 C   0  0  0  0  0  2  0  0  0  0  0  0
  186.6780  176.0260  137.9490 C   0  0  0  0  0  2  0  0  0  0  0  0
  185.7630  176.0180  136.8950 O   0  0  0  0  0  1  0  0  0  0  0  0
  186.3320  176.9740  144.5060 O   0  0  0  0  0  0  0  0  0  0  0  0
  185.2230  177.7520  144.1030 C   0  0  0  0  0  0  0  0  0  0  0  0
  184.5900  177.1630  143.0220 F   0  0  0  0  0  0  0  0  0  0  0  0
  184.3090  177.9250  145.1340 F   0  0  0  0  0  0  0  0  0  0  0  0
  185.6790  178.9960  143.7120 F   0  0  0  0  0  0  0  0  0  0  0  0
  1 13  1  1  0  0  0
  2  6  1  0  0  0  0
  3 33  1  6  0  0  0
  3  7  1  0  0  0  0
  4  1  1  0  0  0  0
  5  1  1  0  0  0  0
  5  3  1  0  0  0  0
  6  4  1  0  0  0  0
  6 15  1  0  0  0  0
  7 10  2  0  0  0  0
  8  5  1  0  0  0  0
 12 11  1  0  0  0  0
 12  2  1  0  0  0  0
 13  9  1  0  0  0  0
 13 10  1  0  0  0  0
 14  8  1  0  0  0  0
 14  4  1  0  0  0  0
 15 20  1  0  0  0  0
 15 18  1  0  0  0  0
 16 17  1  0  0  0  0
 16 11  1  0  0  0  0
 17 14  1  0  0  0  0
 18  9  1  0  0  0  0
 19 20  2  0  0  0  0
 19 25  1  0  0  0  0
 20 21  1  0  0  0  0
 21 24  2  0  0  0  0
 23 24  1  0  0  0  0
 24 22  1  0  0  0  0
 25 23  2  0  0  0  0
 26 17  1  0  0  0  0
 27 29  1  0  0  0  0
 27 26  1  0  0  0  0
 28 29  1  0  0  0  0
 30 27  1  0  0  0  0
 31 30  1  0  0  0  0
 32 31  1  0  0  0  0
 34 33  1  0  0  0  0
 34 36  1  0  0  0  0
 35 34  1  0  0  0  0
 37 34  1  0  0  0  0
M  END
>  <MODEL>
1

>  <REMARK>
 VINA RESULT:      -7.5      0.000      0.000
  Name = 
  8 active torsions:
  status: ('A' for Active; 'I' for Inactive)
    1  A    between atoms: O_1  and  C_4
    2  A    between atoms: O_1  and  C_27
    3  A    between atoms: C_2  and  O_22
    4  A    between atoms: C_4  and  C_12
    5  A    between atoms: C_4  and  O_37
    6  A    between atoms: C_6  and  O_22
    7  A    between atoms: C_8  and  C_12
    8  A    between atoms: N_23  and  C_30
                            x       y       z     vdW  Elec       q    Type
                         _______ _______ _______ _____ _____    ______ ____

>  <TORSDO>
F 8

$$$$
=
 OpenBabel11112417343D

 37 41  0  0  1  0  0  0  0  0999 V2000
  190.5610  175.6620  144.7500 C   0  0  1  0  0  3  0  0  0  0  0  0
  187.6570  175.0110  142.4800 C   0  0  0  0  0  2  0  0  0  0  0  0
  192.8580  174.5470  144.9140 C   0  0  2  0  0  3  0  0  0  0  0  0
  189.9150  175.1230  143.5750 N   0  0  2  0  0  0  0  0  0  0  0  0
  191.3700  174.5170  145.3220 C   0  0  2  0  0  3  0  0  0  0  0  0
  188.5400  175.6620  143.5520 C   0  0  1  0  0  3  0  0  0  0  0  0
  193.4240  175.9140  145.1610 C   0  0  0  0  0  3  0  0  0  0  0  0
  190.7560  173.3320  144.8940 O   0  0  0  0  0  0  0  0  0  0  0  0
  190.6840  178.0840  143.9930 C   0  0  0  0  0  2  0  0  0  0  0  0
  192.7060  176.9930  144.8720 C   0  0  0  0  0  3  0  0  0  0  0  0
  189.5640  174.5500  141.0160 O   0  0  0  0  0  0  0  0  0  0  0  0
  188.2600  175.0740  141.0690 C   0  0  0  0  0  2  0  0  0  0  0  0
  191.3550  176.8590  144.4160 N   0  0  0  0  0  0  0  0  0  0  0  0
  189.8830  173.6730  143.8310 C   0  0  2  0  0  3  0  0  0  0  0  0
  188.5230  177.1260  143.3860 N   0  0  0  0  0  0  0  0  0  0  0  0
  189.4570  173.1910  141.3310 C   0  0  0  0  0  2  0  0  0  0  0  0
  190.2680  172.8470  142.5830 C   0  0  2  0  0  3  0  0  0  0  0  0
  189.7040  177.8120  142.8610 C   0  0  0  0  0  2  0  0  0  0  0  0
  186.6020  178.6220  142.9310 C   0  0  0  0  0  3  0  0  0  0  0  0
  187.3890  177.8960  143.8420 C   0  0  0  0  0  0  0  0  0  0  0  0
  187.0520  177.9320  145.2050 C   0  0  0  0  0  3  0  0  0  0  0  0
  185.6090  178.7040  147.0930 C   0  0  0  0  0  1  0  0  0  0  0  0
  185.1810  179.3920  144.7320 C   0  0  0  0  0  3  0  0  0  0  0  0
  185.9530  178.6760  145.6470 C   0  0  0  0  0  0  0  0  0  0  0  0
  185.5050  179.3660  143.3730 C   0  0  0  0  0  3  0  0  0  0  0  0
  190.0570  171.4820  142.8600 O   0  0  0  0  0  0  0  0  0  0  0  0
  191.2100  170.7310  142.5360 C   0  0  1  0  0  3  0  0  0  0  0  0
  192.9340  169.6250  143.1960 O   0  0  0  0  0  1  0  0  0  0  0  0
  191.9800  170.4030  143.6620 O   0  0  0  0  0  0  0  0  0  0  0  0
  190.8670  169.5010  141.7070 C   0  0  0  0  0  2  0  0  0  0  0  0
  190.9320  169.8100  140.2200 C   0  0  0  0  0  2  0  0  0  0  0  0
  191.8340  170.8490  139.9830 O   0  0  0  0  0  1  0  0  0  0  0  0
  193.0050  174.2000  143.5560 O   0  0  0  0  0  0  0  0  0  0  0  0
  194.0930  173.3090  143.4150 C   0  0  0  0  0  0  0  0  0  0  0  0
  193.9200  172.5130  142.2950 F   0  0  0  0  0  0  0  0  0  0  0  0
  195.3040  173.9800  143.3220 F   0  0  0  0  0  0  0  0  0  0  0  0
  194.1340  172.4900  144.5260 F   0  0  0  0  0  0  0  0  0  0  0  0
  1 13  1  6  0  0  0
  1  5  1  0  0  0  0
  2  6  1  0  0  0  0
  3 33  1  6  0  0  0
  3  7  1  0  0  0  0
  3  5  1  0  0  0  0
  4 14  1  0  0  0  0
  4  1  1  0  0  0  0
  6  4  1  0  0  0  0
  8  5  1  0  0  0  0
  9 13  1  0  0  0  0
 10  7  2  0  0  0  0
 11 12  1  0  0  0  0
 11 16  1  0  0  0  0
 12  2  1  0  0  0  0
 13 10  1  0  0  0  0
 14  8  1  0  0  0  0
 15  6  1  0  0  0  0
 15 20  1  0  0  0  0
 16 17  1  0  0  0  0
 17 26  1  0  0  0  0
 17 14  1  0  0  0  0
 18 15  1  0  0  0  0
 18  9  1  0  0  0  0
 19 25  2  0  0  0  0
 19 20  1  0  0  0  0
 20 21  2  0  0  0  0
 21 24  1  0  0  0  0
 23 24  2  0  0  0  0
 24 22  1  0  0  0  0
 25 23  1  0  0  0  0
 27 26  1  0  0  0  0
 27 29  1  0  0  0  0
 28 29  1  0  0  0  0
 30 27  1  0  0  0  0
 31 30  1  0  0  0  0
 32 31  1  0  0  0  0
 34 33  1  0  0  0  0
 34 37  1  0  0  0  0
 35 34  1  0  0  0  0
 36 34  1  0  0  0  0
M  END
>  <MODEL>
2

>  <REMARK>
 VINA RESULT:      -7.2      4.077      7.438
  Name = 
  8 active torsions:
  status: ('A' for Active; 'I' for Inactive)
    1  A    between atoms: O_1  and  C_4
    2  A    between atoms: O_1  and  C_27
    3  A    between atoms: C_2  and  O_22
    4  A    between atoms: C_4  and  C_12
    5  A    between atoms: C_4  and  O_37
    6  A    between atoms: C_6  and  O_22
    7  A    between atoms: C_8  and  C_12
    8  A    between atoms: N_23  and  C_30
                            x       y       z     vdW  Elec       q    Type
                         _______ _______ _______ _____ _____    ______ ____

>  <TORSDO>
F 8

$$$$
=
 OpenBabel11112417343D

 37 41  0  0  1  0  0  0  0  0999 V2000
  185.9570  177.0810  143.9690 C   0  0  1  0  0  3  0  0  0  0  0  0
  189.4580  176.2740  142.9180 C   0  0  0  0  0  2  0  0  0  0  0  0
  185.0340  178.0960  146.1280 C   0  0  2  0  0  3  0  0  0  0  0  0
  187.3980  177.1650  144.0460 N   0  0  2  0  0  0  0  0  0  0  0  0
  185.4950  176.8240  145.3870 C   0  0  2  0  0  3  0  0  0  0  0  0
  187.9370  176.4590  142.8650 C   0  0  1  0  0  3  0  0  0  0  0  0
  184.0700  178.8610  145.2710 C   0  0  0  0  0  3  0  0  0  0  0  0
  186.5620  176.2100  146.0570 O   0  0  0  0  0  0  0  0  0  0  0  0
  185.6350  178.5840  141.9470 C   0  0  0  0  0  2  0  0  0  0  0  0
  184.2880  178.9780  143.9670 C   0  0  0  0  0  3  0  0  0  0  0  0
  189.7790  178.2970  144.2580 O   0  0  0  0  0  0  0  0  0  0  0  0
  190.2270  177.5870  143.1310 C   0  0  0  0  0  2  0  0  0  0  0  0
  185.3880  178.2960  143.3550 N   0  0  0  0  0  0  0  0  0  0  0  0
  187.7230  176.4160  145.2720 C   0  0  2  0  0  3  0  0  0  0  0  0
  187.5610  177.1250  141.6060 N   0  0  0  0  0  0  0  0  0  0  0  0
  190.0660  177.4960  145.3690 C   0  0  0  0  0  2  0  0  0  0  0  0
  188.7890  177.1300  146.1320 C   0  0  2  0  0  3  0  0  0  0  0  0
  187.1210  178.5200  141.6230 C   0  0  0  0  0  2  0  0  0  0  0  0
  186.8190  176.8670  139.2570 C   0  0  0  0  0  3  0  0  0  0  0  0
  187.5200  176.3750  140.3720 C   0  0  0  0  0  0  0  0  0  0  0  0
  188.1800  175.1390  140.2640 C   0  0  0  0  0  3  0  0  0  0  0  0
  188.8450  173.1080  138.9720 C   0  0  0  0  0  1  0  0  0  0  0  0
  187.4410  174.9130  137.9710 C   0  0  0  0  0  3  0  0  0  0  0  0
  188.1410  174.4130  139.0700 C   0  0  0  0  0  0  0  0  0  0  0  0
  186.7790  176.1400  138.0640 C   0  0  0  0  0  3  0  0  0  0  0  0
  189.1610  176.2790  147.1920 O   0  0  0  0  0  0  0  0  0  0  0  0
  190.2000  175.4120  146.7850 C   0  0  1  0  0  3  0  0  0  0  0  0
  191.1910  176.4770  148.3710 O   0  0  0  0  0  1  0  0  0  0  0  0
  191.2430  175.3340  147.7200 O   0  0  0  0  0  0  0  0  0  0  0  0
  189.6700  174.0350  146.4120 C   0  0  0  0  0  2  0  0  0  0  0  0
  190.1760  173.6070  145.0430 C   0  0  0  0  0  2  0  0  0  0  0  0
  189.7030  172.3320  144.7310 O   0  0  0  0  0  1  0  0  0  0  0  0
  186.1420  178.9070  146.4520 O   0  0  0  0  0  0  0  0  0  0  0  0
  186.1210  179.1970  147.8350 C   0  0  0  0  0  0  0  0  0  0  0  0
  187.1990  178.6010  148.4680 F   0  0  0  0  0  0  0  0  0  0  0  0
  186.1410  180.5640  148.0780 F   0  0  0  0  0  0  0  0  0  0  0  0
  184.9610  178.6770  148.3740 F   0  0  0  0  0  0  0  0  0  0  0  0
  1 13  1  1  0  0  0
  1  4  1  0  0  0  0
  1  5  1  0  0  0  0
  2 12  1  0  0  0  0
  3 33  1  6  0  0  0
  4 14  1  0  0  0  0
  5  8  1  0  0  0  0
  5  3  1  0  0  0  0
  6  2  1  0  0  0  0
  6  4  1  0  0  0  0
  7  3  1  0  0  0  0
  9 13  1  0  0  0  0
 10  7  2  0  0  0  0
 11 16  1  0  0  0  0
 12 11  1  0  0  0  0
 13 10  1  0  0  0  0
 14  8  1  0  0  0  0
 14 17  1  0  0  0  0
 15 18  1  0  0  0  0
 15  6  1  0  0  0  0
 16 17  1  0  0  0  0
 17 26  1  0  0  0  0
 18  9  1  0  0  0  0
 19 20  1  0  0  0  0
 20 15  1  0  0  0  0
 21 20  2  0  0  0  0
 22 24  1  0  0  0  0
 23 25  1  0  0  0  0
 23 24  2  0  0  0  0
 24 21  1  0  0  0  0
 25 19  2  0  0  0  0
 27 26  1  0  0  0  0
 27 29  1  0  0  0  0
 29 28  1  0  0  0  0
 30 27  1  0  0  0  0
 31 30  1  0  0  0  0
 32 31  1  0  0  0  0
 33 34  1  0  0  0  0
 34 36  1  0  0  0  0
 34 37  1  0  0  0  0
 34 35  1  0  0  0  0
M  END
>  <MODEL>
3

>  <REMARK>
 VINA RESULT:      -7.2      3.376      6.593
  Name = 
  8 active torsions:
  status: ('A' for Active; 'I' for Inactive)
    1  A    between atoms: O_1  and  C_4
    2  A    between atoms: O_1  and  C_27
    3  A    between atoms: C_2  and  O_22
    4  A    between atoms: C_4  and  C_12
    5  A    between atoms: C_4  and  O_37
    6  A    between atoms: C_6  and  O_22
    7  A    between atoms: C_8  and  C_12
    8  A    between atoms: N_23  and  C_30
                            x       y       z     vdW  Elec       q    Type
                         _______ _______ _______ _____ _____    ______ ____

>  <TORSDO>
F 8

$$$$
=
 OpenBabel11112417343D

 37 41  0  0  1  0  0  0  0  0999 V2000
  191.2660  173.4730  143.1780 C   0  0  1  0  0  3  0  0  0  0  0  0
  192.4120  174.9790  146.4080 C   0  0  0  0  0  2  0  0  0  0  0  0
  189.2970  174.0510  141.6510 C   0  0  2  0  0  3  0  0  0  0  0  0
  191.3270  174.5000  144.1930 N   0  0  2  0  0  0  0  0  0  0  0  0
  189.7910  173.2800  142.8920 C   0  0  2  0  0  3  0  0  0  0  0  0
  192.3760  174.0970  145.1530 C   0  0  1  0  0  3  0  0  0  0  0  0
  190.2110  173.7870  140.4920 C   0  0  0  0  0  3  0  0  0  0  0  0
  189.0990  173.6830  144.0430 O   0  0  0  0  0  0  0  0  0  0  0  0
  193.5230  173.9200  142.1020 C   0  0  0  0  0  2  0  0  0  0  0  0
  191.5250  173.7400  140.6790 C   0  0  0  0  0  3  0  0  0  0  0  0
  191.5540  176.9320  145.2080 O   0  0  0  0  0  0  0  0  0  0  0  0
  192.5420  176.4770  146.0990 C   0  0  0  0  0  2  0  0  0  0  0  0
  192.0700  173.8450  141.9990 N   0  0  0  0  0  0  0  0  0  0  0  0
  190.0040  174.4320  144.8360 C   0  0  2  0  0  3  0  0  0  0  0  0
  193.7110  174.0650  144.5310 N   0  0  0  0  0  0  0  0  0  0  0  0
  190.3280  176.7770  145.8650 C   0  0  0  0  0  2  0  0  0  0  0  0
  189.4020  175.8310  145.0940 C   0  0  2  0  0  3  0  0  0  0  0  0
  193.9480  174.7850  143.2790 C   0  0  0  0  0  2  0  0  0  0  0  0
  195.9730  173.8000  145.5030 C   0  0  0  0  0  3  0  0  0  0  0  0
  194.7530  173.2370  145.0910 C   0  0  0  0  0  0  0  0  0  0  0  0
  194.5660  171.8510  145.2340 C   0  0  0  0  0  3  0  0  0  0  0  0
  195.3610  169.5860  145.9230 C   0  0  0  0  0  1  0  0  0  0  0  0
  196.7810  171.6230  146.1830 C   0  0  0  0  0  3  0  0  0  0  0  0
  195.5750  171.0490  145.7770 C   0  0  0  0  0  0  0  0  0  0  0  0
  196.9810  172.9990  146.0450 C   0  0  0  0  0  3  0  0  0  0  0  0
  188.2230  175.6860  145.8510 O   0  0  0  0  0  0  0  0  0  0  0  0
  187.6060  176.9430  146.0450 C   0  0  1  0  0  3  0  0  0  0  0  0
  185.9070  176.7260  144.7440 O   0  0  0  0  0  1  0  0  0  0  0  0
  187.0040  177.4400  144.8800 O   0  0  0  0  0  0  0  0  0  0  0  0
  186.6370  176.9190  147.2190 C   0  0  0  0  0  2  0  0  0  0  0  0
  186.4030  178.3200  147.7620 C   0  0  0  0  0  2  0  0  0  0  0  0
  185.0880  178.7170  147.5190 O   0  0  0  0  0  1  0  0  0  0  0  0
  189.2420  175.4340  141.9180 O   0  0  0  0  0  0  0  0  0  0  0  0
  187.9530  175.9210  141.6020 C   0  0  0  0  0  0  0  0  0  0  0  0
  187.7280  175.8350  140.2380 F   0  0  0  0  0  0  0  0  0  0  0  0
  186.9580  175.2310  142.2790 F   0  0  0  0  0  0  0  0  0  0  0  0
  187.8860  177.2520  141.9680 F   0  0  0  0  0  0  0  0  0  0  0  0
  1 13  1  6  0  0  0
  1  4  1  0  0  0  0
  3 33  1  1  0  0  0
  3  5  1  0  0  0  0
  4 14  1  0  0  0  0
  4  6  1  0  0  0  0
  5  1  1  0  0  0  0
  5  8  1  0  0  0  0
  6  2  1  0  0  0  0
  7 10  2  0  0  0  0
  7  3  1  0  0  0  0
  8 14  1  0  0  0  0
  9 18  1  0  0  0  0
 10 13  1  0  0  0  0
 11 16  1  0  0  0  0
 11 12  1  0  0  0  0
 12  2  1  0  0  0  0
 13  9  1  0  0  0  0
 14 17  1  0  0  0  0
 15 20  1  0  0  0  0
 15  6  1  0  0  0  0
 17 26  1  0  0  0  0
 17 16  1  0  0  0  0
 18 15  1  0  0  0  0
 19 25  1  0  0  0  0
 20 21  1  0  0  0  0
 20 19  2  0  0  0  0
 21 24  2  0  0  0  0
 24 22  1  0  0  0  0
 24 23  1  0  0  0  0
 25 23  2  0  0  0  0
 26 27  1  0  0  0  0
 27 30  1  0  0  0  0
 28 29  1  0  0  0  0
 29 27  1  0  0  0  0
 30 31  1  0  0  0  0
 32 31  1  0  0  0  0
 34 33  1  0  0  0  0
 34 37  1  0  0  0  0
 34 36  1  0  0  0  0
 35 34  1  0  0  0  0
M  END
>  <MODEL>
4

>  <REMARK>
 VINA RESULT:      -7.1      2.519      5.352
  Name = 
  8 active torsions:
  status: ('A' for Active; 'I' for Inactive)
    1  A    between atoms: O_1  and  C_4
    2  A    between atoms: O_1  and  C_27
    3  A    between atoms: C_2  and  O_22
    4  A    between atoms: C_4  and  C_12
    5  A    between atoms: C_4  and  O_37
    6  A    between atoms: C_6  and  O_22
    7  A    between atoms: C_8  and  C_12
    8  A    between atoms: N_23  and  C_30
                            x       y       z     vdW  Elec       q    Type
                         _______ _______ _______ _____ _____    ______ ____

>  <TORSDO>
F 8

$$$$
=
 OpenBabel11112417343D

 37 41  0  0  1  0  0  0  0  0999 V2000
  191.0690  176.6640  144.8360 C   0  0  1  0  0  3  0  0  0  0  0  0
  191.6980  174.7930  141.6560 C   0  0  0  0  0  2  0  0  0  0  0  0
  188.9120  177.5960  145.8480 C   0  0  2  0  0  3  0  0  0  0  0  0
  190.6890  175.8800  143.6830 N   0  0  2  0  0  0  0  0  0  0  0  0
  190.0890  177.8180  144.8760 C   0  0  2  0  0  3  0  0  0  0  0  0
  191.9380  175.4530  143.0190 C   0  0  1  0  0  3  0  0  0  0  0  0
  189.4330  177.1550  147.1840 C   0  0  0  0  0  3  0  0  0  0  0  0
  189.6300  178.0060  143.5650 O   0  0  0  0  0  0  0  0  0  0  0  0
  192.0810  174.7830  146.2110 C   0  0  0  0  0  2  0  0  0  0  0  0
  190.4340  176.2850  147.2520 C   0  0  0  0  0  3  0  0  0  0  0  0
  189.4900  173.9630  142.3100 O   0  0  0  0  0  0  0  0  0  0  0  0
  190.7140  173.6150  141.7110 C   0  0  0  0  0  2  0  0  0  0  0  0
  191.0840  175.8380  146.0570 N   0  0  0  0  0  0  0  0  0  0  0  0
  189.9690  176.8430  142.8310 C   0  0  2  0  0  3  0  0  0  0  0  0
  192.7370  174.5560  143.8720 N   0  0  0  0  0  0  0  0  0  0  0  0
  188.9010  174.9210  141.4780 C   0  0  0  0  0  2  0  0  0  0  0  0
  188.6830  176.2420  142.2220 C   0  0  2  0  0  3  0  0  0  0  0  0
  192.1050  173.8660  144.9970 C   0  0  0  0  0  2  0  0  0  0  0  0
  194.7830  173.1800  143.6390 C   0  0  0  0  0  3  0  0  0  0  0  0
  194.1620  174.4410  143.6690 C   0  0  0  0  0  0  0  0  0  0  0  0
  194.9550  175.5890  143.4980 C   0  0  0  0  0  3  0  0  0  0  0  0
  197.1590  176.7010  143.1200 C   0  0  0  0  0  1  0  0  0  0  0  0
  196.9380  174.2190  143.2730 C   0  0  0  0  0  3  0  0  0  0  0  0
  196.3350  175.4780  143.3000 C   0  0  0  0  0  0  0  0  0  0  0  0
  196.1620  173.0690  143.4420 C   0  0  0  0  0  3  0  0  0  0  0  0
  188.1450  177.1610  141.3000 O   0  0  0  0  0  0  0  0  0  0  0  0
  186.7920  177.4310  141.6070 C   0  0  1  0  0  3  0  0  0  0  0  0
  185.3450  178.7700  142.4690 O   0  0  0  0  0  1  0  0  0  0  0  0
  186.6370  178.5240  142.4730 O   0  0  0  0  0  0  0  0  0  0  0  0
  185.9480  177.5810  140.3490 C   0  0  0  0  0  2  0  0  0  0  0  0
  186.7400  177.1910  139.1110 C   0  0  0  0  0  2  0  0  0  0  0  0
  185.9380  176.4580  138.2360 O   0  0  0  0  0  1  0  0  0  0  0  0
  188.0220  176.6310  145.3330 O   0  0  0  0  0  0  0  0  0  0  0  0
  186.6950  177.0040  145.6450 C   0  0  0  0  0  0  0  0  0  0  0  0
  185.8190  176.5000  144.6990 F   0  0  0  0  0  0  0  0  0  0  0  0
  186.3150  176.5650  146.9060 F   0  0  0  0  0  0  0  0  0  0  0  0
  186.6110  178.3830  145.6200 F   0  0  0  0  0  0  0  0  0  0  0  0
  1  5  1  0  0  0  0
  1 13  1  1  0  0  0
  2 12  1  0  0  0  0
  2  6  1  0  0  0  0
  3 33  1  6  0  0  0
  3  7  1  0  0  0  0
  4  1  1  0  0  0  0
  5  3  1  0  0  0  0
  6  4  1  0  0  0  0
  6 15  1  0  0  0  0
  7 10  2  0  0  0  0
  8  5  1  0  0  0  0
 12 11  1  0  0  0  0
 13  9  1  0  0  0  0
 13 10  1  0  0  0  0
 14  8  1  0  0  0  0
 14  4  1  0  0  0  0
 15 18  1  0  0  0  0
 16 17  1  0  0  0  0
 16 11  1  0  0  0  0
 17 14  1  0  0  0  0
 18  9  1  0  0  0  0
 19 20  1  0  0  0  0
 20 15  1  0  0  0  0
 21 20  2  0  0  0  0
 22 24  1  0  0  0  0
 23 24  2  0  0  0  0
 23 25  1  0  0  0  0
 24 21  1  0  0  0  0
 25 19  2  0  0  0  0
 26 27  1  0  0  0  0
 26 17  1  0  0  0  0
 27 29  1  0  0  0  0
 28 29  1  0  0  0  0
 30 27  1  0  0  0  0
 31 30  1  0  0  0  0
 32 31  1  0  0  0  0
 33 34  1  0  0  0  0
 34 36  1  0  0  0  0
 35 34  1  0  0  0  0
 37 34  1  0  0  0  0
M  END
>  <MODEL>
5

>  <REMARK>
 VINA RESULT:      -7.1      1.867      2.170
  Name = 
  8 active torsions:
  status: ('A' for Active; 'I' for Inactive)
    1  A    between atoms: O_1  and  C_4
    2  A    between atoms: O_1  and  C_27
    3  A    between atoms: C_2  and  O_22
    4  A    between atoms: C_4  and  C_12
    5  A    between atoms: C_4  and  O_37
    6  A    between atoms: C_6  and  O_22
    7  A    between atoms: C_8  and  C_12
    8  A    between atoms: N_23  and  C_30
                            x       y       z     vdW  Elec       q    Type
                         _______ _______ _______ _____ _____    ______ ____

>  <TORSDO>
F 8

$$$$
=
 OpenBabel11112417343D

 37 41  0  0  1  0  0  0  0  0999 V2000
  190.2250  174.0420  142.7840 C   0  0  1  0  0  3  0  0  0  0  0  0
  192.3950  175.8610  145.2330 C   0  0  0  0  0  2  0  0  0  0  0  0
  188.1760  174.8030  141.4540 C   0  0  2  0  0  3  0  0  0  0  0  0
  190.7630  175.2150  143.4350 N   0  0  2  0  0  0  0  0  0  0  0  0
  188.7230  174.2400  142.7820 C   0  0  2  0  0  3  0  0  0  0  0  0
  191.8630  174.7580  144.3090 C   0  0  1  0  0  3  0  0  0  0  0  0
  188.7160  174.0060  140.3040 C   0  0  0  0  0  3  0  0  0  0  0  0
  188.4250  175.0960  143.8520 O   0  0  0  0  0  0  0  0  0  0  0  0
  192.2270  173.5170  141.3120 C   0  0  0  0  0  2  0  0  0  0  0  0
  189.9840  173.6120  140.3060 C   0  0  0  0  0  3  0  0  0  0  0  0
  191.8090  177.6350  143.6510 O   0  0  0  0  0  0  0  0  0  0  0  0
  192.8240  177.1320  144.4840 C   0  0  0  0  0  2  0  0  0  0  0  0
  190.8150  173.8610  141.4450 N   0  0  0  0  0  0  0  0  0  0  0  0
  189.6400  175.7050  144.2520 C   0  0  2  0  0  3  0  0  0  0  0  0
  192.9760  174.1770  143.5390 N   0  0  0  0  0  0  0  0  0  0  0  0
  190.7590  178.0180  144.4930 C   0  0  0  0  0  2  0  0  0  0  0  0
  189.4800  177.2390  144.1730 C   0  0  2  0  0  3  0  0  0  0  0  0
  193.1040  174.4700  142.1110 C   0  0  0  0  0  2  0  0  0  0  0  0
  193.3830  172.0530  144.7450 C   0  0  0  0  0  3  0  0  0  0  0  0
  193.8750  173.2330  144.1610 C   0  0  0  0  0  0  0  0  0  0  0  0
  195.2590  173.4770  144.1920 C   0  0  0  0  0  3  0  0  0  0  0  0
  197.5900  172.8350  144.8170 C   0  0  0  0  0  1  0  0  0  0  0  0
  195.6270  171.3950  145.3700 C   0  0  0  0  0  3  0  0  0  0  0  0
  196.1290  172.5630  144.7930 C   0  0  0  0  0  0  0  0  0  0  0  0
  194.2530  171.1400  145.3470 C   0  0  0  0  0  3  0  0  0  0  0  0
  188.4990  177.6420  145.1010 O   0  0  0  0  0  0  0  0  0  0  0  0
  188.7280  177.0310  146.3550 C   0  0  1  0  0  3  0  0  0  0  0  0
  190.3670  177.1950  147.7390 O   0  0  0  0  0  1  0  0  0  0  0  0
  189.3510  177.8890  147.2730 O   0  0  0  0  0  0  0  0  0  0  0  0
  187.4560  176.4180  146.9240 C   0  0  0  0  0  2  0  0  0  0  0  0
  186.2640  177.3360  146.7050 C   0  0  0  0  0  2  0  0  0  0  0  0
  185.3330  176.7240  145.8650 O   0  0  0  0  0  1  0  0  0  0  0  0
  188.5290  176.1600  141.3100 O   0  0  0  0  0  0  0  0  0  0  0  0
  187.3580  176.9340  141.1480 C   0  0  0  0  0  0  0  0  0  0  0  0
  186.3200  176.3970  141.8910 F   0  0  0  0  0  0  0  0  0  0  0  0
  187.5550  178.2570  141.5200 F   0  0  0  0  0  0  0  0  0  0  0  0
  186.9950  176.9060  139.8150 F   0  0  0  0  0  0  0  0  0  0  0  0
  1 13  1  6  0  0  0
  1  4  1  0  0  0  0
  3 33  1  6  0  0  0
  3  5  1  0  0  0  0
  4 14  1  0  0  0  0
  4  6  1  0  0  0  0
  5  1  1  0  0  0  0
  5  8  1  0  0  0  0
  6  2  1  0  0  0  0
  7 10  2  0  0  0  0
  7  3  1  0  0  0  0
  8 14  1  0  0  0  0
  9 13  1  0  0  0  0
  9 18  1  0  0  0  0
 10 13  1  0  0  0  0
 11 12  1  0  0  0  0
 11 16  1  0  0  0  0
 12  2  1  0  0  0  0
 15 20  1  0  0  0  0
 15  6  1  0  0  0  0
 17 14  1  0  0  0  0
 17 16  1  0  0  0  0
 17 26  1  0  0  0  0
 18 15  1  0  0  0  0
 19 25  1  0  0  0  0
 20 21  1  0  0  0  0
 20 19  2  0  0  0  0
 21 24  2  0  0  0  0
 24 22  1  0  0  0  0
 24 23  1  0  0  0  0
 25 23  2  0  0  0  0
 26 27  1  0  0  0  0
 27 30  1  0  0  0  0
 27 29  1  0  0  0  0
 29 28  1  0  0  0  0
 31 30  1  0  0  0  0
 32 31  1  0  0  0  0
 34 33  1  0  0  0  0
 34 36  1  0  0  0  0
 34 35  1  0  0  0  0
 37 34  1  0  0  0  0
M  END
>  <MODEL>
6

>  <REMARK>
 VINA RESULT:      -6.6      2.290      5.064
  Name = 
  8 active torsions:
  status: ('A' for Active; 'I' for Inactive)
    1  A    between atoms: O_1  and  C_4
    2  A    between atoms: O_1  and  C_27
    3  A    between atoms: C_2  and  O_22
    4  A    between atoms: C_4  and  C_12
    5  A    between atoms: C_4  and  O_37
    6  A    between atoms: C_6  and  O_22
    7  A    between atoms: C_8  and  C_12
    8  A    between atoms: N_23  and  C_30
                            x       y       z     vdW  Elec       q    Type
                         _______ _______ _______ _____ _____    ______ ____

>  <TORSDO>
F 8

$$$$
=
 OpenBabel11112417343D

 37 41  0  0  1  0  0  0  0  0999 V2000
  190.9270  175.2170  142.3140 C   0  0  1  0  0  3  0  0  0  0  0  0
  190.6560  177.2770  145.4280 C   0  0  0  0  0  2  0  0  0  0  0  0
  192.6350  173.4510  141.6010 C   0  0  2  0  0  3  0  0  0  0  0  0
  191.2160  175.5510  143.6900 N   0  0  2  0  0  0  0  0  0  0  0  0
  192.2740  174.9490  141.6760 C   0  0  2  0  0  3  0  0  0  0  0  0
  190.3200  176.6660  144.0620 C   0  0  1  0  0  3  0  0  0  0  0  0
  191.4880  172.6810  141.0180 C   0  0  0  0  0  3  0  0  0  0  0  0
  193.2250  175.6590  142.4220 O   0  0  0  0  0  0  0  0  0  0  0  0
  188.6010  174.2620  142.6750 C   0  0  0  0  0  2  0  0  0  0  0  0
  190.2420  172.9760  141.3700 C   0  0  0  0  0  3  0  0  0  0  0  0
  191.5580  175.1690  146.2850 O   0  0  0  0  0  0  0  0  0  0  0  0
  190.7000  176.2470  146.5660 C   0  0  0  0  0  2  0  0  0  0  0  0
  189.9800  174.0900  142.2310 N   0  0  0  0  0  0  0  0  0  0  0  0
  192.6110  176.0210  143.6470 C   0  0  2  0  0  3  0  0  0  0  0  0
  188.9020  176.2670  144.0330 N   0  0  0  0  0  0  0  0  0  0  0  0
  192.8480  175.7040  146.1980 C   0  0  0  0  0  2  0  0  0  0  0  0
  193.4560  175.4610  144.8130 C   0  0  2  0  0  3  0  0  0  0  0  0
  188.5430  174.8490  144.0780 C   0  0  0  0  0  2  0  0  0  0  0  0
  187.6540  177.8450  142.5890 C   0  0  0  0  0  3  0  0  0  0  0  0
  187.8710  177.2620  143.8500 C   0  0  0  0  0  0  0  0  0  0  0  0
  187.0660  177.6650  144.9290 C   0  0  0  0  0  3  0  0  0  0  0  0
  185.2240  179.0430  145.9020 C   0  0  0  0  0  1  0  0  0  0  0  0
  185.8630  179.1980  143.4940 C   0  0  0  0  0  3  0  0  0  0  0  0
  186.0670  178.6280  144.7510 C   0  0  0  0  0  0  0  0  0  0  0  0
  186.6570  178.8070  142.4120 C   0  0  0  0  0  3  0  0  0  0  0  0
  194.7220  176.0800  144.7950 O   0  0  0  0  0  0  0  0  0  0  0  0
  195.7320  175.1240  144.5410 C   0  0  1  0  0  3  0  0  0  0  0  0
  196.4560  176.8660  143.5070 O   0  0  0  0  0  1  0  0  0  0  0  0
  196.8490  175.6710  143.8940 O   0  0  0  0  0  0  0  0  0  0  0  0
  196.1220  174.3690  145.8050 C   0  0  0  0  0  2  0  0  0  0  0  0
  197.1920  173.3300  145.5110 C   0  0  0  0  0  2  0  0  0  0  0  0
  196.8770  172.1240  146.1380 O   0  0  0  0  0  1  0  0  0  0  0  0
  192.9490  172.9540  142.8830 O   0  0  0  0  0  0  0  0  0  0  0  0
  194.1430  172.2010  142.8140 C   0  0  0  0  0  0  0  0  0  0  0  0
  194.5900  171.8910  144.0870 F   0  0  0  0  0  0  0  0  0  0  0  0
  193.9760  171.0320  142.0850 F   0  0  0  0  0  0  0  0  0  0  0  0
  195.1080  172.9680  142.1910 F   0  0  0  0  0  0  0  0  0  0  0  0
  1 13  1  1  0  0  0
  1  4  1  0  0  0  0
  2 12  1  0  0  0  0
  3  5  1  0  0  0  0
  3 33  1  1  0  0  0
  4  6  1  0  0  0  0
  5  1  1  0  0  0  0
  5  8  1  0  0  0  0
  6  2  1  0  0  0  0
  7 10  2  0  0  0  0
  7  3  1  0  0  0  0
  8 14  1  0  0  0  0
  9 18  1  0  0  0  0
 10 13  1  0  0  0  0
 11 12  1  0  0  0  0
 13  9  1  0  0  0  0
 14  4  1  0  0  0  0
 14 17  1  0  0  0  0
 15  6  1  0  0  0  0
 15 18  1  0  0  0  0
 16 11  1  0  0  0  0
 17 16  1  0  0  0  0
 19 20  1  0  0  0  0
 20 15  1  0  0  0  0
 20 21  2  0  0  0  0
 23 24  2  0  0  0  0
 24 21  1  0  0  0  0
 24 22  1  0  0  0  0
 25 19  2  0  0  0  0
 25 23  1  0  0  0  0
 26 17  1  0  0  0  0
 27 26  1  0  0  0  0
 27 30  1  0  0  0  0
 28 29  1  0  0  0  0
 29 27  1  0  0  0  0
 31 30  1  0  0  0  0
 31 32  1  0  0  0  0
 34 33  1  0  0  0  0
 34 35  1  0  0  0  0
 36 34  1  0  0  0  0
 37 34  1  0  0  0  0
M  END
>  <MODEL>
7

>  <REMARK>
 VINA RESULT:      -6.6      4.874      8.503
  Name = 
  8 active torsions:
  status: ('A' for Active; 'I' for Inactive)
    1  A    between atoms: O_1  and  C_4
    2  A    between atoms: O_1  and  C_27
    3  A    between atoms: C_2  and  O_22
    4  A    between atoms: C_4  and  C_12
    5  A    between atoms: C_4  and  O_37
    6  A    between atoms: C_6  and  O_22
    7  A    between atoms: C_8  and  C_12
    8  A    between atoms: N_23  and  C_30
                            x       y       z     vdW  Elec       q    Type
                         _______ _______ _______ _____ _____    ______ ____

>  <TORSDO>
F 8

$$$$
=
 OpenBabel11112417343D

 37 41  0  0  1  0  0  0  0  0999 V2000
  190.8430  175.7870  142.6050 C   0  0  1  0  0  3  0  0  0  0  0  0
  190.2490  177.5410  145.8580 C   0  0  0  0  0  2  0  0  0  0  0  0
  192.7320  174.2410  141.8410 C   0  0  2  0  0  3  0  0  0  0  0  0
  191.0380  176.0250  144.0170 N   0  0  2  0  0  0  0  0  0  0  0  0
  192.2360  175.6910  142.0190 C   0  0  2  0  0  3  0  0  0  0  0  0
  190.0310  177.0230  144.4310 C   0  0  1  0  0  3  0  0  0  0  0  0
  191.6870  173.4290  141.1360 C   0  0  0  0  0  3  0  0  0  0  0  0
  193.0850  176.4120  142.8700 O   0  0  0  0  0  0  0  0  0  0  0  0
  188.5980  174.6100  142.7630 C   0  0  0  0  0  2  0  0  0  0  0  0
  190.4050  173.5860  141.4450 C   0  0  0  0  0  3  0  0  0  0  0  0
  191.2950  175.4510  146.5860 O   0  0  0  0  0  0  0  0  0  0  0  0
  190.3320  176.4240  146.9090 C   0  0  0  0  0  2  0  0  0  0  0  0
  190.0050  174.5950  142.3790 N   0  0  0  0  0  0  0  0  0  0  0  0
  192.3870  176.6130  144.0860 C   0  0  2  0  0  3  0  0  0  0  0  0
  188.6570  176.5090  144.2950 N   0  0  0  0  0  0  0  0  0  0  0  0
  192.5350  176.0990  146.6110 C   0  0  0  0  0  2  0  0  0  0  0  0
  193.2240  176.0290  145.2460 C   0  0  2  0  0  3  0  0  0  0  0  0
  188.4240  175.0670  144.2040 C   0  0  0  0  0  2  0  0  0  0  0  0
  187.3860  178.1540  142.9490 C   0  0  0  0  0  3  0  0  0  0  0  0
  187.5510  177.4250  144.1390 C   0  0  0  0  0  0  0  0  0  0  0  0
  186.6180  177.6030  145.1750 C   0  0  0  0  0  3  0  0  0  0  0  0
  184.5690  178.6660  146.1290 C   0  0  0  0  0  1  0  0  0  0  0  0
  185.3960  179.2070  143.8370 C   0  0  0  0  0  3  0  0  0  0  0  0
  185.5470  178.4890  145.0240 C   0  0  0  0  0  0  0  0  0  0  0  0
  186.3160  179.0410  142.7980 C   0  0  0  0  0  3  0  0  0  0  0  0
  194.4300  176.7530  145.3450 O   0  0  0  0  0  0  0  0  0  0  0  0
  195.5330  175.8690  145.3640 C   0  0  1  0  0  3  0  0  0  0  0  0
  196.4420  174.0790  146.1370 O   0  0  0  0  0  1  0  0  0  0  0  0
  195.2850  174.7040  146.1050 O   0  0  0  0  0  0  0  0  0  0  0  0
  196.0240  175.5520  143.9580 C   0  0  0  0  0  2  0  0  0  0  0  0
  196.6760  176.7680  143.3210 C   0  0  0  0  0  2  0  0  0  0  0  0
  196.4180  176.7910  141.9500 O   0  0  0  0  0  1  0  0  0  0  0  0
  193.0310  173.6640  143.0920 O   0  0  0  0  0  0  0  0  0  0  0  0
  194.0090  172.6580  142.9230 C   0  0  0  0  0  0  0  0  0  0  0  0
  194.7240  172.4800  144.0950 F   0  0  0  0  0  0  0  0  0  0  0  0
  193.4480  171.4490  142.5370 F   0  0  0  0  0  0  0  0  0  0  0  0
  194.8890  173.0650  141.9380 F   0  0  0  0  0  0  0  0  0  0  0  0
  1 13  1  1  0  0  0
  1  4  1  0  0  0  0
  2 12  1  0  0  0  0
  3  5  1  0  0  0  0
  3 33  1  1  0  0  0
  4 14  1  0  0  0  0
  4  6  1  0  0  0  0
  5  1  1  0  0  0  0
  5  8  1  0  0  0  0
  6  2  1  0  0  0  0
  7 10  2  0  0  0  0
  7  3  1  0  0  0  0
  8 14  1  0  0  0  0
  9 18  1  0  0  0  0
 10 13  1  0  0  0  0
 11 16  1  0  0  0  0
 11 12  1  0  0  0  0
 13  9  1  0  0  0  0
 14 17  1  0  0  0  0
 15  6  1  0  0  0  0
 17 26  1  0  0  0  0
 17 16  1  0  0  0  0
 18 15  1  0  0  0  0
 19 20  1  0  0  0  0
 20 15  1  0  0  0  0
 20 21  2  0  0  0  0
 23 24  2  0  0  0  0
 24 21  1  0  0  0  0
 24 22  1  0  0  0  0
 25 19  2  0  0  0  0
 25 23  1  0  0  0  0
 26 27  1  0  0  0  0
 27 29  1  0  0  0  0
 29 28  1  0  0  0  0
 30 27  1  0  0  0  0
 31 30  1  0  0  0  0
 32 31  1  0  0  0  0
 34 33  1  0  0  0  0
 34 35  1  0  0  0  0
 36 34  1  0  0  0  0
 37 34  1  0  0  0  0
M  END
>  <MODEL>
8

>  <REMARK>
 VINA RESULT:      -6.6      4.793      8.282
  Name = 
  8 active torsions:
  status: ('A' for Active; 'I' for Inactive)
    1  A    between atoms: O_1  and  C_4
    2  A    between atoms: O_1  and  C_27
    3  A    between atoms: C_2  and  O_22
    4  A    between atoms: C_4  and  C_12
    5  A    between atoms: C_4  and  O_37
    6  A    between atoms: C_6  and  O_22
    7  A    between atoms: C_8  and  C_12
    8  A    between atoms: N_23  and  C_30
                            x       y       z     vdW  Elec       q    Type
                         _______ _______ _______ _____ _____    ______ ____

>  <TORSDO>
F 8

$$$$
=
 OpenBabel11112417343D

 37 41  0  0  1  0  0  0  0  0999 V2000
  191.2670  172.4300  143.6350 C   0  0  1  0  0  3  0  0  0  0  0  0
  193.6020  174.4450  145.7580 C   0  0  0  0  0  2  0  0  0  0  0  0
  189.2340  173.1170  142.2430 C   0  0  2  0  0  3  0  0  0  0  0  0
  191.8900  173.6490  144.0990 N   0  0  2  0  0  0  0  0  0  0  0  0
  189.7810  172.7190  143.6290 C   0  0  2  0  0  3  0  0  0  0  0  0
  192.9830  173.2550  145.0130 C   0  0  1  0  0  3  0  0  0  0  0  0
  189.6970  172.1310  141.2120 C   0  0  0  0  0  3  0  0  0  0  0  0
  189.5610  173.7360  144.5680 O   0  0  0  0  0  0  0  0  0  0  0  0
  193.1970  171.5760  142.2220 C   0  0  0  0  0  2  0  0  0  0  0  0
  190.9400  171.6640  141.2500 C   0  0  0  0  0  3  0  0  0  0  0  0
  193.0820  176.0050  143.9450 O   0  0  0  0  0  0  0  0  0  0  0  0
  194.0860  175.5650  144.8260 C   0  0  0  0  0  2  0  0  0  0  0  0
  191.8120  172.0220  142.3270 N   0  0  0  0  0  0  0  0  0  0  0  0
  190.8190  174.3200  144.8560 C   0  0  2  0  0  3  0  0  0  0  0  0
  194.0400  172.5020  144.3160 N   0  0  0  0  0  0  0  0  0  0  0  0
  192.0790  176.5700  144.7400 C   0  0  0  0  0  2  0  0  0  0  0  0
  190.7480  175.8340  144.5580 C   0  0  2  0  0  3  0  0  0  0  0  0
  194.1490  172.5780  142.8600 C   0  0  0  0  0  2  0  0  0  0  0  0
  196.2920  171.7810  145.0530 C   0  0  0  0  0  3  0  0  0  0  0  0
  194.8970  171.6030  145.0540 C   0  0  0  0  0  0  0  0  0  0  0  0
  194.3520  170.5350  145.7870 C   0  0  0  0  0  3  0  0  0  0  0  0
  194.5900  168.5420  147.2730 C   0  0  0  0  0  1  0  0  0  0  0  0
  196.5650  169.8540  146.4920 C   0  0  0  0  0  3  0  0  0  0  0  0
  195.1820  169.6660  146.5020 C   0  0  0  0  0  0  0  0  0  0  0  0
  197.1210  170.9110  145.7670 C   0  0  0  0  0  3  0  0  0  0  0  0
  189.8160  176.4260  145.4330 O   0  0  0  0  0  0  0  0  0  0  0  0
  189.8550  175.7900  146.6950 C   0  0  1  0  0  3  0  0  0  0  0  0
  191.1960  175.4760  148.3490 O   0  0  0  0  0  1  0  0  0  0  0  0
  190.6980  176.4420  147.6070 O   0  0  0  0  0  0  0  0  0  0  0  0
  188.4590  175.5810  147.2640 C   0  0  0  0  0  2  0  0  0  0  0  0
  187.4480  176.4840  146.5750 C   0  0  0  0  0  2  0  0  0  0  0  0
  186.4000  176.7850  147.4460 O   0  0  0  0  0  1  0  0  0  0  0  0
  189.6630  174.4150  141.8970 O   0  0  0  0  0  0  0  0  0  0  0  0
  188.5380  175.2150  141.5940 C   0  0  0  0  0  0  0  0  0  0  0  0
  188.7870  176.5380  141.9160 F   0  0  0  0  0  0  0  0  0  0  0  0
  188.1840  175.1240  140.2550 F   0  0  0  0  0  0  0  0  0  0  0  0
  187.4720  174.7780  142.3560 F   0  0  0  0  0  0  0  0  0  0  0  0
  1 13  1  6  0  0  0
  1  4  1  0  0  0  0
  3 33  1  6  0  0  0
  3  5  1  0  0  0  0
  4 14  1  0  0  0  0
  4  6  1  0  0  0  0
  5  1  1  0  0  0  0
  5  8  1  0  0  0  0
  6  2  1  0  0  0  0
  7 10  2  0  0  0  0
  7  3  1  0  0  0  0
  8 14  1  0  0  0  0
  9 13  1  0  0  0  0
  9 18  1  0  0  0  0
 10 13  1  0  0  0  0
 11 16  1  0  0  0  0
 11 12  1  0  0  0  0
 12  2  1  0  0  0  0
 15  6  1  0  0  0  0
 15 20  1  0  0  0  0
 17 16  1  0  0  0  0
 17 14  1  0  0  0  0
 17 26  1  0  0  0  0
 18 15  1  0  0  0  0
 19 20  2  0  0  0  0
 19 25  1  0  0  0  0
 20 21  1  0  0  0  0
 21 24  2  0  0  0  0
 23 24  1  0  0  0  0
 24 22  1  0  0  0  0
 25 23  2  0  0  0  0
 26 27  1  0  0  0  0
 27 30  1  0  0  0  0
 27 29  1  0  0  0  0
 29 28  1  0  0  0  0
 31 30  1  0  0  0  0
 31 32  1  0  0  0  0
 34 33  1  0  0  0  0
 34 35  1  0  0  0  0
 34 37  1  0  0  0  0
 36 34  1  0  0  0  0
M  END
>  <MODEL>
9

>  <REMARK>
 VINA RESULT:      -6.5      3.025      6.035
  Name = 
  8 active torsions:
  status: ('A' for Active; 'I' for Inactive)
    1  A    between atoms: O_1  and  C_4
    2  A    between atoms: O_1  and  C_27
    3  A    between atoms: C_2  and  O_22
    4  A    between atoms: C_4  and  C_12
    5  A    between atoms: C_4  and  O_37
    6  A    between atoms: C_6  and  O_22
    7  A    between atoms: C_8  and  C_12
    8  A    between atoms: N_23  and  C_30
                            x       y       z     vdW  Elec       q    Type
                         _______ _______ _______ _____ _____    ______ ____

>  <TORSDO>
F 8

$$$$
