=
 OpenBabel11112416213D

 30 35  0  0  1  0  0  0  0  0999 V2000
  186.2450  177.3270  143.5570 C   0  0  0  0  0  0  0  0  0  0  0  0
  184.5900  178.4070  145.0580 C   0  0  0  0  0  0  0  0  0  0  0  0
  188.4340  175.9360  146.7490 N   0  0  0  0  0  2  0  0  0  0  0  0
  187.4040  176.5270  143.3850 C   0  0  0  0  0  0  0  0  0  0  0  0
  185.5590  177.7860  142.4270 O   0  0  0  0  0  0  0  0  0  0  0  0
  187.4300  176.3500  139.7500 O   0  0  0  0  0  0  0  0  0  0  0  0
  190.0330  175.2480  142.2440 C   0  0  1  0  0  3  0  0  0  0  0  0
  187.1150  176.7010  140.9200 C   0  0  0  0  0  0  0  0  0  0  0  0
  190.3310  175.0910  143.7280 C   0  0  2  0  0  3  0  0  0  0  0  0
  189.4200  175.3540  146.0330 C   0  0  0  0  0  0  0  0  0  0  0  0
  186.1470  177.8330  141.1280 C   0  0  1  0  0  3  0  0  0  0  0  0
  187.7410  176.0820  142.0560 N   0  0  0  0  0  0  0  0  0  0  0  0
  184.1470  178.6870  146.3540 C   0  0  0  0  0  3  0  0  0  0  0  0
  190.8340  173.6730  143.8940 C   0  0  0  0  0  2  0  0  0  0  0  0
  190.9870  174.2940  141.5420 C   0  0  0  0  0  2  0  0  0  0  0  0
  183.8700  178.8920  144.0150 F   0  0  0  0  0  0  0  0  0  0  0  0
  187.6200  176.4160  145.7950 C   0  0  0  0  0  0  0  0  0  0  0  0
  184.8490  178.2140  147.4630 C   0  0  0  0  0  3  0  0  0  0  0  0
  185.7580  177.6370  144.8570 C   0  0  0  0  0  0  0  0  0  0  0  0
  188.1000  176.1170  144.5430 C   0  0  0  0  0  0  0  0  0  0  0  0
  190.4230  174.8250  146.5830 O   0  0  0  0  0  0  0  0  0  0  0  0
  189.2590  175.4250  144.6840 N   0  0  0  0  0  0  0  0  0  0  0  0
  191.5590  173.3630  142.6010 C   0  0  0  0  0  2  0  0  0  0  0  0
  188.0110  173.6480  142.3880 C   0  0  0  0  0  1  0  0  0  0  0  0
  186.0050  177.4540  147.2850 C   0  0  0  0  0  3  0  0  0  0  0  0
  186.4610  177.1610  145.9950 C   0  0  0  0  0  0  0  0  0  0  0  0
  188.6040  174.9350  141.8220 C   0  0  2  0  0  3  0  0  0  0  0  0
  185.0590  177.8920  140.0570 C   0  0  0  0  0  2  0  0  0  0  0  0
  182.6390  177.9290  140.4240 C   0  0  0  0  0  2  0  0  0  0  0  0
  183.8120  178.5390  140.5680 C   0  0  0  0  0  3  0  0  0  0  0  0
  1 19  1  0  0  0  0
  2 13  1  0  0  0  0
  4  1  2  0  0  0  0
  4 20  1  0  0  0  0
  5  1  1  0  0  0  0
  6  8  2  0  0  0  0
  7 15  1  6  0  0  0
  7  9  1  0  0  0  0
  8 11  1  0  0  0  0
  8 12  1  0  0  0  0
  9 14  1  6  0  0  0
  9 22  1  0  0  0  0
 10 21  2  0  0  0  0
 10  3  1  0  0  0  0
 11 28  1  6  0  0  0
 11  5  1  0  0  0  0
 12  4  1  0  0  0  0
 13 18  2  0  0  0  0
 15 23  1  0  0  0  0
 16  2  1  0  0  0  0
 17 26  1  0  0  0  0
 17  3  1  0  0  0  0
 19  2  2  0  0  0  0
 19 26  1  0  0  0  0
 20 22  1  0  0  0  0
 20 17  2  0  0  0  0
 22 10  1  0  0  0  0
 23 14  1  0  0  0  0
 25 18  1  0  0  0  0
 26 25  2  0  0  0  0
 27 12  1  0  0  0  0
 27  7  1  0  0  0  0
 27 24  1  1  0  0  0
 28 30  1  0  0  0  0
 29 30  2  0  0  0  0
M  END
>  <MODEL>
1

>  <REMARK>
 VINA RESULT:      -8.9      0.000      0.000
  Name = 
  2 active torsions:
  status: ('A' for Active; 'I' for Inactive)
    1  A    between atoms: C_11  and  C_28
    2  A    between atoms: C_28  and  C_30
                            x       y       z     vdW  Elec       q    Type
                         _______ _______ _______ _____ _____    ______ ____

>  <TORSDO>
F 2

$$$$
=
 OpenBabel11112416213D

 30 35  0  0  1  0  0  0  0  0999 V2000
  189.9740  175.8450  144.2220 C   0  0  0  0  0  0  0  0  0  0  0  0
  190.9610  174.4950  142.3890 C   0  0  0  0  0  0  0  0  0  0  0  0
  186.4050  176.2130  142.2100 N   0  0  0  0  0  2  0  0  0  0  0  0
  188.8620  176.5270  144.7780 C   0  0  0  0  0  0  0  0  0  0  0  0
  191.1670  175.7760  144.9510 O   0  0  0  0  0  0  0  0  0  0  0  0
  190.3270  177.4780  147.9720 O   0  0  0  0  0  0  0  0  0  0  0  0
  187.0610  178.5210  146.4020 C   0  0  1  0  0  3  0  0  0  0  0  0
  190.2290  177.0400  146.7920 C   0  0  0  0  0  0  0  0  0  0  0  0
  186.1350  178.2950  145.2160 C   0  0  2  0  0  3  0  0  0  0  0  0
  185.7830  176.9950  143.1180 C   0  0  0  0  0  0  0  0  0  0  0  0
  191.4680  176.6580  146.0310 C   0  0  1  0  0  3  0  0  0  0  0  0
  188.9490  176.9870  146.1420 N   0  0  0  0  0  0  0  0  0  0  0  0
  190.8240  173.8820  141.1410 C   0  0  0  0  0  3  0  0  0  0  0  0
  184.7650  178.0510  145.8110 C   0  0  0  0  0  2  0  0  0  0  0  0
  186.1780  179.1070  147.4930 C   0  0  0  0  0  2  0  0  0  0  0  0
  192.1520  174.3840  143.0300 F   0  0  0  0  0  0  0  0  0  0  0  0
  187.6030  175.9950  142.7790 C   0  0  0  0  0  0  0  0  0  0  0  0
  189.6220  173.9640  140.4370 C   0  0  0  0  0  3  0  0  0  0  0  0
  189.8790  175.2070  142.9540 C   0  0  0  0  0  0  0  0  0  0  0  0
  187.6880  176.6190  144.0000 C   0  0  0  0  0  0  0  0  0  0  0  0
  184.6300  177.4640  142.9190 O   0  0  0  0  0  0  0  0  0  0  0  0
  186.5160  177.2630  144.2330 N   0  0  0  0  0  0  0  0  0  0  0  0
  184.7320  178.8900  147.0710 C   0  0  0  0  0  2  0  0  0  0  0  0
  186.8850  176.0480  147.1270 C   0  0  0  0  0  1  0  0  0  0  0  0
  188.5430  174.6640  140.9770 C   0  0  0  0  0  3  0  0  0  0  0  0
  188.6620  175.2810  142.2270 C   0  0  0  0  0  0  0  0  0  0  0  0
  187.7650  177.2800  146.9340 C   0  0  2  0  0  3  0  0  0  0  0  0
  192.5530  176.0520  146.9200 C   0  0  0  0  0  2  0  0  0  0  0  0
  194.8130  175.6800  146.0590 C   0  0  0  0  0  2  0  0  0  0  0  0
  193.9160  176.5340  146.5400 C   0  0  0  0  0  3  0  0  0  0  0  0
  1  4  1  0  0  0  0
  1  5  1  0  0  0  0
  2 19  1  0  0  0  0
  2 16  1  0  0  0  0
  3 17  1  0  0  0  0
  3 10  1  0  0  0  0
  4 12  1  0  0  0  0
  5 11  1  0  0  0  0
  7 27  1  0  0  0  0
  7 15  1  1  0  0  0
  8  6  2  0  0  0  0
  9 14  1  1  0  0  0
  9  7  1  0  0  0  0
 10 22  1  0  0  0  0
 11  8  1  0  0  0  0
 11 28  1  1  0  0  0
 12  8  1  0  0  0  0
 12 27  1  0  0  0  0
 13  2  2  0  0  0  0
 14 23  1  0  0  0  0
 17 20  1  0  0  0  0
 18 25  2  0  0  0  0
 18 13  1  0  0  0  0
 19  1  2  0  0  0  0
 20 22  1  0  0  0  0
 20  4  2  0  0  0  0
 21 10  2  0  0  0  0
 22  9  1  0  0  0  0
 23 15  1  0  0  0  0
 25 26  1  0  0  0  0
 26 17  2  0  0  0  0
 26 19  1  0  0  0  0
 27 24  1  6  0  0  0
 29 30  2  0  0  0  0
 30 28  1  0  0  0  0
M  END
>  <MODEL>
2

>  <REMARK>
 VINA RESULT:      -8.2      2.606      7.355
  Name = 
  2 active torsions:
  status: ('A' for Active; 'I' for Inactive)
    1  A    between atoms: C_11  and  C_28
    2  A    between atoms: C_28  and  C_30
                            x       y       z     vdW  Elec       q    Type
                         _______ _______ _______ _____ _____    ______ ____

>  <TORSDO>
F 2

$$$$
=
 OpenBabel11112416213D

 30 35  0  0  1  0  0  0  0  0999 V2000
  188.0910  176.3650  144.5570 C   0  0  0  0  0  0  0  0  0  0  0  0
  186.7550  178.2990  145.3520 C   0  0  0  0  0  0  0  0  0  0  0  0
  186.8440  176.9280  140.6770 N   0  0  0  0  0  2  0  0  0  0  0  0
  188.5540  175.5520  143.4900 C   0  0  0  0  0  0  0  0  0  0  0  0
  188.5380  176.1040  145.8560 O   0  0  0  0  0  0  0  0  0  0  0  0
  190.7820  173.3740  145.3710 O   0  0  0  0  0  0  0  0  0  0  0  0
  189.6170  173.1350  141.7930 C   0  0  1  0  0  3  0  0  0  0  0  0
  189.9040  174.2450  145.1200 C   0  0  0  0  0  0  0  0  0  0  0  0
  188.8170  173.8390  140.7070 C   0  0  2  0  0  3  0  0  0  0  0  0
  187.4890  175.8710  140.1400 C   0  0  0  0  0  0  0  0  0  0  0  0
  189.1160  174.8590  146.2430 C   0  0  1  0  0  3  0  0  0  0  0  0
  189.5920  174.5890  143.7600 N   0  0  0  0  0  0  0  0  0  0  0  0
  185.8890  179.3580  145.0690 C   0  0  0  0  0  3  0  0  0  0  0  0
  189.7200  173.8690  139.4920 C   0  0  0  0  0  2  0  0  0  0  0  0
  190.5540  172.1930  141.0530 C   0  0  0  0  0  2  0  0  0  0  0  0
  187.1390  178.1110  146.6400 F   0  0  0  0  0  0  0  0  0  0  0  0
  187.2030  176.8680  141.9700 C   0  0  0  0  0  0  0  0  0  0  0  0
  185.4620  179.5970  143.7620 C   0  0  0  0  0  3  0  0  0  0  0  0
  187.2090  177.4540  144.3140 C   0  0  0  0  0  0  0  0  0  0  0  0
  188.0500  175.8110  142.1970 C   0  0  0  0  0  0  0  0  0  0  0  0
  187.3600  175.5530  138.9270 O   0  0  0  0  0  0  0  0  0  0  0  0
  188.2480  175.1630  141.0200 N   0  0  0  0  0  0  0  0  0  0  0  0
  190.5440  172.6020  139.5870 C   0  0  0  0  0  2  0  0  0  0  0  0
  191.2500  175.1250  142.0070 C   0  0  0  0  0  1  0  0  0  0  0  0
  185.8980  178.7740  142.7240 C   0  0  0  0  0  3  0  0  0  0  0  0
  186.7670  177.7100  142.9890 C   0  0  0  0  0  0  0  0  0  0  0  0
  190.4310  174.0420  142.7050 C   0  0  2  0  0  3  0  0  0  0  0  0
  189.9340  175.0310  147.5220 C   0  0  0  0  0  2  0  0  0  0  0  0
  192.0010  176.3110  147.2370 C   0  0  0  0  0  2  0  0  0  0  0  0
  190.7030  176.3140  147.5220 C   0  0  0  0  0  3  0  0  0  0  0  0
  1  5  1  0  0  0  0
  2 16  1  0  0  0  0
  3 17  1  0  0  0  0
  4 12  1  0  0  0  0
  4  1  2  0  0  0  0
  5 11  1  0  0  0  0
  7 15  1  6  0  0  0
  7 27  1  0  0  0  0
  8  6  2  0  0  0  0
  8 11  1  0  0  0  0
  9 14  1  6  0  0  0
  9 22  1  0  0  0  0
  9  7  1  0  0  0  0
 10  3  1  0  0  0  0
 10 22  1  0  0  0  0
 11 28  1  1  0  0  0
 12  8  1  0  0  0  0
 13  2  1  0  0  0  0
 14 23  1  0  0  0  0
 17 20  2  0  0  0  0
 17 26  1  0  0  0  0
 18 13  2  0  0  0  0
 19  1  1  0  0  0  0
 19  2  2  0  0  0  0
 20  4  1  0  0  0  0
 21 10  2  0  0  0  0
 22 20  1  0  0  0  0
 23 15  1  0  0  0  0
 25 26  2  0  0  0  0
 25 18  1  0  0  0  0
 26 19  1  0  0  0  0
 27 24  1  6  0  0  0
 27 12  1  0  0  0  0
 28 30  1  0  0  0  0
 29 30  2  0  0  0  0
M  END
>  <MODEL>
3

>  <REMARK>
 VINA RESULT:      -8.0      2.155      5.243
  Name = 
  2 active torsions:
  status: ('A' for Active; 'I' for Inactive)
    1  A    between atoms: C_11  and  C_28
    2  A    between atoms: C_28  and  C_30
                            x       y       z     vdW  Elec       q    Type
                         _______ _______ _______ _____ _____    ______ ____

>  <TORSDO>
F 2

$$$$
=
 OpenBabel11112416213D

 30 35  0  0  1  0  0  0  0  0999 V2000
  189.6970  175.3300  143.9900 C   0  0  0  0  0  0  0  0  0  0  0  0
  191.6810  174.6680  145.3240 C   0  0  0  0  0  0  0  0  0  0  0  0
  188.1370  177.4840  147.1280 N   0  0  0  0  0  2  0  0  0  0  0  0
  188.4860  176.0600  143.8750 C   0  0  0  0  0  0  0  0  0  0  0  0
  190.1600  174.6000  142.8900 O   0  0  0  0  0  0  0  0  0  0  0  0
  187.7040  175.3080  140.4010 O   0  0  0  0  0  0  0  0  0  0  0  0
  185.6120  177.0060  143.0390 C   0  0  1  0  0  3  0  0  0  0  0  0
  188.2710  175.2660  141.5270 C   0  0  0  0  0  0  0  0  0  0  0  0
  185.6170  177.5330  144.4660 C   0  0  2  0  0  3  0  0  0  0  0  0
  186.9950  177.8650  146.5170 C   0  0  0  0  0  0  0  0  0  0  0  0
  189.3210  174.2250  141.7990 C   0  0  1  0  0  3  0  0  0  0  0  0
  187.8580  176.1520  142.5810 N   0  0  0  0  0  0  0  0  0  0  0  0
  192.3960  174.7270  146.5240 C   0  0  0  0  0  3  0  0  0  0  0  0
  185.0820  178.9470  144.3790 C   0  0  0  0  0  2  0  0  0  0  0  0
  184.4840  177.7500  142.3410 C   0  0  0  0  0  2  0  0  0  0  0  0
  192.1970  173.9350  144.3060 F   0  0  0  0  0  0  0  0  0  0  0  0
  188.7630  176.7780  146.1720 C   0  0  0  0  0  0  0  0  0  0  0  0
  191.9120  175.4650  147.6040 C   0  0  0  0  0  3  0  0  0  0  0  0
  190.4560  175.3610  145.1920 C   0  0  0  0  0  0  0  0  0  0  0  0
  188.0210  176.7490  145.0160 C   0  0  0  0  0  0  0  0  0  0  0  0
  186.0990  178.5160  147.1180 O   0  0  0  0  0  0  0  0  0  0  0  0
  186.8790  177.4540  145.2250 N   0  0  0  0  0  0  0  0  0  0  0  0
  184.0920  178.9180  143.2330 C   0  0  0  0  0  2  0  0  0  0  0  0
  187.5300  178.5910  142.3490 C   0  0  0  0  0  1  0  0  0  0  0  0
  190.7040  176.1550  147.4940 C   0  0  0  0  0  3  0  0  0  0  0  0
  189.9770  176.1100  146.2990 C   0  0  0  0  0  0  0  0  0  0  0  0
  186.9040  177.2020  142.2590 C   0  0  2  0  0  3  0  0  0  0  0  0
  190.1680  173.8960  140.5700 C   0  0  0  0  0  2  0  0  0  0  0  0
  188.9030  172.2390  139.2870 C   0  0  0  0  0  2  0  0  0  0  0  0
  189.9300  172.5000  140.0890 C   0  0  0  0  0  3  0  0  0  0  0  0
  1 19  1  0  0  0  0
  2 13  1  0  0  0  0
  4  1  2  0  0  0  0
  4 20  1  0  0  0  0
  5  1  1  0  0  0  0
  6  8  2  0  0  0  0
  7 15  1  6  0  0  0
  7  9  1  0  0  0  0
  8 11  1  0  0  0  0
  8 12  1  0  0  0  0
  9 14  1  6  0  0  0
  9 22  1  0  0  0  0
 10 21  2  0  0  0  0
 10  3  1  0  0  0  0
 11 28  1  6  0  0  0
 11  5  1  0  0  0  0
 12  4  1  0  0  0  0
 13 18  2  0  0  0  0
 15 23  1  0  0  0  0
 16  2  1  0  0  0  0
 17 26  1  0  0  0  0
 17  3  1  0  0  0  0
 19  2  2  0  0  0  0
 19 26  1  0  0  0  0
 20 22  1  0  0  0  0
 20 17  2  0  0  0  0
 22 10  1  0  0  0  0
 23 14  1  0  0  0  0
 25 18  1  0  0  0  0
 26 25  2  0  0  0  0
 27 24  1  1  0  0  0
 27 12  1  0  0  0  0
 27  7  1  0  0  0  0
 29 30  2  0  0  0  0
 30 28  1  0  0  0  0
M  END
>  <MODEL>
4

>  <REMARK>
 VINA RESULT:      -8.0      2.668      5.715
  Name = 
  2 active torsions:
  status: ('A' for Active; 'I' for Inactive)
    1  A    between atoms: C_11  and  C_28
    2  A    between atoms: C_28  and  C_30
                            x       y       z     vdW  Elec       q    Type
                         _______ _______ _______ _____ _____    ______ ____

>  <TORSDO>
F 2

$$$$
=
 OpenBabel11112416213D

 30 35  0  0  1  0  0  0  0  0999 V2000
  185.9620  177.1770  143.9870 C   0  0  0  0  0  0  0  0  0  0  0  0
  184.2200  178.3130  142.6340 C   0  0  0  0  0  0  0  0  0  0  0  0
  187.9060  175.8490  140.6140 N   0  0  0  0  0  2  0  0  0  0  0  0
  187.1670  176.4310  144.0550 C   0  0  0  0  0  0  0  0  0  0  0  0
  185.3400  177.5780  145.1740 O   0  0  0  0  0  0  0  0  0  0  0  0
  187.5680  176.3440  147.6710 O   0  0  0  0  0  0  0  0  0  0  0  0
  189.4570  174.4950  144.9830 C   0  0  1  0  0  3  0  0  0  0  0  0
  187.0480  176.5340  146.5380 C   0  0  0  0  0  0  0  0  0  0  0  0
  189.6260  174.3400  143.4780 C   0  0  2  0  0  3  0  0  0  0  0  0
  188.8770  175.1540  141.2440 C   0  0  0  0  0  0  0  0  0  0  0  0
  185.6140  176.9730  146.4360 C   0  0  1  0  0  3  0  0  0  0  0  0
  187.7920  176.2510  145.3420 N   0  0  0  0  0  0  0  0  0  0  0  0
  183.7060  178.6540  141.3800 C   0  0  0  0  0  3  0  0  0  0  0  0
  191.1140  174.4550  143.2220 C   0  0  0  0  0  2  0  0  0  0  0  0
  190.7550  173.9800  145.5860 C   0  0  0  0  0  2  0  0  0  0  0  0
  183.5550  178.7390  143.7370 F   0  0  0  0  0  0  0  0  0  0  0  0
  187.2030  176.3660  141.6340 C   0  0  0  0  0  0  0  0  0  0  0  0
  184.3480  178.2430  140.2120 C   0  0  0  0  0  3  0  0  0  0  0  0
  185.4030  177.5450  142.7320 C   0  0  0  0  0  0  0  0  0  0  0  0
  187.7460  176.0010  142.8420 C   0  0  0  0  0  0  0  0  0  0  0  0
  189.7270  174.4690  140.6140 O   0  0  0  0  0  0  0  0  0  0  0  0
  188.8330  175.2230  142.6030 N   0  0  0  0  0  0  0  0  0  0  0  0
  191.7680  173.8690  144.4560 C   0  0  0  0  0  2  0  0  0  0  0  0
  190.1060  176.9940  144.8900 C   0  0  0  0  0  1  0  0  0  0  0  0
  185.5160  177.4830  140.2880 C   0  0  0  0  0  3  0  0  0  0  0  0
  186.0470  177.1350  141.5350 C   0  0  0  0  0  0  0  0  0  0  0  0
  189.2000  175.9130  145.4750 C   0  0  2  0  0  3  0  0  0  0  0  0
  185.1930  177.9060  147.5710 C   0  0  0  0  0  2  0  0  0  0  0  0
  186.5770  179.7990  148.2730 C   0  0  0  0  0  2  0  0  0  0  0  0
  185.7310  179.2880  147.3830 C   0  0  0  0  0  3  0  0  0  0  0  0
  1  4  1  0  0  0  0
  1  5  1  0  0  0  0
  2 19  1  0  0  0  0
  2 16  1  0  0  0  0
  3 10  1  0  0  0  0
  3 17  1  0  0  0  0
  4 12  1  0  0  0  0
  5 11  1  0  0  0  0
  7 27  1  0  0  0  0
  7 15  1  1  0  0  0
  8  6  2  0  0  0  0
  9 14  1  1  0  0  0
  9  7  1  0  0  0  0
 10 22  1  0  0  0  0
 11  8  1  0  0  0  0
 11 28  1  1  0  0  0
 12 27  1  0  0  0  0
 12  8  1  0  0  0  0
 13  2  2  0  0  0  0
 14 23  1  0  0  0  0
 17 20  1  0  0  0  0
 18 25  2  0  0  0  0
 18 13  1  0  0  0  0
 19  1  2  0  0  0  0
 20  4  2  0  0  0  0
 21 10  2  0  0  0  0
 22 20  1  0  0  0  0
 22  9  1  0  0  0  0
 23 15  1  0  0  0  0
 25 26  1  0  0  0  0
 26 17  2  0  0  0  0
 26 19  1  0  0  0  0
 27 24  1  6  0  0  0
 30 28  1  0  0  0  0
 30 29  2  0  0  0  0
M  END
>  <MODEL>
5

>  <REMARK>
 VINA RESULT:      -7.9      1.531      4.755
  Name = 
  2 active torsions:
  status: ('A' for Active; 'I' for Inactive)
    1  A    between atoms: C_11  and  C_28
    2  A    between atoms: C_28  and  C_30
                            x       y       z     vdW  Elec       q    Type
                         _______ _______ _______ _____ _____    ______ ____

>  <TORSDO>
F 2

$$$$
=
 OpenBabel11112416213D

 30 35  0  0  1  0  0  0  0  0999 V2000
  188.9330  176.2810  145.3630 C   0  0  0  0  0  0  0  0  0  0  0  0
  187.1520  177.8430  146.1010 C   0  0  0  0  0  0  0  0  0  0  0  0
  187.3600  176.0680  141.5680 N   0  0  0  0  0  2  0  0  0  0  0  0
  189.5460  175.5200  144.3340 C   0  0  0  0  0  0  0  0  0  0  0  0
  189.5090  176.2910  146.6390 O   0  0  0  0  0  0  0  0  0  0  0  0
  192.4020  174.2510  146.2000 O   0  0  0  0  0  0  0  0  0  0  0  0
  191.1510  173.3260  142.7660 C   0  0  1  0  0  3  0  0  0  0  0  0
  191.3010  174.8140  145.9510 C   0  0  0  0  0  0  0  0  0  0  0  0
  190.1250  173.6630  141.6950 C   0  0  2  0  0  3  0  0  0  0  0  0
  188.2470  175.1790  141.0710 C   0  0  0  0  0  0  0  0  0  0  0  0
  190.4360  175.3020  147.0800 C   0  0  1  0  0  3  0  0  0  0  0  0
  190.8280  174.9150  144.5970 N   0  0  0  0  0  0  0  0  0  0  0  0
  186.0070  178.5870  145.8020 C   0  0  0  0  0  3  0  0  0  0  0  0
  190.9120  173.8140  140.4100 C   0  0  0  0  0  2  0  0  0  0  0  0
  192.2730  172.6060  142.0320 C   0  0  0  0  0  2  0  0  0  0  0  0
  187.6460  177.9050  147.3640 F   0  0  0  0  0  0  0  0  0  0  0  0
  187.7940  176.2450  142.8270 C   0  0  0  0  0  0  0  0  0  0  0  0
  185.4560  178.5590  144.5210 C   0  0  0  0  0  3  0  0  0  0  0  0
  187.7670  177.0520  145.1040 C   0  0  0  0  0  0  0  0  0  0  0  0
  188.9170  175.4920  143.0710 C   0  0  0  0  0  0  0  0  0  0  0  0
  188.1440  174.7130  139.9050 O   0  0  0  0  0  0  0  0  0  0  0  0
  189.2230  174.8040  141.9410 N   0  0  0  0  0  0  0  0  0  0  0  0
  192.0650  172.8410  140.5430 C   0  0  0  0  0  2  0  0  0  0  0  0
  192.1640  175.7000  142.6720 C   0  0  0  0  0  1  0  0  0  0  0  0
  186.0480  177.7840  143.5230 C   0  0  0  0  0  3  0  0  0  0  0  0
  187.1960  177.0350  143.8040 C   0  0  0  0  0  0  0  0  0  0  0  0
  191.7260  174.5130  143.5260 C   0  0  2  0  0  3  0  0  0  0  0  0
  191.2430  175.8260  148.2660 C   0  0  0  0  0  2  0  0  0  0  0  0
  191.5660  177.9250  149.4840 C   0  0  0  0  0  2  0  0  0  0  0  0
  191.1780  177.3170  148.3680 C   0  0  0  0  0  3  0  0  0  0  0  0
  1  5  1  0  0  0  0
  2 16  1  0  0  0  0
  3 17  1  0  0  0  0
  4 12  1  0  0  0  0
  4  1  2  0  0  0  0
  5 11  1  0  0  0  0
  7 15  1  6  0  0  0
  7 27  1  0  0  0  0
  8  6  2  0  0  0  0
  8 11  1  0  0  0  0
  9 14  1  6  0  0  0
  9 22  1  0  0  0  0
  9  7  1  0  0  0  0
 10  3  1  0  0  0  0
 10 22  1  0  0  0  0
 11 28  1  1  0  0  0
 12  8  1  0  0  0  0
 13  2  1  0  0  0  0
 14 23  1  0  0  0  0
 17 20  2  0  0  0  0
 17 26  1  0  0  0  0
 18 13  2  0  0  0  0
 19  1  1  0  0  0  0
 19  2  2  0  0  0  0
 20  4  1  0  0  0  0
 21 10  2  0  0  0  0
 22 20  1  0  0  0  0
 23 15  1  0  0  0  0
 25 26  2  0  0  0  0
 25 18  1  0  0  0  0
 26 19  1  0  0  0  0
 27 24  1  6  0  0  0
 27 12  1  0  0  0  0
 28 30  1  0  0  0  0
 30 29  2  0  0  0  0
M  END
>  <MODEL>
6

>  <REMARK>
 VINA RESULT:      -7.8      2.287      5.475
  Name = 
  2 active torsions:
  status: ('A' for Active; 'I' for Inactive)
    1  A    between atoms: C_11  and  C_28
    2  A    between atoms: C_28  and  C_30
                            x       y       z     vdW  Elec       q    Type
                         _______ _______ _______ _____ _____    ______ ____

>  <TORSDO>
F 2

$$$$
=
 OpenBabel11112416213D

 30 35  0  0  1  0  0  0  0  0999 V2000
  187.6670  177.1840  144.2690 C   0  0  0  0  0  0  0  0  0  0  0  0
  185.5290  178.2250  144.9770 C   0  0  0  0  0  0  0  0  0  0  0  0
  189.2990  177.6690  148.0130 N   0  0  0  0  0  2  0  0  0  0  0  0
  188.9710  176.7260  144.5880 C   0  0  0  0  0  0  0  0  0  0  0  0
  187.1820  177.0070  142.9680 O   0  0  0  0  0  0  0  0  0  0  0  0
  189.8670  175.2910  141.3650 O   0  0  0  0  0  0  0  0  0  0  0  0
  191.9950  175.9010  144.4170 C   0  0  1  0  0  3  0  0  0  0  0  0
  189.2270  175.9320  142.2440 C   0  0  0  0  0  0  0  0  0  0  0  0
  191.9700  176.3670  145.8650 C   0  0  2  0  0  3  0  0  0  0  0  0
  190.5200  177.1660  147.7290 C   0  0  0  0  0  0  0  0  0  0  0  0
  188.0300  176.7520  141.8510 C   0  0  1  0  0  3  0  0  0  0  0  0
  189.6880  175.9520  143.6050 N   0  0  0  0  0  0  0  0  0  0  0  0
  184.7530  178.8110  145.9810 C   0  0  0  0  0  3  0  0  0  0  0  0
  192.6970  175.2950  146.6500 C   0  0  0  0  0  2  0  0  0  0  0  0
  193.2570  175.0610  144.2890 C   0  0  0  0  0  2  0  0  0  0  0  0
  184.9850  178.0940  143.7410 F   0  0  0  0  0  0  0  0  0  0  0  0
  188.6460  177.5370  146.8470 C   0  0  0  0  0  0  0  0  0  0  0  0
  185.2620  178.9730  147.2700 C   0  0  0  0  0  3  0  0  0  0  0  0
  186.8430  177.7870  145.2590 C   0  0  0  0  0  0  0  0  0  0  0  0
  189.4510  176.9600  145.8950 C   0  0  0  0  0  0  0  0  0  0  0  0
  191.4550  177.1620  148.5730 O   0  0  0  0  0  0  0  0  0  0  0  0
  190.6620  176.7090  146.4550 N   0  0  0  0  0  0  0  0  0  0  0  0
  193.7460  174.7600  145.6980 C   0  0  0  0  0  2  0  0  0  0  0  0
  190.3590  173.9660  144.9150 C   0  0  0  0  0  1  0  0  0  0  0  0
  186.5570  178.5480  147.5670 C   0  0  0  0  0  3  0  0  0  0  0  0
  187.3470  177.9560  146.5750 C   0  0  0  0  0  0  0  0  0  0  0  0
  190.7940  175.0800  143.9670 C   0  0  2  0  0  3  0  0  0  0  0  0
  187.2280  176.1280  140.7100 C   0  0  0  0  0  2  0  0  0  0  0  0
  185.6530  177.9120  140.1380 C   0  0  0  0  0  2  0  0  0  0  0  0
  186.6920  177.1660  139.7760 C   0  0  0  0  0  3  0  0  0  0  0  0
  1  4  2  0  0  0  0
  1 19  1  0  0  0  0
  2 19  2  0  0  0  0
  2 13  1  0  0  0  0
  4 20  1  0  0  0  0
  5  1  1  0  0  0  0
  6  8  2  0  0  0  0
  7 15  1  1  0  0  0
  7  9  1  0  0  0  0
  8 12  1  0  0  0  0
  9 22  1  0  0  0  0
  9 14  1  1  0  0  0
 10  3  1  0  0  0  0
 10 21  2  0  0  0  0
 11 28  1  6  0  0  0
 11  8  1  0  0  0  0
 11  5  1  0  0  0  0
 12 27  1  0  0  0  0
 12  4  1  0  0  0  0
 13 18  2  0  0  0  0
 15 23  1  0  0  0  0
 16  2  1  0  0  0  0
 17  3  1  0  0  0  0
 18 25  1  0  0  0  0
 19 26  1  0  0  0  0
 20 22  1  0  0  0  0
 20 17  2  0  0  0  0
 22 10  1  0  0  0  0
 23 14  1  0  0  0  0
 26 17  1  0  0  0  0
 26 25  2  0  0  0  0
 27  7  1  0  0  0  0
 27 24  1  1  0  0  0
 30 29  2  0  0  0  0
 30 28  1  0  0  0  0
M  END
>  <MODEL>
7

>  <REMARK>
 VINA RESULT:      -7.8      1.919      2.552
  Name = 
  2 active torsions:
  status: ('A' for Active; 'I' for Inactive)
    1  A    between atoms: C_11  and  C_28
    2  A    between atoms: C_28  and  C_30
                            x       y       z     vdW  Elec       q    Type
                         _______ _______ _______ _____ _____    ______ ____

>  <TORSDO>
F 2

$$$$
=
 OpenBabel11112416213D

 30 35  0  0  1  0  0  0  0  0999 V2000
  187.7530  176.1120  143.1800 C   0  0  0  0  0  0  0  0  0  0  0  0
  185.5760  177.3020  143.2430 C   0  0  0  0  0  0  0  0  0  0  0  0
  188.8140  177.5810  146.8730 N   0  0  0  0  0  2  0  0  0  0  0  0
  188.9740  175.7580  143.8100 C   0  0  0  0  0  0  0  0  0  0  0  0
  187.4640  175.5940  141.9130 O   0  0  0  0  0  0  0  0  0  0  0  0
  190.2900  173.5160  141.2630 O   0  0  0  0  0  0  0  0  0  0  0  0
  191.9520  174.9220  144.3420 C   0  0  1  0  0  3  0  0  0  0  0  0
  189.5510  174.3670  141.8300 C   0  0  0  0  0  0  0  0  0  0  0  0
  191.7250  175.7570  145.5930 C   0  0  2  0  0  3  0  0  0  0  0  0
  190.0420  177.0230  146.9270 C   0  0  0  0  0  0  0  0  0  0  0  0
  188.4620  175.0510  141.0510 C   0  0  1  0  0  3  0  0  0  0  0  0
  189.7990  174.7500  143.1930 N   0  0  0  0  0  0  0  0  0  0  0  0
  184.6810  178.1330  143.9210 C   0  0  0  0  0  3  0  0  0  0  0  0
  192.2800  174.9350  146.7370 C   0  0  0  0  0  2  0  0  0  0  0  0
  193.1830  174.0800  144.6400 C   0  0  0  0  0  2  0  0  0  0  0  0
  185.2220  176.8440  142.0160 F   0  0  0  0  0  0  0  0  0  0  0  0
  188.3420  177.1420  145.6950 C   0  0  0  0  0  0  0  0  0  0  0  0
  184.9940  178.6340  145.1850 C   0  0  0  0  0  3  0  0  0  0  0  0
  186.8130  176.9560  143.8340 C   0  0  0  0  0  0  0  0  0  0  0  0
  189.2580  176.3330  145.0680 C   0  0  0  0  0  0  0  0  0  0  0  0
  190.8370  177.2450  147.8790 O   0  0  0  0  0  0  0  0  0  0  0  0
  190.3580  176.2420  145.8580 N   0  0  0  0  0  0  0  0  0  0  0  0
  193.4390  174.1660  146.1380 C   0  0  0  0  0  2  0  0  0  0  0  0
  190.1820  173.1870  145.0690 C   0  0  0  0  0  1  0  0  0  0  0  0
  186.2100  178.3050  145.7850 C   0  0  0  0  0  3  0  0  0  0  0  0
  187.1170  177.4720  145.1210 C   0  0  0  0  0  0  0  0  0  0  0  0
  190.8010  174.0090  143.9410 C   0  0  2  0  0  3  0  0  0  0  0  0
  187.8180  174.1440  140.0030 C   0  0  0  0  0  2  0  0  0  0  0  0
  188.9450  173.7400  137.8690 C   0  0  0  0  0  2  0  0  0  0  0  0
  188.1950  174.5460  138.6130 C   0  0  0  0  0  3  0  0  0  0  0  0
  1  4  2  0  0  0  0
  1 19  1  0  0  0  0
  2 19  2  0  0  0  0
  2 13  1  0  0  0  0
  3 10  1  0  0  0  0
  4 20  1  0  0  0  0
  5  1  1  0  0  0  0
  6  8  2  0  0  0  0
  7 15  1  1  0  0  0
  7  9  1  0  0  0  0
  8 12  1  0  0  0  0
  9 22  1  0  0  0  0
  9 14  1  1  0  0  0
 10 21  2  0  0  0  0
 11 28  1  6  0  0  0
 11  8  1  0  0  0  0
 11  5  1  0  0  0  0
 12  4  1  0  0  0  0
 12 27  1  0  0  0  0
 13 18  2  0  0  0  0
 15 23  1  0  0  0  0
 16  2  1  0  0  0  0
 17  3  1  0  0  0  0
 18 25  1  0  0  0  0
 19 26  1  0  0  0  0
 20 17  2  0  0  0  0
 20 22  1  0  0  0  0
 22 10  1  0  0  0  0
 23 14  1  0  0  0  0
 26 17  1  0  0  0  0
 26 25  2  0  0  0  0
 27  7  1  0  0  0  0
 27 24  1  1  0  0  0
 29 30  2  0  0  0  0
 30 28  1  0  0  0  0
M  END
>  <MODEL>
8

>  <REMARK>
 VINA RESULT:      -7.8      2.134      3.294
  Name = 
  2 active torsions:
  status: ('A' for Active; 'I' for Inactive)
    1  A    between atoms: C_11  and  C_28
    2  A    between atoms: C_28  and  C_30
                            x       y       z     vdW  Elec       q    Type
                         _______ _______ _______ _____ _____    ______ ____

>  <TORSDO>
F 2

$$$$
=
 OpenBabel11112416213D

 30 35  0  0  1  0  0  0  0  0999 V2000
  189.2760  176.2550  144.0950 C   0  0  0  0  0  0  0  0  0  0  0  0
  189.7020  177.1170  146.3820 C   0  0  0  0  0  0  0  0  0  0  0  0
  191.8870  173.1240  144.6440 N   0  0  0  0  0  2  0  0  0  0  0  0
  189.4920  175.2690  143.0970 C   0  0  0  0  0  0  0  0  0  0  0  0
  188.3910  177.3070  143.8340 O   0  0  0  0  0  0  0  0  0  0  0  0
  187.2050  176.5280  140.5610 O   0  0  0  0  0  0  0  0  0  0  0  0
  189.7900  173.7910  140.3440 C   0  0  1  0  0  3  0  0  0  0  0  0
  187.8970  176.4720  141.6140 C   0  0  0  0  0  0  0  0  0  0  0  0
  190.8010  172.9830  141.1450 C   0  0  2  0  0  3  0  0  0  0  0  0
  191.7720  172.5930  143.4070 C   0  0  0  0  0  0  0  0  0  0  0  0
  187.9870  177.6720  142.5160 C   0  0  1  0  0  3  0  0  0  0  0  0
  188.6710  175.2980  141.9130 N   0  0  0  0  0  0  0  0  0  0  0  0
  190.3560  176.9910  147.6110 C   0  0  0  0  0  3  0  0  0  0  0  0
  190.5100  171.5330  140.8210 C   0  0  0  0  0  2  0  0  0  0  0  0
  189.4790  172.9430  139.1210 C   0  0  0  0  0  2  0  0  0  0  0  0
  188.8620  178.1680  146.2080 F   0  0  0  0  0  0  0  0  0  0  0  0
  191.0390  174.1650  144.5980 C   0  0  0  0  0  0  0  0  0  0  0  0
  191.2320  175.9300  147.8440 C   0  0  0  0  0  3  0  0  0  0  0  0
  189.9210  176.1660  145.3590 C   0  0  0  0  0  0  0  0  0  0  0  0
  190.4250  174.2460  143.3720 C   0  0  0  0  0  0  0  0  0  0  0  0
  192.4650  171.6090  143.0340 O   0  0  0  0  0  0  0  0  0  0  0  0
  190.8850  173.2320  142.5960 N   0  0  0  0  0  0  0  0  0  0  0  0
  190.0160  171.5450  139.3900 C   0  0  0  0  0  2  0  0  0  0  0  0
  187.8330  172.9740  141.8190 C   0  0  0  0  0  1  0  0  0  0  0  0
  191.4620  174.9820  146.8470 C   0  0  0  0  0  3  0  0  0  0  0  0
  190.8140  175.0910  145.6120 C   0  0  0  0  0  0  0  0  0  0  0  0
  188.4930  174.1280  141.0680 C   0  0  2  0  0  3  0  0  0  0  0  0
  186.6900  178.4790  142.5660 C   0  0  0  0  0  2  0  0  0  0  0  0
  185.5660  179.7910  144.3000 C   0  0  0  0  0  2  0  0  0  0  0  0
  186.2130  178.6780  143.9690 C   0  0  0  0  0  3  0  0  0  0  0  0
  1 19  1  0  0  0  0
  2 13  1  0  0  0  0
  4 20  1  0  0  0  0
  4  1  2  0  0  0  0
  5  1  1  0  0  0  0
  6  8  2  0  0  0  0
  7 15  1  6  0  0  0
  7 27  1  0  0  0  0
  7  9  1  0  0  0  0
  8 12  1  0  0  0  0
  8 11  1  0  0  0  0
  9 14  1  1  0  0  0
  9 22  1  0  0  0  0
 10  3  1  0  0  0  0
 11 28  1  1  0  0  0
 11  5  1  0  0  0  0
 12  4  1  0  0  0  0
 13 18  2  0  0  0  0
 15 23  1  0  0  0  0
 16  2  1  0  0  0  0
 17  3  1  0  0  0  0
 17 26  1  0  0  0  0
 19 26  1  0  0  0  0
 19  2  2  0  0  0  0
 20 17  2  0  0  0  0
 21 10  2  0  0  0  0
 22 20  1  0  0  0  0
 22 10  1  0  0  0  0
 23 14  1  0  0  0  0
 25 18  1  0  0  0  0
 26 25  2  0  0  0  0
 27 24  1  1  0  0  0
 27 12  1  0  0  0  0
 28 30  1  0  0  0  0
 30 29  2  0  0  0  0
M  END
>  <MODEL>
9

>  <REMARK>
 VINA RESULT:      -7.7      2.596      4.035
  Name = 
  2 active torsions:
  status: ('A' for Active; 'I' for Inactive)
    1  A    between atoms: C_11  and  C_28
    2  A    between atoms: C_28  and  C_30
                            x       y       z     vdW  Elec       q    Type
                         _______ _______ _______ _____ _____    ______ ____

>  <TORSDO>
F 2

$$$$
