=
 OpenBabel11112416523D

 31 35  0  0  1  0  0  0  0  0999 V2000
  185.4290  178.0490  147.1290 C   0  0  0  0  0  0  0  0  0  0  0  0
  187.7640  175.7090  145.2410 C   0  0  2  0  0  3  0  0  0  0  0  0
  187.6520  176.0920  143.7710 C   0  0  0  0  0  0  0  0  0  0  0  0
  186.4630  177.1660  141.9400 C   0  0  0  0  0  0  0  0  0  0  0  0
  187.2720  176.7980  146.1620 C   0  0  0  0  0  0  0  0  0  0  0  0
  186.3360  178.8750  147.7970 C   0  0  0  0  0  3  0  0  0  0  0  0
  186.5670  176.8460  143.2950 C   0  0  0  0  0  3  0  0  0  0  0  0
  190.0530  176.5230  145.6680 N   0  0  0  0  0  0  0  0  0  0  0  0
  184.0650  178.2590  147.2700 O   0  0  0  0  0  1  0  0  0  0  0  0
  189.6760  174.8290  143.2790 O   0  0  0  0  0  0  0  0  0  0  0  0
  185.3670  177.9430  141.4750 N   0  0  0  0  0  1  0  0  0  0  0  0
  189.6540  177.3300  146.8240 C   0  0  0  0  0  2  0  0  0  0  0  0
  189.2100  175.3150  145.6180 C   0  0  2  0  0  3  0  0  0  0  0  0
  185.8960  177.0120  146.3160 C   0  0  0  0  0  3  0  0  0  0  0  0
  187.4370  176.7260  141.0400 C   0  0  0  0  0  3  0  0  0  0  0  0
  188.1830  177.6320  146.8390 C   0  0  0  0  0  0  0  0  0  0  0  0
  187.7100  178.6590  147.6610 C   0  0  0  0  0  3  0  0  0  0  0  0
  189.7170  174.2870  144.5970 C   0  0  0  0  0  2  0  0  0  0  0  0
  188.6100  175.6200  142.8480 C   0  0  0  0  0  0  0  0  0  0  0  0
  188.5070  175.9520  141.4950 C   0  0  0  0  0  3  0  0  0  0  0  0
  191.4420  176.1490  145.9180 C   0  0  0  0  0  2  0  0  0  0  0  0
  191.7820  177.3620  143.9070 O   0  0  0  0  0  0  0  0  0  0  0  0
  192.2960  176.6150  144.7830 C   0  0  0  0  0  0  0  0  0  0  0  0
  196.3290  175.3320  144.2600 N   0  0  0  0  0  0  0  0  0  0  0  0
  194.2490  176.1600  143.2940 C   0  0  0  0  0  2  0  0  0  0  0  0
  194.1450  176.1150  146.9300 O   0  0  0  0  0  0  0  0  0  0  0  0
  197.4060  174.3820  144.0440 C   0  0  0  0  0  1  0  0  0  0  0  0
  195.3590  175.1160  143.1910 C   0  0  0  0  0  2  0  0  0  0  0  0
  194.4670  175.7870  145.7580 C   0  0  0  0  0  0  0  0  0  0  0  0
  193.6470  176.1500  144.6290 N   0  0  0  0  0  0  0  0  0  0  0  0
  195.7050  174.9750  145.5340 C   0  0  0  0  0  2  0  0  0  0  0  0
  1  9  1  0  0  0  0
  1  6  1  0  0  0  0
  2  3  1  6  0  0  0
  2 13  1  0  0  0  0
  2  5  1  0  0  0  0
  4  7  2  0  0  0  0
  5 14  1  0  0  0  0
  5 16  2  0  0  0  0
  7  3  1  0  0  0  0
  8 21  1  0  0  0  0
  8 12  1  0  0  0  0
 10 18  1  0  0  0  0
 11  4  1  0  0  0  0
 12 16  1  0  0  0  0
 13 18  1  6  0  0  0
 13  8  1  0  0  0  0
 14  1  2  0  0  0  0
 15 20  2  0  0  0  0
 15  4  1  0  0  0  0
 16 17  1  0  0  0  0
 17  6  2  0  0  0  0
 19 10  1  0  0  0  0
 19  3  2  0  0  0  0
 20 19  1  0  0  0  0
 22 23  2  0  0  0  0
 23 21  1  0  0  0  0
 24 31  1  0  0  0  0
 25 30  1  0  0  0  0
 27 24  1  0  0  0  0
 28 25  1  0  0  0  0
 28 24  1  0  0  0  0
 29 26  2  0  0  0  0
 30 23  1  0  0  0  0
 30 29  1  0  0  0  0
 31 29  1  0  0  0  0
M  END
>  <MODEL>
1

>  <REMARK>
 VINA RESULT:      -8.3      0.000      0.000
  Name = 
  2 active torsions:
  status: ('A' for Active; 'I' for Inactive)
    1  A    between atoms: C_5  and  C_16
    2  A    between atoms: N_10  and  C_16
                            x       y       z     vdW  Elec       q    Type
                         _______ _______ _______ _____ _____    ______ ____

>  <TORSDO>
F 2

$$$$
=
 OpenBabel11112416523D

 31 35  0  0  1  0  0  0  0  0999 V2000
  186.3770  177.9190  147.1510 C   0  0  0  0  0  0  0  0  0  0  0  0
  189.1360  177.5870  144.5510 C   0  0  2  0  0  3  0  0  0  0  0  0
  190.1800  176.6550  145.1550 C   0  0  0  0  0  0  0  0  0  0  0  0
  191.1970  175.5680  147.0790 C   0  0  0  0  0  0  0  0  0  0  0  0
  187.7950  177.4730  145.2320 C   0  0  0  0  0  0  0  0  0  0  0  0
  185.3400  177.1970  146.5570 C   0  0  0  0  0  3  0  0  0  0  0  0
  190.2180  176.4030  146.5360 C   0  0  0  0  0  3  0  0  0  0  0  0
  188.2610  176.0860  142.8000 N   0  0  0  0  0  0  0  0  0  0  0  0
  186.1940  178.4960  148.4000 O   0  0  0  0  0  1  0  0  0  0  0  0
  191.1960  176.3580  142.9620 O   0  0  0  0  0  0  0  0  0  0  0  0
  191.2150  175.3100  148.4780 N   0  0  0  0  0  1  0  0  0  0  0  0
  186.8670  176.2460  143.2250 C   0  0  0  0  0  2  0  0  0  0  0  0
  188.9770  177.3540  143.0310 C   0  0  2  0  0  3  0  0  0  0  0  0
  187.6000  178.0590  146.4900 C   0  0  0  0  0  3  0  0  0  0  0  0
  192.1580  174.9850  146.2500 C   0  0  0  0  0  3  0  0  0  0  0  0
  186.7460  176.7470  144.6350 C   0  0  0  0  0  0  0  0  0  0  0  0
  185.5210  176.6220  145.2960 C   0  0  0  0  0  3  0  0  0  0  0  0
  190.3700  177.3670  142.3870 C   0  0  0  0  0  2  0  0  0  0  0  0
  191.1770  176.0910  144.3320 C   0  0  0  0  0  0  0  0  0  0  0  0
  192.1480  175.2480  144.8780 C   0  0  0  0  0  3  0  0  0  0  0  0
  188.1990  175.8050  141.3690 C   0  0  0  0  0  2  0  0  0  0  0  0
  188.3450  173.5630  142.1360 O   0  0  0  0  0  0  0  0  0  0  0  0
  188.3760  174.3370  141.1410 C   0  0  0  0  0  0  0  0  0  0  0  0
  189.2160  172.6910  137.2980 N   0  0  0  0  0  0  0  0  0  0  0  0
  189.3650  172.5320  139.7270 C   0  0  0  0  0  2  0  0  0  0  0  0
  187.3070  175.3370  138.6640 O   0  0  0  0  0  0  0  0  0  0  0  0
  189.9730  172.4790  136.0780 C   0  0  0  0  0  1  0  0  0  0  0  0
  190.1290  172.4340  138.4080 C   0  0  0  0  0  2  0  0  0  0  0  0
  188.2110  174.4610  138.6300 C   0  0  0  0  0  0  0  0  0  0  0  0
  188.6740  173.8190  139.8340 N   0  0  0  0  0  0  0  0  0  0  0  0
  188.8430  174.1040  137.3200 C   0  0  0  0  0  2  0  0  0  0  0  0
  1  9  1  0  0  0  0
  2  3  1  1  0  0  0
  2  5  1  0  0  0  0
  3  7  1  0  0  0  0
  4 11  1  0  0  0  0
  5 14  1  0  0  0  0
  6  1  1  0  0  0  0
  7  4  2  0  0  0  0
  8 13  1  0  0  0  0
  8 12  1  0  0  0  0
 10 19  1  0  0  0  0
 12 16  1  0  0  0  0
 13 18  1  6  0  0  0
 13  2  1  0  0  0  0
 14  1  2  0  0  0  0
 15  4  1  0  0  0  0
 16  5  2  0  0  0  0
 16 17  1  0  0  0  0
 17  6  2  0  0  0  0
 18 10  1  0  0  0  0
 19 20  1  0  0  0  0
 19  3  2  0  0  0  0
 20 15  2  0  0  0  0
 21  8  1  0  0  0  0
 23 21  1  0  0  0  0
 23 22  2  0  0  0  0
 24 31  1  0  0  0  0
 24 28  1  0  0  0  0
 25 30  1  0  0  0  0
 27 24  1  0  0  0  0
 28 25  1  0  0  0  0
 29 26  2  0  0  0  0
 29 30  1  0  0  0  0
 30 23  1  0  0  0  0
 31 29  1  0  0  0  0
M  END
>  <MODEL>
2

>  <REMARK>
 VINA RESULT:      -7.7      3.129      6.161
  Name = 
  2 active torsions:
  status: ('A' for Active; 'I' for Inactive)
    1  A    between atoms: C_5  and  C_16
    2  A    between atoms: N_10  and  C_16
                            x       y       z     vdW  Elec       q    Type
                         _______ _______ _______ _____ _____    ______ ____

>  <TORSDO>
F 2

$$$$
=
 OpenBabel11112416523D

 31 35  0  0  1  0  0  0  0  0999 V2000
  193.6500  170.6910  144.5880 C   0  0  0  0  0  0  0  0  0  0  0  0
  194.1870  174.2700  145.7650 C   0  0  2  0  0  3  0  0  0  0  0  0
  195.1060  174.9220  144.7390 C   0  0  0  0  0  0  0  0  0  0  0  0
  196.7320  174.7590  142.9370 C   0  0  0  0  0  0  0  0  0  0  0  0
  193.5170  173.0260  145.2350 C   0  0  0  0  0  0  0  0  0  0  0  0
  192.3190  170.7280  144.1670 C   0  0  0  0  0  3  0  0  0  0  0  0
  195.8730  174.1480  143.8540 C   0  0  0  0  0  3  0  0  0  0  0  0
  192.1100  175.4910  145.2380 N   0  0  0  0  0  0  0  0  0  0  0  0
  194.3810  169.5170  144.4720 O   0  0  0  0  0  1  0  0  0  0  0  0
  194.5410  177.1220  145.6190 O   0  0  0  0  0  0  0  0  0  0  0  0
  197.4920  173.9630  142.0360 N   0  0  0  0  0  1  0  0  0  0  0  0
  191.3200  174.2680  145.0670 C   0  0  0  0  0  2  0  0  0  0  0  0
  193.1210  175.2610  146.2860 C   0  0  2  0  0  3  0  0  0  0  0  0
  194.2460  171.8360  145.1220 C   0  0  0  0  0  3  0  0  0  0  0  0
  196.8430  176.1500  142.9020 C   0  0  0  0  0  3  0  0  0  0  0  0
  192.1740  173.0600  144.8120 C   0  0  0  0  0  0  0  0  0  0  0  0
  191.5800  171.9070  144.2910 C   0  0  0  0  0  3  0  0  0  0  0  0
  193.8270  176.5550  146.7140 C   0  0  0  0  0  2  0  0  0  0  0  0
  195.2540  176.3250  144.7220 C   0  0  0  0  0  0  0  0  0  0  0  0
  196.1060  176.9320  143.7950 C   0  0  0  0  0  3  0  0  0  0  0  0
  191.1590  176.5060  145.6810 C   0  0  0  0  0  2  0  0  0  0  0  0
  190.4760  176.8220  143.4300 O   0  0  0  0  0  0  0  0  0  0  0  0
  190.1120  176.7010  144.6310 C   0  0  0  0  0  0  0  0  0  0  0  0
  185.9690  177.1030  145.5590 N   0  0  0  0  0  0  0  0  0  0  0  0
  187.8380  177.5630  144.0610 C   0  0  0  0  0  2  0  0  0  0  0  0
  188.7670  175.2960  146.7510 O   0  0  0  0  0  0  0  0  0  0  0  0
  184.7910  177.7060  146.1560 C   0  0  0  0  0  1  0  0  0  0  0  0
  186.6460  178.1570  144.8090 C   0  0  0  0  0  2  0  0  0  0  0  0
  188.1570  176.2160  146.1450 C   0  0  0  0  0  0  0  0  0  0  0  0
  188.7260  176.8480  144.9820 N   0  0  0  0  0  0  0  0  0  0  0  0
  186.8340  176.6890  146.6630 C   0  0  0  0  0  2  0  0  0  0  0  0
  1 14  1  0  0  0  0
  2  3  1  6  0  0  0
  2 13  1  0  0  0  0
  4  7  1  0  0  0  0
  5  2  1  0  0  0  0
  6 17  1  0  0  0  0
  6  1  2  0  0  0  0
  7  3  2  0  0  0  0
  8 21  1  0  0  0  0
  8 13  1  0  0  0  0
  9  1  1  0  0  0  0
 10 18  1  0  0  0  0
 11  4  1  0  0  0  0
 12  8  1  0  0  0  0
 13 18  1  6  0  0  0
 14  5  2  0  0  0  0
 15  4  2  0  0  0  0
 15 20  1  0  0  0  0
 16 12  1  0  0  0  0
 16  5  1  0  0  0  0
 17 16  2  0  0  0  0
 19  3  1  0  0  0  0
 19 10  1  0  0  0  0
 20 19  2  0  0  0  0
 22 23  2  0  0  0  0
 23 30  1  0  0  0  0
 23 21  1  0  0  0  0
 24 27  1  0  0  0  0
 24 31  1  0  0  0  0
 25 28  1  0  0  0  0
 25 30  1  0  0  0  0
 28 24  1  0  0  0  0
 29 31  1  0  0  0  0
 29 26  2  0  0  0  0
 30 29  1  0  0  0  0
M  END
>  <MODEL>
3

>  <REMARK>
 VINA RESULT:      -7.6      2.640      8.181
  Name = 
  2 active torsions:
  status: ('A' for Active; 'I' for Inactive)
    1  A    between atoms: C_5  and  C_16
    2  A    between atoms: N_10  and  C_16
                            x       y       z     vdW  Elec       q    Type
                         _______ _______ _______ _____ _____    ______ ____

>  <TORSDO>
F 2

$$$$
=
 OpenBabel11112416523D

 31 35  0  0  1  0  0  0  0  0999 V2000
  185.4150  179.0030  143.3020 C   0  0  0  0  0  0  0  0  0  0  0  0
  188.8090  177.3550  143.8020 C   0  0  2  0  0  3  0  0  0  0  0  0
  188.7010  176.5410  145.0860 C   0  0  0  0  0  0  0  0  0  0  0  0
  187.6100  176.0480  147.2040 C   0  0  0  0  0  0  0  0  0  0  0  0
  187.4600  177.6980  143.2200 C   0  0  0  0  0  0  0  0  0  0  0  0
  184.9130  178.2910  142.2100 C   0  0  0  0  0  3  0  0  0  0  0  0
  187.6800  176.7840  146.0180 C   0  0  0  0  0  3  0  0  0  0  0  0
  188.9210  175.4950  142.1870 N   0  0  0  0  0  0  0  0  0  0  0  0
  184.6500  180.0000  143.8900 O   0  0  0  0  0  1  0  0  0  0  0  0
  190.7410  175.3420  144.5060 O   0  0  0  0  0  0  0  0  0  0  0  0
  186.5610  176.2950  148.1320 N   0  0  0  0  0  1  0  0  0  0  0  0
  187.8170  176.0100  141.3710 C   0  0  0  0  0  2  0  0  0  0  0  0
  189.6730  176.6350  142.7420 C   0  0  2  0  0  3  0  0  0  0  0  0
  186.6860  178.7090  143.8030 C   0  0  0  0  0  3  0  0  0  0  0  0
  188.5670  175.0690  147.4770 C   0  0  0  0  0  3  0  0  0  0  0  0
  186.9520  176.9840  142.1170 C   0  0  0  0  0  0  0  0  0  0  0  0
  185.6860  177.2920  141.6120 C   0  0  0  0  0  3  0  0  0  0  0  0
  190.9910  176.2030  143.3990 C   0  0  0  0  0  2  0  0  0  0  0  0
  189.6850  175.5760  145.3890 C   0  0  0  0  0  0  0  0  0  0  0  0
  189.6040  174.8350  146.5720 C   0  0  0  0  0  3  0  0  0  0  0  0
  189.7670  174.7450  141.2630 C   0  0  0  0  0  2  0  0  0  0  0  0
  189.6570  172.9420  142.8010 O   0  0  0  0  0  0  0  0  0  0  0  0
  189.6940  173.2880  141.5900 C   0  0  0  0  0  0  0  0  0  0  0  0
  189.8420  170.2500  138.6010 N   0  0  0  0  0  0  0  0  0  0  0  0
  190.2340  170.9480  140.9050 C   0  0  0  0  0  2  0  0  0  0  0  0
  188.5190  173.5090  138.9730 O   0  0  0  0  0  0  0  0  0  0  0  0
  190.4170  169.4800  137.5130 C   0  0  0  0  0  1  0  0  0  0  0  0
  190.8230  170.2470  139.6820 C   0  0  0  0  0  2  0  0  0  0  0  0
  189.2710  172.5300  139.2240 C   0  0  0  0  0  0  0  0  0  0  0  0
  189.7620  172.2900  140.5570 N   0  0  0  0  0  0  0  0  0  0  0  0
  189.6910  171.6190  138.1120 C   0  0  0  0  0  2  0  0  0  0  0  0
  1 14  1  0  0  0  0
  1  9  1  0  0  0  0
  2  5  1  6  0  0  0
  2  3  1  0  0  0  0
  3 19  2  0  0  0  0
  3  7  1  0  0  0  0
  4 15  1  0  0  0  0
  4 11  1  0  0  0  0
  5 14  2  0  0  0  0
  6  1  2  0  0  0  0
  7  4  2  0  0  0  0
  8 13  1  0  0  0  0
 10 19  1  0  0  0  0
 12 16  1  0  0  0  0
 12  8  1  0  0  0  0
 13 18  1  1  0  0  0
 13  2  1  0  0  0  0
 16  5  1  0  0  0  0
 17 16  2  0  0  0  0
 17  6  1  0  0  0  0
 18 10  1  0  0  0  0
 19 20  1  0  0  0  0
 20 15  2  0  0  0  0
 21 23  1  0  0  0  0
 21  8  1  0  0  0  0
 23 22  2  0  0  0  0
 24 28  1  0  0  0  0
 26 29  2  0  0  0  0
 27 24  1  0  0  0  0
 28 25  1  0  0  0  0
 29 30  1  0  0  0  0
 30 25  1  0  0  0  0
 30 23  1  0  0  0  0
 31 24  1  0  0  0  0
 31 29  1  0  0  0  0
M  END
>  <MODEL>
4

>  <REMARK>
 VINA RESULT:      -7.5      3.716      6.034
  Name = 
  2 active torsions:
  status: ('A' for Active; 'I' for Inactive)
    1  A    between atoms: C_5  and  C_16
    2  A    between atoms: N_10  and  C_16
                            x       y       z     vdW  Elec       q    Type
                         _______ _______ _______ _____ _____    ______ ____

>  <TORSDO>
F 2

$$$$
=
 OpenBabel11112416523D

 31 35  0  0  1  0  0  0  0  0999 V2000
  187.1680  177.3550  140.8850 C   0  0  0  0  0  0  0  0  0  0  0  0
  188.5540  177.6910  144.4140 C   0  0  2  0  0  3  0  0  0  0  0  0
  187.3470  177.8220  145.3340 C   0  0  0  0  0  0  0  0  0  0  0  0
  184.9930  178.3200  145.6920 C   0  0  0  0  0  0  0  0  0  0  0  0
  188.1970  177.1060  143.0690 C   0  0  0  0  0  0  0  0  0  0  0  0
  187.4410  176.0150  140.5990 C   0  0  0  0  0  3  0  0  0  0  0  0
  186.0850  178.1770  144.8330 C   0  0  0  0  0  3  0  0  0  0  0  0
  189.2950  175.4350  145.0840 N   0  0  0  0  0  0  0  0  0  0  0  0
  186.5180  178.1450  139.9470 O   0  0  0  0  0  1  0  0  0  0  0  0
  188.7570  177.3520  147.2640 O   0  0  0  0  0  0  0  0  0  0  0  0
  183.7170  178.6660  145.1680 N   0  0  0  0  0  1  0  0  0  0  0  0
  189.3080  174.9260  143.7090 C   0  0  0  0  0  2  0  0  0  0  0  0
  189.6810  176.8580  145.0670 C   0  0  2  0  0  3  0  0  0  0  0  0
  187.5470  177.8990  142.1150 C   0  0  0  0  0  3  0  0  0  0  0  0
  185.1520  178.1210  147.0650 C   0  0  0  0  0  3  0  0  0  0  0  0
  188.4730  175.7560  142.7770 C   0  0  0  0  0  0  0  0  0  0  0  0
  188.1030  175.2220  141.5400 C   0  0  0  0  0  3  0  0  0  0  0  0
  189.9430  177.4110  146.4740 C   0  0  0  0  0  2  0  0  0  0  0  0
  187.5060  177.6610  146.7270 C   0  0  0  0  0  0  0  0  0  0  0  0
  186.4080  177.7940  147.5810 C   0  0  0  0  0  3  0  0  0  0  0  0
  190.3040  174.6560  145.7940 C   0  0  0  0  0  2  0  0  0  0  0  0
  189.6920  172.6090  144.7610 O   0  0  0  0  0  0  0  0  0  0  0  0
  190.6220  173.4210  145.0130 C   0  0  0  0  0  0  0  0  0  0  0  0
  194.5880  172.4210  143.8050 N   0  0  0  0  0  0  0  0  0  0  0  0
  192.3290  171.7090  144.3860 C   0  0  0  0  0  2  0  0  0  0  0  0
  192.6170  175.3310  144.2050 O   0  0  0  0  0  0  0  0  0  0  0  0
  195.9880  172.0820  143.9840 C   0  0  0  0  0  1  0  0  0  0  0  0
  193.8210  171.4790  144.6160 C   0  0  0  0  0  2  0  0  0  0  0  0
  192.9560  174.1300  144.3790 C   0  0  0  0  0  0  0  0  0  0  0  0
  191.9730  173.1080  144.6350 N   0  0  0  0  0  0  0  0  0  0  0  0
  194.4080  173.7630  144.3550 C   0  0  0  0  0  2  0  0  0  0  0  0
  1 14  1  0  0  0  0
  2  5  1  6  0  0  0
  2 13  1  0  0  0  0
  2  3  1  0  0  0  0
  3 19  1  0  0  0  0
  4 15  2  0  0  0  0
  6  1  2  0  0  0  0
  6 17  1  0  0  0  0
  7  3  2  0  0  0  0
  7  4  1  0  0  0  0
  8 21  1  0  0  0  0
  9  1  1  0  0  0  0
 11  4  1  0  0  0  0
 12  8  1  0  0  0  0
 13  8  1  0  0  0  0
 13 18  1  1  0  0  0
 14  5  2  0  0  0  0
 15 20  1  0  0  0  0
 16  5  1  0  0  0  0
 16 12  1  0  0  0  0
 17 16  2  0  0  0  0
 18 10  1  0  0  0  0
 19 10  1  0  0  0  0
 19 20  2  0  0  0  0
 22 23  2  0  0  0  0
 23 21  1  0  0  0  0
 24 27  1  0  0  0  0
 24 31  1  0  0  0  0
 24 28  1  0  0  0  0
 25 28  1  0  0  0  0
 25 30  1  0  0  0  0
 26 29  2  0  0  0  0
 29 30  1  0  0  0  0
 30 23  1  0  0  0  0
 31 29  1  0  0  0  0
M  END
>  <MODEL>
5

>  <REMARK>
 VINA RESULT:      -7.4      2.424      4.470
  Name = 
  2 active torsions:
  status: ('A' for Active; 'I' for Inactive)
    1  A    between atoms: C_5  and  C_16
    2  A    between atoms: N_10  and  C_16
                            x       y       z     vdW  Elec       q    Type
                         _______ _______ _______ _____ _____    ______ ____

>  <TORSDO>
F 2

$$$$
=
 OpenBabel11112416523D

 31 35  0  0  1  0  0  0  0  0999 V2000
  185.5470  179.0230  143.2600 C   0  0  0  0  0  0  0  0  0  0  0  0
  188.9000  177.2530  143.5900 C   0  0  2  0  0  3  0  0  0  0  0  0
  188.8250  176.4360  144.8740 C   0  0  0  0  0  0  0  0  0  0  0  0
  187.8200  175.9700  147.0390 C   0  0  0  0  0  0  0  0  0  0  0  0
  187.5380  177.6480  143.0740 C   0  0  0  0  0  0  0  0  0  0  0  0
  184.9670  178.3360  142.1910 C   0  0  0  0  0  3  0  0  0  0  0  0
  187.8590  176.7100  145.8550 C   0  0  0  0  0  3  0  0  0  0  0  0
  188.8670  175.4000  141.9630 N   0  0  0  0  0  0  0  0  0  0  0  0
  184.8470  180.0440  143.8890 O   0  0  0  0  0  1  0  0  0  0  0  0
  190.7900  175.1680  144.1910 O   0  0  0  0  0  0  0  0  0  0  0  0
  186.8260  176.2490  148.0190 N   0  0  0  0  0  1  0  0  0  0  0  0
  187.7450  175.9590  141.2030 C   0  0  0  0  0  2  0  0  0  0  0  0
  189.6850  176.5090  142.4860 C   0  0  2  0  0  3  0  0  0  0  0  0
  186.8290  178.6820  143.6990 C   0  0  0  0  0  3  0  0  0  0  0  0
  188.7530  174.9560  147.2630 C   0  0  0  0  0  3  0  0  0  0  0  0
  186.9520  176.9580  141.9950 C   0  0  0  0  0  0  0  0  0  0  0  0
  185.6750  177.3140  141.5530 C   0  0  0  0  0  3  0  0  0  0  0  0
  191.0180  176.0270  143.0760 C   0  0  0  0  0  2  0  0  0  0  0  0
  189.7880  175.4360  145.1250 C   0  0  0  0  0  0  0  0  0  0  0  0
  189.7370  174.6910  146.3070 C   0  0  0  0  0  3  0  0  0  0  0  0
  189.6410  174.6260  140.9960 C   0  0  0  0  0  2  0  0  0  0  0  0
  188.5260  172.5500  141.2810 O   0  0  0  0  0  0  0  0  0  0  0  0
  189.6140  173.1810  141.3780 C   0  0  0  0  0  0  0  0  0  0  0  0
  193.0030  171.1670  143.0030 N   0  0  0  0  0  0  0  0  0  0  0  0
  190.5820  171.3570  142.7840 C   0  0  0  0  0  2  0  0  0  0  0  0
  192.3390  173.6810  140.6050 O   0  0  0  0  0  0  0  0  0  0  0  0
  194.0590  170.9010  143.9640 C   0  0  0  0  0  1  0  0  0  0  0  0
  191.7500  171.1910  143.7530 C   0  0  0  0  0  2  0  0  0  0  0  0
  192.1120  172.9420  141.5990 C   0  0  0  0  0  0  0  0  0  0  0  0
  190.7710  172.5380  141.9380 N   0  0  0  0  0  0  0  0  0  0  0  0
  193.2510  172.5050  142.4680 C   0  0  0  0  0  2  0  0  0  0  0  0
  1 14  1  0  0  0  0
  1  9  1  0  0  0  0
  2  5  1  6  0  0  0
  2  3  1  0  0  0  0
  3 19  2  0  0  0  0
  3  7  1  0  0  0  0
  4 15  1  0  0  0  0
  4 11  1  0  0  0  0
  5 14  2  0  0  0  0
  6  1  2  0  0  0  0
  7  4  2  0  0  0  0
  8 13  1  0  0  0  0
 10 19  1  0  0  0  0
 12  8  1  0  0  0  0
 12 16  1  0  0  0  0
 13 18  1  1  0  0  0
 13  2  1  0  0  0  0
 16  5  1  0  0  0  0
 17 16  2  0  0  0  0
 17  6  1  0  0  0  0
 18 10  1  0  0  0  0
 19 20  1  0  0  0  0
 20 15  2  0  0  0  0
 21 23  1  0  0  0  0
 21  8  1  0  0  0  0
 22 23  2  0  0  0  0
 23 30  1  0  0  0  0
 24 28  1  0  0  0  0
 24 27  1  0  0  0  0
 25 28  1  0  0  0  0
 26 29  2  0  0  0  0
 29 30  1  0  0  0  0
 29 31  1  0  0  0  0
 30 25  1  0  0  0  0
 31 24  1  0  0  0  0
M  END
>  <MODEL>
6

>  <REMARK>
 VINA RESULT:      -7.4      3.009      4.917
  Name = 
  2 active torsions:
  status: ('A' for Active; 'I' for Inactive)
    1  A    between atoms: C_5  and  C_16
    2  A    between atoms: N_10  and  C_16
                            x       y       z     vdW  Elec       q    Type
                         _______ _______ _______ _____ _____    ______ ____

>  <TORSDO>
F 2

$$$$
=
 OpenBabel11112416523D

 31 35  0  0  1  0  0  0  0  0999 V2000
  187.7800  176.5070  146.7020 C   0  0  0  0  0  0  0  0  0  0  0  0
  190.7910  174.4270  145.6530 C   0  0  2  0  0  3  0  0  0  0  0  0
  190.8060  174.4400  144.1300 C   0  0  0  0  0  0  0  0  0  0  0  0
  189.6850  174.7740  141.9970 C   0  0  0  0  0  0  0  0  0  0  0  0
  189.9590  175.5450  146.2330 C   0  0  0  0  0  0  0  0  0  0  0  0
  188.3930  177.6500  147.2210 C   0  0  0  0  0  3  0  0  0  0  0  0
  189.6650  174.7930  143.3930 C   0  0  0  0  0  3  0  0  0  0  0  0
  192.7780  175.8310  146.0610 N   0  0  0  0  0  0  0  0  0  0  0  0
  186.3960  176.4160  146.6700 O   0  0  0  0  0  1  0  0  0  0  0  0
  193.0980  173.6140  144.1380 O   0  0  0  0  0  0  0  0  0  0  0  0
  188.5260  175.1490  141.2630 N   0  0  0  0  0  1  0  0  0  0  0  0
  192.0620  176.7550  146.9450 C   0  0  0  0  0  2  0  0  0  0  0  0
  192.2210  174.4780  146.2380 C   0  0  2  0  0  3  0  0  0  0  0  0
  188.5610  175.4570  146.2120 C   0  0  0  0  0  3  0  0  0  0  0  0
  190.8440  174.3890  141.3190 C   0  0  0  0  0  3  0  0  0  0  0  0
  190.5730  176.6970  146.7600 C   0  0  0  0  0  0  0  0  0  0  0  0
  189.7870  177.7390  147.2600 C   0  0  0  0  0  3  0  0  0  0  0  0
  193.0680  173.4000  145.5470 C   0  0  0  0  0  2  0  0  0  0  0  0
  191.9600  174.0160  143.4370 C   0  0  0  0  0  0  0  0  0  0  0  0
  191.9790  174.0080  142.0390 C   0  0  0  0  0  3  0  0  0  0  0  0
  194.1650  175.8600  146.5130 C   0  0  0  0  0  2  0  0  0  0  0  0
  194.9130  177.8110  145.3870 O   0  0  0  0  0  0  0  0  0  0  0  0
  195.0070  176.5580  145.4940 C   0  0  0  0  0  0  0  0  0  0  0  0
  197.5400  174.4640  142.7760 N   0  0  0  0  0  0  0  0  0  0  0  0
  196.1960  176.4300  143.3010 C   0  0  0  0  0  2  0  0  0  0  0  0
  196.4710  174.1660  146.1340 O   0  0  0  0  0  0  0  0  0  0  0  0
  197.8680  173.5410  141.7040 C   0  0  0  0  0  1  0  0  0  0  0  0
  196.5090  175.3600  142.2580 C   0  0  0  0  0  2  0  0  0  0  0  0
  196.4270  174.5520  144.9370 C   0  0  0  0  0  0  0  0  0  0  0  0
  195.8380  175.8190  144.5830 N   0  0  0  0  0  0  0  0  0  0  0  0
  196.9630  173.6650  143.8550 C   0  0  0  0  0  2  0  0  0  0  0  0
  1  6  1  0  0  0  0
  2  3  1  6  0  0  0
  2  5  1  0  0  0  0
  2 13  1  0  0  0  0
  4  7  1  0  0  0  0
  5 16  2  0  0  0  0
  6 17  2  0  0  0  0
  7  3  2  0  0  0  0
  8 13  1  0  0  0  0
  8 21  1  0  0  0  0
  8 12  1  0  0  0  0
  9  1  1  0  0  0  0
 10 18  1  0  0  0  0
 11  4  1  0  0  0  0
 13 18  1  6  0  0  0
 14  5  1  0  0  0  0
 14  1  2  0  0  0  0
 15  4  2  0  0  0  0
 15 20  1  0  0  0  0
 16 12  1  0  0  0  0
 16 17  1  0  0  0  0
 19  3  1  0  0  0  0
 19 10  1  0  0  0  0
 20 19  2  0  0  0  0
 22 23  2  0  0  0  0
 23 21  1  0  0  0  0
 24 31  1  0  0  0  0
 25 30  1  0  0  0  0
 27 24  1  0  0  0  0
 28 24  1  0  0  0  0
 28 25  1  0  0  0  0
 29 26  2  0  0  0  0
 30 29  1  0  0  0  0
 30 23  1  0  0  0  0
 31 29  1  0  0  0  0
M  END
>  <MODEL>
7

>  <REMARK>
 VINA RESULT:      -7.3      2.276      3.087
  Name = 
  2 active torsions:
  status: ('A' for Active; 'I' for Inactive)
    1  A    between atoms: C_5  and  C_16
    2  A    between atoms: N_10  and  C_16
                            x       y       z     vdW  Elec       q    Type
                         _______ _______ _______ _____ _____    ______ ____

>  <TORSDO>
F 2

$$$$
=
 OpenBabel11112416523D

 31 35  0  0  1  0  0  0  0  0999 V2000
  187.8150  177.0860  141.2820 C   0  0  0  0  0  0  0  0  0  0  0  0
  189.2330  174.0100  143.0160 C   0  0  2  0  0  3  0  0  0  0  0  0
  190.2660  173.4220  142.0620 C   0  0  0  0  0  0  0  0  0  0  0  0
  191.2130  173.1980  139.8320 C   0  0  0  0  0  0  0  0  0  0  0  0
  188.9080  175.4490  142.7020 C   0  0  0  0  0  0  0  0  0  0  0  0
  188.3640  178.1200  142.0450 C   0  0  0  0  0  3  0  0  0  0  0  0
  190.2780  173.7650  140.7010 C   0  0  0  0  0  3  0  0  0  0  0  0
  190.7650  174.8430  144.7610 N   0  0  0  0  0  0  0  0  0  0  0  0
  187.0040  177.3820  140.1950 O   0  0  0  0  0  1  0  0  0  0  0  0
  191.1700  172.0580  143.8670 O   0  0  0  0  0  0  0  0  0  0  0  0
  191.2220  173.5660  138.4590 N   0  0  0  0  0  1  0  0  0  0  0  0
  190.2090  176.1990  144.7370 C   0  0  0  0  0  2  0  0  0  0  0  0
  189.6810  173.8810  144.4900 C   0  0  2  0  0  3  0  0  0  0  0  0
  188.0840  175.7550  141.6110 C   0  0  0  0  0  3  0  0  0  0  0  0
  192.1410  172.2710  140.3120 C   0  0  0  0  0  3  0  0  0  0  0  0
  189.4570  176.4930  143.4710 C   0  0  0  0  0  0  0  0  0  0  0  0
  189.1740  177.8220  143.1440 C   0  0  0  0  0  3  0  0  0  0  0  0
  190.1090  172.4290  144.7440 C   0  0  0  0  0  2  0  0  0  0  0  0
  191.1830  172.4570  142.5290 C   0  0  0  0  0  0  0  0  0  0  0  0
  192.1240  171.9000  141.6590 C   0  0  0  0  0  3  0  0  0  0  0  0
  191.2670  174.6550  146.1190 C   0  0  0  0  0  2  0  0  0  0  0  0
  192.2010  176.5950  147.1170 O   0  0  0  0  0  0  0  0  0  0  0  0
  192.3980  175.6000  146.3680 C   0  0  0  0  0  0  0  0  0  0  0  0
  196.1910  175.2010  144.4610 N   0  0  0  0  0  0  0  0  0  0  0  0
  194.5140  176.6200  145.5180 C   0  0  0  0  0  2  0  0  0  0  0  0
  193.6650  173.0910  145.7560 O   0  0  0  0  0  0  0  0  0  0  0  0
  197.1230  175.1440  143.3480 C   0  0  0  0  0  1  0  0  0  0  0  0
  195.4380  176.4420  144.3150 C   0  0  0  0  0  2  0  0  0  0  0  0
  194.1620  174.1530  145.2980 C   0  0  0  0  0  0  0  0  0  0  0  0
  193.6590  175.4440  145.6950 N   0  0  0  0  0  0  0  0  0  0  0  0
  195.2720  174.0760  144.2950 C   0  0  0  0  0  2  0  0  0  0  0  0
  1 14  2  0  0  0  0
  1  6  1  0  0  0  0
  2  3  1  6  0  0  0
  2 13  1  0  0  0  0
  3 19  1  0  0  0  0
  4 15  2  0  0  0  0
  4  7  1  0  0  0  0
  5  2  1  0  0  0  0
  5 16  2  0  0  0  0
  6 17  2  0  0  0  0
  7  3  2  0  0  0  0
  8 21  1  0  0  0  0
  9  1  1  0  0  0  0
 10 18  1  0  0  0  0
 11  4  1  0  0  0  0
 12  8  1  0  0  0  0
 13 18  1  6  0  0  0
 13  8  1  0  0  0  0
 14  5  1  0  0  0  0
 15 20  1  0  0  0  0
 16 12  1  0  0  0  0
 17 16  1  0  0  0  0
 19 10  1  0  0  0  0
 20 19  2  0  0  0  0
 21 23  1  0  0  0  0
 23 22  2  0  0  0  0
 25 30  1  0  0  0  0
 27 24  1  0  0  0  0
 28 24  1  0  0  0  0
 28 25  1  0  0  0  0
 29 30  1  0  0  0  0
 29 26  2  0  0  0  0
 30 23  1  0  0  0  0
 31 24  1  0  0  0  0
 31 29  1  0  0  0  0
M  END
>  <MODEL>
8

>  <REMARK>
 VINA RESULT:      -7.2      3.140      4.186
  Name = 
  2 active torsions:
  status: ('A' for Active; 'I' for Inactive)
    1  A    between atoms: C_5  and  C_16
    2  A    between atoms: N_10  and  C_16
                            x       y       z     vdW  Elec       q    Type
                         _______ _______ _______ _____ _____    ______ ____

>  <TORSDO>
F 2

$$$$
=
 OpenBabel11112416523D

 31 35  0  0  1  0  0  0  0  0999 V2000
  185.7470  177.5060  142.4320 C   0  0  0  0  0  0  0  0  0  0  0  0
  188.4720  174.9180  143.0370 C   0  0  2  0  0  3  0  0  0  0  0  0
  188.9450  174.4690  141.6600 C   0  0  0  0  0  0  0  0  0  0  0  0
  188.6020  174.2540  139.2620 C   0  0  0  0  0  0  0  0  0  0  0  0
  187.7370  176.2360  142.9960 C   0  0  0  0  0  0  0  0  0  0  0  0
  186.3850  178.6860  142.8240 C   0  0  0  0  0  3  0  0  0  0  0  0
  188.1680  174.6960  140.5140 C   0  0  0  0  0  3  0  0  0  0  0  0
  190.4780  176.1750  143.7330 N   0  0  0  0  0  0  0  0  0  0  0  0
  184.4460  177.5480  141.9520 O   0  0  0  0  0  1  0  0  0  0  0  0
  190.9240  173.4600  142.6610 O   0  0  0  0  0  0  0  0  0  0  0  0
  187.8100  174.5040  138.1060 N   0  0  0  0  0  1  0  0  0  0  0  0
  189.7230  177.3890  144.0550 C   0  0  0  0  0  2  0  0  0  0  0  0
  189.6430  175.0000  144.0430 C   0  0  2  0  0  3  0  0  0  0  0  0
  186.4210  176.2850  142.5200 C   0  0  0  0  0  3  0  0  0  0  0  0
  189.8130  173.5700  139.1420 C   0  0  0  0  0  3  0  0  0  0  0  0
  188.3760  177.4260  143.3930 C   0  0  0  0  0  0  0  0  0  0  0  0
  187.6930  178.6430  143.3140 C   0  0  0  0  0  3  0  0  0  0  0  0
  190.4330  173.6860  143.9800 C   0  0  0  0  0  2  0  0  0  0  0  0
  190.1490  173.7430  141.5350 C   0  0  0  0  0  0  0  0  0  0  0  0
  190.5840  173.3130  140.2790 C   0  0  0  0  0  3  0  0  0  0  0  0
  191.6440  176.2000  144.6100 C   0  0  0  0  0  2  0  0  0  0  0  0
  192.7980  176.9420  142.6730 O   0  0  0  0  0  0  0  0  0  0  0  0
  192.8830  176.3580  143.7870 C   0  0  0  0  0  0  0  0  0  0  0  0
  196.6410  174.7130  144.9490 N   0  0  0  0  0  0  0  0  0  0  0  0
  195.1370  175.4670  143.1850 C   0  0  0  0  0  2  0  0  0  0  0  0
  193.8250  176.1860  146.5010 O   0  0  0  0  0  0  0  0  0  0  0  0
  197.5870  173.6660  145.2920 C   0  0  0  0  0  1  0  0  0  0  0  0
  196.0620  174.3490  143.6590 C   0  0  0  0  0  2  0  0  0  0  0  0
  194.4700  175.6000  145.5920 C   0  0  0  0  0  0  0  0  0  0  0  0
  194.1300  175.7770  144.2030 N   0  0  0  0  0  0  0  0  0  0  0  0
  195.5870  174.6730  145.9610 C   0  0  0  0  0  2  0  0  0  0  0  0
  1 14  2  0  0  0  0
  1  6  1  0  0  0  0
  2  3  1  6  0  0  0
  2 13  1  0  0  0  0
  4  7  1  0  0  0  0
  5  2  1  0  0  0  0
  5 16  2  0  0  0  0
  6 17  2  0  0  0  0
  7  3  2  0  0  0  0
  8 13  1  0  0  0  0
  8 12  1  0  0  0  0
  8 21  1  0  0  0  0
  9  1  1  0  0  0  0
 10 18  1  0  0  0  0
 11  4  1  0  0  0  0
 13 18  1  6  0  0  0
 14  5  1  0  0  0  0
 15  4  2  0  0  0  0
 15 20  1  0  0  0  0
 16 12  1  0  0  0  0
 17 16  1  0  0  0  0
 19  3  1  0  0  0  0
 19 10  1  0  0  0  0
 20 19  2  0  0  0  0
 22 23  2  0  0  0  0
 23 30  1  0  0  0  0
 23 21  1  0  0  0  0
 24 27  1  0  0  0  0
 24 31  1  0  0  0  0
 25 28  1  0  0  0  0
 25 30  1  0  0  0  0
 28 24  1  0  0  0  0
 29 31  1  0  0  0  0
 29 26  2  0  0  0  0
 30 29  1  0  0  0  0
M  END
>  <MODEL>
9

>  <REMARK>
 VINA RESULT:      -7.2      2.520      3.025
  Name = 
  2 active torsions:
  status: ('A' for Active; 'I' for Inactive)
    1  A    between atoms: C_5  and  C_16
    2  A    between atoms: N_10  and  C_16
                            x       y       z     vdW  Elec       q    Type
                         _______ _______ _______ _____ _____    ______ ____

>  <TORSDO>
F 2

$$$$
