=
 OpenBabel11112417053D

 31 35  0  0  1  0  0  0  0  0999 V2000
  184.8010  177.7910  146.6350 C   0  0  0  0  0  0  0  0  0  0  0  0
  186.9130  176.0440  143.9930 C   0  0  2  0  0  3  0  0  0  0  0  0
  186.6210  176.6870  142.6510 C   0  0  0  0  0  0  0  0  0  0  0  0
  185.2100  178.0220  141.1890 C   0  0  0  0  0  0  0  0  0  0  0  0
  186.5190  176.9160  145.1630 C   0  0  0  0  0  0  0  0  0  0  0  0
  185.7610  178.5510  147.3100 C   0  0  0  0  0  3  0  0  0  0  0  0
  185.4660  177.4580  142.4420 C   0  0  0  0  0  3  0  0  0  0  0  0
  189.3160  176.8120  144.3380 C   0  0  2  0  0  3  0  0  0  0  0  0
  183.5030  177.8460  147.0180 F   0  0  0  0  0  0  0  0  0  0  0  0
  188.6480  175.6380  141.7670 N   0  0  0  0  0  2  0  0  0  0  0  0
  184.1000  178.7740  141.0000 F   0  0  0  0  0  0  0  0  0  0  0  0
  188.8680  177.5790  145.4960 N   0  0  0  0  0  2  0  0  0  0  0  0
  188.3930  175.6070  144.1050 C   0  0  2  0  0  3  0  0  0  0  0  0
  185.1790  176.9740  145.5660 C   0  0  0  0  0  3  0  0  0  0  0  0
  186.1010  177.8140  140.1330 C   0  0  0  0  0  3  0  0  0  0  0  0
  187.4850  177.6820  145.8460 C   0  0  0  0  0  0  0  0  0  0  0  0
  187.1010  178.4920  146.9190 C   0  0  0  0  0  3  0  0  0  0  0  0
  188.7990  174.8400  142.9200 N   0  0  0  0  0  2  0  0  0  0  0  0
  187.4890  176.4510  141.5720 C   0  0  0  0  0  0  0  0  0  0  0  0
  187.2400  177.0270  140.3240 C   0  0  0  0  0  3  0  0  0  0  0  0
  191.6570  178.3050  143.6900 O   0  0  0  0  0  0  0  0  0  0  0  0
  191.8150  177.1670  144.2090 C   0  0  0  0  0  0  0  0  0  0  0  0
  190.6840  176.3630  144.5490 N   0  0  0  0  0  2  0  0  0  0  0  0
  193.8190  173.7650  144.7360 N   0  0  0  0  0  0  0  0  0  0  0  0
  193.6570  175.7400  143.3230 C   0  0  0  0  0  2  0  0  0  0  0  0
  193.1320  176.5840  146.8680 O   0  0  0  0  0  0  0  0  0  0  0  0
  193.3260  172.4100  144.9050 C   0  0  0  0  0  1  0  0  0  0  0  0
  193.1990  174.2980  143.5260 C   0  0  0  0  0  2  0  0  0  0  0  0
  193.2500  175.9310  145.7980 C   0  0  0  0  0  0  0  0  0  0  0  0
  193.1910  176.6380  144.4730 C   0  0  2  0  0  3  0  0  0  0  0  0
  193.3630  174.5040  145.8450 N   0  0  0  0  0  2  0  0  0  0  0  0
  1  9  1  0  0  0  0
  1  6  1  0  0  0  0
  2  3  1  6  0  0  0
  2 13  1  0  0  0  0
  2  5  1  0  0  0  0
  4  7  2  0  0  0  0
  5 14  1  0  0  0  0
  5 16  2  0  0  0  0
  7  3  1  0  0  0  0
  8 23  1  1  0  0  0
  8 12  1  0  0  0  0
 10 18  1  0  0  0  0
 11  4  1  0  0  0  0
 12 16  1  0  0  0  0
 13 18  1  6  0  0  0
 13  8  1  0  0  0  0
 14  1  2  0  0  0  0
 15 20  2  0  0  0  0
 15  4  1  0  0  0  0
 16 17  1  0  0  0  0
 17  6  2  0  0  0  0
 19 10  1  0  0  0  0
 19  3  2  0  0  0  0
 20 19  1  0  0  0  0
 21 22  2  0  0  0  0
 22 23  1  0  0  0  0
 24 27  1  0  0  0  0
 24 31  1  0  0  0  0
 25 28  1  0  0  0  0
 25 30  1  0  0  0  0
 28 24  1  0  0  0  0
 29 31  1  0  0  0  0
 29 26  2  0  0  0  0
 30 22  1  6  0  0  0
 30 29  1  0  0  0  0
M  END
>  <MODEL>
1

>  <REMARK>
 VINA RESULT:      -8.6      0.000      0.000
  Name = 
  2 active torsions:
  status: ('A' for Active; 'I' for Inactive)
    1  A    between atoms: C_5  and  C_30
    2  A    between atoms: C_10  and  N_16
                            x       y       z     vdW  Elec       q    Type
                         _______ _______ _______ _____ _____    ______ ____

>  <TORSDO>
F 2

$$$$
=
 OpenBabel11112417053D

 31 35  0  0  1  0  0  0  0  0999 V2000
  184.8960  178.1430  147.1410 C   0  0  0  0  0  0  0  0  0  0  0  0
  187.3250  176.0760  145.0640 C   0  0  2  0  0  3  0  0  0  0  0  0
  187.3480  176.6430  143.6580 C   0  0  0  0  0  0  0  0  0  0  0  0
  186.3540  177.9660  141.8770 C   0  0  0  0  0  0  0  0  0  0  0  0
  186.7870  177.0520  146.0840 C   0  0  0  0  0  0  0  0  0  0  0  0
  185.7670  178.8800  147.9480 C   0  0  0  0  0  3  0  0  0  0  0  0
  186.3200  177.4740  143.1850 C   0  0  0  0  0  3  0  0  0  0  0  0
  189.6730  176.7010  145.8290 C   0  0  2  0  0  3  0  0  0  0  0  0
  183.5570  178.3120  147.2600 F   0  0  0  0  0  0  0  0  0  0  0  0
  189.4160  175.4000  143.2460 N   0  0  0  0  0  2  0  0  0  0  0  0
  185.3640  178.7770  141.4330 F   0  0  0  0  0  0  0  0  0  0  0  0
  189.0740  177.5750  146.8340 N   0  0  0  0  0  2  0  0  0  0  0  0
  188.7170  175.5480  145.4880 C   0  0  2  0  0  3  0  0  0  0  0  0
  185.4040  177.2290  146.2140 C   0  0  0  0  0  3  0  0  0  0  0  0
  187.4110  177.6240  141.0290 C   0  0  0  0  0  3  0  0  0  0  0  0
  187.6630  177.7960  146.9000 C   0  0  0  0  0  0  0  0  0  0  0  0
  187.1480  178.7030  147.8310 C   0  0  0  0  0  3  0  0  0  0  0  0
  189.2790  174.6750  144.4480 N   0  0  0  0  0  2  0  0  0  0  0  0
  188.3840  176.2730  142.7840 C   0  0  0  0  0  0  0  0  0  0  0  0
  188.4250  176.7780  141.4820 C   0  0  0  0  0  3  0  0  0  0  0  0
  192.1900  176.9330  144.5090 O   0  0  0  0  0  0  0  0  0  0  0  0
  192.1650  176.3350  145.6190 C   0  0  0  0  0  0  0  0  0  0  0  0
  190.9350  176.1750  146.3280 N   0  0  0  0  0  2  0  0  0  0  0  0
  195.9390  175.4580  144.6950 N   0  0  0  0  0  0  0  0  0  0  0  0
  194.5500  176.8160  146.1630 C   0  0  0  0  0  2  0  0  0  0  0  0
  193.1080  173.4630  145.6790 O   0  0  0  0  0  0  0  0  0  0  0  0
  196.6030  175.4450  143.4050 C   0  0  0  0  0  1  0  0  0  0  0  0
  195.2970  176.7630  144.8320 C   0  0  0  0  0  2  0  0  0  0  0  0
  193.8130  174.4950  145.5310 C   0  0  0  0  0  0  0  0  0  0  0  0
  193.4240  175.7780  146.2090 C   0  0  2  0  0  3  0  0  0  0  0  0
  194.9440  174.4630  144.6520 N   0  0  0  0  0  2  0  0  0  0  0  0
  1  9  1  0  0  0  0
  1  6  1  0  0  0  0
  2  3  1  6  0  0  0
  2 13  1  0  0  0  0
  2  5  1  0  0  0  0
  4  7  2  0  0  0  0
  5 14  1  0  0  0  0
  5 16  2  0  0  0  0
  7  3  1  0  0  0  0
  8 23  1  1  0  0  0
  8 12  1  0  0  0  0
 10 18  1  0  0  0  0
 11  4  1  0  0  0  0
 12 16  1  0  0  0  0
 13 18  1  6  0  0  0
 13  8  1  0  0  0  0
 14  1  2  0  0  0  0
 15 20  2  0  0  0  0
 15  4  1  0  0  0  0
 16 17  1  0  0  0  0
 17  6  2  0  0  0  0
 19 10  1  0  0  0  0
 19  3  2  0  0  0  0
 20 19  1  0  0  0  0
 21 22  2  0  0  0  0
 22 23  1  0  0  0  0
 24 28  1  0  0  0  0
 25 30  1  0  0  0  0
 27 24  1  0  0  0  0
 28 25  1  0  0  0  0
 29 26  2  0  0  0  0
 29 30  1  0  0  0  0
 30 22  1  6  0  0  0
 31 24  1  0  0  0  0
 31 29  1  0  0  0  0
M  END
>  <MODEL>
2

>  <REMARK>
 VINA RESULT:      -8.6      1.508      1.915
  Name = 
  2 active torsions:
  status: ('A' for Active; 'I' for Inactive)
    1  A    between atoms: C_5  and  C_30
    2  A    between atoms: C_10  and  N_16
                            x       y       z     vdW  Elec       q    Type
                         _______ _______ _______ _____ _____    ______ ____

>  <TORSDO>
F 2

$$$$
=
 OpenBabel11112417053D

 31 35  0  0  1  0  0  0  0  0999 V2000
  187.2090  177.3470  140.8500 C   0  0  0  0  0  0  0  0  0  0  0  0
  188.4050  177.7970  144.4350 C   0  0  2  0  0  3  0  0  0  0  0  0
  187.1860  177.8740  145.3350 C   0  0  0  0  0  0  0  0  0  0  0  0
  184.8090  178.2520  145.6760 C   0  0  0  0  0  0  0  0  0  0  0  0
  188.1080  177.1650  143.0950 C   0  0  0  0  0  0  0  0  0  0  0  0
  187.5200  176.0050  140.6120 C   0  0  0  0  0  3  0  0  0  0  0  0
  185.9120  178.1650  144.8220 C   0  0  0  0  0  3  0  0  0  0  0  0
  189.3630  175.5590  145.1840 C   0  0  2  0  0  3  0  0  0  0  0  0
  186.6220  178.0870  139.8790 F   0  0  0  0  0  0  0  0  0  0  0  0
  188.6450  177.4610  147.2570 N   0  0  0  0  0  2  0  0  0  0  0  0
  183.5820  178.5210  145.1710 F   0  0  0  0  0  0  0  0  0  0  0  0
  189.1050  175.0410  143.8440 N   0  0  0  0  0  2  0  0  0  0  0  0
  189.5840  177.0790  145.1340 C   0  0  2  0  0  3  0  0  0  0  0  0
  187.5050  177.9260  142.0870 C   0  0  0  0  0  3  0  0  0  0  0  0
  184.9720  178.0580  147.0500 C   0  0  0  0  0  3  0  0  0  0  0  0
  188.4220  175.8120  142.8530 C   0  0  0  0  0  0  0  0  0  0  0  0
  188.1300  175.2410  141.6100 C   0  0  0  0  0  3  0  0  0  0  0  0
  189.8060  177.6330  146.4770 N   0  0  0  0  0  2  0  0  0  0  0  0
  187.3450  177.7220  146.7220 C   0  0  0  0  0  0  0  0  0  0  0  0
  186.2400  177.7940  147.5740 C   0  0  0  0  0  3  0  0  0  0  0  0
  191.9970  175.6720  144.0970 O   0  0  0  0  0  0  0  0  0  0  0  0
  191.8290  175.0050  145.1540 C   0  0  0  0  0  0  0  0  0  0  0  0
  190.5330  174.9000  145.7460 N   0  0  0  0  0  2  0  0  0  0  0  0
  195.7980  174.7100  144.9990 N   0  0  0  0  0  0  0  0  0  0  0  0
  193.9380  175.3230  146.4450 C   0  0  0  0  0  2  0  0  0  0  0  0
  193.1210  172.3810  144.3870 O   0  0  0  0  0  0  0  0  0  0  0  0
  196.7340  175.2330  144.0200 C   0  0  0  0  0  1  0  0  0  0  0  0
  194.9690  175.8290  145.4370 C   0  0  0  0  0  2  0  0  0  0  0  0
  193.6920  173.4140  144.8240 C   0  0  0  0  0  0  0  0  0  0  0  0
  192.9850  174.3100  145.8030 C   0  0  2  0  0  3  0  0  0  0  0  0
  194.9860  173.7760  144.3280 N   0  0  0  0  0  2  0  0  0  0  0  0
  1 14  1  0  0  0  0
  2  5  1  6  0  0  0
  2 13  1  0  0  0  0
  2  3  1  0  0  0  0
  3 19  1  0  0  0  0
  4 15  2  0  0  0  0
  6  1  2  0  0  0  0
  6 17  1  0  0  0  0
  7  3  2  0  0  0  0
  7  4  1  0  0  0  0
  8 23  1  6  0  0  0
  9  1  1  0  0  0  0
 11  4  1  0  0  0  0
 12  8  1  0  0  0  0
 13  8  1  0  0  0  0
 13 18  1  1  0  0  0
 14  5  2  0  0  0  0
 15 20  1  0  0  0  0
 16  5  1  0  0  0  0
 16 12  1  0  0  0  0
 17 16  2  0  0  0  0
 18 10  1  0  0  0  0
 19 10  1  0  0  0  0
 19 20  2  0  0  0  0
 21 22  2  0  0  0  0
 22 23  1  0  0  0  0
 24 28  1  0  0  0  0
 26 29  2  0  0  0  0
 27 24  1  0  0  0  0
 28 25  1  0  0  0  0
 29 30  1  0  0  0  0
 30 22  1  6  0  0  0
 30 25  1  0  0  0  0
 31 29  1  0  0  0  0
 31 24  1  0  0  0  0
M  END
>  <MODEL>
3

>  <REMARK>
 VINA RESULT:      -8.6      1.804      4.397
  Name = 
  2 active torsions:
  status: ('A' for Active; 'I' for Inactive)
    1  A    between atoms: C_5  and  C_30
    2  A    between atoms: C_10  and  N_16
                            x       y       z     vdW  Elec       q    Type
                         _______ _______ _______ _____ _____    ______ ____

>  <TORSDO>
F 2

$$$$
=
 OpenBabel11112417053D

 31 35  0  0  1  0  0  0  0  0999 V2000
  185.9080  178.2400  140.8810 C   0  0  0  0  0  0  0  0  0  0  0  0
  188.3860  178.0910  143.7660 C   0  0  2  0  0  3  0  0  0  0  0  0
  187.6600  177.5630  144.9890 C   0  0  0  0  0  0  0  0  0  0  0  0
  185.6130  177.1050  146.2190 C   0  0  0  0  0  0  0  0  0  0  0  0
  187.6760  177.7660  142.4730 C   0  0  0  0  0  0  0  0  0  0  0  0
  186.3230  177.1630  140.0930 C   0  0  0  0  0  3  0  0  0  0  0  0
  186.2580  177.5780  145.0730 C   0  0  0  0  0  3  0  0  0  0  0  0
  189.9480  176.1330  143.3030 C   0  0  2  0  0  3  0  0  0  0  0  0
  184.8500  178.9920  140.4950 F   0  0  0  0  0  0  0  0  0  0  0  0
  189.8320  177.1290  146.0280 N   0  0  0  0  0  2  0  0  0  0  0  0
  184.2610  177.1120  146.2870 F   0  0  0  0  0  0  0  0  0  0  0  0
  189.2510  175.9240  142.0370 N   0  0  0  0  0  2  0  0  0  0  0  0
  189.8550  177.6070  143.7250 C   0  0  2  0  0  3  0  0  0  0  0  0
  186.5840  178.5420  142.0660 C   0  0  0  0  0  3  0  0  0  0  0  0
  186.3640  176.6230  147.2950 C   0  0  0  0  0  3  0  0  0  0  0  0
  188.0930  176.6820  141.6750 C   0  0  0  0  0  0  0  0  0  0  0  0
  187.4180  176.3880  140.4870 C   0  0  0  0  0  3  0  0  0  0  0  0
  190.5140  177.8370  145.0180 N   0  0  0  0  0  2  0  0  0  0  0  0
  188.4050  177.1140  146.0910 C   0  0  0  0  0  0  0  0  0  0  0  0
  187.7600  176.6280  147.2310 C   0  0  0  0  0  3  0  0  0  0  0  0
  191.2780  174.2050  144.9270 O   0  0  0  0  0  0  0  0  0  0  0  0
  191.9450  174.7550  144.0090 C   0  0  0  0  0  0  0  0  0  0  0  0
  191.3410  175.7370  143.1650 N   0  0  0  0  0  2  0  0  0  0  0  0
  194.5950  171.8750  144.7480 N   0  0  0  0  0  0  0  0  0  0  0  0
  193.4960  173.1100  142.9600 C   0  0  0  0  0  2  0  0  0  0  0  0
  194.3200  175.3080  145.7970 O   0  0  0  0  0  0  0  0  0  0  0  0
  194.4820  170.6990  145.5910 C   0  0  0  0  0  1  0  0  0  0  0  0
  193.4450  171.8670  143.8480 C   0  0  0  0  0  2  0  0  0  0  0  0
  194.1110  174.2800  145.1010 C   0  0  0  0  0  0  0  0  0  0  0  0
  193.3810  174.3910  143.7920 C   0  0  2  0  0  3  0  0  0  0  0  0
  194.5020  172.9950  145.5970 N   0  0  0  0  0  2  0  0  0  0  0  0
  1 14  1  0  0  0  0
  2  5  1  6  0  0  0
  2  3  1  0  0  0  0
  3  7  2  0  0  0  0
  3 19  1  0  0  0  0
  4 11  1  0  0  0  0
  4 15  2  0  0  0  0
  6 17  1  0  0  0  0
  6  1  2  0  0  0  0
  7  4  1  0  0  0  0
  8 23  1  6  0  0  0
  8 13  1  0  0  0  0
  9  1  1  0  0  0  0
 10 19  1  0  0  0  0
 12  8  1  0  0  0  0
 13  2  1  0  0  0  0
 13 18  1  1  0  0  0
 14  5  2  0  0  0  0
 16 12  1  0  0  0  0
 16  5  1  0  0  0  0
 17 16  2  0  0  0  0
 18 10  1  0  0  0  0
 19 20  2  0  0  0  0
 20 15  1  0  0  0  0
 22 21  2  0  0  0  0
 23 22  1  0  0  0  0
 24 27  1  0  0  0  0
 24 31  1  0  0  0  0
 25 30  1  0  0  0  0
 25 28  1  0  0  0  0
 28 24  1  0  0  0  0
 29 31  1  0  0  0  0
 29 26  2  0  0  0  0
 30 22  1  1  0  0  0
 30 29  1  0  0  0  0
M  END
>  <MODEL>
4

>  <REMARK>
 VINA RESULT:      -8.1      1.609      4.227
  Name = 
  2 active torsions:
  status: ('A' for Active; 'I' for Inactive)
    1  A    between atoms: C_5  and  C_30
    2  A    between atoms: C_10  and  N_16
                            x       y       z     vdW  Elec       q    Type
                         _______ _______ _______ _____ _____    ______ ____

>  <TORSDO>
F 2

$$$$
=
 OpenBabel11112417053D

 31 35  0  0  1  0  0  0  0  0999 V2000
  194.5810  176.4730  145.0270 C   0  0  0  0  0  0  0  0  0  0  0  0
  191.1780  176.1930  143.3440 C   0  0  2  0  0  3  0  0  0  0  0  0
  191.0320  174.7840  142.8020 C   0  0  0  0  0  0  0  0  0  0  0  0
  191.9870  172.6660  142.0850 C   0  0  0  0  0  0  0  0  0  0  0  0
  192.2400  176.3060  144.4130 C   0  0  0  0  0  0  0  0  0  0  0  0
  194.2290  176.4840  146.3800 C   0  0  0  0  0  3  0  0  0  0  0  0
  192.1470  173.9530  142.6070 C   0  0  0  0  0  3  0  0  0  0  0  0
  189.4350  176.1340  145.1990 C   0  0  2  0  0  3  0  0  0  0  0  0
  195.8840  176.5480  144.6670 F   0  0  0  0  0  0  0  0  0  0  0  0
  188.6260  175.1750  142.5810 N   0  0  0  0  0  2  0  0  0  0  0  0
  193.0670  171.8680  141.9120 F   0  0  0  0  0  0  0  0  0  0  0  0
  190.5130  176.3100  146.1690 N   0  0  0  0  0  2  0  0  0  0  0  0
  189.8270  176.7520  143.8490 C   0  0  2  0  0  3  0  0  0  0  0  0
  193.5890  176.3870  144.0460 C   0  0  0  0  0  3  0  0  0  0  0  0
  190.7130  172.2030  141.7460 C   0  0  0  0  0  3  0  0  0  0  0  0
  191.8880  176.3180  145.7780 C   0  0  0  0  0  0  0  0  0  0  0  0
  192.8850  176.4120  146.7540 C   0  0  0  0  0  3  0  0  0  0  0  0
  188.7750  176.5520  142.8430 N   0  0  0  0  0  2  0  0  0  0  0  0
  189.7620  174.3230  142.4190 C   0  0  0  0  0  0  0  0  0  0  0  0
  189.6010  173.0310  141.9120 C   0  0  0  0  0  3  0  0  0  0  0  0
  188.0160  175.3220  147.5350 O   0  0  0  0  0  0  0  0  0  0  0  0
  187.5610  176.3050  146.8870 C   0  0  0  0  0  0  0  0  0  0  0  0
  188.2190  176.7560  145.7030 N   0  0  0  0  0  2  0  0  0  0  0  0
  184.8350  178.9520  145.6950 N   0  0  0  0  0  0  0  0  0  0  0  0
  185.1330  176.6570  146.4490 C   0  0  0  0  0  2  0  0  0  0  0  0
  187.3230  178.9680  148.2980 O   0  0  0  0  0  0  0  0  0  0  0  0
  184.8100  179.7960  144.5150 C   0  0  0  0  0  1  0  0  0  0  0  0
  185.0610  177.5840  145.2380 C   0  0  0  0  0  2  0  0  0  0  0  0
  186.5480  178.4930  147.4280 C   0  0  0  0  0  0  0  0  0  0  0  0
  186.3230  177.0090  147.3470 C   0  0  2  0  0  3  0  0  0  0  0  0
  185.9400  179.3630  146.4660 N   0  0  0  0  0  2  0  0  0  0  0  0
  1  6  1  0  0  0  0
  2  3  1  1  0  0  0
  2 13  1  0  0  0  0
  2  5  1  0  0  0  0
  4  7  2  0  0  0  0
  5 16  2  0  0  0  0
  6 17  2  0  0  0  0
  7  3  1  0  0  0  0
  8 23  1  1  0  0  0
  8 12  1  0  0  0  0
  9  1  1  0  0  0  0
 10 18  1  0  0  0  0
 11  4  1  0  0  0  0
 13 18  1  6  0  0  0
 13  8  1  0  0  0  0
 14  5  1  0  0  0  0
 14  1  2  0  0  0  0
 15 20  2  0  0  0  0
 15  4  1  0  0  0  0
 16 12  1  0  0  0  0
 16 17  1  0  0  0  0
 19 10  1  0  0  0  0
 19  3  2  0  0  0  0
 20 19  1  0  0  0  0
 22 21  2  0  0  0  0
 23 22  1  0  0  0  0
 24 31  1  0  0  0  0
 25 30  1  0  0  0  0
 27 24  1  0  0  0  0
 28 24  1  0  0  0  0
 28 25  1  0  0  0  0
 29 26  2  0  0  0  0
 30 22  1  6  0  0  0
 30 29  1  0  0  0  0
 31 29  1  0  0  0  0
M  END
>  <MODEL>
5

>  <REMARK>
 VINA RESULT:      -8.1      4.027      7.205
  Name = 
  2 active torsions:
  status: ('A' for Active; 'I' for Inactive)
    1  A    between atoms: C_5  and  C_30
    2  A    between atoms: C_10  and  N_16
                            x       y       z     vdW  Elec       q    Type
                         _______ _______ _______ _____ _____    ______ ____

>  <TORSDO>
F 2

$$$$
=
 OpenBabel11112417053D

 31 35  0  0  1  0  0  0  0  0999 V2000
  185.9270  179.1080  143.3110 C   0  0  0  0  0  0  0  0  0  0  0  0
  189.0180  176.8940  143.4840 C   0  0  2  0  0  3  0  0  0  0  0  0
  188.9590  176.0980  144.7740 C   0  0  0  0  0  0  0  0  0  0  0  0
  188.1130  175.7490  147.0260 C   0  0  0  0  0  0  0  0  0  0  0  0
  187.6730  177.4410  143.0680 C   0  0  0  0  0  0  0  0  0  0  0  0
  185.1660  178.4590  142.3350 C   0  0  0  0  0  3  0  0  0  0  0  0
  188.1320  176.4880  145.8400 C   0  0  0  0  0  3  0  0  0  0  0  0
  188.6830  175.0190  141.7940 C   0  0  2  0  0  3  0  0  0  0  0  0
  185.4520  180.2300  143.9030 F   0  0  0  0  0  0  0  0  0  0  0  0
  190.6720  174.6020  143.8680 N   0  0  0  0  0  2  0  0  0  0  0  0
  187.3030  176.1250  148.0450 F   0  0  0  0  0  0  0  0  0  0  0  0
  187.4240  175.6450  141.4020 N   0  0  0  0  0  2  0  0  0  0  0  0
  189.6570  176.0740  142.3390 C   0  0  2  0  0  3  0  0  0  0  0  0
  187.1780  178.6030  143.6750 C   0  0  0  0  0  3  0  0  0  0  0  0
  188.9250  174.6190  147.1600 C   0  0  0  0  0  3  0  0  0  0  0  0
  186.9040  176.7890  142.0830 C   0  0  0  0  0  0  0  0  0  0  0  0
  185.6560  177.3040  141.7190 C   0  0  0  0  0  3  0  0  0  0  0  0
  190.9190  175.4630  142.7790 N   0  0  0  0  0  2  0  0  0  0  0  0
  189.8010  174.9850  144.9350 C   0  0  0  0  0  0  0  0  0  0  0  0
  189.7700  174.2380  146.1150 C   0  0  0  0  0  3  0  0  0  0  0  0
  189.2400  172.2260  141.6450 O   0  0  0  0  0  0  0  0  0  0  0  0
  189.5140  172.9310  140.6350 C   0  0  0  0  0  0  0  0  0  0  0  0
  189.2680  174.3390  140.6480 N   0  0  0  0  0  2  0  0  0  0  0  0
  192.0500  173.6640  137.6530 N   0  0  0  0  0  0  0  0  0  0  0  0
  191.6260  172.1870  139.5420 C   0  0  0  0  0  2  0  0  0  0  0  0
  188.5050  173.0470  137.7870 O   0  0  0  0  0  0  0  0  0  0  0  0
  192.7010  174.9020  137.2660 C   0  0  0  0  0  1  0  0  0  0  0  0
  192.3230  173.4630  139.0730 C   0  0  0  0  0  2  0  0  0  0  0  0
  189.7020  173.0600  138.1740 C   0  0  0  0  0  0  0  0  0  0  0  0
  190.1040  172.3050  139.4110 C   0  0  2  0  0  3  0  0  0  0  0  0
  190.6660  173.8590  137.4780 N   0  0  0  0  0  2  0  0  0  0  0  0
  1 14  1  0  0  0  0
  1  9  1  0  0  0  0
  2  5  1  6  0  0  0
  2  3  1  0  0  0  0
  3 19  2  0  0  0  0
  3  7  1  0  0  0  0
  4 15  1  0  0  0  0
  4 11  1  0  0  0  0
  5 14  2  0  0  0  0
  6  1  2  0  0  0  0
  7  4  2  0  0  0  0
  8 23  1  6  0  0  0
  8 13  1  0  0  0  0
 10 19  1  0  0  0  0
 12  8  1  0  0  0  0
 12 16  1  0  0  0  0
 13 18  1  1  0  0  0
 13  2  1  0  0  0  0
 16  5  1  0  0  0  0
 17 16  2  0  0  0  0
 17  6  1  0  0  0  0
 18 10  1  0  0  0  0
 19 20  1  0  0  0  0
 20 15  2  0  0  0  0
 22 23  1  0  0  0  0
 22 21  2  0  0  0  0
 24 28  1  0  0  0  0
 26 29  2  0  0  0  0
 27 24  1  0  0  0  0
 28 25  1  0  0  0  0
 29 30  1  0  0  0  0
 30 25  1  0  0  0  0
 30 22  1  1  0  0  0
 31 24  1  0  0  0  0
 31 29  1  0  0  0  0
M  END
>  <MODEL>
6

>  <REMARK>
 VINA RESULT:      -7.9      3.711      5.843
  Name = 
  2 active torsions:
  status: ('A' for Active; 'I' for Inactive)
    1  A    between atoms: C_5  and  C_30
    2  A    between atoms: C_10  and  N_16
                            x       y       z     vdW  Elec       q    Type
                         _______ _______ _______ _____ _____    ______ ____

>  <TORSDO>
F 2

$$$$
=
 OpenBabel11112417053D

 31 35  0  0  1  0  0  0  0  0999 V2000
  191.8430  173.0280  141.7470 C   0  0  0  0  0  0  0  0  0  0  0  0
  191.2900  174.1440  145.3430 C   0  0  2  0  0  3  0  0  0  0  0  0
  192.4020  175.1050  145.7180 C   0  0  0  0  0  0  0  0  0  0  0  0
  194.6150  176.0450  145.3640 C   0  0  0  0  0  0  0  0  0  0  0  0
  191.1180  173.9950  143.8500 C   0  0  0  0  0  0  0  0  0  0  0  0
  190.8380  173.7280  141.0730 C   0  0  0  0  0  3  0  0  0  0  0  0
  193.5970  175.1660  144.9850 C   0  0  0  0  0  3  0  0  0  0  0  0
  189.3100  175.7460  145.3260 C   0  0  2  0  0  3  0  0  0  0  0  0
  192.6840  172.2200  141.0570 F   0  0  0  0  0  0  0  0  0  0  0  0
  191.0640  175.8210  147.6390 N   0  0  0  0  0  2  0  0  0  0  0  0
  195.7600  176.1060  144.6430 F   0  0  0  0  0  0  0  0  0  0  0  0
  189.1690  175.5000  143.8940 N   0  0  0  0  0  2  0  0  0  0  0  0
  189.9510  174.5330  146.0160 C   0  0  2  0  0  3  0  0  0  0  0  0
  191.9810  173.1590  143.1320 C   0  0  0  0  0  3  0  0  0  0  0  0
  194.4510  176.8640  146.4840 C   0  0  0  0  0  3  0  0  0  0  0  0
  190.1050  174.6990  143.1680 C   0  0  0  0  0  0  0  0  0  0  0  0
  189.9680  174.5580  141.7840 C   0  0  0  0  0  3  0  0  0  0  0  0
  190.1420  174.7710  147.4530 N   0  0  0  0  0  2  0  0  0  0  0  0
  192.2630  175.9030  146.8660 C   0  0  0  0  0  0  0  0  0  0  0  0
  193.2750  176.7920  147.2360 C   0  0  0  0  0  3  0  0  0  0  0  0
  188.7130  177.9050  147.0900 O   0  0  0  0  0  0  0  0  0  0  0  0
  187.7700  177.1280  146.7780 C   0  0  0  0  0  0  0  0  0  0  0  0
  188.0040  176.0210  145.9060 N   0  0  0  0  0  2  0  0  0  0  0  0
  184.2190  178.6390  145.7900 N   0  0  0  0  0  0  0  0  0  0  0  0
  185.3520  176.5990  146.4850 C   0  0  0  0  0  2  0  0  0  0  0  0
  186.6920  179.5410  148.2470 O   0  0  0  0  0  0  0  0  0  0  0  0
  183.8280  179.4150  144.6280 C   0  0  0  0  0  1  0  0  0  0  0  0
  184.8850  177.4360  145.2960 C   0  0  0  0  0  2  0  0  0  0  0  0
  186.0840  178.8200  147.4150 C   0  0  0  0  0  0  0  0  0  0  0  0
  186.3930  177.3520  147.3200 C   0  0  2  0  0  3  0  0  0  0  0  0
  185.1520  179.4150  146.5040 N   0  0  0  0  0  2  0  0  0  0  0  0
  1 14  1  0  0  0  0
  2  5  1  6  0  0  0
  2  3  1  0  0  0  0
  2 13  1  0  0  0  0
  3 19  1  0  0  0  0
  4 15  2  0  0  0  0
  6  1  2  0  0  0  0
  6 17  1  0  0  0  0
  7  4  1  0  0  0  0
  7  3  2  0  0  0  0
  8 23  1  1  0  0  0
  8 13  1  0  0  0  0
  9  1  1  0  0  0  0
 11  4  1  0  0  0  0
 12  8  1  0  0  0  0
 13 18  1  1  0  0  0
 14  5  2  0  0  0  0
 15 20  1  0  0  0  0
 16  5  1  0  0  0  0
 16 12  1  0  0  0  0
 17 16  2  0  0  0  0
 18 10  1  0  0  0  0
 19 20  2  0  0  0  0
 19 10  1  0  0  0  0
 22 21  2  0  0  0  0
 23 22  1  0  0  0  0
 24 31  1  0  0  0  0
 25 30  1  0  0  0  0
 27 24  1  0  0  0  0
 28 24  1  0  0  0  0
 28 25  1  0  0  0  0
 29 26  2  0  0  0  0
 30 22  1  6  0  0  0
 30 29  1  0  0  0  0
 31 29  1  0  0  0  0
M  END
>  <MODEL>
7

>  <REMARK>
 VINA RESULT:      -7.8      3.968      7.988
  Name = 
  2 active torsions:
  status: ('A' for Active; 'I' for Inactive)
    1  A    between atoms: C_5  and  C_30
    2  A    between atoms: C_10  and  N_16
                            x       y       z     vdW  Elec       q    Type
                         _______ _______ _______ _____ _____    ______ ____

>  <TORSDO>
F 2

$$$$
=
 OpenBabel11112417053D

 31 35  0  0  1  0  0  0  0  0999 V2000
  190.6620  171.4270  142.7580 C   0  0  0  0  0  0  0  0  0  0  0  0
  189.7710  174.2060  145.2030 C   0  0  2  0  0  3  0  0  0  0  0  0
  191.0580  174.8630  145.6640 C   0  0  0  0  0  0  0  0  0  0  0  0
  193.4700  174.8420  145.9720 C   0  0  0  0  0  0  0  0  0  0  0  0
  189.9330  173.4310  143.9160 C   0  0  0  0  0  0  0  0  0  0  0  0
  190.2730  171.9860  141.5380 C   0  0  0  0  0  3  0  0  0  0  0  0
  192.3010  174.2240  145.5200 C   0  0  0  0  0  3  0  0  0  0  0  0
  188.7730  176.1070  143.8330 C   0  0  2  0  0  3  0  0  0  0  0  0
  191.2050  170.1870  142.7920 F   0  0  0  0  0  0  0  0  0  0  0  0
  189.7370  176.7470  146.4960 N   0  0  0  0  0  2  0  0  0  0  0  0
  194.6650  174.2240  145.8180 F   0  0  0  0  0  0  0  0  0  0  0  0
  188.9020  175.2700  142.6440 N   0  0  0  0  0  2  0  0  0  0  0  0
  188.6190  175.2320  145.0860 C   0  0  2  0  0  3  0  0  0  0  0  0
  190.4900  172.1460  143.9450 C   0  0  0  0  0  3  0  0  0  0  0  0
  193.4060  176.0990  146.5810 C   0  0  0  0  0  3  0  0  0  0  0  0
  189.5400  173.9910  142.6840 C   0  0  0  0  0  0  0  0  0  0  0  0
  189.7080  173.2640  141.5020 C   0  0  0  0  0  3  0  0  0  0  0  0
  188.5270  176.0500  146.3040 N   0  0  0  0  0  2  0  0  0  0  0  0
  191.0010  176.1070  146.3130 C   0  0  0  0  0  0  0  0  0  0  0  0
  192.1720  176.7310  146.7520 C   0  0  0  0  0  3  0  0  0  0  0  0
  188.5540  178.2400  141.9540 O   0  0  0  0  0  0  0  0  0  0  0  0
  187.5730  178.0320  142.7190 C   0  0  0  0  0  0  0  0  0  0  0  0
  187.6210  176.9850  143.6900 N   0  0  0  0  0  2  0  0  0  0  0  0
  184.3430  179.1140  144.7830 N   0  0  0  0  0  0  0  0  0  0  0  0
  186.3520  179.9680  143.7050 C   0  0  0  0  0  2  0  0  0  0  0  0
  184.8200  177.2620  141.7320 O   0  0  0  0  0  0  0  0  0  0  0  0
  183.8230  178.6000  146.0370 C   0  0  0  0  0  1  0  0  0  0  0  0
  185.7450  179.4550  145.0090 C   0  0  0  0  0  2  0  0  0  0  0  0
  185.1010  178.0390  142.6820 C   0  0  0  0  0  0  0  0  0  0  0  0
  186.3440  178.8820  142.6240 C   0  0  2  0  0  3  0  0  0  0  0  0
  184.2750  178.0600  143.8520 N   0  0  0  0  0  2  0  0  0  0  0  0
  1  9  1  0  0  0  0
  1 14  1  0  0  0  0
  2  5  1  6  0  0  0
  2  3  1  0  0  0  0
  3 19  1  0  0  0  0
  4 15  2  0  0  0  0
  5 14  2  0  0  0  0
  6  1  2  0  0  0  0
  7  3  2  0  0  0  0
  7  4  1  0  0  0  0
  8 23  1  6  0  0  0
  8 13  1  0  0  0  0
 11  4  1  0  0  0  0
 12 16  1  0  0  0  0
 12  8  1  0  0  0  0
 13  2  1  0  0  0  0
 13 18  1  1  0  0  0
 15 20  1  0  0  0  0
 16  5  1  0  0  0  0
 17  6  1  0  0  0  0
 17 16  2  0  0  0  0
 18 10  1  0  0  0  0
 19 10  1  0  0  0  0
 19 20  2  0  0  0  0
 21 22  2  0  0  0  0
 22 23  1  0  0  0  0
 24 28  1  0  0  0  0
 24 27  1  0  0  0  0
 25 28  1  0  0  0  0
 26 29  2  0  0  0  0
 29 31  1  0  0  0  0
 30 29  1  0  0  0  0
 30 22  1  1  0  0  0
 30 25  1  0  0  0  0
 31 24  1  0  0  0  0
M  END
>  <MODEL>
8

>  <REMARK>
 VINA RESULT:      -7.5      4.037      7.814
  Name = 
  2 active torsions:
  status: ('A' for Active; 'I' for Inactive)
    1  A    between atoms: C_5  and  C_30
    2  A    between atoms: C_10  and  N_16
                            x       y       z     vdW  Elec       q    Type
                         _______ _______ _______ _____ _____    ______ ____

>  <TORSDO>
F 2

$$$$
=
 OpenBabel11112417053D

 31 35  0  0  1  0  0  0  0  0999 V2000
  185.8930  179.0020  143.1180 C   0  0  0  0  0  0  0  0  0  0  0  0
  189.1400  177.1900  143.9300 C   0  0  2  0  0  3  0  0  0  0  0  0
  188.9310  176.3880  145.2010 C   0  0  0  0  0  0  0  0  0  0  0  0
  187.7140  175.9300  147.2560 C   0  0  0  0  0  0  0  0  0  0  0  0
  187.8440  177.5670  143.2520 C   0  0  0  0  0  0  0  0  0  0  0  0
  185.4200  178.2660  142.0280 C   0  0  0  0  0  3  0  0  0  0  0  0
  187.8720  176.6690  146.0800 C   0  0  0  0  0  3  0  0  0  0  0  0
  189.3710  175.2920  142.2470 C   0  0  2  0  0  3  0  0  0  0  0  0
  185.1780  180.0540  143.5850 F   0  0  0  0  0  0  0  0  0  0  0  0
  190.9570  175.1210  144.6740 N   0  0  0  0  0  2  0  0  0  0  0  0
  186.6830  176.1990  148.0910 F   0  0  0  0  0  0  0  0  0  0  0  0
  188.1450  175.7590  141.6070 N   0  0  0  0  0  2  0  0  0  0  0  0
  190.0850  176.4590  142.9470 C   0  0  2  0  0  3  0  0  0  0  0  0
  187.1020  178.6560  143.7270 C   0  0  0  0  0  3  0  0  0  0  0  0
  188.6180  174.9110  147.5670 C   0  0  0  0  0  3  0  0  0  0  0  0
  187.3660  176.8270  142.1520 C   0  0  0  0  0  0  0  0  0  0  0  0
  186.1580  177.1830  141.5430 C   0  0  0  0  0  3  0  0  0  0  0  0
  191.3020  176.0090  143.6340 N   0  0  0  0  0  2  0  0  0  0  0  0
  189.8560  175.3890  145.5450 C   0  0  0  0  0  0  0  0  0  0  0  0
  189.6900  174.6410  146.7120 C   0  0  0  0  0  3  0  0  0  0  0  0
  190.1840  172.5600  142.1970 O   0  0  0  0  0  0  0  0  0  0  0  0
  190.6080  173.3120  141.2780 C   0  0  0  0  0  0  0  0  0  0  0  0
  190.2460  174.6940  141.2500 N   0  0  0  0  0  2  0  0  0  0  0  0
  190.6670  170.6980  138.2740 N   0  0  0  0  0  0  0  0  0  0  0  0
  190.9180  173.0580  138.8180 C   0  0  0  0  0  2  0  0  0  0  0  0
  192.4520  170.9190  141.3930 O   0  0  0  0  0  0  0  0  0  0  0  0
  189.6960  169.6860  137.9010 C   0  0  0  0  0  1  0  0  0  0  0  0
  189.9440  171.9620  138.3890 C   0  0  0  0  0  2  0  0  0  0  0  0
  191.7620  171.3050  140.4140 C   0  0  0  0  0  0  0  0  0  0  0  0
  191.5000  172.7700  140.2060 C   0  0  2  0  0  3  0  0  0  0  0  0
  191.1620  170.3390  139.5420 N   0  0  0  0  0  2  0  0  0  0  0  0
  1  9  1  0  0  0  0
  1 14  1  0  0  0  0
  2  5  1  6  0  0  0
  2  3  1  0  0  0  0
  3 19  2  0  0  0  0
  3  7  1  0  0  0  0
  4 15  1  0  0  0  0
  4 11  1  0  0  0  0
  5 14  2  0  0  0  0
  6  1  2  0  0  0  0
  7  4  2  0  0  0  0
  8 23  1  6  0  0  0
  8 13  1  0  0  0  0
 10 19  1  0  0  0  0
 12 16  1  0  0  0  0
 12  8  1  0  0  0  0
 13 18  1  1  0  0  0
 13  2  1  0  0  0  0
 16  5  1  0  0  0  0
 17  6  1  0  0  0  0
 17 16  2  0  0  0  0
 18 10  1  0  0  0  0
 19 20  1  0  0  0  0
 20 15  2  0  0  0  0
 22 21  2  0  0  0  0
 23 22  1  0  0  0  0
 24 28  1  0  0  0  0
 24 31  1  0  0  0  0
 25 30  1  0  0  0  0
 27 24  1  0  0  0  0
 28 25  1  0  0  0  0
 29 26  2  0  0  0  0
 30 29  1  0  0  0  0
 30 22  1  1  0  0  0
 31 29  1  0  0  0  0
M  END
>  <MODEL>
9

>  <REMARK>
 VINA RESULT:      -7.4      3.762      5.589
  Name = 
  2 active torsions:
  status: ('A' for Active; 'I' for Inactive)
    1  A    between atoms: C_5  and  C_30
    2  A    between atoms: C_10  and  N_16
                            x       y       z     vdW  Elec       q    Type
                         _______ _______ _______ _____ _____    ______ ____

>  <TORSDO>
F 2

$$$$
