=
 OpenBabel11112416383D

 32 38  0  0  1  0  0  0  0  0999 V2000
  192.3950  176.8170  144.2620 C   0  0  1  0  0  3  0  0  0  0  0  0
  187.3260  176.9070  143.3700 C   0  0  0  0  0  0  0  0  0  0  0  0
  186.2180  177.6400  148.1590 C   0  0  0  0  0  3  0  0  0  0  0  0
  185.0410  178.2970  147.8030 C   0  0  0  0  0  3  0  0  0  0  0  0
  185.5130  177.4090  141.6680 C   0  0  0  0  0  0  0  0  0  0  0  0
  184.2530  177.9320  141.3790 C   0  0  0  0  0  0  0  0  0  0  0  0
  189.7650  177.6240  143.5760 C   0  0  1  0  0  3  0  0  0  0  0  0
  188.7870  175.9590  145.1860 C   0  0  0  0  0  2  0  0  0  0  0  0
  182.2340  178.8770  141.7800 N   0  0  0  0  0  0  0  0  0  0  0  0
  191.2780  175.8360  144.6590 C   0  0  2  0  0  3  0  0  0  0  0  0
  187.0290  177.0810  147.1710 C   0  0  0  0  0  3  0  0  0  0  0  0
  187.5240  176.6040  144.7970 N   0  0  0  0  0  0  0  0  0  0  0  0
  186.6750  177.1720  145.8140 C   0  0  2  0  0  3  0  0  0  0  0  0
  185.0810  177.9050  144.0370 C   0  0  0  0  0  0  0  0  0  0  0  0
  182.2950  178.6030  140.3430 C   0  0  0  0  0  3  0  0  0  0  0  0
  191.9290  178.1010  143.5560 C   0  0  0  0  0  2  0  0  0  0  0  0
  189.8750  176.2010  144.1350 C   0  0  2  0  0  3  0  0  0  0  0  0
  183.6210  178.0130  140.1090 N   0  0  0  0  0  0  0  0  0  0  0  0
  190.8350  177.8650  142.7120 O   0  0  0  0  0  0  0  0  0  0  0  0
  191.8180  176.8260  145.6700 C   0  0  1  0  0  3  0  0  0  0  0  0
  184.6750  178.3910  146.4600 C   0  0  0  0  0  3  0  0  0  0  0  0
  185.4850  177.8330  145.4560 C   0  0  0  0  0  0  0  0  0  0  0  0
  183.8130  178.4210  143.6910 C   0  0  0  0  0  3  0  0  0  0  0  0
  188.4260  177.8550  142.8630 C   0  0  0  0  0  2  0  0  0  0  0  0
  186.3610  176.8610  140.5670 C   0  0  0  0  0  1  0  0  0  0  0  0
  181.0280  179.2270  142.5090 C   0  0  0  0  0  1  0  0  0  0  0  0
  185.9450  177.4090  143.0220 C   0  0  0  0  0  0  0  0  0  0  0  0
  183.4460  178.4260  142.3500 C   0  0  0  0  0  0  0  0  0  0  0  0
  192.7120  176.1580  146.5490 O   0  0  0  0  0  0  0  0  0  0  0  0
  194.0920  176.3670  146.5100 C   0  0  0  0  0  0  0  0  0  0  0  0
  195.0370  175.2790  146.1220 C   0  0  0  0  0  1  0  0  0  0  0  0
  194.5520  177.4980  146.8090 O   0  0  0  0  0  0  0  0  0  0  0  0
  1 16  1  6  0  0  0
  1 10  1  0  0  0  0
  1 20  1  0  0  0  0
  2 12  1  0  0  0  0
  4  3  1  0  0  0  0
  5 27  1  0  0  0  0
  6  5  2  0  0  0  0
  6 28  1  0  0  0  0
  7 24  1  6  0  0  0
  7 17  1  0  0  0  0
  9 28  1  0  0  0  0
  9 26  1  0  0  0  0
 10 20  1  0  0  0  0
 11  3  2  0  0  0  0
 12  8  1  0  0  0  0
 12 13  1  0  0  0  0
 13 11  1  0  0  0  0
 14 22  2  0  0  0  0
 15  9  1  0  0  0  0
 17 10  1  0  0  0  0
 17  8  1  0  0  0  0
 18 15  2  0  0  0  0
 18  6  1  0  0  0  0
 19 16  1  0  0  0  0
 19  7  1  0  0  0  0
 20 29  1  0  0  0  0
 21  4  2  0  0  0  0
 22 13  1  0  0  0  0
 22 21  1  0  0  0  0
 23 14  1  0  0  0  0
 24  2  1  0  0  0  0
 25  5  1  0  0  0  0
 27  2  2  0  0  0  0
 27 14  1  0  0  0  0
 28 23  2  0  0  0  0
 30 29  1  0  0  0  0
 30 32  2  0  0  0  0
 31 30  1  0  0  0  0
M  END
>  <MODEL>
1

>  <REMARK>
 VINA RESULT:      -8.8      0.000      0.000
  Name = 
  2 active torsions:
  status: ('A' for Active; 'I' for Inactive)
    1  A    between atoms: C_20  and  O_29
    2  A    between atoms: O_29  and  C_30
                            x       y       z     vdW  Elec       q    Type
                         _______ _______ _______ _____ _____    ______ ____

>  <TORSDO>
F 2

$$$$
=
 OpenBabel11112416383D

 32 38  0  0  1  0  0  0  0  0999 V2000
  194.7070  172.6210  142.4130 C   0  0  1  0  0  3  0  0  0  0  0  0
  190.1550  174.8600  143.2850 C   0  0  0  0  0  0  0  0  0  0  0  0
  191.3550  176.1180  147.9410 C   0  0  0  0  0  3  0  0  0  0  0  0
  190.4880  177.2080  147.8870 C   0  0  0  0  0  3  0  0  0  0  0  0
  188.1770  176.0500  142.2330 C   0  0  0  0  0  0  0  0  0  0  0  0
  187.2140  177.0560  142.2940 C   0  0  0  0  0  0  0  0  0  0  0  0
  192.5550  174.4630  142.5180 C   0  0  1  0  0  3  0  0  0  0  0  0
  191.7090  173.4210  144.6440 C   0  0  0  0  0  2  0  0  0  0  0  0
  186.0440  178.7880  143.1690 N   0  0  0  0  0  0  0  0  0  0  0  0
  193.5430  172.2250  143.3400 C   0  0  2  0  0  3  0  0  0  0  0  0
  191.4370  175.2390  146.8590 C   0  0  0  0  0  3  0  0  0  0  0  0
  190.7520  174.5370  144.5920 N   0  0  0  0  0  0  0  0  0  0  0  0
  190.6530  175.4400  145.7100 C   0  0  2  0  0  3  0  0  0  0  0  0
  188.9190  176.7420  144.4720 C   0  0  0  0  0  0  0  0  0  0  0  0
  185.4350  178.4780  141.8750 C   0  0  0  0  0  3  0  0  0  0  0  0
  194.5440  173.9620  141.6800 C   0  0  0  0  0  2  0  0  0  0  0  0
  192.3090  173.1450  143.2620 C   0  0  2  0  0  3  0  0  0  0  0  0
  186.2270  177.3690  141.3210 N   0  0  0  0  0  0  0  0  0  0  0  0
  193.2110  174.1980  141.3140 O   0  0  0  0  0  0  0  0  0  0  0  0
  194.7700  172.9120  143.9050 C   0  0  1  0  0  3  0  0  0  0  0  0
  189.7010  177.4170  146.7540 C   0  0  0  0  0  3  0  0  0  0  0  0
  189.7760  176.5390  145.6590 C   0  0  0  0  0  0  0  0  0  0  0  0
  187.9250  177.7450  144.4850 C   0  0  0  0  0  3  0  0  0  0  0  0
  191.2480  175.2290  142.2690 C   0  0  0  0  0  2  0  0  0  0  0  0
  188.2490  175.1630  141.0330 C   0  0  0  0  0  1  0  0  0  0  0  0
  185.4510  179.6410  144.1840 C   0  0  0  0  0  1  0  0  0  0  0  0
  189.0590  175.8970  143.3360 C   0  0  0  0  0  0  0  0  0  0  0  0
  187.1030  177.8740  143.3710 C   0  0  0  0  0  0  0  0  0  0  0  0
  195.5960  171.9460  144.5390 O   0  0  0  0  0  0  0  0  0  0  0  0
  196.4240  172.2650  145.6180 C   0  0  0  0  0  0  0  0  0  0  0  0
  196.7760  173.6790  145.9410 C   0  0  0  0  0  1  0  0  0  0  0  0
  196.8840  171.3410  146.3360 O   0  0  0  0  0  0  0  0  0  0  0  0
  1 16  1  6  0  0  0
  1 10  1  0  0  0  0
  1 20  1  0  0  0  0
  2 27  2  0  0  0  0
  2 12  1  0  0  0  0
  4  3  1  0  0  0  0
  5  6  2  0  0  0  0
  5 27  1  0  0  0  0
  6 28  1  0  0  0  0
  7 24  1  6  0  0  0
  7 17  1  0  0  0  0
  9 28  1  0  0  0  0
  9 26  1  0  0  0  0
 10 20  1  0  0  0  0
 11  3  2  0  0  0  0
 12  8  1  0  0  0  0
 12 13  1  0  0  0  0
 13 11  1  0  0  0  0
 14 23  1  0  0  0  0
 14 22  2  0  0  0  0
 15  9  1  0  0  0  0
 17 10  1  0  0  0  0
 17  8  1  0  0  0  0
 18 15  2  0  0  0  0
 18  6  1  0  0  0  0
 19 16  1  0  0  0  0
 19  7  1  0  0  0  0
 20 29  1  0  0  0  0
 21  4  2  0  0  0  0
 22 13  1  0  0  0  0
 22 21  1  0  0  0  0
 24  2  1  0  0  0  0
 25  5  1  0  0  0  0
 27 14  1  0  0  0  0
 28 23  2  0  0  0  0
 29 30  1  0  0  0  0
 30 31  1  0  0  0  0
 30 32  2  0  0  0  0
M  END
>  <MODEL>
2

>  <REMARK>
 VINA RESULT:      -8.1      3.016      4.372
  Name = 
  2 active torsions:
  status: ('A' for Active; 'I' for Inactive)
    1  A    between atoms: C_20  and  O_29
    2  A    between atoms: O_29  and  C_30
                            x       y       z     vdW  Elec       q    Type
                         _______ _______ _______ _____ _____    ______ ____

>  <TORSDO>
F 2

$$$$
=
 OpenBabel11112416383D

 32 38  0  0  1  0  0  0  0  0999 V2000
  186.9720  176.9140  141.4300 C   0  0  1  0  0  3  0  0  0  0  0  0
  191.7720  176.2980  143.1830 C   0  0  0  0  0  0  0  0  0  0  0  0
  190.4420  177.0850  147.9070 C   0  0  0  0  0  3  0  0  0  0  0  0
  191.4980  176.2930  148.3540 C   0  0  0  0  0  3  0  0  0  0  0  0
  194.0170  175.1910  142.7780 C   0  0  0  0  0  0  0  0  0  0  0  0
  195.1420  174.5420  143.2860 C   0  0  0  0  0  0  0  0  0  0  0  0
  189.4120  175.8040  142.3490 C   0  0  1  0  0  3  0  0  0  0  0  0
  189.8690  177.8480  143.7410 C   0  0  0  0  0  2  0  0  0  0  0  0
  196.5370  173.6780  144.8490 N   0  0  0  0  0  0  0  0  0  0  0  0
  187.9590  177.9160  142.0540 C   0  0  2  0  0  3  0  0  0  0  0  0
  190.2890  177.3370  146.5430 C   0  0  0  0  0  3  0  0  0  0  0  0
  191.0180  177.0520  144.1990 N   0  0  0  0  0  0  0  0  0  0  0  0
  191.1890  176.7990  145.6070 C   0  0  2  0  0  3  0  0  0  0  0  0
  193.2330  175.4600  145.0920 C   0  0  0  0  0  0  0  0  0  0  0  0
  197.1830  173.4810  143.5510 C   0  0  0  0  0  3  0  0  0  0  0  0
  187.4420  175.4510  141.3990 C   0  0  0  0  0  2  0  0  0  0  0  0
  189.3460  177.3350  142.3950 C   0  0  2  0  0  3  0  0  0  0  0  0
  196.2480  174.0280  142.5570 N   0  0  0  0  0  0  0  0  0  0  0  0
  188.8210  175.3510  141.1690 O   0  0  0  0  0  0  0  0  0  0  0  0
  186.8390  177.3290  142.8880 C   0  0  1  0  0  3  0  0  0  0  0  0
  192.4020  175.7560  147.4360 C   0  0  0  0  0  3  0  0  0  0  0  0
  192.2570  176.0020  146.0600 C   0  0  0  0  0  0  0  0  0  0  0  0
  194.3910  174.7990  145.5550 C   0  0  0  0  0  3  0  0  0  0  0  0
  190.8550  175.2930  142.4680 C   0  0  0  0  0  2  0  0  0  0  0  0
  193.8820  175.3970  141.3040 C   0  0  0  0  0  1  0  0  0  0  0  0
  197.1910  173.5230  146.1360 C   0  0  0  0  0  1  0  0  0  0  0  0
  193.0330  175.6460  143.6960 C   0  0  0  0  0  0  0  0  0  0  0  0
  195.3130  174.3470  144.6180 C   0  0  0  0  0  0  0  0  0  0  0  0
  185.7970  178.2860  143.0130 O   0  0  0  0  0  0  0  0  0  0  0  0
  185.7130  179.1600  144.0980 C   0  0  0  0  0  0  0  0  0  0  0  0
  185.7940  178.6690  145.5050 C   0  0  0  0  0  1  0  0  0  0  0  0
  185.5660  180.3910  143.8880 O   0  0  0  0  0  0  0  0  0  0  0  0
  1 16  1  1  0  0  0
  1 10  1  0  0  0  0
  1 20  1  0  0  0  0
  2 27  2  0  0  0  0
  2 12  1  0  0  0  0
  3  4  1  0  0  0  0
  5  6  2  0  0  0  0
  5 27  1  0  0  0  0
  6 28  1  0  0  0  0
  7 17  1  0  0  0  0
  7 24  1  6  0  0  0
  8 12  1  0  0  0  0
  9 26  1  0  0  0  0
 10 17  1  0  0  0  0
 10 20  1  0  0  0  0
 11  3  2  0  0  0  0
 12 13  1  0  0  0  0
 13 22  1  0  0  0  0
 13 11  1  0  0  0  0
 14 23  1  0  0  0  0
 14 22  2  0  0  0  0
 15  9  1  0  0  0  0
 17  8  1  0  0  0  0
 18  6  1  0  0  0  0
 18 15  2  0  0  0  0
 19 16  1  0  0  0  0
 19  7  1  0  0  0  0
 20 29  1  0  0  0  0
 21  4  2  0  0  0  0
 22 21  1  0  0  0  0
 24  2  1  0  0  0  0
 25  5  1  0  0  0  0
 27 14  1  0  0  0  0
 28  9  1  0  0  0  0
 28 23  2  0  0  0  0
 29 30  1  0  0  0  0
 30 31  1  0  0  0  0
 32 30  2  0  0  0  0
M  END
>  <MODEL>
3

>  <REMARK>
 VINA RESULT:      -8.0      3.649      8.719
  Name = 
  2 active torsions:
  status: ('A' for Active; 'I' for Inactive)
    1  A    between atoms: C_20  and  O_29
    2  A    between atoms: O_29  and  C_30
                            x       y       z     vdW  Elec       q    Type
                         _______ _______ _______ _____ _____    ______ ____

>  <TORSDO>
F 2

$$$$
=
 OpenBabel11112416383D

 32 38  0  0  1  0  0  0  0  0999 V2000
  184.4300  178.9750  143.6730 C   0  0  1  0  0  3  0  0  0  0  0  0
  188.7550  176.3450  144.6040 C   0  0  0  0  0  0  0  0  0  0  0  0
  188.5570  173.9450  140.2560 C   0  0  0  0  0  3  0  0  0  0  0  0
  189.9450  173.8120  140.2470 C   0  0  0  0  0  3  0  0  0  0  0  0
  190.9740  176.3410  145.8330 C   0  0  0  0  0  0  0  0  0  0  0  0
  192.3360  176.0410  145.8460 C   0  0  0  0  0  0  0  0  0  0  0  0
  187.1460  178.2030  143.9250 C   0  0  1  0  0  3  0  0  0  0  0  0
  186.5420  175.7930  143.5400 C   0  0  0  0  0  2  0  0  0  0  0  0
  194.3120  175.2330  145.0870 N   0  0  0  0  0  0  0  0  0  0  0  0
  184.6700  177.4780  143.9320 C   0  0  2  0  0  3  0  0  0  0  0  0
  187.9210  174.5330  141.3500 C   0  0  0  0  0  3  0  0  0  0  0  0
  188.0020  175.6150  143.5700 N   0  0  0  0  0  0  0  0  0  0  0  0
  188.6640  174.9970  142.4490 C   0  0  0  0  0  0  0  0  0  0  0  0
  190.8560  175.3100  143.6040 C   0  0  0  0  0  0  0  0  0  0  0  0
  194.5560  175.7510  146.4330 C   0  0  0  0  0  3  0  0  0  0  0  0
  185.6960  179.8430  143.5790 C   0  0  0  0  0  2  0  0  0  0  0  0
  186.1320  177.0960  144.2350 C   0  0  2  0  0  3  0  0  0  0  0  0
  193.2660  176.2890  146.8910 N   0  0  0  0  0  0  0  0  0  0  0  0
  186.6920  179.4090  144.4640 O   0  0  0  0  0  0  0  0  0  0  0  0
  184.4600  177.9830  142.5190 C   0  0  1  0  0  3  0  0  0  0  0  0
  190.6950  174.2660  141.3330 C   0  0  0  0  0  2  0  0  0  0  0  0
  190.0650  174.8600  142.4400 C   0  0  0  0  0  0  0  0  0  0  0  0
  192.2380  175.0280  143.6680 C   0  0  0  0  0  3  0  0  0  0  0  0
  188.5450  177.8600  144.4560 C   0  0  0  0  0  2  0  0  0  0  0  0
  190.3500  177.0100  147.0140 C   0  0  0  0  0  1  0  0  0  0  0  0
  195.2280  174.3870  144.3420 C   0  0  0  0  0  1  0  0  0  0  0  0
  190.2190  175.9840  144.6830 C   0  0  0  0  0  0  0  0  0  0  0  0
  192.9400  175.4210  144.8010 C   0  0  0  0  0  0  0  0  0  0  0  0
  183.1300  177.6950  142.1110 O   0  0  0  0  0  0  0  0  0  0  0  0
  182.6190  178.1160  140.8820 C   0  0  0  0  0  0  0  0  0  0  0  0
  181.2970  178.8000  140.7780 C   0  0  0  0  0  1  0  0  0  0  0  0
  183.2880  177.9160  139.8360 O   0  0  0  0  0  0  0  0  0  0  0  0
  1 16  1  6  0  0  0
  1 10  1  0  0  0  0
  2 27  2  0  0  0  0
  3 11  1  0  0  0  0
  4  3  2  0  0  0  0
  4 21  1  0  0  0  0
  5  6  2  0  0  0  0
  5 25  1  0  0  0  0
  6 18  1  0  0  0  0
  7 17  1  0  0  0  0
  7 24  1  1  0  0  0
  7 19  1  0  0  0  0
  8 12  1  0  0  0  0
  8 17  1  0  0  0  0
  9 15  1  0  0  0  0
 10 17  1  0  0  0  0
 11 13  2  0  0  0  0
 12  2  1  0  0  0  0
 13 12  1  0  0  0  0
 14 23  1  0  0  0  0
 14 27  1  0  0  0  0
 15 18  2  0  0  0  0
 16 19  1  0  0  0  0
 20  1  1  0  0  0  0
 20 10  1  0  0  0  0
 21 22  1  0  0  0  0
 22 13  1  0  0  0  0
 22 14  2  0  0  0  0
 23 28  2  0  0  0  0
 24  2  1  0  0  0  0
 26  9  1  0  0  0  0
 27  5  1  0  0  0  0
 28  9  1  0  0  0  0
 28  6  1  0  0  0  0
 29 20  1  0  0  0  0
 30 29  1  0  0  0  0
 31 30  1  0  0  0  0
 32 30  2  0  0  0  0
M  END
>  <MODEL>
4

>  <REMARK>
 VINA RESULT:      -7.4      3.239      8.864
  Name = 
  2 active torsions:
  status: ('A' for Active; 'I' for Inactive)
    1  A    between atoms: C_20  and  O_29
    2  A    between atoms: O_29  and  C_30
                            x       y       z     vdW  Elec       q    Type
                         _______ _______ _______ _____ _____    ______ ____

>  <TORSDO>
F 2

$$$$
=
 OpenBabel11112416383D

 32 38  0  0  1  0  0  0  0  0999 V2000
  194.4600  171.4480  143.4120 C   0  0  1  0  0  3  0  0  0  0  0  0
  189.9350  173.7820  142.6550 C   0  0  0  0  0  0  0  0  0  0  0  0
  189.4150  174.9380  147.4610 C   0  0  0  0  0  3  0  0  0  0  0  0
  188.6430  176.0490  147.1270 C   0  0  0  0  0  3  0  0  0  0  0  0
  188.4830  175.0350  140.9950 C   0  0  0  0  0  0  0  0  0  0  0  0
  187.5790  176.0640  140.7320 C   0  0  0  0  0  0  0  0  0  0  0  0
  192.4430  173.3390  142.7850 C   0  0  1  0  0  3  0  0  0  0  0  0
  190.8770  172.2850  144.4450 C   0  0  0  0  0  2  0  0  0  0  0  0
  186.2030  177.8100  141.1720 N   0  0  0  0  0  0  0  0  0  0  0  0
  193.0360  171.0660  143.8530 C   0  0  2  0  0  3  0  0  0  0  0  0
  189.8630  174.0750  146.4590 C   0  0  0  0  0  3  0  0  0  0  0  0
  190.0200  173.4240  144.0810 N   0  0  0  0  0  0  0  0  0  0  0  0
  189.5440  174.3120  145.1110 C   0  0  2  0  0  3  0  0  0  0  0  0
  188.3880  175.6750  143.3670 C   0  0  0  0  0  0  0  0  0  0  0  0
  186.0910  177.5340  139.7390 C   0  0  0  0  0  3  0  0  0  0  0  0
  194.5920  172.8040  142.7000 C   0  0  0  0  0  2  0  0  0  0  0  0
  191.9260  172.0160  143.3620 C   0  0  2  0  0  3  0  0  0  0  0  0
  187.0100  176.4160  139.4780 N   0  0  0  0  0  0  0  0  0  0  0  0
  193.4820  173.0780  141.8890 O   0  0  0  0  0  0  0  0  0  0  0  0
  193.9910  171.7140  144.8350 C   0  0  1  0  0  3  0  0  0  0  0  0
  188.3160  176.2950  145.7920 C   0  0  0  0  0  3  0  0  0  0  0  0
  188.7620  175.4330  144.7760 C   0  0  0  0  0  0  0  0  0  0  0  0
  187.4730  176.7010  143.0470 C   0  0  0  0  0  3  0  0  0  0  0  0
  191.3250  174.1410  142.1050 C   0  0  0  0  0  2  0  0  0  0  0  0
  188.9640  174.1660  139.8790 C   0  0  0  0  0  1  0  0  0  0  0  0
  185.3020  178.6600  141.9290 C   0  0  0  0  0  1  0  0  0  0  0  0
  188.9110  174.8450  142.3360 C   0  0  0  0  0  0  0  0  0  0  0  0
  187.1050  176.8670  141.7170 C   0  0  0  0  0  0  0  0  0  0  0  0
  194.5200  170.7190  145.6990 O   0  0  0  0  0  0  0  0  0  0  0  0
  195.8670  170.6910  146.0670 C   0  0  0  0  0  0  0  0  0  0  0  0
  196.6990  171.9300  146.0840 C   0  0  0  0  0  1  0  0  0  0  0  0
  196.3940  169.5960  146.3920 O   0  0  0  0  0  0  0  0  0  0  0  0
  1 16  1  6  0  0  0
  1 10  1  0  0  0  0
  1 20  1  0  0  0  0
  2 12  1  0  0  0  0
  4  3  1  0  0  0  0
  5 27  1  0  0  0  0
  6  5  2  0  0  0  0
  6 28  1  0  0  0  0
  7 24  1  6  0  0  0
  7 17  1  0  0  0  0
  9 28  1  0  0  0  0
  9 26  1  0  0  0  0
 10 20  1  0  0  0  0
 11  3  2  0  0  0  0
 12  8  1  0  0  0  0
 12 13  1  0  0  0  0
 13 11  1  0  0  0  0
 14 22  2  0  0  0  0
 15  9  1  0  0  0  0
 17 10  1  0  0  0  0
 17  8  1  0  0  0  0
 18 15  2  0  0  0  0
 18  6  1  0  0  0  0
 19 16  1  0  0  0  0
 19  7  1  0  0  0  0
 20 29  1  0  0  0  0
 21  4  2  0  0  0  0
 22 13  1  0  0  0  0
 22 21  1  0  0  0  0
 23 14  1  0  0  0  0
 24  2  1  0  0  0  0
 25  5  1  0  0  0  0
 27  2  2  0  0  0  0
 27 14  1  0  0  0  0
 28 23  2  0  0  0  0
 29 30  1  0  0  0  0
 30 31  1  0  0  0  0
 30 32  2  0  0  0  0
M  END
>  <MODEL>
5

>  <REMARK>
 VINA RESULT:      -7.2      3.515      4.721
  Name = 
  2 active torsions:
  status: ('A' for Active; 'I' for Inactive)
    1  A    between atoms: C_20  and  O_29
    2  A    between atoms: O_29  and  C_30
                            x       y       z     vdW  Elec       q    Type
                         _______ _______ _______ _____ _____    ______ ____

>  <TORSDO>
F 2

$$$$
=
 OpenBabel11112416383D

 32 38  0  0  1  0  0  0  0  0999 V2000
  187.9040  177.8110  144.8890 C   0  0  1  0  0  3  0  0  0  0  0  0
  191.9830  174.6790  145.0990 C   0  0  0  0  0  0  0  0  0  0  0  0
  189.7580  171.1510  142.3970 C   0  0  0  0  0  3  0  0  0  0  0  0
  190.9940  170.7040  141.9320 C   0  0  0  0  0  3  0  0  0  0  0  0
  194.5060  174.5470  145.3310 C   0  0  0  0  0  0  0  0  0  0  0  0
  195.7140  173.9590  144.9580 C   0  0  0  0  0  0  0  0  0  0  0  0
  190.3960  176.5500  144.4030 C   0  0  1  0  0  3  0  0  0  0  0  0
  189.4910  174.3500  145.2170 C   0  0  0  0  0  2  0  0  0  0  0  0
  197.1060  172.5190  143.8980 N   0  0  0  0  0  0  0  0  0  0  0  0
  188.1080  176.4580  145.5930 C   0  0  2  0  0  3  0  0  0  0  0  0
  189.6990  172.1830  143.3340 C   0  0  0  0  0  3  0  0  0  0  0  0
  190.8050  173.8570  144.7760 N   0  0  0  0  0  0  0  0  0  0  0  0
  190.8740  172.7830  143.8180 C   0  0  0  0  0  0  0  0  0  0  0  0
  193.3660  172.9260  143.8760 C   0  0  0  0  0  0  0  0  0  0  0  0
  197.9410  173.3620  144.7540 C   0  0  0  0  0  3  0  0  0  0  0  0
  189.0760  178.2880  144.0150 C   0  0  0  0  0  2  0  0  0  0  0  0
  189.5240  175.8630  145.4600 C   0  0  2  0  0  3  0  0  0  0  0  0
  197.0170  174.3000  145.4090 N   0  0  0  0  0  0  0  0  0  0  0  0
  190.3150  177.9340  144.5670 O   0  0  0  0  0  0  0  0  0  0  0  0
  187.3590  176.5290  144.2780 C   0  0  1  0  0  3  0  0  0  0  0  0
  192.1690  171.2890  142.4060 C   0  0  0  0  0  2  0  0  0  0  0  0
  192.1210  172.3300  143.3490 C   0  0  0  0  0  0  0  0  0  0  0  0
  194.6160  172.3650  143.5320 C   0  0  0  0  0  3  0  0  0  0  0  0
  191.8550  176.0770  144.4720 C   0  0  0  0  0  2  0  0  0  0  0  0
  194.5000  175.6780  146.3070 C   0  0  0  0  0  1  0  0  0  0  0  0
  197.5450  171.2940  143.2530 C   0  0  0  0  0  1  0  0  0  0  0  0
  193.3070  174.0330  144.7680 C   0  0  0  0  0  0  0  0  0  0  0  0
  195.7630  172.9210  144.0870 C   0  0  0  0  0  0  0  0  0  0  0  0
  185.9640  176.4440  144.5280 O   0  0  0  0  0  0  0  0  0  0  0  0
  185.1400  177.5720  144.5540 C   0  0  0  0  0  0  0  0  0  0  0  0
  184.5960  178.1120  145.8340 C   0  0  0  0  0  1  0  0  0  0  0  0
  184.8500  178.1470  143.4740 O   0  0  0  0  0  0  0  0  0  0  0  0
  1 16  1  6  0  0  0
  1 10  1  0  0  0  0
  3 11  1  0  0  0  0
  4  3  2  0  0  0  0
  4 21  1  0  0  0  0
  5 25  1  0  0  0  0
  6  5  2  0  0  0  0
  6 18  1  0  0  0  0
  7 24  1  1  0  0  0
  7 19  1  0  0  0  0
  7 17  1  0  0  0  0
  8 17  1  0  0  0  0
  9 28  1  0  0  0  0
  9 15  1  0  0  0  0
 11 13  2  0  0  0  0
 12  2  1  0  0  0  0
 12  8  1  0  0  0  0
 13 12  1  0  0  0  0
 14 27  1  0  0  0  0
 15 18  2  0  0  0  0
 16 19  1  0  0  0  0
 17 10  1  0  0  0  0
 20 29  1  0  0  0  0
 20  1  1  0  0  0  0
 20 10  1  0  0  0  0
 21 22  1  0  0  0  0
 22 13  1  0  0  0  0
 22 14  2  0  0  0  0
 23 14  1  0  0  0  0
 23 28  2  0  0  0  0
 24  2  1  0  0  0  0
 26  9  1  0  0  0  0
 27  2  2  0  0  0  0
 27  5  1  0  0  0  0
 28  6  1  0  0  0  0
 29 30  1  0  0  0  0
 30 31  1  0  0  0  0
 32 30  2  0  0  0  0
M  END
>  <MODEL>
6

>  <REMARK>
 VINA RESULT:      -7.0      4.076      9.651
  Name = 
  2 active torsions:
  status: ('A' for Active; 'I' for Inactive)
    1  A    between atoms: C_20  and  O_29
    2  A    between atoms: O_29  and  C_30
                            x       y       z     vdW  Elec       q    Type
                         _______ _______ _______ _____ _____    ______ ____

>  <TORSDO>
F 2

$$$$
=
 OpenBabel11112416383D

 32 38  0  0  1  0  0  0  0  0999 V2000
  194.9210  173.6720  144.6850 C   0  0  1  0  0  3  0  0  0  0  0  0
  190.5710  176.3980  145.0660 C   0  0  0  0  0  0  0  0  0  0  0  0
  188.7600  174.6220  140.7910 C   0  0  0  0  0  3  0  0  0  0  0  0
  187.4560  174.8040  141.2490 C   0  0  0  0  0  3  0  0  0  0  0  0
  188.9290  177.5000  146.6540 C   0  0  0  0  0  0  0  0  0  0  0  0
  187.6110  177.8040  146.9940 C   0  0  0  0  0  0  0  0  0  0  0  0
  192.3170  174.5630  145.3660 C   0  0  1  0  0  3  0  0  0  0  0  0
  192.1130  175.7800  143.1750 C   0  0  0  0  0  2  0  0  0  0  0  0
  185.3580  177.8950  146.7770 N   0  0  0  0  0  0  0  0  0  0  0  0
  194.3880  174.8530  143.8540 C   0  0  2  0  0  3  0  0  0  0  0  0
  189.8380  175.0280  141.5790 C   0  0  0  0  0  3  0  0  0  0  0  0
  190.7430  176.0250  143.6510 N   0  0  0  0  0  0  0  0  0  0  0  0
  189.6250  175.6200  142.8370 C   0  0  0  0  0  0  0  0  0  0  0  0
  188.0690  176.4600  144.5990 C   0  0  0  0  0  0  0  0  0  0  0  0
  185.6920  178.6030  148.0130 C   0  0  0  0  0  3  0  0  0  0  0  0
  193.9650  173.1350  145.7630 C   0  0  0  0  0  2  0  0  0  0  0  0
  193.0480  175.4370  144.3400 C   0  0  2  0  0  3  0  0  0  0  0  0
  187.1540  178.5080  148.1400 N   0  0  0  0  0  0  0  0  0  0  0  0
  193.2180  174.1620  146.3550 O   0  0  0  0  0  0  0  0  0  0  0  0
  194.2710  173.4360  143.3290 C   0  0  1  0  0  3  0  0  0  0  0  0
  187.2310  175.3940  142.4930 C   0  0  0  0  0  2  0  0  0  0  0  0
  188.3080  175.8060  143.2960 C   0  0  0  0  0  0  0  0  0  0  0  0
  186.7530  176.7940  144.9890 C   0  0  0  0  0  3  0  0  0  0  0  0
  191.1160  175.2920  145.9840 C   0  0  0  0  0  2  0  0  0  0  0  0
  190.0440  177.9200  147.5550 C   0  0  0  0  0  1  0  0  0  0  0  0
  184.0660  177.9410  146.1140 C   0  0  0  0  0  1  0  0  0  0  0  0
  189.1650  176.7990  145.4410 C   0  0  0  0  0  0  0  0  0  0  0  0
  186.5700  177.4540  146.1980 C   0  0  0  0  0  0  0  0  0  0  0  0
  195.2810  173.2130  142.3560 O   0  0  0  0  0  0  0  0  0  0  0  0
  195.4550  174.0540  141.2550 C   0  0  0  0  0  0  0  0  0  0  0  0
  194.3550  174.2990  140.2770 C   0  0  0  0  0  1  0  0  0  0  0  0
  196.5650  174.6200  141.0810 O   0  0  0  0  0  0  0  0  0  0  0  0
  1 16  1  1  0  0  0
  2 27  2  0  0  0  0
  2 24  1  0  0  0  0
  3  4  2  0  0  0  0
  3 11  1  0  0  0  0
  4 21  1  0  0  0  0
  5  6  2  0  0  0  0
  5 25  1  0  0  0  0
  6 18  1  0  0  0  0
  7 24  1  1  0  0  0
  7 19  1  0  0  0  0
  8 12  1  0  0  0  0
  8 17  1  0  0  0  0
  9 15  1  0  0  0  0
 10 17  1  0  0  0  0
 10  1  1  0  0  0  0
 11 13  2  0  0  0  0
 12  2  1  0  0  0  0
 13 22  1  0  0  0  0
 13 12  1  0  0  0  0
 14 23  1  0  0  0  0
 14 27  1  0  0  0  0
 15 18  2  0  0  0  0
 16 19  1  0  0  0  0
 17  7  1  0  0  0  0
 20 10  1  0  0  0  0
 20  1  1  0  0  0  0
 21 22  1  0  0  0  0
 22 14  2  0  0  0  0
 23 28  2  0  0  0  0
 26  9  1  0  0  0  0
 27  5  1  0  0  0  0
 28  9  1  0  0  0  0
 28  6  1  0  0  0  0
 29 20  1  0  0  0  0
 30 29  1  0  0  0  0
 31 30  1  0  0  0  0
 32 30  2  0  0  0  0
M  END
>  <MODEL>
7

>  <REMARK>
 VINA RESULT:      -6.9      3.094      5.641
  Name = 
  2 active torsions:
  status: ('A' for Active; 'I' for Inactive)
    1  A    between atoms: C_20  and  O_29
    2  A    between atoms: O_29  and  C_30
                            x       y       z     vdW  Elec       q    Type
                         _______ _______ _______ _____ _____    ______ ____

>  <TORSDO>
F 2

$$$$
=
 OpenBabel11112416383D

 32 38  0  0  1  0  0  0  0  0999 V2000
  186.3530  177.2170  143.0840 C   0  0  1  0  0  3  0  0  0  0  0  0
  190.9250  175.0550  142.1280 C   0  0  0  0  0  0  0  0  0  0  0  0
  192.7970  176.4160  146.5270 C   0  0  0  0  0  3  0  0  0  0  0  0
  193.6660  175.3250  146.5130 C   0  0  0  0  0  3  0  0  0  0  0  0
  192.1480  173.2310  140.8590 C   0  0  0  0  0  0  0  0  0  0  0  0
  193.1430  172.2540  140.8280 C   0  0  0  0  0  0  0  0  0  0  0  0
  188.4840  175.3700  142.7990 C   0  0  1  0  0  3  0  0  0  0  0  0
  190.1710  177.1810  143.2430 C   0  0  0  0  0  2  0  0  0  0  0  0
  194.8940  171.0200  141.5670 N   0  0  0  0  0  0  0  0  0  0  0  0
  187.7400  177.8410  142.8510 C   0  0  2  0  0  3  0  0  0  0  0  0
  191.9650  176.6570  145.4320 C   0  0  0  0  0  3  0  0  0  0  0  0
  191.1170  176.0570  143.1900 N   0  0  0  0  0  0  0  0  0  0  0  0
  191.9890  175.8100  144.3110 C   0  0  2  0  0  3  0  0  0  0  0  0
  192.9320  173.8340  143.1100 C   0  0  0  0  0  0  0  0  0  0  0  0
  194.6020  170.5680  140.2060 C   0  0  0  0  0  3  0  0  0  0  0  0
  186.3160  175.6820  143.1380 C   0  0  0  0  0  2  0  0  0  0  0  0
  188.8600  176.8320  142.5300 C   0  0  2  0  0  3  0  0  0  0  0  0
  193.4510  171.3670  139.7610 N   0  0  0  0  0  0  0  0  0  0  0  0
  187.2310  175.1070  142.2440 O   0  0  0  0  0  0  0  0  0  0  0  0
  187.1920  177.7030  144.2570 C   0  0  1  0  0  3  0  0  0  0  0  0
  193.7030  174.4790  145.4040 C   0  0  0  0  0  3  0  0  0  0  0  0
  192.8680  174.7110  144.2980 C   0  0  0  0  0  0  0  0  0  0  0  0
  193.9230  172.8320  143.0270 C   0  0  0  0  0  3  0  0  0  0  0  0
  189.5390  174.4000  142.2490 C   0  0  0  0  0  2  0  0  0  0  0  0
  191.2550  173.4200  139.6770 C   0  0  0  0  0  1  0  0  0  0  0  0
  196.0970  170.6950  142.3120 C   0  0  0  0  0  1  0  0  0  0  0  0
  192.0270  174.0280  142.0290 C   0  0  0  0  0  0  0  0  0  0  0  0
  193.9850  172.0590  141.8730 C   0  0  0  0  0  0  0  0  0  0  0  0
  186.7050  178.9640  144.6940 O   0  0  0  0  0  0  0  0  0  0  0  0
  185.3570  179.1820  144.9860 C   0  0  0  0  0  0  0  0  0  0  0  0
  184.6880  178.5080  146.1380 C   0  0  0  0  0  1  0  0  0  0  0  0
  184.6890  179.9640  144.2630 O   0  0  0  0  0  0  0  0  0  0  0  0
  1 16  1  1  0  0  0
  1 20  1  0  0  0  0
  2 24  1  0  0  0  0
  2 12  1  0  0  0  0
  4  3  1  0  0  0  0
  5 27  1  0  0  0  0
  6  5  2  0  0  0  0
  6 28  1  0  0  0  0
  7 24  1  6  0  0  0
  9 28  1  0  0  0  0
  9 26  1  0  0  0  0
 10  1  1  0  0  0  0
 10 20  1  0  0  0  0
 11  3  2  0  0  0  0
 12  8  1  0  0  0  0
 12 13  1  0  0  0  0
 13 11  1  0  0  0  0
 14 22  2  0  0  0  0
 15  9  1  0  0  0  0
 17  7  1  0  0  0  0
 17 10  1  0  0  0  0
 17  8  1  0  0  0  0
 18 15  2  0  0  0  0
 18  6  1  0  0  0  0
 19  7  1  0  0  0  0
 19 16  1  0  0  0  0
 20 29  1  0  0  0  0
 21  4  2  0  0  0  0
 22 13  1  0  0  0  0
 22 21  1  0  0  0  0
 23 14  1  0  0  0  0
 25  5  1  0  0  0  0
 27  2  2  0  0  0  0
 27 14  1  0  0  0  0
 28 23  2  0  0  0  0
 29 30  1  0  0  0  0
 30 31  1  0  0  0  0
 32 30  2  0  0  0  0
M  END
>  <MODEL>
8

>  <REMARK>
 VINA RESULT:      -6.8      4.207      8.708
  Name = 
  2 active torsions:
  status: ('A' for Active; 'I' for Inactive)
    1  A    between atoms: C_20  and  O_29
    2  A    between atoms: O_29  and  C_30
                            x       y       z     vdW  Elec       q    Type
                         _______ _______ _______ _____ _____    ______ ____

>  <TORSDO>
F 2

$$$$
=
 OpenBabel11112416383D

 32 38  0  0  1  0  0  0  0  0999 V2000
  188.1830  177.9150  144.2030 C   0  0  1  0  0  3  0  0  0  0  0  0
  189.8270  173.3650  142.4480 C   0  0  0  0  0  0  0  0  0  0  0  0
  188.3640  174.3210  137.7950 C   0  0  0  0  0  3  0  0  0  0  0  0
  189.3550  173.4790  137.2930 C   0  0  0  0  0  3  0  0  0  0  0  0
  191.4850  171.4740  142.7790 C   0  0  0  0  0  0  0  0  0  0  0  0
  192.3490  170.5280  142.2280 C   0  0  0  0  0  0  0  0  0  0  0  0
  189.7860  175.7970  143.2160 C   0  0  1  0  0  3  0  0  0  0  0  0
  187.8160  174.8110  142.0050 C   0  0  0  0  0  2  0  0  0  0  0  0
  193.4050  169.3440  140.6110 N   0  0  0  0  0  0  0  0  0  0  0  0
  187.4110  176.6930  143.6750 C   0  0  2  0  0  3  0  0  0  0  0  0
  188.1910  174.4470  139.1750 C   0  0  0  0  0  3  0  0  0  0  0  0
  188.8320  173.8800  141.4920 N   0  0  0  0  0  0  0  0  0  0  0  0
  189.0080  173.7340  140.0690 C   0  0  0  0  0  0  0  0  0  0  0  0
  190.8480  172.0990  140.4890 C   0  0  0  0  0  0  0  0  0  0  0  0
  193.8580  168.8050  141.8940 C   0  0  0  0  0  3  0  0  0  0  0  0
  189.7140  177.8210  144.1160 C   0  0  0  0  0  2  0  0  0  0  0  0
  188.2880  175.4840  143.2990 C   0  0  2  0  0  3  0  0  0  0  0  0
  193.1770  169.6050  142.9220 N   0  0  0  0  0  0  0  0  0  0  0  0
  190.1700  176.5160  144.3500 O   0  0  0  0  0  0  0  0  0  0  0  0
  187.6340  177.8990  142.7840 C   0  0  1  0  0  3  0  0  0  0  0  0
  190.1710  172.7620  138.1700 C   0  0  0  0  0  2  0  0  0  0  0  0
  190.0060  172.8830  139.5610 C   0  0  0  0  0  0  0  0  0  0  0  0
  191.7360  171.1260  139.9820 C   0  0  0  0  0  3  0  0  0  0  0  0
  190.6280  174.5210  143.0680 C   0  0  0  0  0  2  0  0  0  0  0  0
  191.3680  171.5980  144.2630 C   0  0  0  0  0  1  0  0  0  0  0  0
  193.6160  168.7100  139.3210 C   0  0  0  0  0  1  0  0  0  0  0  0
  190.7290  172.2890  141.8940 C   0  0  0  0  0  0  0  0  0  0  0  0
  192.4750  170.3720  140.8870 C   0  0  0  0  0  0  0  0  0  0  0  0
  186.4420  178.6690  142.7310 O   0  0  0  0  0  0  0  0  0  0  0  0
  185.3350  178.2790  141.9740 C   0  0  0  0  0  0  0  0  0  0  0  0
  185.4640  177.9150  140.5320 C   0  0  0  0  0  1  0  0  0  0  0  0
  184.2020  178.2330  142.5180 O   0  0  0  0  0  0  0  0  0  0  0  0
  1 16  1  6  0  0  0
  2 24  1  0  0  0  0
  3 11  1  0  0  0  0
  4  3  2  0  0  0  0
  4 21  1  0  0  0  0
  5 25  1  0  0  0  0
  6  5  2  0  0  0  0
  6 18  1  0  0  0  0
  7 24  1  1  0  0  0
  7 17  1  0  0  0  0
  7 19  1  0  0  0  0
  8 17  1  0  0  0  0
  9 28  1  0  0  0  0
  9 15  1  0  0  0  0
 10  1  1  0  0  0  0
 11 13  2  0  0  0  0
 12  8  1  0  0  0  0
 12  2  1  0  0  0  0
 13 12  1  0  0  0  0
 14 27  1  0  0  0  0
 15 18  2  0  0  0  0
 16 19  1  0  0  0  0
 17 10  1  0  0  0  0
 20 10  1  0  0  0  0
 20  1  1  0  0  0  0
 21 22  1  0  0  0  0
 22 13  1  0  0  0  0
 22 14  2  0  0  0  0
 23 14  1  0  0  0  0
 23 28  2  0  0  0  0
 26  9  1  0  0  0  0
 27  2  2  0  0  0  0
 27  5  1  0  0  0  0
 28  6  1  0  0  0  0
 29 20  1  0  0  0  0
 30 32  2  0  0  0  0
 30 29  1  0  0  0  0
 31 30  1  0  0  0  0
M  END
>  <MODEL>
9

>  <REMARK>
 VINA RESULT:      -6.7      5.054      9.253
  Name = 
  2 active torsions:
  status: ('A' for Active; 'I' for Inactive)
    1  A    between atoms: C_20  and  O_29
    2  A    between atoms: O_29  and  C_30
                            x       y       z     vdW  Elec       q    Type
                         _______ _______ _______ _____ _____    ______ ____

>  <TORSDO>
F 2

$$$$
