=
 OpenBabel11112417503D

 34 42  0  0  1  0  0  0  0  0999 V2000
  189.5470  176.9320  143.2130 C   0  0  0  0  0  0  0  0  0  0  0  0
  191.8570  175.9660  142.7790 C   0  0  0  0  0  2  0  0  0  0  0  0
  184.4400  178.1660  147.0780 C   0  0  2  0  0  3  0  0  0  0  0  0
  187.5440  178.1640  143.8150 C   0  0  0  0  0  0  0  0  0  0  0  0
  186.5670  177.9030  146.1660 C   0  0  1  0  0  0  0  0  0  0  0  0
  185.8900  176.6760  145.9480 O   0  0  0  0  0  0  0  0  0  0  0  0
  184.6910  176.7220  146.6880 C   0  0  0  0  0  2  0  0  0  0  0  0
  184.0500  178.5810  144.7890 C   0  0  0  0  0  2  0  0  0  0  0  0
  190.8070  175.5400  144.9170 C   0  0  2  0  0  3  0  0  0  0  0  0
  192.6030  176.6340  147.3130 C   0  0  0  0  0  2  0  0  0  0  0  0
  187.9970  177.6250  146.6230 C   0  0  0  0  0  2  0  0  0  0  0  0
  185.3040  179.3190  144.3270 C   0  0  0  0  0  2  0  0  0  0  0  0
  190.1680  176.4470  145.9850 C   0  0  1  0  0  3  0  0  0  0  0  0
  192.8190  175.1450  143.6150 C   0  0  0  0  0  2  0  0  0  0  0  0
  186.6270  178.7360  144.8680 C   0  0  2  0  0  3  0  0  0  0  0  0
  183.7070  178.9250  146.1190 O   0  0  0  0  0  0  0  0  0  0  0  0
  193.1690  176.0450  146.0250 C   0  0  1  0  0  0  0  0  0  0  0  0
  188.6130  177.3200  144.1870 C   0  0  0  0  0  0  0  0  0  0  0  0
  185.8310  178.6920  147.2250 C   0  0  0  0  0  2  0  0  0  0  0  0
  188.7150  176.7470  145.5890 C   0  0  2  0  0  3  0  0  0  0  0  0
  188.3400  178.2260  141.5720 C   0  0  0  0  0  3  0  0  0  0  0  0
  191.6220  175.6620  147.9510 C   0  0  0  0  0  2  0  0  0  0  0  0
  187.4500  178.6010  142.5280 N   0  0  0  0  0  0  0  0  0  0  0  0
  190.2130  175.7880  147.3680 C   0  0  0  0  0  2  0  0  0  0  0  0
  192.2990  175.1700  145.0580 C   0  0  1  0  0  3  0  0  0  0  0  0
  189.4070  177.3900  141.8980 C   0  0  0  0  0  3  0  0  0  0  0  0
  190.6680  176.1180  143.5920 N   0  0  0  0  0  0  0  0  0  0  0  0
  194.0900  176.8940  145.3830 O   0  0  0  0  0  0  0  0  0  0  0  0
  194.6410  175.8360  146.1440 C   0  0  2  0  0  3  0  0  0  0  0  0
  197.1680  174.3400  144.0390 C   0  0  0  0  0  2  0  0  0  0  0  0
  195.9770  173.7410  146.0440 C   0  0  0  0  0  2  0  0  0  0  0  0
  195.2330  174.7740  145.2280 C   0  0  2  0  0  3  0  0  0  0  0  0
  197.2030  173.4070  145.2310 C   0  0  0  0  0  2  0  0  0  0  0  0
  196.1870  175.3790  144.3130 N   0  0  0  0  0  2  0  0  0  0  0  0
  1 27  1  0  0  0  0
  1 18  1  0  0  0  0
  2 27  1  0  0  0  0
  2 14  1  0  0  0  0
  3  7  1  6  0  0  0
  3 19  1  0  0  0  0
  4 18  2  0  0  0  0
  4 15  1  0  0  0  0
  5 11  1  1  0  0  0
  5 19  1  0  0  0  0
  6  5  1  0  0  0  0
  6  7  1  0  0  0  0
  8 16  1  0  0  0  0
  9 27  1  6  0  0  0
  9 25  1  0  0  0  0
  9 13  1  0  0  0  0
 10 22  1  0  0  0  0
 12  8  1  0  0  0  0
 13 24  1  1  0  0  0
 15 12  1  6  0  0  0
 15  5  1  0  0  0  0
 16  3  1  0  0  0  0
 17 29  1  0  0  0  0
 17 10  1  1  0  0  0
 18 20  1  0  0  0  0
 20 13  1  0  0  0  0
 20 11  1  1  0  0  0
 21 26  1  0  0  0  0
 21 23  2  0  0  0  0
 23  4  1  0  0  0  0
 24 22  1  0  0  0  0
 25 14  1  6  0  0  0
 25 17  1  0  0  0  0
 26  1  2  0  0  0  0
 28 17  1  0  0  0  0
 29 28  1  6  0  0  0
 30 34  1  0  0  0  0
 30 33  1  0  0  0  0
 32 31  1  1  0  0  0
 32 29  1  0  0  0  0
 33 31  1  0  0  0  0
 34 32  1  0  0  0  0
M  END
>  <MODEL>
1

>  <REMARK>
 VINA RESULT:     -10.3      0.000      0.000
  Name = 
  1 active torsions:
  status: ('A' for Active; 'I' for Inactive)
    1  A    between atoms: C_29  and  C_32
                            x       y       z     vdW  Elec       q    Type
                         _______ _______ _______ _____ _____    ______ ____

>  <TORSDO>
F 1

$$$$
=
 OpenBabel11112417503D

 34 42  0  0  1  0  0  0  0  0999 V2000
  188.8280  175.5070  142.8710 C   0  0  0  0  0  0  0  0  0  0  0  0
  190.8160  173.9830  142.4440 C   0  0  0  0  0  2  0  0  0  0  0  0
  184.7410  178.6890  146.8370 C   0  0  2  0  0  3  0  0  0  0  0  0
  187.2150  177.2550  143.3560 C   0  0  0  0  0  0  0  0  0  0  0  0
  186.6050  177.7610  145.7900 C   0  0  1  0  0  0  0  0  0  0  0  0
  185.6850  176.6970  145.9730 O   0  0  0  0  0  0  0  0  0  0  0  0
  184.6530  177.1740  146.8060 C   0  0  0  0  0  2  0  0  0  0  0  0
  184.0670  178.6440  144.5770 C   0  0  0  0  0  2  0  0  0  0  0  0
  190.0690  174.3000  144.7240 C   0  0  2  0  0  3  0  0  0  0  0  0
  192.4050  175.4890  146.5390 C   0  0  0  0  0  2  0  0  0  0  0  0
  188.0130  177.2870  146.1390 C   0  0  0  0  0  2  0  0  0  0  0  0
  185.3440  178.9610  143.8020 C   0  0  0  0  0  2  0  0  0  0  0  0
  189.7940  175.5450  145.5870 C   0  0  1  0  0  3  0  0  0  0  0  0
  191.7330  173.1840  143.3500 C   0  0  0  0  0  2  0  0  0  0  0  0
  186.6050  178.2400  144.3230 C   0  0  2  0  0  3  0  0  0  0  0  0
  184.0150  179.3500  145.8030 O   0  0  0  0  0  0  0  0  0  0  0  0
  192.6330  174.5110  145.3920 C   0  0  1  0  0  0  0  0  0  0  0  0
  188.1550  176.3040  143.8110 C   0  0  0  0  0  0  0  0  0  0  0  0
  186.2110  178.9130  146.6850 C   0  0  0  0  0  2  0  0  0  0  0  0
  188.3760  176.0590  145.2930 C   0  0  2  0  0  3  0  0  0  0  0  0
  187.6310  176.6250  141.0990 C   0  0  0  0  0  3  0  0  0  0  0  0
  191.3770  174.9300  147.5130 C   0  0  0  0  0  2  0  0  0  0  0  0
  186.9960  177.3960  142.0190 N   0  0  0  0  0  0  0  0  0  0  0  0
  189.9400  175.2270  147.0790 C   0  0  0  0  0  2  0  0  0  0  0  0
  191.4690  173.6530  144.7870 C   0  0  1  0  0  3  0  0  0  0  0  0
  188.5630  175.6720  141.5070 C   0  0  0  0  0  3  0  0  0  0  0  0
  189.8250  174.5760  143.3180 N   0  0  0  0  0  0  0  0  0  0  0  0
  193.5780  174.9660  144.4540 O   0  0  0  0  0  0  0  0  0  0  0  0
  194.0400  174.0160  145.3940 C   0  0  2  0  0  3  0  0  0  0  0  0
  195.9800  171.4040  143.8260 C   0  0  0  0  0  2  0  0  0  0  0  0
  194.5660  171.6130  145.7630 C   0  0  0  0  0  2  0  0  0  0  0  0
  194.2660  172.6690  144.7220 C   0  0  2  0  0  3  0  0  0  0  0  0
  195.6360  170.7470  145.1460 C   0  0  0  0  0  2  0  0  0  0  0  0
  195.4120  172.7420  143.8300 N   0  0  0  0  0  2  0  0  0  0  0  0
  1 27  1  0  0  0  0
  1 18  1  0  0  0  0
  2 27  1  0  0  0  0
  2 14  1  0  0  0  0
  3 19  1  6  0  0  0
  4 18  2  0  0  0  0
  4 15  1  0  0  0  0
  5  6  1  0  0  0  0
  5 11  1  1  0  0  0
  5 19  1  0  0  0  0
  6  7  1  0  0  0  0
  7  3  1  0  0  0  0
  8 16  1  0  0  0  0
  9 27  1  6  0  0  0
  9 25  1  0  0  0  0
  9 13  1  0  0  0  0
 10 22  1  0  0  0  0
 12  8  1  0  0  0  0
 13 24  1  1  0  0  0
 15 12  1  6  0  0  0
 15  5  1  0  0  0  0
 16  3  1  0  0  0  0
 17 29  1  0  0  0  0
 17 10  1  1  0  0  0
 18 20  1  0  0  0  0
 20 13  1  0  0  0  0
 20 11  1  1  0  0  0
 21 26  1  0  0  0  0
 21 23  2  0  0  0  0
 23  4  1  0  0  0  0
 24 22  1  0  0  0  0
 25 14  1  6  0  0  0
 25 17  1  0  0  0  0
 26  1  2  0  0  0  0
 28 17  1  0  0  0  0
 29 28  1  6  0  0  0
 30 34  1  0  0  0  0
 30 33  1  0  0  0  0
 32 29  1  0  0  0  0
 32 31  1  1  0  0  0
 33 31  1  0  0  0  0
 34 32  1  0  0  0  0
M  END
>  <MODEL>
2

>  <REMARK>
 VINA RESULT:      -9.8      1.577      1.650
  Name = 
  1 active torsions:
  status: ('A' for Active; 'I' for Inactive)
    1  A    between atoms: C_29  and  C_32
                            x       y       z     vdW  Elec       q    Type
                         _______ _______ _______ _____ _____    ______ ____

>  <TORSDO>
F 1

$$$$
=
 OpenBabel11112417503D

 34 42  0  0  1  0  0  0  0  0999 V2000
  189.6100  175.0970  144.8690 C   0  0  0  0  0  0  0  0  0  0  0  0
  191.3520  173.6080  143.7710 C   0  0  0  0  0  2  0  0  0  0  0  0
  184.5320  179.1850  144.6300 C   0  0  2  0  0  3  0  0  0  0  0  0
  187.6830  176.2050  145.8460 C   0  0  0  0  0  0  0  0  0  0  0  0
  186.0300  177.4270  144.3220 C   0  0  1  0  0  0  0  0  0  0  0  0
  186.7810  178.6190  144.1560 O   0  0  0  0  0  0  0  0  0  0  0  0
  185.8640  179.6880  144.1060 C   0  0  0  0  0  2  0  0  0  0  0  0
  185.5660  179.0410  146.7450 C   0  0  0  0  0  2  0  0  0  0  0  0
  189.9220  174.9550  142.3570 C   0  0  2  0  0  3  0  0  0  0  0  0
  188.2670  173.1310  140.3330 C   0  0  0  0  0  2  0  0  0  0  0  0
  186.4270  176.4180  143.2470 C   0  0  0  0  0  2  0  0  0  0  0  0
  185.7860  177.5440  146.9500 C   0  0  0  0  0  2  0  0  0  0  0  0
  188.3970  175.1350  142.2550 C   0  0  1  0  0  3  0  0  0  0  0  0
  191.7190  173.3200  142.3280 C   0  0  0  0  0  2  0  0  0  0  0  0
  186.3020  176.7950  145.7030 C   0  0  2  0  0  3  0  0  0  0  0  0
  184.3650  179.2970  146.0420 O   0  0  0  0  0  0  0  0  0  0  0  0
  189.6870  172.8210  140.7920 C   0  0  1  0  0  0  0  0  0  0  0  0
  188.3990  175.7890  144.7030 C   0  0  0  0  0  0  0  0  0  0  0  0
  184.5580  177.7510  144.2080 C   0  0  0  0  0  2  0  0  0  0  0  0
  187.9380  176.1600  143.3040 C   0  0  2  0  0  3  0  0  0  0  0  0
  189.3420  175.2520  147.2630 C   0  0  0  0  0  3  0  0  0  0  0  0
  188.1910  174.5410  139.7650 C   0  0  0  0  0  2  0  0  0  0  0  0
  188.1680  175.9110  147.0850 N   0  0  0  0  0  0  0  0  0  0  0  0
  187.9870  175.5980  140.8520 C   0  0  0  0  0  2  0  0  0  0  0  0
  190.6040  173.9070  141.4520 C   0  0  1  0  0  3  0  0  0  0  0  0
  190.0810  174.8280  146.1590 C   0  0  0  0  0  3  0  0  0  0  0  0
  190.3180  174.6210  143.7150 N   0  0  0  0  0  0  0  0  0  0  0  0
  189.8290  171.5270  141.3260 O   0  0  0  0  0  0  0  0  0  0  0  0
  190.2650  171.7020  139.9920 C   0  0  2  0  0  3  0  0  0  0  0  0
  193.4990  170.1510  139.5560 C   0  0  0  0  0  2  0  0  0  0  0  0
  192.2450  171.9160  138.5020 C   0  0  0  0  0  2  0  0  0  0  0  0
  191.7850  171.6590  139.9200 C   0  0  2  0  0  3  0  0  0  0  0  0
  193.4100  170.9790  138.2910 C   0  0  0  0  0  2  0  0  0  0  0  0
  192.2670  170.3430  140.3050 N   0  0  0  0  0  2  0  0  0  0  0  0
  1 26  1  0  0  0  0
  3  7  1  1  0  0  0
  3 16  1  0  0  0  0
  4 23  2  0  0  0  0
  5 11  1  6  0  0  0
  5 15  1  0  0  0  0
  6  5  1  0  0  0  0
  7  6  1  0  0  0  0
  8 12  1  0  0  0  0
  9 27  1  1  0  0  0
 13 24  1  6  0  0  0
 13  9  1  0  0  0  0
 13 20  1  0  0  0  0
 14  2  1  0  0  0  0
 15  4  1  0  0  0  0
 15 12  1  1  0  0  0
 16  8  1  0  0  0  0
 17 10  1  6  0  0  0
 17 28  1  0  0  0  0
 17 25  1  0  0  0  0
 18  1  2  0  0  0  0
 18  4  1  0  0  0  0
 19  5  1  0  0  0  0
 19  3  1  0  0  0  0
 20 11  1  1  0  0  0
 20 18  1  0  0  0  0
 22 10  1  0  0  0  0
 22 24  1  0  0  0  0
 23 21  1  0  0  0  0
 25 14  1  1  0  0  0
 25  9  1  0  0  0  0
 26 21  2  0  0  0  0
 27  2  1  0  0  0  0
 27  1  1  0  0  0  0
 29 17  1  0  0  0  0
 29 28  1  1  0  0  0
 30 34  1  0  0  0  0
 32 31  1  6  0  0  0
 32 29  1  0  0  0  0
 32 34  1  0  0  0  0
 33 31  1  0  0  0  0
 33 30  1  0  0  0  0
M  END
>  <MODEL>
3

>  <REMARK>
 VINA RESULT:      -9.1      3.558      5.306
  Name = 
  1 active torsions:
  status: ('A' for Active; 'I' for Inactive)
    1  A    between atoms: C_29  and  C_32
                            x       y       z     vdW  Elec       q    Type
                         _______ _______ _______ _____ _____    ______ ____

>  <TORSDO>
F 1

$$$$
=
 OpenBabel11112417503D

 34 42  0  0  1  0  0  0  0  0999 V2000
  187.4390  176.0670  141.4450 C   0  0  0  0  0  0  0  0  0  0  0  0
  188.6340  174.5190  139.8210 C   0  0  0  0  0  2  0  0  0  0  0  0
  185.9710  178.0890  147.4710 C   0  0  2  0  0  3  0  0  0  0  0  0
  186.6680  177.7310  143.0350 C   0  0  0  0  0  0  0  0  0  0  0  0
  187.0380  177.3440  145.5380 C   0  0  1  0  0  0  0  0  0  0  0  0
  185.9470  176.4630  145.7510 O   0  0  0  0  0  0  0  0  0  0  0  0
  185.4250  176.7430  147.0290 C   0  0  0  0  0  2  0  0  0  0  0  0
  184.6380  179.0410  145.7730 C   0  0  0  0  0  2  0  0  0  0  0  0
  188.7750  174.0440  142.1900 C   0  0  2  0  0  3  0  0  0  0  0  0
  191.8080  174.0240  143.1740 C   0  0  0  0  0  2  0  0  0  0  0  0
  188.2730  176.5430  145.1320 C   0  0  0  0  0  2  0  0  0  0  0  0
  185.6390  179.4160  144.6820 C   0  0  0  0  0  2  0  0  0  0  0  0
  189.1750  174.8820  143.4180 C   0  0  1  0  0  3  0  0  0  0  0  0
  189.5030  173.2900  139.9980 C   0  0  0  0  0  2  0  0  0  0  0  0
  186.7210  178.3490  144.4110 C   0  0  2  0  0  3  0  0  0  0  0  0
  185.1910  179.2110  147.0650 O   0  0  0  0  0  0  0  0  0  0  0  0
  191.3560  173.5470  141.7980 C   0  0  1  0  0  0  0  0  0  0  0  0
  187.3700  176.5350  142.7670 C   0  0  0  0  0  0  0  0  0  0  0  0
  187.3130  178.1050  146.8150 C   0  0  0  0  0  2  0  0  0  0  0  0
  187.9620  175.7000  143.8880 C   0  0  2  0  0  3  0  0  0  0  0  0
  186.1410  177.9690  140.7260 C   0  0  0  0  0  3  0  0  0  0  0  0
  191.0210  173.3100  144.2640 C   0  0  0  0  0  2  0  0  0  0  0  0
  186.0910  178.4160  142.0080 N   0  0  0  0  0  0  0  0  0  0  0  0
  189.6810  173.9880  144.5560 C   0  0  0  0  0  2  0  0  0  0  0  0
  189.8590  173.1990  141.4880 C   0  0  1  0  0  3  0  0  0  0  0  0
  186.8200  176.7910  140.4210 C   0  0  0  0  0  3  0  0  0  0  0  0
  188.1960  174.8820  141.1540 N   0  0  0  0  0  0  0  0  0  0  0  0
  192.0480  174.1660  140.7410 O   0  0  0  0  0  0  0  0  0  0  0  0
  192.4740  172.8620  141.0860 C   0  0  2  0  0  3  0  0  0  0  0  0
  192.8970  170.8720  138.1000 C   0  0  0  0  0  2  0  0  0  0  0  0
  192.4440  170.4630  140.4290 C   0  0  0  0  0  2  0  0  0  0  0  0
  192.0600  171.8650  140.0130 C   0  0  2  0  0  3  0  0  0  0  0  0
  192.9240  169.7950  139.1640 C   0  0  0  0  0  2  0  0  0  0  0  0
  192.7500  172.1570  138.7670 N   0  0  0  0  0  2  0  0  0  0  0  0
  1 18  1  0  0  0  0
  2 14  1  0  0  0  0
  2 27  1  0  0  0  0
  3 19  1  6  0  0  0
  4 15  1  0  0  0  0
  5 11  1  6  0  0  0
  5  6  1  0  0  0  0
  5 19  1  0  0  0  0
  6  7  1  0  0  0  0
  7  3  1  0  0  0  0
  8 16  1  0  0  0  0
  9 27  1  6  0  0  0
  9 13  1  0  0  0  0
 10 22  1  0  0  0  0
 12  8  1  0  0  0  0
 13 20  1  0  0  0  0
 13 24  1  1  0  0  0
 15 12  1  1  0  0  0
 15  5  1  0  0  0  0
 16  3  1  0  0  0  0
 17 10  1  1  0  0  0
 18  4  2  0  0  0  0
 18 20  1  0  0  0  0
 20 11  1  1  0  0  0
 21 23  2  0  0  0  0
 22 24  1  0  0  0  0
 23  4  1  0  0  0  0
 25 14  1  6  0  0  0
 25 17  1  0  0  0  0
 25  9  1  0  0  0  0
 26 21  1  0  0  0  0
 26  1  2  0  0  0  0
 27  1  1  0  0  0  0
 28 17  1  0  0  0  0
 29 28  1  6  0  0  0
 29 17  1  0  0  0  0
 30 34  1  0  0  0  0
 30 33  1  0  0  0  0
 32 31  1  1  0  0  0
 32 29  1  0  0  0  0
 33 31  1  0  0  0  0
 34 32  1  0  0  0  0
M  END
>  <MODEL>
4

>  <REMARK>
 VINA RESULT:      -8.7      3.306      4.209
  Name = 
  1 active torsions:
  status: ('A' for Active; 'I' for Inactive)
    1  A    between atoms: C_29  and  C_32
                            x       y       z     vdW  Elec       q    Type
                         _______ _______ _______ _____ _____    ______ ____

>  <TORSDO>
F 1

$$$$
=
 OpenBabel11112417503D

 34 42  0  0  1  0  0  0  0  0999 V2000
  192.0480  175.9500  145.8810 C   0  0  0  0  0  0  0  0  0  0  0  0
  190.0020  177.4490  146.0360 C   0  0  0  0  0  2  0  0  0  0  0  0
  195.1400  170.6000  143.7890 C   0  0  2  0  0  3  0  0  0  0  0  0
  194.0500  174.6800  145.3540 C   0  0  0  0  0  0  0  0  0  0  0  0
  193.8480  172.5290  143.9810 C   0  0  1  0  0  0  0  0  0  0  0  0
  193.4410  171.6750  145.0380 O   0  0  0  0  0  0  0  0  0  0  0  0
  194.0340  170.4170  144.8120 C   0  0  0  0  0  2  0  0  0  0  0  0
  196.3000  171.8060  145.4510 C   0  0  0  0  0  2  0  0  0  0  0  0
  189.7840  175.3010  144.9420 C   0  0  2  0  0  3  0  0  0  0  0  0
  188.8050  175.6450  141.9280 C   0  0  0  0  0  2  0  0  0  0  0  0
  192.6200  173.1710  143.3390 C   0  0  0  0  0  2  0  0  0  0  0  0
  196.1680  173.2630  145.0130 C   0  0  0  0  0  2  0  0  0  0  0  0
  190.5620  174.6020  143.8120 C   0  0  1  0  0  3  0  0  0  0  0  0
  188.5740  177.3190  145.5450 C   0  0  0  0  0  2  0  0  0  0  0  0
  194.7630  173.6550  144.5070 C   0  0  2  0  0  3  0  0  0  0  0  0
  196.4110  170.9380  144.3390 O   0  0  0  0  0  0  0  0  0  0  0  0
  188.3630  176.5480  143.0740 C   0  0  1  0  0  0  0  0  0  0  0  0
  192.6610  174.8840  145.2020 C   0  0  0  0  0  0  0  0  0  0  0  0
  194.6040  171.7180  142.9540 C   0  0  0  0  0  2  0  0  0  0  0  0
  191.8040  173.9180  144.4020 C   0  0  2  0  0  3  0  0  0  0  0  0
  194.1910  176.5600  146.8080 C   0  0  0  0  0  3  0  0  0  0  0  0
  188.5470  174.1870  142.2750 C   0  0  0  0  0  2  0  0  0  0  0  0
  194.7710  175.5310  146.1370 N   0  0  0  0  0  0  0  0  0  0  0  0
  189.6840  173.5710  143.0920 C   0  0  0  0  0  2  0  0  0  0  0  0
  188.5350  176.1300  144.5760 C   0  0  1  0  0  3  0  0  0  0  0  0
  192.8220  176.7910  146.6880 C   0  0  0  0  0  3  0  0  0  0  0  0
  190.6470  176.1980  145.6910 N   0  0  0  0  0  0  0  0  0  0  0  0
  188.5710  177.9160  142.8170 O   0  0  0  0  0  0  0  0  0  0  0  0
  187.2500  177.4410  142.6420 C   0  0  2  0  0  3  0  0  0  0  0  0
  185.0350  179.7910  144.2630 C   0  0  0  0  0  2  0  0  0  0  0  0
  184.9240  177.5020  143.5230 C   0  0  0  0  0  2  0  0  0  0  0  0
  186.3480  177.9570  143.7550 C   0  0  2  0  0  3  0  0  0  0  0  0
  184.0660  178.6770  143.9220 C   0  0  0  0  0  2  0  0  0  0  0  0
  186.3470  179.4110  143.7630 N   0  0  0  0  0  2  0  0  0  0  0  0
  1 26  1  0  0  0  0
  3 19  1  6  0  0  0
  3 16  1  0  0  0  0
  3  7  1  0  0  0  0
  4 23  2  0  0  0  0
  5 19  1  6  0  0  0
  5 15  1  0  0  0  0
  5  6  1  0  0  0  0
  7  6  1  0  0  0  0
  9 27  1  6  0  0  0
 10 22  1  0  0  0  0
 11  5  1  0  0  0  0
 12  8  1  0  0  0  0
 13 24  1  1  0  0  0
 13 20  1  0  0  0  0
 13  9  1  0  0  0  0
 14  2  1  0  0  0  0
 15 12  1  1  0  0  0
 15  4  1  0  0  0  0
 16  8  1  0  0  0  0
 17 10  1  6  0  0  0
 17 25  1  0  0  0  0
 18  4  1  0  0  0  0
 18  1  2  0  0  0  0
 20 11  1  6  0  0  0
 20 18  1  0  0  0  0
 22 24  1  0  0  0  0
 23 21  1  0  0  0  0
 25  9  1  0  0  0  0
 25 14  1  1  0  0  0
 26 21  2  0  0  0  0
 27  1  1  0  0  0  0
 27  2  1  0  0  0  0
 28 17  1  0  0  0  0
 29 28  1  1  0  0  0
 29 17  1  0  0  0  0
 29 32  1  0  0  0  0
 31 33  1  0  0  0  0
 32 31  1  6  0  0  0
 32 34  1  0  0  0  0
 33 30  1  0  0  0  0
 34 30  1  0  0  0  0
M  END
>  <MODEL>
5

>  <REMARK>
 VINA RESULT:      -8.4      2.479      8.893
  Name = 
  1 active torsions:
  status: ('A' for Active; 'I' for Inactive)
    1  A    between atoms: C_29  and  C_32
                            x       y       z     vdW  Elec       q    Type
                         _______ _______ _______ _____ _____    ______ ____

>  <TORSDO>
F 1

$$$$
=
 OpenBabel11112417503D

 34 42  0  0  1  0  0  0  0  0999 V2000
  191.4300  175.0070  142.6380 C   0  0  0  0  0  0  0  0  0  0  0  0
  189.1380  176.0060  143.0930 C   0  0  0  0  0  2  0  0  0  0  0  0
  197.6500  173.8650  144.2390 C   0  0  2  0  0  3  0  0  0  0  0  0
  193.5060  173.7590  142.4760 C   0  0  0  0  0  0  0  0  0  0  0  0
  195.3350  174.1310  144.2280 C   0  0  1  0  0  0  0  0  0  0  0  0
  195.8720  175.3250  143.6810 O   0  0  0  0  0  0  0  0  0  0  0  0
  197.2650  175.2910  143.8880 C   0  0  0  0  0  2  0  0  0  0  0  0
  197.1000  173.3080  142.0140 C   0  0  0  0  0  2  0  0  0  0  0  0
  190.9510  176.5280  144.6090 C   0  0  2  0  0  3  0  0  0  0  0  0
  190.2500  175.6240  147.5850 C   0  0  0  0  0  2  0  0  0  0  0  0
  194.2040  174.4730  145.1940 C   0  0  0  0  0  2  0  0  0  0  0  0
  195.7640  172.5780  142.1330 C   0  0  0  0  0  2  0  0  0  0  0  0
  191.9590  175.6690  145.3930 C   0  0  1  0  0  3  0  0  0  0  0  0
  188.5870  176.8990  144.1870 C   0  0  0  0  0  2  0  0  0  0  0  0
  194.7650  173.2260  143.1150 C   0  0  2  0  0  3  0  0  0  0  0  0
  197.9410  173.0330  143.1180 O   0  0  0  0  0  0  0  0  0  0  0  0
  189.2210  176.1510  146.5910 C   0  0  1  0  0  0  0  0  0  0  0  0
  192.6730  174.6520  143.1860 C   0  0  0  0  0  0  0  0  0  0  0  0
  196.4300  173.3870  144.9570 C   0  0  0  0  0  2  0  0  0  0  0  0
  193.1360  175.3080  144.4750 C   0  0  2  0  0  3  0  0  0  0  0  0
  191.8860  173.5880  140.7400 C   0  0  0  0  0  3  0  0  0  0  0  0
  191.4050  176.6050  147.7190 C   0  0  0  0  0  2  0  0  0  0  0  0
  193.0810  173.2450  141.2880 N   0  0  0  0  0  0  0  0  0  0  0  0
  192.4670  176.4080  146.6360 C   0  0  0  0  0  2  0  0  0  0  0  0
  189.6370  176.9450  145.3050 C   0  0  1  0  0  3  0  0  0  0  0  0
  191.0370  174.4690  141.4080 C   0  0  0  0  0  3  0  0  0  0  0  0
  190.5520  175.8700  143.3770 N   0  0  0  0  0  0  0  0  0  0  0  0
  188.1200  175.2910  146.4220 O   0  0  0  0  0  0  0  0  0  0  0  0
  187.9160  176.4050  147.2690 C   0  0  2  0  0  3  0  0  0  0  0  0
  184.7650  177.8310  146.2260 C   0  0  0  0  0  2  0  0  0  0  0  0
  186.6370  178.5150  147.5770 C   0  0  0  0  0  2  0  0  0  0  0  0
  187.0110  177.4270  146.5960 C   0  0  2  0  0  3  0  0  0  0  0  0
  185.1890  178.8260  147.2860 C   0  0  0  0  0  2  0  0  0  0  0  0
  185.7800  176.7910  146.1570 N   0  0  0  0  0  2  0  0  0  0  0  0
  1 18  1  0  0  0  0
  1 27  1  0  0  0  0
  2 27  1  0  0  0  0
  2 14  1  0  0  0  0
  3  7  1  6  0  0  0
  3 19  1  0  0  0  0
  4 15  1  0  0  0  0
  4 18  2  0  0  0  0
  5 19  1  1  0  0  0
  5 11  1  0  0  0  0
  6  7  1  0  0  0  0
  6  5  1  0  0  0  0
  8 12  1  0  0  0  0
  8 16  1  0  0  0  0
  9 27  1  6  0  0  0
  9 25  1  0  0  0  0
  9 13  1  0  0  0  0
 10 22  1  0  0  0  0
 13 24  1  1  0  0  0
 15 12  1  6  0  0  0
 15  5  1  0  0  0  0
 16  3  1  0  0  0  0
 17 29  1  0  0  0  0
 17 10  1  1  0  0  0
 18 20  1  0  0  0  0
 20 11  1  1  0  0  0
 20 13  1  0  0  0  0
 21 23  2  0  0  0  0
 21 26  1  0  0  0  0
 23  4  1  0  0  0  0
 24 22  1  0  0  0  0
 25 14  1  6  0  0  0
 25 17  1  0  0  0  0
 26  1  2  0  0  0  0
 28 17  1  0  0  0  0
 29 28  1  6  0  0  0
 30 33  1  0  0  0  0
 32 29  1  0  0  0  0
 32 31  1  1  0  0  0
 33 31  1  0  0  0  0
 34 30  1  0  0  0  0
 34 32  1  0  0  0  0
M  END
>  <MODEL>
6

>  <REMARK>
 VINA RESULT:      -8.4      2.080      8.591
  Name = 
  1 active torsions:
  status: ('A' for Active; 'I' for Inactive)
    1  A    between atoms: C_29  and  C_32
                            x       y       z     vdW  Elec       q    Type
                         _______ _______ _______ _____ _____    ______ ____

>  <TORSDO>
F 1

$$$$
=
 OpenBabel11112417503D

 34 42  0  0  1  0  0  0  0  0999 V2000
  190.8390  176.4250  145.8770 C   0  0  0  0  0  0  0  0  0  0  0  0
  193.1300  175.3610  146.1470 C   0  0  0  0  0  2  0  0  0  0  0  0
  185.4650  177.7600  142.4280 C   0  0  2  0  0  3  0  0  0  0  0  0
  188.5040  177.0580  145.6780 C   0  0  0  0  0  0  0  0  0  0  0  0
  187.3040  176.7470  143.4390 C   0  0  1  0  0  0  0  0  0  0  0  0
  187.7970  177.9150  142.8030 O   0  0  0  0  0  0  0  0  0  0  0  0
  186.7600  178.4210  141.9940 C   0  0  0  0  0  2  0  0  0  0  0  0
  185.6640  178.9860  144.4340 C   0  0  0  0  0  2  0  0  0  0  0  0
  192.0670  175.2840  143.9750 C   0  0  2  0  0  3  0  0  0  0  0  0
  191.6810  172.2750  142.9950 C   0  0  0  0  0  2  0  0  0  0  0  0
  188.2650  175.5860  143.1970 C   0  0  0  0  0  2  0  0  0  0  0  0
  186.1000  177.9460  145.4630 C   0  0  0  0  0  2  0  0  0  0  0  0
  190.6820  174.8220  143.4870 C   0  0  1  0  0  3  0  0  0  0  0  0
  194.0490  174.6070  145.2060 C   0  0  0  0  0  2  0  0  0  0  0  0
  187.1790  176.9620  144.9620 C   0  0  2  0  0  3  0  0  0  0  0  0
  184.7760  178.4320  143.4800 O   0  0  0  0  0  0  0  0  0  0  0  0
  192.8690  172.7550  143.8220 C   0  0  1  0  0  0  0  0  0  0  0  0
  189.6570  176.4650  145.1200 C   0  0  0  0  0  0  0  0  0  0  0  0
  185.9410  176.4160  142.8740 C   0  0  0  0  0  2  0  0  0  0  0  0
  189.6700  175.9600  143.6880 C   0  0  2  0  0  3  0  0  0  0  0  0
  189.6920  177.5410  147.6840 C   0  0  0  0  0  3  0  0  0  0  0  0
  191.5260  173.1320  141.7470 C   0  0  0  0  0  2  0  0  0  0  0  0
  188.5530  177.5610  146.9430 N   0  0  0  0  0  0  0  0  0  0  0  0
  190.7250  174.4080  142.0120 C   0  0  0  0  0  2  0  0  0  0  0  0
  193.2340  174.2740  143.9490 C   0  0  1  0  0  3  0  0  0  0  0  0
  190.8530  176.9670  147.1670 C   0  0  0  0  0  3  0  0  0  0  0  0
  192.0010  175.7760  145.3400 N   0  0  0  0  0  0  0  0  0  0  0  0
  193.0720  172.0000  144.9920 O   0  0  0  0  0  0  0  0  0  0  0  0
  193.9180  171.6970  143.9000 C   0  0  2  0  0  3  0  0  0  0  0  0
  197.3360  171.4310  145.0380 C   0  0  0  0  0  2  0  0  0  0  0  0
  196.2120  171.9270  142.9670 C   0  0  0  0  0  2  0  0  0  0  0  0
  195.3330  172.1900  144.1690 C   0  0  2  0  0  3  0  0  0  0  0  0
  197.5410  171.5000  143.5390 C   0  0  0  0  0  2  0  0  0  0  0  0
  195.9050  171.4720  145.2960 N   0  0  0  0  0  2  0  0  0  0  0  0
  1 26  1  0  0  0  0
  3  7  1  1  0  0  0
  3 19  1  0  0  0  0
  3 16  1  0  0  0  0
  4 23  2  0  0  0  0
  5 19  1  6  0  0  0
  5 15  1  0  0  0  0
  6  5  1  0  0  0  0
  7  6  1  0  0  0  0
  8 12  1  0  0  0  0
  9 27  1  1  0  0  0
 11  5  1  0  0  0  0
 13 24  1  6  0  0  0
 13 20  1  0  0  0  0
 13  9  1  0  0  0  0
 14  2  1  0  0  0  0
 15 12  1  6  0  0  0
 15  4  1  0  0  0  0
 16  8  1  0  0  0  0
 17 10  1  6  0  0  0
 17 29  1  0  0  0  0
 17 25  1  0  0  0  0
 17 28  1  0  0  0  0
 18  4  1  0  0  0  0
 18  1  2  0  0  0  0
 20 11  1  1  0  0  0
 20 18  1  0  0  0  0
 22 24  1  0  0  0  0
 22 10  1  0  0  0  0
 23 21  1  0  0  0  0
 25  9  1  0  0  0  0
 25 14  1  1  0  0  0
 26 21  2  0  0  0  0
 27  1  1  0  0  0  0
 27  2  1  0  0  0  0
 29 32  1  0  0  0  0
 29 28  1  1  0  0  0
 30 34  1  0  0  0  0
 31 33  1  0  0  0  0
 32 31  1  6  0  0  0
 32 34  1  0  0  0  0
 33 30  1  0  0  0  0
M  END
>  <MODEL>
7

>  <REMARK>
 VINA RESULT:      -8.3      2.384      3.900
  Name = 
  1 active torsions:
  status: ('A' for Active; 'I' for Inactive)
    1  A    between atoms: C_29  and  C_32
                            x       y       z     vdW  Elec       q    Type
                         _______ _______ _______ _____ _____    ______ ____

>  <TORSDO>
F 1

$$$$
=
 OpenBabel11112417503D

 34 42  0  0  1  0  0  0  0  0999 V2000
  190.2590  176.1340  145.4500 C   0  0  0  0  0  0  0  0  0  0  0  0
  192.2860  174.6070  145.3320 C   0  0  0  0  0  2  0  0  0  0  0  0
  184.7660  178.6370  142.9760 C   0  0  2  0  0  3  0  0  0  0  0  0
  188.1110  177.2470  145.6540 C   0  0  0  0  0  0  0  0  0  0  0  0
  186.4990  177.2400  143.6650 C   0  0  1  0  0  0  0  0  0  0  0  0
  187.1070  178.2910  142.9330 O   0  0  0  0  0  0  0  0  0  0  0  0
  186.0750  179.0200  142.3100 C   0  0  0  0  0  2  0  0  0  0  0  0
  185.5660  179.7530  144.8940 C   0  0  0  0  0  2  0  0  0  0  0  0
  190.8660  174.7990  143.3810 C   0  0  2  0  0  3  0  0  0  0  0  0
  189.6910  171.9580  142.5370 C   0  0  0  0  0  2  0  0  0  0  0  0
  187.1370  175.9080  143.2780 C   0  0  0  0  0  2  0  0  0  0  0  0
  185.9480  178.6240  145.8480 C   0  0  0  0  0  2  0  0  0  0  0  0
  189.3510  174.6480  143.1530 C   0  0  1  0  0  3  0  0  0  0  0  0
  192.8470  173.6970  144.2570 C   0  0  0  0  0  2  0  0  0  0  0  0
  186.6910  177.4460  145.1830 C   0  0  2  0  0  3  0  0  0  0  0  0
  184.4290  179.4160  144.1210 O   0  0  0  0  0  0  0  0  0  0  0  0
  191.0790  172.1610  143.1340 C   0  0  1  0  0  0  0  0  0  0  0  0
  188.9970  176.4360  144.9120 C   0  0  0  0  0  0  0  0  0  0  0  0
  185.0200  177.2130  143.3550 C   0  0  0  0  0  2  0  0  0  0  0  0
  188.6530  175.9690  143.5080 C   0  0  2  0  0  3  0  0  0  0  0  0
  189.7070  177.4280  147.4100 C   0  0  0  0  0  3  0  0  0  0  0  0
  189.5040  172.8540  141.3210 C   0  0  0  0  0  2  0  0  0  0  0  0
  188.4860  177.7020  146.8820 N   0  0  0  0  0  0  0  0  0  0  0  0
  189.0470  174.2640  141.7000 C   0  0  0  0  0  2  0  0  0  0  0  0
  191.7720  173.5670  143.1690 C   0  0  1  0  0  3  0  0  0  0  0  0
  190.6120  176.6340  146.7080 C   0  0  0  0  0  3  0  0  0  0  0  0
  191.1460  175.2660  144.7290 N   0  0  0  0  0  0  0  0  0  0  0  0
  191.3210  171.3570  144.2630 O   0  0  0  0  0  0  0  0  0  0  0  0
  191.8800  170.9060  143.0450 C   0  0  2  0  0  3  0  0  0  0  0  0
  195.3100  169.9110  143.5850 C   0  0  0  0  0  2  0  0  0  0  0  0
  193.9730  170.6530  141.7250 C   0  0  0  0  0  2  0  0  0  0  0  0
  193.3910  171.0850  143.0530 C   0  0  2  0  0  3  0  0  0  0  0  0
  195.2610  169.9490  142.0710 C   0  0  0  0  0  2  0  0  0  0  0  0
  193.9870  170.2510  144.0840 N   0  0  0  0  0  2  0  0  0  0  0  0
  1 26  1  0  0  0  0
  3  7  1  1  0  0  0
  3 19  1  0  0  0  0
  3 16  1  0  0  0  0
  4 23  2  0  0  0  0
  5 11  1  6  0  0  0
  5 15  1  0  0  0  0
  6  5  1  0  0  0  0
  7  6  1  0  0  0  0
  8 12  1  0  0  0  0
  9 27  1  1  0  0  0
 13 24  1  6  0  0  0
 13  9  1  0  0  0  0
 13 20  1  0  0  0  0
 14  2  1  0  0  0  0
 15  4  1  0  0  0  0
 15 12  1  6  0  0  0
 16  8  1  0  0  0  0
 17 10  1  6  0  0  0
 17 25  1  0  0  0  0
 17 28  1  0  0  0  0
 18  1  2  0  0  0  0
 18  4  1  0  0  0  0
 19  5  1  0  0  0  0
 20 11  1  1  0  0  0
 20 18  1  0  0  0  0
 22 24  1  0  0  0  0
 22 10  1  0  0  0  0
 23 21  1  0  0  0  0
 25  9  1  0  0  0  0
 25 14  1  1  0  0  0
 26 21  2  0  0  0  0
 27  2  1  0  0  0  0
 27  1  1  0  0  0  0
 29 32  1  0  0  0  0
 29 17  1  0  0  0  0
 29 28  1  1  0  0  0
 30 34  1  0  0  0  0
 31 33  1  0  0  0  0
 32 31  1  6  0  0  0
 32 34  1  0  0  0  0
 33 30  1  0  0  0  0
M  END
>  <MODEL>
8

>  <REMARK>
 VINA RESULT:      -8.2      3.055      4.312
  Name = 
  1 active torsions:
  status: ('A' for Active; 'I' for Inactive)
    1  A    between atoms: C_29  and  C_32
                            x       y       z     vdW  Elec       q    Type
                         _______ _______ _______ _____ _____    ______ ____

>  <TORSDO>
F 1

$$$$
=
 OpenBabel11112417503D

 34 42  0  0  1  0  0  0  0  0999 V2000
  191.1720  173.0580  143.3170 C   0  0  0  0  0  0  0  0  0  0  0  0
  188.7850  173.7120  142.7410 C   0  0  0  0  0  2  0  0  0  0  0  0
  197.4080  174.5000  144.5770 C   0  0  2  0  0  3  0  0  0  0  0  0
  193.3560  172.5590  144.2520 C   0  0  0  0  0  0  0  0  0  0  0  0
  195.0800  174.4360  144.4870 C   0  0  1  0  0  0  0  0  0  0  0  0
  195.5270  174.4440  143.1410 O   0  0  0  0  0  0  0  0  0  0  0  0
  196.9100  174.7160  143.1600 C   0  0  0  0  0  2  0  0  0  0  0  0
  196.9900  172.2040  144.2360 C   0  0  0  0  0  2  0  0  0  0  0  0
  190.4880  175.4320  142.7460 C   0  0  2  0  0  3  0  0  0  0  0  0
  189.7640  177.7520  144.8090 C   0  0  0  0  0  2  0  0  0  0  0  0
  193.8890  175.3790  144.6380 C   0  0  0  0  0  2  0  0  0  0  0  0
  195.7220  171.9330  145.0420 C   0  0  0  0  0  2  0  0  0  0  0  0
  191.5400  175.8790  143.7760 C   0  0  1  0  0  3  0  0  0  0  0  0
  188.1170  175.0290  142.3990 C   0  0  0  0  0  2  0  0  0  0  0  0
  194.6340  173.0200  144.9090 C   0  0  2  0  0  3  0  0  0  0  0  0
  197.8130  173.1650  144.8710 O   0  0  0  0  0  0  0  0  0  0  0  0
  188.7280  176.9790  144.0000 C   0  0  1  0  0  0  0  0  0  0  0  0
  192.4220  173.5050  143.7760 C   0  0  0  0  0  0  0  0  0  0  0  0
  196.2110  174.8850  145.3850 C   0  0  0  0  0  2  0  0  0  0  0  0
  192.7770  174.9770  143.6590 C   0  0  2  0  0  3  0  0  0  0  0  0
  191.8220  170.7900  143.8260 C   0  0  0  0  0  3  0  0  0  0  0  0
  190.8210  178.3420  143.8870 C   0  0  0  0  0  2  0  0  0  0  0  0
  193.0220  171.2390  144.2760 N   0  0  0  0  0  0  0  0  0  0  0  0
  191.9350  177.3450  143.5620 C   0  0  0  0  0  2  0  0  0  0  0  0
  189.1180  176.1430  142.7320 C   0  0  1  0  0  3  0  0  0  0  0  0
  190.8730  171.6910  143.3440 C   0  0  0  0  0  3  0  0  0  0  0  0
  190.1940  174.0150  142.8830 N   0  0  0  0  0  0  0  0  0  0  0  0
  187.7160  176.4090  144.7930 O   0  0  0  0  0  0  0  0  0  0  0  0
  187.3830  177.6110  144.1270 C   0  0  2  0  0  3  0  0  0  0  0  0
  184.2870  177.9150  142.2900 C   0  0  0  0  0  2  0  0  0  0  0  0
  186.6200  178.3430  141.8750 C   0  0  0  0  0  2  0  0  0  0  0  0
  186.4150  177.3360  142.9850 C   0  0  2  0  0  3  0  0  0  0  0  0
  185.2330  178.6660  141.3760 C   0  0  0  0  0  2  0  0  0  0  0  0
  185.0440  177.4710  143.4500 N   0  0  0  0  0  2  0  0  0  0  0  0
  1 26  2  0  0  0  0
  1 18  1  0  0  0  0
  2 27  1  0  0  0  0
  3  7  1  6  0  0  0
  3 16  1  0  0  0  0
  3 19  1  0  0  0  0
  4 23  1  0  0  0  0
  4 15  1  0  0  0  0
  5 11  1  1  0  0  0
  5 15  1  0  0  0  0
  5 19  1  0  0  0  0
  6  7  1  0  0  0  0
  6  5  1  0  0  0  0
  8 16  1  0  0  0  0
  8 12  1  0  0  0  0
  9 27  1  1  0  0  0
  9 13  1  0  0  0  0
 13 24  1  6  0  0  0
 14  2  1  0  0  0  0
 15 12  1  6  0  0  0
 17 29  1  0  0  0  0
 17 28  1  0  0  0  0
 17 10  1  1  0  0  0
 18  4  2  0  0  0  0
 20 18  1  0  0  0  0
 20 13  1  0  0  0  0
 20 11  1  1  0  0  0
 21 23  2  0  0  0  0
 22 10  1  0  0  0  0
 24 22  1  0  0  0  0
 25 14  1  1  0  0  0
 25  9  1  0  0  0  0
 25 17  1  0  0  0  0
 26 21  1  0  0  0  0
 27  1  1  0  0  0  0
 29 28  1  1  0  0  0
 30 34  1  0  0  0  0
 32 31  1  6  0  0  0
 32 34  1  0  0  0  0
 32 29  1  0  0  0  0
 33 31  1  0  0  0  0
 33 30  1  0  0  0  0
M  END
>  <MODEL>
9

>  <REMARK>
 VINA RESULT:      -8.1      2.549      8.946
  Name = 
  1 active torsions:
  status: ('A' for Active; 'I' for Inactive)
    1  A    between atoms: C_29  and  C_32
                            x       y       z     vdW  Elec       q    Type
                         _______ _______ _______ _____ _____    ______ ____

>  <TORSDO>
F 1

$$$$
