=
 OpenBabel11112416573D

 31 35  0  0  1  0  0  0  0  0999 V2000
  184.9500  178.0550  146.8410 C   0  0  0  0  0  0  0  0  0  0  0  0
  186.8910  177.6240  143.6440 C   0  0  0  0  0  0  0  0  0  0  0  0
  185.9740  177.7910  142.5650 C   0  0  0  0  0  0  0  0  0  0  0  0
  191.4720  176.7600  146.1130 O   0  0  0  0  0  0  0  0  0  0  0  0
  191.6510  176.6960  144.8680 C   0  0  0  0  0  0  0  0  0  0  0  0
  183.7430  178.2210  141.6670 C   0  0  0  0  0  0  0  0  0  0  0  0
  186.5480  177.7120  145.0270 C   0  0  0  0  0  0  0  0  0  0  0  0
  185.9600  177.8690  147.7840 C   0  0  0  0  0  3  0  0  0  0  0  0
  184.6070  178.0650  142.7520 C   0  0  0  0  0  3  0  0  0  0  0  0
  189.2020  177.1760  144.3160 C   0  0  0  0  0  0  0  0  0  0  0  0
  183.6840  178.3120  147.2470 F   0  0  0  0  0  0  0  0  0  0  0  0
  187.7580  177.4150  141.0080 N   0  0  0  0  0  0  0  0  0  0  0  0
  182.3040  178.5100  141.8970 C   0  0  0  0  0  1  0  0  0  0  0  0
  188.8380  177.2660  145.6200 N   0  0  0  0  0  0  0  0  0  0  0  0
  188.2430  177.3520  143.3100 C   0  0  0  0  0  0  0  0  0  0  0  0
  190.5620  176.9000  143.9570 N   0  0  0  0  0  2  0  0  0  0  0  0
  185.2430  177.9770  145.4780 C   0  0  0  0  0  3  0  0  0  0  0  0
  184.2320  178.1060  140.3650 C   0  0  0  0  0  3  0  0  0  0  0  0
  187.5630  177.5250  145.9990 C   0  0  0  0  0  0  0  0  0  0  0  0
  187.2640  177.6030  147.3630 C   0  0  0  0  0  3  0  0  0  0  0  0
  188.6210  177.2580  142.0070 N   0  0  0  0  0  0  0  0  0  0  0  0
  186.4500  177.6770  141.2370 C   0  0  0  0  0  0  0  0  0  0  0  0
  185.5840  177.8340  140.1520 C   0  0  0  0  0  3  0  0  0  0  0  0
  193.6580  173.5730  144.6070 C   0  0  1  0  0  3  0  0  0  0  0  0
  193.0080  175.4870  143.1150 C   0  0  0  0  0  2  0  0  0  0  0  0
  194.0110  176.7460  146.5270 C   0  0  0  0  0  1  0  0  0  0  0  0
  193.2910  172.2950  145.0250 O   0  0  0  0  0  1  0  0  0  0  0  0
  192.7050  174.0420  143.5120 C   0  0  0  0  0  2  0  0  0  0  0  0
  193.9810  175.8780  145.3580 N   0  0  0  0  0  0  0  0  0  0  0  0
  193.0390  176.4020  144.3460 C   0  0  2  0  0  3  0  0  0  0  0  0
  193.5980  174.5340  145.7900 C   0  0  0  0  0  2  0  0  0  0  0  0
  1 11  1  0  0  0  0
  1  8  1  0  0  0  0
  2  7  1  0  0  0  0
  3  9  1  0  0  0  0
  3  2  2  0  0  0  0
  5  4  2  0  0  0  0
  6 13  1  0  0  0  0
  6  9  2  0  0  0  0
  7 17  1  0  0  0  0
  7 19  2  0  0  0  0
 10 14  2  0  0  0  0
 12 22  2  0  0  0  0
 12 21  1  0  0  0  0
 14 19  1  0  0  0  0
 15  2  1  0  0  0  0
 15 10  1  0  0  0  0
 16 10  1  0  0  0  0
 16  5  1  0  0  0  0
 17  1  2  0  0  0  0
 18  6  1  0  0  0  0
 19 20  1  0  0  0  0
 20  8  2  0  0  0  0
 21 15  2  0  0  0  0
 22  3  1  0  0  0  0
 23 18  2  0  0  0  0
 23 22  1  0  0  0  0
 24 27  1  1  0  0  0
 24 31  1  0  0  0  0
 25 28  1  0  0  0  0
 25 30  1  0  0  0  0
 28 24  1  0  0  0  0
 29 31  1  0  0  0  0
 29 26  1  0  0  0  0
 30  5  1  1  0  0  0
 30 29  1  0  0  0  0
M  END
>  <MODEL>
1

>  <REMARK>
 VINA RESULT:      -9.9      0.000      0.000
  Name = 
  1 active torsions:
  status: ('A' for Active; 'I' for Inactive)
    1  A    between atoms: C_5  and  C_30
                            x       y       z     vdW  Elec       q    Type
                         _______ _______ _______ _____ _____    ______ ____

>  <TORSDO>
F 1

$$$$
=
 OpenBabel11112416573D

 31 35  0  0  1  0  0  0  0  0999 V2000
  184.5470  178.4650  146.1530 C   0  0  0  0  0  0  0  0  0  0  0  0
  187.0860  177.1310  143.7120 C   0  0  0  0  0  0  0  0  0  0  0  0
  186.5490  177.3080  142.4030 C   0  0  0  0  0  0  0  0  0  0  0  0
  190.5140  175.7450  147.4750 O   0  0  0  0  0  0  0  0  0  0  0  0
  190.9890  175.4450  146.3470 C   0  0  0  0  0  0  0  0  0  0  0  0
  184.8030  178.0410  140.8600 C   0  0  0  0  0  0  0  0  0  0  0  0
  186.4280  177.5100  144.9210 C   0  0  0  0  0  0  0  0  0  0  0  0
  185.2010  178.2280  147.3610 C   0  0  0  0  0  3  0  0  0  0  0  0
  185.2910  177.8860  142.1590 C   0  0  0  0  0  3  0  0  0  0  0  0
  188.9610  176.3270  145.0650 C   0  0  0  0  0  0  0  0  0  0  0  0
  183.3220  179.0410  146.1470 F   0  0  0  0  0  0  0  0  0  0  0  0
  188.5280  176.3240  141.4750 N   0  0  0  0  0  0  0  0  0  0  0  0
  183.4700  178.6550  140.6340 C   0  0  0  0  0  1  0  0  0  0  0  0
  188.3040  176.7000  146.1930 N   0  0  0  0  0  0  0  0  0  0  0  0
  188.3690  176.5340  143.8130 C   0  0  0  0  0  0  0  0  0  0  0  0
  190.2570  175.7210  145.1450 N   0  0  0  0  0  2  0  0  0  0  0  0
  185.1560  178.1090  144.9470 C   0  0  0  0  0  3  0  0  0  0  0  0
  185.5700  177.6180  139.7730 C   0  0  0  0  0  3  0  0  0  0  0  0
  187.0780  177.2760  146.1590 C   0  0  0  0  0  0  0  0  0  0  0  0
  186.4630  177.6330  147.3640 C   0  0  0  0  0  3  0  0  0  0  0  0
  189.0370  176.1540  142.6910 N   0  0  0  0  0  0  0  0  0  0  0  0
  187.3110  176.8850  141.2880 C   0  0  0  0  0  0  0  0  0  0  0  0
  186.8220  177.0410  139.9880 C   0  0  0  0  0  3  0  0  0  0  0  0
  193.8260  175.7130  143.9550 C   0  0  1  0  0  3  0  0  0  0  0  0
  193.4850  175.8060  146.4420 C   0  0  0  0  0  2  0  0  0  0  0  0
  191.4920  172.9800  144.9350 C   0  0  0  0  0  1  0  0  0  0  0  0
  193.8850  176.4840  142.7950 O   0  0  0  0  0  1  0  0  0  0  0  0
  193.6720  176.6270  145.1660 C   0  0  0  0  0  2  0  0  0  0  0  0
  192.5710  173.9460  145.0880 N   0  0  0  0  0  0  0  0  0  0  0  0
  192.3480  174.7890  146.2820 C   0  0  2  0  0  3  0  0  0  0  0  0
  192.6390  174.7580  143.8740 C   0  0  0  0  0  2  0  0  0  0  0  0
  1  8  1  0  0  0  0
  2 15  1  0  0  0  0
  2  7  1  0  0  0  0
  3  2  2  0  0  0  0
  5  4  2  0  0  0  0
  6  9  2  0  0  0  0
  7 17  1  0  0  0  0
  7 19  2  0  0  0  0
  8 20  2  0  0  0  0
  9  3  1  0  0  0  0
 10 16  1  0  0  0  0
 10 14  2  0  0  0  0
 11  1  1  0  0  0  0
 12 21  1  0  0  0  0
 13  6  1  0  0  0  0
 15 10  1  0  0  0  0
 16  5  1  0  0  0  0
 17  1  2  0  0  0  0
 18 23  2  0  0  0  0
 18  6  1  0  0  0  0
 19 14  1  0  0  0  0
 19 20  1  0  0  0  0
 21 15  2  0  0  0  0
 22 12  2  0  0  0  0
 22  3  1  0  0  0  0
 23 22  1  0  0  0  0
 24 27  1  6  0  0  0
 24 28  1  0  0  0  0
 26 29  1  0  0  0  0
 28 25  1  0  0  0  0
 29 30  1  0  0  0  0
 30  5  1  6  0  0  0
 30 25  1  0  0  0  0
 31 24  1  0  0  0  0
 31 29  1  0  0  0  0
M  END
>  <MODEL>
2

>  <REMARK>
 VINA RESULT:      -9.9      1.472      2.010
  Name = 
  1 active torsions:
  status: ('A' for Active; 'I' for Inactive)
    1  A    between atoms: C_5  and  C_30
                            x       y       z     vdW  Elec       q    Type
                         _______ _______ _______ _____ _____    ______ ____

>  <TORSDO>
F 1

$$$$
=
 OpenBabel11112416573D

 31 35  0  0  1  0  0  0  0  0999 V2000
  187.8440  177.1520  141.3950 C   0  0  0  0  0  0  0  0  0  0  0  0
  185.3470  178.2430  143.9930 C   0  0  0  0  0  0  0  0  0  0  0  0
  186.0190  178.2500  145.2510 C   0  0  0  0  0  0  0  0  0  0  0  0
  181.4230  178.8090  140.5130 O   0  0  0  0  0  0  0  0  0  0  0  0
  181.0020  179.0910  141.6650 C   0  0  0  0  0  0  0  0  0  0  0  0
  187.9910  177.9170  146.6530 C   0  0  0  0  0  0  0  0  0  0  0  0
  185.9490  177.8850  142.7490 C   0  0  0  0  0  0  0  0  0  0  0  0
  187.0560  177.1950  140.2450 C   0  0  0  0  0  3  0  0  0  0  0  0
  187.3720  177.8970  145.4020 C   0  0  0  0  0  3  0  0  0  0  0  0
  183.2530  178.6400  142.7880 C   0  0  0  0  0  0  0  0  0  0  0  0
  189.1430  176.7780  141.3120 F   0  0  0  0  0  0  0  0  0  0  0  0
  183.9950  178.9740  146.3120 N   0  0  0  0  0  0  0  0  0  0  0  0
  189.4220  177.5390  146.7810 C   0  0  0  0  0  1  0  0  0  0  0  0
  183.8600  178.2930  141.6250 N   0  0  0  0  0  0  0  0  0  0  0  0
  183.9800  178.6220  143.9860 C   0  0  0  0  0  0  0  0  0  0  0  0
  181.8720  179.0240  142.8030 N   0  0  0  0  0  2  0  0  0  0  0  0
  187.2940  177.4940  142.6320 C   0  0  0  0  0  3  0  0  0  0  0  0
  187.2650  178.2920  147.7850 C   0  0  0  0  0  3  0  0  0  0  0  0
  185.1620  177.9230  141.5700 C   0  0  0  0  0  0  0  0  0  0  0  0
  185.7180  177.5790  140.3330 C   0  0  0  0  0  3  0  0  0  0  0  0
  183.3600  178.9710  145.1450 N   0  0  0  0  0  0  0  0  0  0  0  0
  185.3000  178.6260  146.4100 C   0  0  0  0  0  0  0  0  0  0  0  0
  185.9210  178.6460  147.6610 C   0  0  0  0  0  3  0  0  0  0  0  0
  177.8450  178.0140  140.0170 C   0  0  1  0  0  3  0  0  0  0  0  0
  178.6880  178.3570  142.3580 C   0  0  0  0  0  2  0  0  0  0  0  0
  179.7710  181.2000  140.1280 C   0  0  0  0  0  1  0  0  0  0  0  0
  177.7010  177.0750  138.9970 O   0  0  0  0  0  1  0  0  0  0  0  0
  178.4070  177.3310  141.2590 C   0  0  0  0  0  2  0  0  0  0  0  0
  178.9460  180.1100  140.6290 N   0  0  0  0  0  0  0  0  0  0  0  0
  179.5580  179.5050  141.8310 C   0  0  2  0  0  3  0  0  0  0  0  0
  178.7900  179.1210  139.5620 C   0  0  0  0  0  2  0  0  0  0  0  0
  1 17  1  0  0  0  0
  2  3  1  0  0  0  0
  3  9  2  0  0  0  0
  3 22  1  0  0  0  0
  4  5  2  0  0  0  0
  5 16  1  0  0  0  0
  6 13  1  0  0  0  0
  6 18  2  0  0  0  0
  7  2  1  0  0  0  0
  8 20  1  0  0  0  0
  8  1  2  0  0  0  0
  9  6  1  0  0  0  0
 10 16  1  0  0  0  0
 10 15  1  0  0  0  0
 11  1  1  0  0  0  0
 12 22  1  0  0  0  0
 14 10  2  0  0  0  0
 15  2  2  0  0  0  0
 15 21  1  0  0  0  0
 17  7  2  0  0  0  0
 19 14  1  0  0  0  0
 19  7  1  0  0  0  0
 20 19  2  0  0  0  0
 21 12  2  0  0  0  0
 22 23  2  0  0  0  0
 23 18  1  0  0  0  0
 24 27  1  6  0  0  0
 24 28  1  0  0  0  0
 26 29  1  0  0  0  0
 28 25  1  0  0  0  0
 29 30  1  0  0  0  0
 30  5  1  6  0  0  0
 30 25  1  0  0  0  0
 31 24  1  0  0  0  0
 31 29  1  0  0  0  0
M  END
>  <MODEL>
3

>  <REMARK>
 VINA RESULT:      -9.1      5.202     10.036
  Name = 
  1 active torsions:
  status: ('A' for Active; 'I' for Inactive)
    1  A    between atoms: C_5  and  C_30
                            x       y       z     vdW  Elec       q    Type
                         _______ _______ _______ _____ _____    ______ ____

>  <TORSDO>
F 1

$$$$
=
 OpenBabel11112416573D

 31 35  0  0  1  0  0  0  0  0999 V2000
  185.8610  177.5410  141.0680 C   0  0  0  0  0  0  0  0  0  0  0  0
  187.5930  176.9520  144.3590 C   0  0  0  0  0  0  0  0  0  0  0  0
  186.7240  177.4240  145.3860 C   0  0  0  0  0  0  0  0  0  0  0  0
  191.8700  174.8040  142.1410 O   0  0  0  0  0  0  0  0  0  0  0  0
  192.0170  174.8300  143.3920 C   0  0  0  0  0  0  0  0  0  0  0  0
  184.6440  178.4440  146.1640 C   0  0  0  0  0  0  0  0  0  0  0  0
  187.3020  176.9950  142.9620 C   0  0  0  0  0  0  0  0  0  0  0  0
  186.8130  177.0390  140.1820 C   0  0  0  0  0  3  0  0  0  0  0  0
  185.4640  177.9930  145.1270 C   0  0  0  0  0  3  0  0  0  0  0  0
  189.7420  175.9150  143.8120 C   0  0  0  0  0  0  0  0  0  0  0  0
  184.6990  178.0510  140.5960 F   0  0  0  0  0  0  0  0  0  0  0  0
  188.3420  176.7800  147.0330 N   0  0  0  0  0  0  0  0  0  0  0  0
  183.3190  179.0410  145.8570 C   0  0  0  0  0  1  0  0  0  0  0  0
  189.4310  175.9730  142.4920 N   0  0  0  0  0  0  0  0  0  0  0  0
  188.8350  176.4000  144.7640 C   0  0  0  0  0  0  0  0  0  0  0  0
  190.9920  175.3620  144.2420 N   0  0  0  0  0  2  0  0  0  0  0  0
  186.1060  177.5180  142.4430 C   0  0  0  0  0  3  0  0  0  0  0  0
  185.0700  178.3320  147.4880 C   0  0  0  0  0  3  0  0  0  0  0  0
  188.2600  176.4880  142.0470 C   0  0  0  0  0  0  0  0  0  0  0  0
  188.0100  176.5150  140.6700 C   0  0  0  0  0  3  0  0  0  0  0  0
  189.1590  176.3360  146.0830 N   0  0  0  0  0  0  0  0  0  0  0  0
  187.1380  177.3210  146.7350 C   0  0  0  0  0  0  0  0  0  0  0  0
  186.3160  177.7720  147.7720 C   0  0  0  0  0  3  0  0  0  0  0  0
  194.2540  176.0080  146.1220 C   0  0  1  0  0  3  0  0  0  0  0  0
  193.1190  173.8710  145.4510 C   0  0  0  0  0  2  0  0  0  0  0  0
  194.6410  175.5650  142.4440 C   0  0  0  0  0  1  0  0  0  0  0  0
  194.1160  177.1650  146.8880 O   0  0  0  0  0  1  0  0  0  0  0  0
  193.0580  175.0940  146.3660 C   0  0  0  0  0  2  0  0  0  0  0  0
  194.4720  175.1700  143.8350 N   0  0  0  0  0  0  0  0  0  0  0  0
  193.2960  174.2860  143.9850 C   0  0  2  0  0  3  0  0  0  0  0  0
  194.3280  176.3800  144.6450 C   0  0  0  0  0  2  0  0  0  0  0  0
  1 17  1  0  0  0  0
  2 15  2  0  0  0  0
  2  3  1  0  0  0  0
  3 22  1  0  0  0  0
  4  5  2  0  0  0  0
  5 16  1  0  0  0  0
  6 18  2  0  0  0  0
  7  2  1  0  0  0  0
  8 20  1  0  0  0  0
  8  1  2  0  0  0  0
  9  3  2  0  0  0  0
  9  6  1  0  0  0  0
 10 16  1  0  0  0  0
 10 15  1  0  0  0  0
 11  1  1  0  0  0  0
 13  6  1  0  0  0  0
 14 10  2  0  0  0  0
 15 21  1  0  0  0  0
 17  7  2  0  0  0  0
 18 23  1  0  0  0  0
 19 14  1  0  0  0  0
 19  7  1  0  0  0  0
 20 19  2  0  0  0  0
 21 12  2  0  0  0  0
 22 12  1  0  0  0  0
 22 23  2  0  0  0  0
 24 28  1  0  0  0  0
 24 27  1  1  0  0  0
 25 28  1  0  0  0  0
 26 29  1  0  0  0  0
 29 30  1  0  0  0  0
 29 31  1  0  0  0  0
 30  5  1  1  0  0  0
 30 25  1  0  0  0  0
 31 24  1  0  0  0  0
M  END
>  <MODEL>
4

>  <REMARK>
 VINA RESULT:      -9.1      2.053      4.397
  Name = 
  1 active torsions:
  status: ('A' for Active; 'I' for Inactive)
    1  A    between atoms: C_5  and  C_30
                            x       y       z     vdW  Elec       q    Type
                         _______ _______ _______ _____ _____    ______ ____

>  <TORSDO>
F 1

$$$$
=
 OpenBabel11112416573D

 31 35  0  0  1  0  0  0  0  0999 V2000
  185.4820  177.9140  140.8680 C   0  0  0  0  0  0  0  0  0  0  0  0
  187.4260  176.4670  143.7510 C   0  0  0  0  0  0  0  0  0  0  0  0
  186.7620  176.8610  144.9500 C   0  0  0  0  0  0  0  0  0  0  0  0
  191.0190  174.1660  140.6500 O   0  0  0  0  0  0  0  0  0  0  0  0
  191.2990  173.9340  141.8560 C   0  0  0  0  0  0  0  0  0  0  0  0
  184.9790  178.0130  146.1600 C   0  0  0  0  0  0  0  0  0  0  0  0
  187.0010  176.8140  142.4330 C   0  0  0  0  0  0  0  0  0  0  0  0
  186.2370  177.4520  139.7910 C   0  0  0  0  0  3  0  0  0  0  0  0
  185.5970  177.6490  144.9620 C   0  0  0  0  0  3  0  0  0  0  0  0
  189.2980  175.2450  142.7540 C   0  0  0  0  0  0  0  0  0  0  0  0
  184.3810  178.6700  140.6490 F   0  0  0  0  0  0  0  0  0  0  0  0
  188.4120  175.6860  146.2330 N   0  0  0  0  0  0  0  0  0  0  0  0
  183.7500  178.8460  146.1390 C   0  0  0  0  0  1  0  0  0  0  0  0
  188.8640  175.5960  141.5170 N   0  0  0  0  0  0  0  0  0  0  0  0
  188.5920  175.6710  143.8870 C   0  0  0  0  0  0  0  0  0  0  0  0
  190.4750  174.4430  142.9130 N   0  0  0  0  0  2  0  0  0  0  0  0
  185.8630  177.5970  142.1740 C   0  0  0  0  0  3  0  0  0  0  0  0
  185.5170  177.5930  147.3770 C   0  0  0  0  0  3  0  0  0  0  0  0
  187.7570  176.3530  141.3250 C   0  0  0  0  0  0  0  0  0  0  0  0
  187.3720  176.6740  140.0190 C   0  0  0  0  0  3  0  0  0  0  0  0
  189.0370  175.3140  145.1200 N   0  0  0  0  0  0  0  0  0  0  0  0
  187.2920  176.4460  146.1950 C   0  0  0  0  0  0  0  0  0  0  0  0
  186.6720  176.8110  147.3930 C   0  0  0  0  0  3  0  0  0  0  0  0
  193.3770  173.5360  144.9170 C   0  0  1  0  0  3  0  0  0  0  0  0
  192.2380  172.0470  143.2450 C   0  0  0  0  0  2  0  0  0  0  0  0
  193.9970  174.8940  141.5030 C   0  0  0  0  0  1  0  0  0  0  0  0
  193.2180  174.1900  146.1380 O   0  0  0  0  0  1  0  0  0  0  0  0
  192.1460  172.6820  144.6330 C   0  0  0  0  0  2  0  0  0  0  0  0
  193.7260  173.8890  142.5220 N   0  0  0  0  0  0  0  0  0  0  0  0
  192.5220  173.1050  142.1720 C   0  0  2  0  0  3  0  0  0  0  0  0
  193.5590  174.5670  143.8070 C   0  0  0  0  0  2  0  0  0  0  0  0
  1 17  1  0  0  0  0
  2 15  2  0  0  0  0
  2  3  1  0  0  0  0
  3  9  2  0  0  0  0
  3 22  1  0  0  0  0
  4  5  2  0  0  0  0
  5 16  1  0  0  0  0
  6 18  2  0  0  0  0
  7  2  1  0  0  0  0
  8 20  1  0  0  0  0
  8  1  2  0  0  0  0
  9  6  1  0  0  0  0
 10 16  1  0  0  0  0
 10 15  1  0  0  0  0
 11  1  1  0  0  0  0
 13  6  1  0  0  0  0
 14 10  2  0  0  0  0
 15 21  1  0  0  0  0
 17  7  2  0  0  0  0
 18 23  1  0  0  0  0
 19 14  1  0  0  0  0
 19  7  1  0  0  0  0
 20 19  2  0  0  0  0
 21 12  2  0  0  0  0
 22 12  1  0  0  0  0
 22 23  2  0  0  0  0
 24 27  1  1  0  0  0
 25 28  1  0  0  0  0
 26 29  1  0  0  0  0
 28 24  1  0  0  0  0
 29 31  1  0  0  0  0
 30  5  1  1  0  0  0
 30 29  1  0  0  0  0
 30 25  1  0  0  0  0
 31 24  1  0  0  0  0
M  END
>  <MODEL>
5

>  <REMARK>
 VINA RESULT:      -9.1      2.227      4.566
  Name = 
  1 active torsions:
  status: ('A' for Active; 'I' for Inactive)
    1  A    between atoms: C_5  and  C_30
                            x       y       z     vdW  Elec       q    Type
                         _______ _______ _______ _____ _____    ______ ____

>  <TORSDO>
F 1

$$$$
=
 OpenBabel11112416573D

 31 35  0  0  1  0  0  0  0  0999 V2000
  190.8070  177.0850  147.6210 C   0  0  0  0  0  0  0  0  0  0  0  0
  188.8640  176.0840  144.5540 C   0  0  0  0  0  0  0  0  0  0  0  0
  187.5990  176.7390  144.6210 C   0  0  0  0  0  0  0  0  0  0  0  0
  192.7240  173.0300  142.6570 O   0  0  0  0  0  0  0  0  0  0  0  0
  191.7410  172.9950  141.8720 C   0  0  0  0  0  0  0  0  0  0  0  0
  185.9770  178.2090  145.7050 C   0  0  0  0  0  0  0  0  0  0  0  0
  189.8970  176.2040  145.5320 C   0  0  0  0  0  0  0  0  0  0  0  0
  191.9930  176.3820  147.4150 C   0  0  0  0  0  3  0  0  0  0  0  0
  187.2270  177.5880  145.6780 C   0  0  0  0  0  3  0  0  0  0  0  0
  190.3260  174.5800  143.2930 C   0  0  0  0  0  0  0  0  0  0  0  0
  190.6580  177.8550  148.7240 F   0  0  0  0  0  0  0  0  0  0  0  0
  186.9790  175.7230  142.5400 N   0  0  0  0  0  0  0  0  0  0  0  0
  185.6130  179.1000  146.8360 C   0  0  0  0  0  1  0  0  0  0  0  0
  191.2840  174.7180  144.2440 N   0  0  0  0  0  0  0  0  0  0  0  0
  189.1070  175.2550  143.4280 C   0  0  0  0  0  0  0  0  0  0  0  0
  190.5510  173.7460  142.1490 N   0  0  0  0  0  2  0  0  0  0  0  0
  189.7710  176.9950  146.6880 C   0  0  0  0  0  3  0  0  0  0  0  0
  185.0690  177.9920  144.6670 C   0  0  0  0  0  3  0  0  0  0  0  0
  191.1100  175.4950  145.3390 C   0  0  0  0  0  0  0  0  0  0  0  0
  192.1430  175.5880  146.2780 C   0  0  0  0  0  3  0  0  0  0  0  0
  188.1550  175.1080  142.4690 N   0  0  0  0  0  0  0  0  0  0  0  0
  186.6640  176.5320  143.5790 C   0  0  0  0  0  0  0  0  0  0  0  0
  185.4140  177.1540  143.6070 C   0  0  0  0  0  3  0  0  0  0  0  0
  189.4500  172.4440  138.9920 C   0  0  1  0  0  3  0  0  0  0  0  0
  191.8730  172.9980  139.3510 C   0  0  0  0  0  2  0  0  0  0  0  0
  190.7670  170.2820  141.7240 C   0  0  0  0  0  1  0  0  0  0  0  0
  188.1840  172.9950  138.8010 O   0  0  0  0  0  1  0  0  0  0  0  0
  190.4890  173.5600  139.0240 C   0  0  0  0  0  2  0  0  0  0  0  0
  190.8040  171.0920  140.5150 N   0  0  0  0  0  0  0  0  0  0  0  0
  191.8360  172.1460  140.6250 C   0  0  2  0  0  3  0  0  0  0  0  0
  189.4780  171.6730  140.3070 C   0  0  0  0  0  2  0  0  0  0  0  0
  1 11  1  0  0  0  0
  2  3  1  0  0  0  0
  2  7  1  0  0  0  0
  3  9  1  0  0  0  0
  5 16  1  0  0  0  0
  5  4  2  0  0  0  0
  6 13  1  0  0  0  0
  7 17  1  0  0  0  0
  8  1  1  0  0  0  0
  9  6  2  0  0  0  0
 10 15  1  0  0  0  0
 10 14  2  0  0  0  0
 12 22  1  0  0  0  0
 14 19  1  0  0  0  0
 15  2  2  0  0  0  0
 16 10  1  0  0  0  0
 17  1  2  0  0  0  0
 18  6  1  0  0  0  0
 19  7  2  0  0  0  0
 19 20  1  0  0  0  0
 20  8  2  0  0  0  0
 21 12  2  0  0  0  0
 21 15  1  0  0  0  0
 22 23  1  0  0  0  0
 22  3  2  0  0  0  0
 23 18  2  0  0  0  0
 24 27  1  1  0  0  0
 24 28  1  0  0  0  0
 24 31  1  0  0  0  0
 25 30  1  0  0  0  0
 28 25  1  0  0  0  0
 29 30  1  0  0  0  0
 29 26  1  0  0  0  0
 30  5  1  1  0  0  0
 31 29  1  0  0  0  0
M  END
>  <MODEL>
6

>  <REMARK>
 VINA RESULT:      -8.9      3.534      5.145
  Name = 
  1 active torsions:
  status: ('A' for Active; 'I' for Inactive)
    1  A    between atoms: C_5  and  C_30
                            x       y       z     vdW  Elec       q    Type
                         _______ _______ _______ _____ _____    ______ ____

>  <TORSDO>
F 1

$$$$
=
 OpenBabel11112416573D

 31 35  0  0  1  0  0  0  0  0999 V2000
  190.8070  176.7430  147.3800 C   0  0  0  0  0  0  0  0  0  0  0  0
  188.1980  176.2830  144.7040 C   0  0  0  0  0  0  0  0  0  0  0  0
  187.0870  177.1080  145.0490 C   0  0  0  0  0  0  0  0  0  0  0  0
  191.1090  172.8590  141.9420 O   0  0  0  0  0  0  0  0  0  0  0  0
  190.0040  173.0300  141.3620 C   0  0  0  0  0  0  0  0  0  0  0  0
  185.9460  178.7080  146.5000 C   0  0  0  0  0  0  0  0  0  0  0  0
  189.3990  176.1730  145.4680 C   0  0  0  0  0  0  0  0  0  0  0  0
  191.8080  175.8930  146.9130 C   0  0  0  0  0  3  0  0  0  0  0  0
  187.0550  177.9160  146.2000 C   0  0  0  0  0  3  0  0  0  0  0  0
  189.1460  174.6870  143.1090 C   0  0  0  0  0  0  0  0  0  0  0  0
  190.9880  177.4370  148.5290 F   0  0  0  0  0  0  0  0  0  0  0  0
  185.9400  176.3610  143.0800 N   0  0  0  0  0  0  0  0  0  0  0  0
  185.9430  179.5500  147.7240 C   0  0  0  0  0  1  0  0  0  0  0  0
  190.2720  174.6070  143.8620 N   0  0  0  0  0  0  0  0  0  0  0  0
  188.0950  175.5200  143.5130 C   0  0  0  0  0  0  0  0  0  0  0  0
  189.0210  173.9220  141.9030 N   0  0  0  0  0  2  0  0  0  0  0  0
  189.6160  176.8800  146.6630 C   0  0  0  0  0  3  0  0  0  0  0  0
  184.8390  178.7090  145.6490 C   0  0  0  0  0  3  0  0  0  0  0  0
  190.4280  175.3130  145.0070 C   0  0  0  0  0  0  0  0  0  0  0  0
  191.6180  175.1790  145.7300 C   0  0  0  0  0  3  0  0  0  0  0  0
  186.9710  175.5900  142.7500 N   0  0  0  0  0  0  0  0  0  0  0  0
  185.9550  177.1220  144.2000 C   0  0  0  0  0  0  0  0  0  0  0  0
  184.8450  177.9160  144.5010 C   0  0  0  0  0  3  0  0  0  0  0  0
  191.8590  172.7270  138.1500 C   0  0  1  0  0  3  0  0  0  0  0  0
  190.7810  171.1900  139.8190 C   0  0  0  0  0  2  0  0  0  0  0  0
  188.5670  174.1660  139.1330 C   0  0  0  0  0  1  0  0  0  0  0  0
  193.0550  173.3520  137.8020 O   0  0  0  0  0  1  0  0  0  0  0  0
  192.0980  171.8000  139.3370 C   0  0  0  0  0  2  0  0  0  0  0  0
  189.5620  173.1320  138.8860 N   0  0  0  0  0  0  0  0  0  0  0  0
  189.7320  172.2780  140.0800 C   0  0  2  0  0  3  0  0  0  0  0  0
  190.8200  173.7820  138.5190 C   0  0  0  0  0  2  0  0  0  0  0  0
  1 11  1  0  0  0  0
  2  3  1  0  0  0  0
  2  7  1  0  0  0  0
  3  9  1  0  0  0  0
  5 16  1  0  0  0  0
  5  4  2  0  0  0  0
  6 13  1  0  0  0  0
  7 17  1  0  0  0  0
  8  1  1  0  0  0  0
  9  6  2  0  0  0  0
 10 15  1  0  0  0  0
 10 14  2  0  0  0  0
 12 22  1  0  0  0  0
 14 19  1  0  0  0  0
 15  2  2  0  0  0  0
 16 10  1  0  0  0  0
 17  1  2  0  0  0  0
 18  6  1  0  0  0  0
 19  7  2  0  0  0  0
 19 20  1  0  0  0  0
 20  8  2  0  0  0  0
 21 12  2  0  0  0  0
 21 15  1  0  0  0  0
 22 23  1  0  0  0  0
 22  3  2  0  0  0  0
 23 18  2  0  0  0  0
 24 27  1  1  0  0  0
 24 31  1  0  0  0  0
 24 28  1  0  0  0  0
 25 30  1  0  0  0  0
 28 25  1  0  0  0  0
 29 26  1  0  0  0  0
 29 30  1  0  0  0  0
 30  5  1  1  0  0  0
 31 29  1  0  0  0  0
M  END
>  <MODEL>
7

>  <REMARK>
 VINA RESULT:      -8.9      3.568      5.411
  Name = 
  1 active torsions:
  status: ('A' for Active; 'I' for Inactive)
    1  A    between atoms: C_5  and  C_30
                            x       y       z     vdW  Elec       q    Type
                         _______ _______ _______ _____ _____    ______ ____

>  <TORSDO>
F 1

$$$$
=
 OpenBabel11112416573D

 31 35  0  0  1  0  0  0  0  0999 V2000
  186.7430  176.7140  141.4520 C   0  0  0  0  0  0  0  0  0  0  0  0
  188.1280  177.0340  144.9400 C   0  0  0  0  0  0  0  0  0  0  0  0
  187.1230  177.6510  145.7400 C   0  0  0  0  0  0  0  0  0  0  0  0
  192.7470  174.8060  143.7030 O   0  0  0  0  0  0  0  0  0  0  0  0
  192.7520  175.1260  144.9210 C   0  0  0  0  0  0  0  0  0  0  0  0
  184.9120  178.6420  146.0560 C   0  0  0  0  0  0  0  0  0  0  0  0
  187.9940  176.7340  143.5500 C   0  0  0  0  0  0  0  0  0  0  0  0
  187.8160  176.1060  140.8030 C   0  0  0  0  0  3  0  0  0  0  0  0
  185.8680  178.0390  145.2360 C   0  0  0  0  0  3  0  0  0  0  0  0
  190.3820  176.0840  144.8570 C   0  0  0  0  0  0  0  0  0  0  0  0
  185.6130  177.0040  140.7660 F   0  0  0  0  0  0  0  0  0  0  0  0
  188.5820  177.5350  147.6380 N   0  0  0  0  0  0  0  0  0  0  0  0
  183.5960  179.0410  145.4940 C   0  0  0  0  0  1  0  0  0  0  0  0
  190.2180  175.8150  143.5370 N   0  0  0  0  0  0  0  0  0  0  0  0
  189.3480  176.6940  145.5780 C   0  0  0  0  0  0  0  0  0  0  0  0
  191.6080  175.7500  145.5210 N   0  0  0  0  0  2  0  0  0  0  0  0
  186.8330  177.0240  142.8110 C   0  0  0  0  0  3  0  0  0  0  0  0
  185.1930  178.8700  147.4040 C   0  0  0  0  0  3  0  0  0  0  0  0
  189.0760  176.1160  142.8740 C   0  0  0  0  0  0  0  0  0  0  0  0
  188.9800  175.8080  141.5130 C   0  0  0  0  0  3  0  0  0  0  0  0
  189.5260  176.9580  146.9000 N   0  0  0  0  0  0  0  0  0  0  0  0
  187.3890  177.8920  147.1090 C   0  0  0  0  0  0  0  0  0  0  0  0
  186.4310  178.4950  147.9280 C   0  0  0  0  0  3  0  0  0  0  0  0
  196.3660  174.8730  144.0740 C   0  0  1  0  0  3  0  0  0  0  0  0
  194.9420  176.0410  145.7810 C   0  0  0  0  0  2  0  0  0  0  0  0
  193.8080  172.4720  145.3250 C   0  0  0  0  0  1  0  0  0  0  0  0
  196.9510  175.0010  142.8150 O   0  0  0  0  0  1  0  0  0  0  0  0
  195.6940  176.1860  144.4580 C   0  0  0  0  0  2  0  0  0  0  0  0
  194.7130  173.6110  145.3620 N   0  0  0  0  0  0  0  0  0  0  0  0
  193.9860  174.8410  145.7430 C   0  0  2  0  0  3  0  0  0  0  0  0
  195.3320  173.7520  144.0430 C   0  0  0  0  0  2  0  0  0  0  0  0
  1 17  1  0  0  0  0
  2 15  2  0  0  0  0
  2  3  1  0  0  0  0
  3 22  1  0  0  0  0
  4  5  2  0  0  0  0
  5 16  1  0  0  0  0
  6 18  2  0  0  0  0
  7  2  1  0  0  0  0
  8  1  2  0  0  0  0
  8 20  1  0  0  0  0
  9  3  2  0  0  0  0
  9  6  1  0  0  0  0
 10 16  1  0  0  0  0
 10 15  1  0  0  0  0
 11  1  1  0  0  0  0
 13  6  1  0  0  0  0
 14 10  2  0  0  0  0
 15 21  1  0  0  0  0
 17  7  2  0  0  0  0
 18 23  1  0  0  0  0
 19 14  1  0  0  0  0
 19  7  1  0  0  0  0
 20 19  2  0  0  0  0
 21 12  2  0  0  0  0
 22 12  1  0  0  0  0
 22 23  2  0  0  0  0
 24 27  1  6  0  0  0
 24 28  1  0  0  0  0
 26 29  1  0  0  0  0
 28 25  1  0  0  0  0
 29 30  1  0  0  0  0
 30  5  1  6  0  0  0
 30 25  1  0  0  0  0
 31 24  1  0  0  0  0
 31 29  1  0  0  0  0
M  END
>  <MODEL>
8

>  <REMARK>
 VINA RESULT:      -8.7      2.325      4.467
  Name = 
  1 active torsions:
  status: ('A' for Active; 'I' for Inactive)
    1  A    between atoms: C_5  and  C_30
                            x       y       z     vdW  Elec       q    Type
                         _______ _______ _______ _____ _____    ______ ____

>  <TORSDO>
F 1

$$$$
=
 OpenBabel11112416573D

 31 35  0  0  1  0  0  0  0  0999 V2000
  190.0620  178.0020  148.0240 C   0  0  0  0  0  0  0  0  0  0  0  0
  189.4620  175.9580  144.9180 C   0  0  0  0  0  0  0  0  0  0  0  0
  188.2880  176.4730  144.2920 C   0  0  0  0  0  0  0  0  0  0  0  0
  193.6850  172.8900  145.6790 O   0  0  0  0  0  0  0  0  0  0  0  0
  193.0900  172.5280  144.6300 C   0  0  0  0  0  0  0  0  0  0  0  0
  186.4050  178.0230  144.1650 C   0  0  0  0  0  0  0  0  0  0  0  0
  190.0280  176.4620  146.1280 C   0  0  0  0  0  0  0  0  0  0  0  0
  191.2160  177.3930  148.5140 C   0  0  0  0  0  3  0  0  0  0  0  0
  187.5490  177.5510  144.8110 C   0  0  0  0  0  3  0  0  0  0  0  0
  191.2670  174.3080  144.8400 C   0  0  0  0  0  0  0  0  0  0  0  0
  189.5080  179.0410  148.6910 F   0  0  0  0  0  0  0  0  0  0  0  0
  188.5140  174.8360  142.5550 N   0  0  0  0  0  0  0  0  0  0  0  0
  185.6460  179.1640  144.7380 C   0  0  0  0  0  1  0  0  0  0  0  0
  191.7760  174.8130  145.9920 N   0  0  0  0  0  0  0  0  0  0  0  0
  190.1090  174.8660  144.2850 C   0  0  0  0  0  0  0  0  0  0  0  0
  191.9050  173.2030  144.1860 N   0  0  0  0  0  2  0  0  0  0  0  0
  189.4760  177.5390  146.8430 C   0  0  0  0  0  3  0  0  0  0  0  0
  185.9740  177.4220  142.9820 C   0  0  0  0  0  3  0  0  0  0  0  0
  191.2020  175.8550  146.6410 C   0  0  0  0  0  0  0  0  0  0  0  0
  191.7840  176.3220  147.8240 C   0  0  0  0  0  3  0  0  0  0  0  0
  189.6090  174.3500  143.1310 N   0  0  0  0  0  0  0  0  0  0  0  0
  187.8350  175.8770  143.0920 C   0  0  0  0  0  0  0  0  0  0  0  0
  186.6890  176.3500  142.4470 C   0  0  0  0  0  3  0  0  0  0  0  0
  196.0590  170.3340  145.0960 C   0  0  1  0  0  3  0  0  0  0  0  0
  193.6050  170.0570  144.6390 C   0  0  0  0  0  2  0  0  0  0  0  0
  195.0420  172.8320  142.5260 C   0  0  0  0  0  1  0  0  0  0  0  0
  197.0160  170.4100  146.1060 O   0  0  0  0  0  1  0  0  0  0  0  0
  194.6970  170.0280  145.7090 C   0  0  0  0  0  2  0  0  0  0  0  0
  194.9990  171.5890  143.2840 N   0  0  0  0  0  0  0  0  0  0  0  0
  193.6480  171.3660  143.8410 C   0  0  2  0  0  3  0  0  0  0  0  0
  196.0030  171.6610  144.3460 C   0  0  0  0  0  2  0  0  0  0  0  0
  1  8  1  0  0  0  0
  1 11  1  0  0  0  0
  2  7  1  0  0  0  0
  3  9  1  0  0  0  0
  3  2  1  0  0  0  0
  5  4  2  0  0  0  0
  6 13  1  0  0  0  0
  6  9  2  0  0  0  0
  7 19  2  0  0  0  0
  7 17  1  0  0  0  0
 10 14  2  0  0  0  0
 12 22  1  0  0  0  0
 12 21  2  0  0  0  0
 14 19  1  0  0  0  0
 15 10  1  0  0  0  0
 15  2  2  0  0  0  0
 16  5  1  0  0  0  0
 16 10  1  0  0  0  0
 17  1  2  0  0  0  0
 18  6  1  0  0  0  0
 19 20  1  0  0  0  0
 20  8  2  0  0  0  0
 21 15  1  0  0  0  0
 22  3  2  0  0  0  0
 23 18  2  0  0  0  0
 23 22  1  0  0  0  0
 24 28  1  0  0  0  0
 24 27  1  1  0  0  0
 25 28  1  0  0  0  0
 26 29  1  0  0  0  0
 29 30  1  0  0  0  0
 29 31  1  0  0  0  0
 30  5  1  1  0  0  0
 30 25  1  0  0  0  0
 31 24  1  0  0  0  0
M  END
>  <MODEL>
9

>  <REMARK>
 VINA RESULT:      -8.6      2.797      4.269
  Name = 
  1 active torsions:
  status: ('A' for Active; 'I' for Inactive)
    1  A    between atoms: C_5  and  C_30
                            x       y       z     vdW  Elec       q    Type
                         _______ _______ _______ _____ _____    ______ ____

>  <TORSDO>
F 1

$$$$
