=
 OpenBabel11112416183D

 30 34  0  0  1  0  0  0  0  0999 V2000
  186.7930  176.7890  144.0000 C   0  0  2  0  0  3  0  0  0  0  0  0
  185.1690  178.1980  145.3860 C   0  0  0  0  0  0  0  0  0  0  0  0
  189.5590  177.0350  147.0780 N   0  0  0  0  0  2  0  0  0  0  0  0
  188.2520  176.2970  143.9400 C   0  0  2  0  0  3  0  0  0  0  0  0
  186.5720  177.6450  142.7510 C   0  0  0  0  0  2  0  0  0  0  0  0
  188.2080  175.3140  140.4190 O   0  0  0  0  0  0  0  0  0  0  0  0
  191.0350  175.2420  143.0580 C   0  0  2  0  0  3  0  0  0  0  0  0
  187.8640  175.8390  141.5130 C   0  0  0  0  0  0  0  0  0  0  0  0
  190.9450  176.1520  144.2080 N   0  0  0  0  0  2  0  0  0  0  0  0
  190.6200  176.2400  146.5850 C   0  0  0  0  0  0  0  0  0  0  0  0
  186.8980  176.9130  141.5240 N   0  0  0  0  0  0  0  0  0  0  0  0
  188.3680  175.2650  142.8130 C   0  0  1  0  0  3  0  0  0  0  0  0
  184.8420  178.9040  146.5480 C   0  0  0  0  0  3  0  0  0  0  0  0
  184.2400  178.1450  144.3530 O   0  0  0  0  0  1  0  0  0  0  0  0
  188.5360  176.7950  146.3300 C   0  0  2  0  0  3  0  0  0  0  0  0
  185.7330  178.9520  147.6190 C   0  0  0  0  0  3  0  0  0  0  0  0
  186.4200  177.5500  145.2730 C   0  0  0  0  0  0  0  0  0  0  0  0
  188.7510  175.7560  145.2820 C   0  0  2  0  0  3  0  0  0  0  0  0
  191.7520  176.1980  147.1350 O   0  0  0  0  0  0  0  0  0  0  0  0
  190.2730  175.5080  145.3410 C   0  0  1  0  0  3  0  0  0  0  0  0
  189.7330  173.4620  142.1880 O   0  0  0  0  0  0  0  0  0  0  0  0
  186.9490  178.2740  147.5460 C   0  0  0  0  0  3  0  0  0  0  0  0
  187.2860  177.5560  146.3930 C   0  0  0  0  0  0  0  0  0  0  0  0
  189.7150  174.5800  142.6820 C   0  0  0  0  0  0  0  0  0  0  0  0
  192.1570  174.2270  143.2650 C   0  0  0  0  0  2  0  0  0  0  0  0
  193.9080  174.2590  145.0120 C   0  0  0  0  0  1  0  0  0  0  0  0
  193.4170  174.9230  143.7430 C   0  0  0  0  0  2  0  0  0  0  0  0
  186.2440  177.3420  140.2930 C   0  0  0  0  0  2  0  0  0  0  0  0
  183.8450  178.0300  140.3210 C   0  0  0  0  0  1  0  0  0  0  0  0
  185.2720  178.4830  140.5620 C   0  0  0  0  0  2  0  0  0  0  0  0
  1  5  1  6  0  0  0
  1 17  1  0  0  0  0
  2 13  1  0  0  0  0
  4  1  1  0  0  0  0
  4 18  1  0  0  0  0
  6  8  2  0  0  0  0
  7 25  1  0  0  0  0
  7  9  1  0  0  0  0
  8 11  1  0  0  0  0
  8 12  1  0  0  0  0
  9 20  1  0  0  0  0
 10  3  1  0  0  0  0
 10 19  2  0  0  0  0
 11  5  1  0  0  0  0
 12  4  1  0  0  0  0
 13 16  2  0  0  0  0
 14  2  1  0  0  0  0
 15 23  1  0  0  0  0
 15  3  1  0  0  0  0
 17  2  2  0  0  0  0
 17 23  1  0  0  0  0
 18 20  1  0  0  0  0
 18 15  1  0  0  0  0
 20 10  1  0  0  0  0
 21 24  2  0  0  0  0
 22 16  1  0  0  0  0
 23 22  2  0  0  0  0
 24 12  1  0  0  0  0
 24  7  1  0  0  0  0
 25 27  1  0  0  0  0
 27 26  1  0  0  0  0
 28 30  1  0  0  0  0
 28 11  1  0  0  0  0
 29 30  1  0  0  0  0
M  END
>  <MODEL>
1

>  <REMARK>
 VINA RESULT:      -7.9      0.000      0.000
  Name = 
  4 active torsions:
  status: ('A' for Active; 'I' for Inactive)
    1  A    between atoms: C_7  and  C_15
    2  A    between atoms: N_11  and  C_28
    3  A    between atoms: C_15  and  C_23
    4  A    between atoms: C_28  and  C_30
                            x       y       z     vdW  Elec       q    Type
                         _______ _______ _______ _____ _____    ______ ____

>  <TORSDO>
F 4

$$$$
=
 OpenBabel11112416183D

 30 34  0  0  1  0  0  0  0  0999 V2000
  189.8490  175.8040  143.6880 C   0  0  2  0  0  3  0  0  0  0  0  0
  191.6650  175.0120  145.3040 C   0  0  0  0  0  0  0  0  0  0  0  0
  187.8340  177.5320  146.8720 N   0  0  0  0  0  2  0  0  0  0  0  0
  188.4420  176.4290  143.6290 C   0  0  2  0  0  3  0  0  0  0  0  0
  189.7390  174.4260  143.0320 C   0  0  0  0  0  2  0  0  0  0  0  0
  187.7470  175.5520  140.1480 O   0  0  0  0  0  0  0  0  0  0  0  0
  185.5910  177.3480  142.8110 C   0  0  2  0  0  3  0  0  0  0  0  0
  188.3000  175.5790  141.2830 C   0  0  0  0  0  0  0  0  0  0  0  0
  185.8890  177.1120  144.2300 N   0  0  0  0  0  2  0  0  0  0  0  0
  186.7330  178.1430  146.2280 C   0  0  0  0  0  0  0  0  0  0  0  0
  189.1850  174.5090  141.6770 N   0  0  0  0  0  0  0  0  0  0  0  0
  188.1310  176.7860  142.1710 C   0  0  1  0  0  3  0  0  0  0  0  0
  192.2070  174.9200  146.5900 C   0  0  0  0  0  3  0  0  0  0  0  0
  192.3410  174.4070  144.2500 O   0  0  0  0  0  1  0  0  0  0  0  0
  188.6750  177.2110  145.9480 C   0  0  2  0  0  3  0  0  0  0  0  0
  191.5780  175.5420  147.6670 C   0  0  0  0  0  3  0  0  0  0  0  0
  190.4570  175.7120  145.0880 C   0  0  0  0  0  0  0  0  0  0  0  0
  188.2850  177.6270  144.5700 C   0  0  2  0  0  3  0  0  0  0  0  0
  185.7570  178.6260  146.8590 O   0  0  0  0  0  0  0  0  0  0  0  0
  186.8310  178.1100  144.7460 C   0  0  1  0  0  3  0  0  0  0  0  0
  186.7580  178.2460  140.9530 O   0  0  0  0  0  0  0  0  0  0  0  0
  190.4140  176.2810  147.4630 C   0  0  0  0  0  3  0  0  0  0  0  0
  189.8650  176.3900  146.1800 C   0  0  0  0  0  0  0  0  0  0  0  0
  186.8260  177.5230  141.9360 C   0  0  0  0  0  0  0  0  0  0  0  0
  184.6000  178.4990  142.6560 C   0  0  0  0  0  2  0  0  0  0  0  0
  183.3720  178.3290  140.5150 C   0  0  0  0  0  1  0  0  0  0  0  0
  183.3240  178.0120  141.9940 C   0  0  0  0  0  2  0  0  0  0  0  0
  189.5240  173.4370  140.7480 C   0  0  0  0  0  2  0  0  0  0  0  0
  190.8780  171.3440  140.6230 C   0  0  0  0  0  1  0  0  0  0  0  0
  189.9700  172.1880  141.4970 C   0  0  0  0  0  2  0  0  0  0  0  0
  1  5  1  1  0  0  0
  1 17  1  0  0  0  0
  2 13  1  0  0  0  0
  4  1  1  0  0  0  0
  4 18  1  0  0  0  0
  6  8  2  0  0  0  0
  7  9  1  0  0  0  0
  8 11  1  0  0  0  0
  8 12  1  0  0  0  0
  9 20  1  0  0  0  0
 10 19  2  0  0  0  0
 10  3  1  0  0  0  0
 11  5  1  0  0  0  0
 12  4  1  0  0  0  0
 13 16  2  0  0  0  0
 14  2  1  0  0  0  0
 15 23  1  0  0  0  0
 15  3  1  0  0  0  0
 17  2  2  0  0  0  0
 17 23  1  0  0  0  0
 18 20  1  0  0  0  0
 18 15  1  0  0  0  0
 20 10  1  0  0  0  0
 21 24  2  0  0  0  0
 22 16  1  0  0  0  0
 23 22  2  0  0  0  0
 24 12  1  0  0  0  0
 24  7  1  0  0  0  0
 25  7  1  0  0  0  0
 26 27  1  0  0  0  0
 27 25  1  0  0  0  0
 28 30  1  0  0  0  0
 28 11  1  0  0  0  0
 29 30  1  0  0  0  0
M  END
>  <MODEL>
2

>  <REMARK>
 VINA RESULT:      -7.7      1.929      5.936
  Name = 
  4 active torsions:
  status: ('A' for Active; 'I' for Inactive)
    1  A    between atoms: C_7  and  C_15
    2  A    between atoms: N_11  and  C_28
    3  A    between atoms: C_15  and  C_23
    4  A    between atoms: C_28  and  C_30
                            x       y       z     vdW  Elec       q    Type
                         _______ _______ _______ _____ _____    ______ ____

>  <TORSDO>
F 4

$$$$
=
 OpenBabel11112416183D

 30 34  0  0  1  0  0  0  0  0999 V2000
  190.1240  174.2440  143.7000 C   0  0  2  0  0  3  0  0  0  0  0  0
  191.1920  172.8990  141.8050 C   0  0  0  0  0  0  0  0  0  0  0  0
  187.5610  175.9940  140.9520 N   0  0  0  0  0  2  0  0  0  0  0  0
  189.1510  175.4030  143.9890 C   0  0  2  0  0  3  0  0  0  0  0  0
  191.4860  174.6750  144.2500 C   0  0  0  0  0  2  0  0  0  0  0  0
  190.1970  175.9660  147.4470 O   0  0  0  0  0  0  0  0  0  0  0  0
  187.5900  177.7790  145.2380 C   0  0  2  0  0  3  0  0  0  0  0  0
  190.1930  175.5450  146.2570 C   0  0  0  0  0  0  0  0  0  0  0  0
  187.7340  177.7040  143.7780 N   0  0  0  0  0  2  0  0  0  0  0  0
  186.7510  176.8060  141.7800 C   0  0  0  0  0  0  0  0  0  0  0  0
  191.4110  175.0440  145.6660 N   0  0  0  0  0  0  0  0  0  0  0  0
  188.8920  175.4530  145.4990 C   0  0  1  0  0  3  0  0  0  0  0  0
  191.2800  172.5380  140.4570 C   0  0  0  0  0  3  0  0  0  0  0  0
  192.0740  172.3210  142.7100 O   0  0  0  0  0  1  0  0  0  0  0  0
  188.2020  175.1910  141.7310 C   0  0  2  0  0  3  0  0  0  0  0  0
  190.3910  173.0690  139.5240 C   0  0  0  0  0  3  0  0  0  0  0  0
  190.2180  173.8310  142.2310 C   0  0  0  0  0  0  0  0  0  0  0  0
  187.8570  175.3060  143.1780 C   0  0  2  0  0  3  0  0  0  0  0  0
  185.9510  177.6630  141.3200 O   0  0  0  0  0  0  0  0  0  0  0  0
  186.9780  176.5740  143.2280 C   0  0  1  0  0  3  0  0  0  0  0  0
  187.2620  176.2250  146.9990 O   0  0  0  0  0  0  0  0  0  0  0  0
  189.3910  173.9480  139.9350 C   0  0  0  0  0  3  0  0  0  0  0  0
  189.2840  174.3120  141.2820 C   0  0  0  0  0  0  0  0  0  0  0  0
  187.8590  176.4640  145.9590 C   0  0  0  0  0  0  0  0  0  0  0  0
  186.2380  178.3820  145.6120 C   0  0  0  0  0  2  0  0  0  0  0  0
  184.3840  179.1970  144.1930 C   0  0  0  0  0  1  0  0  0  0  0  0
  185.8260  179.4270  144.5930 C   0  0  0  0  0  2  0  0  0  0  0  0
  192.6330  174.9330  146.4530 C   0  0  0  0  0  2  0  0  0  0  0  0
  194.1690  176.8880  146.6840 C   0  0  0  0  0  1  0  0  0  0  0  0
  193.7700  175.7150  145.8080 C   0  0  0  0  0  2  0  0  0  0  0  0
  1  4  1  0  0  0  0
  1  5  1  6  0  0  0
  2 17  1  0  0  0  0
  2 14  1  0  0  0  0
  3 15  1  0  0  0  0
  3 10  1  0  0  0  0
  4 12  1  0  0  0  0
  5 11  1  0  0  0  0
  7 25  1  0  0  0  0
  7 24  1  0  0  0  0
  8  6  2  0  0  0  0
  9  7  1  0  0  0  0
 10 20  1  0  0  0  0
 11  8  1  0  0  0  0
 11 28  1  0  0  0  0
 12 24  1  0  0  0  0
 12  8  1  0  0  0  0
 13  2  2  0  0  0  0
 15 18  1  0  0  0  0
 16 22  2  0  0  0  0
 16 13  1  0  0  0  0
 17  1  1  0  0  0  0
 18 20  1  0  0  0  0
 18  4  1  0  0  0  0
 19 10  2  0  0  0  0
 20  9  1  0  0  0  0
 22 23  1  0  0  0  0
 23 15  1  0  0  0  0
 23 17  2  0  0  0  0
 24 21  2  0  0  0  0
 26 27  1  0  0  0  0
 27 25  1  0  0  0  0
 30 28  1  0  0  0  0
 30 29  1  0  0  0  0
M  END
>  <MODEL>
3

>  <REMARK>
 VINA RESULT:      -7.5      2.057      7.396
  Name = 
  4 active torsions:
  status: ('A' for Active; 'I' for Inactive)
    1  A    between atoms: C_7  and  C_15
    2  A    between atoms: N_11  and  C_28
    3  A    between atoms: C_15  and  C_23
    4  A    between atoms: C_28  and  C_30
                            x       y       z     vdW  Elec       q    Type
                         _______ _______ _______ _____ _____    ______ ____

>  <TORSDO>
F 4

$$$$
=
 OpenBabel11112416183D

 30 34  0  0  1  0  0  0  0  0999 V2000
  187.4760  177.1130  143.9560 C   0  0  2  0  0  3  0  0  0  0  0  0
  185.7900  178.3970  142.5250 C   0  0  0  0  0  0  0  0  0  0  0  0
  188.5800  174.9260  140.6110 N   0  0  0  0  0  2  0  0  0  0  0  0
  188.4220  175.8970  143.9490 C   0  0  2  0  0  3  0  0  0  0  0  0
  186.4440  176.8530  145.0560 C   0  0  0  0  0  2  0  0  0  0  0  0
  188.8730  175.7050  147.5720 O   0  0  0  0  0  0  0  0  0  0  0  0
  190.2370  173.4940  144.7050 C   0  0  2  0  0  3  0  0  0  0  0  0
  188.4070  176.0290  146.4450 C   0  0  0  0  0  0  0  0  0  0  0  0
  189.5060  173.4670  143.4320 N   0  0  0  0  0  2  0  0  0  0  0  0
  189.6170  174.1120  141.1210 C   0  0  0  0  0  0  0  0  0  0  0  0
  187.0800  176.5910  146.3500 N   0  0  0  0  0  0  0  0  0  0  0  0
  189.2800  175.9420  145.2180 C   0  0  1  0  0  3  0  0  0  0  0  0
  185.1700  178.6570  141.2990 C   0  0  0  0  0  3  0  0  0  0  0  0
  185.3910  179.1220  143.6420 O   0  0  0  0  0  1  0  0  0  0  0  0
  188.3600  175.8430  141.4920 C   0  0  2  0  0  3  0  0  0  0  0  0
  185.5640  177.9760  140.1490 C   0  0  0  0  0  3  0  0  0  0  0  0
  186.8030  177.4170  142.6170 C   0  0  0  0  0  0  0  0  0  0  0  0
  189.2670  175.8110  142.6750 C   0  0  2  0  0  3  0  0  0  0  0  0
  190.1100  173.1510  140.4720 O   0  0  0  0  0  0  0  0  0  0  0  0
  190.0220  174.4760  142.5020 C   0  0  1  0  0  3  0  0  0  0  0  0
  191.3430  175.1450  145.9990 O   0  0  0  0  0  0  0  0  0  0  0  0
  186.5990  177.0440  140.2110 C   0  0  0  0  0  3  0  0  0  0  0  0
  187.2350  176.7790  141.4290 C   0  0  0  0  0  0  0  0  0  0  0  0
  190.3580  174.8810  145.3250 C   0  0  0  0  0  0  0  0  0  0  0  0
  191.5900  172.8010  144.5600 C   0  0  0  0  0  2  0  0  0  0  0  0
  192.6650  170.6500  143.9830 C   0  0  0  0  0  1  0  0  0  0  0  0
  191.4440  171.5180  143.7650 C   0  0  0  0  0  2  0  0  0  0  0  0
  186.3010  176.8740  147.5490 C   0  0  0  0  0  2  0  0  0  0  0  0
  185.9410  179.3440  147.5820 C   0  0  0  0  0  1  0  0  0  0  0  0
  185.3030  177.9980  147.2990 C   0  0  0  0  0  2  0  0  0  0  0  0
  1  5  1  1  0  0  0
  2 17  1  0  0  0  0
  2 14  1  0  0  0  0
  3 10  1  0  0  0  0
  3 15  1  0  0  0  0
  4  1  1  0  0  0  0
  4 12  1  0  0  0  0
  5 11  1  0  0  0  0
  7 24  1  0  0  0  0
  8  6  2  0  0  0  0
  9  7  1  0  0  0  0
 10 20  1  0  0  0  0
 11  8  1  0  0  0  0
 11 28  1  0  0  0  0
 12 24  1  0  0  0  0
 12  8  1  0  0  0  0
 13  2  2  0  0  0  0
 15 18  1  0  0  0  0
 16 22  2  0  0  0  0
 16 13  1  0  0  0  0
 17  1  1  0  0  0  0
 18  4  1  0  0  0  0
 19 10  2  0  0  0  0
 20 18  1  0  0  0  0
 20  9  1  0  0  0  0
 22 23  1  0  0  0  0
 23 15  1  0  0  0  0
 23 17  2  0  0  0  0
 24 21  2  0  0  0  0
 25  7  1  0  0  0  0
 27 26  1  0  0  0  0
 27 25  1  0  0  0  0
 30 28  1  0  0  0  0
 30 29  1  0  0  0  0
M  END
>  <MODEL>
4

>  <REMARK>
 VINA RESULT:      -7.3      1.696      4.876
  Name = 
  4 active torsions:
  status: ('A' for Active; 'I' for Inactive)
    1  A    between atoms: C_7  and  C_15
    2  A    between atoms: N_11  and  C_28
    3  A    between atoms: C_15  and  C_23
    4  A    between atoms: C_28  and  C_30
                            x       y       z     vdW  Elec       q    Type
                         _______ _______ _______ _____ _____    ______ ____

>  <TORSDO>
F 4

$$$$
=
 OpenBabel11112416183D

 30 34  0  0  1  0  0  0  0  0999 V2000
  191.1400  175.9040  142.8090 C   0  0  2  0  0  3  0  0  0  0  0  0
  193.4970  175.1220  142.2010 C   0  0  0  0  0  0  0  0  0  0  0  0
  192.3400  176.3010  146.7580 N   0  0  0  0  0  2  0  0  0  0  0  0
  190.2170  176.2160  144.0030 C   0  0  2  0  0  3  0  0  0  0  0  0
  190.4890  174.7480  142.0480 C   0  0  0  0  0  2  0  0  0  0  0  0
  187.0790  176.1320  142.1290 O   0  0  0  0  0  0  0  0  0  0  0  0
  187.7970  176.6970  145.8880 C   0  0  2  0  0  3  0  0  0  0  0  0
  188.2980  175.9830  142.4180 C   0  0  0  0  0  0  0  0  0  0  0  0
  189.0490  176.1740  146.4490 N   0  0  0  0  0  2  0  0  0  0  0  0
  191.1730  176.8130  147.3710 C   0  0  0  0  0  0  0  0  0  0  0  0
  189.1090  175.0570  141.6630 N   0  0  0  0  0  0  0  0  0  0  0  0
  188.9330  176.8600  143.4680 C   0  0  1  0  0  3  0  0  0  0  0  0
  194.8170  174.8200  142.5510 C   0  0  0  0  0  3  0  0  0  0  0  0
  193.1040  174.9610  140.8780 O   0  0  0  0  0  1  0  0  0  0  0  0
  192.1700  176.4090  145.4840 C   0  0  2  0  0  3  0  0  0  0  0  0
  195.2600  175.0000  143.8610 C   0  0  0  0  0  3  0  0  0  0  0  0
  192.5890  175.5860  143.1790 C   0  0  0  0  0  0  0  0  0  0  0  0
  190.8990  177.0730  145.0720 C   0  0  2  0  0  3  0  0  0  0  0  0
  191.0440  176.9030  148.6200 O   0  0  0  0  0  0  0  0  0  0  0  0
  190.1140  177.1800  146.3970 C   0  0  1  0  0  3  0  0  0  0  0  0
  187.2060  178.2630  144.2090 O   0  0  0  0  0  0  0  0  0  0  0  0
  194.3920  175.5070  144.8260 C   0  0  0  0  0  3  0  0  0  0  0  0
  193.0710  175.8240  144.4890 C   0  0  0  0  0  0  0  0  0  0  0  0
  187.9510  177.3440  144.5170 C   0  0  0  0  0  0  0  0  0  0  0  0
  187.1030  177.6160  146.8910 C   0  0  0  0  0  2  0  0  0  0  0  0
  184.7210  178.2790  146.8610 C   0  0  0  0  0  1  0  0  0  0  0  0
  185.6840  177.1460  147.1440 C   0  0  0  0  0  2  0  0  0  0  0  0
  188.5610  174.3530  140.5090 C   0  0  0  0  0  2  0  0  0  0  0  0
  187.6060  172.6090  142.0180 C   0  0  0  0  0  1  0  0  0  0  0  0
  188.4510  172.8590  140.7840 C   0  0  0  0  0  2  0  0  0  0  0  0
  1  5  1  1  0  0  0
  1 17  1  0  0  0  0
  1  4  1  0  0  0  0
  2 13  2  0  0  0  0
  2 17  1  0  0  0  0
  3 10  1  0  0  0  0
  4 18  1  0  0  0  0
  6  8  2  0  0  0  0
  7  9  1  0  0  0  0
  7 25  1  0  0  0  0
  8 12  1  0  0  0  0
 10 19  2  0  0  0  0
 11  5  1  0  0  0  0
 11  8  1  0  0  0  0
 12  4  1  0  0  0  0
 12 24  1  0  0  0  0
 13 16  1  0  0  0  0
 14  2  1  0  0  0  0
 15  3  1  0  0  0  0
 16 22  2  0  0  0  0
 17 23  2  0  0  0  0
 18 15  1  0  0  0  0
 18 20  1  0  0  0  0
 20  9  1  0  0  0  0
 20 10  1  0  0  0  0
 21 24  2  0  0  0  0
 23 22  1  0  0  0  0
 23 15  1  0  0  0  0
 24  7  1  0  0  0  0
 25 27  1  0  0  0  0
 26 27  1  0  0  0  0
 28 30  1  0  0  0  0
 28 11  1  0  0  0  0
 30 29  1  0  0  0  0
M  END
>  <MODEL>
5

>  <REMARK>
 VINA RESULT:      -7.1      2.154      6.091
  Name = 
  4 active torsions:
  status: ('A' for Active; 'I' for Inactive)
    1  A    between atoms: C_7  and  C_15
    2  A    between atoms: N_11  and  C_28
    3  A    between atoms: C_15  and  C_23
    4  A    between atoms: C_28  and  C_30
                            x       y       z     vdW  Elec       q    Type
                         _______ _______ _______ _____ _____    ______ ____

>  <TORSDO>
F 4

$$$$
=
 OpenBabel11112416183D

 30 34  0  0  1  0  0  0  0  0999 V2000
  190.2620  175.6160  145.6270 C   0  0  2  0  0  3  0  0  0  0  0  0
  192.5980  174.5900  145.4490 C   0  0  0  0  0  0  0  0  0  0  0  0
  189.7040  174.9320  141.5760 N   0  0  0  0  0  2  0  0  0  0  0  0
  189.0690  176.1110  144.7870 C   0  0  2  0  0  3  0  0  0  0  0  0
  190.7830  176.8300  146.3990 C   0  0  0  0  0  2  0  0  0  0  0  0
  187.4700  178.0450  147.4460 O   0  0  0  0  0  0  0  0  0  0  0  0
  186.5190  177.5330  143.7320 C   0  0  2  0  0  3  0  0  0  0  0  0
  188.3370  177.3840  146.8100 C   0  0  0  0  0  0  0  0  0  0  0  0
  187.5750  177.1580  142.7820 N   0  0  0  0  0  2  0  0  0  0  0  0
  188.3770  175.3790  141.3820 C   0  0  0  0  0  0  0  0  0  0  0  0
  189.7270  177.4670  147.1910 N   0  0  0  0  0  0  0  0  0  0  0  0
  187.9050  176.4190  145.7340 C   0  0  1  0  0  3  0  0  0  0  0  0
  193.6180  173.9840  144.7080 C   0  0  0  0  0  3  0  0  0  0  0  0
  192.8100  174.8340  146.8010 O   0  0  0  0  0  1  0  0  0  0  0  0
  189.8810  174.8340  142.8500 C   0  0  2  0  0  3  0  0  0  0  0  0
  193.4320  173.6920  143.3580 C   0  0  0  0  0  3  0  0  0  0  0  0
  191.3770  174.9390  144.8290 C   0  0  0  0  0  0  0  0  0  0  0  0
  188.6770  175.1310  143.6780 C   0  0  2  0  0  3  0  0  0  0  0  0
  187.8670  175.5230  140.2390 O   0  0  0  0  0  0  0  0  0  0  0  0
  187.6760  175.7010  142.6510 C   0  0  1  0  0  3  0  0  0  0  0  0
  185.5650  176.5800  145.6820 O   0  0  0  0  0  0  0  0  0  0  0  0
  192.2150  173.9810  142.7430 C   0  0  0  0  0  3  0  0  0  0  0  0
  191.1810  174.5780  143.4740 C   0  0  0  0  0  0  0  0  0  0  0  0
  186.5980  176.8090  145.0700 C   0  0  0  0  0  0  0  0  0  0  0  0
  185.1440  177.4040  143.0810 C   0  0  0  0  0  2  0  0  0  0  0  0
  185.2160  179.7430  143.8820 C   0  0  0  0  0  1  0  0  0  0  0  0
  184.3200  178.6530  143.3320 C   0  0  0  0  0  2  0  0  0  0  0  0
  190.1370  178.2350  148.3600 C   0  0  0  0  0  2  0  0  0  0  0  0
  191.5950  178.0720  150.3800 C   0  0  0  0  0  1  0  0  0  0  0  0
  191.4630  177.7260  148.9090 C   0  0  0  0  0  2  0  0  0  0  0  0
  1  5  1  6  0  0  0
  2 14  1  0  0  0  0
  3 15  1  0  0  0  0
  4  1  1  0  0  0  0
  4 12  1  0  0  0  0
  5 11  1  0  0  0  0
  7 24  1  0  0  0  0
  8 11  1  0  0  0  0
  8  6  2  0  0  0  0
  9  7  1  0  0  0  0
 10  3  1  0  0  0  0
 10 20  1  0  0  0  0
 11 28  1  0  0  0  0
 12  8  1  0  0  0  0
 13  2  2  0  0  0  0
 15 23  1  0  0  0  0
 15 18  1  0  0  0  0
 16 13  1  0  0  0  0
 17  2  1  0  0  0  0
 17  1  1  0  0  0  0
 18  4  1  0  0  0  0
 19 10  2  0  0  0  0
 20  9  1  0  0  0  0
 20 18  1  0  0  0  0
 22 16  2  0  0  0  0
 22 23  1  0  0  0  0
 23 17  2  0  0  0  0
 24 21  2  0  0  0  0
 24 12  1  0  0  0  0
 25 27  1  0  0  0  0
 25  7  1  0  0  0  0
 27 26  1  0  0  0  0
 28 30  1  0  0  0  0
 30 29  1  0  0  0  0
M  END
>  <MODEL>
6

>  <REMARK>
 VINA RESULT:      -7.1      1.831      7.232
  Name = 
  4 active torsions:
  status: ('A' for Active; 'I' for Inactive)
    1  A    between atoms: C_7  and  C_15
    2  A    between atoms: N_11  and  C_28
    3  A    between atoms: C_15  and  C_23
    4  A    between atoms: C_28  and  C_30
                            x       y       z     vdW  Elec       q    Type
                         _______ _______ _______ _____ _____    ______ ____

>  <TORSDO>
F 4

$$$$
=
 OpenBabel11112416183D

 30 34  0  0  1  0  0  0  0  0999 V2000
  190.6970  175.3370  142.7260 C   0  0  2  0  0  3  0  0  0  0  0  0
  192.8310  174.0130  143.2090 C   0  0  0  0  0  0  0  0  0  0  0  0
  190.6260  176.5740  146.6830 N   0  0  0  0  0  2  0  0  0  0  0  0
  189.5560  176.1210  143.4030 C   0  0  2  0  0  3  0  0  0  0  0  0
  190.0450  174.1520  142.0110 C   0  0  0  0  0  2  0  0  0  0  0  0
  187.2810  176.0890  140.5410 O   0  0  0  0  0  0  0  0  0  0  0  0
  186.8760  177.5190  144.1120 C   0  0  2  0  0  3  0  0  0  0  0  0
  188.2590  175.8100  141.2890 C   0  0  0  0  0  0  0  0  0  0  0  0
  187.6970  176.9540  145.1910 N   0  0  0  0  0  2  0  0  0  0  0  0
  189.5010  177.4320  146.7030 C   0  0  0  0  0  0  0  0  0  0  0  0
  188.9950  174.5850  141.0850 N   0  0  0  0  0  0  0  0  0  0  0  0
  188.7300  176.8120  142.3130 C   0  0  1  0  0  3  0  0  0  0  0  0
  193.8390  173.5880  144.0800 C   0  0  0  0  0  3  0  0  0  0  0  0
  192.8560  173.5710  141.8910 O   0  0  0  0  0  1  0  0  0  0  0  0
  190.9080  176.3600  145.4420 C   0  0  2  0  0  3  0  0  0  0  0  0
  193.8690  174.0360  145.3990 C   0  0  0  0  0  3  0  0  0  0  0  0
  191.8130  174.8800  143.6660 C   0  0  0  0  0  0  0  0  0  0  0  0
  190.0590  177.1010  144.4660 C   0  0  2  0  0  3  0  0  0  0  0  0
  189.0060  177.8810  147.7700 O   0  0  0  0  0  0  0  0  0  0  0  0
  188.9480  177.7030  145.3520 C   0  0  1  0  0  3  0  0  0  0  0  0
  187.2900  178.6480  142.0690 O   0  0  0  0  0  0  0  0  0  0  0  0
  192.9030  174.9330  145.8520 C   0  0  0  0  0  3  0  0  0  0  0  0
  191.8930  175.3750  144.9900 C   0  0  0  0  0  0  0  0  0  0  0  0
  187.6270  177.7300  142.8030 C   0  0  0  0  0  0  0  0  0  0  0  0
  186.1650  178.7840  144.5860 C   0  0  0  0  0  2  0  0  0  0  0  0
  184.2400  178.5350  146.1200 C   0  0  0  0  0  1  0  0  0  0  0  0
  184.6680  178.5500  144.6680 C   0  0  0  0  0  2  0  0  0  0  0  0
  188.6820  173.7020  139.9670 C   0  0  0  0  0  2  0  0  0  0  0  0
  189.5590  173.7950  137.6320 C   0  0  0  0  0  1  0  0  0  0  0  0
  189.9010  173.4940  139.0790 C   0  0  0  0  0  2  0  0  0  0  0  0
  1  5  1  1  0  0  0
  1  4  1  0  0  0  0
  1 17  1  0  0  0  0
  2 17  2  0  0  0  0
  2 13  1  0  0  0  0
  3 10  1  0  0  0  0
  4 18  1  0  0  0  0
  6  8  2  0  0  0  0
  7 25  1  0  0  0  0
  7  9  1  0  0  0  0
  8 12  1  0  0  0  0
  9 20  1  0  0  0  0
 10 19  2  0  0  0  0
 11  8  1  0  0  0  0
 11  5  1  0  0  0  0
 12 24  1  0  0  0  0
 12  4  1  0  0  0  0
 13 16  2  0  0  0  0
 14  2  1  0  0  0  0
 15  3  1  0  0  0  0
 16 22  1  0  0  0  0
 17 23  1  0  0  0  0
 18 20  1  0  0  0  0
 18 15  1  0  0  0  0
 20 10  1  0  0  0  0
 21 24  2  0  0  0  0
 23 15  1  0  0  0  0
 23 22  2  0  0  0  0
 24  7  1  0  0  0  0
 25 27  1  0  0  0  0
 27 26  1  0  0  0  0
 28 11  1  0  0  0  0
 29 30  1  0  0  0  0
 30 28  1  0  0  0  0
M  END
>  <MODEL>
7

>  <REMARK>
 VINA RESULT:      -7.0      2.083      5.978
  Name = 
  4 active torsions:
  status: ('A' for Active; 'I' for Inactive)
    1  A    between atoms: C_7  and  C_15
    2  A    between atoms: N_11  and  C_28
    3  A    between atoms: C_15  and  C_23
    4  A    between atoms: C_28  and  C_30
                            x       y       z     vdW  Elec       q    Type
                         _______ _______ _______ _____ _____    ______ ____

>  <TORSDO>
F 4

$$$$
=
 OpenBabel11112416183D

 30 34  0  0  1  0  0  0  0  0999 V2000
  187.8050  175.8110  143.8590 C   0  0  2  0  0  3  0  0  0  0  0  0
  185.7830  177.3740  143.9500 C   0  0  0  0  0  0  0  0  0  0  0  0
  189.3030  177.6260  147.2720 N   0  0  0  0  0  2  0  0  0  0  0  0
  189.1960  175.5620  144.4740 C   0  0  2  0  0  3  0  0  0  0  0  0
  188.0310  176.0840  142.3700 C   0  0  0  0  0  2  0  0  0  0  0  0
  190.4090  173.3210  141.8510 O   0  0  0  0  0  0  0  0  0  0  0  0
  192.1220  174.6900  145.0380 C   0  0  2  0  0  3  0  0  0  0  0  0
  189.6950  174.1640  142.4620 C   0  0  0  0  0  0  0  0  0  0  0  0
  191.6220  175.9420  145.6200 N   0  0  0  0  0  2  0  0  0  0  0  0
  190.4770  176.8750  147.5140 C   0  0  0  0  0  0  0  0  0  0  0  0
  188.7770  175.0000  141.7250 N   0  0  0  0  0  0  0  0  0  0  0  0
  189.7130  174.2100  143.9700 C   0  0  1  0  0  3  0  0  0  0  0  0
  185.0600  178.4090  144.5510 C   0  0  0  0  0  3  0  0  0  0  0  0
  185.2790  176.7920  142.7930 O   0  0  0  0  0  1  0  0  0  0  0  0
  188.6130  176.9670  146.4050 C   0  0  2  0  0  3  0  0  0  0  0  0
  185.5140  178.9960  145.7310 C   0  0  0  0  0  3  0  0  0  0  0  0
  186.9990  176.9310  144.5180 C   0  0  0  0  0  0  0  0  0  0  0  0
  189.1940  175.6540  146.0010 C   0  0  2  0  0  3  0  0  0  0  0  0
  191.3430  177.2190  148.3610 O   0  0  0  0  0  0  0  0  0  0  0  0
  190.6000  175.6820  146.6380 C   0  0  1  0  0  3  0  0  0  0  0  0
  191.2280  172.5360  144.6080 O   0  0  0  0  0  0  0  0  0  0  0  0
  186.6840  178.5350  146.3330 C   0  0  0  0  0  3  0  0  0  0  0  0
  187.4140  177.4940  145.7490 C   0  0  0  0  0  0  0  0  0  0  0  0
  191.0260  173.7410  144.5660 C   0  0  0  0  0  0  0  0  0  0  0  0
  193.1080  174.0130  145.9880 C   0  0  0  0  0  2  0  0  0  0  0  0
  195.2290  175.2740  145.8140 C   0  0  0  0  0  1  0  0  0  0  0  0
  194.5020  174.0150  145.3910 C   0  0  0  0  0  2  0  0  0  0  0  0
  188.5960  174.8250  140.2880 C   0  0  0  0  0  2  0  0  0  0  0  0
  188.5250  173.0670  138.5170 C   0  0  0  0  0  1  0  0  0  0  0  0
  188.1910  173.3930  139.9600 C   0  0  0  0  0  2  0  0  0  0  0  0
  1  5  1  6  0  0  0
  1  4  1  0  0  0  0
  1 17  1  0  0  0  0
  2 17  2  0  0  0  0
  2 13  1  0  0  0  0
  3 10  1  0  0  0  0
  4 18  1  0  0  0  0
  6  8  2  0  0  0  0
  7  9  1  0  0  0  0
  7 25  1  0  0  0  0
  8 12  1  0  0  0  0
  9 20  1  0  0  0  0
 10 19  2  0  0  0  0
 11  5  1  0  0  0  0
 11  8  1  0  0  0  0
 12  4  1  0  0  0  0
 12 24  1  0  0  0  0
 13 16  2  0  0  0  0
 14  2  1  0  0  0  0
 15  3  1  0  0  0  0
 16 22  1  0  0  0  0
 17 23  1  0  0  0  0
 18 15  1  0  0  0  0
 18 20  1  0  0  0  0
 20 10  1  0  0  0  0
 23 22  2  0  0  0  0
 23 15  1  0  0  0  0
 24 21  2  0  0  0  0
 24  7  1  0  0  0  0
 27 26  1  0  0  0  0
 27 25  1  0  0  0  0
 28 11  1  0  0  0  0
 29 30  1  0  0  0  0
 30 28  1  0  0  0  0
M  END
>  <MODEL>
8

>  <REMARK>
 VINA RESULT:      -7.0      1.781      2.584
  Name = 
  4 active torsions:
  status: ('A' for Active; 'I' for Inactive)
    1  A    between atoms: C_7  and  C_15
    2  A    between atoms: N_11  and  C_28
    3  A    between atoms: C_15  and  C_23
    4  A    between atoms: C_28  and  C_30
                            x       y       z     vdW  Elec       q    Type
                         _______ _______ _______ _____ _____    ______ ____

>  <TORSDO>
F 4

$$$$
=
 OpenBabel11112416183D

 30 34  0  0  1  0  0  0  0  0999 V2000
  188.9740  177.3520  145.7770 C   0  0  2  0  0  3  0  0  0  0  0  0
  186.7160  178.0760  146.7330 C   0  0  0  0  0  0  0  0  0  0  0  0
  187.0200  175.7970  142.4670 N   0  0  0  0  0  2  0  0  0  0  0  0
  189.6250  176.5120  144.6600 C   0  0  2  0  0  3  0  0  0  0  0  0
  189.4060  176.7200  147.1020 C   0  0  0  0  0  2  0  0  0  0  0  0
  192.9460  176.3170  146.1750 O   0  0  0  0  0  0  0  0  0  0  0  0
  191.5340  174.8030  142.9070 C   0  0  2  0  0  3  0  0  0  0  0  0
  191.7080  176.5210  146.0410 C   0  0  0  0  0  0  0  0  0  0  0  0
  190.0840  174.5950  142.8000 N   0  0  0  0  0  2  0  0  0  0  0  0
  188.0990  175.3440  141.6730 C   0  0  0  0  0  0  0  0  0  0  0  0
  190.8650  176.6230  147.2090 N   0  0  0  0  0  0  0  0  0  0  0  0
  191.1340  176.7790  144.6700 C   0  0  1  0  0  3  0  0  0  0  0  0
  185.3230  178.1750  146.6490 C   0  0  0  0  0  3  0  0  0  0  0  0
  187.3540  178.5810  147.8600 O   0  0  0  0  0  1  0  0  0  0  0  0
  187.5230  176.5510  143.3840 C   0  0  2  0  0  3  0  0  0  0  0  0
  184.6490  177.7120  145.5200 C   0  0  0  0  0  3  0  0  0  0  0  0
  187.4530  177.4780  145.6860 C   0  0  0  0  0  0  0  0  0  0  0  0
  188.9960  176.7640  143.2870 C   0  0  2  0  0  3  0  0  0  0  0  0
  187.9390  174.6270  140.6500 O   0  0  0  0  0  0  0  0  0  0  0  0
  189.4250  175.7590  142.1980 C   0  0  1  0  0  3  0  0  0  0  0  0
  192.9690  176.6650  143.2150 O   0  0  0  0  0  0  0  0  0  0  0  0
  185.3650  177.1670  144.4550 C   0  0  0  0  0  3  0  0  0  0  0  0
  186.7600  177.0700  144.5210 C   0  0  0  0  0  0  0  0  0  0  0  0
  191.9280  176.1240  143.5570 C   0  0  0  0  0  0  0  0  0  0  0  0
  192.2060  174.5980  141.5520 C   0  0  0  0  0  2  0  0  0  0  0  0
  193.4030  172.7500  142.6790 C   0  0  0  0  0  1  0  0  0  0  0  0
  192.6860  173.1660  141.4120 C   0  0  0  0  0  2  0  0  0  0  0  0
  191.4370  176.5820  148.5500 C   0  0  0  0  0  2  0  0  0  0  0  0
  191.5660  177.8950  150.6690 C   0  0  0  0  0  1  0  0  0  0  0  0
  191.5060  177.9780  149.1560 C   0  0  0  0  0  2  0  0  0  0  0  0
  1  5  1  1  0  0  0
  2 14  1  0  0  0  0
  3 15  1  0  0  0  0
  4 12  1  0  0  0  0
  4  1  1  0  0  0  0
  5 11  1  0  0  0  0
  7 24  1  0  0  0  0
  8  6  2  0  0  0  0
  8 11  1  0  0  0  0
  9  7  1  0  0  0  0
 10 20  1  0  0  0  0
 10  3  1  0  0  0  0
 11 28  1  0  0  0  0
 12  8  1  0  0  0  0
 13  2  1  0  0  0  0
 15 23  1  0  0  0  0
 16 13  2  0  0  0  0
 17  1  1  0  0  0  0
 17  2  2  0  0  0  0
 18 15  1  0  0  0  0
 18  4  1  0  0  0  0
 19 10  2  0  0  0  0
 20  9  1  0  0  0  0
 20 18  1  0  0  0  0
 21 24  2  0  0  0  0
 22 23  2  0  0  0  0
 22 16  1  0  0  0  0
 23 17  1  0  0  0  0
 24 12  1  0  0  0  0
 25  7  1  0  0  0  0
 27 25  1  0  0  0  0
 27 26  1  0  0  0  0
 28 30  1  0  0  0  0
 30 29  1  0  0  0  0
M  END
>  <MODEL>
9

>  <REMARK>
 VINA RESULT:      -6.9      1.991      5.232
  Name = 
  4 active torsions:
  status: ('A' for Active; 'I' for Inactive)
    1  A    between atoms: C_7  and  C_15
    2  A    between atoms: N_11  and  C_28
    3  A    between atoms: C_15  and  C_23
    4  A    between atoms: C_28  and  C_30
                            x       y       z     vdW  Elec       q    Type
                         _______ _______ _______ _____ _____    ______ ____

>  <TORSDO>
F 4

$$$$
