=
 OpenBabel11112416323D

 32 37  0  0  1  0  0  0  0  0999 V2000
  183.6590  177.9400  142.6410 O   0  0  0  0  0  0  0  0  0  0  0  0
  188.6140  176.9710  142.9890 N   0  0  1  0  0  0  0  0  0  0  0  0
  189.9540  173.4470  139.8590 C   0  0  0  0  0  3  0  0  0  0  0  0
  191.2030  173.3870  140.4780 C   0  0  0  0  0  3  0  0  0  0  0  0
  189.9280  177.3530  145.1000 C   0  0  1  0  0  3  0  0  0  0  0  0
  191.0620  176.7560  145.9480 C   0  0  1  0  0  3  0  0  0  0  0  0
  186.6730  178.3670  142.5870 C   0  0  1  0  0  3  0  0  0  0  0  0
  187.2070  176.4330  141.0930 N   0  0  0  0  0  2  0  0  0  0  0  0
  192.7520  175.2050  146.1670 C   0  0  2  0  0  3  0  0  0  0  0  0
  185.0810  177.4690  140.8480 C   0  0  0  0  0  3  0  0  0  0  0  0
  188.9560  174.2740  140.3780 C   0  0  0  0  0  3  0  0  0  0  0  0
  188.0980  175.8900  142.1230 C   0  0  1  0  0  3  0  0  0  0  0  0
  189.2030  175.0590  141.5140 C   0  0  0  0  0  0  0  0  0  0  0  0
  190.7520  175.8150  143.3650 C   0  0  2  0  0  3  0  0  0  0  0  0
  191.8400  175.0590  147.3830 C   0  0  0  0  0  2  0  0  0  0  0  0
  184.3050  178.7950  143.5680 C   0  0  0  0  0  2  0  0  0  0  0  0
  186.2720  177.4490  141.4530 C   0  0  0  0  0  0  0  0  0  0  0  0
  190.5980  175.8620  147.0660 C   0  0  0  0  0  2  0  0  0  0  0  0
  185.6630  179.3800  143.1370 C   0  0  0  0  0  2  0  0  0  0  0  0
  183.9590  178.3290  141.3220 C   0  0  1  0  0  3  0  0  0  0  0  0
  191.4510  174.1430  141.6260 C   0  0  0  0  0  3  0  0  0  0  0  0
  190.4490  174.9590  142.1670 C   0  0  0  0  0  0  0  0  0  0  0  0
  191.4330  175.0880  144.3520 O   0  0  0  0  0  0  0  0  0  0  0  0
  187.4570  177.5990  143.6390 C   0  0  0  0  0  2  0  0  0  0  0  0
  190.3740  178.5460  144.5240 O   0  0  0  0  0  1  0  0  0  0  0  0
  194.0440  175.8930  146.5700 C   0  0  0  0  0  1  0  0  0  0  0  0
  189.4820  176.3670  144.0100 C   0  0  2  0  0  3  0  0  0  0  0  0
  192.0550  176.0020  145.1610 N   0  0  1  0  0  0  0  0  0  0  0  0
  182.7490  178.1140  140.4310 C   0  0  0  0  0  2  0  0  0  0  0  0
  181.5160  178.6200  141.0960 C   0  0  0  0  0  0  0  0  0  0  0  0
  181.0830  179.9190  140.8610 O   0  0  0  0  0  0  0  0  0  0  0  0
  180.8470  177.8620  141.8440 O   0  0  0  0  0  1  0  0  0  0  0  0
  1 16  1  0  0  0  0
  2 24  1  1  0  0  0
  2 27  1  0  0  0  0
  3 11  2  0  0  0  0
  3  4  1  0  0  0  0
  4 21  2  0  0  0  0
  5 25  1  6  0  0  0
  5  6  1  0  0  0  0
  6 18  1  1  0  0  0
  7 19  1  1  0  0  0
  7 24  1  0  0  0  0
  8 17  1  0  0  0  0
  9 26  1  1  0  0  0
  9 15  1  0  0  0  0
 10 20  1  0  0  0  0
 10 17  2  0  0  0  0
 11 13  1  0  0  0  0
 12  8  1  6  0  0  0
 12  2  1  0  0  0  0
 13 12  1  0  0  0  0
 13 22  2  0  0  0  0
 14 22  1  6  0  0  0
 14 27  1  0  0  0  0
 14 23  1  0  0  0  0
 17  7  1  0  0  0  0
 18 15  1  0  0  0  0
 19 16  1  0  0  0  0
 20 29  1  6  0  0  0
 20  1  1  0  0  0  0
 21 22  1  0  0  0  0
 23 28  1  0  0  0  0
 27  5  1  0  0  0  0
 28  6  1  0  0  0  0
 28  9  1  0  0  0  0
 29 30  1  0  0  0  0
 30 32  1  0  0  0  0
 31 30  2  0  0  0  0
M  END
>  <MODEL>
1

>  <REMARK>
 VINA RESULT:      -8.3      0.000      0.000
  Name = 
  2 active torsions:
  status: ('A' for Active; 'I' for Inactive)
    1  A    between atoms: C_20  and  C_29
    2  A    between atoms: C_29  and  C_30
                            x       y       z     vdW  Elec       q    Type
                         _______ _______ _______ _____ _____    ______ ____

>  <TORSDO>
F 2

$$$$
=
 OpenBabel11112416323D

 32 37  0  0  1  0  0  0  0  0999 V2000
  186.5210  178.5630  143.0010 O   0  0  0  0  0  0  0  0  0  0  0  0
  190.2640  175.1660  143.2520 N   0  0  1  0  0  0  0  0  0  0  0  0
  193.6120  176.4630  146.5870 C   0  0  0  0  0  3  0  0  0  0  0  0
  194.4540  175.4530  146.1190 C   0  0  0  0  0  3  0  0  0  0  0  0
  190.9190  173.7180  141.3010 C   0  0  1  0  0  3  0  0  0  0  0  0
  192.1410  173.1040  140.6030 C   0  0  1  0  0  3  0  0  0  0  0  0
  187.9610  175.9100  143.3970 C   0  0  1  0  0  3  0  0  0  0  0  0
  189.6980  176.7640  144.9810 N   0  0  0  0  0  2  0  0  0  0  0  0
  194.4040  172.6680  140.6130 C   0  0  2  0  0  3  0  0  0  0  0  0
  187.5880  177.8580  144.9560 C   0  0  0  0  0  3  0  0  0  0  0  0
  192.4020  176.7210  145.9380 C   0  0  0  0  0  3  0  0  0  0  0  0
  190.7500  176.2950  144.0730 C   0  0  1  0  0  3  0  0  0  0  0  0
  192.0180  175.9620  144.8240 C   0  0  0  0  0  0  0  0  0  0  0  0
  192.4900  174.1250  143.1510 C   0  0  2  0  0  3  0  0  0  0  0  0
  194.0850  173.3830  139.3030 C   0  0  0  0  0  2  0  0  0  0  0  0
  186.2990  177.4610  142.1380 C   0  0  0  0  0  2  0  0  0  0  0  0
  188.3620  176.8720  144.4940 C   0  0  0  0  0  0  0  0  0  0  0  0
  192.6780  173.9180  139.4570 C   0  0  0  0  0  2  0  0  0  0  0  0
  186.5990  176.0630  142.7130 C   0  0  0  0  0  2  0  0  0  0  0  0
  186.2740  178.1990  144.3370 C   0  0  1  0  0  3  0  0  0  0  0  0
  194.0940  174.7090  144.9930 C   0  0  0  0  0  3  0  0  0  0  0  0
  192.8930  174.9750  144.3230 C   0  0  0  0  0  0  0  0  0  0  0  0
  193.5600  173.9360  142.2650 O   0  0  0  0  0  0  0  0  0  0  0  0
  189.1320  175.6590  142.4590 C   0  0  0  0  0  2  0  0  0  0  0  0
  190.1780  172.6970  141.9010 O   0  0  0  0  0  1  0  0  0  0  0  0
  194.6540  171.1940  140.3510 C   0  0  0  0  0  1  0  0  0  0  0  0
  191.3510  174.7530  142.3510 C   0  0  2  0  0  3  0  0  0  0  0  0
  193.2670  172.8280  141.5160 N   0  0  1  0  0  0  0  0  0  0  0  0
  185.6520  179.3640  145.0850 C   0  0  0  0  0  2  0  0  0  0  0  0
  185.1660  178.9240  146.4230 C   0  0  0  0  0  0  0  0  0  0  0  0
  185.7990  179.3730  147.5740 O   0  0  0  0  0  1  0  0  0  0  0  0
  184.1600  178.1720  146.5120 O   0  0  0  0  0  0  0  0  0  0  0  0
  1 20  1  0  0  0  0
  2 24  1  6  0  0  0
  2 12  1  0  0  0  0
  4  3  1  0  0  0  0
  5 25  1  1  0  0  0
  5 27  1  0  0  0  0
  6 18  1  6  0  0  0
  6  5  1  0  0  0  0
  6 28  1  0  0  0  0
  7 24  1  6  0  0  0
  7 17  1  0  0  0  0
  9 26  1  6  0  0  0
  9 28  1  0  0  0  0
 11  3  2  0  0  0  0
 12 13  1  1  0  0  0
 12  8  1  0  0  0  0
 13 11  1  0  0  0  0
 14 23  1  6  0  0  0
 14 22  1  0  0  0  0
 15 18  1  0  0  0  0
 15  9  1  0  0  0  0
 16 19  1  0  0  0  0
 16  1  1  0  0  0  0
 17 10  2  0  0  0  0
 17  8  1  0  0  0  0
 19  7  1  0  0  0  0
 20 10  1  0  0  0  0
 20 29  1  1  0  0  0
 21  4  2  0  0  0  0
 22 13  2  0  0  0  0
 22 21  1  0  0  0  0
 27 14  1  0  0  0  0
 27  2  1  0  0  0  0
 28 23  1  0  0  0  0
 29 30  1  0  0  0  0
 30 32  2  0  0  0  0
 30 31  1  0  0  0  0
M  END
>  <MODEL>
2

>  <REMARK>
 VINA RESULT:      -8.2      2.667      5.374
  Name = 
  2 active torsions:
  status: ('A' for Active; 'I' for Inactive)
    1  A    between atoms: C_20  and  C_29
    2  A    between atoms: C_29  and  C_30
                            x       y       z     vdW  Elec       q    Type
                         _______ _______ _______ _____ _____    ______ ____

>  <TORSDO>
F 2

$$$$
=
 OpenBabel11112416323D

 32 37  0  0  1  0  0  0  0  0999 V2000
  186.1530  178.3120  141.5900 O   0  0  0  0  0  0  0  0  0  0  0  0
  190.2190  175.9490  143.4600 N   0  0  1  0  0  0  0  0  0  0  0  0
  190.8950  177.0600  148.1850 C   0  0  0  0  0  3  0  0  0  0  0  0
  192.1450  176.4390  148.1410 C   0  0  0  0  0  3  0  0  0  0  0  0
  192.1730  175.2700  142.0290 C   0  0  1  0  0  3  0  0  0  0  0  0
  193.7060  175.1690  142.0380 C   0  0  1  0  0  3  0  0  0  0  0  0
  188.0320  176.0650  142.4210 C   0  0  1  0  0  3  0  0  0  0  0  0
  188.3910  176.8490  144.7690 N   0  0  0  0  0  2  0  0  0  0  0  0
  195.6820  175.2900  143.2180 C   0  0  2  0  0  3  0  0  0  0  0  0
  186.3220  177.3830  143.7270 C   0  0  0  0  0  3  0  0  0  0  0  0
  190.1380  177.1890  147.0180 C   0  0  0  0  0  3  0  0  0  0  0  0
  189.8360  176.9000  144.5250 C   0  0  1  0  0  3  0  0  0  0  0  0
  190.6180  176.6860  145.8000 C   0  0  0  0  0  0  0  0  0  0  0  0
  192.4240  175.5260  144.4640 C   0  0  2  0  0  3  0  0  0  0  0  0
  195.8070  176.2330  142.0240 C   0  0  0  0  0  2  0  0  0  0  0  0
  186.7600  177.4600  140.6350 C   0  0  0  0  0  2  0  0  0  0  0  0
  187.5040  176.7660  143.6540 C   0  0  0  0  0  0  0  0  0  0  0  0
  194.4120  176.3610  141.4520 C   0  0  0  0  0  2  0  0  0  0  0  0
  187.2030  176.0700  141.1320 C   0  0  0  0  0  2  0  0  0  0  0  0
  185.4380  177.5580  142.5380 C   0  0  1  0  0  3  0  0  0  0  0  0
  192.6440  175.9590  146.9280 C   0  0  0  0  0  3  0  0  0  0  0  0
  191.9010  176.1030  145.7490 C   0  0  0  0  0  0  0  0  0  0  0  0
  193.7780  175.8370  144.2780 O   0  0  0  0  0  0  0  0  0  0  0  0
  189.5130  176.3560  142.2390 C   0  0  0  0  0  2  0  0  0  0  0  0
  191.6340  173.9810  142.0280 O   0  0  0  0  0  1  0  0  0  0  0  0
  196.5110  174.0410  142.9800 C   0  0  0  0  0  1  0  0  0  0  0  0
  191.6700  176.0590  143.2480 C   0  0  2  0  0  3  0  0  0  0  0  0
  194.2750  174.9320  143.3790 N   0  0  1  0  0  0  0  0  0  0  0  0
  184.1800  178.3010  142.9510 C   0  0  0  0  0  2  0  0  0  0  0  0
  184.4360  179.1230  144.1670 C   0  0  0  0  0  0  0  0  0  0  0  0
  185.2410  180.2510  144.0860 O   0  0  0  0  0  0  0  0  0  0  0  0
  183.8960  178.8140  145.2610 O   0  0  0  0  0  1  0  0  0  0  0  0
  1 20  1  0  0  0  0
  2 24  1  6  0  0  0
  2 12  1  0  0  0  0
  4  3  1  0  0  0  0
  5 25  1  1  0  0  0
  5  6  1  0  0  0  0
  5 27  1  0  0  0  0
  6 18  1  1  0  0  0
  6 28  1  0  0  0  0
  7 19  1  6  0  0  0
  7 17  1  0  0  0  0
  9 26  1  6  0  0  0
  9 28  1  0  0  0  0
 11  3  2  0  0  0  0
 12  8  1  1  0  0  0
 12 13  1  0  0  0  0
 13 11  1  0  0  0  0
 14 23  1  6  0  0  0
 14 22  1  0  0  0  0
 15  9  1  0  0  0  0
 16 19  1  0  0  0  0
 16  1  1  0  0  0  0
 17 10  2  0  0  0  0
 17  8  1  0  0  0  0
 18 15  1  0  0  0  0
 20 29  1  1  0  0  0
 20 10  1  0  0  0  0
 21  4  2  0  0  0  0
 22 13  2  0  0  0  0
 22 21  1  0  0  0  0
 24  7  1  0  0  0  0
 27  2  1  0  0  0  0
 27 14  1  0  0  0  0
 28 23  1  0  0  0  0
 29 30  1  0  0  0  0
 30 32  1  0  0  0  0
 31 30  2  0  0  0  0
M  END
>  <MODEL>
3

>  <REMARK>
 VINA RESULT:      -8.1      2.380      4.641
  Name = 
  2 active torsions:
  status: ('A' for Active; 'I' for Inactive)
    1  A    between atoms: C_20  and  C_29
    2  A    between atoms: C_29  and  C_30
                            x       y       z     vdW  Elec       q    Type
                         _______ _______ _______ _____ _____    ______ ____

>  <TORSDO>
F 2

$$$$
=
 OpenBabel11112416323D

 32 37  0  0  1  0  0  0  0  0999 V2000
  189.1800  171.7480  139.7850 O   0  0  0  0  0  0  0  0  0  0  0  0
  189.1490  175.5010  143.1810 N   0  0  1  0  0  0  0  0  0  0  0  0
  192.7060  174.9140  146.5000 C   0  0  0  0  0  3  0  0  0  0  0  0
  192.1490  175.9430  147.2630 C   0  0  0  0  0  3  0  0  0  0  0  0
  187.0660  176.7800  143.7730 C   0  0  1  0  0  3  0  0  0  0  0  0
  186.3380  177.4300  144.9600 C   0  0  1  0  0  3  0  0  0  0  0  0
  189.3120  174.5560  140.9540 C   0  0  1  0  0  3  0  0  0  0  0  0
  191.0330  174.0570  142.6990 N   0  0  0  0  0  2  0  0  0  0  0  0
  186.3630  178.0830  147.1690 C   0  0  2  0  0  3  0  0  0  0  0  0
  191.0710  172.7660  140.7030 C   0  0  0  0  0  3  0  0  0  0  0  0
  192.0560  174.4690  145.3470 C   0  0  0  0  0  3  0  0  0  0  0  0
  190.1070  174.5220  143.7370 C   0  0  1  0  0  3  0  0  0  0  0  0
  190.8510  175.0590  144.9370 C   0  0  0  0  0  0  0  0  0  0  0  0
  188.9940  176.7370  145.3010 C   0  0  2  0  0  3  0  0  0  0  0  0
  185.1340  177.2000  146.9700 C   0  0  0  0  0  2  0  0  0  0  0  0
  188.1910  172.7210  139.4950 C   0  0  0  0  0  2  0  0  0  0  0  0
  190.5230  173.7650  141.3990 C   0  0  0  0  0  0  0  0  0  0  0  0
  185.3080  176.5500  145.6150 C   0  0  0  0  0  2  0  0  0  0  0  0
  188.6110  174.1960  139.6390 C   0  0  0  0  0  2  0  0  0  0  0  0
  190.4580  172.2320  139.4530 C   0  0  1  0  0  3  0  0  0  0  0  0
  190.9360  176.5190  146.8790 C   0  0  0  0  0  3  0  0  0  0  0  0
  190.2660  176.0650  145.7350 C   0  0  0  0  0  0  0  0  0  0  0  0
  188.1240  176.9300  146.3830 O   0  0  0  0  0  0  0  0  0  0  0  0
  188.3850  174.8140  142.1320 C   0  0  0  0  0  2  0  0  0  0  0  0
  187.5240  177.7850  142.9170 O   0  0  0  0  0  1  0  0  0  0  0  0
  185.9410  179.5360  147.2900 C   0  0  0  0  0  1  0  0  0  0  0  0
  188.2390  175.9150  144.2580 C   0  0  2  0  0  3  0  0  0  0  0  0
  187.2450  177.9140  146.0170 N   0  0  1  0  0  0  0  0  0  0  0  0
  191.3160  171.1020  138.9130 C   0  0  0  0  0  2  0  0  0  0  0  0
  190.6240  170.4130  137.7890 C   0  0  0  0  0  0  0  0  0  0  0  0
  190.1340  169.1250  137.9590 O   0  0  0  0  0  1  0  0  0  0  0  0
  190.4540  171.0090  136.6940 O   0  0  0  0  0  0  0  0  0  0  0  0
  2 24  1  6  0  0  0
  2 12  1  0  0  0  0
  2 27  1  0  0  0  0
  3  4  1  0  0  0  0
  5 25  1  6  0  0  0
  5 27  1  0  0  0  0
  5  6  1  0  0  0  0
  6 18  1  1  0  0  0
  6 28  1  0  0  0  0
  7 19  1  6  0  0  0
  7 17  1  0  0  0  0
  7 24  1  0  0  0  0
  9 26  1  6  0  0  0
 10 17  2  0  0  0  0
 11  3  2  0  0  0  0
 12  8  1  6  0  0  0
 12 13  1  0  0  0  0
 13 11  1  0  0  0  0
 13 22  2  0  0  0  0
 14 22  1  1  0  0  0
 14 23  1  0  0  0  0
 15  9  1  0  0  0  0
 16 19  1  0  0  0  0
 16  1  1  0  0  0  0
 17  8  1  0  0  0  0
 18 15  1  0  0  0  0
 20 29  1  1  0  0  0
 20  1  1  0  0  0  0
 20 10  1  0  0  0  0
 21  4  2  0  0  0  0
 22 21  1  0  0  0  0
 27 14  1  0  0  0  0
 28 23  1  0  0  0  0
 28  9  1  0  0  0  0
 30 31  1  0  0  0  0
 30 29  1  0  0  0  0
 32 30  2  0  0  0  0
M  END
>  <MODEL>
4

>  <REMARK>
 VINA RESULT:      -8.0      3.271      7.088
  Name = 
  2 active torsions:
  status: ('A' for Active; 'I' for Inactive)
    1  A    between atoms: C_20  and  C_29
    2  A    between atoms: C_29  and  C_30
                            x       y       z     vdW  Elec       q    Type
                         _______ _______ _______ _____ _____    ______ ____

>  <TORSDO>
F 2

$$$$
=
 OpenBabel11112416323D

 32 37  0  0  1  0  0  0  0  0999 V2000
  186.3490  178.3390  141.2930 O   0  0  0  0  0  0  0  0  0  0  0  0
  190.2480  176.1020  143.6180 N   0  0  1  0  0  0  0  0  0  0  0  0
  190.5390  177.4790  148.3110 C   0  0  0  0  0  3  0  0  0  0  0  0
  191.7870  176.8610  148.4040 C   0  0  0  0  0  3  0  0  0  0  0  0
  192.3120  175.3500  142.3900 C   0  0  1  0  0  3  0  0  0  0  0  0
  193.8390  175.2560  142.5300 C   0  0  1  0  0  3  0  0  0  0  0  0
  188.1520  176.1500  142.3990 C   0  0  1  0  0  3  0  0  0  0  0  0
  188.3200  177.0670  144.7210 N   0  0  0  0  0  2  0  0  0  0  0  0
  195.7120  175.4510  143.8570 C   0  0  2  0  0  3  0  0  0  0  0  0
  186.3430  177.5320  143.4850 C   0  0  0  0  0  3  0  0  0  0  0  0
  189.8790  177.5400  147.0820 C   0  0  0  0  0  3  0  0  0  0  0  0
  189.7800  177.1090  144.5930 C   0  0  1  0  0  3  0  0  0  0  0  0
  190.4550  176.9710  145.9370 C   0  0  0  0  0  0  0  0  0  0  0  0
  192.3640  175.7440  144.8190 C   0  0  2  0  0  3  0  0  0  0  0  0
  195.9340  176.3260  142.6250 C   0  0  0  0  0  2  0  0  0  0  0  0
  187.0310  177.4370  140.4400 C   0  0  0  0  0  2  0  0  0  0  0  0
  187.5270  176.9170  143.5440 C   0  0  0  0  0  0  0  0  0  0  0  0
  194.5910  176.4170  141.9360 C   0  0  0  0  0  2  0  0  0  0  0  0
  187.4310  176.0790  141.0490 C   0  0  0  0  0  2  0  0  0  0  0  0
  185.5590  177.6360  142.2210 C   0  0  1  0  0  3  0  0  0  0  0  0
  192.3830  176.3160  147.2640 C   0  0  0  0  0  3  0  0  0  0  0  0
  191.7390  176.3910  146.0230 C   0  0  0  0  0  0  0  0  0  0  0  0
  193.7290  176.0500  144.7260 O   0  0  0  0  0  0  0  0  0  0  0  0
  189.6440  176.4360  142.3220 C   0  0  0  0  0  2  0  0  0  0  0  0
  191.7740  174.0610  142.4180 O   0  0  0  0  0  1  0  0  0  0  0  0
  196.5570  174.1940  143.7580 C   0  0  0  0  0  1  0  0  0  0  0  0
  191.7110  176.2050  143.5180 C   0  0  2  0  0  3  0  0  0  0  0  0
  194.2970  175.0970  143.9230 N   0  0  1  0  0  0  0  0  0  0  0  0
  184.2720  178.3970  142.4880 C   0  0  0  0  0  2  0  0  0  0  0  0
  183.3490  178.2840  141.3250 C   0  0  0  0  0  0  0  0  0  0  0  0
  182.0220  177.9260  141.5230 O   0  0  0  0  0  1  0  0  0  0  0  0
  183.7620  178.5430  140.1650 O   0  0  0  0  0  0  0  0  0  0  0  0
  1 20  1  0  0  0  0
  2 24  1  6  0  0  0
  2 12  1  0  0  0  0
  3  4  1  0  0  0  0
  5 25  1  1  0  0  0
  5  6  1  0  0  0  0
  5 27  1  0  0  0  0
  6 18  1  1  0  0  0
  6 28  1  0  0  0  0
  7 19  1  6  0  0  0
  7 17  1  0  0  0  0
  9 26  1  6  0  0  0
  9 28  1  0  0  0  0
 10 17  2  0  0  0  0
 11  3  2  0  0  0  0
 12  8  1  1  0  0  0
 12 13  1  0  0  0  0
 13 22  2  0  0  0  0
 13 11  1  0  0  0  0
 14 23  1  6  0  0  0
 14 22  1  0  0  0  0
 15  9  1  0  0  0  0
 16 19  1  0  0  0  0
 16  1  1  0  0  0  0
 17  8  1  0  0  0  0
 18 15  1  0  0  0  0
 20 29  1  1  0  0  0
 20 10  1  0  0  0  0
 21  4  2  0  0  0  0
 22 21  1  0  0  0  0
 24  7  1  0  0  0  0
 27  2  1  0  0  0  0
 27 14  1  0  0  0  0
 28 23  1  0  0  0  0
 30 31  1  0  0  0  0
 30 29  1  0  0  0  0
 32 30  2  0  0  0  0
M  END
>  <MODEL>
5

>  <REMARK>
 VINA RESULT:      -7.9      2.122      4.475
  Name = 
  2 active torsions:
  status: ('A' for Active; 'I' for Inactive)
    1  A    between atoms: C_20  and  C_29
    2  A    between atoms: C_29  and  C_30
                            x       y       z     vdW  Elec       q    Type
                         _______ _______ _______ _____ _____    ______ ____

>  <TORSDO>
F 2

$$$$
=
 OpenBabel11112416323D

 32 37  0  0  1  0  0  0  0  0999 V2000
  186.3490  178.9430  143.1050 O   0  0  0  0  0  0  0  0  0  0  0  0
  189.3310  174.8620  142.8410 N   0  0  1  0  0  0  0  0  0  0  0  0
  192.7190  174.9130  146.3800 C   0  0  0  0  0  3  0  0  0  0  0  0
  193.3640  173.8400  145.7630 C   0  0  0  0  0  3  0  0  0  0  0  0
  189.7700  173.6380  140.6870 C   0  0  1  0  0  3  0  0  0  0  0  0
  190.8760  172.9060  139.9120 C   0  0  1  0  0  3  0  0  0  0  0  0
  187.2170  176.0250  143.0790 C   0  0  1  0  0  3  0  0  0  0  0  0
  189.0170  176.2490  144.8010 N   0  0  0  0  0  2  0  0  0  0  0  0
  193.0050  172.0240  139.8770 C   0  0  2  0  0  3  0  0  0  0  0  0
  187.1680  177.7380  144.9300 C   0  0  0  0  0  3  0  0  0  0  0  0
  191.6140  175.5090  145.7680 C   0  0  0  0  0  3  0  0  0  0  0  0
  189.9930  175.7260  143.8400 C   0  0  1  0  0  3  0  0  0  0  0  0
  191.1360  175.0290  144.5410 C   0  0  0  0  0  0  0  0  0  0  0  0
  191.3080  173.4210  142.5960 C   0  0  2  0  0  3  0  0  0  0  0  0
  192.8920  172.9870  138.6970 C   0  0  0  0  0  2  0  0  0  0  0  0
  185.9520  178.0590  142.0720 C   0  0  0  0  0  2  0  0  0  0  0  0
  187.7510  176.7010  144.3230 C   0  0  0  0  0  0  0  0  0  0  0  0
  191.6140  173.7650  138.9200 C   0  0  0  0  0  2  0  0  0  0  0  0
  185.9420  176.5570  142.4140 C   0  0  0  0  0  2  0  0  0  0  0  0
  185.9770  178.4310  144.3610 C   0  0  1  0  0  3  0  0  0  0  0  0
  192.9130  173.3710  144.5270 C   0  0  0  0  0  3  0  0  0  0  0  0
  191.8190  173.9770  143.8950 C   0  0  0  0  0  0  0  0  0  0  0  0
  192.3580  173.1610  141.7030 O   0  0  0  0  0  0  0  0  0  0  0  0
  188.3540  175.6930  142.1260 C   0  0  0  0  0  2  0  0  0  0  0  0
  188.8160  172.7060  141.1040 O   0  0  0  0  0  1  0  0  0  0  0  0
  192.9690  170.5910  139.3800 C   0  0  0  0  0  1  0  0  0  0  0  0
  190.3520  174.3850  141.8970 C   0  0  2  0  0  3  0  0  0  0  0  0
  191.8840  172.2680  140.7800 N   0  0  1  0  0  0  0  0  0  0  0  0
  185.5650  179.5650  145.2820 C   0  0  0  0  0  2  0  0  0  0  0  0
  185.2260  179.0410  146.6340 C   0  0  0  0  0  0  0  0  0  0  0  0
  184.1830  178.1380  146.7880 O   0  0  0  0  0  0  0  0  0  0  0  0
  185.9050  179.3910  147.6340 O   0  0  0  0  0  1  0  0  0  0  0  0
  1 20  1  0  0  0  0
  2 24  1  6  0  0  0
  2 12  1  0  0  0  0
  4  3  2  0  0  0  0
  5 25  1  1  0  0  0
  5 27  1  0  0  0  0
  6 18  1  6  0  0  0
  6  5  1  0  0  0  0
  6 28  1  0  0  0  0
  7 24  1  6  0  0  0
  7 17  1  0  0  0  0
  9 26  1  6  0  0  0
  9 28  1  0  0  0  0
 11  3  1  0  0  0  0
 12 13  1  1  0  0  0
 12  8  1  0  0  0  0
 13 11  2  0  0  0  0
 14 23  1  6  0  0  0
 14 22  1  0  0  0  0
 15 18  1  0  0  0  0
 15  9  1  0  0  0  0
 16 19  1  0  0  0  0
 16  1  1  0  0  0  0
 17  8  1  0  0  0  0
 17 10  2  0  0  0  0
 19  7  1  0  0  0  0
 20 10  1  0  0  0  0
 20 29  1  1  0  0  0
 21  4  1  0  0  0  0
 22 21  2  0  0  0  0
 22 13  1  0  0  0  0
 27 14  1  0  0  0  0
 27  2  1  0  0  0  0
 28 23  1  0  0  0  0
 29 30  1  0  0  0  0
 30 31  2  0  0  0  0
 30 32  1  0  0  0  0
M  END
>  <MODEL>
6

>  <REMARK>
 VINA RESULT:      -7.9      2.536      5.380
  Name = 
  2 active torsions:
  status: ('A' for Active; 'I' for Inactive)
    1  A    between atoms: C_20  and  C_29
    2  A    between atoms: C_29  and  C_30
                            x       y       z     vdW  Elec       q    Type
                         _______ _______ _______ _____ _____    ______ ____

>  <TORSDO>
F 2

$$$$
=
 OpenBabel11112416323D

 32 37  0  0  1  0  0  0  0  0999 V2000
  187.4580  176.3390  146.5980 O   0  0  0  0  0  0  0  0  0  0  0  0
  190.5790  175.3190  142.7460 N   0  0  1  0  0  0  0  0  0  0  0  0
  188.3260  172.6680  139.2960 C   0  0  0  0  0  3  0  0  0  0  0  0
  189.5550  172.4590  138.6690 C   0  0  0  0  0  3  0  0  0  0  0  0
  193.0750  175.1760  143.0220 C   0  0  1  0  0  3  0  0  0  0  0  0
  194.3050  174.3910  142.5420 C   0  0  1  0  0  3  0  0  0  0  0  0
  189.3480  176.7690  144.2500 C   0  0  1  0  0  3  0  0  0  0  0  0
  188.1600  175.2590  142.6490 N   0  0  0  0  0  2  0  0  0  0  0  0
  195.2120  172.8350  141.1040 C   0  0  2  0  0  3  0  0  0  0  0  0
  186.8670  176.3210  144.3380 C   0  0  0  0  0  3  0  0  0  0  0  0
  188.2700  173.3420  140.5180 C   0  0  0  0  0  3  0  0  0  0  0  0
  189.3910  174.4820  142.4760 C   0  0  1  0  0  3  0  0  0  0  0  0
  189.4420  173.8260  141.1160 C   0  0  0  0  0  0  0  0  0  0  0  0
  191.9560  174.1080  141.1080 C   0  0  2  0  0  3  0  0  0  0  0  0
  195.5550  172.3950  142.5250 C   0  0  0  0  0  2  0  0  0  0  0  0
  188.7280  176.9420  146.7680 C   0  0  0  0  0  2  0  0  0  0  0  0
  188.0570  176.1550  143.7540 C   0  0  0  0  0  0  0  0  0  0  0  0
  194.7050  173.2500  143.4380 C   0  0  0  0  0  2  0  0  0  0  0  0
  189.3440  177.6170  145.5270 C   0  0  0  0  0  2  0  0  0  0  0  0
  186.7070  177.0390  145.6360 C   0  0  1  0  0  3  0  0  0  0  0  0
  190.7320  172.9130  139.2700 C   0  0  0  0  0  3  0  0  0  0  0  0
  190.6880  173.5710  140.5050 C   0  0  0  0  0  0  0  0  0  0  0  0
  192.9900  173.1630  141.0470 O   0  0  0  0  0  0  0  0  0  0  0  0
  190.4870  175.7680  144.1410 C   0  0  0  0  0  2  0  0  0  0  0  0
  193.1360  176.4730  142.5070 O   0  0  0  0  0  1  0  0  0  0  0  0
  196.4450  173.4040  140.4270 C   0  0  0  0  0  1  0  0  0  0  0  0
  191.7770  174.4850  142.5770 C   0  0  2  0  0  3  0  0  0  0  0  0
  194.1670  173.8520  141.1750 N   0  0  1  0  0  0  0  0  0  0  0  0
  185.2400  177.0470  146.0290 C   0  0  0  0  0  2  0  0  0  0  0  0
  184.7980  178.4300  146.3620 C   0  0  0  0  0  0  0  0  0  0  0  0
  185.5880  179.2350  147.1730 O   0  0  0  0  0  1  0  0  0  0  0  0
  183.7250  178.8810  145.8840 O   0  0  0  0  0  0  0  0  0  0  0  0
  1 16  1  0  0  0  0
  2 24  1  1  0  0  0
  3 11  1  0  0  0  0
  4 21  1  0  0  0  0
  4  3  2  0  0  0  0
  5 25  1  6  0  0  0
  6  5  1  0  0  0  0
  6 18  1  1  0  0  0
  7 24  1  1  0  0  0
  7 19  1  0  0  0  0
  8 17  1  0  0  0  0
  9 26  1  1  0  0  0
  9 28  1  0  0  0  0
  9 15  1  0  0  0  0
 10 20  1  0  0  0  0
 11 13  2  0  0  0  0
 12 13  1  6  0  0  0
 12  8  1  0  0  0  0
 12  2  1  0  0  0  0
 14 22  1  1  0  0  0
 14 27  1  0  0  0  0
 15 18  1  0  0  0  0
 17  7  1  0  0  0  0
 17 10  2  0  0  0  0
 19 16  1  0  0  0  0
 20 29  1  1  0  0  0
 20  1  1  0  0  0  0
 21 22  2  0  0  0  0
 22 13  1  0  0  0  0
 23 14  1  0  0  0  0
 23 28  1  0  0  0  0
 27  2  1  0  0  0  0
 27  5  1  0  0  0  0
 28  6  1  0  0  0  0
 29 30  1  0  0  0  0
 30 31  1  0  0  0  0
 32 30  2  0  0  0  0
M  END
>  <MODEL>
7

>  <REMARK>
 VINA RESULT:      -7.7      3.152      4.562
  Name = 
  2 active torsions:
  status: ('A' for Active; 'I' for Inactive)
    1  A    between atoms: C_20  and  C_29
    2  A    between atoms: C_29  and  C_30
                            x       y       z     vdW  Elec       q    Type
                         _______ _______ _______ _____ _____    ______ ____

>  <TORSDO>
F 2

$$$$
=
 OpenBabel11112416323D

 32 37  0  0  1  0  0  0  0  0999 V2000
  186.5050  176.6790  146.4400 O   0  0  0  0  0  0  0  0  0  0  0  0
  190.4040  175.2840  143.5300 N   0  0  1  0  0  0  0  0  0  0  0  0
  188.8660  173.6390  139.1780 C   0  0  0  0  0  3  0  0  0  0  0  0
  190.1590  173.1880  138.9040 C   0  0  0  0  0  3  0  0  0  0  0  0
  192.5920  174.4870  144.4820 C   0  0  1  0  0  3  0  0  0  0  0  0
  193.7170  173.4670  144.2480 C   0  0  1  0  0  3  0  0  0  0  0  0
  189.0910  176.8440  144.8430 C   0  0  1  0  0  3  0  0  0  0  0  0
  188.1870  175.8480  142.7340 N   0  0  0  0  0  2  0  0  0  0  0  0
  194.6870  171.8800  142.8870 C   0  0  2  0  0  3  0  0  0  0  0  0
  186.6770  177.0320  144.1370 C   0  0  0  0  0  3  0  0  0  0  0  0
  188.5670  174.1830  140.4290 C   0  0  0  0  0  3  0  0  0  0  0  0
  189.2170  174.8050  142.7920 C   0  0  1  0  0  3  0  0  0  0  0  0
  189.5610  174.2940  141.4130 C   0  0  0  0  0  0  0  0  0  0  0  0
  191.9450  173.9300  142.1740 C   0  0  2  0  0  3  0  0  0  0  0  0
  194.4570  171.2320  144.2500 C   0  0  0  0  0  2  0  0  0  0  0  0
  187.7510  176.9220  147.0680 C   0  0  0  0  0  2  0  0  0  0  0  0
  187.9280  176.6280  143.9000 C   0  0  0  0  0  0  0  0  0  0  0  0
  193.5590  172.1800  145.0130 C   0  0  0  0  0  2  0  0  0  0  0  0
  188.8590  177.5360  146.1900 C   0  0  0  0  0  2  0  0  0  0  0  0
  186.2650  177.6360  145.4370 C   0  0  1  0  0  3  0  0  0  0  0  0
  191.1490  173.2680  139.8860 C   0  0  0  0  0  3  0  0  0  0  0  0
  190.8530  173.7920  141.1500 C   0  0  0  0  0  0  0  0  0  0  0  0
  192.7210  172.7650  142.2520 O   0  0  0  0  0  0  0  0  0  0  0  0
  189.9680  175.6030  144.8960 C   0  0  0  0  0  2  0  0  0  0  0  0
  193.0860  175.7710  144.2360 O   0  0  0  0  0  1  0  0  0  0  0  0
  196.1620  172.1830  142.7000 C   0  0  0  0  0  1  0  0  0  0  0  0
  191.3890  174.1940  143.5720 C   0  0  2  0  0  3  0  0  0  0  0  0
  193.9120  173.1170  142.8280 N   0  0  1  0  0  0  0  0  0  0  0  0
  184.7870  177.9770  145.3880 C   0  0  0  0  0  2  0  0  0  0  0  0
  184.5130  178.9540  144.2970 C   0  0  0  0  0  0  0  0  0  0  0  0
  185.1900  180.1660  144.2630 O   0  0  0  0  0  1  0  0  0  0  0  0
  183.6910  178.6680  143.3870 O   0  0  0  0  0  0  0  0  0  0  0  0
  1 16  1  0  0  0  0
  2 27  1  0  0  0  0
  2 24  1  1  0  0  0
  3 11  1  0  0  0  0
  4  3  2  0  0  0  0
  4 21  1  0  0  0  0
  5 25  1  6  0  0  0
  6  5  1  0  0  0  0
  6 18  1  1  0  0  0
  7 24  1  1  0  0  0
  7 19  1  0  0  0  0
  8 12  1  0  0  0  0
  8 17  1  0  0  0  0
  9 26  1  1  0  0  0
  9 15  1  0  0  0  0
 10 20  1  0  0  0  0
 11 13  2  0  0  0  0
 12 13  1  6  0  0  0
 12  2  1  0  0  0  0
 14 22  1  6  0  0  0
 14 23  1  0  0  0  0
 14 27  1  0  0  0  0
 15 18  1  0  0  0  0
 17 10  2  0  0  0  0
 17  7  1  0  0  0  0
 19 16  1  0  0  0  0
 20 29  1  6  0  0  0
 20  1  1  0  0  0  0
 21 22  2  0  0  0  0
 22 13  1  0  0  0  0
 23 28  1  0  0  0  0
 27  5  1  0  0  0  0
 28  9  1  0  0  0  0
 28  6  1  0  0  0  0
 30 29  1  0  0  0  0
 31 30  1  0  0  0  0
 32 30  2  0  0  0  0
M  END
>  <MODEL>
8

>  <REMARK>
 VINA RESULT:      -7.6      2.481      3.836
  Name = 
  2 active torsions:
  status: ('A' for Active; 'I' for Inactive)
    1  A    between atoms: C_20  and  C_29
    2  A    between atoms: C_29  and  C_30
                            x       y       z     vdW  Elec       q    Type
                         _______ _______ _______ _____ _____    ______ ____

>  <TORSDO>
F 2

$$$$
=
 OpenBabel11112416323D

 32 37  0  0  1  0  0  0  0  0999 V2000
  187.1810  176.3870  146.6730 O   0  0  0  0  0  0  0  0  0  0  0  0
  191.2640  175.6520  143.7740 N   0  0  1  0  0  0  0  0  0  0  0  0
  190.0770  173.4130  139.5790 C   0  0  0  0  0  3  0  0  0  0  0  0
  191.4340  173.2290  139.3060 C   0  0  0  0  0  3  0  0  0  0  0  0
  193.5800  175.4080  144.7250 C   0  0  1  0  0  3  0  0  0  0  0  0
  194.8950  174.6370  144.5340 C   0  0  1  0  0  3  0  0  0  0  0  0
  189.6590  176.9850  145.0080 C   0  0  1  0  0  3  0  0  0  0  0  0
  188.9710  175.6730  142.9930 N   0  0  0  0  0  2  0  0  0  0  0  0
  196.1700  173.2010  143.2610 C   0  0  2  0  0  3  0  0  0  0  0  0
  187.2540  176.6040  144.3480 C   0  0  0  0  0  3  0  0  0  0  0  0
  189.6790  173.9680  140.7980 C   0  0  0  0  0  3  0  0  0  0  0  0
  190.2010  174.8800  143.0970 C   0  0  1  0  0  3  0  0  0  0  0  0
  190.6340  174.3570  141.7480 C   0  0  0  0  0  0  0  0  0  0  0  0
  193.0470  174.5640  142.4760 C   0  0  2  0  0  3  0  0  0  0  0  0
  196.0960  172.6160  144.6690 C   0  0  0  0  0  2  0  0  0  0  0  0
  188.3520  176.9330  147.2540 C   0  0  0  0  0  2  0  0  0  0  0  0
  188.5600  176.4600  144.1100 C   0  0  0  0  0  0  0  0  0  0  0  0
  195.0230  173.4040  145.3870 C   0  0  0  0  0  2  0  0  0  0  0  0
  189.2950  177.7050  146.3110 C   0  0  0  0  0  2  0  0  0  0  0  0
  186.7340  177.1980  145.6140 C   0  0  1  0  0  3  0  0  0  0  0  0
  192.3920  173.5880  140.2570 C   0  0  0  0  0  3  0  0  0  0  0  0
  192.0020  174.1250  141.4900 C   0  0  0  0  0  0  0  0  0  0  0  0
  194.0550  173.5990  142.6140 O   0  0  0  0  0  0  0  0  0  0  0  0
  190.7820  175.9660  145.1240 C   0  0  0  0  0  2  0  0  0  0  0  0
  193.7860  176.7470  144.3820 O   0  0  0  0  0  1  0  0  0  0  0  0
  197.5450  173.7970  143.0190 C   0  0  0  0  0  1  0  0  0  0  0  0
  192.4600  174.8020  143.8660 C   0  0  2  0  0  3  0  0  0  0  0  0
  195.1480  174.2370  143.1370 N   0  0  1  0  0  0  0  0  0  0  0  0
  185.2160  177.2120  145.5770 C   0  0  0  0  0  2  0  0  0  0  0  0
  184.6920  178.4710  146.1740 C   0  0  0  0  0  0  0  0  0  0  0  0
  185.3310  179.0400  147.2680 O   0  0  0  0  0  1  0  0  0  0  0  0
  183.6890  179.0390  145.6680 O   0  0  0  0  0  0  0  0  0  0  0  0
  1 16  1  0  0  0  0
  2 27  1  0  0  0  0
  2 24  1  1  0  0  0
  3 11  1  0  0  0  0
  4  3  2  0  0  0  0
  4 21  1  0  0  0  0
  5 25  1  6  0  0  0
  6  5  1  0  0  0  0
  6 18  1  1  0  0  0
  7 24  1  1  0  0  0
  7 19  1  0  0  0  0
  8 12  1  0  0  0  0
  8 17  1  0  0  0  0
  9 26  1  1  0  0  0
  9 15  1  0  0  0  0
 10 20  1  0  0  0  0
 11 13  2  0  0  0  0
 12 13  1  6  0  0  0
 12  2  1  0  0  0  0
 14 22  1  6  0  0  0
 14 23  1  0  0  0  0
 14 27  1  0  0  0  0
 15 18  1  0  0  0  0
 17 10  2  0  0  0  0
 17  7  1  0  0  0  0
 19 16  1  0  0  0  0
 20 29  1  6  0  0  0
 20  1  1  0  0  0  0
 21 22  2  0  0  0  0
 22 13  1  0  0  0  0
 23 28  1  0  0  0  0
 27  5  1  0  0  0  0
 28  9  1  0  0  0  0
 28  6  1  0  0  0  0
 29 30  1  0  0  0  0
 30 31  1  0  0  0  0
 32 30  2  0  0  0  0
M  END
>  <MODEL>
9

>  <REMARK>
 VINA RESULT:      -7.6      2.931      4.272
  Name = 
  2 active torsions:
  status: ('A' for Active; 'I' for Inactive)
    1  A    between atoms: C_20  and  C_29
    2  A    between atoms: C_29  and  C_30
                            x       y       z     vdW  Elec       q    Type
                         _______ _______ _______ _____ _____    ______ ____

>  <TORSDO>
F 2

$$$$
