=
 OpenBabel11112416583D

 31 35  0  0  0  0  0  0  0  0999 V2000
  185.3070  177.9750  140.9890 C   0  0  0  0  0  0  0  0  0  0  0  0
  187.1770  177.3730  144.2040 C   0  0  0  0  0  0  0  0  0  0  0  0
  186.3060  177.7550  145.2690 C   0  0  0  0  0  0  0  0  0  0  0  0
  184.1880  178.6150  146.1300 C   0  0  0  0  0  0  0  0  0  0  0  0
  186.8450  177.4480  142.8140 C   0  0  0  0  0  0  0  0  0  0  0  0
  186.2560  177.5670  140.0520 C   0  0  0  0  0  3  0  0  0  0  0  0
  185.0080  178.2530  145.0600 C   0  0  0  0  0  3  0  0  0  0  0  0
  189.3890  176.4850  143.5830 C   0  0  0  0  0  0  0  0  0  0  0  0
  184.0700  178.4410  140.5660 O   0  0  0  0  0  1  0  0  0  0  0  0
  188.0010  177.1570  146.8550 N   0  0  0  0  0  0  0  0  0  0  0  0
  182.9420  179.0920  145.8980 F   0  0  0  0  0  0  0  0  0  0  0  0
  189.0420  176.5670  142.2350 C   0  0  0  0  0  3  0  0  0  0  0  0
  188.4660  176.8850  144.5610 C   0  0  0  0  0  0  0  0  0  0  0  0
  185.6010  177.9150  142.3520 C   0  0  0  0  0  3  0  0  0  0  0  0
  184.6540  178.4850  147.4390 C   0  0  0  0  0  3  0  0  0  0  0  0
  187.7970  177.0380  141.8450 C   0  0  0  0  0  0  0  0  0  0  0  0
  187.4980  177.1000  140.4800 C   0  0  0  0  0  3  0  0  0  0  0  0
  188.8210  176.7970  145.8710 N   0  0  0  0  0  0  0  0  0  0  0  0
  186.7590  177.6310  146.6030 C   0  0  0  0  0  0  0  0  0  0  0  0
  185.9370  177.9940  147.6740 C   0  0  0  0  0  3  0  0  0  0  0  0
  191.9040  177.9900  143.8710 O   0  0  0  0  0  0  0  0  0  0  0  0
  191.8930  176.7550  144.1210 C   0  0  0  0  0  0  0  0  0  0  0  0
  190.6800  175.9980  143.9890 N   0  0  0  0  0  2  0  0  0  0  0  0
  195.5000  174.7510  145.3050 C   0  0  0  0  0  0  0  0  0  0  0  0
  193.9150  175.4050  143.6000 C   0  0  0  0  0  3  0  0  0  0  0  0
  192.8370  176.6950  146.8690 F   0  0  0  0  0  0  0  0  0  0  0  0
  196.7500  174.0530  145.7000 C   0  0  0  0  0  1  0  0  0  0  0  0
  195.0900  174.7490  143.9700 C   0  0  0  0  0  3  0  0  0  0  0  0
  193.5540  176.0680  145.9040 C   0  0  0  0  0  0  0  0  0  0  0  0
  193.1320  176.0710  144.5560 C   0  0  0  0  0  0  0  0  0  0  0  0
  194.7320  175.4090  146.2680 C   0  0  0  0  0  3  0  0  0  0  0  0
  1 14  1  0  0  0  0
  2 13  2  0  0  0  0
  2  3  1  0  0  0  0
  3 19  1  0  0  0  0
  4 15  2  0  0  0  0
  5  2  1  0  0  0  0
  6 17  1  0  0  0  0
  6  1  2  0  0  0  0
  7  3  2  0  0  0  0
  7  4  1  0  0  0  0
  8 23  1  0  0  0  0
  8 13  1  0  0  0  0
  9  1  1  0  0  0  0
 11  4  1  0  0  0  0
 12  8  2  0  0  0  0
 13 18  1  0  0  0  0
 14  5  2  0  0  0  0
 15 20  1  0  0  0  0
 16 12  1  0  0  0  0
 16  5  1  0  0  0  0
 17 16  2  0  0  0  0
 18 10  2  0  0  0  0
 19 10  1  0  0  0  0
 19 20  2  0  0  0  0
 21 22  2  0  0  0  0
 22 30  1  0  0  0  0
 23 22  1  0  0  0  0
 24 27  1  0  0  0  0
 24 31  1  0  0  0  0
 25 28  1  0  0  0  0
 25 30  2  0  0  0  0
 28 24  2  0  0  0  0
 29 31  2  0  0  0  0
 29 26  1  0  0  0  0
 30 29  1  0  0  0  0
M  END
>  <MODEL>
1

>  <REMARK>
 VINA RESULT:      -9.9      0.000      0.000
  Name = 
  2 active torsions:
  status: ('A' for Active; 'I' for Inactive)
    1  A    between atoms: C_5  and  C_30
    2  A    between atoms: C_10  and  N_16
                            x       y       z     vdW  Elec       q    Type
                         _______ _______ _______ _____ _____    ______ ____

>  <TORSDO>
F 2

$$$$
=
 OpenBabel11112416583D

 31 35  0  0  0  0  0  0  0  0999 V2000
  185.2520  177.9970  140.9830 C   0  0  0  0  0  0  0  0  0  0  0  0
  187.1800  177.3780  144.1610 C   0  0  0  0  0  0  0  0  0  0  0  0
  186.3250  177.7460  145.2430 C   0  0  0  0  0  0  0  0  0  0  0  0
  184.2180  178.5880  146.1480 C   0  0  0  0  0  0  0  0  0  0  0  0
  186.8240  177.4620  142.7780 C   0  0  0  0  0  0  0  0  0  0  0  0
  186.1870  177.6030  140.0270 C   0  0  0  0  0  3  0  0  0  0  0  0
  185.0210  178.2390  145.0600 C   0  0  0  0  0  3  0  0  0  0  0  0
  189.3860  176.5070  143.4950 C   0  0  0  0  0  0  0  0  0  0  0  0
  184.0060  178.4600  140.5850 O   0  0  0  0  0  1  0  0  0  0  0  0
  188.0490  177.1430  146.7950 N   0  0  0  0  0  0  0  0  0  0  0  0
  182.9660  179.0610  145.9410 F   0  0  0  0  0  0  0  0  0  0  0  0
  189.0150  176.5980  142.1540 C   0  0  0  0  0  3  0  0  0  0  0  0
  188.4770  176.8930  144.4920 C   0  0  0  0  0  0  0  0  0  0  0  0
  185.5700  177.9270  142.3400 C   0  0  0  0  0  3  0  0  0  0  0  0
  184.7060  178.4490  147.4470 C   0  0  0  0  0  3  0  0  0  0  0  0
  187.7610  177.0660  141.7890 C   0  0  0  0  0  0  0  0  0  0  0  0
  187.4390  177.1380  140.4300 C   0  0  0  0  0  3  0  0  0  0  0  0
  188.8540  176.7960  145.7950 N   0  0  0  0  0  0  0  0  0  0  0  0
  186.8020  177.6130  146.5690 C   0  0  0  0  0  0  0  0  0  0  0  0
  185.9960  177.9620  147.6570 C   0  0  0  0  0  3  0  0  0  0  0  0
  191.8750  178.0390  143.8510 O   0  0  0  0  0  0  0  0  0  0  0  0
  191.8860  176.7930  144.0410 C   0  0  0  0  0  0  0  0  0  0  0  0
  190.6860  176.0230  143.8750 N   0  0  0  0  0  2  0  0  0  0  0  0
  195.4870  174.8080  145.2740 C   0  0  0  0  0  0  0  0  0  0  0  0
  193.3040  175.7190  145.7780 C   0  0  0  0  0  3  0  0  0  0  0  0
  194.0640  176.1950  142.2130 F   0  0  0  0  0  0  0  0  0  0  0  0
  196.7280  174.1200  145.7140 C   0  0  0  0  0  1  0  0  0  0  0  0
  194.4700  175.0720  146.1930 C   0  0  0  0  0  3  0  0  0  0  0  0
  194.1710  175.8390  143.5170 C   0  0  0  0  0  0  0  0  0  0  0  0
  193.1370  176.1110  144.4400 C   0  0  0  0  0  0  0  0  0  0  0  0
  195.3360  175.1910  143.9390 C   0  0  0  0  0  3  0  0  0  0  0  0
  1 14  1  0  0  0  0
  2 13  2  0  0  0  0
  2  3  1  0  0  0  0
  3 19  1  0  0  0  0
  4 15  2  0  0  0  0
  5  2  1  0  0  0  0
  6 17  1  0  0  0  0
  6  1  2  0  0  0  0
  7  3  2  0  0  0  0
  7  4  1  0  0  0  0
  8 23  1  0  0  0  0
  8 13  1  0  0  0  0
  9  1  1  0  0  0  0
 11  4  1  0  0  0  0
 12  8  2  0  0  0  0
 13 18  1  0  0  0  0
 14  5  2  0  0  0  0
 15 20  1  0  0  0  0
 16 12  1  0  0  0  0
 16  5  1  0  0  0  0
 17 16  2  0  0  0  0
 18 10  2  0  0  0  0
 19 10  1  0  0  0  0
 19 20  2  0  0  0  0
 21 22  2  0  0  0  0
 22 30  1  0  0  0  0
 23 22  1  0  0  0  0
 24 27  1  0  0  0  0
 24 28  1  0  0  0  0
 25 28  2  0  0  0  0
 26 29  1  0  0  0  0
 29 31  1  0  0  0  0
 29 30  2  0  0  0  0
 30 25  1  0  0  0  0
 31 24  2  0  0  0  0
M  END
>  <MODEL>
2

>  <REMARK>
 VINA RESULT:      -9.7      0.889      1.221
  Name = 
  2 active torsions:
  status: ('A' for Active; 'I' for Inactive)
    1  A    between atoms: C_5  and  C_30
    2  A    between atoms: C_10  and  N_16
                            x       y       z     vdW  Elec       q    Type
                         _______ _______ _______ _____ _____    ______ ____

>  <TORSDO>
F 2

$$$$
=
 OpenBabel11112416583D

 31 35  0  0  0  0  0  0  0  0999 V2000
  184.6120  178.5230  146.3910 C   0  0  0  0  0  0  0  0  0  0  0  0
  187.2990  177.4440  143.9780 C   0  0  0  0  0  0  0  0  0  0  0  0
  186.7480  177.5570  142.6660 C   0  0  0  0  0  0  0  0  0  0  0  0
  184.9360  178.0930  141.1170 C   0  0  0  0  0  0  0  0  0  0  0  0
  186.5980  177.7600  145.1850 C   0  0  0  0  0  0  0  0  0  0  0  0
  185.2740  178.3660  147.6080 C   0  0  0  0  0  3  0  0  0  0  0  0
  185.4360  177.9980  142.4180 C   0  0  0  0  0  3  0  0  0  0  0  0
  189.2670  176.8420  145.3310 C   0  0  0  0  0  0  0  0  0  0  0  0
  183.3010  178.9760  146.3670 O   0  0  0  0  0  1  0  0  0  0  0  0
  188.8190  176.7820  141.7420 N   0  0  0  0  0  0  0  0  0  0  0  0
  183.6680  178.5210  140.9080 F   0  0  0  0  0  0  0  0  0  0  0  0
  188.5640  177.1560  146.4930 C   0  0  0  0  0  3  0  0  0  0  0  0
  188.6420  176.9830  144.0820 C   0  0  0  0  0  0  0  0  0  0  0  0
  185.2690  178.2220  145.1960 C   0  0  0  0  0  3  0  0  0  0  0  0
  185.7440  177.7480  140.0340 C   0  0  0  0  0  3  0  0  0  0  0  0
  187.2530  177.6070  146.4340 C   0  0  0  0  0  0  0  0  0  0  0  0
  186.5910  177.9100  147.6290 C   0  0  0  0  0  3  0  0  0  0  0  0
  189.3430  176.6730  142.9590 N   0  0  0  0  0  0  0  0  0  0  0  0
  187.5510  177.2110  141.5540 C   0  0  0  0  0  0  0  0  0  0  0  0
  187.0490  177.3080  140.2520 C   0  0  0  0  0  3  0  0  0  0  0  0
  190.2480  174.1710  146.0880 O   0  0  0  0  0  0  0  0  0  0  0  0
  191.0780  175.0620  145.7630 C   0  0  0  0  0  0  0  0  0  0  0  0
  190.6260  176.3730  145.3890 N   0  0  0  0  0  2  0  0  0  0  0  0
  195.2980  174.2790  145.7930 C   0  0  0  0  0  0  0  0  0  0  0  0
  193.4230  175.7410  146.2340 C   0  0  0  0  0  3  0  0  0  0  0  0
  192.2260  172.5590  144.8360 F   0  0  0  0  0  0  0  0  0  0  0  0
  196.7610  174.0220  145.8090 C   0  0  0  0  0  1  0  0  0  0  0  0
  194.7990  175.5000  146.2490 C   0  0  0  0  0  3  0  0  0  0  0  0
  193.0440  173.5350  145.3030 C   0  0  0  0  0  0  0  0  0  0  0  0
  192.5290  174.7670  145.7620 C   0  0  0  0  0  0  0  0  0  0  0  0
  194.4220  173.3000  145.3210 C   0  0  0  0  0  3  0  0  0  0  0  0
  1  6  1  0  0  0  0
  2 13  2  0  0  0  0
  2  5  1  0  0  0  0
  3  2  1  0  0  0  0
  4  7  1  0  0  0  0
  5 14  1  0  0  0  0
  5 16  2  0  0  0  0
  6 17  2  0  0  0  0
  7  3  2  0  0  0  0
  8 23  1  0  0  0  0
  8 12  2  0  0  0  0
  9  1  1  0  0  0  0
 10 18  2  0  0  0  0
 11  4  1  0  0  0  0
 13  8  1  0  0  0  0
 14  1  2  0  0  0  0
 15 20  1  0  0  0  0
 15  4  2  0  0  0  0
 16 12  1  0  0  0  0
 16 17  1  0  0  0  0
 18 13  1  0  0  0  0
 19 10  1  0  0  0  0
 19  3  1  0  0  0  0
 20 19  2  0  0  0  0
 22 21  2  0  0  0  0
 23 22  1  0  0  0  0
 24 27  1  0  0  0  0
 24 28  1  0  0  0  0
 25 28  2  0  0  0  0
 26 29  1  0  0  0  0
 29 31  1  0  0  0  0
 29 30  2  0  0  0  0
 30 22  1  0  0  0  0
 30 25  1  0  0  0  0
 31 24  2  0  0  0  0
M  END
>  <MODEL>
3

>  <REMARK>
 VINA RESULT:      -9.5      2.179      4.239
  Name = 
  2 active torsions:
  status: ('A' for Active; 'I' for Inactive)
    1  A    between atoms: C_5  and  C_30
    2  A    between atoms: C_10  and  N_16
                            x       y       z     vdW  Elec       q    Type
                         _______ _______ _______ _____ _____    ______ ____

>  <TORSDO>
F 2

$$$$
=
 OpenBabel11112416583D

 31 35  0  0  0  0  0  0  0  0999 V2000
  186.2140  177.8990  146.7740 C   0  0  0  0  0  0  0  0  0  0  0  0
  189.1280  176.3780  144.9330 C   0  0  0  0  0  0  0  0  0  0  0  0
  190.2440  176.4100  145.8230 C   0  0  0  0  0  0  0  0  0  0  0  0
  191.2890  176.9440  147.9650 C   0  0  0  0  0  0  0  0  0  0  0  0
  187.8200  176.8640  145.2500 C   0  0  0  0  0  0  0  0  0  0  0  0
  185.2130  177.8050  145.8070 C   0  0  0  0  0  3  0  0  0  0  0  0
  190.1730  176.9320  147.1270 C   0  0  0  0  0  3  0  0  0  0  0  0
  188.3050  175.7470  142.6990 C   0  0  0  0  0  0  0  0  0  0  0  0
  185.9300  178.4560  148.0130 O   0  0  0  0  0  1  0  0  0  0  0  0
  191.6030  175.3820  144.1380 N   0  0  0  0  0  0  0  0  0  0  0  0
  191.1910  177.4530  149.2160 F   0  0  0  0  0  0  0  0  0  0  0  0
  187.0390  176.2270  143.0310 C   0  0  0  0  0  3  0  0  0  0  0  0
  189.3430  175.8200  143.6400 C   0  0  0  0  0  0  0  0  0  0  0  0
  187.5000  177.4340  146.4950 C   0  0  0  0  0  3  0  0  0  0  0  0
  192.5050  176.4310  147.5140 C   0  0  0  0  0  3  0  0  0  0  0  0
  186.7890  176.7780  144.2790 C   0  0  0  0  0  0  0  0  0  0  0  0
  185.5010  177.2460  144.5620 C   0  0  0  0  0  3  0  0  0  0  0  0
  190.5710  175.3460  143.3000 N   0  0  0  0  0  0  0  0  0  0  0  0
  191.4860  175.8940  145.3840 C   0  0  0  0  0  0  0  0  0  0  0  0
  192.6030  175.9070  146.2250 C   0  0  0  0  0  3  0  0  0  0  0  0
  187.7700  173.0040  141.7700 O   0  0  0  0  0  0  0  0  0  0  0  0
  188.2950  173.8310  140.9770 C   0  0  0  0  0  0  0  0  0  0  0  0
  188.5670  175.1750  141.4050 N   0  0  0  0  0  2  0  0  0  0  0  0
  189.3270  172.5920  136.9990 C   0  0  0  0  0  0  0  0  0  0  0  0
  189.4080  172.2700  139.3940 C   0  0  0  0  0  3  0  0  0  0  0  0
  187.4670  175.2900  138.6040 F   0  0  0  0  0  0  0  0  0  0  0  0
  189.6910  172.1520  135.6280 C   0  0  0  0  0  1  0  0  0  0  0  0
  189.7510  171.8550  138.1060 C   0  0  0  0  0  3  0  0  0  0  0  0
  188.2120  174.1660  138.4690 C   0  0  0  0  0  0  0  0  0  0  0  0
  188.6380  173.4260  139.5950 C   0  0  0  0  0  0  0  0  0  0  0  0
  188.5600  173.7450  137.1820 C   0  0  0  0  0  3  0  0  0  0  0  0
  1  9  1  0  0  0  0
  2  5  1  0  0  0  0
  2  3  1  0  0  0  0
  3  7  1  0  0  0  0
  4 11  1  0  0  0  0
  5 14  2  0  0  0  0
  6  1  2  0  0  0  0
  7  4  2  0  0  0  0
  8 12  2  0  0  0  0
  8 13  1  0  0  0  0
 10 19  1  0  0  0  0
 12 16  1  0  0  0  0
 13  2  2  0  0  0  0
 14  1  1  0  0  0  0
 15  4  1  0  0  0  0
 16 17  2  0  0  0  0
 16  5  1  0  0  0  0
 17  6  1  0  0  0  0
 18 13  1  0  0  0  0
 18 10  2  0  0  0  0
 19  3  2  0  0  0  0
 19 20  1  0  0  0  0
 20 15  2  0  0  0  0
 22 23  1  0  0  0  0
 22 21  2  0  0  0  0
 23  8  1  0  0  0  0
 24 31  2  0  0  0  0
 24 28  1  0  0  0  0
 25 30  1  0  0  0  0
 27 24  1  0  0  0  0
 28 25  2  0  0  0  0
 29 26  1  0  0  0  0
 29 30  2  0  0  0  0
 30 22  1  0  0  0  0
 31 29  1  0  0  0  0
M  END
>  <MODEL>
4

>  <REMARK>
 VINA RESULT:      -8.7      3.872      6.728
  Name = 
  2 active torsions:
  status: ('A' for Active; 'I' for Inactive)
    1  A    between atoms: C_5  and  C_30
    2  A    between atoms: C_10  and  N_16
                            x       y       z     vdW  Elec       q    Type
                         _______ _______ _______ _____ _____    ______ ____

>  <TORSDO>
F 2

$$$$
=
 OpenBabel11112416583D

 31 35  0  0  0  0  0  0  0  0999 V2000
  186.2980  178.6410  144.3090 C   0  0  0  0  0  0  0  0  0  0  0  0
  188.8460  175.8680  144.4300 C   0  0  0  0  0  0  0  0  0  0  0  0
  189.6540  176.0960  145.5850 C   0  0  0  0  0  0  0  0  0  0  0  0
  190.2730  177.3680  147.5770 C   0  0  0  0  0  0  0  0  0  0  0  0
  187.7570  176.7000  144.0220 C   0  0  0  0  0  0  0  0  0  0  0  0
  185.5920  178.3000  143.1560 C   0  0  0  0  0  3  0  0  0  0  0  0
  189.4590  177.1820  146.4570 C   0  0  0  0  0  3  0  0  0  0  0  0
  188.4160  174.4230  142.4820 C   0  0  0  0  0  0  0  0  0  0  0  0
  185.9390  179.7690  145.0340 O   0  0  0  0  0  1  0  0  0  0  0  0
  190.9290  174.1340  145.0680 N   0  0  0  0  0  0  0  0  0  0  0  0
  190.0620  178.4230  148.3990 F   0  0  0  0  0  0  0  0  0  0  0  0
  187.3580  175.2490  142.1040 C   0  0  0  0  0  3  0  0  0  0  0  0
  189.1550  174.7280  143.6350 C   0  0  0  0  0  0  0  0  0  0  0  0
  187.3670  177.8490  144.7330 C   0  0  0  0  0  3  0  0  0  0  0  0
  191.3020  176.4660  147.8470 C   0  0  0  0  0  3  0  0  0  0  0  0
  187.0250  176.3700  142.8520 C   0  0  0  0  0  0  0  0  0  0  0  0
  185.9550  177.1660  142.4300 C   0  0  0  0  0  3  0  0  0  0  0  0
  190.1830  173.9110  143.9890 N   0  0  0  0  0  0  0  0  0  0  0  0
  190.7030  175.1930  145.8770 C   0  0  0  0  0  0  0  0  0  0  0  0
  191.5160  175.3810  146.9990 C   0  0  0  0  0  3  0  0  0  0  0  0
  190.4880  174.1620  140.4060 O   0  0  0  0  0  0  0  0  0  0  0  0
  189.7800  173.1610  140.7000 C   0  0  0  0  0  0  0  0  0  0  0  0
  188.7630  173.2610  141.7090 N   0  0  0  0  0  2  0  0  0  0  0  0
  190.3550  169.4460  138.6280 C   0  0  0  0  0  0  0  0  0  0  0  0
  189.5180  171.7130  138.6960 C   0  0  0  0  0  3  0  0  0  0  0  0
  191.1340  170.8810  141.8910 F   0  0  0  0  0  0  0  0  0  0  0  0
  190.5470  168.1660  137.8980 C   0  0  0  0  0  1  0  0  0  0  0  0
  189.6970  170.5100  138.0090 C   0  0  0  0  0  3  0  0  0  0  0  0
  190.6560  170.7870  140.6250 C   0  0  0  0  0  0  0  0  0  0  0  0
  189.9910  171.8690  140.0080 C   0  0  0  0  0  0  0  0  0  0  0  0
  190.8330  169.5850  139.9320 C   0  0  0  0  0  3  0  0  0  0  0  0
  1 14  1  0  0  0  0
  1  9  1  0  0  0  0
  2  3  1  0  0  0  0
  3 19  2  0  0  0  0
  3  7  1  0  0  0  0
  4 15  1  0  0  0  0
  4 11  1  0  0  0  0
  5  2  1  0  0  0  0
  5 14  2  0  0  0  0
  6  1  2  0  0  0  0
  7  4  2  0  0  0  0
  8 13  1  0  0  0  0
 10 19  1  0  0  0  0
 12  8  2  0  0  0  0
 12 16  1  0  0  0  0
 13 18  1  0  0  0  0
 13  2  2  0  0  0  0
 16  5  1  0  0  0  0
 17 16  2  0  0  0  0
 17  6  1  0  0  0  0
 18 10  2  0  0  0  0
 19 20  1  0  0  0  0
 20 15  2  0  0  0  0
 21 22  2  0  0  0  0
 22 23  1  0  0  0  0
 23  8  1  0  0  0  0
 24 31  1  0  0  0  0
 25 30  2  0  0  0  0
 27 24  1  0  0  0  0
 28 24  2  0  0  0  0
 28 25  1  0  0  0  0
 29 26  1  0  0  0  0
 30 29  1  0  0  0  0
 30 22  1  0  0  0  0
 31 29  2  0  0  0  0
M  END
>  <MODEL>
5

>  <REMARK>
 VINA RESULT:      -8.3      4.401      5.899
  Name = 
  2 active torsions:
  status: ('A' for Active; 'I' for Inactive)
    1  A    between atoms: C_5  and  C_30
    2  A    between atoms: C_10  and  N_16
                            x       y       z     vdW  Elec       q    Type
                         _______ _______ _______ _____ _____    ______ ____

>  <TORSDO>
F 2

$$$$
=
 OpenBabel11112416583D

 31 35  0  0  0  0  0  0  0  0999 V2000
  192.0180  173.3940  142.0240 C   0  0  0  0  0  0  0  0  0  0  0  0
  189.6800  175.5900  144.0010 C   0  0  0  0  0  0  0  0  0  0  0  0
  190.3600  175.9410  145.2060 C   0  0  0  0  0  0  0  0  0  0  0  0
  192.2890  175.8690  146.7030 C   0  0  0  0  0  0  0  0  0  0  0  0
  190.2260  174.7610  142.9710 C   0  0  0  0  0  0  0  0  0  0  0  0
  191.2410  173.1310  140.8960 C   0  0  0  0  0  3  0  0  0  0  0  0
  191.6600  175.5020  145.5120 C   0  0  0  0  0  3  0  0  0  0  0  0
  187.6200  175.8150  142.6690 C   0  0  0  0  0  0  0  0  0  0  0  0
  193.2920  172.8550  142.1300 O   0  0  0  0  0  1  0  0  0  0  0  0
  188.4530  177.2200  145.8960 N   0  0  0  0  0  0  0  0  0  0  0  0
  193.5420  175.4310  146.9710 F   0  0  0  0  0  0  0  0  0  0  0  0
  188.1740  175.0050  141.6780 C   0  0  0  0  0  3  0  0  0  0  0  0
  188.3650  176.1070  143.8210 C   0  0  0  0  0  0  0  0  0  0  0  0
  191.5130  174.1990  143.0460 C   0  0  0  0  0  3  0  0  0  0  0  0
  191.6260  176.6890  147.6160 C   0  0  0  0  0  3  0  0  0  0  0  0
  189.4520  174.4810  141.8150 C   0  0  0  0  0  0  0  0  0  0  0  0
  189.9610  173.6740  140.7930 C   0  0  0  0  0  3  0  0  0  0  0  0
  187.8100  176.8990  144.7770 N   0  0  0  0  0  0  0  0  0  0  0  0
  189.7050  176.7720  146.1450 C   0  0  0  0  0  0  0  0  0  0  0  0
  190.3360  177.1390  147.3380 C   0  0  0  0  0  3  0  0  0  0  0  0
  186.7930  178.2790  141.2850 O   0  0  0  0  0  0  0  0  0  0  0  0
  185.9190  177.5650  141.8470 C   0  0  0  0  0  0  0  0  0  0  0  0
  186.2960  176.3580  142.5290 N   0  0  0  0  0  2  0  0  0  0  0  0
  181.7840  178.7020  141.6600 C   0  0  0  0  0  0  0  0  0  0  0  0
  183.8040  177.9150  140.5890 C   0  0  0  0  0  3  0  0  0  0  0  0
  184.4200  178.4550  144.1720 F   0  0  0  0  0  0  0  0  0  0  0  0
  180.3530  179.0920  141.5810 C   0  0  0  0  0  1  0  0  0  0  0  0
  182.4590  178.2820  140.5130 C   0  0  0  0  0  3  0  0  0  0  0  0
  183.8030  178.3890  142.9660 C   0  0  0  0  0  0  0  0  0  0  0  0
  184.4940  177.9630  141.8100 C   0  0  0  0  0  0  0  0  0  0  0  0
  182.4560  178.7550  142.8830 C   0  0  0  0  0  3  0  0  0  0  0  0
  1  9  1  0  0  0  0
  1 14  1  0  0  0  0
  2  3  1  0  0  0  0
  3  7  2  0  0  0  0
  3 19  1  0  0  0  0
  4 11  1  0  0  0  0
  4 15  2  0  0  0  0
  5 14  2  0  0  0  0
  5  2  1  0  0  0  0
  6  1  2  0  0  0  0
  7  4  1  0  0  0  0
  8 13  1  0  0  0  0
 10 19  1  0  0  0  0
 12 16  1  0  0  0  0
 12  8  2  0  0  0  0
 13  2  2  0  0  0  0
 13 18  1  0  0  0  0
 16  5  1  0  0  0  0
 17  6  1  0  0  0  0
 17 16  2  0  0  0  0
 18 10  2  0  0  0  0
 19 20  2  0  0  0  0
 20 15  1  0  0  0  0
 21 22  2  0  0  0  0
 22 23  1  0  0  0  0
 23  8  1  0  0  0  0
 24 31  1  0  0  0  0
 25 30  2  0  0  0  0
 27 24  1  0  0  0  0
 28 25  1  0  0  0  0
 28 24  2  0  0  0  0
 29 26  1  0  0  0  0
 30 22  1  0  0  0  0
 30 29  1  0  0  0  0
 31 29  2  0  0  0  0
M  END
>  <MODEL>
6

>  <REMARK>
 VINA RESULT:      -7.9      2.725      8.185
  Name = 
  2 active torsions:
  status: ('A' for Active; 'I' for Inactive)
    1  A    between atoms: C_5  and  C_30
    2  A    between atoms: C_10  and  N_16
                            x       y       z     vdW  Elec       q    Type
                         _______ _______ _______ _____ _____    ______ ____

>  <TORSDO>
F 2

$$$$
=
 OpenBabel11112416583D

 31 35  0  0  0  0  0  0  0  0999 V2000
  191.7340  176.0180  146.4780 C   0  0  0  0  0  0  0  0  0  0  0  0
  189.5660  175.4110  143.4570 C   0  0  0  0  0  0  0  0  0  0  0  0
  190.3210  174.5950  142.5620 C   0  0  0  0  0  0  0  0  0  0  0  0
  192.3280  173.3510  141.9360 C   0  0  0  0  0  0  0  0  0  0  0  0
  190.0330  175.8690  144.7300 C   0  0  0  0  0  0  0  0  0  0  0  0
  190.8900  176.8110  147.2540 C   0  0  0  0  0  3  0  0  0  0  0  0
  191.6250  174.1490  142.8410 C   0  0  0  0  0  3  0  0  0  0  0  0
  187.4410  176.5900  143.8600 C   0  0  0  0  0  0  0  0  0  0  0  0
  192.9990  175.6890  146.9450 O   0  0  0  0  0  1  0  0  0  0  0  0
  188.4880  174.6140  141.0180 N   0  0  0  0  0  0  0  0  0  0  0  0
  193.5830  172.9360  142.2320 F   0  0  0  0  0  0  0  0  0  0  0  0
  187.9180  177.0240  145.0960 C   0  0  0  0  0  3  0  0  0  0  0  0
  188.2560  175.7890  143.0460 C   0  0  0  0  0  0  0  0  0  0  0  0
  191.3080  175.5550  145.2320 C   0  0  0  0  0  3  0  0  0  0  0  0
  191.7380  172.9820  140.7280 C   0  0  0  0  0  3  0  0  0  0  0  0
  189.1890  176.6780  145.5340 C   0  0  0  0  0  0  0  0  0  0  0  0
  189.6190  177.1400  146.7820 C   0  0  0  0  0  3  0  0  0  0  0  0
  187.7750  175.3730  141.8440 N   0  0  0  0  0  0  0  0  0  0  0  0
  189.7400  174.2090  141.3310 C   0  0  0  0  0  0  0  0  0  0  0  0
  190.4460  173.4100  140.4260 C   0  0  0  0  0  3  0  0  0  0  0  0
  186.6380  178.9120  142.2380 O   0  0  0  0  0  0  0  0  0  0  0  0
  185.7590  178.0890  142.6130 C   0  0  0  0  0  0  0  0  0  0  0  0
  186.1250  176.9480  143.4050 N   0  0  0  0  0  2  0  0  0  0  0  0
  181.6650  178.6520  141.4550 C   0  0  0  0  0  0  0  0  0  0  0  0
  183.9530  178.1000  140.9050 C   0  0  0  0  0  3  0  0  0  0  0  0
  183.6800  178.8640  144.4900 F   0  0  0  0  0  0  0  0  0  0  0  0
  180.2510  178.8430  141.0410 C   0  0  0  0  0  1  0  0  0  0  0  0
  182.6250  178.2800  140.5130 C   0  0  0  0  0  3  0  0  0  0  0  0
  183.3620  178.6660  143.1870 C   0  0  0  0  0  0  0  0  0  0  0  0
  184.3410  178.2900  142.2400 C   0  0  0  0  0  0  0  0  0  0  0  0
  182.0340  178.8440  142.7880 C   0  0  0  0  0  3  0  0  0  0  0  0
  1  9  1  0  0  0  0
  1  6  1  0  0  0  0
  2  5  1  0  0  0  0
  3  7  2  0  0  0  0
  3  2  1  0  0  0  0
  4 11  1  0  0  0  0
  4  7  1  0  0  0  0
  5 14  1  0  0  0  0
  5 16  2  0  0  0  0
  8 12  2  0  0  0  0
 10 19  1  0  0  0  0
 10 18  2  0  0  0  0
 12 16  1  0  0  0  0
 13  2  2  0  0  0  0
 13  8  1  0  0  0  0
 14  1  2  0  0  0  0
 15  4  2  0  0  0  0
 16 17  1  0  0  0  0
 17  6  2  0  0  0  0
 18 13  1  0  0  0  0
 19  3  1  0  0  0  0
 20 15  1  0  0  0  0
 20 19  2  0  0  0  0
 21 22  2  0  0  0  0
 22 23  1  0  0  0  0
 23  8  1  0  0  0  0
 24 31  1  0  0  0  0
 25 30  2  0  0  0  0
 27 24  1  0  0  0  0
 28 25  1  0  0  0  0
 28 24  2  0  0  0  0
 29 26  1  0  0  0  0
 30 22  1  0  0  0  0
 30 29  1  0  0  0  0
 31 29  2  0  0  0  0
M  END
>  <MODEL>
7

>  <REMARK>
 VINA RESULT:      -7.8      2.970      9.055
  Name = 
  2 active torsions:
  status: ('A' for Active; 'I' for Inactive)
    1  A    between atoms: C_5  and  C_30
    2  A    between atoms: C_10  and  N_16
                            x       y       z     vdW  Elec       q    Type
                         _______ _______ _______ _____ _____    ______ ____

>  <TORSDO>
F 2

$$$$
=
 OpenBabel11112416583D

 31 35  0  0  0  0  0  0  0  0999 V2000
  195.7900  173.3780  145.2200 C   0  0  0  0  0  0  0  0  0  0  0  0
  192.2110  172.8880  144.1480 C   0  0  0  0  0  0  0  0  0  0  0  0
  192.1760  171.7090  143.3460 C   0  0  0  0  0  0  0  0  0  0  0  0
  193.2380  169.7890  142.2700 C   0  0  0  0  0  0  0  0  0  0  0  0
  193.3910  173.4250  144.7550 C   0  0  0  0  0  0  0  0  0  0  0  0
  195.6800  174.5410  145.9820 C   0  0  0  0  0  3  0  0  0  0  0  0
  193.3170  170.9370  143.0610 C   0  0  0  0  0  3  0  0  0  0  0  0
  190.9170  174.7400  145.1300 C   0  0  0  0  0  0  0  0  0  0  0  0
  197.0260  172.7660  145.0630 O   0  0  0  0  0  1  0  0  0  0  0  0
  189.8150  171.9940  143.0500 N   0  0  0  0  0  0  0  0  0  0  0  0
  194.3530  169.0650  142.0130 F   0  0  0  0  0  0  0  0  0  0  0  0
  192.0800  175.2440  145.7110 C   0  0  0  0  0  3  0  0  0  0  0  0
  190.9790  173.5720  144.3550 C   0  0  0  0  0  0  0  0  0  0  0  0
  194.6580  172.8300  144.6150 C   0  0  0  0  0  3  0  0  0  0  0  0
  192.0090  169.3880  141.7460 C   0  0  0  0  0  3  0  0  0  0  0  0
  193.3000  174.6070  145.5340 C   0  0  0  0  0  0  0  0  0  0  0  0
  194.4380  175.1530  146.1380 C   0  0  0  0  0  3  0  0  0  0  0  0
  189.8350  173.0940  143.7960 N   0  0  0  0  0  0  0  0  0  0  0  0
  190.9400  171.2850  142.8040 C   0  0  0  0  0  0  0  0  0  0  0  0
  190.8620  170.1350  142.0130 C   0  0  0  0  0  3  0  0  0  0  0  0
  190.2160  177.5430  144.5620 O   0  0  0  0  0  0  0  0  0  0  0  0
  189.3350  176.7700  145.0270 C   0  0  0  0  0  0  0  0  0  0  0  0
  189.6510  175.3980  145.3120 N   0  0  0  0  0  2  0  0  0  0  0  0
  185.3650  178.1820  145.8420 C   0  0  0  0  0  0  0  0  0  0  0  0
  187.3650  177.0070  146.5240 C   0  0  0  0  0  3  0  0  0  0  0  0
  187.7700  178.2810  143.1000 F   0  0  0  0  0  0  0  0  0  0  0  0
  183.9920  178.6660  146.1380 C   0  0  0  0  0  1  0  0  0  0  0  0
  186.0740  177.4600  146.8030 C   0  0  0  0  0  3  0  0  0  0  0  0
  187.2400  178.0000  144.3160 C   0  0  0  0  0  0  0  0  0  0  0  0
  187.9650  177.2680  145.2820 C   0  0  0  0  0  0  0  0  0  0  0  0
  185.9480  178.4510  144.6020 C   0  0  0  0  0  3  0  0  0  0  0  0
  1  6  1  0  0  0  0
  2 13  2  0  0  0  0
  2  5  1  0  0  0  0
  3  2  1  0  0  0  0
  4  7  1  0  0  0  0
  5 16  2  0  0  0  0
  6 17  2  0  0  0  0
  7  3  2  0  0  0  0
  8 23  1  0  0  0  0
  8 12  2  0  0  0  0
  9  1  1  0  0  0  0
 10 18  2  0  0  0  0
 11  4  1  0  0  0  0
 13  8  1  0  0  0  0
 14  5  1  0  0  0  0
 14  1  2  0  0  0  0
 15 20  1  0  0  0  0
 15  4  2  0  0  0  0
 16 12  1  0  0  0  0
 16 17  1  0  0  0  0
 18 13  1  0  0  0  0
 19 10  1  0  0  0  0
 19  3  1  0  0  0  0
 20 19  2  0  0  0  0
 21 22  2  0  0  0  0
 22 30  1  0  0  0  0
 22 23  1  0  0  0  0
 24 27  1  0  0  0  0
 24 28  1  0  0  0  0
 25 28  2  0  0  0  0
 26 29  1  0  0  0  0
 29 31  1  0  0  0  0
 29 30  2  0  0  0  0
 30 25  1  0  0  0  0
 31 24  2  0  0  0  0
M  END
>  <MODEL>
8

>  <REMARK>
 VINA RESULT:      -7.8      3.718      9.194
  Name = 
  2 active torsions:
  status: ('A' for Active; 'I' for Inactive)
    1  A    between atoms: C_5  and  C_30
    2  A    between atoms: C_10  and  N_16
                            x       y       z     vdW  Elec       q    Type
                         _______ _______ _______ _____ _____    ______ ____

>  <TORSDO>
F 2

$$$$
=
 OpenBabel11112416583D

 31 35  0  0  0  0  0  0  0  0999 V2000
  195.9220  173.9270  144.7790 C   0  0  0  0  0  0  0  0  0  0  0  0
  192.4830  173.8970  143.2380 C   0  0  0  0  0  0  0  0  0  0  0  0
  192.5630  173.0940  142.0610 C   0  0  0  0  0  0  0  0  0  0  0  0
  193.7820  171.6920  140.4750 C   0  0  0  0  0  0  0  0  0  0  0  0
  193.5800  174.1640  144.1170 C   0  0  0  0  0  0  0  0  0  0  0  0
  195.7020  174.7310  145.8970 C   0  0  0  0  0  3  0  0  0  0  0  0
  193.7480  172.4700  141.6340 C   0  0  0  0  0  3  0  0  0  0  0  0
  191.0440  175.2730  144.6880 C   0  0  0  0  0  0  0  0  0  0  0  0
  197.1840  173.4040  144.5380 O   0  0  0  0  0  1  0  0  0  0  0  0
  190.2360  173.4900  141.6470 N   0  0  0  0  0  0  0  0  0  0  0  0
  194.9390  171.1020  140.0880 F   0  0  0  0  0  0  0  0  0  0  0  0
  192.1280  175.5180  145.5300 C   0  0  0  0  0  3  0  0  0  0  0  0
  191.2170  174.4700  143.5510 C   0  0  0  0  0  0  0  0  0  0  0  0
  194.8720  173.6500  143.9020 C   0  0  0  0  0  3  0  0  0  0  0  0
  192.6250  171.5220  139.7160 C   0  0  0  0  0  3  0  0  0  0  0  0
  193.3780  174.9800  145.2600 C   0  0  0  0  0  0  0  0  0  0  0  0
  194.4330  175.2560  146.1360 C   0  0  0  0  0  3  0  0  0  0  0  0
  190.1490  174.2400  142.7410 N   0  0  0  0  0  0  0  0  0  0  0  0
  191.4000  172.9090  141.2770 C   0  0  0  0  0  0  0  0  0  0  0  0
  191.4360  172.1300  140.1170 C   0  0  0  0  0  3  0  0  0  0  0  0
  190.1440  178.0580  144.3640 O   0  0  0  0  0  0  0  0  0  0  0  0
  189.3340  177.1960  144.7990 C   0  0  0  0  0  0  0  0  0  0  0  0
  189.7470  175.8310  144.9660 N   0  0  0  0  0  2  0  0  0  0  0  0
  185.3240  178.2910  145.8670 C   0  0  0  0  0  0  0  0  0  0  0  0
  187.4900  177.3910  146.4540 C   0  0  0  0  0  3  0  0  0  0  0  0
  187.4530  178.3430  142.9040 F   0  0  0  0  0  0  0  0  0  0  0  0
  183.9380  178.6660  146.2510 C   0  0  0  0  0  1  0  0  0  0  0  0
  186.1880  177.7430  146.8170 C   0  0  0  0  0  3  0  0  0  0  0  0
  187.0650  178.1370  144.1870 C   0  0  0  0  0  0  0  0  0  0  0  0
  187.9470  177.5810  145.1410 C   0  0  0  0  0  0  0  0  0  0  0  0
  185.7630  178.4870  144.5560 C   0  0  0  0  0  3  0  0  0  0  0  0
  1  6  1  0  0  0  0
  2 13  2  0  0  0  0
  2  5  1  0  0  0  0
  3  2  1  0  0  0  0
  4  7  1  0  0  0  0
  5 16  2  0  0  0  0
  6 17  2  0  0  0  0
  7  3  2  0  0  0  0
  8 23  1  0  0  0  0
  8 12  2  0  0  0  0
  9  1  1  0  0  0  0
 10 18  2  0  0  0  0
 11  4  1  0  0  0  0
 13  8  1  0  0  0  0
 14  5  1  0  0  0  0
 14  1  2  0  0  0  0
 15 20  1  0  0  0  0
 15  4  2  0  0  0  0
 16 12  1  0  0  0  0
 16 17  1  0  0  0  0
 18 13  1  0  0  0  0
 19 10  1  0  0  0  0
 19  3  1  0  0  0  0
 20 19  2  0  0  0  0
 21 22  2  0  0  0  0
 22 23  1  0  0  0  0
 22 30  1  0  0  0  0
 24 27  1  0  0  0  0
 24 28  1  0  0  0  0
 25 28  2  0  0  0  0
 26 29  1  0  0  0  0
 29 31  1  0  0  0  0
 29 30  2  0  0  0  0
 30 25  1  0  0  0  0
 31 24  2  0  0  0  0
M  END
>  <MODEL>
9

>  <REMARK>
 VINA RESULT:      -7.6      3.286      9.130
  Name = 
  2 active torsions:
  status: ('A' for Active; 'I' for Inactive)
    1  A    between atoms: C_5  and  C_30
    2  A    between atoms: C_10  and  N_16
                            x       y       z     vdW  Elec       q    Type
                         _______ _______ _______ _____ _____    ______ ____

>  <TORSDO>
F 2

$$$$
