=
 OpenBabel11112417393D

 28 32  0  0  1  0  0  0  0  0999 V2000
  191.4060  173.6370  144.6420 C   0  0  0  0  0  0  0  0  0  0  0  0
  189.9190  175.3920  147.2840 O   0  0  0  0  0  0  0  0  0  0  0  0
  187.5520  176.1270  140.2770 O   0  0  0  0  0  1  0  0  0  0  0  0
  193.8090  175.0800  144.6210 C   0  0  0  0  0  3  0  0  0  0  0  0
  188.4030  177.7550  141.7850 C   0  0  2  0  0  3  0  0  0  0  0  0
  190.1490  172.8250  144.6280 C   0  0  0  0  0  2  0  0  0  0  0  0
  189.9170  177.8220  147.6730 O   0  0  0  0  0  0  0  0  0  0  0  0
  189.4120  176.7180  146.7900 S   0  0  0  0  0  0  0  0  0  0  0  0
  186.9720  176.9520  145.5750 C   0  0  0  0  0  0  0  0  0  0  0  0
  189.9410  177.0100  145.1190 C   0  0  2  0  0  3  0  0  0  0  0  0
  188.9590  172.5770  141.1650 O   0  0  0  0  0  0  0  0  0  0  0  0
  189.9210  176.2200  142.8290 C   0  0  2  0  0  3  0  0  0  0  0  0
  187.5540  177.3970  144.5000 N   0  0  0  0  0  0  0  0  0  0  0  0
  187.6920  176.7230  146.7830 N   0  0  0  0  0  2  0  0  0  0  0  0
  189.0800  173.0380  142.3290 C   0  0  0  0  0  0  0  0  0  0  0  0
  191.3840  175.0370  144.4840 C   0  0  0  0  0  0  0  0  0  0  0  0
  187.8950  176.3430  141.6110 C   0  0  2  0  0  3  0  0  0  0  0  0
  185.5860  176.6340  145.5290 N   0  0  0  0  0  1  0  0  0  0  0  0
  188.3680  174.3030  142.6920 C   0  0  0  0  0  2  0  0  0  0  0  0
  192.5930  175.7490  144.4650 C   0  0  0  0  0  3  0  0  0  0  0  0
  192.6300  172.9750  144.7920 C   0  0  0  0  0  3  0  0  0  0  0  0
  193.8280  173.6930  144.7860 C   0  0  0  0  0  3  0  0  0  0  0  0
  189.8820  172.3340  143.2820 N   0  0  0  0  0  2  0  0  0  0  0  0
  189.4270  177.6570  142.8990 C   0  0  2  0  0  3  0  0  0  0  0  0
  188.9760  175.4370  141.9960 N   0  0  2  0  0  0  0  0  0  0  0  0
  188.9460  177.8630  144.3480 C   0  0  2  0  0  3  0  0  0  0  0  0
  187.3640  178.6440  142.0750 O   0  0  0  0  0  1  0  0  0  0  0  0
  190.0790  175.7510  144.2830 C   0  0  1  0  0  3  0  0  0  0  0  0
  1 21  1  0  0  0  0
  3 17  1  0  0  0  0
  4 22  1  0  0  0  0
  5 27  1  1  0  0  0
  5 24  1  0  0  0  0
  6  1  1  0  0  0  0
  8  2  2  0  0  0  0
  8  7  2  0  0  0  0
  9 14  1  0  0  0  0
 10  8  1  1  0  0  0
 11 15  2  0  0  0  0
 12 24  1  0  0  0  0
 12 28  1  0  0  0  0
 13  9  2  0  0  0  0
 14  8  1  0  0  0  0
 15 19  1  0  0  0  0
 15 23  1  0  0  0  0
 16  1  2  0  0  0  0
 17  5  1  0  0  0  0
 17 25  1  0  0  0  0
 18  9  1  0  0  0  0
 20 16  1  0  0  0  0
 20  4  2  0  0  0  0
 22 21  2  0  0  0  0
 23  6  1  0  0  0  0
 24 26  1  0  0  0  0
 25 19  1  0  0  0  0
 25 12  1  0  0  0  0
 26 13  1  0  0  0  0
 26 10  1  0  0  0  0
 28 16  1  0  0  0  0
 28 10  1  0  0  0  0
M  END
>  <MODEL>
1

>  <REMARK>
 VINA RESULT:      -8.0      0.000      0.000
  Name = 
  0 active torsions:
  status: ('A' for Active; 'I' for Inactive)
                            x       y       z     vdW  Elec       q    Type
                         _______ _______ _______ _____ _____    ______ ____

>  <TORSDO>
F 0

$$$$
=
 OpenBabel11112417393D

 28 32  0  0  1  0  0  0  0  0999 V2000
  186.5640  178.2740  144.1790 C   0  0  0  0  0  0  0  0  0  0  0  0
  189.7020  178.2910  145.7380 O   0  0  0  0  0  0  0  0  0  0  0  0
  188.2520  173.9150  139.9060 O   0  0  0  0  0  1  0  0  0  0  0  0
  185.1900  176.9860  146.2550 C   0  0  0  0  0  3  0  0  0  0  0  0
  188.9370  173.3520  142.1110 C   0  0  2  0  0  3  0  0  0  0  0  0
  187.2500  178.9820  143.0530 C   0  0  0  0  0  2  0  0  0  0  0  0
  190.7720  176.4680  146.9990 O   0  0  0  0  0  0  0  0  0  0  0  0
  190.3220  176.9250  145.6400 S   0  0  0  0  0  0  0  0  0  0  0  0
  191.6980  176.1350  143.4120 C   0  0  0  0  0  0  0  0  0  0  0  0
  189.1630  175.7520  144.9780 C   0  0  2  0  0  3  0  0  0  0  0  0
  186.3300  177.3330  139.9070 O   0  0  0  0  0  0  0  0  0  0  0  0
  187.7300  175.1640  143.1160 C   0  0  2  0  0  3  0  0  0  0  0  0
  190.8540  175.1590  143.2420 N   0  0  0  0  0  0  0  0  0  0  0  0
  191.6670  176.9660  144.5690 N   0  0  0  0  0  2  0  0  0  0  0  0
  186.9930  177.5790  140.9470 C   0  0  0  0  0  0  0  0  0  0  0  0
  187.0030  177.0170  144.6380 C   0  0  0  0  0  0  0  0  0  0  0  0
  188.7390  174.4540  141.0970 C   0  0  2  0  0  3  0  0  0  0  0  0
  192.6450  176.4150  142.3880 N   0  0  0  0  0  1  0  0  0  0  0  0
  188.1880  176.7390  141.2680 C   0  0  0  0  0  2  0  0  0  0  0  0
  186.3030  176.3760  145.6720 C   0  0  0  0  0  3  0  0  0  0  0  0
  185.4450  178.8760  144.7670 C   0  0  0  0  0  3  0  0  0  0  0  0
  184.7620  178.2370  145.8050 C   0  0  0  0  0  3  0  0  0  0  0  0
  186.5980  178.6660  141.7890 N   0  0  0  0  0  2  0  0  0  0  0  0
  188.6670  174.0130  143.4490 C   0  0  2  0  0  3  0  0  0  0  0  0
  187.7650  175.3920  141.6510 N   0  0  2  0  0  0  0  0  0  0  0  0
  189.8550  174.6460  144.1990 C   0  0  2  0  0  3  0  0  0  0  0  0
  190.2160  172.7960  142.0250 O   0  0  0  0  0  1  0  0  0  0  0  0
  188.1780  176.3460  143.9880 C   0  0  1  0  0  3  0  0  0  0  0  0
  1 16  2  0  0  0  0
  1 21  1  0  0  0  0
  3 17  1  0  0  0  0
  5 27  1  1  0  0  0
  5 24  1  0  0  0  0
  6  1  1  0  0  0  0
  8  2  2  0  0  0  0
  8  7  2  0  0  0  0
  9 14  1  0  0  0  0
 10  8  1  6  0  0  0
 11 15  2  0  0  0  0
 12 24  1  0  0  0  0
 12 28  1  0  0  0  0
 13  9  2  0  0  0  0
 13 26  1  0  0  0  0
 14  8  1  0  0  0  0
 15 19  1  0  0  0  0
 15 23  1  0  0  0  0
 16 20  1  0  0  0  0
 17 25  1  0  0  0  0
 17  5  1  0  0  0  0
 18  9  1  0  0  0  0
 19 25  1  0  0  0  0
 20  4  2  0  0  0  0
 21 22  2  0  0  0  0
 22  4  1  0  0  0  0
 23  6  1  0  0  0  0
 24 26  1  0  0  0  0
 25 12  1  0  0  0  0
 26 10  1  0  0  0  0
 28 16  1  0  0  0  0
 28 10  1  0  0  0  0
M  END
>  <MODEL>
2

>  <REMARK>
 VINA RESULT:      -7.5      2.238      5.351
  Name = 
  0 active torsions:
  status: ('A' for Active; 'I' for Inactive)
                            x       y       z     vdW  Elec       q    Type
                         _______ _______ _______ _____ _____    ______ ____

>  <TORSDO>
F 0

$$$$
=
 OpenBabel11112417393D

 28 32  0  0  1  0  0  0  0  0999 V2000
  187.1590  177.2790  144.5310 C   0  0  0  0  0  0  0  0  0  0  0  0
  187.0780  174.2720  142.7350 O   0  0  0  0  0  0  0  0  0  0  0  0
  193.3420  176.8200  145.8220 O   0  0  0  0  0  1  0  0  0  0  0  0
  186.8450  178.9730  142.3190 C   0  0  0  0  0  3  0  0  0  0  0  0
  192.8410  176.3360  143.5500 C   0  0  2  0  0  3  0  0  0  0  0  0
  187.3080  176.4160  145.7440 C   0  0  0  0  0  2  0  0  0  0  0  0
  188.1910  173.7550  140.6020 O   0  0  0  0  0  0  0  0  0  0  0  0
  188.4030  174.0500  142.0590 S   0  0  0  0  0  0  0  0  0  0  0  0
  190.5150  172.9260  143.3850 C   0  0  0  0  0  0  0  0  0  0  0  0
  189.4420  175.4820  142.2260 C   0  0  2  0  0  3  0  0  0  0  0  0
  190.0660  177.7270  147.7770 O   0  0  0  0  0  0  0  0  0  0  0  0
  190.5470  177.0060  143.7510 C   0  0  2  0  0  3  0  0  0  0  0  0
  191.2140  174.0050  143.1780 N   0  0  0  0  0  0  0  0  0  0  0  0
  189.2290  172.7370  142.8010 N   0  0  0  0  0  2  0  0  0  0  0  0
  189.4850  177.0300  146.9060 C   0  0  0  0  0  0  0  0  0  0  0  0
  188.0670  177.2080  143.4560 C   0  0  0  0  0  0  0  0  0  0  0  0
  192.4010  176.2130  144.9900 C   0  0  2  0  0  3  0  0  0  0  0  0
  191.0260  171.9300  144.2630 N   0  0  0  0  0  1  0  0  0  0  0  0
  190.2950  176.1160  146.0420 C   0  0  0  0  0  2  0  0  0  0  0  0
  187.9070  178.0660  142.3580 C   0  0  0  0  0  3  0  0  0  0  0  0
  186.1000  178.1950  144.4850 C   0  0  0  0  0  3  0  0  0  0  0  0
  185.9410  179.0360  143.3810 C   0  0  0  0  0  3  0  0  0  0  0  0
  188.0640  177.1180  146.7720 N   0  0  0  0  0  2  0  0  0  0  0  0
  191.5470  176.4240  142.7630 C   0  0  2  0  0  3  0  0  0  0  0  0
  191.1150  176.8970  145.1170 N   0  0  2  0  0  0  0  0  0  0  0  0
  190.9170  175.1150  142.2530 C   0  0  2  0  0  3  0  0  0  0  0  0
  193.6430  175.2590  143.1630 O   0  0  0  0  0  1  0  0  0  0  0  0
  189.2280  176.2570  143.5130 C   0  0  1  0  0  3  0  0  0  0  0  0
  1  6  1  0  0  0  0
  4 20  2  0  0  0  0
  4 22  1  0  0  0  0
  5 27  1  6  0  0  0
  5 17  1  0  0  0  0
  6 23  1  0  0  0  0
  7  8  2  0  0  0  0
  8  2  2  0  0  0  0
  8 14  1  0  0  0  0
  9 18  1  0  0  0  0
 10  8  1  1  0  0  0
 10 26  1  0  0  0  0
 10 28  1  0  0  0  0
 12 25  1  0  0  0  0
 13  9  2  0  0  0  0
 14  9  1  0  0  0  0
 15 11  2  0  0  0  0
 16 28  1  0  0  0  0
 16  1  2  0  0  0  0
 17 25  1  0  0  0  0
 17  3  1  0  0  0  0
 19 15  1  0  0  0  0
 20 16  1  0  0  0  0
 21  1  1  0  0  0  0
 22 21  2  0  0  0  0
 23 15  1  0  0  0  0
 24  5  1  0  0  0  0
 24 12  1  0  0  0  0
 25 19  1  0  0  0  0
 26 24  1  0  0  0  0
 26 13  1  0  0  0  0
 28 12  1  0  0  0  0
M  END
>  <MODEL>
3

>  <REMARK>
 VINA RESULT:      -7.5      2.314      5.984
  Name = 
  0 active torsions:
  status: ('A' for Active; 'I' for Inactive)
                            x       y       z     vdW  Elec       q    Type
                         _______ _______ _______ _____ _____    ______ ____

>  <TORSDO>
F 0

$$$$
=
 OpenBabel11112417393D

 28 32  0  0  1  0  0  0  0  0999 V2000
  188.5310  176.3250  144.9500 C   0  0  0  0  0  0  0  0  0  0  0  0
  188.9630  173.4240  143.0340 O   0  0  0  0  0  0  0  0  0  0  0  0
  194.6790  176.7760  146.4030 O   0  0  0  0  0  1  0  0  0  0  0  0
  188.0060  178.0450  142.8000 C   0  0  0  0  0  3  0  0  0  0  0  0
  194.3120  176.3200  144.0990 C   0  0  2  0  0  3  0  0  0  0  0  0
  188.7860  175.4420  146.1310 C   0  0  0  0  0  2  0  0  0  0  0  0
  190.1920  173.1820  140.9150 O   0  0  0  0  0  0  0  0  0  0  0  0
  190.3210  173.4410  142.3880 S   0  0  0  0  0  0  0  0  0  0  0  0
  192.5530  172.6020  143.7290 C   0  0  0  0  0  0  0  0  0  0  0  0
  191.1190  175.0080  142.6430 C   0  0  2  0  0  3  0  0  0  0  0  0
  191.2590  177.0740  148.2960 O   0  0  0  0  0  0  0  0  0  0  0  0
  191.9370  176.6160  144.2600 C   0  0  2  0  0  3  0  0  0  0  0  0
  193.0780  173.7830  143.5870 N   0  0  0  0  0  0  0  0  0  0  0  0
  191.3250  172.2410  143.1010 N   0  0  0  0  0  2  0  0  0  0  0  0
  190.8140  176.3360  147.3810 C   0  0  0  0  0  0  0  0  0  0  0  0
  189.4640  176.4430  143.9010 C   0  0  0  0  0  0  0  0  0  0  0  0
  193.8640  176.0670  145.5200 C   0  0  2  0  0  3  0  0  0  0  0  0
  193.1930  171.6590  144.5810 N   0  0  0  0  0  1  0  0  0  0  0  0
  191.7760  175.5970  146.5050 C   0  0  0  0  0  2  0  0  0  0  0  0
  189.1960  177.3140  142.8330 C   0  0  0  0  0  3  0  0  0  0  0  0
  187.3440  177.0660  144.9110 C   0  0  0  0  0  3  0  0  0  0  0  0
  187.0800  177.9200  143.8370 C   0  0  0  0  0  3  0  0  0  0  0  0
  189.4000  176.2070  147.2090 N   0  0  0  0  0  2  0  0  0  0  0  0
  193.0380  176.2420  143.2790 C   0  0  2  0  0  3  0  0  0  0  0  0
  192.4850  176.5360  145.6360 N   0  0  2  0  0  0  0  0  0  0  0  0
  192.6330  174.8740  142.6980 C   0  0  2  0  0  3  0  0  0  0  0  0
  195.2810  175.3990  143.6930 O   0  0  0  0  0  1  0  0  0  0  0  0
  190.7570  175.6830  143.9540 C   0  0  1  0  0  3  0  0  0  0  0  0
  1  6  1  0  0  0  0
  4 20  2  0  0  0  0
  4 22  1  0  0  0  0
  5 27  1  6  0  0  0
  5 17  1  0  0  0  0
  6 23  1  0  0  0  0
  7  8  2  0  0  0  0
  8  2  2  0  0  0  0
  8 14  1  0  0  0  0
  9 18  1  0  0  0  0
 10  8  1  1  0  0  0
 10 26  1  0  0  0  0
 10 28  1  0  0  0  0
 12 25  1  0  0  0  0
 13  9  2  0  0  0  0
 14  9  1  0  0  0  0
 15 11  2  0  0  0  0
 16 28  1  0  0  0  0
 16  1  2  0  0  0  0
 17 25  1  0  0  0  0
 17  3  1  0  0  0  0
 19 15  1  0  0  0  0
 20 16  1  0  0  0  0
 21  1  1  0  0  0  0
 22 21  2  0  0  0  0
 23 15  1  0  0  0  0
 24  5  1  0  0  0  0
 24 12  1  0  0  0  0
 25 19  1  0  0  0  0
 26 24  1  0  0  0  0
 26 13  1  0  0  0  0
 28 12  1  0  0  0  0
M  END
>  <MODEL>
4

>  <REMARK>
 VINA RESULT:      -7.5      2.691      6.185
  Name = 
  0 active torsions:
  status: ('A' for Active; 'I' for Inactive)
                            x       y       z     vdW  Elec       q    Type
                         _______ _______ _______ _____ _____    ______ ____

>  <TORSDO>
F 0

$$$$
=
 OpenBabel11112417393D

 28 32  0  0  1  0  0  0  0  0999 V2000
  189.0190  175.5230  146.2280 C   0  0  0  0  0  0  0  0  0  0  0  0
  189.3170  172.2930  144.9020 O   0  0  0  0  0  0  0  0  0  0  0  0
  195.0540  177.0180  145.0240 O   0  0  0  0  0  1  0  0  0  0  0  0
  187.4260  176.5610  144.1670 C   0  0  0  0  0  3  0  0  0  0  0  0
  193.9910  175.9470  143.1880 C   0  0  2  0  0  3  0  0  0  0  0  0
  189.8500  175.0080  147.3600 C   0  0  0  0  0  2  0  0  0  0  0  0
  189.7320  171.6530  142.5620 O   0  0  0  0  0  0  0  0  0  0  0  0
  190.3220  172.2960  143.7840 S   0  0  0  0  0  0  0  0  0  0  0  0
  193.0050  172.0850  144.2740 C   0  0  0  0  0  0  0  0  0  0  0  0
  190.8240  173.9550  143.3930 C   0  0  2  0  0  3  0  0  0  0  0  0
  192.5470  177.4090  148.0130 O   0  0  0  0  0  0  0  0  0  0  0  0
  191.8220  176.0060  144.2090 C   0  0  2  0  0  3  0  0  0  0  0  0
  193.1950  173.2420  143.7080 N   0  0  0  0  0  0  0  0  0  0  0  0
  191.7350  171.4400  144.2630 N   0  0  0  0  0  2  0  0  0  0  0  0
  191.9640  176.4150  147.5100 C   0  0  0  0  0  0  0  0  0  0  0  0
  189.4720  175.4700  144.8950 C   0  0  0  0  0  0  0  0  0  0  0  0
  194.1390  176.0200  144.6890 C   0  0  2  0  0  3  0  0  0  0  0  0
  194.0830  171.4720  144.9700 N   0  0  0  0  0  1  0  0  0  0  0  0
  192.6790  175.5880  146.4890 C   0  0  0  0  0  2  0  0  0  0  0  0
  188.6710  176.0010  143.8720 C   0  0  0  0  0  3  0  0  0  0  0  0
  187.7710  176.0900  146.5150 C   0  0  0  0  0  3  0  0  0  0  0  0
  186.9750  176.6040  145.4880 C   0  0  0  0  0  3  0  0  0  0  0  0
  190.6390  176.0890  147.9370 N   0  0  0  0  0  2  0  0  0  0  0  0
  192.5520  175.5170  142.9680 C   0  0  2  0  0  3  0  0  0  0  0  0
  192.8270  176.3450  145.2460 N   0  0  2  0  0  0  0  0  0  0  0  0
  192.2520  174.0090  142.8730 C   0  0  2  0  0  3  0  0  0  0  0  0
  194.9160  175.0670  142.6210 O   0  0  0  0  0  1  0  0  0  0  0  0
  190.8240  174.8990  144.5810 C   0  0  1  0  0  3  0  0  0  0  0  0
  1 21  1  0  0  0  0
  1  6  1  0  0  0  0
  4 22  1  0  0  0  0
  5 27  1  1  0  0  0
  5 17  1  0  0  0  0
  6 23  1  0  0  0  0
  7  8  2  0  0  0  0
  8 14  1  0  0  0  0
  8  2  2  0  0  0  0
  9 18  1  0  0  0  0
 10  8  1  1  0  0  0
 10 28  1  0  0  0  0
 12 28  1  0  0  0  0
 12 25  1  0  0  0  0
 13  9  2  0  0  0  0
 14  9  1  0  0  0  0
 15 23  1  0  0  0  0
 15 11  2  0  0  0  0
 16  1  2  0  0  0  0
 17  3  1  0  0  0  0
 17 25  1  0  0  0  0
 19 15  1  0  0  0  0
 20  4  2  0  0  0  0
 20 16  1  0  0  0  0
 22 21  2  0  0  0  0
 24  5  1  0  0  0  0
 24 12  1  0  0  0  0
 25 19  1  0  0  0  0
 26 24  1  0  0  0  0
 26 10  1  0  0  0  0
 26 13  1  0  0  0  0
 28 16  1  0  0  0  0
M  END
>  <MODEL>
5

>  <REMARK>
 VINA RESULT:      -7.4      3.154      6.193
  Name = 
  0 active torsions:
  status: ('A' for Active; 'I' for Inactive)
                            x       y       z     vdW  Elec       q    Type
                         _______ _______ _______ _____ _____    ______ ____

>  <TORSDO>
F 0

$$$$
=
 OpenBabel11112417393D

 28 32  0  0  1  0  0  0  0  0999 V2000
  188.4720  175.9700  144.4730 C   0  0  0  0  0  0  0  0  0  0  0  0
  191.6480  177.4410  144.3170 O   0  0  0  0  0  0  0  0  0  0  0  0
  190.4450  170.4750  142.0190 O   0  0  0  0  0  1  0  0  0  0  0  0
  188.3850  175.7080  147.2630 C   0  0  0  0  0  3  0  0  0  0  0  0
  191.9010  171.3020  143.7050 C   0  0  2  0  0  3  0  0  0  0  0  0
  188.4630  176.1080  142.9830 C   0  0  0  0  0  2  0  0  0  0  0  0
  193.6680  176.8120  145.5740 O   0  0  0  0  0  0  0  0  0  0  0  0
  192.7040  176.3870  144.5040 S   0  0  0  0  0  0  0  0  0  0  0  0
  193.5740  174.8510  142.4140 C   0  0  0  0  0  0  0  0  0  0  0  0
  191.9690  174.8330  144.9540 C   0  0  2  0  0  3  0  0  0  0  0  0
  187.4120  172.9100  141.5220 O   0  0  0  0  0  0  0  0  0  0  0  0
  190.4180  173.0790  144.3320 C   0  0  2  0  0  3  0  0  0  0  0  0
  193.1790  173.7810  143.0420 N   0  0  0  0  0  0  0  0  0  0  0  0
  193.5500  176.1370  143.0280 N   0  0  0  0  0  2  0  0  0  0  0  0
  188.1910  173.7930  141.9630 C   0  0  0  0  0  0  0  0  0  0  0  0
  189.4860  175.2590  145.1440 C   0  0  0  0  0  0  0  0  0  0  0  0
  190.9990  171.6440  142.5430 C   0  0  2  0  0  3  0  0  0  0  0  0
  193.9920  174.7420  141.0590 N   0  0  0  0  0  1  0  0  0  0  0  0
  189.6590  173.5100  142.0210 C   0  0  0  0  0  2  0  0  0  0  0  0
  189.4290  175.1260  146.5400 C   0  0  0  0  0  3  0  0  0  0  0  0
  187.4270  176.5460  145.2060 C   0  0  0  0  0  3  0  0  0  0  0  0
  187.3850  176.4190  146.5960 C   0  0  0  0  0  3  0  0  0  0  0  0
  187.6570  175.0510  142.3850 N   0  0  0  0  0  2  0  0  0  0  0  0
  191.7890  172.4930  144.6380 C   0  0  2  0  0  3  0  0  0  0  0  0
  189.9360  172.5090  143.0510 N   0  0  2  0  0  0  0  0  0  0  0  0
  192.7880  173.6520  144.4580 C   0  0  2  0  0  3  0  0  0  0  0  0
  193.2120  171.0590  143.2860 O   0  0  0  0  0  1  0  0  0  0  0  0
  190.5900  174.6050  144.3640 C   0  0  1  0  0  3  0  0  0  0  0  0
  1 16  2  0  0  0  0
  1 21  1  0  0  0  0
  2  8  2  0  0  0  0
  3 17  1  0  0  0  0
  5 27  1  6  0  0  0
  5 24  1  0  0  0  0
  6  1  1  0  0  0  0
  8  7  2  0  0  0  0
  9 14  1  0  0  0  0
  9 13  2  0  0  0  0
 10  8  1  6  0  0  0
 11 15  2  0  0  0  0
 12 28  1  0  0  0  0
 12 24  1  0  0  0  0
 13 26  1  0  0  0  0
 14  8  1  0  0  0  0
 15 19  1  0  0  0  0
 15 23  1  0  0  0  0
 16 20  1  0  0  0  0
 17 25  1  0  0  0  0
 17  5  1  0  0  0  0
 18  9  1  0  0  0  0
 19 25  1  0  0  0  0
 20  4  2  0  0  0  0
 21 22  2  0  0  0  0
 22  4  1  0  0  0  0
 23  6  1  0  0  0  0
 25 12  1  0  0  0  0
 26 24  1  0  0  0  0
 26 10  1  0  0  0  0
 28 10  1  0  0  0  0
 28 16  1  0  0  0  0
M  END
>  <MODEL>
6

>  <REMARK>
 VINA RESULT:      -7.3      2.597      5.430
  Name = 
  0 active torsions:
  status: ('A' for Active; 'I' for Inactive)
                            x       y       z     vdW  Elec       q    Type
                         _______ _______ _______ _____ _____    ______ ____

>  <TORSDO>
F 0

$$$$
=
 OpenBabel11112417393D

 28 32  0  0  1  0  0  0  0  0999 V2000
  188.5130  177.0950  144.0680 C   0  0  0  0  0  0  0  0  0  0  0  0
  191.8080  177.6670  145.1110 O   0  0  0  0  0  0  0  0  0  0  0  0
  189.8800  171.4970  141.4420 O   0  0  0  0  0  1  0  0  0  0  0  0
  187.4520  176.6340  146.6220 C   0  0  0  0  0  3  0  0  0  0  0  0
  190.8450  171.7580  143.5980 C   0  0  2  0  0  3  0  0  0  0  0  0
  189.0290  177.3530  142.6870 C   0  0  0  0  0  2  0  0  0  0  0  0
  193.1010  176.4160  146.7900 O   0  0  0  0  0  0  0  0  0  0  0  0
  192.4740  176.3570  145.4260 S   0  0  0  0  0  0  0  0  0  0  0  0
  193.6120  174.8220  143.4680 C   0  0  0  0  0  0  0  0  0  0  0  0
  191.2990  175.0250  145.3750 C   0  0  2  0  0  3  0  0  0  0  0  0
  187.8200  174.6890  140.4730 O   0  0  0  0  0  0  0  0  0  0  0  0
  189.6840  173.8100  144.0390 C   0  0  2  0  0  3  0  0  0  0  0  0
  192.7990  173.8500  143.7640 N   0  0  0  0  0  0  0  0  0  0  0  0
  193.6800  176.0120  144.2500 N   0  0  0  0  0  2  0  0  0  0  0  0
  188.5890  175.2900  141.2660 C   0  0  0  0  0  0  0  0  0  0  0  0
  189.0590  176.0850  144.8840 C   0  0  0  0  0  0  0  0  0  0  0  0
  190.4800  172.4250  142.2930 C   0  0  2  0  0  3  0  0  0  0  0  0
  194.4170  174.7180  142.3010 N   0  0  0  0  0  1  0  0  0  0  0  0
  189.8500  174.6200  141.7100 C   0  0  0  0  0  2  0  0  0  0  0  0
  188.5150  175.8560  146.1570 C   0  0  0  0  0  3  0  0  0  0  0  0
  187.4450  177.8670  144.5410 C   0  0  0  0  0  3  0  0  0  0  0  0
  186.9180  177.6410  145.8150 C   0  0  0  0  0  3  0  0  0  0  0  0
  188.2470  176.6060  141.7100 N   0  0  0  0  0  2  0  0  0  0  0  0
  190.7050  172.8540  144.6380 C   0  0  2  0  0  3  0  0  0  0  0  0
  189.5360  173.4990  142.5960 N   0  0  2  0  0  0  0  0  0  0  0  0
  191.9430  173.7130  144.9580 C   0  0  2  0  0  3  0  0  0  0  0  0
  192.1280  171.2080  143.5540 O   0  0  0  0  0  1  0  0  0  0  0  0
  190.1780  175.2260  144.3710 C   0  0  1  0  0  3  0  0  0  0  0  0
  1 21  2  0  0  0  0
  1 16  1  0  0  0  0
  2  8  2  0  0  0  0
  3 17  1  0  0  0  0
  5 27  1  6  0  0  0
  5 24  1  0  0  0  0
  6  1  1  0  0  0  0
  8  7  2  0  0  0  0
  9 13  2  0  0  0  0
  9 14  1  0  0  0  0
 10  8  1  6  0  0  0
 11 15  2  0  0  0  0
 12 28  1  0  0  0  0
 12 24  1  0  0  0  0
 13 26  1  0  0  0  0
 14  8  1  0  0  0  0
 15 23  1  0  0  0  0
 15 19  1  0  0  0  0
 16 20  2  0  0  0  0
 17 25  1  0  0  0  0
 17  5  1  0  0  0  0
 18  9  1  0  0  0  0
 19 25  1  0  0  0  0
 20  4  1  0  0  0  0
 21 22  1  0  0  0  0
 22  4  2  0  0  0  0
 23  6  1  0  0  0  0
 24 26  1  0  0  0  0
 25 12  1  0  0  0  0
 26 10  1  0  0  0  0
 28 16  1  0  0  0  0
 28 10  1  0  0  0  0
M  END
>  <MODEL>
7

>  <REMARK>
 VINA RESULT:      -7.3      2.315      5.306
  Name = 
  0 active torsions:
  status: ('A' for Active; 'I' for Inactive)
                            x       y       z     vdW  Elec       q    Type
                         _______ _______ _______ _____ _____    ______ ____

>  <TORSDO>
F 0

$$$$
=
 OpenBabel11112417393D

 28 32  0  0  1  0  0  0  0  0999 V2000
  192.8960  174.0480  142.3820 C   0  0  0  0  0  0  0  0  0  0  0  0
  193.4180  174.5610  145.8080 O   0  0  0  0  0  0  0  0  0  0  0  0
  186.8870  176.0370  142.5800 O   0  0  0  0  0  1  0  0  0  0  0  0
  194.4980  176.1730  141.5000 C   0  0  0  0  0  3  0  0  0  0  0  0
  188.3660  177.4680  143.7690 C   0  0  2  0  0  3  0  0  0  0  0  0
  192.0470  172.8900  142.8030 C   0  0  0  0  0  2  0  0  0  0  0  0
  193.4390  176.6970  147.0300 O   0  0  0  0  0  0  0  0  0  0  0  0
  192.5820  175.7180  146.2800 S   0  0  0  0  0  0  0  0  0  0  0  0
  189.9550  175.3970  146.9700 C   0  0  0  0  0  0  0  0  0  0  0  0
  191.8140  176.5410  144.9050 C   0  0  2  0  0  3  0  0  0  0  0  0
  188.8650  173.0530  140.9820 O   0  0  0  0  0  0  0  0  0  0  0  0
  190.3320  176.3300  142.9990 C   0  0  2  0  0  3  0  0  0  0  0  0
  189.6120  176.2420  146.0410 N   0  0  0  0  0  0  0  0  0  0  0  0
  191.3200  175.1530  147.3010 N   0  0  0  0  0  2  0  0  0  0  0  0
  189.6940  173.2510  141.9080 C   0  0  0  0  0  0  0  0  0  0  0  0
  192.6350  175.3580  142.8300 C   0  0  0  0  0  0  0  0  0  0  0  0
  188.0170  176.0460  143.3980 C   0  0  2  0  0  3  0  0  0  0  0  0
  188.9410  174.6560  147.6380 N   0  0  0  0  0  1  0  0  0  0  0  0
  189.2930  174.0900  143.0800 C   0  0  0  0  0  2  0  0  0  0  0  0
  193.4370  176.4160  142.3750 C   0  0  0  0  0  3  0  0  0  0  0  0
  193.9580  173.8150  141.5000 C   0  0  0  0  0  3  0  0  0  0  0  0
  194.7600  174.8720  141.0630 C   0  0  0  0  0  3  0  0  0  0  0  0
  190.9920  172.6570  141.8250 N   0  0  0  0  0  2  0  0  0  0  0  0
  189.8770  177.4660  143.9040 C   0  0  2  0  0  3  0  0  0  0  0  0
  189.1570  175.4880  142.6710 N   0  0  2  0  0  0  0  0  0  0  0  0
  190.4820  177.1660  145.2880 C   0  0  2  0  0  3  0  0  0  0  0  0
  187.7140  177.8700  144.9370 O   0  0  0  0  0  1  0  0  0  0  0  0
  191.4750  175.6240  143.7440 C   0  0  1  0  0  3  0  0  0  0  0  0
  1  6  1  0  0  0  0
  1 16  1  0  0  0  0
  2  8  2  0  0  0  0
  3 17  1  0  0  0  0
  4 20  1  0  0  0  0
  5 24  1  0  0  0  0
  5 27  1  1  0  0  0
  8  7  2  0  0  0  0
  8 14  1  0  0  0  0
  9 14  1  0  0  0  0
  9 18  1  0  0  0  0
 10 26  1  0  0  0  0
 10  8  1  1  0  0  0
 11 15  2  0  0  0  0
 12 28  1  0  0  0  0
 12 24  1  0  0  0  0
 13  9  2  0  0  0  0
 15 19  1  0  0  0  0
 16 28  1  0  0  0  0
 17  5  1  0  0  0  0
 20 16  2  0  0  0  0
 21  1  2  0  0  0  0
 22  4  2  0  0  0  0
 22 21  1  0  0  0  0
 23 15  1  0  0  0  0
 23  6  1  0  0  0  0
 24 26  1  0  0  0  0
 25 12  1  0  0  0  0
 25 19  1  0  0  0  0
 25 17  1  0  0  0  0
 26 13  1  0  0  0  0
 28 10  1  0  0  0  0
M  END
>  <MODEL>
8

>  <REMARK>
 VINA RESULT:      -7.1      2.372      2.683
  Name = 
  0 active torsions:
  status: ('A' for Active; 'I' for Inactive)
                            x       y       z     vdW  Elec       q    Type
                         _______ _______ _______ _____ _____    ______ ____

>  <TORSDO>
F 0

$$$$
=
 OpenBabel11112417393D

 28 32  0  0  1  0  0  0  0  0999 V2000
  188.9530  176.9040  144.8640 C   0  0  0  0  0  0  0  0  0  0  0  0
  192.4000  176.4100  145.2440 O   0  0  0  0  0  0  0  0  0  0  0  0
  188.4430  172.6660  140.1860 O   0  0  0  0  0  1  0  0  0  0  0  0
  188.1930  175.6650  147.2610 C   0  0  0  0  0  3  0  0  0  0  0  0
  189.7460  171.8690  142.0070 C   0  0  2  0  0  3  0  0  0  0  0  0
  189.3110  177.5930  143.5840 C   0  0  0  0  0  2  0  0  0  0  0  0
  193.5590  174.3820  146.0210 O   0  0  0  0  0  0  0  0  0  0  0  0
  192.7470  174.9850  144.9110 S   0  0  0  0  0  0  0  0  0  0  0  0
  193.1560  174.1780  142.3290 C   0  0  0  0  0  0  0  0  0  0  0  0
  191.2750  174.0200  144.6670 C   0  0  2  0  0  3  0  0  0  0  0  0
  187.1510  176.2950  140.9170 O   0  0  0  0  0  0  0  0  0  0  0  0
  189.2260  173.7490  143.4020 C   0  0  2  0  0  3  0  0  0  0  0  0
  192.1730  173.3330  142.4420 N   0  0  0  0  0  0  0  0  0  0  0  0
  193.6390  174.9250  143.4430 N   0  0  0  0  0  2  0  0  0  0  0  0
  188.1550  176.3820  141.6690 C   0  0  0  0  0  0  0  0  0  0  0  0
  189.3340  175.5720  145.1180 C   0  0  0  0  0  0  0  0  0  0  0  0
  189.3780  173.0540  141.1460 C   0  0  2  0  0  3  0  0  0  0  0  0
  193.7290  174.4030  141.0470 N   0  0  0  0  0  1  0  0  0  0  0  0
  189.2530  175.3740  141.5410 C   0  0  0  0  0  2  0  0  0  0  0  0
  188.9410  174.9580  146.3170 C   0  0  0  0  0  3  0  0  0  0  0  0
  188.1980  177.6040  145.8140 C   0  0  0  0  0  3  0  0  0  0  0  0
  187.8230  176.9890  147.0100 C   0  0  0  0  0  3  0  0  0  0  0  0
  188.2300  177.4500  142.6170 N   0  0  0  0  0  2  0  0  0  0  0  0
  190.0450  172.4670  143.3690 C   0  0  2  0  0  3  0  0  0  0  0  0
  188.7950  174.0700  142.0200 N   0  0  2  0  0  0  0  0  0  0  0  0
  191.4940  172.8890  143.6750 C   0  0  2  0  0  3  0  0  0  0  0  0
  190.8250  171.1600  141.4740 O   0  0  0  0  0  1  0  0  0  0  0  0
  190.1090  174.8010  144.0890 C   0  0  1  0  0  3  0  0  0  0  0  0
  1 16  2  0  0  0  0
  1 21  1  0  0  0  0
  3 17  1  0  0  0  0
  5 27  1  6  0  0  0
  5 24  1  0  0  0  0
  6  1  1  0  0  0  0
  8  2  2  0  0  0  0
  8  7  2  0  0  0  0
  9 13  2  0  0  0  0
  9 14  1  0  0  0  0
 10  8  1  6  0  0  0
 11 15  2  0  0  0  0
 12 28  1  0  0  0  0
 13 26  1  0  0  0  0
 14  8  1  0  0  0  0
 15 23  1  0  0  0  0
 16 20  1  0  0  0  0
 17  5  1  0  0  0  0
 17 25  1  0  0  0  0
 18  9  1  0  0  0  0
 19 15  1  0  0  0  0
 19 25  1  0  0  0  0
 20  4  2  0  0  0  0
 21 22  2  0  0  0  0
 22  4  1  0  0  0  0
 23  6  1  0  0  0  0
 24 12  1  0  0  0  0
 24 26  1  0  0  0  0
 25 12  1  0  0  0  0
 26 10  1  0  0  0  0
 28 10  1  0  0  0  0
 28 16  1  0  0  0  0
M  END
>  <MODEL>
9

>  <REMARK>
 VINA RESULT:      -7.0      2.302      5.230
  Name = 
  0 active torsions:
  status: ('A' for Active; 'I' for Inactive)
                            x       y       z     vdW  Elec       q    Type
                         _______ _______ _______ _____ _____    ______ ____

>  <TORSDO>
F 0

$$$$
