=
 OpenBabel11112417493D

 34 41  0  0  1  0  0  0  0  0999 V2000
  190.6480  174.0390  143.0960 C   0  0  0  0  0  0  0  0  0  0  0  0
  192.5910  172.5670  143.7940 C   0  0  0  0  0  2  0  0  0  0  0  0
  186.3230  178.3100  144.1220 C   0  0  2  0  0  3  0  0  0  0  0  0
  189.1430  175.7250  142.2590 C   0  0  0  0  0  0  0  0  0  0  0  0
  188.8110  177.9160  143.4920 C   0  0  1  0  0  3  0  0  0  0  0  0
  187.2560  176.5190  144.7680 O   0  0  0  0  0  0  0  0  0  0  0  0
  185.9410  176.8660  144.3990 C   0  0  0  0  0  2  0  0  0  0  0  0
  186.2610  177.7070  141.8370 C   0  0  0  0  0  2  0  0  0  0  0  0
  191.8600  174.3300  145.2900 C   0  0  2  0  0  3  0  0  0  0  0  0
  194.1630  176.1630  146.4690 C   0  0  0  0  0  2  0  0  0  0  0  0
  190.1860  177.6360  144.1040 C   0  0  0  0  0  2  0  0  0  0  0  0
  187.6650  177.5090  141.2900 C   0  0  0  0  0  2  0  0  0  0  0  0
  191.7110  175.8480  145.0580 C   0  0  1  0  0  3  0  0  0  0  0  0
  193.5550  172.5930  144.9710 C   0  0  0  0  0  2  0  0  0  0  0  0
  188.5480  177.0330  142.3470 N   0  0  0  0  0  0  0  0  0  0  0  0
  186.2570  178.7630  142.7690 O   0  0  0  0  0  0  0  0  0  0  0  0
  194.3840  174.9000  145.6170 C   0  0  1  0  0  3  0  0  0  0  0  0
  190.0490  175.2980  143.2410 C   0  0  0  0  0  0  0  0  0  0  0  0
  187.6990  177.8390  144.5590 C   0  0  2  0  0  3  0  0  0  0  0  0
  190.3300  176.1530  144.4570 C   0  0  2  0  0  3  0  0  0  0  0  0
  189.4720  173.7000  141.0720 C   0  0  0  0  0  3  0  0  0  0  0  0
  192.9480  176.1120  147.1730 O   0  0  0  0  0  0  0  0  0  0  0  0
  188.8780  174.9160  141.1960 N   0  0  0  0  0  0  0  0  0  0  0  0
  191.9520  176.6640  146.3440 C   0  0  0  0  0  2  0  0  0  0  0  0
  193.2480  173.8610  145.7630 C   0  0  1  0  0  3  0  0  0  0  0  0
  190.3530  173.2710  142.0120 N   0  0  0  0  0  0  0  0  0  0  0  0
  191.6080  173.5970  144.0630 N   0  0  0  0  0  0  0  0  0  0  0  0
  194.5610  175.2660  144.2770 O   0  0  0  0  0  0  0  0  0  0  0  0
  195.2960  176.4520  144.3150 C   0  0  0  0  0  2  0  0  0  0  0  0
  197.9400  175.1670  142.1100 C   0  0  0  0  0  2  0  0  0  0  0  0
  195.6950  176.4130  141.8700 C   0  0  0  0  0  2  0  0  0  0  0  0
  196.3540  176.4350  143.2270 C   0  0  2  0  0  3  0  0  0  0  0  0
  196.8780  175.6660  140.7220 S   0  0  0  0  0  0  0  0  0  0  0  0
  197.1800  175.2470  143.3470 N   0  0  0  0  0  2  0  0  0  0  0  0
  1 18  1  0  0  0  0
  1 27  1  0  0  0  0
  2 27  1  0  0  0  0
  2 14  1  0  0  0  0
  3  7  1  6  0  0  0
  3 19  1  0  0  0  0
  4 15  1  0  0  0  0
  4 18  2  0  0  0  0
  5 11  1  1  0  0  0
  5 19  1  0  0  0  0
  7  6  1  0  0  0  0
  8 16  1  0  0  0  0
  9 27  1  6  0  0  0
  9 25  1  0  0  0  0
 10 22  1  0  0  0  0
 12  8  1  0  0  0  0
 12 15  1  0  0  0  0
 13  9  1  0  0  0  0
 13 24  1  1  0  0  0
 15  5  1  0  0  0  0
 16  3  1  0  0  0  0
 17 28  1  6  0  0  0
 17 25  1  0  0  0  0
 17 10  1  0  0  0  0
 18 20  1  0  0  0  0
 19  6  1  6  0  0  0
 20 11  1  6  0  0  0
 20 13  1  0  0  0  0
 21 23  2  0  0  0  0
 21 26  1  0  0  0  0
 23  4  1  0  0  0  0
 24 22  1  0  0  0  0
 25 14  1  6  0  0  0
 26  1  2  0  0  0  0
 28 29  1  0  0  0  0
 30 34  1  0  0  0  0
 31 32  1  0  0  0  0
 32 34  1  0  0  0  0
 32 29  1  1  0  0  0
 33 31  1  0  0  0  0
 33 30  1  0  0  0  0
M  END
>  <MODEL>
1

>  <REMARK>
 VINA RESULT:      -8.1      0.000      0.000
  Name = 
  3 active torsions:
  status: ('A' for Active; 'I' for Inactive)
    1  A    between atoms: C_17  and  O_28
    2  A    between atoms: O_28  and  C_29
    3  A    between atoms: C_29  and  C_32
                            x       y       z     vdW  Elec       q    Type
                         _______ _______ _______ _____ _____    ______ ____

>  <TORSDO>
F 3

$$$$
=
 OpenBabel11112417493D

 34 41  0  0  1  0  0  0  0  0999 V2000
  189.9190  176.6380  144.9240 C   0  0  0  0  0  0  0  0  0  0  0  0
  192.0850  175.6090  144.1000 C   0  0  0  0  0  2  0  0  0  0  0  0
  184.2870  179.0110  144.1140 C   0  0  2  0  0  3  0  0  0  0  0  0
  187.7330  177.1620  145.7920 C   0  0  0  0  0  0  0  0  0  0  0  0
  185.6470  176.8170  144.3920 C   0  0  1  0  0  3  0  0  0  0  0  0
  186.3260  179.0070  143.5330 O   0  0  0  0  0  0  0  0  0  0  0  0
  185.4550  179.9800  144.0600 C   0  0  0  0  0  2  0  0  0  0  0  0
  184.7260  178.8820  146.4340 C   0  0  0  0  0  2  0  0  0  0  0  0
  190.2340  175.8410  142.5500 C   0  0  2  0  0  3  0  0  0  0  0  0
  189.5570  173.2600  140.8360 C   0  0  0  0  0  2  0  0  0  0  0  0
  186.4900  175.8060  143.6100 C   0  0  0  0  0  2  0  0  0  0  0  0
  185.4640  177.5990  146.7760 C   0  0  0  0  0  2  0  0  0  0  0  0
  188.7820  175.3270  142.6340 C   0  0  1  0  0  3  0  0  0  0  0  0
  192.5020  174.9520  142.7930 C   0  0  0  0  0  2  0  0  0  0  0  0
  186.3000  177.1920  145.6540 N   0  0  0  0  0  0  0  0  0  0  0  0
  183.7970  178.6390  145.4030 O   0  0  0  0  0  0  0  0  0  0  0  0
  190.7660  173.4070  141.7770 C   0  0  1  0  0  3  0  0  0  0  0  0
  188.5310  176.7010  144.7350 C   0  0  0  0  0  0  0  0  0  0  0  0
  185.2980  178.0440  143.5240 C   0  0  2  0  0  3  0  0  0  0  0  0
  187.9130  176.3330  143.4040 C   0  0  2  0  0  3  0  0  0  0  0  0
  189.6680  177.4530  147.1290 C   0  0  0  0  0  3  0  0  0  0  0  0
  189.1290  174.5030  140.3370 O   0  0  0  0  0  0  0  0  0  0  0  0
  188.3210  177.5250  146.9650 N   0  0  0  0  0  0  0  0  0  0  0  0
  188.1850  175.0240  141.2450 C   0  0  0  0  0  2  0  0  0  0  0  0
  191.2500  174.8690  141.9230 C   0  0  1  0  0  3  0  0  0  0  0  0
  190.4560  177.0070  146.1180 N   0  0  0  0  0  0  0  0  0  0  0  0
  190.7520  176.1310  143.8750 N   0  0  0  0  0  0  0  0  0  0  0  0
  190.4560  172.8540  143.0260 O   0  0  0  0  0  0  0  0  0  0  0  0
  190.7370  171.4920  142.9030 C   0  0  0  0  0  2  0  0  0  0  0  0
  193.8430  171.2850  144.8570 C   0  0  0  0  0  2  0  0  0  0  0  0
  192.4570  169.7550  143.3120 C   0  0  0  0  0  2  0  0  0  0  0  0
  192.1990  171.2400  143.2240 C   0  0  2  0  0  3  0  0  0  0  0  0
  193.9050  169.5340  144.3750 S   0  0  0  0  0  0  0  0  0  0  0  0
  192.5430  171.8340  144.5030 N   0  0  0  0  0  2  0  0  0  0  0  0
  1 26  1  0  0  0  0
  3  7  1  1  0  0  0
  3 16  1  0  0  0  0
  4 23  2  0  0  0  0
  5 11  1  6  0  0  0
  5 15  1  0  0  0  0
  6  7  1  0  0  0  0
  8 12  1  0  0  0  0
  9 13  1  0  0  0  0
  9 27  1  1  0  0  0
 10 17  1  0  0  0  0
 13 24  1  6  0  0  0
 13 20  1  0  0  0  0
 14  2  1  0  0  0  0
 15  4  1  0  0  0  0
 15 12  1  0  0  0  0
 16  8  1  0  0  0  0
 17 25  1  0  0  0  0
 17 28  1  1  0  0  0
 18  1  2  0  0  0  0
 18  4  1  0  0  0  0
 19  6  1  1  0  0  0
 19  3  1  0  0  0  0
 19  5  1  0  0  0  0
 20 11  1  1  0  0  0
 20 18  1  0  0  0  0
 22 10  1  0  0  0  0
 22 24  1  0  0  0  0
 23 21  1  0  0  0  0
 25  9  1  0  0  0  0
 25 14  1  1  0  0  0
 26 21  2  0  0  0  0
 27  2  1  0  0  0  0
 27  1  1  0  0  0  0
 29 28  1  0  0  0  0
 31 33  1  0  0  0  0
 32 29  1  1  0  0  0
 32 31  1  0  0  0  0
 32 34  1  0  0  0  0
 33 30  1  0  0  0  0
 34 30  1  0  0  0  0
M  END
>  <MODEL>
2

>  <REMARK>
 VINA RESULT:      -8.0      3.124      5.118
  Name = 
  3 active torsions:
  status: ('A' for Active; 'I' for Inactive)
    1  A    between atoms: C_17  and  O_28
    2  A    between atoms: O_28  and  C_29
    3  A    between atoms: C_29  and  C_32
                            x       y       z     vdW  Elec       q    Type
                         _______ _______ _______ _____ _____    ______ ____

>  <TORSDO>
F 3

$$$$
=
 OpenBabel11112417493D

 34 41  0  0  1  0  0  0  0  0999 V2000
  189.0160  175.0930  143.2090 C   0  0  0  0  0  0  0  0  0  0  0  0
  190.9290  173.4980  142.7350 C   0  0  0  0  0  2  0  0  0  0  0  0
  185.2750  178.2520  146.9540 C   0  0  2  0  0  3  0  0  0  0  0  0
  187.5260  176.9490  143.5860 C   0  0  0  0  0  0  0  0  0  0  0  0
  187.5800  178.2550  145.7600 C   0  0  1  0  0  3  0  0  0  0  0  0
  186.1620  176.3890  146.4690 O   0  0  0  0  0  0  0  0  0  0  0  0
  184.8350  176.8510  146.5670 C   0  0  0  0  0  2  0  0  0  0  0  0
  184.7770  178.8400  144.7180 C   0  0  0  0  0  2  0  0  0  0  0  0
  190.6040  174.2950  145.0010 C   0  0  2  0  0  3  0  0  0  0  0  0
  193.2100  175.3570  146.4630 C   0  0  0  0  0  2  0  0  0  0  0  0
  189.0140  177.7340  145.8920 C   0  0  0  0  0  2  0  0  0  0  0  0
  186.0470  178.9550  143.8920 C   0  0  0  0  0  2  0  0  0  0  0  0
  190.5350  175.7320  145.5620 C   0  0  1  0  0  3  0  0  0  0  0  0
  192.0780  172.9620  143.5740 C   0  0  0  0  0  2  0  0  0  0  0  0
  187.0580  178.0390  144.4030 N   0  0  0  0  0  0  0  0  0  0  0  0
  185.0140  179.3060  146.0260 O   0  0  0  0  0  0  0  0  0  0  0  0
  193.1830  174.6730  145.0840 C   0  0  1  0  0  3  0  0  0  0  0  0
  188.5500  176.1110  144.0520 C   0  0  0  0  0  0  0  0  0  0  0  0
  186.6640  177.6500  146.8440 C   0  0  2  0  0  3  0  0  0  0  0  0
  189.1000  176.2700  145.4520 C   0  0  2  0  0  3  0  0  0  0  0  0
  187.4890  175.7660  141.5330 C   0  0  0  0  0  3  0  0  0  0  0  0
  192.1320  174.9500  147.2690 O   0  0  0  0  0  0  0  0  0  0  0  0
  187.0210  176.7570  142.3360 N   0  0  0  0  0  0  0  0  0  0  0  0
  191.0550  175.8210  147.0110 C   0  0  0  0  0  2  0  0  0  0  0  0
  192.0110  173.6780  144.9210 C   0  0  1  0  0  3  0  0  0  0  0  0
  188.4820  174.9470  141.9660 N   0  0  0  0  0  0  0  0  0  0  0  0
  190.0900  174.2510  143.6450 N   0  0  0  0  0  0  0  0  0  0  0  0
  193.1560  175.6490  144.0800 O   0  0  0  0  0  0  0  0  0  0  0  0
  194.4000  176.2790  144.1480 C   0  0  0  0  0  2  0  0  0  0  0  0
  196.5630  175.8290  141.2110 C   0  0  0  0  0  2  0  0  0  0  0  0
  196.7530  175.5990  143.7720 C   0  0  0  0  0  2  0  0  0  0  0  0
  195.3640  175.6140  143.1820 C   0  0  2  0  0  3  0  0  0  0  0  0
  197.9130  175.5130  142.3860 S   0  0  0  0  0  0  0  0  0  0  0  0
  195.4130  176.3510  141.9320 N   0  0  0  0  0  2  0  0  0  0  0  0
  1 27  1  0  0  0  0
  1 18  1  0  0  0  0
  2 14  1  0  0  0  0
  2 27  1  0  0  0  0
  3  7  1  6  0  0  0
  4 18  2  0  0  0  0
  4 15  1  0  0  0  0
  5 11  1  6  0  0  0
  5 19  1  0  0  0  0
  6  7  1  0  0  0  0
  8 16  1  0  0  0  0
  9 27  1  6  0  0  0
  9 13  1  0  0  0  0
 10 22  1  0  0  0  0
 12 15  1  0  0  0  0
 12  8  1  0  0  0  0
 13 24  1  1  0  0  0
 15  5  1  0  0  0  0
 16  3  1  0  0  0  0
 17 28  1  6  0  0  0
 17 10  1  0  0  0  0
 18 20  1  0  0  0  0
 19  6  1  6  0  0  0
 19  3  1  0  0  0  0
 20 13  1  0  0  0  0
 20 11  1  6  0  0  0
 21 26  1  0  0  0  0
 21 23  2  0  0  0  0
 23  4  1  0  0  0  0
 24 22  1  0  0  0  0
 25 14  1  6  0  0  0
 25  9  1  0  0  0  0
 25 17  1  0  0  0  0
 26  1  2  0  0  0  0
 28 29  1  0  0  0  0
 30 34  1  0  0  0  0
 30 33  1  0  0  0  0
 32 31  1  0  0  0  0
 32 29  1  1  0  0  0
 33 31  1  0  0  0  0
 34 32  1  0  0  0  0
M  END
>  <MODEL>
3

>  <REMARK>
 VINA RESULT:      -7.9      1.721      2.216
  Name = 
  3 active torsions:
  status: ('A' for Active; 'I' for Inactive)
    1  A    between atoms: C_17  and  O_28
    2  A    between atoms: O_28  and  C_29
    3  A    between atoms: C_29  and  C_32
                            x       y       z     vdW  Elec       q    Type
                         _______ _______ _______ _____ _____    ______ ____

>  <TORSDO>
F 3

$$$$
=
 OpenBabel11112417493D

 34 41  0  0  1  0  0  0  0  0999 V2000
  188.0640  175.7400  142.0290 C   0  0  0  0  0  0  0  0  0  0  0  0
  189.5660  174.1160  140.7900 C   0  0  0  0  0  2  0  0  0  0  0  0
  185.3870  177.9950  147.1040 C   0  0  2  0  0  3  0  0  0  0  0  0
  187.0190  177.5710  143.1970 C   0  0  0  0  0  0  0  0  0  0  0  0
  187.5290  178.0340  145.6380 C   0  0  1  0  0  3  0  0  0  0  0  0
  185.8340  176.2910  145.9250 O   0  0  0  0  0  0  0  0  0  0  0  0
  184.6410  176.8990  146.3640 C   0  0  0  0  0  2  0  0  0  0  0  0
  184.8200  179.3790  145.2720 C   0  0  0  0  0  2  0  0  0  0  0  0
  189.6130  174.1370  143.2140 C   0  0  2  0  0  3  0  0  0  0  0  0
  192.4990  174.2070  144.5250 C   0  0  0  0  0  2  0  0  0  0  0  0
  188.8350  177.2770  145.3790 C   0  0  0  0  0  2  0  0  0  0  0  0
  186.0080  179.5630  144.3440 C   0  0  0  0  0  2  0  0  0  0  0  0
  189.8860  175.2890  144.2050 C   0  0  1  0  0  3  0  0  0  0  0  0
  190.6550  173.1500  141.2320 C   0  0  0  0  0  2  0  0  0  0  0  0
  186.8550  178.3780  144.3780 N   0  0  0  0  0  0  0  0  0  0  0  0
  185.2620  179.3290  146.6090 O   0  0  0  0  0  0  0  0  0  0  0  0
  192.2120  174.0460  143.0210 C   0  0  1  0  0  3  0  0  0  0  0  0
  187.8910  176.4720  143.2120 C   0  0  0  0  0  0  0  0  0  0  0  0
  186.6110  177.2520  146.6000 C   0  0  2  0  0  3  0  0  0  0  0  0
  188.5850  176.0550  144.4900 C   0  0  2  0  0  3  0  0  0  0  0  0
  186.5610  177.1780  140.9050 C   0  0  0  0  0  3  0  0  0  0  0  0
  191.4380  173.7290  145.3140 O   0  0  0  0  0  0  0  0  0  0  0  0
  186.3760  177.8990  142.0420 N   0  0  0  0  0  0  0  0  0  0  0  0
  190.5400  174.7960  145.5110 C   0  0  0  0  0  2  0  0  0  0  0  0
  190.8530  173.3670  142.7300 C   0  0  1  0  0  3  0  0  0  0  0  0
  187.4020  176.1130  140.9010 N   0  0  0  0  0  0  0  0  0  0  0  0
  188.9810  174.6400  142.0080 N   0  0  0  0  0  0  0  0  0  0  0  0
  192.2920  175.2960  142.3950 O   0  0  0  0  0  0  0  0  0  0  0  0
  193.2250  176.0200  143.1400 C   0  0  0  0  0  2  0  0  0  0  0  0
  196.3090  176.4940  141.1990 C   0  0  0  0  0  2  0  0  0  0  0  0
  195.6460  176.1010  143.6600 C   0  0  0  0  0  2  0  0  0  0  0  0
  194.6220  175.7590  142.6070 C   0  0  2  0  0  3  0  0  0  0  0  0
  197.1870  176.4860  142.7920 S   0  0  0  0  0  0  0  0  0  0  0  0
  194.8790  176.5860  141.4410 N   0  0  0  0  0  2  0  0  0  0  0  0
  1 18  1  0  0  0  0
  2 14  1  0  0  0  0
  2 27  1  0  0  0  0
  3  7  1  6  0  0  0
  4 18  2  0  0  0  0
  4 15  1  0  0  0  0
  5 11  1  6  0  0  0
  5 19  1  0  0  0  0
  6  7  1  0  0  0  0
  8 16  1  0  0  0  0
  9 27  1  6  0  0  0
  9 13  1  0  0  0  0
 10 22  1  0  0  0  0
 12 15  1  0  0  0  0
 12  8  1  0  0  0  0
 13 20  1  0  0  0  0
 13 24  1  1  0  0  0
 15  5  1  0  0  0  0
 16  3  1  0  0  0  0
 17 28  1  6  0  0  0
 17 10  1  0  0  0  0
 18 20  1  0  0  0  0
 19  6  1  6  0  0  0
 19  3  1  0  0  0  0
 20 11  1  1  0  0  0
 21 23  2  0  0  0  0
 22 24  1  0  0  0  0
 23  4  1  0  0  0  0
 25 14  1  6  0  0  0
 25 17  1  0  0  0  0
 25  9  1  0  0  0  0
 26 21  1  0  0  0  0
 26  1  2  0  0  0  0
 27  1  1  0  0  0  0
 28 29  1  0  0  0  0
 30 34  1  0  0  0  0
 30 33  1  0  0  0  0
 32 29  1  1  0  0  0
 32 31  1  0  0  0  0
 33 31  1  0  0  0  0
 34 32  1  0  0  0  0
M  END
>  <MODEL>
4

>  <REMARK>
 VINA RESULT:      -7.8      2.011      3.174
  Name = 
  3 active torsions:
  status: ('A' for Active; 'I' for Inactive)
    1  A    between atoms: C_17  and  O_28
    2  A    between atoms: O_28  and  C_29
    3  A    between atoms: C_29  and  C_32
                            x       y       z     vdW  Elec       q    Type
                         _______ _______ _______ _____ _____    ______ ____

>  <TORSDO>
F 3

$$$$
=
 OpenBabel11112417493D

 34 41  0  0  1  0  0  0  0  0999 V2000
  192.6050  175.8590  145.3740 C   0  0  0  0  0  0  0  0  0  0  0  0
  190.2260  175.8390  146.2510 C   0  0  0  0  0  2  0  0  0  0  0  0
  197.1240  173.9250  141.6540 C   0  0  2  0  0  3  0  0  0  0  0  0
  194.7160  176.2520  144.2800 C   0  0  0  0  0  0  0  0  0  0  0  0
  195.1010  175.5380  141.8770 C   0  0  1  0  0  3  0  0  0  0  0  0
  195.5600  173.4050  142.9880 O   0  0  0  0  0  0  0  0  0  0  0  0
  196.9520  173.1830  142.9680 C   0  0  0  0  0  2  0  0  0  0  0  0
  197.9410  175.7120  142.9680 C   0  0  0  0  0  2  0  0  0  0  0  0
  190.7360  174.6170  144.2190 C   0  0  2  0  0  3  0  0  0  0  0  0
  188.7470  175.1030  141.7980 C   0  0  0  0  0  2  0  0  0  0  0  0
  193.5770  175.5960  141.7460 C   0  0  0  0  0  2  0  0  0  0  0  0
  196.8850  176.7910  143.1340 C   0  0  0  0  0  2  0  0  0  0  0  0
  191.3730  175.0890  142.8950 C   0  0  1  0  0  3  0  0  0  0  0  0
  188.9150  175.2910  145.7090 C   0  0  0  0  0  2  0  0  0  0  0  0
  195.5560  176.1940  143.1110 N   0  0  0  0  0  0  0  0  0  0  0  0
  197.8530  175.1520  141.6790 O   0  0  0  0  0  0  0  0  0  0  0  0
  188.5560  175.6490  143.2250 C   0  0  1  0  0  3  0  0  0  0  0  0
  193.4110  175.7400  144.2330 C   0  0  0  0  0  0  0  0  0  0  0  0
  195.6180  174.0890  141.7590 C   0  0  2  0  0  3  0  0  0  0  0  0
  192.9050  175.0260  142.9990 C   0  0  2  0  0  3  0  0  0  0  0  0
  194.3600  176.9610  146.5130 C   0  0  0  0  0  3  0  0  0  0  0  0
  189.5070  173.9210  141.7870 O   0  0  0  0  0  0  0  0  0  0  0  0
  195.1580  176.8530  145.4190 N   0  0  0  0  0  0  0  0  0  0  0  0
  190.8630  174.2880  141.6800 C   0  0  0  0  0  2  0  0  0  0  0  0
  189.2060  174.7570  144.3090 C   0  0  1  0  0  3  0  0  0  0  0  0
  193.0930  176.4740  146.4850 N   0  0  0  0  0  0  0  0  0  0  0  0
  191.2550  175.3830  145.3380 N   0  0  0  0  0  0  0  0  0  0  0  0
  189.0460  176.9590  143.2930 O   0  0  0  0  0  0  0  0  0  0  0  0
  188.0830  177.7430  142.6550 C   0  0  0  0  0  2  0  0  0  0  0  0
  185.9150  178.6290  145.4870 C   0  0  0  0  0  2  0  0  0  0  0  0
  185.8610  178.8080  142.9150 C   0  0  0  0  0  2  0  0  0  0  0  0
  186.8370  177.8280  143.5180 C   0  0  2  0  0  3  0  0  0  0  0  0
  184.8200  179.4140  144.2670 S   0  0  0  0  0  0  0  0  0  0  0  0
  187.1780  178.2920  144.8500 N   0  0  0  0  0  2  0  0  0  0  0  0
  1 26  1  0  0  0  0
  3 16  1  0  0  0  0
  3 19  1  0  0  0  0
  3  7  1  1  0  0  0
  4 23  2  0  0  0  0
  5 11  1  1  0  0  0
  5 15  1  0  0  0  0
  7  6  1  0  0  0  0
  8 12  1  0  0  0  0
  9 25  1  0  0  0  0
  9 27  1  1  0  0  0
 10 17  1  0  0  0  0
 13 24  1  6  0  0  0
 13 20  1  0  0  0  0
 13  9  1  0  0  0  0
 14  2  1  0  0  0  0
 15 12  1  0  0  0  0
 15  4  1  0  0  0  0
 16  8  1  0  0  0  0
 17 28  1  6  0  0  0
 17 25  1  0  0  0  0
 18  4  1  0  0  0  0
 18  1  2  0  0  0  0
 19  5  1  0  0  0  0
 19  6  1  1  0  0  0
 20 11  1  6  0  0  0
 20 18  1  0  0  0  0
 22 10  1  0  0  0  0
 23 21  1  0  0  0  0
 24 22  1  0  0  0  0
 25 14  1  1  0  0  0
 26 21  2  0  0  0  0
 27  1  1  0  0  0  0
 27  2  1  0  0  0  0
 29 28  1  0  0  0  0
 31 32  1  0  0  0  0
 31 33  1  0  0  0  0
 32 29  1  6  0  0  0
 32 34  1  0  0  0  0
 33 30  1  0  0  0  0
 34 30  1  0  0  0  0
M  END
>  <MODEL>
5

>  <REMARK>
 VINA RESULT:      -7.6      3.185      7.982
  Name = 
  3 active torsions:
  status: ('A' for Active; 'I' for Inactive)
    1  A    between atoms: C_17  and  O_28
    2  A    between atoms: O_28  and  C_29
    3  A    between atoms: C_29  and  C_32
                            x       y       z     vdW  Elec       q    Type
                         _______ _______ _______ _____ _____    ______ ____

>  <TORSDO>
F 3

$$$$
=
 OpenBabel11112417493D

 34 41  0  0  1  0  0  0  0  0999 V2000
  191.1170  173.1030  143.1990 C   0  0  0  0  0  0  0  0  0  0  0  0
  188.6900  173.1500  142.4670 C   0  0  0  0  0  2  0  0  0  0  0  0
  196.7980  175.4620  143.6020 C   0  0  2  0  0  3  0  0  0  0  0  0
  193.2520  173.2200  144.3110 C   0  0  0  0  0  0  0  0  0  0  0  0
  194.4290  175.4390  144.6630 C   0  0  1  0  0  3  0  0  0  0  0  0
  195.1440  174.9870  142.3650 O   0  0  0  0  0  0  0  0  0  0  0  0
  196.4980  174.6000  142.3890 C   0  0  0  0  0  2  0  0  0  0  0  0
  196.7280  173.4470  144.8370 C   0  0  0  0  0  2  0  0  0  0  0  0
  190.0230  175.1620  142.2330 C   0  0  2  0  0  3  0  0  0  0  0  0
  188.6800  177.8250  143.3090 C   0  0  0  0  0  2  0  0  0  0  0  0
  193.0350  176.0580  144.5290 C   0  0  0  0  0  2  0  0  0  0  0  0
  195.4140  173.3160  145.5870 C   0  0  0  0  0  2  0  0  0  0  0  0
  190.8310  175.9610  143.2770 C   0  0  1  0  0  3  0  0  0  0  0  0
  187.7650  174.2540  141.9770 C   0  0  0  0  0  2  0  0  0  0  0  0
  194.3500  173.9830  144.8460 N   0  0  0  0  0  0  0  0  0  0  0  0
  197.1350  174.7960  144.8190 O   0  0  0  0  0  0  0  0  0  0  0  0
  187.9830  176.4550  143.2170 C   0  0  1  0  0  3  0  0  0  0  0  0
  192.1940  173.8730  143.6620 C   0  0  0  0  0  0  0  0  0  0  0  0
  195.3310  175.8330  143.4750 C   0  0  2  0  0  3  0  0  0  0  0  0
  192.2400  175.3650  143.4180 C   0  0  2  0  0  3  0  0  0  0  0  0
  192.1480  171.1430  144.0280 C   0  0  0  0  0  3  0  0  0  0  0  0
  189.7080  177.9540  142.3590 O   0  0  0  0  0  0  0  0  0  0  0  0
  193.2020  171.8700  144.4810 N   0  0  0  0  0  0  0  0  0  0  0  0
  190.8920  177.4660  142.9460 C   0  0  0  0  0  2  0  0  0  0  0  0
  188.5450  175.5620  142.0860 C   0  0  1  0  0  3  0  0  0  0  0  0
  191.1140  171.7580  143.3990 N   0  0  0  0  0  0  0  0  0  0  0  0
  190.0050  173.7510  142.5710 N   0  0  0  0  0  0  0  0  0  0  0  0
  188.0640  175.8060  144.4550 O   0  0  0  0  0  0  0  0  0  0  0  0
  187.9290  176.8180  145.4080 C   0  0  0  0  0  2  0  0  0  0  0  0
  190.3230  175.0550  147.5680 C   0  0  0  0  0  2  0  0  0  0  0  0
  189.8280  177.4830  146.8540 C   0  0  0  0  0  2  0  0  0  0  0  0
  188.7330  176.4660  146.6460 C   0  0  2  0  0  3  0  0  0  0  0  0
  191.1330  176.6650  147.8040 S   0  0  0  0  0  0  0  0  0  0  0  0
  189.3510  175.1610  146.4920 N   0  0  0  0  0  2  0  0  0  0  0  0
  1 26  2  0  0  0  0
  1 18  1  0  0  0  0
  2 27  1  0  0  0  0
  3  7  1  6  0  0  0
  3 16  1  0  0  0  0
  4 23  1  0  0  0  0
  4 15  1  0  0  0  0
  5 11  1  6  0  0  0
  5 15  1  0  0  0  0
  6  7  1  0  0  0  0
  8 12  1  0  0  0  0
  9 27  1  1  0  0  0
  9 13  1  0  0  0  0
 13 24  1  6  0  0  0
 13 20  1  0  0  0  0
 14  2  1  0  0  0  0
 15 12  1  0  0  0  0
 16  8  1  0  0  0  0
 17 10  1  0  0  0  0
 17 28  1  1  0  0  0
 18  4  2  0  0  0  0
 19  6  1  6  0  0  0
 19  3  1  0  0  0  0
 19  5  1  0  0  0  0
 20 18  1  0  0  0  0
 20 11  1  1  0  0  0
 21 23  2  0  0  0  0
 22 24  1  0  0  0  0
 22 10  1  0  0  0  0
 25 14  1  1  0  0  0
 25  9  1  0  0  0  0
 25 17  1  0  0  0  0
 26 21  1  0  0  0  0
 27  1  1  0  0  0  0
 28 29  1  0  0  0  0
 30 33  1  0  0  0  0
 31 33  1  0  0  0  0
 32 29  1  6  0  0  0
 32 31  1  0  0  0  0
 34 32  1  0  0  0  0
 34 30  1  0  0  0  0
M  END
>  <MODEL>
6

>  <REMARK>
 VINA RESULT:      -7.4      2.556      7.043
  Name = 
  3 active torsions:
  status: ('A' for Active; 'I' for Inactive)
    1  A    between atoms: C_17  and  O_28
    2  A    between atoms: O_28  and  C_29
    3  A    between atoms: C_29  and  C_32
                            x       y       z     vdW  Elec       q    Type
                         _______ _______ _______ _____ _____    ______ ____

>  <TORSDO>
F 3

$$$$
=
 OpenBabel11112417493D

 34 41  0  0  1  0  0  0  0  0999 V2000
  189.3570  174.5980  141.5520 C   0  0  0  0  0  0  0  0  0  0  0  0
  188.3010  176.8850  141.8420 C   0  0  0  0  0  2  0  0  0  0  0  0
  193.8590  170.4650  142.3580 C   0  0  2  0  0  3  0  0  0  0  0  0
  190.0870  172.3030  141.6510 C   0  0  0  0  0  0  0  0  0  0  0  0
  191.7370  171.5260  143.4130 C   0  0  1  0  0  3  0  0  0  0  0  0
  193.3200  172.4320  141.7800 O   0  0  0  0  0  0  0  0  0  0  0  0
  193.9560  171.3540  141.1310 C   0  0  0  0  0  2  0  0  0  0  0  0
  192.0600  169.4130  141.2420 C   0  0  0  0  0  2  0  0  0  0  0  0
  190.2920  176.3450  143.1160 C   0  0  2  0  0  3  0  0  0  0  0  0
  190.1620  177.0290  146.2090 C   0  0  0  0  0  2  0  0  0  0  0  0
  191.2600  172.7390  144.2160 C   0  0  0  0  0  2  0  0  0  0  0  0
  190.7270  169.8800  141.8020 C   0  0  0  0  0  2  0  0  0  0  0  0
  190.5800  175.1790  144.0860 C   0  0  1  0  0  3  0  0  0  0  0  0
  188.5740  178.0540  142.7760 C   0  0  0  0  0  2  0  0  0  0  0  0
  190.8410  171.2510  142.2820 N   0  0  0  0  0  0  0  0  0  0  0  0
  193.0080  169.3210  142.2800 O   0  0  0  0  0  0  0  0  0  0  0  0
  189.0880  177.4050  145.1720 C   0  0  1  0  0  3  0  0  0  0  0  0
  190.1440  173.6100  142.1600 C   0  0  0  0  0  0  0  0  0  0  0  0
  193.2060  171.6910  142.9720 C   0  0  2  0  0  3  0  0  0  0  0  0
  191.0740  173.9540  143.3020 C   0  0  2  0  0  3  0  0  0  0  0  0
  188.5140  173.0030  140.0230 C   0  0  0  0  0  3  0  0  0  0  0  0
  191.4340  176.9060  145.6230 O   0  0  0  0  0  0  0  0  0  0  0  0
  189.2710  172.0310  140.5950 N   0  0  0  0  0  0  0  0  0  0  0  0
  191.5780  175.5720  145.1940 C   0  0  0  0  0  2  0  0  0  0  0  0
  189.6590  177.5970  143.7470 C   0  0  1  0  0  3  0  0  0  0  0  0
  188.5540  174.2730  140.5030 N   0  0  0  0  0  0  0  0  0  0  0  0
  189.3640  175.9300  142.0800 N   0  0  0  0  0  0  0  0  0  0  0  0
  188.0730  176.4400  145.1810 O   0  0  0  0  0  0  0  0  0  0  0  0
  187.7910  176.2180  146.5300 C   0  0  0  0  0  2  0  0  0  0  0  0
  185.2610  178.7030  147.4940 C   0  0  0  0  0  2  0  0  0  0  0  0
  185.6150  176.9730  145.6150 C   0  0  0  0  0  2  0  0  0  0  0  0
  186.4330  176.8040  146.8720 C   0  0  2  0  0  3  0  0  0  0  0  0
  184.4110  178.2840  145.9420 S   0  0  0  0  0  0  0  0  0  0  0  0
  186.5870  178.1080  147.4890 N   0  0  0  0  0  2  0  0  0  0  0  0
  1 27  1  0  0  0  0
  1 18  1  0  0  0  0
  2 27  1  0  0  0  0
  2 14  1  0  0  0  0
  3  7  1  6  0  0  0
  3 19  1  0  0  0  0
  4 18  2  0  0  0  0
  4 15  1  0  0  0  0
  5 11  1  6  0  0  0
  7  6  1  0  0  0  0
  8 12  1  0  0  0  0
  8 16  1  0  0  0  0
  9 27  1  6  0  0  0
  9 25  1  0  0  0  0
  9 13  1  0  0  0  0
 12 15  1  0  0  0  0
 13 24  1  1  0  0  0
 15  5  1  0  0  0  0
 16  3  1  0  0  0  0
 17 28  1  6  0  0  0
 17 10  1  0  0  0  0
 18 20  1  0  0  0  0
 19  6  1  6  0  0  0
 19  5  1  0  0  0  0
 20 13  1  0  0  0  0
 20 11  1  1  0  0  0
 21 26  1  0  0  0  0
 21 23  2  0  0  0  0
 22 10  1  0  0  0  0
 23  4  1  0  0  0  0
 24 22  1  0  0  0  0
 25 14  1  6  0  0  0
 25 17  1  0  0  0  0
 26  1  2  0  0  0  0
 28 29  1  0  0  0  0
 31 33  1  0  0  0  0
 31 32  1  0  0  0  0
 32 29  1  6  0  0  0
 32 34  1  0  0  0  0
 33 30  1  0  0  0  0
 34 30  1  0  0  0  0
M  END
>  <MODEL>
7

>  <REMARK>
 VINA RESULT:      -7.2      3.664      7.487
  Name = 
  3 active torsions:
  status: ('A' for Active; 'I' for Inactive)
    1  A    between atoms: C_17  and  O_28
    2  A    between atoms: O_28  and  C_29
    3  A    between atoms: C_29  and  C_32
                            x       y       z     vdW  Elec       q    Type
                         _______ _______ _______ _____ _____    ______ ____

>  <TORSDO>
F 3

$$$$
=
 OpenBabel11112417493D

 34 41  0  0  1  0  0  0  0  0999 V2000
  193.0350  175.2690  143.4990 C   0  0  0  0  0  0  0  0  0  0  0  0
  193.4140  176.5540  145.6510 C   0  0  0  0  0  2  0  0  0  0  0  0
  190.7820  170.5640  140.2140 C   0  0  2  0  0  3  0  0  0  0  0  0
  192.3160  174.3560  141.3880 C   0  0  0  0  0  0  0  0  0  0  0  0
  190.2490  172.8950  141.2270 C   0  0  1  0  0  3  0  0  0  0  0  0
  191.8660  171.1940  141.9240 O   0  0  0  0  0  0  0  0  0  0  0  0
  192.1670  170.3830  140.8110 C   0  0  0  0  0  2  0  0  0  0  0  0
  191.8080  172.0950  138.7340 C   0  0  0  0  0  2  0  0  0  0  0  0
  191.8370  174.7120  145.6500 C   0  0  2  0  0  3  0  0  0  0  0  0
  189.0280  175.3170  146.9900 C   0  0  0  0  0  2  0  0  0  0  0  0
  189.8140  173.5820  142.5240 C   0  0  0  0  0  2  0  0  0  0  0  0
  191.5250  173.5280  139.1530 C   0  0  0  0  0  2  0  0  0  0  0  0
  190.5930  174.4540  144.7740 C   0  0  1  0  0  3  0  0  0  0  0  0
  192.7600  176.5150  147.0240 C   0  0  0  0  0  2  0  0  0  0  0  0
  191.3740  173.6020  140.6000 N   0  0  0  0  0  0  0  0  0  0  0  0
  190.6800  171.2910  138.9900 O   0  0  0  0  0  0  0  0  0  0  0  0
  190.2370  176.2710  146.9940 C   0  0  1  0  0  3  0  0  0  0  0  0
  192.1280  174.4850  142.7720 C   0  0  0  0  0  0  0  0  0  0  0  0
  190.5530  171.4000  141.4610 C   0  0  2  0  0  3  0  0  0  0  0  0
  191.0050  173.7520  143.4710 C   0  0  2  0  0  3  0  0  0  0  0  0
  194.2260  175.7520  141.5140 C   0  0  0  0  0  3  0  0  0  0  0  0
  189.4250  173.9720  146.8900 O   0  0  0  0  0  0  0  0  0  0  0  0
  193.3600  174.9950  140.7920 N   0  0  0  0  0  0  0  0  0  0  0  0
  189.5060  173.6540  145.5200 C   0  0  0  0  0  2  0  0  0  0  0  0
  191.5940  175.5340  146.9280 C   0  0  1  0  0  3  0  0  0  0  0  0
  194.0590  175.8910  142.8540 N   0  0  0  0  0  0  0  0  0  0  0  0
  192.8410  175.4510  144.9060 N   0  0  0  0  0  0  0  0  0  0  0  0
  190.1110  177.1880  145.9430 O   0  0  0  0  0  0  0  0  0  0  0  0
  188.7370  177.3950  145.8000 C   0  0  0  0  0  2  0  0  0  0  0  0
  189.2100  177.8170  142.1800 C   0  0  0  0  0  2  0  0  0  0  0  0
  187.5210  176.6810  143.7630 C   0  0  0  0  0  2  0  0  0  0  0  0
  188.4180  177.7390  144.3570 C   0  0  2  0  0  3  0  0  0  0  0  0
  187.7800  176.7140  141.9720 S   0  0  0  0  0  0  0  0  0  0  0  0
  189.6370  177.7900  143.5700 N   0  0  0  0  0  2  0  0  0  0  0  0
  1 27  1  0  0  0  0
  2 14  1  0  0  0  0
  3  7  1  1  0  0  0
  3 19  1  0  0  0  0
  4 18  1  0  0  0  0
  5 19  1  0  0  0  0
  5 11  1  1  0  0  0
  7  6  1  0  0  0  0
  8 16  1  0  0  0  0
  8 12  1  0  0  0  0
  9 27  1  6  0  0  0
  9 25  1  0  0  0  0
 10 17  1  0  0  0  0
 12 15  1  0  0  0  0
 13 24  1  1  0  0  0
 13  9  1  0  0  0  0
 15  5  1  0  0  0  0
 15  4  1  0  0  0  0
 16  3  1  0  0  0  0
 17 28  1  6  0  0  0
 18 20  1  0  0  0  0
 18  1  2  0  0  0  0
 19  6  1  1  0  0  0
 20 11  1  6  0  0  0
 20 13  1  0  0  0  0
 21 26  2  0  0  0  0
 22 10  1  0  0  0  0
 23  4  2  0  0  0  0
 23 21  1  0  0  0  0
 24 22  1  0  0  0  0
 25 17  1  0  0  0  0
 25 14  1  6  0  0  0
 26  1  1  0  0  0  0
 27  2  1  0  0  0  0
 29 28  1  0  0  0  0
 30 34  1  0  0  0  0
 31 32  1  0  0  0  0
 32 29  1  1  0  0  0
 33 30  1  0  0  0  0
 33 31  1  0  0  0  0
 34 32  1  0  0  0  0
M  END
>  <MODEL>
8

>  <REMARK>
 VINA RESULT:      -7.2      3.162      6.079
  Name = 
  3 active torsions:
  status: ('A' for Active; 'I' for Inactive)
    1  A    between atoms: C_17  and  O_28
    2  A    between atoms: O_28  and  C_29
    3  A    between atoms: C_29  and  C_32
                            x       y       z     vdW  Elec       q    Type
                         _______ _______ _______ _____ _____    ______ ____

>  <TORSDO>
F 3

$$$$
=
 OpenBabel11112417493D

 34 41  0  0  1  0  0  0  0  0999 V2000
  191.4770  173.0260  143.2630 C   0  0  0  0  0  0  0  0  0  0  0  0
  189.0580  173.1460  142.5110 C   0  0  0  0  0  2  0  0  0  0  0  0
  197.2050  175.2450  143.7760 C   0  0  2  0  0  3  0  0  0  0  0  0
  193.6030  173.0660  144.3960 C   0  0  0  0  0  0  0  0  0  0  0  0
  194.8260  175.2480  144.8150 C   0  0  1  0  0  3  0  0  0  0  0  0
  195.5510  174.8390  142.5130 O   0  0  0  0  0  0  0  0  0  0  0  0
  196.8970  174.4210  142.5390 C   0  0  0  0  0  2  0  0  0  0  0  0
  197.0780  173.2010  144.9580 C   0  0  0  0  0  2  0  0  0  0  0  0
  190.4380  175.1330  142.3400 C   0  0  2  0  0  3  0  0  0  0  0  0
  189.1440  177.7970  143.4730 C   0  0  0  0  0  2  0  0  0  0  0  0
  193.4470  175.9010  144.6850 C   0  0  0  0  0  2  0  0  0  0  0  0
  195.7540  173.0800  145.6920 C   0  0  0  0  0  2  0  0  0  0  0  0
  191.2530  175.8860  143.4120 C   0  0  1  0  0  3  0  0  0  0  0  0
  188.1630  174.2830  142.0410 C   0  0  0  0  0  2  0  0  0  0  0  0
  194.7130  173.7900  144.9600 N   0  0  0  0  0  0  0  0  0  0  0  0
  197.5150  174.5400  144.9790 O   0  0  0  0  0  0  0  0  0  0  0  0
  188.4180  176.4450  143.3390 C   0  0  1  0  0  3  0  0  0  0  0  0
  192.5660  173.7590  143.7540 C   0  0  0  0  0  0  0  0  0  0  0  0
  195.7480  175.6510  143.6460 C   0  0  2  0  0  3  0  0  0  0  0  0
  192.6480  175.2550  143.5500 C   0  0  2  0  0  3  0  0  0  0  0  0
  192.4550  171.0220  144.0490 C   0  0  0  0  0  3  0  0  0  0  0  0
  190.1840  177.9270  142.5360 O   0  0  0  0  0  0  0  0  0  0  0  0
  193.5210  171.7140  144.5300 N   0  0  0  0  0  0  0  0  0  0  0  0
  191.3510  177.3970  143.1200 C   0  0  0  0  0  2  0  0  0  0  0  0
  188.9700  175.5700  142.1900 C   0  0  1  0  0  3  0  0  0  0  0  0
  191.4410  171.6760  143.4270 N   0  0  0  0  0  0  0  0  0  0  0  0
  190.3850  173.7140  142.6410 N   0  0  0  0  0  0  0  0  0  0  0  0
  188.4720  175.7640  144.5610 O   0  0  0  0  0  0  0  0  0  0  0  0
  188.5630  176.7620  145.5330 C   0  0  0  0  0  2  0  0  0  0  0  0
  185.9460  177.9790  147.8080 C   0  0  0  0  0  2  0  0  0  0  0  0
  186.0860  176.8060  145.5160 C   0  0  0  0  0  2  0  0  0  0  0  0
  187.3120  176.7540  146.3930 C   0  0  2  0  0  3  0  0  0  0  0  0
  184.7550  177.5240  146.5110 S   0  0  0  0  0  0  0  0  0  0  0  0
  187.2930  177.9150  147.2650 N   0  0  0  0  0  2  0  0  0  0  0  0
  1 26  2  0  0  0  0
  1 18  1  0  0  0  0
  2 27  1  0  0  0  0
  3  7  1  6  0  0  0
  3 16  1  0  0  0  0
  4 23  1  0  0  0  0
  4 15  1  0  0  0  0
  5 11  1  6  0  0  0
  5 15  1  0  0  0  0
  6  7  1  0  0  0  0
  8 16  1  0  0  0  0
  8 12  1  0  0  0  0
  9 27  1  1  0  0  0
  9 13  1  0  0  0  0
 13 24  1  6  0  0  0
 13 20  1  0  0  0  0
 14  2  1  0  0  0  0
 15 12  1  0  0  0  0
 17 10  1  0  0  0  0
 17 28  1  1  0  0  0
 18  4  2  0  0  0  0
 19  6  1  6  0  0  0
 19  3  1  0  0  0  0
 19  5  1  0  0  0  0
 20 18  1  0  0  0  0
 20 11  1  1  0  0  0
 21 23  2  0  0  0  0
 22 24  1  0  0  0  0
 22 10  1  0  0  0  0
 25 14  1  1  0  0  0
 25  9  1  0  0  0  0
 25 17  1  0  0  0  0
 26 21  1  0  0  0  0
 27  1  1  0  0  0  0
 28 29  1  0  0  0  0
 31 32  1  0  0  0  0
 31 33  1  0  0  0  0
 32 29  1  6  0  0  0
 32 34  1  0  0  0  0
 33 30  1  0  0  0  0
 34 30  1  0  0  0  0
M  END
>  <MODEL>
9

>  <REMARK>
 VINA RESULT:      -7.1      3.135      7.753
  Name = 
  3 active torsions:
  status: ('A' for Active; 'I' for Inactive)
    1  A    between atoms: C_17  and  O_28
    2  A    between atoms: O_28  and  C_29
    3  A    between atoms: C_29  and  C_32
                            x       y       z     vdW  Elec       q    Type
                         _______ _______ _______ _____ _____    ______ ____

>  <TORSDO>
F 3

$$$$
