=
 OpenBabel11112416553D

 31 35  0  0  1  0  0  0  0  0999 V2000
  194.5100  175.9950  144.8350 C   0  0  0  0  0  0  0  0  0  0  0  0
  191.2210  176.8940  143.1440 C   0  0  2  0  0  3  0  0  0  0  0  0
  190.7150  175.6660  142.4060 C   0  0  0  0  0  0  0  0  0  0  0  0
  188.3120  176.1610  147.5490 O   0  0  0  0  0  0  0  0  0  0  0  0
  187.6320  176.8020  146.7040 C   0  0  0  0  0  0  0  0  0  0  0  0
  191.1260  173.5130  141.3520 C   0  0  0  0  0  0  0  0  0  0  0  0
  192.2390  176.5450  144.1980 C   0  0  0  0  0  0  0  0  0  0  0  0
  194.0850  175.7420  146.1430 C   0  0  0  0  0  3  0  0  0  0  0  0
  191.5920  174.6300  142.0490 C   0  0  0  0  0  3  0  0  0  0  0  0
  189.5920  177.0980  145.0850 C   0  0  0  0  0  0  0  0  0  0  0  0
  195.8170  175.8450  144.5080 F   0  0  0  0  0  0  0  0  0  0  0  0
  188.4740  176.6220  142.3020 O   0  0  0  0  0  0  0  0  0  0  0  0
  191.9800  172.5140  141.0240 F   0  0  0  0  0  0  0  0  0  0  0  0
  190.4410  176.5030  145.8740 N   0  0  0  0  0  0  0  0  0  0  0  0
  190.0670  177.7070  143.7780 C   0  0  2  0  0  3  0  0  0  0  0  0
  188.2310  177.2890  145.4950 N   0  0  0  0  0  2  0  0  0  0  0  0
  193.5890  176.3910  143.8610 C   0  0  0  0  0  3  0  0  0  0  0  0
  189.7790  173.4250  140.9940 C   0  0  0  0  0  3  0  0  0  0  0  0
  191.8150  176.3060  145.5160 C   0  0  0  0  0  0  0  0  0  0  0  0
  192.7370  175.8980  146.4830 C   0  0  0  0  0  3  0  0  0  0  0  0
  188.9310  177.8880  142.7710 C   0  0  0  0  0  2  0  0  0  0  0  0
  189.3640  175.5860  142.0060 C   0  0  0  0  0  0  0  0  0  0  0  0
  188.9000  174.4610  141.3190 C   0  0  0  0  0  3  0  0  0  0  0  0
  184.8980  178.9180  145.1500 N   0  0  0  0  0  0  0  0  0  0  0  0
  185.3190  176.5820  145.7740 C   0  0  0  0  0  2  0  0  0  0  0  0
  186.7090  178.9430  148.3480 O   0  0  0  0  0  1  0  0  0  0  0  0
  184.9730  179.8410  144.0340 C   0  0  0  0  0  1  0  0  0  0  0  0
  185.3660  177.6240  144.6540 C   0  0  0  0  0  2  0  0  0  0  0  0
  185.8300  178.4720  147.3700 C   0  0  2  0  0  3  0  0  0  0  0  0
  186.1710  177.0270  146.9660 C   0  0  2  0  0  3  0  0  0  0  0  0
  185.8410  179.4000  146.1560 C   0  0  0  0  0  2  0  0  0  0  0  0
  1  8  1  0  0  0  0
  2  3  1  1  0  0  0
  2 15  1  0  0  0  0
  2  7  1  0  0  0  0
  5  4  2  0  0  0  0
  6  9  2  0  0  0  0
  7 19  2  0  0  0  0
  8 20  2  0  0  0  0
  9  3  1  0  0  0  0
 10 16  1  0  0  0  0
 10 14  2  0  0  0  0
 11  1  1  0  0  0  0
 12 21  1  0  0  0  0
 13  6  1  0  0  0  0
 15 21  1  6  0  0  0
 15 10  1  0  0  0  0
 16  5  1  0  0  0  0
 17  7  1  0  0  0  0
 17  1  2  0  0  0  0
 18 23  2  0  0  0  0
 18  6  1  0  0  0  0
 19 14  1  0  0  0  0
 19 20  1  0  0  0  0
 22 12  1  0  0  0  0
 22  3  2  0  0  0  0
 23 22  1  0  0  0  0
 24 31  1  0  0  0  0
 25 30  1  0  0  0  0
 27 24  1  0  0  0  0
 28 24  1  0  0  0  0
 28 25  1  0  0  0  0
 29 26  1  1  0  0  0
 30  5  1  6  0  0  0
 30 29  1  0  0  0  0
 31 29  1  0  0  0  0
M  END
>  <MODEL>
1

>  <REMARK>
 VINA RESULT:      -9.0      0.000      0.000
  Name = 
  1 active torsions:
  status: ('A' for Active; 'I' for Inactive)
    1  A    between atoms: C_5  and  C_30
                            x       y       z     vdW  Elec       q    Type
                         _______ _______ _______ _____ _____    ______ ____

>  <TORSDO>
F 1

$$$$
=
 OpenBabel11112416553D

 31 35  0  0  1  0  0  0  0  0999 V2000
  185.9740  178.1940  140.8920 C   0  0  0  0  0  0  0  0  0  0  0  0
  188.5480  178.0900  143.6940 C   0  0  2  0  0  3  0  0  0  0  0  0
  187.8860  177.4890  144.9240 C   0  0  0  0  0  0  0  0  0  0  0  0
  190.7970  173.5730  141.9820 O   0  0  0  0  0  0  0  0  0  0  0  0
  191.5630  174.1300  142.8120 C   0  0  0  0  0  0  0  0  0  0  0  0
  185.8880  176.9530  146.2020 C   0  0  0  0  0  0  0  0  0  0  0  0
  187.7960  177.7670  142.4300 C   0  0  0  0  0  0  0  0  0  0  0  0
  186.3180  177.0520  140.1620 C   0  0  0  0  0  3  0  0  0  0  0  0
  186.4890  177.4870  145.0600 C   0  0  0  0  0  3  0  0  0  0  0  0
  190.1490  176.2580  142.9610 C   0  0  0  0  0  0  0  0  0  0  0  0
  184.9190  178.9520  140.5040 F   0  0  0  0  0  0  0  0  0  0  0  0
  190.0720  177.0220  145.8990 O   0  0  0  0  0  0  0  0  0  0  0  0
  184.5380  176.9450  146.3160 F   0  0  0  0  0  0  0  0  0  0  0  0
  189.2900  175.8480  142.0710 N   0  0  0  0  0  0  0  0  0  0  0  0
  190.0240  177.6490  143.5540 C   0  0  2  0  0  3  0  0  0  0  0  0
  191.2850  175.4500  143.2990 N   0  0  0  0  0  2  0  0  0  0  0  0
  186.7070  178.5490  142.0280 C   0  0  0  0  0  3  0  0  0  0  0  0
  186.6780  176.4260  147.2260 C   0  0  0  0  0  3  0  0  0  0  0  0
  188.1510  176.6280  141.6870 C   0  0  0  0  0  0  0  0  0  0  0  0
  187.4070  176.2700  140.5590 C   0  0  0  0  0  3  0  0  0  0  0  0
  190.7440  177.7790  144.8960 C   0  0  0  0  0  2  0  0  0  0  0  0
  188.6780  176.9900  145.9810 C   0  0  0  0  0  0  0  0  0  0  0  0
  188.0700  176.4460  147.1160 C   0  0  0  0  0  3  0  0  0  0  0  0
  194.2610  174.7510  145.4020 N   0  0  0  0  0  0  0  0  0  0  0  0
  192.6230  173.0280  144.7940 C   0  0  0  0  0  2  0  0  0  0  0  0
  194.1670  174.5690  141.7320 O   0  0  0  0  0  1  0  0  0  0  0  0
  194.4550  175.8980  146.2690 C   0  0  0  0  0  1  0  0  0  0  0  0
  192.9150  174.2470  145.6710 C   0  0  0  0  0  2  0  0  0  0  0  0
  194.0980  174.1010  143.0460 C   0  0  2  0  0  3  0  0  0  0  0  0
  192.7640  173.3800  143.3100 C   0  0  2  0  0  3  0  0  0  0  0  0
  194.3050  175.2530  144.0300 C   0  0  0  0  0  2  0  0  0  0  0  0
  1 17  1  0  0  0  0
  2  7  1  6  0  0  0
  2  3  1  0  0  0  0
  3  9  2  0  0  0  0
  3 22  1  0  0  0  0
  4  5  2  0  0  0  0
  5 16  1  0  0  0  0
  6 13  1  0  0  0  0
  6 18  2  0  0  0  0
  8 20  1  0  0  0  0
  8  1  2  0  0  0  0
  9  6  1  0  0  0  0
 10 16  1  0  0  0  0
 10 15  1  0  0  0  0
 11  1  1  0  0  0  0
 12 22  1  0  0  0  0
 14 10  2  0  0  0  0
 15  2  1  0  0  0  0
 15 21  1  1  0  0  0
 17  7  2  0  0  0  0
 19 14  1  0  0  0  0
 19  7  1  0  0  0  0
 20 19  2  0  0  0  0
 21 12  1  0  0  0  0
 22 23  2  0  0  0  0
 23 18  1  0  0  0  0
 24 28  1  0  0  0  0
 24 27  1  0  0  0  0
 25 28  1  0  0  0  0
 29 26  1  6  0  0  0
 29 30  1  0  0  0  0
 29 31  1  0  0  0  0
 30  5  1  1  0  0  0
 30 25  1  0  0  0  0
 31 24  1  0  0  0  0
M  END
>  <MODEL>
2

>  <REMARK>
 VINA RESULT:      -8.6      3.526      7.494
  Name = 
  1 active torsions:
  status: ('A' for Active; 'I' for Inactive)
    1  A    between atoms: C_5  and  C_30
                            x       y       z     vdW  Elec       q    Type
                         _______ _______ _______ _____ _____    ______ ____

>  <TORSDO>
F 1

$$$$
=
 OpenBabel11112416553D

 31 35  0  0  1  0  0  0  0  0999 V2000
  185.4550  179.0650  143.4140 C   0  0  0  0  0  0  0  0  0  0  0  0
  188.8390  177.3860  143.8800 C   0  0  2  0  0  3  0  0  0  0  0  0
  188.7670  176.5090  145.1200 C   0  0  0  0  0  0  0  0  0  0  0  0
  187.8320  173.5080  140.3670 O   0  0  0  0  0  0  0  0  0  0  0  0
  189.0680  173.5410  140.6070 C   0  0  0  0  0  0  0  0  0  0  0  0
  187.7460  175.9400  147.2530 C   0  0  0  0  0  0  0  0  0  0  0  0
  187.4730  177.7270  143.3450 C   0  0  0  0  0  0  0  0  0  0  0  0
  184.8740  178.2420  142.4440 C   0  0  0  0  0  3  0  0  0  0  0  0
  187.7940  176.7360  146.1060 C   0  0  0  0  0  3  0  0  0  0  0  0
  188.9260  175.6890  141.9900 C   0  0  0  0  0  0  0  0  0  0  0  0
  184.7560  180.1080  143.9230 F   0  0  0  0  0  0  0  0  0  0  0  0
  190.7410  175.2760  144.3900 O   0  0  0  0  0  0  0  0  0  0  0  0
  186.7940  176.1610  148.1900 F   0  0  0  0  0  0  0  0  0  0  0  0
  187.6460  175.8300  141.7900 N   0  0  0  0  0  0  0  0  0  0  0  0
  189.6960  176.7450  142.7630 C   0  0  2  0  0  3  0  0  0  0  0  0
  189.6390  174.6030  141.3840 N   0  0  0  0  0  2  0  0  0  0  0  0
  186.7510  178.8050  143.8700 C   0  0  0  0  0  3  0  0  0  0  0  0
  188.6780  174.9160  147.4310 C   0  0  0  0  0  3  0  0  0  0  0  0
  186.8940  176.9100  142.3590 C   0  0  0  0  0  0  0  0  0  0  0  0
  185.5940  177.1660  141.9160 C   0  0  0  0  0  3  0  0  0  0  0  0
  191.0040  176.2070  143.3420 C   0  0  0  0  0  2  0  0  0  0  0  0
  189.7290  175.4970  145.3280 C   0  0  0  0  0  0  0  0  0  0  0  0
  189.6690  174.6960  146.4710 C   0  0  0  0  0  3  0  0  0  0  0  0
  192.7380  172.6290  140.8810 N   0  0  0  0  0  0  0  0  0  0  0  0
  190.5330  171.6120  141.2380 C   0  0  0  0  0  2  0  0  0  0  0  0
  190.5380  173.7910  138.1750 O   0  0  0  0  0  1  0  0  0  0  0  0
  193.8090  173.3240  141.5690 C   0  0  0  0  0  1  0  0  0  0  0  0
  191.7090  172.3510  141.8820 C   0  0  0  0  0  2  0  0  0  0  0  0
  191.0460  172.9100  139.1320 C   0  0  2  0  0  3  0  0  0  0  0  0
  189.9390  172.4330  140.0900 C   0  0  2  0  0  3  0  0  0  0  0  0
  192.1930  173.5660  139.9010 C   0  0  0  0  0  2  0  0  0  0  0  0
  1 17  1  0  0  0  0
  1 11  1  0  0  0  0
  2  7  1  6  0  0  0
  2  3  1  0  0  0  0
  3 22  2  0  0  0  0
  3  9  1  0  0  0  0
  4  5  2  0  0  0  0
  5 16  1  0  0  0  0
  6 18  1  0  0  0  0
  6 13  1  0  0  0  0
  7 17  2  0  0  0  0
  8  1  2  0  0  0  0
  9  6  2  0  0  0  0
 10 15  1  0  0  0  0
 12 22  1  0  0  0  0
 14 10  2  0  0  0  0
 14 19  1  0  0  0  0
 15 21  1  1  0  0  0
 15  2  1  0  0  0  0
 16 10  1  0  0  0  0
 19  7  1  0  0  0  0
 20 19  2  0  0  0  0
 20  8  1  0  0  0  0
 21 12  1  0  0  0  0
 22 23  1  0  0  0  0
 23 18  2  0  0  0  0
 24 27  1  0  0  0  0
 24 28  1  0  0  0  0
 25 28  1  0  0  0  0
 29 26  1  6  0  0  0
 29 31  1  0  0  0  0
 29 30  1  0  0  0  0
 30  5  1  1  0  0  0
 30 25  1  0  0  0  0
 31 24  1  0  0  0  0
M  END
>  <MODEL>
3

>  <REMARK>
 VINA RESULT:      -8.1      3.727      7.743
  Name = 
  1 active torsions:
  status: ('A' for Active; 'I' for Inactive)
    1  A    between atoms: C_5  and  C_30
                            x       y       z     vdW  Elec       q    Type
                         _______ _______ _______ _____ _____    ______ ____

>  <TORSDO>
F 1

$$$$
=
 OpenBabel11112416553D

 31 35  0  0  1  0  0  0  0  0999 V2000
  184.9710  177.8550  146.3940 C   0  0  0  0  0  0  0  0  0  0  0  0
  186.7080  175.8970  143.6290 C   0  0  2  0  0  3  0  0  0  0  0  0
  186.4720  176.6230  142.3140 C   0  0  0  0  0  0  0  0  0  0  0  0
  191.4980  178.0170  144.6090 O   0  0  0  0  0  0  0  0  0  0  0  0
  191.6360  176.9950  143.8850 C   0  0  0  0  0  0  0  0  0  0  0  0
  185.1780  178.1680  140.9520 C   0  0  0  0  0  0  0  0  0  0  0  0
  186.4740  176.7890  144.8200 C   0  0  0  0  0  0  0  0  0  0  0  0
  186.0420  178.5740  146.9330 C   0  0  0  0  0  3  0  0  0  0  0  0
  185.4020  177.5200  142.1700 C   0  0  0  0  0  3  0  0  0  0  0  0
  189.1770  176.3120  144.0700 C   0  0  0  0  0  0  0  0  0  0  0  0
  183.7220  178.0270  146.8910 F   0  0  0  0  0  0  0  0  0  0  0  0
  188.3320  175.4210  141.2920 O   0  0  0  0  0  0  0  0  0  0  0  0
  184.1510  179.0410  140.8300 F   0  0  0  0  0  0  0  0  0  0  0  0
  188.8800  177.2910  144.8760 N   0  0  0  0  0  0  0  0  0  0  0  0
  188.1240  175.2800  143.7070 C   0  0  2  0  0  3  0  0  0  0  0  0
  190.5250  176.1300  143.6140 N   0  0  0  0  0  2  0  0  0  0  0  0
  185.1840  176.9670  145.3350 C   0  0  0  0  0  3  0  0  0  0  0  0
  186.0150  177.9160  139.8630 C   0  0  0  0  0  3  0  0  0  0  0  0
  187.5520  177.5010  145.3730 C   0  0  0  0  0  0  0  0  0  0  0  0
  187.3320  178.3970  146.4230 C   0  0  0  0  0  3  0  0  0  0  0  0
  188.4520  174.5430  142.4090 C   0  0  0  0  0  2  0  0  0  0  0  0
  187.2880  176.3450  141.1970 C   0  0  0  0  0  0  0  0  0  0  0  0
  187.0670  177.0040  139.9850 C   0  0  0  0  0  3  0  0  0  0  0  0
  193.8910  173.9600  143.6190 N   0  0  0  0  0  0  0  0  0  0  0  0
  192.8760  175.6600  142.1700 C   0  0  0  0  0  2  0  0  0  0  0  0
  194.0400  177.1660  145.4110 O   0  0  0  0  0  1  0  0  0  0  0  0
  193.6910  172.6180  144.1330 C   0  0  0  0  0  1  0  0  0  0  0  0
  192.7460  174.2540  142.7590 C   0  0  0  0  0  2  0  0  0  0  0  0
  194.0480  176.3040  144.3130 C   0  0  2  0  0  3  0  0  0  0  0  0
  192.9800  176.7080  143.2810 C   0  0  2  0  0  3  0  0  0  0  0  0
  193.8520  174.8590  144.7710 C   0  0  0  0  0  2  0  0  0  0  0  0
  1 11  1  0  0  0  0
  1  8  1  0  0  0  0
  2  3  1  6  0  0  0
  2 15  1  0  0  0  0
  2  7  1  0  0  0  0
  5  4  2  0  0  0  0
  6  9  2  0  0  0  0
  7 17  1  0  0  0  0
  7 19  2  0  0  0  0
  9  3  1  0  0  0  0
 10 14  2  0  0  0  0
 12 21  1  0  0  0  0
 13  6  1  0  0  0  0
 14 19  1  0  0  0  0
 15 21  1  6  0  0  0
 15 10  1  0  0  0  0
 16  5  1  0  0  0  0
 16 10  1  0  0  0  0
 17  1  2  0  0  0  0
 18 23  2  0  0  0  0
 18  6  1  0  0  0  0
 19 20  1  0  0  0  0
 20  8  2  0  0  0  0
 22 12  1  0  0  0  0
 22  3  2  0  0  0  0
 23 22  1  0  0  0  0
 24 27  1  0  0  0  0
 24 31  1  0  0  0  0
 25 28  1  0  0  0  0
 25 30  1  0  0  0  0
 28 24  1  0  0  0  0
 29 31  1  0  0  0  0
 29 26  1  1  0  0  0
 30  5  1  1  0  0  0
 30 29  1  0  0  0  0
M  END
>  <MODEL>
4

>  <REMARK>
 VINA RESULT:      -7.9      3.715      7.062
  Name = 
  1 active torsions:
  status: ('A' for Active; 'I' for Inactive)
    1  A    between atoms: C_5  and  C_30
                            x       y       z     vdW  Elec       q    Type
                         _______ _______ _______ _____ _____    ______ ____

>  <TORSDO>
F 1

$$$$
=
 OpenBabel11112416553D

 31 35  0  0  1  0  0  0  0  0999 V2000
  185.5760  178.2940  140.9000 C   0  0  0  0  0  0  0  0  0  0  0  0
  188.2740  178.2480  143.5860 C   0  0  2  0  0  3  0  0  0  0  0  0
  187.6960  177.5880  144.8280 C   0  0  0  0  0  0  0  0  0  0  0  0
  190.6520  173.8830  141.6660 O   0  0  0  0  0  0  0  0  0  0  0  0
  191.4280  174.4570  142.4760 C   0  0  0  0  0  0  0  0  0  0  0  0
  185.7830  176.9280  146.1770 C   0  0  0  0  0  0  0  0  0  0  0  0
  187.4830  177.9180  142.3470 C   0  0  0  0  0  0  0  0  0  0  0  0
  185.9410  177.1870  140.1280 C   0  0  0  0  0  3  0  0  0  0  0  0
  186.3080  177.5170  145.0240 C   0  0  0  0  0  3  0  0  0  0  0  0
  189.9250  176.5110  142.7390 C   0  0  0  0  0  0  0  0  0  0  0  0
  184.4720  179.0100  140.5780 F   0  0  0  0  0  0  0  0  0  0  0  0
  189.9420  177.2030  145.6960 O   0  0  0  0  0  0  0  0  0  0  0  0
  184.4410  176.8530  146.3480 F   0  0  0  0  0  0  0  0  0  0  0  0
  189.0480  176.0810  141.8770 N   0  0  0  0  0  0  0  0  0  0  0  0
  189.7610  177.8810  143.3720 C   0  0  2  0  0  3  0  0  0  0  0  0
  191.1110  175.7500  143.0080 N   0  0  0  0  0  2  0  0  0  0  0  0
  186.3420  178.6570  142.0130 C   0  0  0  0  0  3  0  0  0  0  0  0
  186.6410  176.4160  147.1520 C   0  0  0  0  0  3  0  0  0  0  0  0
  187.8570  176.8150  141.5620 C   0  0  0  0  0  0  0  0  0  0  0  0
  187.0820  176.4480  140.4590 C   0  0  0  0  0  3  0  0  0  0  0  0
  190.5330  178.0140  144.6840 C   0  0  0  0  0  2  0  0  0  0  0  0
  188.5550  177.1030  145.8370 C   0  0  0  0  0  0  0  0  0  0  0  0
  188.0250  176.5050  146.9830 C   0  0  0  0  0  3  0  0  0  0  0  0
  192.5850  170.8510  142.6560 N   0  0  0  0  0  0  0  0  0  0  0  0
  193.3240  173.0010  141.7340 C   0  0  0  0  0  2  0  0  0  0  0  0
  191.7620  173.4480  145.1240 O   0  0  0  0  0  1  0  0  0  0  0  0
  191.8690  169.6380  142.3120 C   0  0  0  0  0  1  0  0  0  0  0  0
  192.5830  171.6910  141.4600 C   0  0  0  0  0  2  0  0  0  0  0  0
  192.4890  172.8190  144.1110 C   0  0  2  0  0  3  0  0  0  0  0  0
  192.6840  173.7530  142.9040 C   0  0  2  0  0  3  0  0  0  0  0  0
  191.8030  171.5180  143.6950 C   0  0  0  0  0  2  0  0  0  0  0  0
  1 17  1  0  0  0  0
  2  7  1  6  0  0  0
  2  3  1  0  0  0  0
  3  9  2  0  0  0  0
  3 22  1  0  0  0  0
  4  5  2  0  0  0  0
  5 16  1  0  0  0  0
  6 13  1  0  0  0  0
  6 18  2  0  0  0  0
  8 20  1  0  0  0  0
  8  1  2  0  0  0  0
  9  6  1  0  0  0  0
 10 16  1  0  0  0  0
 10 15  1  0  0  0  0
 11  1  1  0  0  0  0
 12 22  1  0  0  0  0
 14 10  2  0  0  0  0
 15  2  1  0  0  0  0
 15 21  1  1  0  0  0
 17  7  2  0  0  0  0
 19 14  1  0  0  0  0
 19  7  1  0  0  0  0
 20 19  2  0  0  0  0
 21 12  1  0  0  0  0
 22 23  2  0  0  0  0
 23 18  1  0  0  0  0
 24 31  1  0  0  0  0
 25 30  1  0  0  0  0
 27 24  1  0  0  0  0
 28 25  1  0  0  0  0
 28 24  1  0  0  0  0
 29 26  1  1  0  0  0
 30  5  1  6  0  0  0
 30 29  1  0  0  0  0
 31 29  1  0  0  0  0
M  END
>  <MODEL>
5

>  <REMARK>
 VINA RESULT:      -7.9      3.744      7.722
  Name = 
  1 active torsions:
  status: ('A' for Active; 'I' for Inactive)
    1  A    between atoms: C_5  and  C_30
                            x       y       z     vdW  Elec       q    Type
                         _______ _______ _______ _____ _____    ______ ____

>  <TORSDO>
F 1

$$$$
=
 OpenBabel11112416553D

 31 35  0  0  1  0  0  0  0  0999 V2000
  185.4020  178.9020  143.5210 C   0  0  0  0  0  0  0  0  0  0  0  0
  188.9170  177.6650  144.3000 C   0  0  2  0  0  3  0  0  0  0  0  0
  188.8300  176.6880  145.4610 C   0  0  0  0  0  0  0  0  0  0  0  0
  188.8920  173.9860  140.4450 O   0  0  0  0  0  0  0  0  0  0  0  0
  190.0750  174.1660  140.8390 C   0  0  0  0  0  0  0  0  0  0  0  0
  187.6630  175.8140  147.4080 C   0  0  0  0  0  0  0  0  0  0  0  0
  187.5870  177.8600  143.6200 C   0  0  0  0  0  0  0  0  0  0  0  0
  185.0620  178.0900  142.4350 C   0  0  0  0  0  3  0  0  0  0  0  0
  187.7280  176.7000  146.3300 C   0  0  0  0  0  3  0  0  0  0  0  0
  189.4650  176.1550  142.3300 C   0  0  0  0  0  0  0  0  0  0  0  0
  184.5060  179.7960  144.0050 F   0  0  0  0  0  0  0  0  0  0  0  0
  191.0320  175.7970  144.9060 O   0  0  0  0  0  0  0  0  0  0  0  0
  186.5880  175.8260  148.2310 F   0  0  0  0  0  0  0  0  0  0  0  0
  188.2100  176.1370  141.9800 N   0  0  0  0  0  0  0  0  0  0  0  0
  189.9800  177.2390  143.2600 C   0  0  2  0  0  3  0  0  0  0  0  0
  190.3930  175.2280  141.7490 N   0  0  0  0  0  2  0  0  0  0  0  0
  186.6610  178.7840  144.1190 C   0  0  0  0  0  3  0  0  0  0  0  0
  188.7070  174.9140  147.6360 C   0  0  0  0  0  3  0  0  0  0  0  0
  187.2500  177.0550  142.5180 C   0  0  0  0  0  0  0  0  0  0  0  0
  185.9860  177.1670  141.9330 C   0  0  0  0  0  3  0  0  0  0  0  0
  191.2770  176.8370  143.9630 C   0  0  0  0  0  2  0  0  0  0  0  0
  189.8980  175.8020  145.7220 C   0  0  0  0  0  0  0  0  0  0  0  0
  189.8220  174.9100  146.7950 C   0  0  0  0  0  3  0  0  0  0  0  0
  190.5670  171.9010  137.8390 N   0  0  0  0  0  0  0  0  0  0  0  0
  191.7410  173.6960  139.0310 C   0  0  0  0  0  2  0  0  0  0  0  0
  190.0170  171.3770  141.4350 O   0  0  0  0  0  1  0  0  0  0  0  0
  189.6790  171.6540  136.7190 C   0  0  0  0  0  1  0  0  0  0  0  0
  190.8060  173.3430  137.8720 C   0  0  0  0  0  2  0  0  0  0  0  0
  190.7010  171.7620  140.2810 C   0  0  2  0  0  3  0  0  0  0  0  0
  191.1500  173.2320  140.3660 C   0  0  2  0  0  3  0  0  0  0  0  0
  189.8330  171.5230  139.0460 C   0  0  0  0  0  2  0  0  0  0  0  0
  1 11  1  0  0  0  0
  1 17  1  0  0  0  0
  2  7  1  6  0  0  0
  2  3  1  0  0  0  0
  3 22  2  0  0  0  0
  3  9  1  0  0  0  0
  4  5  2  0  0  0  0
  5 16  1  0  0  0  0
  6 18  1  0  0  0  0
  6 13  1  0  0  0  0
  7 17  2  0  0  0  0
  8  1  2  0  0  0  0
  9  6  2  0  0  0  0
 10 15  1  0  0  0  0
 12 22  1  0  0  0  0
 14 10  2  0  0  0  0
 14 19  1  0  0  0  0
 15 21  1  1  0  0  0
 15  2  1  0  0  0  0
 16 10  1  0  0  0  0
 19  7  1  0  0  0  0
 20  8  1  0  0  0  0
 20 19  2  0  0  0  0
 21 12  1  0  0  0  0
 22 23  1  0  0  0  0
 23 18  2  0  0  0  0
 24 28  1  0  0  0  0
 24 31  1  0  0  0  0
 25 30  1  0  0  0  0
 27 24  1  0  0  0  0
 28 25  1  0  0  0  0
 29 30  1  0  0  0  0
 29 26  1  1  0  0  0
 30  5  1  6  0  0  0
 31 29  1  0  0  0  0
M  END
>  <MODEL>
6

>  <REMARK>
 VINA RESULT:      -7.9      3.931      7.830
  Name = 
  1 active torsions:
  status: ('A' for Active; 'I' for Inactive)
    1  A    between atoms: C_5  and  C_30
                            x       y       z     vdW  Elec       q    Type
                         _______ _______ _______ _____ _____    ______ ____

>  <TORSDO>
F 1

$$$$
=
 OpenBabel11112416553D

 31 35  0  0  1  0  0  0  0  0999 V2000
  194.6910  170.2940  144.7520 C   0  0  0  0  0  0  0  0  0  0  0  0
  194.9590  173.9890  145.6280 C   0  0  2  0  0  3  0  0  0  0  0  0
  195.6770  174.6960  144.4900 C   0  0  0  0  0  0  0  0  0  0  0  0
  190.0170  175.1310  143.9940 O   0  0  0  0  0  0  0  0  0  0  0  0
  190.4510  176.0800  144.6990 C   0  0  0  0  0  0  0  0  0  0  0  0
  197.1620  174.6370  142.5650 C   0  0  0  0  0  0  0  0  0  0  0  0
  194.3990  172.6560  145.2060 C   0  0  0  0  0  0  0  0  0  0  0  0
  193.3810  170.2240  144.2680 C   0  0  0  0  0  3  0  0  0  0  0  0
  196.4880  173.9790  143.5960 C   0  0  0  0  0  3  0  0  0  0  0  0
  192.5710  174.8290  145.3990 C   0  0  0  0  0  0  0  0  0  0  0  0
  195.4700  169.1860  144.7610 F   0  0  0  0  0  0  0  0  0  0  0  0
  194.8340  176.8490  145.2650 O   0  0  0  0  0  0  0  0  0  0  0  0
  197.9310  173.9320  141.7010 F   0  0  0  0  0  0  0  0  0  0  0  0
  192.2390  173.7420  144.7610 N   0  0  0  0  0  0  0  0  0  0  0  0
  193.8360  174.8610  146.2380 C   0  0  2  0  0  3  0  0  0  0  0  0
  191.6890  175.9600  145.4130 N   0  0  0  0  0  2  0  0  0  0  0  0
  195.2030  171.5100  145.2160 C   0  0  0  0  0  3  0  0  0  0  0  0
  197.0420  176.0210  142.4240 C   0  0  0  0  0  3  0  0  0  0  0  0
  193.0780  172.5800  144.7340 C   0  0  0  0  0  0  0  0  0  0  0  0
  192.5750  171.3660  144.2590 C   0  0  0  0  0  3  0  0  0  0  0  0
  194.3410  176.2840  146.4770 C   0  0  0  0  0  2  0  0  0  0  0  0
  195.5930  176.0990  144.3630 C   0  0  0  0  0  0  0  0  0  0  0  0
  196.2600  176.7510  143.3220 C   0  0  0  0  0  3  0  0  0  0  0  0
  187.9030  177.8040  142.4840 N   0  0  0  0  0  0  0  0  0  0  0  0
  188.1610  177.0830  144.8150 C   0  0  0  0  0  2  0  0  0  0  0  0
  191.3800  178.4790  143.4660 O   0  0  0  0  0  1  0  0  0  0  0  0
  187.3660  177.3850  141.2030 C   0  0  0  0  0  1  0  0  0  0  0  0
  187.6250  176.7230  143.4280 C   0  0  0  0  0  2  0  0  0  0  0  0
  190.0000  178.3460  143.6280 C   0  0  2  0  0  3  0  0  0  0  0  0
  189.6670  177.3580  144.7610 C   0  0  2  0  0  3  0  0  0  0  0  0
  189.3510  177.9140  142.3140 C   0  0  0  0  0  2  0  0  0  0  0  0
  1 11  1  0  0  0  0
  1 17  1  0  0  0  0
  2  3  1  6  0  0  0
  2 15  1  0  0  0  0
  4  5  2  0  0  0  0
  5 16  1  0  0  0  0
  6  9  1  0  0  0  0
  7 17  2  0  0  0  0
  7  2  1  0  0  0  0
  8  1  2  0  0  0  0
  9  3  2  0  0  0  0
 10 16  1  0  0  0  0
 10 15  1  0  0  0  0
 12 21  1  0  0  0  0
 13  6  1  0  0  0  0
 14 10  2  0  0  0  0
 15 21  1  6  0  0  0
 18  6  2  0  0  0  0
 18 23  1  0  0  0  0
 19 14  1  0  0  0  0
 19  7  1  0  0  0  0
 20  8  1  0  0  0  0
 20 19  2  0  0  0  0
 22  3  1  0  0  0  0
 22 12  1  0  0  0  0
 23 22  2  0  0  0  0
 24 28  1  0  0  0  0
 27 24  1  0  0  0  0
 28 25  1  0  0  0  0
 29 26  1  6  0  0  0
 29 30  1  0  0  0  0
 30  5  1  6  0  0  0
 30 25  1  0  0  0  0
 31 24  1  0  0  0  0
 31 29  1  0  0  0  0
M  END
>  <MODEL>
7

>  <REMARK>
 VINA RESULT:      -7.7      3.256      5.400
  Name = 
  1 active torsions:
  status: ('A' for Active; 'I' for Inactive)
    1  A    between atoms: C_5  and  C_30
                            x       y       z     vdW  Elec       q    Type
                         _______ _______ _______ _____ _____    ______ ____

>  <TORSDO>
F 1

$$$$
=
 OpenBabel11112416553D

 31 35  0  0  1  0  0  0  0  0999 V2000
  186.5100  177.8020  142.7760 C   0  0  0  0  0  0  0  0  0  0  0  0
  189.9700  177.6400  144.3550 C   0  0  2  0  0  3  0  0  0  0  0  0
  189.9060  176.6920  145.5420 C   0  0  0  0  0  0  0  0  0  0  0  0
  191.8210  174.0690  140.8600 O   0  0  0  0  0  0  0  0  0  0  0  0
  192.7890  174.5860  141.4770 C   0  0  0  0  0  0  0  0  0  0  0  0
  188.6320  175.5390  147.2630 C   0  0  0  0  0  0  0  0  0  0  0  0
  188.8220  177.4360  143.4020 C   0  0  0  0  0  0  0  0  0  0  0  0
  186.6580  176.9150  141.7050 C   0  0  0  0  0  3  0  0  0  0  0  0
  188.6810  176.3950  146.1600 C   0  0  0  0  0  3  0  0  0  0  0  0
  191.3370  176.3310  142.6580 C   0  0  0  0  0  0  0  0  0  0  0  0
  185.3170  178.4050  142.9960 F   0  0  0  0  0  0  0  0  0  0  0  0
  192.3350  176.4680  145.5230 O   0  0  0  0  0  0  0  0  0  0  0  0
  187.4420  175.2500  147.8420 F   0  0  0  0  0  0  0  0  0  0  0  0
  190.2450  175.9480  142.0580 N   0  0  0  0  0  0  0  0  0  0  0  0
  191.3120  177.5270  143.5920 C   0  0  2  0  0  3  0  0  0  0  0  0
  192.5910  175.7050  142.3520 N   0  0  0  0  0  2  0  0  0  0  0  0
  187.5890  178.0580  143.6290 C   0  0  0  0  0  3  0  0  0  0  0  0
  189.8080  174.9810  147.7680 C   0  0  0  0  0  3  0  0  0  0  0  0
  188.9730  176.5560  142.3170 C   0  0  0  0  0  0  0  0  0  0  0  0
  187.8890  176.2930  141.4750 C   0  0  0  0  0  3  0  0  0  0  0  0
  192.4810  177.5240  144.5770 C   0  0  0  0  0  2  0  0  0  0  0  0
  191.0940  176.1540  146.0830 C   0  0  0  0  0  0  0  0  0  0  0  0
  191.0370  175.2900  147.1800 C   0  0  0  0  0  3  0  0  0  0  0  0
  196.3130  175.6010  142.4410 N   0  0  0  0  0  0  0  0  0  0  0  0
  194.8000  173.6810  142.6610 C   0  0  0  0  0  2  0  0  0  0  0  0
  194.4660  175.2860  139.2780 O   0  0  0  0  0  1  0  0  0  0  0  0
  196.7690  176.7900  143.1350 C   0  0  0  0  0  1  0  0  0  0  0  0
  195.3370  174.9550  143.3180 C   0  0  0  0  0  2  0  0  0  0  0  0
  195.1010  174.8580  140.4460 C   0  0  2  0  0  3  0  0  0  0  0  0
  194.1600  173.9970  141.3070 C   0  0  2  0  0  3  0  0  0  0  0  0
  195.6240  176.0580  141.2350 C   0  0  0  0  0  2  0  0  0  0  0  0
  1 11  1  0  0  0  0
  1 17  1  0  0  0  0
  2  7  1  6  0  0  0
  2  3  1  0  0  0  0
  3 22  2  0  0  0  0
  3  9  1  0  0  0  0
  4  5  2  0  0  0  0
  5 16  1  0  0  0  0
  6 18  1  0  0  0  0
  6 13  1  0  0  0  0
  7 17  2  0  0  0  0
  8  1  2  0  0  0  0
  9  6  2  0  0  0  0
 10 15  1  0  0  0  0
 12 22  1  0  0  0  0
 14 19  1  0  0  0  0
 14 10  2  0  0  0  0
 15  2  1  0  0  0  0
 15 21  1  1  0  0  0
 16 10  1  0  0  0  0
 19  7  1  0  0  0  0
 20  8  1  0  0  0  0
 20 19  2  0  0  0  0
 21 12  1  0  0  0  0
 22 23  1  0  0  0  0
 23 18  2  0  0  0  0
 24 27  1  0  0  0  0
 24 28  1  0  0  0  0
 25 28  1  0  0  0  0
 29 26  1  6  0  0  0
 29 31  1  0  0  0  0
 29 30  1  0  0  0  0
 30  5  1  1  0  0  0
 30 25  1  0  0  0  0
 31 24  1  0  0  0  0
M  END
>  <MODEL>
8

>  <REMARK>
 VINA RESULT:      -7.6      3.704      7.889
  Name = 
  1 active torsions:
  status: ('A' for Active; 'I' for Inactive)
    1  A    between atoms: C_5  and  C_30
                            x       y       z     vdW  Elec       q    Type
                         _______ _______ _______ _____ _____    ______ ____

>  <TORSDO>
F 1

$$$$
=
 OpenBabel11112416553D

 31 35  0  0  1  0  0  0  0  0999 V2000
  186.6090  178.3060  143.0720 C   0  0  0  0  0  0  0  0  0  0  0  0
  190.1740  177.0210  143.4280 C   0  0  2  0  0  3  0  0  0  0  0  0
  190.4910  176.9070  144.9100 C   0  0  0  0  0  0  0  0  0  0  0  0
  188.8130  171.9160  142.7340 O   0  0  0  0  0  0  0  0  0  0  0  0
  190.0600  172.0360  142.5970 C   0  0  0  0  0  0  0  0  0  0  0  0
  190.0670  177.5400  147.2200 C   0  0  0  0  0  0  0  0  0  0  0  0
  188.6910  177.0720  143.1670 C   0  0  0  0  0  0  0  0  0  0  0  0
  185.9130  177.1170  142.8330 C   0  0  0  0  0  3  0  0  0  0  0  0
  189.7560  177.6330  145.8610 C   0  0  0  0  0  3  0  0  0  0  0  0
  190.0050  174.5920  142.6970 C   0  0  0  0  0  0  0  0  0  0  0  0
  185.9360  179.4800  143.1480 F   0  0  0  0  0  0  0  0  0  0  0  0
  192.3650  175.4250  144.4180 O   0  0  0  0  0  0  0  0  0  0  0  0
  189.3410  178.2350  148.1280 F   0  0  0  0  0  0  0  0  0  0  0  0
  188.7070  174.6430  142.7910 N   0  0  0  0  0  0  0  0  0  0  0  0
  190.8120  175.8750  142.6070 C   0  0  2  0  0  3  0  0  0  0  0  0
  190.6740  173.3310  142.5580 N   0  0  0  0  0  2  0  0  0  0  0  0
  187.9960  178.2850  143.2450 C   0  0  0  0  0  3  0  0  0  0  0  0
  191.1230  176.7300  147.6420 C   0  0  0  0  0  3  0  0  0  0  0  0
  187.9930  175.8800  142.9120 C   0  0  0  0  0  0  0  0  0  0  0  0
  186.6050  175.9040  142.7530 C   0  0  0  0  0  3  0  0  0  0  0  0
  192.2710  175.6780  143.0190 C   0  0  0  0  0  2  0  0  0  0  0  0
  191.5820  176.1210  145.3430 C   0  0  0  0  0  0  0  0  0  0  0  0
  191.8800  176.0240  146.7040 C   0  0  0  0  0  3  0  0  0  0  0  0
  193.6780  171.2840  141.7540 N   0  0  0  0  0  0  0  0  0  0  0  0
  192.0430  170.8240  143.5250 C   0  0  0  0  0  2  0  0  0  0  0  0
  190.4420  170.6590  140.1280 O   0  0  0  0  0  1  0  0  0  0  0  0
  194.7430  172.1950  141.3810 C   0  0  0  0  0  1  0  0  0  0  0  0
  193.1770  171.7360  143.0510 C   0  0  0  0  0  2  0  0  0  0  0  0
  191.4460  170.5250  141.0880 C   0  0  2  0  0  3  0  0  0  0  0  0
  190.9040  170.7980  142.5020 C   0  0  2  0  0  3  0  0  0  0  0  0
  192.6190  171.4500  140.7610 C   0  0  0  0  0  2  0  0  0  0  0  0
  1 11  1  0  0  0  0
  1 17  1  0  0  0  0
  2  7  1  1  0  0  0
  2  3  1  0  0  0  0
  3 22  2  0  0  0  0
  3  9  1  0  0  0  0
  5  4  2  0  0  0  0
  6 18  1  0  0  0  0
  6 13  1  0  0  0  0
  7 17  2  0  0  0  0
  8  1  2  0  0  0  0
  9  6  2  0  0  0  0
 10 14  2  0  0  0  0
 12 22  1  0  0  0  0
 14 19  1  0  0  0  0
 15 10  1  0  0  0  0
 15 21  1  1  0  0  0
 15  2  1  0  0  0  0
 16  5  1  0  0  0  0
 16 10  1  0  0  0  0
 19  7  1  0  0  0  0
 20  8  1  0  0  0  0
 20 19  2  0  0  0  0
 21 12  1  0  0  0  0
 22 23  1  0  0  0  0
 23 18  2  0  0  0  0
 24 28  1  0  0  0  0
 27 24  1  0  0  0  0
 28 25  1  0  0  0  0
 29 26  1  6  0  0  0
 29 30  1  0  0  0  0
 30  5  1  6  0  0  0
 30 25  1  0  0  0  0
 31 29  1  0  0  0  0
 31 24  1  0  0  0  0
M  END
>  <MODEL>
9

>  <REMARK>
 VINA RESULT:      -7.6      3.746      7.742
  Name = 
  1 active torsions:
  status: ('A' for Active; 'I' for Inactive)
    1  A    between atoms: C_5  and  C_30
                            x       y       z     vdW  Elec       q    Type
                         _______ _______ _______ _____ _____    ______ ____

>  <TORSDO>
F 1

$$$$
