=
 OpenBabel11112417413D

 28 32  0  0  1  0  0  0  0  0999 V2000
  191.1350  174.6650  145.2730 C   0  0  0  0  0  0  0  0  0  0  0  0
  188.4920  175.6800  146.7100 O   0  0  0  0  0  0  0  0  0  0  0  0
  188.1710  175.0970  140.1350 O   0  0  0  0  0  0  0  0  0  0  0  0
  193.1080  176.6410  145.5470 C   0  0  0  0  0  3  0  0  0  0  0  0
  187.1250  176.4390  141.8380 C   0  0  1  0  0  3  0  0  0  0  0  0
  190.2180  173.5140  145.0500 C   0  0  0  0  0  2  0  0  0  0  0  0
  189.6950  177.7100  147.3760 O   0  0  0  0  0  0  0  0  0  0  0  0
  188.5980  177.1660  146.5060 S   0  0  0  0  0  0  0  0  0  0  0  0
  186.1690  177.6070  145.8730 C   0  0  1  0  0  3  0  0  0  0  0  0
  188.9450  177.5690  144.7810 C   0  0  2  0  0  3  0  0  0  0  0  0
  191.0170  172.4810  141.6660 O   0  0  0  0  0  0  0  0  0  0  0  0
  188.5330  175.4580  143.6320 C   0  0  1  0  0  3  0  0  0  0  0  0
  186.5430  178.3680  144.6840 N   0  0  0  0  0  2  0  0  0  0  0  0
  187.0990  177.8970  146.9510 N   0  0  0  0  0  2  0  0  0  0  0  0
  190.2790  172.8440  142.6190 C   0  0  0  0  0  0  0  0  0  0  0  0
  190.9190  175.9530  144.7180 C   0  0  0  0  0  0  0  0  0  0  0  0
  188.0750  175.4230  141.3490 C   0  0  0  0  0  0  0  0  0  0  0  0
  184.7710  177.9990  146.2980 C   0  0  0  0  0  1  0  0  0  0  0  0
  188.9030  173.3340  142.3290 C   0  0  0  0  0  2  0  0  0  0  0  0
  191.9250  176.9220  144.8630 C   0  0  0  0  0  3  0  0  0  0  0  0
  192.3270  174.3980  145.9590 C   0  0  0  0  0  3  0  0  0  0  0  0
  193.3060  175.3800  146.1030 C   0  0  0  0  0  3  0  0  0  0  0  0
  190.7470  172.7130  143.9590 N   0  0  0  0  0  2  0  0  0  0  0  0
  187.3150  176.3710  143.3690 C   0  0  1  0  0  3  0  0  0  0  0  0
  188.8210  174.7880  142.3710 N   0  0  0  0  0  0  0  0  0  0  0  0
  187.6610  177.7320  143.9780 C   0  0  2  0  0  3  0  0  0  0  0  0
  187.4660  177.6860  141.3050 O   0  0  0  0  0  1  0  0  0  0  0  0
  189.6470  176.4290  144.0410 C   0  0  2  0  0  3  0  0  0  0  0  0
  1 21  1  0  0  0  0
  3 17  2  0  0  0  0
  4 22  1  0  0  0  0
  5 27  1  6  0  0  0
  5 24  1  0  0  0  0
  6  1  1  0  0  0  0
  8  2  2  0  0  0  0
  8 14  1  0  0  0  0
  8  7  2  0  0  0  0
  9 18  1  1  0  0  0
  9 14  1  0  0  0  0
 10  8  1  1  0  0  0
 11 15  2  0  0  0  0
 12 25  1  6  0  0  0
 12 28  1  0  0  0  0
 13  9  1  0  0  0  0
 15 23  1  0  0  0  0
 16 20  1  0  0  0  0
 16  1  2  0  0  0  0
 17  5  1  0  0  0  0
 17 25  1  0  0  0  0
 19 25  1  0  0  0  0
 19 15  1  0  0  0  0
 20  4  2  0  0  0  0
 21 22  2  0  0  0  0
 23  6  1  0  0  0  0
 24 12  1  0  0  0  0
 24 26  1  0  0  0  0
 26 13  1  0  0  0  0
 26 10  1  0  0  0  0
 28 16  1  0  0  0  0
 28 10  1  0  0  0  0
M  END
>  <MODEL>
1

>  <REMARK>
 VINA RESULT:      -8.8      0.000      0.000
  Name = 
  0 active torsions:
  status: ('A' for Active; 'I' for Inactive)
                            x       y       z     vdW  Elec       q    Type
                         _______ _______ _______ _____ _____    ______ ____

>  <TORSDO>
F 0

$$$$
=
 OpenBabel11112417413D

 28 32  0  0  1  0  0  0  0  0999 V2000
  186.5220  178.3070  144.3310 C   0  0  0  0  0  0  0  0  0  0  0  0
  189.6070  178.2910  145.0770 O   0  0  0  0  0  0  0  0  0  0  0  0
  187.8160  174.3510  140.0830 O   0  0  0  0  0  0  0  0  0  0  0  0
  185.0890  177.1720  146.4590 C   0  0  0  0  0  3  0  0  0  0  0  0
  189.5400  174.3940  141.7630 C   0  0  1  0  0  3  0  0  0  0  0  0
  187.1200  178.9450  143.1260 C   0  0  0  0  0  2  0  0  0  0  0  0
  189.0240  177.3130  147.2490 O   0  0  0  0  0  0  0  0  0  0  0  0
  189.6970  177.0560  145.9300 S   0  0  0  0  0  0  0  0  0  0  0  0
  191.8580  176.1150  144.9600 C   0  0  1  0  0  3  0  0  0  0  0  0
  188.9170  175.6420  145.1250 C   0  0  2  0  0  3  0  0  0  0  0  0
  185.1690  177.5410  140.4090 O   0  0  0  0  0  0  0  0  0  0  0  0
  188.5990  176.4230  142.8370 C   0  0  1  0  0  3  0  0  0  0  0  0
  191.2750  174.7910  144.7620 N   0  0  0  0  0  2  0  0  0  0  0  0
  191.3620  176.6860  146.2010 N   0  0  0  0  0  2  0  0  0  0  0  0
  186.2120  177.8420  141.0480 C   0  0  0  0  0  0  0  0  0  0  0  0
  186.7740  176.9620  144.7070 C   0  0  0  0  0  0  0  0  0  0  0  0
  188.3290  174.9030  141.0940 C   0  0  0  0  0  0  0  0  0  0  0  0
  193.3640  175.9930  145.0320 C   0  0  0  0  0  1  0  0  0  0  0  0
  187.4970  177.1750  140.7000 C   0  0  0  0  0  2  0  0  0  0  0  0
  186.0380  176.4160  145.7710 C   0  0  0  0  0  3  0  0  0  0  0  0
  185.5670  179.0550  145.0320 C   0  0  0  0  0  3  0  0  0  0  0  0
  184.8580  178.4960  146.0940 C   0  0  0  0  0  3  0  0  0  0  0  0
  186.1570  178.8620  142.0410 N   0  0  0  0  0  2  0  0  0  0  0  0
  189.8150  175.4720  142.8330 C   0  0  1  0  0  3  0  0  0  0  0  0
  187.8330  176.1120  141.6370 N   0  0  0  0  0  0  0  0  0  0  0  0
  189.9060  174.8870  144.2450 C   0  0  2  0  0  3  0  0  0  0  0  0
  189.2700  173.1380  142.3160 O   0  0  0  0  0  1  0  0  0  0  0  0
  187.8420  176.0580  144.1200 C   0  0  2  0  0  3  0  0  0  0  0  0
  1 16  2  0  0  0  0
  1 21  1  0  0  0  0
  2  8  2  0  0  0  0
  3 17  2  0  0  0  0
  5 27  1  1  0  0  0
  5 24  1  0  0  0  0
  6  1  1  0  0  0  0
  8 14  1  0  0  0  0
  8  7  2  0  0  0  0
  9 18  1  1  0  0  0
  9 14  1  0  0  0  0
 10  8  1  6  0  0  0
 11 15  2  0  0  0  0
 12 25  1  6  0  0  0
 12 28  1  0  0  0  0
 13  9  1  0  0  0  0
 15 23  1  0  0  0  0
 16 20  1  0  0  0  0
 17 25  1  0  0  0  0
 17  5  1  0  0  0  0
 19 15  1  0  0  0  0
 19 25  1  0  0  0  0
 20  4  2  0  0  0  0
 21 22  2  0  0  0  0
 22  4  1  0  0  0  0
 23  6  1  0  0  0  0
 24 12  1  0  0  0  0
 24 26  1  0  0  0  0
 26 13  1  0  0  0  0
 26 10  1  0  0  0  0
 28 16  1  0  0  0  0
 28 10  1  0  0  0  0
M  END
>  <MODEL>
2

>  <REMARK>
 VINA RESULT:      -8.4      1.743      5.298
  Name = 
  0 active torsions:
  status: ('A' for Active; 'I' for Inactive)
                            x       y       z     vdW  Elec       q    Type
                         _______ _______ _______ _____ _____    ______ ____

>  <TORSDO>
F 0

$$$$
=
 OpenBabel11112417413D

 28 32  0  0  1  0  0  0  0  0999 V2000
  188.6290  175.9810  145.6370 C   0  0  0  0  0  0  0  0  0  0  0  0
  189.0400  173.5140  143.6830 O   0  0  0  0  0  0  0  0  0  0  0  0
  194.5260  176.7330  145.4750 O   0  0  0  0  0  0  0  0  0  0  0  0
  187.2480  177.9910  144.2500 C   0  0  0  0  0  3  0  0  0  0  0  0
  193.7790  175.4410  143.5860 C   0  0  1  0  0  3  0  0  0  0  0  0
  189.3460  175.0220  146.5210 C   0  0  0  0  0  2  0  0  0  0  0  0
  187.8000  174.7390  141.9590 O   0  0  0  0  0  0  0  0  0  0  0  0
  189.1490  174.2070  142.3530 S   0  0  0  0  0  0  0  0  0  0  0  0
  191.0990  172.8620  141.4140 C   0  0  1  0  0  3  0  0  0  0  0  0
  190.3350  175.5660  142.4150 C   0  0  2  0  0  3  0  0  0  0  0  0
  191.5950  177.1660  148.3930 O   0  0  0  0  0  0  0  0  0  0  0  0
  191.4950  175.1830  144.5250 C   0  0  1  0  0  3  0  0  0  0  0  0
  191.8380  174.0630  141.0380 N   0  0  0  0  0  2  0  0  0  0  0  0
  189.6810  173.0660  141.1720 N   0  0  0  0  0  2  0  0  0  0  0  0
  191.2660  176.1960  147.6600 C   0  0  0  0  0  0  0  0  0  0  0  0
  189.2100  176.5590  144.4790 C   0  0  0  0  0  0  0  0  0  0  0  0
  193.6060  176.0950  144.8960 C   0  0  0  0  0  0  0  0  0  0  0  0
  191.5850  171.6940  140.5840 C   0  0  0  0  0  1  0  0  0  0  0  0
  192.3170  175.4770  146.8880 C   0  0  0  0  0  2  0  0  0  0  0  0
  188.5020  177.5680  143.8070 C   0  0  0  0  0  3  0  0  0  0  0  0
  187.3690  176.4160  146.0710 C   0  0  0  0  0  3  0  0  0  0  0  0
  186.6780  177.4090  145.3790 C   0  0  0  0  0  3  0  0  0  0  0  0
  189.9090  175.7630  147.6380 N   0  0  0  0  0  2  0  0  0  0  0  0
  192.4330  174.7100  143.3920 C   0  0  1  0  0  3  0  0  0  0  0  0
  192.3380  175.8790  145.4880 N   0  0  0  0  0  0  0  0  0  0  0  0
  191.7430  175.0910  142.0800 C   0  0  2  0  0  3  0  0  0  0  0  0
  194.0120  176.4160  142.6110 O   0  0  0  0  0  1  0  0  0  0  0  0
  190.5100  176.1280  143.8260 C   0  0  2  0  0  3  0  0  0  0  0  0
  1 21  1  0  0  0  0
  1  6  1  0  0  0  0
  4 22  1  0  0  0  0
  5 27  1  6  0  0  0
  5 17  1  0  0  0  0
  6 23  1  0  0  0  0
  7  8  2  0  0  0  0
  8  2  2  0  0  0  0
  9 18  1  6  0  0  0
 10  8  1  1  0  0  0
 10 28  1  0  0  0  0
 12 25  1  1  0  0  0
 13  9  1  0  0  0  0
 13 26  1  0  0  0  0
 14  9  1  0  0  0  0
 14  8  1  0  0  0  0
 15 11  2  0  0  0  0
 16  1  2  0  0  0  0
 17  3  2  0  0  0  0
 17 25  1  0  0  0  0
 19 15  1  0  0  0  0
 20  4  2  0  0  0  0
 20 16  1  0  0  0  0
 22 21  2  0  0  0  0
 23 15  1  0  0  0  0
 24  5  1  0  0  0  0
 24 12  1  0  0  0  0
 25 19  1  0  0  0  0
 26 10  1  0  0  0  0
 26 24  1  0  0  0  0
 28 16  1  0  0  0  0
 28 12  1  0  0  0  0
M  END
>  <MODEL>
3

>  <REMARK>
 VINA RESULT:      -7.7      2.659      6.015
  Name = 
  0 active torsions:
  status: ('A' for Active; 'I' for Inactive)
                            x       y       z     vdW  Elec       q    Type
                         _______ _______ _______ _____ _____    ______ ____

>  <TORSDO>
F 0

$$$$
=
 OpenBabel11112417413D

 28 32  0  0  1  0  0  0  0  0999 V2000
  188.9920  175.6920  144.5470 C   0  0  0  0  0  0  0  0  0  0  0  0
  192.0130  176.6410  144.3320 O   0  0  0  0  0  0  0  0  0  0  0  0
  190.7650  170.4730  142.3150 O   0  0  0  0  0  0  0  0  0  0  0  0
  188.3060  175.5240  147.2630 C   0  0  0  0  0  3  0  0  0  0  0  0
  192.6280  171.6790  143.2480 C   0  0  1  0  0  3  0  0  0  0  0  0
  189.1800  175.7410  143.0720 C   0  0  0  0  0  2  0  0  0  0  0  0
  192.0860  176.7910  146.7780 O   0  0  0  0  0  0  0  0  0  0  0  0
  192.5990  176.0420  145.5800 S   0  0  0  0  0  0  0  0  0  0  0  0
  194.7710  175.1750  144.5670 C   0  0  1  0  0  3  0  0  0  0  0  0
  192.1710  174.2960  145.7360 C   0  0  2  0  0  3  0  0  0  0  0  0
  187.3590  172.8240  141.9190 O   0  0  0  0  0  0  0  0  0  0  0  0
  191.2910  173.7500  143.5280 C   0  0  1  0  0  3  0  0  0  0  0  0
  194.5930  173.8460  145.1460 N   0  0  0  0  0  2  0  0  0  0  0  0
  194.3180  176.1830  145.5100 N   0  0  0  0  0  2  0  0  0  0  0  0
  188.3450  173.5960  142.0400 C   0  0  0  0  0  0  0  0  0  0  0  0
  189.6910  174.7920  145.3930 C   0  0  0  0  0  0  0  0  0  0  0  0
  191.2340  171.5420  142.7900 C   0  0  0  0  0  0  0  0  0  0  0  0
  196.2370  175.3960  144.2630 C   0  0  0  0  0  1  0  0  0  0  0  0
  189.7050  173.1050  141.6800 C   0  0  0  0  0  2  0  0  0  0  0  0
  189.3240  174.7230  146.7460 C   0  0  0  0  0  3  0  0  0  0  0  0
  187.9720  176.4910  145.0800 C   0  0  0  0  0  3  0  0  0  0  0  0
  187.6340  176.4160  146.4300 C   0  0  0  0  0  3  0  0  0  0  0  0
  188.1350  174.9450  142.4510 N   0  0  0  0  0  2  0  0  0  0  0  0
  192.7220  173.1770  143.6070 C   0  0  1  0  0  3  0  0  0  0  0  0
  190.4830  172.7410  142.8560 N   0  0  0  0  0  0  0  0  0  0  0  0
  193.1970  173.4070  145.0440 C   0  0  2  0  0  3  0  0  0  0  0  0
  192.8360  170.8440  144.3500 O   0  0  0  0  0  1  0  0  0  0  0  0
  190.8820  173.9400  144.9940 C   0  0  2  0  0  3  0  0  0  0  0  0
  1 21  2  0  0  0  0
  1 16  1  0  0  0  0
  2  8  2  0  0  0  0
  3 17  2  0  0  0  0
  5 24  1  0  0  0  0
  5 27  1  1  0  0  0
  6  1  1  0  0  0  0
  8  7  2  0  0  0  0
  9 18  1  1  0  0  0
  9 13  1  0  0  0  0
  9 14  1  0  0  0  0
 10  8  1  6  0  0  0
 11 15  2  0  0  0  0
 12 25  1  1  0  0  0
 12 24  1  0  0  0  0
 12 28  1  0  0  0  0
 14  8  1  0  0  0  0
 15 23  1  0  0  0  0
 16 20  2  0  0  0  0
 17 25  1  0  0  0  0
 17  5  1  0  0  0  0
 19 15  1  0  0  0  0
 19 25  1  0  0  0  0
 20  4  1  0  0  0  0
 21 22  1  0  0  0  0
 22  4  2  0  0  0  0
 23  6  1  0  0  0  0
 24 26  1  0  0  0  0
 26 13  1  0  0  0  0
 26 10  1  0  0  0  0
 28 16  1  0  0  0  0
 28 10  1  0  0  0  0
M  END
>  <MODEL>
4

>  <REMARK>
 VINA RESULT:      -7.6      2.575      5.674
  Name = 
  0 active torsions:
  status: ('A' for Active; 'I' for Inactive)
                            x       y       z     vdW  Elec       q    Type
                         _______ _______ _______ _____ _____    ______ ____

>  <TORSDO>
F 0

$$$$
=
 OpenBabel11112417413D

 28 32  0  0  1  0  0  0  0  0999 V2000
  191.4820  175.1970  142.2160 C   0  0  0  0  0  0  0  0  0  0  0  0
  189.3160  177.4980  141.9090 O   0  0  0  0  0  0  0  0  0  0  0  0
  190.8170  175.7420  148.1010 O   0  0  0  0  0  0  0  0  0  0  0  0
  190.3890  172.8110  141.2250 C   0  0  0  0  0  3  0  0  0  0  0  0
  188.9150  176.6540  146.9390 C   0  0  1  0  0  3  0  0  0  0  0  0
  192.2180  176.3700  142.7630 C   0  0  0  0  0  2  0  0  0  0  0  0
  187.8160  175.8720  140.8510 O   0  0  0  0  0  0  0  0  0  0  0  0
  188.0390  176.7220  142.0700 S   0  0  0  0  0  0  0  0  0  0  0  0
  186.8190  178.3660  143.5880 C   0  0  1  0  0  3  0  0  0  0  0  0
  188.0900  175.6670  143.5340 C   0  0  2  0  0  3  0  0  0  0  0  0
  194.0250  174.9580  145.5740 O   0  0  0  0  0  0  0  0  0  0  0  0
  190.0440  176.4940  144.7350 C   0  0  1  0  0  3  0  0  0  0  0  0
  186.4660  177.3250  144.5490 N   0  0  0  0  0  2  0  0  0  0  0  0
  186.7300  177.8340  142.2390 N   0  0  0  0  0  2  0  0  0  0  0  0
  193.2560  175.7580  144.9790 C   0  0  0  0  0  0  0  0  0  0  0  0
  190.3210  174.6530  142.8230 C   0  0  0  0  0  0  0  0  0  0  0  0
  190.2810  176.1060  147.0190 C   0  0  0  0  0  0  0  0  0  0  0  0
  185.8600  179.5270  143.7330 C   0  0  0  0  0  1  0  0  0  0  0  0
  192.3340  176.6130  145.7780 C   0  0  0  0  0  2  0  0  0  0  0  0
  189.7980  173.4550  142.3120 C   0  0  0  0  0  3  0  0  0  0  0  0
  192.0650  174.5410  141.1240 C   0  0  0  0  0  3  0  0  0  0  0  0
  191.5200  173.3590  140.6250 C   0  0  0  0  0  3  0  0  0  0  0  0
  193.3300  175.8800  143.5610 N   0  0  0  0  0  2  0  0  0  0  0  0
  188.7950  177.0500  145.4520 C   0  0  1  0  0  3  0  0  0  0  0  0
  190.9730  176.0940  145.7840 N   0  0  0  0  0  0  0  0  0  0  0  0
  187.5870  176.4050  144.7690 C   0  0  2  0  0  3  0  0  0  0  0  0
  187.9990  175.6660  147.3120 O   0  0  0  0  0  1  0  0  0  0  0  0
  189.5160  175.2940  143.9390 C   0  0  2  0  0  3  0  0  0  0  0  0
  1  6  1  0  0  0  0
  1 16  1  0  0  0  0
  2  8  2  0  0  0  0
  4 20  1  0  0  0  0
  5 17  1  0  0  0  0
  5 27  1  6  0  0  0
  6 23  1  0  0  0  0
  7  8  2  0  0  0  0
  8 14  1  0  0  0  0
  9 18  1  6  0  0  0
  9 13  1  0  0  0  0
 10  8  1  6  0  0  0
 10 28  1  0  0  0  0
 10 26  1  0  0  0  0
 12 24  1  0  0  0  0
 12 25  1  1  0  0  0
 13 26  1  0  0  0  0
 14  9  1  0  0  0  0
 15 11  2  0  0  0  0
 15 19  1  0  0  0  0
 16 28  1  0  0  0  0
 17  3  2  0  0  0  0
 19 25  1  0  0  0  0
 20 16  2  0  0  0  0
 21  1  2  0  0  0  0
 22 21  1  0  0  0  0
 22  4  2  0  0  0  0
 23 15  1  0  0  0  0
 24  5  1  0  0  0  0
 25 17  1  0  0  0  0
 26 24  1  0  0  0  0
 28 12  1  0  0  0  0
M  END
>  <MODEL>
5

>  <REMARK>
 VINA RESULT:      -7.5      2.373      4.689
  Name = 
  0 active torsions:
  status: ('A' for Active; 'I' for Inactive)
                            x       y       z     vdW  Elec       q    Type
                         _______ _______ _______ _____ _____    ______ ____

>  <TORSDO>
F 0

$$$$
=
 OpenBabel11112417413D

 28 32  0  0  1  0  0  0  0  0999 V2000
  191.1430  175.5500  145.1620 C   0  0  0  0  0  0  0  0  0  0  0  0
  193.7700  176.4210  143.6080 O   0  0  0  0  0  0  0  0  0  0  0  0
  193.0320  169.9350  144.6380 O   0  0  0  0  0  0  0  0  0  0  0  0
  191.3130  176.5020  147.7960 C   0  0  0  0  0  3  0  0  0  0  0  0
  194.8580  171.4790  144.3630 C   0  0  1  0  0  3  0  0  0  0  0  0
  190.8830  174.9890  143.8080 C   0  0  0  0  0  2  0  0  0  0  0  0
  194.5250  177.5740  145.6360 O   0  0  0  0  0  0  0  0  0  0  0  0
  194.7840  176.4130  144.7180 S   0  0  0  0  0  0  0  0  0  0  0  0
  196.6810  175.2740  143.4530 C   0  0  1  0  0  3  0  0  0  0  0  0
  194.7150  174.8760  145.6610 C   0  0  2  0  0  3  0  0  0  0  0  0
  189.3160  171.7990  144.5330 O   0  0  0  0  0  0  0  0  0  0  0  0
  193.3350  173.4360  144.2590 C   0  0  1  0  0  3  0  0  0  0  0  0
  196.9010  174.3000  144.5180 N   0  0  0  0  0  2  0  0  0  0  0  0
  196.3610  176.5680  144.0320 N   0  0  0  0  0  2  0  0  0  0  0  0
  190.1530  172.5840  144.0140 C   0  0  0  0  0  0  0  0  0  0  0  0
  192.1970  175.1050  146.0010 C   0  0  0  0  0  0  0  0  0  0  0  0
  193.4330  171.1200  144.4840 C   0  0  0  0  0  0  0  0  0  0  0  0
  197.9370  175.3960  142.6180 C   0  0  0  0  0  1  0  0  0  0  0  0
  191.4110  172.0310  143.4400 C   0  0  0  0  0  2  0  0  0  0  0  0
  192.2550  175.5910  147.3170 C   0  0  0  0  0  3  0  0  0  0  0  0
  190.2030  176.4650  145.6560 C   0  0  0  0  0  3  0  0  0  0  0  0
  190.2900  176.9460  146.9610 C   0  0  0  0  0  3  0  0  0  0  0  0
  189.8500  173.9730  143.9240 N   0  0  0  0  0  2  0  0  0  0  0  0
  194.8030  172.9930  144.0690 C   0  0  1  0  0  3  0  0  0  0  0  0
  192.5460  172.2130  144.3340 N   0  0  0  0  0  0  0  0  0  0  0  0
  195.6290  173.8140  145.0620 C   0  0  2  0  0  3  0  0  0  0  0  0
  195.5130  171.1830  145.5620 O   0  0  0  0  0  1  0  0  0  0  0  0
  193.3450  174.2030  145.5870 C   0  0  2  0  0  3  0  0  0  0  0  0
  1 21  2  0  0  0  0
  1 16  1  0  0  0  0
  2  8  2  0  0  0  0
  5 17  1  0  0  0  0
  5 27  1  1  0  0  0
  6 23  1  0  0  0  0
  6  1  1  0  0  0  0
  8  7  2  0  0  0  0
  9 18  1  1  0  0  0
  9 14  1  0  0  0  0
  9 13  1  0  0  0  0
 10  8  1  6  0  0  0
 12 25  1  1  0  0  0
 12 28  1  0  0  0  0
 13 26  1  0  0  0  0
 14  8  1  0  0  0  0
 15 11  2  0  0  0  0
 16 20  2  0  0  0  0
 17  3  2  0  0  0  0
 19 15  1  0  0  0  0
 19 25  1  0  0  0  0
 20  4  1  0  0  0  0
 21 22  1  0  0  0  0
 22  4  2  0  0  0  0
 23 15  1  0  0  0  0
 24 12  1  0  0  0  0
 24  5  1  0  0  0  0
 24 26  1  0  0  0  0
 25 17  1  0  0  0  0
 26 10  1  0  0  0  0
 28 10  1  0  0  0  0
 28 16  1  0  0  0  0
M  END
>  <MODEL>
6

>  <REMARK>
 VINA RESULT:      -7.3      3.756      6.864
  Name = 
  0 active torsions:
  status: ('A' for Active; 'I' for Inactive)
                            x       y       z     vdW  Elec       q    Type
                         _______ _______ _______ _____ _____    ______ ____

>  <TORSDO>
F 0

$$$$
=
 OpenBabel11112417413D

 28 32  0  0  1  0  0  0  0  0999 V2000
  186.0040  177.0080  143.7870 C   0  0  0  0  0  0  0  0  0  0  0  0
  187.4730  174.4540  142.6050 O   0  0  0  0  0  0  0  0  0  0  0  0
  190.4740  177.4280  147.6870 O   0  0  0  0  0  0  0  0  0  0  0  0
  186.0660  179.0410  141.8540 C   0  0  0  0  0  3  0  0  0  0  0  0
  191.1270  176.1130  145.7790 C   0  0  1  0  0  3  0  0  0  0  0  0
  185.8670  176.0430  144.9120 C   0  0  0  0  0  2  0  0  0  0  0  0
  187.8160  175.6840  140.5120 O   0  0  0  0  0  0  0  0  0  0  0  0
  188.5000  175.0930  141.7120 S   0  0  0  0  0  0  0  0  0  0  0  0
  190.4770  173.6100  142.3350 C   0  0  1  0  0  3  0  0  0  0  0  0
  189.4130  176.3860  142.5800 C   0  0  2  0  0  3  0  0  0  0  0  0
  186.3770  178.1240  147.8380 O   0  0  0  0  0  0  0  0  0  0  0  0
  188.8040  176.0150  144.9110 C   0  0  1  0  0  3  0  0  0  0  0  0
  191.3510  174.7550  142.5760 N   0  0  0  0  0  2  0  0  0  0  0  0
  189.6180  173.8830  141.1960 N   0  0  0  0  0  2  0  0  0  0  0  0
  186.5710  177.1490  147.0660 C   0  0  0  0  0  0  0  0  0  0  0  0
  187.2530  177.5110  143.3390 C   0  0  0  0  0  0  0  0  0  0  0  0
  190.1530  176.8210  146.6300 C   0  0  0  0  0  0  0  0  0  0  0  0
  191.3220  172.3880  142.0440 C   0  0  0  0  0  1  0  0  0  0  0  0
  187.8180  176.3460  147.2060 C   0  0  0  0  0  2  0  0  0  0  0  0
  187.2560  178.5330  142.3770 C   0  0  0  0  0  3  0  0  0  0  0  0
  184.8160  177.5260  143.2530 C   0  0  0  0  0  3  0  0  0  0  0  0
  184.8450  178.5310  142.2870 C   0  0  0  0  0  3  0  0  0  0  0  0
  185.5670  176.7910  146.1210 N   0  0  0  0  0  2  0  0  0  0  0  0
  190.2280  175.4510  144.7130 C   0  0  1  0  0  3  0  0  0  0  0  0
  188.8100  176.6970  146.1990 N   0  0  0  0  0  0  0  0  0  0  0  0
  190.6400  175.8230  143.2870 C   0  0  2  0  0  3  0  0  0  0  0  0
  192.0230  177.0390  145.2340 O   0  0  0  0  0  1  0  0  0  0  0  0
  188.6190  176.9870  143.7400 C   0  0  2  0  0  3  0  0  0  0  0  0
  1  6  1  0  0  0  0
  4 22  2  0  0  0  0
  4 20  1  0  0  0  0
  5 27  1  6  0  0  0
  5 17  1  0  0  0  0
  6 23  1  0  0  0  0
  7  8  2  0  0  0  0
  8  2  2  0  0  0  0
  9 18  1  6  0  0  0
  9 13  1  0  0  0  0
 10  8  1  1  0  0  0
 10 26  1  0  0  0  0
 10 28  1  0  0  0  0
 12 25  1  1  0  0  0
 13 26  1  0  0  0  0
 14  8  1  0  0  0  0
 14  9  1  0  0  0  0
 15 19  1  0  0  0  0
 15 11  2  0  0  0  0
 16 28  1  0  0  0  0
 16  1  1  0  0  0  0
 17  3  2  0  0  0  0
 20 16  2  0  0  0  0
 21  1  2  0  0  0  0
 22 21  1  0  0  0  0
 23 15  1  0  0  0  0
 24 12  1  0  0  0  0
 24  5  1  0  0  0  0
 25 17  1  0  0  0  0
 25 19  1  0  0  0  0
 26 24  1  0  0  0  0
 28 12  1  0  0  0  0
M  END
>  <MODEL>
7

>  <REMARK>
 VINA RESULT:      -7.3      2.199      6.358
  Name = 
  0 active torsions:
  status: ('A' for Active; 'I' for Inactive)
                            x       y       z     vdW  Elec       q    Type
                         _______ _______ _______ _____ _____    ______ ____

>  <TORSDO>
F 0

$$$$
=
 OpenBabel11112417413D

 28 32  0  0  1  0  0  0  0  0999 V2000
  189.1140  176.6050  145.1310 C   0  0  0  0  0  0  0  0  0  0  0  0
  192.1640  176.8340  144.2800 O   0  0  0  0  0  0  0  0  0  0  0  0
  188.1910  173.7220  140.0120 O   0  0  0  0  0  0  0  0  0  0  0  0
  188.9410  174.9160  147.3650 C   0  0  0  0  0  3  0  0  0  0  0  0
  190.5200  173.6600  140.6180 C   0  0  1  0  0  3  0  0  0  0  0  0
  189.0270  177.5300  143.9680 C   0  0  0  0  0  2  0  0  0  0  0  0
  192.7480  175.3960  146.1780 O   0  0  0  0  0  0  0  0  0  0  0  0
  192.6830  175.4800  144.6790 S   0  0  0  0  0  0  0  0  0  0  0  0
  194.0920  175.0190  142.6060 C   0  0  1  0  0  3  0  0  0  0  0  0
  191.6270  174.1590  144.0500 C   0  0  2  0  0  3  0  0  0  0  0  0
  186.0070  176.4350  142.2830 O   0  0  0  0  0  0  0  0  0  0  0  0
  190.2050  175.3150  142.4410 C   0  0  1  0  0  3  0  0  0  0  0  0
  193.5070  173.6940  142.4170 N   0  0  0  0  0  2  0  0  0  0  0  0
  194.2680  175.2770  144.0250 N   0  0  0  0  0  2  0  0  0  0  0  0
  187.2240  176.7370  142.3920 C   0  0  0  0  0  0  0  0  0  0  0  0
  189.5390  175.2550  145.0240 C   0  0  0  0  0  0  0  0  0  0  0  0
  189.1300  174.1310  140.7480 C   0  0  0  0  0  0  0  0  0  0  0  0
  195.4380  175.0750  141.9170 C   0  0  0  0  0  1  0  0  0  0  0  0
  188.1780  176.3150  141.3290 C   0  0  0  0  0  2  0  0  0  0  0  0
  189.4350  174.4290  146.1540 C   0  0  0  0  0  3  0  0  0  0  0  0
  188.6210  177.0810  146.3530 C   0  0  0  0  0  3  0  0  0  0  0  0
  188.5410  176.2460  147.4670 C   0  0  0  0  0  3  0  0  0  0  0  0
  187.6540  177.5360  143.4920 N   0  0  0  0  0  2  0  0  0  0  0  0
  191.2730  174.5410  141.6380 C   0  0  1  0  0  3  0  0  0  0  0  0
  188.9500  175.1440  141.7210 N   0  0  0  0  0  0  0  0  0  0  0  0
  192.0600  173.7150  142.6580 C   0  0  2  0  0  3  0  0  0  0  0  0
  190.5780  172.2990  140.9320 O   0  0  0  0  0  1  0  0  0  0  0  0
  190.1900  174.6210  143.8090 C   0  0  2  0  0  3  0  0  0  0  0  0
  1 21  1  0  0  0  0
  2  8  2  0  0  0  0
  3 17  2  0  0  0  0
  4 22  1  0  0  0  0
  5 17  1  0  0  0  0
  5 27  1  1  0  0  0
  5 24  1  0  0  0  0
  6  1  1  0  0  0  0
  8  7  2  0  0  0  0
  9 18  1  6  0  0  0
  9 14  1  0  0  0  0
 10  8  1  6  0  0  0
 11 15  2  0  0  0  0
 12 25  1  6  0  0  0
 12 28  1  0  0  0  0
 13  9  1  0  0  0  0
 13 26  1  0  0  0  0
 14  8  1  0  0  0  0
 15 23  1  0  0  0  0
 16  1  2  0  0  0  0
 16 20  1  0  0  0  0
 17 25  1  0  0  0  0
 19 25  1  0  0  0  0
 19 15  1  0  0  0  0
 20  4  2  0  0  0  0
 21 22  2  0  0  0  0
 23  6  1  0  0  0  0
 24 12  1  0  0  0  0
 24 26  1  0  0  0  0
 26 10  1  0  0  0  0
 28 10  1  0  0  0  0
 28 16  1  0  0  0  0
M  END
>  <MODEL>
8

>  <REMARK>
 VINA RESULT:      -7.2      2.565      5.337
  Name = 
  0 active torsions:
  status: ('A' for Active; 'I' for Inactive)
                            x       y       z     vdW  Elec       q    Type
                         _______ _______ _______ _____ _____    ______ ____

>  <TORSDO>
F 0

$$$$
=
 OpenBabel11112417413D

 28 32  0  0  1  0  0  0  0  0999 V2000
  190.9000  175.9450  145.6630 C   0  0  0  0  0  0  0  0  0  0  0  0
  190.7070  173.1960  144.0880 O   0  0  0  0  0  0  0  0  0  0  0  0
  196.2210  176.7080  143.1180 O   0  0  0  0  0  0  0  0  0  0  0  0
  188.9570  177.6920  144.6410 C   0  0  0  0  0  3  0  0  0  0  0  0
  194.9020  175.1200  141.8790 C   0  0  1  0  0  3  0  0  0  0  0  0
  191.9660  175.1490  146.3300 C   0  0  0  0  0  2  0  0  0  0  0  0
  188.8200  174.1140  142.8200 O   0  0  0  0  0  0  0  0  0  0  0  0
  190.2510  173.6640  142.7340 S   0  0  0  0  0  0  0  0  0  0  0  0
  191.7850  172.2000  141.3210 C   0  0  1  0  0  3  0  0  0  0  0  0
  191.2720  175.0250  142.1300 C   0  0  2  0  0  3  0  0  0  0  0  0
  194.6020  177.5860  146.8460 O   0  0  0  0  0  0  0  0  0  0  0  0
  193.1740  175.0000  143.6560 C   0  0  1  0  0  3  0  0  0  0  0  0
  192.2390  173.3300  140.5150 N   0  0  0  0  0  2  0  0  0  0  0  0
  190.3720  172.3500  141.6210 N   0  0  0  0  0  2  0  0  0  0  0  0
  194.0870  176.5080  146.4500 C   0  0  0  0  0  0  0  0  0  0  0  0
  190.9530  176.3310  144.2990 C   0  0  0  0  0  0  0  0  0  0  0  0
  195.1970  175.9770  143.0420 C   0  0  0  0  0  0  0  0  0  0  0  0
  191.9990  170.9160  140.5490 C   0  0  0  0  0  1  0  0  0  0  0  0
  194.8120  175.6810  145.4450 C   0  0  0  0  0  2  0  0  0  0  0  0
  189.9730  177.2110  143.8140 C   0  0  0  0  0  3  0  0  0  0  0  0
  189.8740  176.4340  146.4820 C   0  0  0  0  0  3  0  0  0  0  0  0
  188.9020  177.2960  145.9750 C   0  0  0  0  0  3  0  0  0  0  0  0
  192.8580  176.0660  147.0190 N   0  0  0  0  0  2  0  0  0  0  0  0
  193.6390  174.3570  142.3320 C   0  0  1  0  0  3  0  0  0  0  0  0
  194.2690  175.8500  144.1040 N   0  0  0  0  0  0  0  0  0  0  0  0
  192.4760  174.5130  141.3490 C   0  0  2  0  0  3  0  0  0  0  0  0
  194.6760  175.9250  140.7580 O   0  0  0  0  0  1  0  0  0  0  0  0
  191.9330  175.8100  143.2640 C   0  0  2  0  0  3  0  0  0  0  0  0
  1  6  1  0  0  0  0
  1 21  1  0  0  0  0
  4 22  1  0  0  0  0
  5 27  1  6  0  0  0
  5 24  1  0  0  0  0
  5 17  1  0  0  0  0
  6 23  1  0  0  0  0
  8  7  2  0  0  0  0
  8  2  2  0  0  0  0
  9 18  1  6  0  0  0
  9 14  1  0  0  0  0
 10  8  1  1  0  0  0
 10 28  1  0  0  0  0
 12 25  1  6  0  0  0
 13  9  1  0  0  0  0
 13 26  1  0  0  0  0
 14  8  1  0  0  0  0
 15 11  2  0  0  0  0
 15 23  1  0  0  0  0
 16  1  2  0  0  0  0
 17  3  2  0  0  0  0
 17 25  1  0  0  0  0
 19 15  1  0  0  0  0
 20 16  1  0  0  0  0
 20  4  2  0  0  0  0
 22 21  2  0  0  0  0
 24 12  1  0  0  0  0
 25 19  1  0  0  0  0
 26 10  1  0  0  0  0
 26 24  1  0  0  0  0
 28 12  1  0  0  0  0
 28 16  1  0  0  0  0
M  END
>  <MODEL>
9

>  <REMARK>
 VINA RESULT:      -7.1      3.307      6.292
  Name = 
  0 active torsions:
  status: ('A' for Active; 'I' for Inactive)
                            x       y       z     vdW  Elec       q    Type
                         _______ _______ _______ _____ _____    ______ ____

>  <TORSDO>
F 0

$$$$
