=
 OpenBabel11112416323D

 32 37  0  0  1  0  0  0  0  0999 V2000
  194.7310  176.6350  145.3510 C   0  0  0  0  0  2  0  0  0  0  0  0
  190.1200  175.2610  144.4900 N   0  0  0  0  0  0  0  0  0  0  0  0
  190.0360  172.1660  140.6320 C   0  0  0  0  0  3  0  0  0  0  0  0
  188.8360  172.6650  140.3370 C   0  0  0  0  0  3  0  0  0  0  0  0
  188.0840  176.6950  145.0580 C   0  0  1  0  0  3  0  0  0  0  0  0
  186.9590  177.4540  144.3580 C   0  0  1  0  0  3  0  0  0  0  0  0
  192.0710  175.1860  146.0110 C   0  0  1  0  0  3  0  0  0  0  0  0
  192.1120  173.7080  144.1680 C   0  0  0  0  0  2  0  0  0  0  0  0
  185.4260  177.5110  142.5220 C   0  0  2  0  0  3  0  0  0  0  0  0
  194.1220  174.1410  145.2950 C   0  0  0  0  0  2  0  0  0  0  0  0
  190.8030  172.5620  141.8660 C   0  0  0  0  0  2  0  0  0  0  0  0
  190.7750  174.2320  143.7080 C   0  0  0  0  0  0  0  0  0  0  0  0
  190.1560  173.6820  142.6490 C   0  0  0  0  0  0  0  0  0  0  0  0
  188.1330  175.1750  143.1110 C   0  0  0  0  0  0  0  0  0  0  0  0
  186.3540  178.7150  142.4030 C   0  0  0  0  0  2  0  0  0  0  0  0
  193.7470  177.1110  146.4300 C   0  0  0  0  0  2  0  0  0  0  0  0
  192.8660  174.7490  144.8540 N   0  0  2  0  0  0  0  0  0  0  0  0
  187.4620  178.5320  143.4280 C   0  0  0  0  0  2  0  0  0  0  0  0
  192.8720  176.0070  147.0370 C   0  0  0  0  0  2  0  0  0  0  0  0
  195.2190  175.1910  145.5480 C   0  0  1  0  0  3  0  0  0  0  0  0
  188.1910  173.6710  141.1970 C   0  0  0  0  0  3  0  0  0  0  0  0
  188.8020  174.1570  142.2810 C   0  0  0  0  0  0  0  0  0  0  0  0
  186.8440  175.6050  142.7620 O   0  0  0  0  0  0  0  0  0  0  0  0
  190.8710  175.9890  145.5190 C   0  0  0  0  0  2  0  0  0  0  0  0
  187.5770  176.0410  146.1820 O   0  0  0  0  0  1  0  0  0  0  0  0
  184.1940  177.9270  143.0250 O   0  0  0  0  0  1  0  0  0  0  0  0
  188.7810  175.6990  144.1670 C   0  0  0  0  0  0  0  0  0  0  0  0
  186.0770  176.5560  143.5050 C   0  0  1  0  0  3  0  0  0  0  0  0
  196.3950  174.9060  144.6280 C   0  0  0  0  0  2  0  0  0  0  0  0
  197.2260  173.7880  145.1600 C   0  0  0  0  0  0  0  0  0  0  0  0
  197.1910  173.4790  146.5130 O   0  0  0  0  0  1  0  0  0  0  0  0
  197.9360  173.1050  144.3780 O   0  0  0  0  0  0  0  0  0  0  0  0
  1 20  1  0  0  0  0
  1 16  1  0  0  0  0
  2 24  1  0  0  0  0
  3 11  1  0  0  0  0
  4  3  2  0  0  0  0
  4 21  1  0  0  0  0
  5 25  1  1  0  0  0
  6 18  1  6  0  0  0
  6  5  1  0  0  0  0
  7 24  1  6  0  0  0
  7 19  1  0  0  0  0
  9 26  1  1  0  0  0
  9 28  1  0  0  0  0
 10 20  1  0  0  0  0
 11 13  1  0  0  0  0
 12  8  1  0  0  0  0
 12  2  1  0  0  0  0
 13 12  2  0  0  0  0
 14 27  2  0  0  0  0
 15  9  1  0  0  0  0
 15 18  1  0  0  0  0
 16 19  1  0  0  0  0
 17  8  1  1  0  0  0
 17 10  1  0  0  0  0
 17  7  1  0  0  0  0
 20 29  1  6  0  0  0
 21 22  2  0  0  0  0
 22 13  1  0  0  0  0
 22 14  1  0  0  0  0
 23 14  1  0  0  0  0
 27  2  1  0  0  0  0
 27  5  1  0  0  0  0
 28 23  1  6  0  0  0
 28  6  1  0  0  0  0
 29 30  1  0  0  0  0
 30 31  1  0  0  0  0
 32 30  2  0  0  0  0
M  END
>  <MODEL>
1

>  <REMARK>
 VINA RESULT:      -8.3      0.000      0.000
  Name = 
  2 active torsions:
  status: ('A' for Active; 'I' for Inactive)
    1  A    between atoms: C_20  and  C_29
    2  A    between atoms: C_29  and  C_30
                            x       y       z     vdW  Elec       q    Type
                         _______ _______ _______ _____ _____    ______ ____

>  <TORSDO>
F 2

$$$$
=
 OpenBabel11112416323D

 32 37  0  0  1  0  0  0  0  0999 V2000
  187.4370  177.2430  141.1670 C   0  0  0  0  0  2  0  0  0  0  0  0
  190.3400  175.3820  144.6310 N   0  0  0  0  0  0  0  0  0  0  0  0
  190.1320  178.2570  148.6500 C   0  0  0  0  0  3  0  0  0  0  0  0
  191.4020  177.9230  148.8790 C   0  0  0  0  0  3  0  0  0  0  0  0
  192.4160  173.9770  144.1360 C   0  0  1  0  0  3  0  0  0  0  0  0
  193.9350  174.0510  144.2730 C   0  0  1  0  0  3  0  0  0  0  0  0
  188.2930  175.1260  143.2650 C   0  0  1  0  0  3  0  0  0  0  0  0
  188.1340  176.5430  145.1490 C   0  0  0  0  0  2  0  0  0  0  0  0
  195.7900  174.7920  145.5900 C   0  0  2  0  0  3  0  0  0  0  0  0
  186.4840  176.7030  143.4910 C   0  0  0  0  0  2  0  0  0  0  0  0
  189.3240  177.6670  147.5260 C   0  0  0  0  0  3  0  0  0  0  0  0
  189.5810  176.2780  145.4790 C   0  0  0  0  0  0  0  0  0  0  0  0
  190.1280  176.7840  146.5980 C   0  0  0  0  0  0  0  0  0  0  0  0
  192.2680  175.4820  146.0910 C   0  0  0  0  0  0  0  0  0  0  0  0
  195.8450  175.5110  144.2470 C   0  0  0  0  0  2  0  0  0  0  0  0
  188.0060  175.8640  140.8020 C   0  0  0  0  0  2  0  0  0  0  0  0
  187.9130  176.4750  143.7100 N   0  0  2  0  0  0  0  0  0  0  0  0
  194.5410  175.2150  143.5240 C   0  0  0  0  0  2  0  0  0  0  0  0
  187.7810  174.7740  141.8570 C   0  0  0  0  0  2  0  0  0  0  0  0
  186.1850  177.1830  142.0580 C   0  0  1  0  0  3  0  0  0  0  0  0
  192.1100  176.9650  148.0160 C   0  0  0  0  0  3  0  0  0  0  0  0
  191.5240  176.4270  146.9420 C   0  0  1  0  0  3  0  0  0  0  0  0
  193.5850  175.1380  146.4350 O   0  0  0  0  0  0  0  0  0  0  0  0
  189.8110  174.9900  143.3190 C   0  0  0  0  0  2  0  0  0  0  0  0
  191.9800  172.6940  144.4680 O   0  0  0  0  0  1  0  0  0  0  0  0
  196.7280  173.7600  145.6000 O   0  0  0  0  0  1  0  0  0  0  0  0
  191.6880  174.9910  144.9810 C   0  0  0  0  0  0  0  0  0  0  0  0
  194.3960  174.2080  145.7130 C   0  0  1  0  0  3  0  0  0  0  0  0
  185.5230  178.5490  142.1240 C   0  0  0  0  0  2  0  0  0  0  0  0
  184.1500  178.4460  142.6940 C   0  0  0  0  0  0  0  0  0  0  0  0
  183.8910  178.9170  143.9740 O   0  0  0  0  0  1  0  0  0  0  0  0
  183.2170  177.9600  142.0040 O   0  0  0  0  0  0  0  0  0  0  0  0
  1 20  1  0  0  0  0
  2 27  1  0  0  0  0
  2 12  1  0  0  0  0
  3  4  1  0  0  0  0
  5  6  1  0  0  0  0
  5 25  1  1  0  0  0
  5 27  1  0  0  0  0
  6 18  1  6  0  0  0
  6 28  1  0  0  0  0
  7 19  1  6  0  0  0
  7 24  1  0  0  0  0
  7 17  1  0  0  0  0
  8 12  1  0  0  0  0
  9 26  1  6  0  0  0
  9 28  1  0  0  0  0
 11  3  2  0  0  0  0
 12 13  2  0  0  0  0
 13 22  1  0  0  0  0
 13 11  1  0  0  0  0
 14 23  1  0  0  0  0
 14 22  1  0  0  0  0
 15  9  1  0  0  0  0
 16  1  1  0  0  0  0
 16 19  1  0  0  0  0
 17 10  1  1  0  0  0
 17  8  1  0  0  0  0
 18 15  1  0  0  0  0
 20 29  1  1  0  0  0
 20 10  1  0  0  0  0
 21  4  2  0  0  0  0
 22 21  1  6  0  0  0
 24  2  1  0  0  0  0
 27 14  2  0  0  0  0
 28 23  1  1  0  0  0
 29 30  1  0  0  0  0
 30 31  1  0  0  0  0
 32 30  2  0  0  0  0
M  END
>  <MODEL>
2

>  <REMARK>
 VINA RESULT:      -7.7      1.997      8.679
  Name = 
  2 active torsions:
  status: ('A' for Active; 'I' for Inactive)
    1  A    between atoms: C_20  and  C_29
    2  A    between atoms: C_29  and  C_30
                            x       y       z     vdW  Elec       q    Type
                         _______ _______ _______ _____ _____    ______ ____

>  <TORSDO>
F 2

$$$$
=
 OpenBabel11112416323D

 32 37  0  0  1  0  0  0  0  0999 V2000
  186.6700  178.6660  142.0290 C   0  0  0  0  0  2  0  0  0  0  0  0
  190.3380  175.8610  143.6310 N   0  0  0  0  0  0  0  0  0  0  0  0
  191.4340  177.1150  148.2890 C   0  0  0  0  0  3  0  0  0  0  0  0
  192.6970  176.7910  148.0130 C   0  0  0  0  0  3  0  0  0  0  0  0
  192.1110  174.8360  142.1030 C   0  0  1  0  0  3  0  0  0  0  0  0
  193.6070  174.9390  141.8190 C   0  0  1  0  0  3  0  0  0  0  0  0
  187.9760  175.9940  142.9050 C   0  0  1  0  0  3  0  0  0  0  0  0
  188.4350  176.6430  145.1310 C   0  0  0  0  0  2  0  0  0  0  0  0
  195.7970  175.2650  142.7270 C   0  0  2  0  0  3  0  0  0  0  0  0
  186.3920  177.2900  144.1790 C   0  0  0  0  0  2  0  0  0  0  0  0
  190.3090  176.9170  147.3080 C   0  0  0  0  0  3  0  0  0  0  0  0
  189.9000  176.3570  144.9200 C   0  0  0  0  0  0  0  0  0  0  0  0
  190.7680  176.4630  145.9400 C   0  0  0  0  0  0  0  0  0  0  0  0
  192.6040  175.5430  144.4180 C   0  0  0  0  0  0  0  0  0  0  0  0
  195.5040  176.4150  141.7680 C   0  0  0  0  0  2  0  0  0  0  0  0
  187.0390  177.5380  141.0540 C   0  0  0  0  0  2  0  0  0  0  0  0
  187.8100  177.0760  143.8880 N   0  0  2  0  0  0  0  0  0  0  0  0
  194.0350  176.3240  141.3910 C   0  0  0  0  0  2  0  0  0  0  0  0
  187.0660  176.1350  141.6720 C   0  0  0  0  0  2  0  0  0  0  0  0
  185.7220  178.2270  143.1570 C   0  0  1  0  0  3  0  0  0  0  0  0
  193.0780  176.2390  146.7030 C   0  0  0  0  0  3  0  0  0  0  0  0
  192.1840  176.0840  145.7230 C   0  0  1  0  0  3  0  0  0  0  0  0
  193.9440  175.1720  144.2290 O   0  0  0  0  0  0  0  0  0  0  0  0
  189.4370  175.9300  142.4740 C   0  0  0  0  0  2  0  0  0  0  0  0
  191.7200  173.4970  142.0690 O   0  0  0  0  0  1  0  0  0  0  0  0
  196.6430  174.3490  142.1040 O   0  0  0  0  0  1  0  0  0  0  0  0
  191.7070  175.4450  143.4210 C   0  0  0  0  0  0  0  0  0  0  0  0
  194.4660  174.6010  143.0270 C   0  0  1  0  0  3  0  0  0  0  0  0
  185.1790  179.4440  143.8870 C   0  0  0  0  0  2  0  0  0  0  0  0
  184.8360  179.1070  145.2980 C   0  0  0  0  0  0  0  0  0  0  0  0
  185.7660  179.3100  146.3080 O   0  0  0  0  0  1  0  0  0  0  0  0
  183.6920  178.6660  145.5790 O   0  0  0  0  0  0  0  0  0  0  0  0
  1 20  1  0  0  0  0
  2 12  1  0  0  0  0
  4  3  1  0  0  0  0
  5 25  1  1  0  0  0
  5 27  1  0  0  0  0
  6 18  1  1  0  0  0
  6  5  1  0  0  0  0
  6 28  1  0  0  0  0
  7 19  1  6  0  0  0
  7 17  1  0  0  0  0
  9 26  1  6  0  0  0
  9 28  1  0  0  0  0
 11  3  2  0  0  0  0
 12  8  1  0  0  0  0
 12 13  2  0  0  0  0
 13 11  1  0  0  0  0
 14 22  1  0  0  0  0
 15  9  1  0  0  0  0
 16 19  1  0  0  0  0
 16  1  1  0  0  0  0
 17 10  1  1  0  0  0
 17  8  1  0  0  0  0
 18 15  1  0  0  0  0
 20 29  1  1  0  0  0
 20 10  1  0  0  0  0
 21  4  2  0  0  0  0
 22 13  1  0  0  0  0
 22 21  1  6  0  0  0
 23 14  1  0  0  0  0
 24  7  1  0  0  0  0
 24  2  1  0  0  0  0
 27  2  1  0  0  0  0
 27 14  2  0  0  0  0
 28 23  1  1  0  0  0
 29 30  1  0  0  0  0
 30 32  2  0  0  0  0
 30 31  1  0  0  0  0
M  END
>  <MODEL>
3

>  <REMARK>
 VINA RESULT:      -7.7      2.415      8.406
  Name = 
  2 active torsions:
  status: ('A' for Active; 'I' for Inactive)
    1  A    between atoms: C_20  and  C_29
    2  A    between atoms: C_29  and  C_30
                            x       y       z     vdW  Elec       q    Type
                         _______ _______ _______ _____ _____    ______ ____

>  <TORSDO>
F 2

$$$$
=
 OpenBabel11112416323D

 32 37  0  0  1  0  0  0  0  0999 V2000
  187.5470  176.6760  146.5600 C   0  0  0  0  0  2  0  0  0  0  0  0
  190.9080  175.1090  143.3760 N   0  0  0  0  0  0  0  0  0  0  0  0
  188.6490  172.8470  139.6020 C   0  0  0  0  0  3  0  0  0  0  0  0
  189.7180  172.0550  139.5180 C   0  0  0  0  0  3  0  0  0  0  0  0
  193.2990  174.4870  144.0300 C   0  0  1  0  0  3  0  0  0  0  0  0
  194.2080  173.2630  144.1010 C   0  0  1  0  0  3  0  0  0  0  0  0
  189.7750  177.0380  144.4350 C   0  0  1  0  0  3  0  0  0  0  0  0
  188.6240  175.9800  142.6630 C   0  0  0  0  0  2  0  0  0  0  0  0
  194.8430  171.1830  143.1030 C   0  0  2  0  0  3  0  0  0  0  0  0
  187.4150  177.3880  144.0960 C   0  0  0  0  0  2  0  0  0  0  0  0
  188.5660  174.0050  140.5600 C   0  0  0  0  0  2  0  0  0  0  0  0
  189.7550  174.9950  142.5070 C   0  0  0  0  0  0  0  0  0  0  0  0
  189.7370  174.0900  141.5140 C   0  0  0  0  0  0  0  0  0  0  0  0
  192.0890  173.3560  142.1970 C   0  0  0  0  0  0  0  0  0  0  0  0
  194.2900  170.8930  144.4950 C   0  0  0  0  0  2  0  0  0  0  0  0
  188.9650  177.1660  146.8880 C   0  0  0  0  0  2  0  0  0  0  0  0
  188.5030  176.4100  144.0500 N   0  0  2  0  0  0  0  0  0  0  0  0
  193.6740  172.1820  145.0130 C   0  0  0  0  0  2  0  0  0  0  0  0
  189.6900  177.8640  145.7310 C   0  0  0  0  0  2  0  0  0  0  0  0
  186.8210  177.5320  145.5090 C   0  0  1  0  0  3  0  0  0  0  0  0
  190.8870  172.2500  140.3900 C   0  0  0  0  0  3  0  0  0  0  0  0
  190.9060  173.1980  141.3310 C   0  0  0  0  0  0  0  0  0  0  0  0
  193.1970  172.5170  142.0040 O   0  0  0  0  0  0  0  0  0  0  0  0
  190.8450  175.9590  144.5720 C   0  0  0  0  0  2  0  0  0  0  0  0
  194.0220  175.5780  143.5440 O   0  0  0  0  0  1  0  0  0  0  0  0
  196.2360  171.1170  143.1370 O   0  0  0  0  0  1  0  0  0  0  0  0
  192.0730  174.2750  143.1780 C   0  0  0  0  0  0  0  0  0  0  0  0
  194.4130  172.5950  142.7520 C   0  0  1  0  0  3  0  0  0  0  0  0
  185.3470  177.1660  145.4630 C   0  0  0  0  0  2  0  0  0  0  0  0
  184.5150  178.2360  146.0820 C   0  0  0  0  0  0  0  0  0  0  0  0
  183.7120  179.0410  145.2860 O   0  0  0  0  0  0  0  0  0  0  0  0
  184.5170  178.3920  147.3310 O   0  0  0  0  0  1  0  0  0  0  0  0
  1 16  1  0  0  0  0
  2 24  1  0  0  0  0
  3 11  1  0  0  0  0
  4  3  2  0  0  0  0
  4 21  1  0  0  0  0
  5 25  1  6  0  0  0
  5  6  1  0  0  0  0
  6 18  1  1  0  0  0
  7 24  1  1  0  0  0
  7 19  1  0  0  0  0
  9 26  1  1  0  0  0
  9 15  1  0  0  0  0
 10 20  1  0  0  0  0
 11 13  1  0  0  0  0
 12  8  1  0  0  0  0
 12  2  1  0  0  0  0
 13 12  2  0  0  0  0
 14 27  2  0  0  0  0
 15 18  1  0  0  0  0
 17  8  1  6  0  0  0
 17 10  1  0  0  0  0
 17  7  1  0  0  0  0
 19 16  1  0  0  0  0
 20 29  1  6  0  0  0
 20  1  1  0  0  0  0
 21 22  2  0  0  0  0
 22 13  1  0  0  0  0
 22 14  1  0  0  0  0
 23 14  1  0  0  0  0
 27  2  1  0  0  0  0
 27  5  1  0  0  0  0
 28 23  1  6  0  0  0
 28  9  1  0  0  0  0
 28  6  1  0  0  0  0
 29 30  1  0  0  0  0
 30 32  1  0  0  0  0
 31 30  2  0  0  0  0
M  END
>  <MODEL>
4

>  <REMARK>
 VINA RESULT:      -7.6      2.372      7.723
  Name = 
  2 active torsions:
  status: ('A' for Active; 'I' for Inactive)
    1  A    between atoms: C_20  and  C_29
    2  A    between atoms: C_29  and  C_30
                            x       y       z     vdW  Elec       q    Type
                         _______ _______ _______ _____ _____    ______ ____

>  <TORSDO>
F 2

$$$$
=
 OpenBabel11112416323D

 32 37  0  0  1  0  0  0  0  0999 V2000
  183.8820  178.2900  143.4210 C   0  0  0  0  0  2  0  0  0  0  0  0
  188.5850  177.0810  142.8650 N   0  0  0  0  0  0  0  0  0  0  0  0
  188.9210  173.2100  139.8050 C   0  0  0  0  0  3  0  0  0  0  0  0
  189.9910  172.8300  140.5040 C   0  0  0  0  0  3  0  0  0  0  0  0
  190.3770  177.5060  144.6360 C   0  0  1  0  0  3  0  0  0  0  0  0
  191.2970  176.7290  145.5740 C   0  0  1  0  0  3  0  0  0  0  0  0
  186.7950  178.7420  142.4620 C   0  0  1  0  0  3  0  0  0  0  0  0
  186.8760  176.8990  140.9860 C   0  0  0  0  0  2  0  0  0  0  0  0
  192.6560  174.7850  145.8840 C   0  0  2  0  0  3  0  0  0  0  0  0
  184.9110  178.1750  141.0710 C   0  0  0  0  0  2  0  0  0  0  0  0
  188.1910  174.4990  140.0700 C   0  0  0  0  0  2  0  0  0  0  0  0
  188.0630  176.3440  141.7320 C   0  0  0  0  0  0  0  0  0  0  0  0
  188.6880  175.2390  141.2910 C   0  0  0  0  0  0  0  0  0  0  0  0
  190.4490  175.5590  143.1170 C   0  0  0  0  0  0  0  0  0  0  0  0
  191.5260  174.7420  146.9070 C   0  0  0  0  0  2  0  0  0  0  0  0
  184.8450  179.2960  144.0680 C   0  0  0  0  0  2  0  0  0  0  0  0
  186.0050  177.6450  141.8850 N   0  0  2  0  0  0  0  0  0  0  0  0
  190.5460  175.8440  146.5420 C   0  0  0  0  0  2  0  0  0  0  0  0
  185.9410  179.8300  143.1380 C   0  0  0  0  0  2  0  0  0  0  0  0
  183.6690  178.5140  141.9150 C   0  0  1  0  0  3  0  0  0  0  0  0
  190.5120  173.6450  141.6120 C   0  0  0  0  0  3  0  0  0  0  0  0
  189.9080  174.7740  141.9920 C   0  0  0  0  0  0  0  0  0  0  0  0
  191.6140  175.1180  143.7630 O   0  0  0  0  0  0  0  0  0  0  0  0
  187.7970  178.1680  143.4590 C   0  0  0  0  0  2  0  0  0  0  0  0
  191.0720  178.5850  144.0880 O   0  0  0  0  0  1  0  0  0  0  0  0
  193.8310  175.1970  146.5120 O   0  0  0  0  0  1  0  0  0  0  0  0
  189.8000  176.6620  143.5280 C   0  0  0  0  0  0  0  0  0  0  0  0
  192.2560  175.8070  144.8380 C   0  0  1  0  0  3  0  0  0  0  0  0
  182.4960  177.6830  141.4230 C   0  0  0  0  0  2  0  0  0  0  0  0
  181.2780  178.5270  141.2610 C   0  0  0  0  0  0  0  0  0  0  0  0
  180.8730  179.3680  142.2880 O   0  0  0  0  0  1  0  0  0  0  0  0
  180.6330  178.4990  140.1810 O   0  0  0  0  0  0  0  0  0  0  0  0
  1 16  1  0  0  0  0
  2 24  1  0  0  0  0
  2 27  1  0  0  0  0
  3 11  1  0  0  0  0
  3  4  2  0  0  0  0
  4 21  1  0  0  0  0
  5 25  1  6  0  0  0
  5  6  1  0  0  0  0
  6 18  1  1  0  0  0
  7 19  1  1  0  0  0
  7 24  1  0  0  0  0
  8 12  1  0  0  0  0
  9 26  1  1  0  0  0
  9 15  1  0  0  0  0
 10 17  1  0  0  0  0
 10 20  1  0  0  0  0
 11 13  1  0  0  0  0
 12  2  1  0  0  0  0
 13 12  2  0  0  0  0
 13 22  1  0  0  0  0
 14 27  2  0  0  0  0
 14 23  1  0  0  0  0
 17  8  1  6  0  0  0
 17  7  1  0  0  0  0
 18 15  1  0  0  0  0
 19 16  1  0  0  0  0
 20 29  1  6  0  0  0
 20  1  1  0  0  0  0
 21 22  2  0  0  0  0
 22 14  1  0  0  0  0
 27  5  1  0  0  0  0
 28 23  1  6  0  0  0
 28  6  1  0  0  0  0
 28  9  1  0  0  0  0
 30 29  1  0  0  0  0
 30 31  1  0  0  0  0
 32 30  2  0  0  0  0
M  END
>  <MODEL>
5

>  <REMARK>
 VINA RESULT:      -7.5      2.723      8.608
  Name = 
  2 active torsions:
  status: ('A' for Active; 'I' for Inactive)
    1  A    between atoms: C_20  and  C_29
    2  A    between atoms: C_29  and  C_30
                            x       y       z     vdW  Elec       q    Type
                         _______ _______ _______ _____ _____    ______ ____

>  <TORSDO>
F 2

$$$$
=
 OpenBabel11112416323D

 32 37  0  0  1  0  0  0  0  0999 V2000
  193.6940  176.6410  146.4590 C   0  0  0  0  0  2  0  0  0  0  0  0
  189.0680  175.8400  145.1010 N   0  0  0  0  0  0  0  0  0  0  0  0
  188.9970  174.2380  140.4210 C   0  0  0  0  0  3  0  0  0  0  0  0
  187.8250  174.8590  140.2920 C   0  0  0  0  0  3  0  0  0  0  0  0
  187.0650  177.0830  146.0860 C   0  0  1  0  0  3  0  0  0  0  0  0
  185.9900  178.0820  145.6650 C   0  0  1  0  0  3  0  0  0  0  0  0
  190.9660  175.1710  146.5410 C   0  0  1  0  0  3  0  0  0  0  0  0
  191.0140  174.4020  144.3070 C   0  0  0  0  0  2  0  0  0  0  0  0
  184.5180  178.8220  143.9300 C   0  0  2  0  0  3  0  0  0  0  0  0
  193.0010  174.3420  145.5500 C   0  0  0  0  0  2  0  0  0  0  0  0
  189.7380  174.1600  141.7290 C   0  0  0  0  0  2  0  0  0  0  0  0
  189.7110  175.1080  144.0290 C   0  0  0  0  0  0  0  0  0  0  0  0
  189.1070  174.9760  142.8350 C   0  0  0  0  0  0  0  0  0  0  0  0
  187.1230  176.3110  143.7400 C   0  0  0  0  0  0  0  0  0  0  0  0
  185.4910  179.9550  144.2430 C   0  0  0  0  0  2  0  0  0  0  0  0
  192.6930  176.7660  147.6180 C   0  0  0  0  0  2  0  0  0  0  0  0
  191.7820  175.1170  145.3180 N   0  0  2  0  0  0  0  0  0  0  0  0
  186.5590  179.3890  145.1640 C   0  0  0  0  0  2  0  0  0  0  0  0
  191.7630  175.5610  147.7980 C   0  0  0  0  0  2  0  0  0  0  0  0
  194.1260  175.1960  146.1630 C   0  0  1  0  0  3  0  0  0  0  0  0
  187.1890  175.5410  141.4300 C   0  0  0  0  0  3  0  0  0  0  0  0
  187.7820  175.6060  142.6260 C   0  0  0  0  0  0  0  0  0  0  0  0
  185.8610  176.8890  143.5350 O   0  0  0  0  0  0  0  0  0  0  0  0
  189.8110  176.1440  146.3300 C   0  0  0  0  0  2  0  0  0  0  0  0
  186.5010  176.1100  146.9120 O   0  0  0  0  0  1  0  0  0  0  0  0
  183.2860  179.0970  144.5220 O   0  0  0  0  0  1  0  0  0  0  0  0
  187.7550  176.4190  144.9220 C   0  0  0  0  0  0  0  0  0  0  0  0
  185.1050  177.5650  144.5430 C   0  0  1  0  0  3  0  0  0  0  0  0
  195.3190  175.1880  145.2220 C   0  0  0  0  0  2  0  0  0  0  0  0
  195.1910  176.2600  144.1950 C   0  0  0  0  0  0  0  0  0  0  0  0
  195.9400  177.4230  144.3070 O   0  0  0  0  0  1  0  0  0  0  0  0
  194.4280  176.0980  143.2080 O   0  0  0  0  0  0  0  0  0  0  0  0
  1 16  1  0  0  0  0
  2 24  1  0  0  0  0
  3 11  1  0  0  0  0
  4  3  2  0  0  0  0
  4 21  1  0  0  0  0
  5 25  1  1  0  0  0
  6 18  1  6  0  0  0
  6  5  1  0  0  0  0
  7 24  1  6  0  0  0
  7 19  1  0  0  0  0
  9 15  1  0  0  0  0
  9 26  1  1  0  0  0
  9 28  1  0  0  0  0
 10 20  1  0  0  0  0
 11 13  1  0  0  0  0
 12  8  1  0  0  0  0
 12  2  1  0  0  0  0
 13 12  2  0  0  0  0
 14 27  2  0  0  0  0
 15 18  1  0  0  0  0
 16 19  1  0  0  0  0
 17  8  1  6  0  0  0
 17 10  1  0  0  0  0
 17  7  1  0  0  0  0
 20 29  1  6  0  0  0
 20  1  1  0  0  0  0
 21 22  2  0  0  0  0
 22 13  1  0  0  0  0
 22 14  1  0  0  0  0
 23 14  1  0  0  0  0
 27  2  1  0  0  0  0
 27  5  1  0  0  0  0
 28 23  1  6  0  0  0
 28  6  1  0  0  0  0
 30 31  1  0  0  0  0
 30 29  1  0  0  0  0
 32 30  2  0  0  0  0
M  END
>  <MODEL>
6

>  <REMARK>
 VINA RESULT:      -7.3      1.842      2.095
  Name = 
  2 active torsions:
  status: ('A' for Active; 'I' for Inactive)
    1  A    between atoms: C_20  and  C_29
    2  A    between atoms: C_29  and  C_30
                            x       y       z     vdW  Elec       q    Type
                         _______ _______ _______ _____ _____    ______ ____

>  <TORSDO>
F 2

$$$$
=
 OpenBabel11112416323D

 32 37  0  0  1  0  0  0  0  0999 V2000
  190.8810  173.6610  137.8830 C   0  0  0  0  0  2  0  0  0  0  0  0
  189.1920  174.3550  142.4170 N   0  0  0  0  0  0  0  0  0  0  0  0
  186.2840  178.3560  142.4780 C   0  0  0  0  0  3  0  0  0  0  0  0
  186.7020  178.5630  143.7270 C   0  0  0  0  0  3  0  0  0  0  0  0
  190.4340  173.6110  144.5220 C   0  0  1  0  0  3  0  0  0  0  0  0
  191.1350  174.2130  145.7370 C   0  0  1  0  0  3  0  0  0  0  0  0
  189.1990  172.9410  140.3860 C   0  0  1  0  0  3  0  0  0  0  0  0
  187.8160  174.8570  140.3340 C   0  0  0  0  0  2  0  0  0  0  0  0
  191.1580  175.9630  147.3680 C   0  0  2  0  0  3  0  0  0  0  0  0
  188.3520  173.8120  138.3040 C   0  0  0  0  0  2  0  0  0  0  0  0
  186.6810  177.1450  141.6770 C   0  0  0  0  0  2  0  0  0  0  0  0
  188.2550  175.2200  141.7300 C   0  0  0  0  0  0  0  0  0  0  0  0
  187.7090  176.2730  142.3620 C   0  0  0  0  0  0  0  0  0  0  0  0
  189.0160  175.6330  144.4640 C   0  0  0  0  0  0  0  0  0  0  0  0
  192.4350  176.0690  146.5420 C   0  0  0  0  0  2  0  0  0  0  0  0
  191.2270  172.5100  138.8400 C   0  0  0  0  0  2  0  0  0  0  0  0
  188.8810  174.1580  139.6240 N   0  0  2  0  0  0  0  0  0  0  0  0
  192.2920  175.1120  145.3690 C   0  0  0  0  0  2  0  0  0  0  0  0
  190.0310  171.9170  139.5940 C   0  0  0  0  0  2  0  0  0  0  0  0
  189.4720  173.5630  137.2770 C   0  0  1  0  0  3  0  0  0  0  0  0
  187.6120  177.6220  144.3970 C   0  0  0  0  0  3  0  0  0  0  0  0
  188.0930  176.5470  143.7670 C   0  0  0  0  0  0  0  0  0  0  0  0
  189.3600  175.8930  145.8000 O   0  0  0  0  0  0  0  0  0  0  0  0
  189.9280  173.3290  141.6680 C   0  0  0  0  0  2  0  0  0  0  0  0
  189.6910  172.4980  144.9150 O   0  0  0  0  0  1  0  0  0  0  0  0
  191.4520  175.3780  148.5990 O   0  0  0  0  0  1  0  0  0  0  0  0
  189.5390  174.5870  143.8010 C   0  0  0  0  0  0  0  0  0  0  0  0
  190.2120  175.0650  146.5940 C   0  0  1  0  0  3  0  0  0  0  0  0
  189.3230  174.5550  136.1350 C   0  0  0  0  0  2  0  0  0  0  0  0
  190.2550  174.2240  135.0200 C   0  0  0  0  0  0  0  0  0  0  0  0
  190.3030  172.9320  134.5130 O   0  0  0  0  0  0  0  0  0  0  0  0
  190.9780  175.1220  134.5170 O   0  0  0  0  0  1  0  0  0  0  0  0
  1 16  1  0  0  0  0
  2 27  1  0  0  0  0
  3  4  2  0  0  0  0
  4 21  1  0  0  0  0
  5 25  1  1  0  0  0
  5  6  1  0  0  0  0
  6 18  1  6  0  0  0
  6 28  1  0  0  0  0
  7 19  1  6  0  0  0
  7 24  1  0  0  0  0
  8 12  1  0  0  0  0
  9 26  1  1  0  0  0
 11 13  1  0  0  0  0
 11  3  1  0  0  0  0
 12 13  2  0  0  0  0
 12  2  1  0  0  0  0
 13 22  1  0  0  0  0
 14 23  1  0  0  0  0
 15  9  1  0  0  0  0
 16 19  1  0  0  0  0
 17 10  1  6  0  0  0
 17  8  1  0  0  0  0
 17  7  1  0  0  0  0
 18 15  1  0  0  0  0
 20 29  1  6  0  0  0
 20  1  1  0  0  0  0
 20 10  1  0  0  0  0
 22 21  2  0  0  0  0
 22 14  1  0  0  0  0
 24  2  1  0  0  0  0
 27 14  2  0  0  0  0
 27  5  1  0  0  0  0
 28 23  1  6  0  0  0
 28  9  1  0  0  0  0
 30 29  1  0  0  0  0
 31 30  2  0  0  0  0
 32 30  1  0  0  0  0
M  END
>  <MODEL>
7

>  <REMARK>
 VINA RESULT:      -7.3      3.348      7.424
  Name = 
  2 active torsions:
  status: ('A' for Active; 'I' for Inactive)
    1  A    between atoms: C_20  and  C_29
    2  A    between atoms: C_29  and  C_30
                            x       y       z     vdW  Elec       q    Type
                         _______ _______ _______ _____ _____    ______ ____

>  <TORSDO>
F 2

$$$$
=
 OpenBabel11112416323D

 32 37  0  0  1  0  0  0  0  0999 V2000
  190.5460  170.9640  141.7380 C   0  0  0  0  0  2  0  0  0  0  0  0
  189.8730  175.5680  143.2330 N   0  0  0  0  0  0  0  0  0  0  0  0
  191.7020  176.0840  147.8000 C   0  0  0  0  0  3  0  0  0  0  0  0
  190.7390  176.9800  148.0170 C   0  0  0  0  0  3  0  0  0  0  0  0
  187.9680  177.0610  142.4130 C   0  0  1  0  0  3  0  0  0  0  0  0
  186.7040  177.7360  142.9410 C   0  0  1  0  0  3  0  0  0  0  0  0
  191.0230  174.0270  141.6760 C   0  0  1  0  0  3  0  0  0  0  0  0
  191.9270  174.1970  143.8530 C   0  0  0  0  0  2  0  0  0  0  0  0
  185.6490  178.8460  144.7790 C   0  0  2  0  0  3  0  0  0  0  0  0
  192.5480  172.3660  142.5270 C   0  0  0  0  0  2  0  0  0  0  0  0
  191.9230  175.4340  146.4600 C   0  0  0  0  0  3  0  0  0  0  0  0
  190.8520  175.1860  144.2290 C   0  0  0  0  0  0  0  0  0  0  0  0
  190.8650  175.7780  145.4360 C   0  0  0  0  0  0  0  0  0  0  0  0
  188.8870  177.2220  144.7010 C   0  0  0  0  0  0  0  0  0  0  0  0
  184.8820  177.5580  144.4990 C   0  0  0  0  0  2  0  0  0  0  0  0
  190.0130  171.8870  140.6330 C   0  0  0  0  0  2  0  0  0  0  0  0
  191.4330  173.2530  142.8580 N   0  0  2  0  0  0  0  0  0  0  0  0
  185.6990  176.7550  143.5000 C   0  0  0  0  0  2  0  0  0  0  0  0
  190.8260  173.1680  140.4140 C   0  0  0  0  0  2  0  0  0  0  0  0
  192.0710  171.0320  141.9240 C   0  0  1  0  0  3  0  0  0  0  0  0
  189.8040  177.3730  146.9520 C   0  0  0  0  0  3  0  0  0  0  0  0
  189.8510  176.8150  145.7400 C   0  0  1  0  0  3  0  0  0  0  0  0
  187.9410  178.2160  144.9940 O   0  0  0  0  0  0  0  0  0  0  0  0
  189.7410  174.7890  141.9960 C   0  0  0  0  0  2  0  0  0  0  0  0
  188.6370  177.9310  141.5510 O   0  0  0  0  0  1  0  0  0  0  0  0
  184.9410  179.9280  144.2560 O   0  0  0  0  0  1  0  0  0  0  0  0
  188.9070  176.6110  143.5030 C   0  0  0  0  0  0  0  0  0  0  0  0
  186.9810  178.7220  144.0640 C   0  0  1  0  0  3  0  0  0  0  0  0
  192.5410  169.8920  142.8120 C   0  0  0  0  0  2  0  0  0  0  0  0
  194.0300  169.8520  142.8780 C   0  0  0  0  0  0  0  0  0  0  0  0
  194.6760  170.0000  144.0980 O   0  0  0  0  0  1  0  0  0  0  0  0
  194.7010  169.6520  141.8330 O   0  0  0  0  0  0  0  0  0  0  0  0
  1 20  1  0  0  0  0
  2 27  1  0  0  0  0
  2 12  1  0  0  0  0
  3  4  1  0  0  0  0
  5 25  1  6  0  0  0
  5  6  1  0  0  0  0
  5 27  1  0  0  0  0
  6 18  1  1  0  0  0
  6 28  1  0  0  0  0
  7 19  1  6  0  0  0
  7 24  1  0  0  0  0
  7 17  1  0  0  0  0
  8 12  1  0  0  0  0
  9 26  1  6  0  0  0
 11  3  2  0  0  0  0
 12 13  2  0  0  0  0
 13 22  1  0  0  0  0
 13 11  1  0  0  0  0
 14 23  1  0  0  0  0
 14 22  1  0  0  0  0
 15  9  1  0  0  0  0
 16  1  1  0  0  0  0
 17 10  1  6  0  0  0
 17  8  1  0  0  0  0
 18 15  1  0  0  0  0
 19 16  1  0  0  0  0
 20 10  1  0  0  0  0
 20 29  1  1  0  0  0
 21  4  2  0  0  0  0
 22 21  1  1  0  0  0
 24  2  1  0  0  0  0
 27 14  2  0  0  0  0
 28  9  1  0  0  0  0
 28 23  1  1  0  0  0
 29 30  1  0  0  0  0
 30 31  1  0  0  0  0
 32 30  2  0  0  0  0
M  END
>  <MODEL>
8

>  <REMARK>
 VINA RESULT:      -7.3      2.433      4.925
  Name = 
  2 active torsions:
  status: ('A' for Active; 'I' for Inactive)
    1  A    between atoms: C_20  and  C_29
    2  A    between atoms: C_29  and  C_30
                            x       y       z     vdW  Elec       q    Type
                         _______ _______ _______ _____ _____    ______ ____

>  <TORSDO>
F 2

$$$$
=
 OpenBabel11112416323D

 32 37  0  0  1  0  0  0  0  0999 V2000
  189.1290  171.5600  140.2120 C   0  0  0  0  0  2  0  0  0  0  0  0
  189.2810  175.5540  143.0250 N   0  0  0  0  0  0  0  0  0  0  0  0
  192.6330  174.9020  146.6030 C   0  0  0  0  0  3  0  0  0  0  0  0
  191.8610  175.6610  147.3800 C   0  0  0  0  0  3  0  0  0  0  0  0
  187.2940  177.1230  143.3670 C   0  0  1  0  0  3  0  0  0  0  0  0
  186.3370  177.5720  144.4700 C   0  0  1  0  0  3  0  0  0  0  0  0
  189.7200  174.5450  140.8090 C   0  0  1  0  0  3  0  0  0  0  0  0
  191.3430  174.1630  142.4830 C   0  0  0  0  0  2  0  0  0  0  0  0
  186.0640  178.0950  146.7880 C   0  0  2  0  0  3  0  0  0  0  0  0
  191.3540  172.7880  140.5840 C   0  0  0  0  0  2  0  0  0  0  0  0
  192.3300  174.6490  145.1510 C   0  0  0  0  0  2  0  0  0  0  0  0
  190.5270  174.9630  143.4660 C   0  0  0  0  0  0  0  0  0  0  0  0
  190.9980  175.2070  144.7010 C   0  0  0  0  0  0  0  0  0  0  0  0
  188.9700  176.7030  145.1330 C   0  0  0  0  0  0  0  0  0  0  0  0
  185.1780  176.8960  146.4650 C   0  0  0  0  0  2  0  0  0  0  0  0
  188.2900  172.7210  139.6590 C   0  0  0  0  0  2  0  0  0  0  0  0
  190.4790  173.5010  141.5140 N   0  0  2  0  0  0  0  0  0  0  0  0
  185.5440  176.4310  145.0640 C   0  0  0  0  0  2  0  0  0  0  0  0
  189.0420  174.0500  139.5180 C   0  0  0  0  0  2  0  0  0  0  0  0
  190.6220  171.6460  139.8550 C   0  0  1  0  0  3  0  0  0  0  0  0
  190.6310  176.2840  146.8640 C   0  0  0  0  0  3  0  0  0  0  0  0
  190.2160  176.0760  145.6120 C   0  0  0  0  0  0  0  0  0  0  0  0
  188.2450  177.5360  145.9980 O   0  0  0  0  0  0  0  0  0  0  0  0
  188.6780  175.1320  141.7550 C   0  0  0  0  0  2  0  0  0  0  0  0
  187.6600  178.2240  142.5910 O   0  0  0  0  0  1  0  0  0  0  0  0
  185.2760  179.2440  146.8630 O   0  0  0  0  0  1  0  0  0  0  0  0
  188.5320  176.4400  143.8890 C   0  0  0  0  0  0  0  0  0  0  0  0
  187.0470  178.2300  145.6420 C   0  0  1  0  0  3  0  0  0  0  0  0
  191.3140  170.3320  140.1770 C   0  0  0  0  0  2  0  0  0  0  0  0
  190.7430  169.2190  139.3670 C   0  0  0  0  0  0  0  0  0  0  0  0
  190.6750  169.3280  137.9850 O   0  0  0  0  0  0  0  0  0  0  0  0
  190.3500  168.1660  139.9340 O   0  0  0  0  0  1  0  0  0  0  0  0
  2 12  1  0  0  0  0
  2 27  1  0  0  0  0
  3  4  2  0  0  0  0
  5 25  1  1  0  0  0
  5 27  1  0  0  0  0
  5  6  1  0  0  0  0
  6 18  1  1  0  0  0
  6 28  1  0  0  0  0
  7 19  1  6  0  0  0
  7 17  1  0  0  0  0
  7 24  1  0  0  0  0
  8 12  1  0  0  0  0
  9 26  1  6  0  0  0
 11  3  1  0  0  0  0
 12 13  2  0  0  0  0
 13 11  1  0  0  0  0
 13 22  1  0  0  0  0
 14 22  1  0  0  0  0
 14 23  1  0  0  0  0
 15  9  1  0  0  0  0
 16  1  1  0  0  0  0
 17 10  1  6  0  0  0
 17  8  1  0  0  0  0
 18 15  1  0  0  0  0
 19 16  1  0  0  0  0
 20 29  1  1  0  0  0
 20  1  1  0  0  0  0
 20 10  1  0  0  0  0
 21  4  1  0  0  0  0
 22 21  2  0  0  0  0
 24  2  1  0  0  0  0
 27 14  2  0  0  0  0
 28 23  1  1  0  0  0
 28  9  1  0  0  0  0
 30 32  1  0  0  0  0
 30 29  1  0  0  0  0
 31 30  2  0  0  0  0
M  END
>  <MODEL>
9

>  <REMARK>
 VINA RESULT:      -7.2      3.258      6.003
  Name = 
  2 active torsions:
  status: ('A' for Active; 'I' for Inactive)
    1  A    between atoms: C_20  and  C_29
    2  A    between atoms: C_29  and  C_30
                            x       y       z     vdW  Elec       q    Type
                         _______ _______ _______ _____ _____    ______ ____

>  <TORSDO>
F 2

$$$$
