=
 OpenBabel11112416273D

 32 38  0  0  1  0  0  0  0  0999 V2000
  191.6600  174.3570  145.5610 N   0  0  2  0  0  0  0  0  0  0  0  0
  188.1280  177.4780  143.8680 C   0  0  0  0  0  0  0  0  0  0  0  0
  186.0170  178.3950  148.1760 C   0  0  0  0  0  3  0  0  0  0  0  0
  184.7740  178.4940  147.5560 C   0  0  0  0  0  3  0  0  0  0  0  0
  186.7520  177.6120  141.8230 C   0  0  1  0  0  3  0  0  0  0  0  0
  185.4210  177.8180  141.2450 C   0  0  2  0  0  3  0  0  0  0  0  0
  190.4680  176.4800  143.8860 C   0  0  1  0  0  3  0  0  0  0  0  0
  189.5010  177.4120  145.9670 C   0  0  0  0  0  3  0  0  0  0  0  0
  183.2470  178.3510  141.3110 C   0  0  0  0  0  0  0  0  0  0  0  0
  191.8060  176.6220  146.1660 C   0  0  0  0  0  2  0  0  0  0  0  0
  187.1500  178.1090  147.4160 C   0  0  0  0  0  3  0  0  0  0  0  0
  188.2060  177.6190  145.2740 C   0  0  0  0  0  0  0  0  0  0  0  0
  187.0610  177.9240  146.0240 C   0  0  0  0  0  0  0  0  0  0  0  0
  185.6900  177.8160  143.9980 C   0  0  0  0  0  0  0  0  0  0  0  0
  183.8060  178.9760  140.3290 N   0  0  0  0  0  0  0  0  0  0  0  0
  191.4300  174.1110  144.1450 C   0  0  0  0  0  2  0  0  0  0  0  0
  190.5690  176.9180  145.3440 C   0  0  0  0  0  0  0  0  0  0  0  0
  185.1710  178.6770  140.3140 N   0  0  0  0  0  2  0  0  0  0  0  0
  190.2250  174.9650  143.7030 C   0  0  0  0  0  2  0  0  0  0  0  0
  192.5680  175.5150  145.4710 C   0  0  1  0  0  3  0  0  0  0  0  0
  184.6670  178.3070  146.1780 C   0  0  0  0  0  3  0  0  0  0  0  0
  185.8030  178.0230  145.3910 C   0  0  0  0  0  0  0  0  0  0  0  0
  184.4520  177.8260  143.4430 C   0  0  0  0  0  2  0  0  0  0  0  0
  189.4340  177.3070  143.1230 C   0  0  0  0  0  2  0  0  0  0  0  0
  187.8810  177.5140  140.8470 C   0  0  0  0  0  1  0  0  0  0  0  0
  181.7880  178.4230  141.5900 C   0  0  0  0  0  1  0  0  0  0  0  0
  186.8710  177.6090  143.1940 C   0  0  0  0  0  0  0  0  0  0  0  0
  184.2130  177.4600  142.0130 C   0  0  2  0  0  3  0  0  0  0  0  0
  193.0140  174.3190  146.1660 C   0  0  2  0  0  3  0  0  0  0  0  0
  193.9840  173.5290  145.3380 C   0  0  0  0  0  0  0  0  0  0  0  0
  194.8130  174.1710  144.4270 O   0  0  0  0  0  0  0  0  0  0  0  0
  194.0780  172.2840  145.4970 O   0  0  0  0  0  1  0  0  0  0  0  0
  1 16  1  6  0  0  0
  1 29  1  0  0  0  0
  2 12  1  0  0  0  0
  4  3  1  0  0  0  0
  5 25  1  6  0  0  0
  5 27  1  0  0  0  0
  6 18  1  1  0  0  0
  6  5  1  0  0  0  0
  6 28  1  0  0  0  0
  7 24  1  1  0  0  0
  7 17  1  0  0  0  0
  9 26  1  0  0  0  0
  9 28  1  0  0  0  0
 11  3  2  0  0  0  0
 12  8  1  0  0  0  0
 12 13  2  0  0  0  0
 13 11  1  0  0  0  0
 14 22  2  0  0  0  0
 15  9  2  0  0  0  0
 17  8  2  0  0  0  0
 17 10  1  0  0  0  0
 18 15  1  0  0  0  0
 19  7  1  0  0  0  0
 19 16  1  0  0  0  0
 20  1  1  0  0  0  0
 20 10  1  1  0  0  0
 20 29  1  0  0  0  0
 21  4  2  0  0  0  0
 22 13  1  0  0  0  0
 22 21  1  0  0  0  0
 23 14  1  0  0  0  0
 24  2  1  0  0  0  0
 27  2  2  0  0  0  0
 27 14  1  0  0  0  0
 28 23  1  1  0  0  0
 29 30  1  6  0  0  0
 30 32  1  0  0  0  0
 31 30  2  0  0  0  0
M  END
>  <MODEL>
1

>  <REMARK>
 VINA RESULT:      -9.4      0.000      0.000
  Name = 
  1 active torsions:
  status: ('A' for Active; 'I' for Inactive)
    1  A    between atoms: C_29  and  C_30
                            x       y       z     vdW  Elec       q    Type
                         _______ _______ _______ _____ _____    ______ ____

>  <TORSDO>
F 1

$$$$
=
 OpenBabel11112416273D

 32 38  0  0  1  0  0  0  0  0999 V2000
  189.9510  171.6570  140.2050 N   0  0  2  0  0  0  0  0  0  0  0  0
  188.6010  175.7000  142.8330 C   0  0  0  0  0  0  0  0  0  0  0  0
  191.5760  174.9680  146.6380 C   0  0  0  0  0  3  0  0  0  0  0  0
  190.6260  175.5140  147.4970 C   0  0  0  0  0  3  0  0  0  0  0  0
  186.4830  176.9150  143.2030 C   0  0  1  0  0  3  0  0  0  0  0  0
  185.5800  177.5510  144.1660 C   0  0  2  0  0  3  0  0  0  0  0  0
  189.1090  174.4510  140.6770 C   0  0  1  0  0  3  0  0  0  0  0  0
  190.7900  174.5230  142.4950 C   0  0  0  0  0  3  0  0  0  0  0  0
  184.9940  178.3270  146.1830 C   0  0  0  0  0  0  0  0  0  0  0  0
  191.5230  173.3840  140.4580 C   0  0  0  0  0  2  0  0  0  0  0  0
  191.3030  174.8710  145.2740 C   0  0  0  0  0  3  0  0  0  0  0  0
  189.8100  175.2040  143.3750 C   0  0  0  0  0  0  0  0  0  0  0  0
  190.0790  175.3240  144.7460 C   0  0  0  0  0  0  0  0  0  0  0  0
  187.8690  176.3150  145.1060 C   0  0  0  0  0  0  0  0  0  0  0  0
  184.7280  179.2220  145.2920 N   0  0  0  0  0  0  0  0  0  0  0  0
  188.6230  172.0870  139.7900 C   0  0  0  0  0  2  0  0  0  0  0  0
  190.5050  174.1920  141.2360 C   0  0  0  0  0  0  0  0  0  0  0  0
  185.1330  178.7560  144.0390 N   0  0  0  0  0  2  0  0  0  0  0  0
  188.1750  173.2210  140.7340 C   0  0  0  0  0  2  0  0  0  0  0  0
  190.7760  172.5870  139.4110 C   0  0  1  0  0  3  0  0  0  0  0  0
  189.4050  175.9610  146.9910 C   0  0  0  0  0  3  0  0  0  0  0  0
  189.1130  175.8780  145.6140 C   0  0  0  0  0  0  0  0  0  0  0  0
  186.9320  176.7530  145.9840 C   0  0  0  0  0  2  0  0  0  0  0  0
  188.4620  175.6720  141.3270 C   0  0  0  0  0  2  0  0  0  0  0  0
  186.1240  177.0800  141.7610 C   0  0  0  0  0  1  0  0  0  0  0  0
  184.6570  178.4920  147.6230 C   0  0  0  0  0  1  0  0  0  0  0  0
  187.6170  176.3000  143.6840 C   0  0  0  0  0  0  0  0  0  0  0  0
  185.5360  177.0840  145.5650 C   0  0  2  0  0  3  0  0  0  0  0  0
  190.9620  171.1550  139.2420 C   0  0  2  0  0  3  0  0  0  0  0  0
  190.3390  170.6660  137.9690 C   0  0  0  0  0  0  0  0  0  0  0  0
  190.3000  171.4840  136.8470 O   0  0  0  0  0  0  0  0  0  0  0  0
  189.8860  169.4930  137.9010 O   0  0  0  0  0  1  0  0  0  0  0  0
  1 16  1  6  0  0  0
  2 12  2  0  0  0  0
  2 27  1  0  0  0  0
  3  4  1  0  0  0  0
  5 25  1  6  0  0  0
  5 27  1  0  0  0  0
  5  6  1  0  0  0  0
  6 18  1  1  0  0  0
  6 28  1  0  0  0  0
  7 19  1  1  0  0  0
  7 17  1  0  0  0  0
  7 24  1  0  0  0  0
  8 12  1  0  0  0  0
  9 26  1  0  0  0  0
 10 17  1  0  0  0  0
 11  3  2  0  0  0  0
 12 13  1  0  0  0  0
 13 11  1  0  0  0  0
 13 22  2  0  0  0  0
 14 22  1  0  0  0  0
 14 23  1  0  0  0  0
 15  9  2  0  0  0  0
 16 19  1  0  0  0  0
 17  8  2  0  0  0  0
 18 15  1  0  0  0  0
 20  1  1  0  0  0  0
 20 10  1  1  0  0  0
 21  4  2  0  0  0  0
 22 21  1  0  0  0  0
 24  2  1  0  0  0  0
 27 14  2  0  0  0  0
 28 23  1  1  0  0  0
 28  9  1  0  0  0  0
 29 30  1  6  0  0  0
 29 20  1  0  0  0  0
 29  1  1  0  0  0  0
 31 30  2  0  0  0  0
 32 30  1  0  0  0  0
M  END
>  <MODEL>
2

>  <REMARK>
 VINA RESULT:      -8.9      3.798      5.353
  Name = 
  1 active torsions:
  status: ('A' for Active; 'I' for Inactive)
    1  A    between atoms: C_29  and  C_30
                            x       y       z     vdW  Elec       q    Type
                         _______ _______ _______ _____ _____    ______ ____

>  <TORSDO>
F 1

$$$$
=
 OpenBabel11112416273D

 32 38  0  0  1  0  0  0  0  0999 V2000
  186.5230  176.7910  145.3910 N   0  0  2  0  0  0  0  0  0  0  0  0
  191.2880  175.6960  144.3060 C   0  0  0  0  0  0  0  0  0  0  0  0
  190.3980  173.0150  140.3200 C   0  0  0  0  0  3  0  0  0  0  0  0
  191.4840  172.1960  140.6180 C   0  0  0  0  0  3  0  0  0  0  0  0
  193.3130  175.2090  145.6320 C   0  0  1  0  0  3  0  0  0  0  0  0
  194.4850  174.3510  145.8200 C   0  0  2  0  0  3  0  0  0  0  0  0
  189.4360  177.2270  145.1390 C   0  0  1  0  0  3  0  0  0  0  0  0
  189.2740  176.1920  142.8940 C   0  0  0  0  0  3  0  0  0  0  0  0
  195.9180  172.7290  145.2440 C   0  0  0  0  0  0  0  0  0  0  0  0
  187.4570  177.7310  143.4520 C   0  0  0  0  0  2  0  0  0  0  0  0
  190.0780  174.0760  141.1660 C   0  0  0  0  0  3  0  0  0  0  0  0
  190.4960  175.3990  143.1710 C   0  0  0  0  0  0  0  0  0  0  0  0
  190.8400  174.3390  142.3190 C   0  0  0  0  0  0  0  0  0  0  0  0
  192.7050  173.7450  143.7910 C   0  0  0  0  0  0  0  0  0  0  0  0
  196.5850  173.7740  145.6070 N   0  0  0  0  0  0  0  0  0  0  0  0
  187.3370  176.9150  146.5910 C   0  0  0  0  0  2  0  0  0  0  0  0
  188.7800  177.0650  143.7700 C   0  0  0  0  0  0  0  0  0  0  0  0
  195.6910  174.8000  145.9240 N   0  0  0  0  0  2  0  0  0  0  0  0
  188.7550  176.4080  146.2590 C   0  0  0  0  0  2  0  0  0  0  0  0
  186.7980  178.0970  144.7640 C   0  0  1  0  0  3  0  0  0  0  0  0
  192.2470  172.4390  141.7600 C   0  0  0  0  0  3  0  0  0  0  0  0
  191.9420  173.5120  142.6250 C   0  0  0  0  0  0  0  0  0  0  0  0
  193.6960  172.8720  144.1000 C   0  0  0  0  0  2  0  0  0  0  0  0
  190.9360  176.9490  145.0780 C   0  0  0  0  0  2  0  0  0  0  0  0
  193.2370  176.4160  146.5130 C   0  0  0  0  0  1  0  0  0  0  0  0
  196.5680  171.4440  144.8730 C   0  0  0  0  0  1  0  0  0  0  0  0
  192.4330  174.8950  144.6210 C   0  0  0  0  0  0  0  0  0  0  0  0
  194.4510  172.9400  145.3880 C   0  0  2  0  0  3  0  0  0  0  0  0
  185.4240  177.7360  145.0730 C   0  0  2  0  0  3  0  0  0  0  0  0
  184.9260  178.4560  146.2900 C   0  0  0  0  0  0  0  0  0  0  0  0
  185.5660  179.6060  146.7370 O   0  0  0  0  0  0  0  0  0  0  0  0
  183.8970  178.0440  146.8880 O   0  0  0  0  0  1  0  0  0  0  0  0
  1 16  1  1  0  0  0
  2 27  1  0  0  0  0
  2 24  1  0  0  0  0
  3  4  2  0  0  0  0
  3 11  1  0  0  0  0
  4 21  1  0  0  0  0
  5  6  1  0  0  0  0
  5 25  1  6  0  0  0
  6 18  1  6  0  0  0
  7 24  1  6  0  0  0
  7 19  1  0  0  0  0
  8 12  1  0  0  0  0
  8 17  2  0  0  0  0
  9 28  1  0  0  0  0
  9 15  2  0  0  0  0
 10 17  1  0  0  0  0
 11 13  2  0  0  0  0
 12  2  2  0  0  0  0
 13 22  1  0  0  0  0
 13 12  1  0  0  0  0
 14 23  1  0  0  0  0
 14 27  2  0  0  0  0
 15 18  1  0  0  0  0
 17  7  1  0  0  0  0
 19 16  1  0  0  0  0
 20 10  1  6  0  0  0
 20 29  1  0  0  0  0
 20  1  1  0  0  0  0
 21 22  2  0  0  0  0
 22 14  1  0  0  0  0
 26  9  1  0  0  0  0
 27  5  1  0  0  0  0
 28 23  1  6  0  0  0
 28  6  1  0  0  0  0
 29  1  1  0  0  0  0
 29 30  1  1  0  0  0
 30 31  2  0  0  0  0
 30 32  1  0  0  0  0
M  END
>  <MODEL>
3

>  <REMARK>
 VINA RESULT:      -8.7      3.694      9.034
  Name = 
  1 active torsions:
  status: ('A' for Active; 'I' for Inactive)
    1  A    between atoms: C_29  and  C_30
                            x       y       z     vdW  Elec       q    Type
                         _______ _______ _______ _____ _____    ______ ____

>  <TORSDO>
F 1

$$$$
=
 OpenBabel11112416273D

 32 38  0  0  1  0  0  0  0  0999 V2000
  194.9470  174.2160  144.1420 N   0  0  2  0  0  0  0  0  0  0  0  0
  189.9650  174.6670  144.3600 C   0  0  0  0  0  0  0  0  0  0  0  0
  189.0860  173.9660  139.6060 C   0  0  0  0  0  3  0  0  0  0  0  0
  188.0160  174.8540  139.6640 C   0  0  0  0  0  3  0  0  0  0  0  0
  188.3920  176.0560  145.6620 C   0  0  1  0  0  3  0  0  0  0  0  0
  187.2010  176.9070  145.6490 C   0  0  2  0  0  3  0  0  0  0  0  0
  192.2270  173.9380  145.2650 C   0  0  1  0  0  3  0  0  0  0  0  0
  191.5010  173.2140  143.0100 C   0  0  0  0  0  3  0  0  0  0  0  0
  185.3920  177.8430  144.7170 C   0  0  0  0  0  0  0  0  0  0  0  0
  193.6470  172.3000  143.7440 C   0  0  0  0  0  2  0  0  0  0  0  0
  189.8370  173.7090  140.7530 C   0  0  0  0  0  3  0  0  0  0  0  0
  190.3010  174.0790  143.1180 C   0  0  0  0  0  0  0  0  0  0  0  0
  189.5270  174.3320  141.9760 C   0  0  0  0  0  0  0  0  0  0  0  0
  188.1310  175.8860  143.2530 C   0  0  0  0  0  0  0  0  0  0  0  0
  185.0690  177.3520  145.8670 N   0  0  0  0  0  0  0  0  0  0  0  0
  194.5780  174.9770  145.3270 C   0  0  0  0  0  2  0  0  0  0  0  0
  192.3900  173.1050  143.9960 C   0  0  0  0  0  0  0  0  0  0  0  0
  186.1860  176.7310  146.4300 N   0  0  0  0  0  2  0  0  0  0  0  0
  193.0590  175.2400  145.2690 C   0  0  0  0  0  2  0  0  0  0  0  0
  194.7330  172.8460  144.6460 C   0  0  1  0  0  3  0  0  0  0  0  0
  187.6980  175.4840  140.8670 C   0  0  0  0  0  3  0  0  0  0  0  0
  188.4420  175.2330  142.0400 C   0  0  0  0  0  0  0  0  0  0  0  0
  187.1420  176.8160  143.2500 C   0  0  0  0  0  2  0  0  0  0  0  0
  190.7560  174.2160  145.5680 C   0  0  0  0  0  2  0  0  0  0  0  0
  188.9520  175.7330  147.0110 C   0  0  0  0  0  1  0  0  0  0  0  0
  184.4390  178.6050  143.8660 C   0  0  0  0  0  1  0  0  0  0  0  0
  188.8470  175.5570  144.4630 C   0  0  0  0  0  0  0  0  0  0  0  0
  186.8450  177.6720  144.4380 C   0  0  2  0  0  3  0  0  0  0  0  0
  196.0460  173.2190  144.1470 C   0  0  2  0  0  3  0  0  0  0  0  0
  197.0160  173.4500  145.2670 C   0  0  0  0  0  0  0  0  0  0  0  0
  196.9320  172.6990  146.4330 O   0  0  0  0  0  1  0  0  0  0  0  0
  197.9380  174.2970  145.1360 O   0  0  0  0  0  0  0  0  0  0  0  0
  1 29  1  0  0  0  0
  1 20  1  0  0  0  0
  1 16  1  1  0  0  0
  2 27  1  0  0  0  0
  2 24  1  0  0  0  0
  3  4  2  0  0  0  0
  3 11  1  0  0  0  0
  4 21  1  0  0  0  0
  5 25  1  1  0  0  0
  6  5  1  0  0  0  0
  6 18  1  6  0  0  0
  7 19  1  6  0  0  0
  7 24  1  0  0  0  0
  8 12  1  0  0  0  0
  8 17  2  0  0  0  0
  9 15  2  0  0  0  0
 10 17  1  0  0  0  0
 11 13  2  0  0  0  0
 12  2  2  0  0  0  0
 13 22  1  0  0  0  0
 13 12  1  0  0  0  0
 14 27  2  0  0  0  0
 15 18  1  0  0  0  0
 17  7  1  0  0  0  0
 19 16  1  0  0  0  0
 20 10  1  6  0  0  0
 21 22  2  0  0  0  0
 22 14  1  0  0  0  0
 23 14  1  0  0  0  0
 26  9  1  0  0  0  0
 27  5  1  0  0  0  0
 28 23  1  6  0  0  0
 28  9  1  0  0  0  0
 28  6  1  0  0  0  0
 29 20  1  0  0  0  0
 29 30  1  1  0  0  0
 30 31  1  0  0  0  0
 32 30  2  0  0  0  0
M  END
>  <MODEL>
4

>  <REMARK>
 VINA RESULT:      -8.5      2.503      5.123
  Name = 
  1 active torsions:
  status: ('A' for Active; 'I' for Inactive)
    1  A    between atoms: C_29  and  C_30
                            x       y       z     vdW  Elec       q    Type
                         _______ _______ _______ _____ _____    ______ ____

>  <TORSDO>
F 1

$$$$
=
 OpenBabel11112416273D

 32 38  0  0  1  0  0  0  0  0999 V2000
  187.9160  177.6450  145.8450 N   0  0  2  0  0  0  0  0  0  0  0  0
  190.9980  174.5940  143.3410 C   0  0  0  0  0  0  0  0  0  0  0  0
  194.9410  175.2910  146.1380 C   0  0  0  0  0  3  0  0  0  0  0  0
  195.7660  175.1540  145.0240 C   0  0  0  0  0  3  0  0  0  0  0  0
  191.3210  174.0050  140.9640 C   0  0  1  0  0  3  0  0  0  0  0  0
  192.2660  173.7910  139.8670 C   0  0  2  0  0  3  0  0  0  0  0  0
  188.7370  175.2670  144.2940 C   0  0  1  0  0  3  0  0  0  0  0  0
  190.7190  175.1360  145.7740 C   0  0  0  0  0  3  0  0  0  0  0  0
  194.3050  173.5620  138.9680 C   0  0  0  0  0  0  0  0  0  0  0  0
  188.6200  175.6720  146.9080 C   0  0  0  0  0  2  0  0  0  0  0  0
  193.5580  175.1950  145.9920 C   0  0  0  0  0  3  0  0  0  0  0  0
  191.5830  174.8810  144.5960 C   0  0  0  0  0  0  0  0  0  0  0  0
  192.9770  174.9560  144.7320 C   0  0  0  0  0  0  0  0  0  0  0  0
  193.2430  174.6010  142.3240 C   0  0  0  0  0  0  0  0  0  0  0  0
  193.5470  172.6060  138.5450 N   0  0  0  0  0  0  0  0  0  0  0  0
  187.4310  177.4730  144.4840 C   0  0  0  0  0  2  0  0  0  0  0  0
  189.4000  175.2870  145.6690 C   0  0  0  0  0  0  0  0  0  0  0  0
  192.2880  172.7240  139.1390 N   0  0  0  0  0  2  0  0  0  0  0  0
  188.4900  176.6720  143.6990 C   0  0  0  0  0  2  0  0  0  0  0  0
  187.3800  176.4160  146.4600 C   0  0  1  0  0  3  0  0  0  0  0  0
  195.2060  174.9230  143.7680 C   0  0  0  0  0  3  0  0  0  0  0  0
  193.8100  174.8170  143.6010 C   0  0  0  0  0  0  0  0  0  0  0  0
  194.0700  174.5680  141.2490 C   0  0  0  0  0  2  0  0  0  0  0  0
  189.5010  174.3750  143.3170 C   0  0  0  0  0  2  0  0  0  0  0  0
  189.8930  173.6670  140.6750 C   0  0  0  0  0  1  0  0  0  0  0  0
  195.7050  173.7510  138.5020 C   0  0  0  0  0  1  0  0  0  0  0  0
  191.8190  174.4120  142.1810 C   0  0  0  0  0  0  0  0  0  0  0  0
  193.5580  174.5050  139.8470 C   0  0  2  0  0  3  0  0  0  0  0  0
  187.0030  177.7060  147.0130 C   0  0  2  0  0  3  0  0  0  0  0  0
  185.6060  178.0860  146.6220 C   0  0  0  0  0  0  0  0  0  0  0  0
  184.6190  177.1130  146.5130 O   0  0  0  0  0  1  0  0  0  0  0  0
  185.3130  179.2950  146.4340 O   0  0  0  0  0  0  0  0  0  0  0  0
  1 16  1  6  0  0  0
  1 20  1  0  0  0  0
  1 29  1  0  0  0  0
  2 12  1  0  0  0  0
  4  3  1  0  0  0  0
  5 25  1  1  0  0  0
  5 27  1  0  0  0  0
  6 18  1  1  0  0  0
  6  5  1  0  0  0  0
  7 24  1  6  0  0  0
  7 17  1  0  0  0  0
  9 28  1  0  0  0  0
 11  3  2  0  0  0  0
 12 13  2  0  0  0  0
 12  8  1  0  0  0  0
 13 11  1  0  0  0  0
 14 22  2  0  0  0  0
 15  9  2  0  0  0  0
 15 18  1  0  0  0  0
 17  8  2  0  0  0  0
 17 10  1  0  0  0  0
 19  7  1  0  0  0  0
 19 16  1  0  0  0  0
 20 10  1  1  0  0  0
 20 29  1  0  0  0  0
 21  4  2  0  0  0  0
 22 21  1  0  0  0  0
 22 13  1  0  0  0  0
 23 14  1  0  0  0  0
 24  2  1  0  0  0  0
 26  9  1  0  0  0  0
 27 14  1  0  0  0  0
 27  2  2  0  0  0  0
 28  6  1  0  0  0  0
 28 23  1  1  0  0  0
 29 30  1  6  0  0  0
 31 30  1  0  0  0  0
 32 30  2  0  0  0  0
M  END
>  <MODEL>
5

>  <REMARK>
 VINA RESULT:      -8.0      4.259      8.126
  Name = 
  1 active torsions:
  status: ('A' for Active; 'I' for Inactive)
    1  A    between atoms: C_29  and  C_30
                            x       y       z     vdW  Elec       q    Type
                         _______ _______ _______ _____ _____    ______ ____

>  <TORSDO>
F 1

$$$$
=
 OpenBabel11112416273D

 32 38  0  0  1  0  0  0  0  0999 V2000
  195.0280  174.1210  143.6080 N   0  0  2  0  0  0  0  0  0  0  0  0
  190.1030  174.9230  143.1870 C   0  0  0  0  0  0  0  0  0  0  0  0
  189.3580  172.0780  139.2870 C   0  0  0  0  0  3  0  0  0  0  0  0
  188.3720  172.9480  138.8290 C   0  0  0  0  0  3  0  0  0  0  0  0
  188.6130  176.8600  143.5410 C   0  0  1  0  0  3  0  0  0  0  0  0
  187.5060  177.6720  143.0300 C   0  0  2  0  0  3  0  0  0  0  0  0
  192.2500  174.5830  144.5070 C   0  0  1  0  0  3  0  0  0  0  0  0
  191.5530  172.9100  142.8190 C   0  0  0  0  0  3  0  0  0  0  0  0
  185.8300  178.1520  141.6240 C   0  0  0  0  0  0  0  0  0  0  0  0
  193.5750  172.3330  144.0680 C   0  0  0  0  0  2  0  0  0  0  0  0
  190.0350  172.3590  140.4730 C   0  0  0  0  0  3  0  0  0  0  0  0
  190.4350  173.7920  142.4060 C   0  0  0  0  0  0  0  0  0  0  0  0
  189.7340  173.5110  141.2240 C   0  0  0  0  0  0  0  0  0  0  0  0
  188.4350  175.5700  141.4910 C   0  0  0  0  0  0  0  0  0  0  0  0
  185.4160  178.2950  142.8380 N   0  0  0  0  0  0  0  0  0  0  0  0
  194.6820  175.3780  144.2540 C   0  0  0  0  0  2  0  0  0  0  0  0
  192.3870  173.2350  143.8050 C   0  0  0  0  0  0  0  0  0  0  0  0
  186.4490  177.9540  143.7160 N   0  0  0  0  0  2  0  0  0  0  0  0
  193.1980  175.6730  143.9570 C   0  0  0  0  0  2  0  0  0  0  0  0
  194.6690  173.1780  144.6840 C   0  0  1  0  0  3  0  0  0  0  0  0
  188.0650  174.0970  139.5580 C   0  0  0  0  0  3  0  0  0  0  0  0
  188.7340  174.3960  140.7640 C   0  0  0  0  0  0  0  0  0  0  0  0
  187.5370  176.4420  140.9670 C   0  0  0  0  0  2  0  0  0  0  0  0
  190.8000  175.0620  144.5230 C   0  0  0  0  0  2  0  0  0  0  0  0
  189.0850  177.1920  144.9210 C   0  0  0  0  0  1  0  0  0  0  0  0
  184.9860  178.4670  140.4400 C   0  0  0  0  0  1  0  0  0  0  0  0
  189.0680  175.8200  142.7640 C   0  0  0  0  0  0  0  0  0  0  0  0
  187.2720  177.7800  141.5770 C   0  0  2  0  0  3  0  0  0  0  0  0
  196.0300  173.1840  144.1740 C   0  0  2  0  0  3  0  0  0  0  0  0
  196.9700  173.8660  145.1230 C   0  0  0  0  0  0  0  0  0  0  0  0
  196.8060  173.7240  146.4960 O   0  0  0  0  0  1  0  0  0  0  0  0
  197.9390  174.5340  144.6760 O   0  0  0  0  0  0  0  0  0  0  0  0
  1 29  1  0  0  0  0
  1 16  1  1  0  0  0
  1 20  1  0  0  0  0
  2 24  1  0  0  0  0
  3 11  1  0  0  0  0
  4  3  2  0  0  0  0
  4 21  1  0  0  0  0
  5 25  1  1  0  0  0
  6  5  1  0  0  0  0
  6 18  1  1  0  0  0
  7 19  1  6  0  0  0
  7 24  1  0  0  0  0
  8 17  2  0  0  0  0
  9 15  2  0  0  0  0
 11 13  2  0  0  0  0
 12  8  1  0  0  0  0
 12  2  2  0  0  0  0
 13 12  1  0  0  0  0
 14 27  2  0  0  0  0
 15 18  1  0  0  0  0
 17 10  1  0  0  0  0
 17  7  1  0  0  0  0
 19 16  1  0  0  0  0
 20 10  1  6  0  0  0
 21 22  2  0  0  0  0
 22 13  1  0  0  0  0
 22 14  1  0  0  0  0
 23 14  1  0  0  0  0
 26  9  1  0  0  0  0
 27  2  1  0  0  0  0
 27  5  1  0  0  0  0
 28 23  1  6  0  0  0
 28  9  1  0  0  0  0
 28  6  1  0  0  0  0
 29 20  1  0  0  0  0
 29 30  1  1  0  0  0
 30 31  1  0  0  0  0
 32 30  2  0  0  0  0
M  END
>  <MODEL>
6

>  <REMARK>
 VINA RESULT:      -7.9      2.544      5.208
  Name = 
  1 active torsions:
  status: ('A' for Active; 'I' for Inactive)
    1  A    between atoms: C_29  and  C_30
                            x       y       z     vdW  Elec       q    Type
                         _______ _______ _______ _____ _____    ______ ____

>  <TORSDO>
F 1

$$$$
=
 OpenBabel11112416273D

 32 38  0  0  1  0  0  0  0  0999 V2000
  187.0530  178.4560  145.2010 N   0  0  2  0  0  0  0  0  0  0  0  0
  190.4700  175.1610  143.6070 C   0  0  0  0  0  0  0  0  0  0  0  0
  194.1160  176.6180  146.5130 C   0  0  0  0  0  3  0  0  0  0  0  0
  195.0420  176.3150  145.5180 C   0  0  0  0  0  3  0  0  0  0  0  0
  191.0280  174.1390  141.4290 C   0  0  1  0  0  3  0  0  0  0  0  0
  192.0760  173.7700  140.4750 C   0  0  2  0  0  3  0  0  0  0  0  0
  188.1070  175.8730  144.2240 C   0  0  1  0  0  3  0  0  0  0  0  0
  189.9530  176.1490  145.8540 C   0  0  0  0  0  3  0  0  0  0  0  0
  194.1940  173.4900  139.8040 C   0  0  0  0  0  0  0  0  0  0  0  0
  187.7400  176.7730  146.6880 C   0  0  0  0  0  2  0  0  0  0  0  0
  192.7560  176.4160  146.2790 C   0  0  0  0  0  3  0  0  0  0  0  0
  190.9280  175.7200  144.8230 C   0  0  0  0  0  0  0  0  0  0  0  0
  192.3000  175.9020  145.0510 C   0  0  0  0  0  0  0  0  0  0  0  0
  192.7950  175.1000  142.7910 C   0  0  0  0  0  0  0  0  0  0  0  0
  193.5170  172.4270  139.5210 N   0  0  0  0  0  0  0  0  0  0  0  0
  186.6990  177.9940  143.8670 C   0  0  0  0  0  2  0  0  0  0  0  0
  188.6430  176.2000  145.6160 C   0  0  0  0  0  0  0  0  0  0  0  0
  192.2060  172.5850  139.9780 N   0  0  0  0  0  2  0  0  0  0  0  0
  187.8560  177.1180  143.3440 C   0  0  0  0  0  2  0  0  0  0  0  0
  186.5160  177.3420  146.0040 C   0  0  1  0  0  3  0  0  0  0  0  0
  194.6060  175.8110  144.2920 C   0  0  0  0  0  3  0  0  0  0  0  0
  193.2350  175.5930  144.0390 C   0  0  0  0  0  0  0  0  0  0  0  0
  193.7150  174.9060  141.8130 C   0  0  0  0  0  2  0  0  0  0  0  0
  188.9910  174.8540  143.5080 C   0  0  0  0  0  2  0  0  0  0  0  0
  189.6460  173.6680  141.1000 C   0  0  0  0  0  1  0  0  0  0  0  0
  195.6210  173.6650  139.4220 C   0  0  0  0  0  1  0  0  0  0  0  0
  191.3980  174.8040  142.5760 C   0  0  0  0  0  0  0  0  0  0  0  0
  193.3330  174.5410  140.4150 C   0  0  2  0  0  3  0  0  0  0  0  0
  186.0380  178.6910  146.2570 C   0  0  2  0  0  3  0  0  0  0  0  0
  184.6660  178.9050  145.6890 C   0  0  0  0  0  0  0  0  0  0  0  0
  184.4730  179.7930  144.6380 O   0  0  0  0  0  0  0  0  0  0  0  0
  183.6910  178.2460  146.1360 O   0  0  0  0  0  1  0  0  0  0  0  0
  1 16  1  6  0  0  0
  1 20  1  0  0  0  0
  1 29  1  0  0  0  0
  2 12  1  0  0  0  0
  4  3  1  0  0  0  0
  5 25  1  1  0  0  0
  5 27  1  0  0  0  0
  6 18  1  1  0  0  0
  6  5  1  0  0  0  0
  7 19  1  6  0  0  0
  7 17  1  0  0  0  0
  9 28  1  0  0  0  0
 11  3  2  0  0  0  0
 12 13  2  0  0  0  0
 12  8  1  0  0  0  0
 13 11  1  0  0  0  0
 14 22  2  0  0  0  0
 15  9  2  0  0  0  0
 15 18  1  0  0  0  0
 17  8  2  0  0  0  0
 17 10  1  0  0  0  0
 19 16  1  0  0  0  0
 20 29  1  0  0  0  0
 20 10  1  1  0  0  0
 21  4  2  0  0  0  0
 22 21  1  0  0  0  0
 22 13  1  0  0  0  0
 23 14  1  0  0  0  0
 24  2  1  0  0  0  0
 24  7  1  0  0  0  0
 26  9  1  0  0  0  0
 27 14  1  0  0  0  0
 27  2  2  0  0  0  0
 28  6  1  0  0  0  0
 28 23  1  1  0  0  0
 29 30  1  6  0  0  0
 30 32  1  0  0  0  0
 31 30  2  0  0  0  0
M  END
>  <MODEL>
7

>  <REMARK>
 VINA RESULT:      -7.9      4.161      8.010
  Name = 
  1 active torsions:
  status: ('A' for Active; 'I' for Inactive)
    1  A    between atoms: C_29  and  C_30
                            x       y       z     vdW  Elec       q    Type
                         _______ _______ _______ _____ _____    ______ ____

>  <TORSDO>
F 1

$$$$
=
 OpenBabel11112416273D

 32 38  0  0  1  0  0  0  0  0999 V2000
  192.0030  170.9710  142.4990 N   0  0  2  0  0  0  0  0  0  0  0  0
  189.6880  175.3690  143.1120 C   0  0  0  0  0  0  0  0  0  0  0  0
  191.6150  176.4650  147.4650 C   0  0  0  0  0  3  0  0  0  0  0  0
  190.4320  177.0970  147.8390 C   0  0  0  0  0  3  0  0  0  0  0  0
  187.4550  176.2610  142.5470 C   0  0  1  0  0  3  0  0  0  0  0  0
  186.2840  177.0190  142.9920 C   0  0  2  0  0  3  0  0  0  0  0  0
  190.8410  173.5770  141.7240 C   0  0  1  0  0  3  0  0  0  0  0  0
  191.9780  174.5360  143.7060 C   0  0  0  0  0  3  0  0  0  0  0  0
  185.1300  178.3130  144.4100 C   0  0  0  0  0  0  0  0  0  0  0  0
  193.3080  172.9240  142.4350 C   0  0  0  0  0  2  0  0  0  0  0  0
  191.7170  175.8740  146.2060 C   0  0  0  0  0  3  0  0  0  0  0  0
  190.7500  175.2950  144.0430 C   0  0  0  0  0  0  0  0  0  0  0  0
  190.6410  175.9100  145.3000 C   0  0  0  0  0  0  0  0  0  0  0  0
  188.3400  176.5740  144.7880 C   0  0  0  0  0  0  0  0  0  0  0  0
  185.0330  178.8010  143.2180 N   0  0  0  0  0  0  0  0  0  0  0  0
  190.7990  171.0070  141.6810 C   0  0  0  0  0  2  0  0  0  0  0  0
  192.0590  173.7600  142.6260 C   0  0  0  0  0  0  0  0  0  0  0  0
  185.7890  178.0190  142.3410 N   0  0  0  0  0  2  0  0  0  0  0  0
  190.0280  172.2980  142.0250 C   0  0  0  0  0  2  0  0  0  0  0  0
  192.9280  171.7080  141.6180 C   0  0  1  0  0  3  0  0  0  0  0  0
  189.3540  177.1360  146.9550 C   0  0  0  0  0  3  0  0  0  0  0  0
  189.4400  176.5500  145.6750 C   0  0  0  0  0  0  0  0  0  0  0  0
  187.1740  177.1150  145.2210 C   0  0  0  0  0  2  0  0  0  0  0  0
  189.9500  174.8170  141.7280 C   0  0  0  0  0  2  0  0  0  0  0  0
  187.4740  175.8710  141.1030 C   0  0  0  0  0  1  0  0  0  0  0  0
  184.4150  178.8900  145.5810 C   0  0  0  0  0  1  0  0  0  0  0  0
  188.4700  176.0440  143.4510 C   0  0  0  0  0  0  0  0  0  0  0  0
  185.9130  177.0460  144.4200 C   0  0  2  0  0  3  0  0  0  0  0  0
  193.2680  170.3560  142.0280 C   0  0  2  0  0  3  0  0  0  0  0  0
  193.0410  169.3710  140.9200 C   0  0  0  0  0  0  0  0  0  0  0  0
  193.1870  169.7600  139.5940 O   0  0  0  0  0  0  0  0  0  0  0  0
  192.7570  168.1740  141.1900 O   0  0  0  0  0  1  0  0  0  0  0  0
  1 16  1  6  0  0  0
  2 27  2  0  0  0  0
  2 12  1  0  0  0  0
  3  4  1  0  0  0  0
  5 25  1  6  0  0  0
  5  6  1  0  0  0  0
  5 27  1  0  0  0  0
  6 18  1  1  0  0  0
  6 28  1  0  0  0  0
  7 24  1  1  0  0  0
  7 19  1  0  0  0  0
  7 17  1  0  0  0  0
  8 12  1  0  0  0  0
  9 28  1  0  0  0  0
  9 26  1  0  0  0  0
 10 17  1  0  0  0  0
 11  3  2  0  0  0  0
 12 13  2  0  0  0  0
 13 22  1  0  0  0  0
 13 11  1  0  0  0  0
 14 23  1  0  0  0  0
 14 22  2  0  0  0  0
 15  9  2  0  0  0  0
 16 19  1  0  0  0  0
 17  8  2  0  0  0  0
 18 15  1  0  0  0  0
 20 29  1  0  0  0  0
 20 10  1  1  0  0  0
 20  1  1  0  0  0  0
 21  4  2  0  0  0  0
 22 21  1  0  0  0  0
 24  2  1  0  0  0  0
 27 14  1  0  0  0  0
 28 23  1  1  0  0  0
 29 30  1  6  0  0  0
 29  1  1  0  0  0  0
 30 32  1  0  0  0  0
 31 30  2  0  0  0  0
M  END
>  <MODEL>
8

>  <REMARK>
 VINA RESULT:      -7.9      2.834      4.295
  Name = 
  1 active torsions:
  status: ('A' for Active; 'I' for Inactive)
    1  A    between atoms: C_29  and  C_30
                            x       y       z     vdW  Elec       q    Type
                         _______ _______ _______ _____ _____    ______ ____

>  <TORSDO>
F 1

$$$$
=
 OpenBabel11112416273D

 32 38  0  0  1  0  0  0  0  0999 V2000
  186.5710  177.0050  145.6490 N   0  0  2  0  0  0  0  0  0  0  0  0
  190.9200  175.9510  143.4020 C   0  0  0  0  0  0  0  0  0  0  0  0
  189.1080  173.0610  139.9050 C   0  0  0  0  0  3  0  0  0  0  0  0
  190.2600  172.2780  139.9430 C   0  0  0  0  0  3  0  0  0  0  0  0
  193.2360  175.5700  144.1710 C   0  0  1  0  0  3  0  0  0  0  0  0
  194.4420  174.7450  144.0820 C   0  0  2  0  0  3  0  0  0  0  0  0
  189.3020  177.4850  144.6250 C   0  0  1  0  0  3  0  0  0  0  0  0
  188.5930  176.3380  142.5470 C   0  0  0  0  0  3  0  0  0  0  0  0
  195.7270  173.1250  143.2210 C   0  0  0  0  0  0  0  0  0  0  0  0
  186.9370  177.8670  143.4950 C   0  0  0  0  0  2  0  0  0  0  0  0
  188.9860  174.1560  140.7600 C   0  0  0  0  0  3  0  0  0  0  0  0
  189.8700  175.5840  142.5280 C   0  0  0  0  0  0  0  0  0  0  0  0
  190.0140  174.4900  141.6610 C   0  0  0  0  0  0  0  0  0  0  0  0
  192.2150  174.0060  142.6180 C   0  0  0  0  0  0  0  0  0  0  0  0
  196.4320  174.1990  143.3510 N   0  0  0  0  0  0  0  0  0  0  0  0
  187.6650  177.2040  146.5880 C   0  0  0  0  0  2  0  0  0  0  0  0
  188.3170  177.2430  143.4840 C   0  0  0  0  0  0  0  0  0  0  0  0
  195.6200  175.2220  143.8480 N   0  0  0  0  0  2  0  0  0  0  0  0
  188.9630  176.7090  145.9180 C   0  0  0  0  0  2  0  0  0  0  0  0
  186.6310  178.2840  144.9180 C   0  0  1  0  0  3  0  0  0  0  0  0
  191.2850  172.5930  140.8350 C   0  0  0  0  0  3  0  0  0  0  0  0
  191.1830  173.7000  141.7020 C   0  0  0  0  0  0  0  0  0  0  0  0
  193.2800  173.1680  142.6930 C   0  0  0  0  0  2  0  0  0  0  0  0
  190.7420  177.2330  144.1860 C   0  0  0  0  0  2  0  0  0  0  0  0
  193.3530  176.8170  144.9890 C   0  0  0  0  0  1  0  0  0  0  0  0
  196.2980  171.8360  142.7470 C   0  0  0  0  0  1  0  0  0  0  0  0
  192.1330  175.1890  143.4400 C   0  0  0  0  0  0  0  0  0  0  0  0
  194.3420  173.3140  143.7340 C   0  0  2  0  0  3  0  0  0  0  0  0
  185.3980  177.9110  145.5900 C   0  0  2  0  0  3  0  0  0  0  0  0
  185.2110  178.6810  146.8640 C   0  0  0  0  0  0  0  0  0  0  0  0
  184.4400  178.1560  147.8940 O   0  0  0  0  0  1  0  0  0  0  0  0
  185.7890  179.7880  147.0190 O   0  0  0  0  0  0  0  0  0  0  0  0
  1 16  1  1  0  0  0
  2 27  1  0  0  0  0
  2 24  1  0  0  0  0
  3  4  2  0  0  0  0
  3 11  1  0  0  0  0
  4 21  1  0  0  0  0
  5 25  1  6  0  0  0
  6 18  1  6  0  0  0
  6  5  1  0  0  0  0
  7 24  1  6  0  0  0
  7 19  1  0  0  0  0
  8 17  2  0  0  0  0
  9 15  2  0  0  0  0
  9 28  1  0  0  0  0
 11 13  2  0  0  0  0
 12  8  1  0  0  0  0
 12  2  2  0  0  0  0
 13 22  1  0  0  0  0
 13 12  1  0  0  0  0
 14 23  1  0  0  0  0
 14 27  2  0  0  0  0
 15 18  1  0  0  0  0
 17 10  1  0  0  0  0
 17  7  1  0  0  0  0
 19 16  1  0  0  0  0
 20 10  1  6  0  0  0
 20 29  1  0  0  0  0
 20  1  1  0  0  0  0
 21 22  2  0  0  0  0
 22 14  1  0  0  0  0
 26  9  1  0  0  0  0
 27  5  1  0  0  0  0
 28 23  1  6  0  0  0
 28  6  1  0  0  0  0
 29  1  1  0  0  0  0
 29 30  1  1  0  0  0
 30 32  2  0  0  0  0
 30 31  1  0  0  0  0
M  END
>  <MODEL>
9

>  <REMARK>
 VINA RESULT:      -7.9      3.809      8.702
  Name = 
  1 active torsions:
  status: ('A' for Active; 'I' for Inactive)
    1  A    between atoms: C_29  and  C_30
                            x       y       z     vdW  Elec       q    Type
                         _______ _______ _______ _____ _____    ______ ____

>  <TORSDO>
F 1

$$$$
