=
 OpenBabel11112417183D

 37 44  0  0  1  0  0  0  0  0999 V2000
  190.8440  173.1200  141.3690 C   0  0  0  0  0  2  0  0  0  0  0  0
  195.0310  173.5400  143.0620 C   0  0  0  0  0  0  0  0  0  0  0  0
  192.0120  175.7080  145.1950 C   0  0  0  0  0  0  0  0  0  0  0  0
  190.4120  172.9370  139.9810 N   0  0  0  0  0  0  0  0  0  0  0  0
  188.4380  175.5130  143.7920 O   0  0  0  0  0  0  0  0  0  0  0  0
  194.4500  175.1820  145.0460 C   0  0  0  0  0  0  0  0  0  0  0  0
  190.9920  175.7060  144.0730 C   0  0  0  0  0  0  0  0  0  0  0  0
  188.1850  173.3380  140.7410 C   0  0  0  0  0  0  0  0  0  0  0  0
  193.0640  175.1020  144.5770 C   0  0  0  0  0  0  0  0  0  0  0  0
  189.5520  176.2330  144.3280 C   0  0  2  0  0  3  0  0  0  0  0  0
  194.7290  175.5540  146.4140 C   0  0  0  0  0  3  0  0  0  0  0  0
  189.0930  173.3680  139.5780 C   0  0  0  0  0  2  0  0  0  0  0  0
  192.6720  174.5120  143.4130 C   0  0  0  0  0  0  0  0  0  0  0  0
  194.6910  172.2190  143.5740 C   0  0  0  0  0  1  0  0  0  0  0  0
  191.2150  177.0620  147.3660 C   0  0  0  0  0  2  0  0  0  0  0  0
  193.6670  176.2850  147.0710 C   0  0  0  0  0  3  0  0  0  0  0  0
  193.7540  174.0890  142.4290 C   0  0  0  0  0  2  0  0  0  0  0  0
  188.1070  174.6310  141.4030 C   0  0  1  0  0  3  0  0  0  0  0  0
  188.6750  174.5120  142.8290 C   0  0  1  0  0  3  0  0  0  0  0  0
  192.3400  176.3970  146.5250 C   0  0  0  0  0  0  0  0  0  0  0  0
  191.3790  174.7840  143.0480 N   0  0  0  0  0  0  0  0  0  0  0  0
  195.5310  174.6210  144.1540 C   0  0  0  0  0  2  0  0  0  0  0  0
  189.1910  176.5870  145.7600 C   0  0  1  0  0  3  0  0  0  0  0  0
  196.0290  173.1240  142.0530 C   0  0  0  0  0  1  0  0  0  0  0  0
  189.4450  175.1690  141.6810 C   0  0  1  0  0  3  0  0  0  0  0  0
  187.4410  172.4510  141.1350 O   0  0  0  0  0  0  0  0  0  0  0  0
  190.8420  174.5960  141.7030 C   0  0  2  0  0  3  0  0  0  0  0  0
  190.1110  177.5200  146.4110 C   0  0  0  0  0  2  0  0  0  0  0  0
  192.5090  172.7270  139.1620 O   0  0  0  0  0  0  0  0  0  0  0  0
  191.2630  172.7310  138.9610 C   0  0  0  0  0  3  0  0  0  0  0  0
  186.8720  176.4140  146.6410 C   0  0  0  0  0  3  0  0  0  0  0  0
  187.8080  177.1110  145.8900 C   0  0  0  0  0  0  0  0  0  0  0  0
  187.3040  178.0970  144.9970 C   0  0  0  0  0  3  0  0  0  0  0  0
  185.3400  179.8050  144.0790 Cl  0  0  0  0  0  0  0  0  0  0  0  0
  185.1010  177.8350  145.9470 C   0  0  0  0  0  3  0  0  0  0  0  0
  185.9680  178.4720  145.0600 C   0  0  0  0  0  0  0  0  0  0  0  0
  185.5730  176.7760  146.6750 N   0  0  0  0  0  0  0  0  0  0  0  0
  1 27  1  0  0  0  0
  2 14  1  0  0  0  0
  2 22  1  0  0  0  0
  3 20  1  0  0  0  0
  4  1  1  0  0  0  0
  6 11  2  0  0  0  0
  7 10  1  0  0  0  0
  7  3  2  0  0  0  0
  8 26  2  0  0  0  0
  9  6  1  0  0  0  0
  9  3  1  0  0  0  0
 10  5  1  1  0  0  0
 10 23  1  0  0  0  0
 11 16  1  0  0  0  0
 12  4  1  0  0  0  0
 12  8  1  0  0  0  0
 13  9  2  0  0  0  0
 17  2  1  0  0  0  0
 17 13  1  0  0  0  0
 18  8  1  6  0  0  0
 18 25  1  0  0  0  0
 18 19  1  0  0  0  0
 19  5  1  1  0  0  0
 20 16  2  0  0  0  0
 20 15  1  0  0  0  0
 21 13  1  0  0  0  0
 21  7  1  0  0  0  0
 22  6  1  0  0  0  0
 23 32  1  6  0  0  0
 23 28  1  0  0  0  0
 24  2  1  0  0  0  0
 25 27  1  0  0  0  0
 25 19  1  0  0  0  0
 27 21  1  0  0  0  0
 28 15  1  0  0  0  0
 30 29  2  0  0  0  0
 30  4  1  0  0  0  0
 31 37  1  0  0  0  0
 32 31  2  0  0  0  0
 33 36  2  0  0  0  0
 33 32  1  0  0  0  0
 34 36  1  0  0  0  0
 35 37  2  0  0  0  0
 36 35  1  0  0  0  0
M  END
>  <MODEL>
1

>  <REMARK>
 VINA RESULT:      -9.1      0.000      0.000
  Name = 
  1 active torsions:
  status: ('A' for Active; 'I' for Inactive)
    1  A    between atoms: C_23  and  C_30
                            x       y       z     vdW  Elec       q    Type
                         _______ _______ _______ _____ _____    ______ ____

>  <TORSDO>
F 1

$$$$
=
 OpenBabel11112417183D

 37 44  0  0  1  0  0  0  0  0999 V2000
  189.8680  174.6380  143.3060 C   0  0  0  0  0  2  0  0  0  0  0  0
  190.9670  176.4860  147.3000 C   0  0  0  0  0  0  0  0  0  0  0  0
  187.2480  177.8460  145.6620 C   0  0  0  0  0  0  0  0  0  0  0  0
  190.7360  174.1880  142.2150 N   0  0  0  0  0  0  0  0  0  0  0  0
  186.2600  176.4280  142.2290 O   0  0  0  0  0  0  0  0  0  0  0  0
  188.8720  178.0720  147.5480 C   0  0  0  0  0  0  0  0  0  0  0  0
  187.5360  177.4160  144.2370 C   0  0  0  0  0  0  0  0  0  0  0  0
  188.7640  173.9710  140.8890 C   0  0  0  0  0  0  0  0  0  0  0  0
  188.4290  177.5260  146.2620 C   0  0  0  0  0  0  0  0  0  0  0  0
  186.4210  177.5040  143.1560 C   0  0  2  0  0  3  0  0  0  0  0  0
  187.9090  178.6530  148.4560 C   0  0  0  0  0  3  0  0  0  0  0  0
  190.2280  174.1530  140.8630 C   0  0  0  0  0  2  0  0  0  0  0  0
  189.1840  176.7270  145.4580 C   0  0  0  0  0  0  0  0  0  0  0  0
  190.4920  175.1850  147.7550 C   0  0  0  0  0  1  0  0  0  0  0  0
  184.9040  179.1140  145.9480 C   0  0  0  0  0  2  0  0  0  0  0  0
  186.6790  179.0920  147.8330 C   0  0  0  0  0  3  0  0  0  0  0  0
  190.6550  176.5510  145.8070 C   0  0  0  0  0  2  0  0  0  0  0  0
  188.0570  175.2420  140.8310 C   0  0  1  0  0  3  0  0  0  0  0  0
  187.2710  175.4510  142.1370 C   0  0  1  0  0  3  0  0  0  0  0  0
  186.3130  178.7380  146.4880 C   0  0  0  0  0  0  0  0  0  0  0  0
  188.6770  176.5530  144.1960 N   0  0  0  0  0  0  0  0  0  0  0  0
  190.2840  177.7760  147.9930 C   0  0  0  0  0  2  0  0  0  0  0  0
  185.0290  177.8810  143.6320 C   0  0  1  0  0  3  0  0  0  0  0  0
  192.4070  176.2890  147.5700 C   0  0  0  0  0  1  0  0  0  0  0  0
  188.5770  176.1860  141.8270 C   0  0  1  0  0  3  0  0  0  0  0  0
  188.0980  172.9460  140.8390 O   0  0  0  0  0  0  0  0  0  0  0  0
  189.4490  176.0700  143.0540 C   0  0  2  0  0  3  0  0  0  0  0  0
  184.9620  179.1130  144.4190 C   0  0  0  0  0  2  0  0  0  0  0  0
  192.6580  174.5400  143.3520 O   0  0  0  0  0  0  0  0  0  0  0  0
  192.0760  174.1430  142.3050 C   0  0  0  0  0  3  0  0  0  0  0  0
  184.4930  177.9790  141.2060 C   0  0  0  0  0  3  0  0  0  0  0  0
  184.0490  177.9700  142.5200 C   0  0  0  0  0  0  0  0  0  0  0  0
  182.7120  178.4020  142.7460 C   0  0  0  0  0  3  0  0  0  0  0  0
  180.1450  178.9810  141.9140 Cl  0  0  0  0  0  0  0  0  0  0  0  0
  182.3220  178.4480  140.3650 C   0  0  0  0  0  3  0  0  0  0  0  0
  181.8560  178.6000  141.6700 C   0  0  0  0  0  0  0  0  0  0  0  0
  183.6550  178.1970  140.1710 N   0  0  0  0  0  0  0  0  0  0  0  0
  2 24  1  0  0  0  0
  2 14  1  0  0  0  0
  2 22  1  0  0  0  0
  3  9  1  0  0  0  0
  3 20  1  0  0  0  0
  4 30  1  0  0  0  0
  4  1  1  0  0  0  0
  6 22  1  0  0  0  0
  6 11  2  0  0  0  0
  7  3  2  0  0  0  0
  9  6  1  0  0  0  0
 10  5  1  1  0  0  0
 10 23  1  0  0  0  0
 10  7  1  0  0  0  0
 12  8  1  0  0  0  0
 12  4  1  0  0  0  0
 13 17  1  0  0  0  0
 13  9  2  0  0  0  0
 15 20  1  0  0  0  0
 16 11  1  0  0  0  0
 17  2  1  0  0  0  0
 18  8  1  1  0  0  0
 18 25  1  0  0  0  0
 18 19  1  0  0  0  0
 19  5  1  6  0  0  0
 20 16  2  0  0  0  0
 21  7  1  0  0  0  0
 21 13  1  0  0  0  0
 23 32  1  6  0  0  0
 23 28  1  0  0  0  0
 25 19  1  0  0  0  0
 25 27  1  0  0  0  0
 26  8  2  0  0  0  0
 27  1  1  0  0  0  0
 27 21  1  0  0  0  0
 28 15  1  0  0  0  0
 30 29  2  0  0  0  0
 31 32  1  0  0  0  0
 32 33  2  0  0  0  0
 35 36  2  0  0  0  0
 36 34  1  0  0  0  0
 36 33  1  0  0  0  0
 37 35  1  0  0  0  0
 37 31  2  0  0  0  0
M  END
>  <MODEL>
2

>  <REMARK>
 VINA RESULT:      -9.1      2.775      5.087
  Name = 
  1 active torsions:
  status: ('A' for Active; 'I' for Inactive)
    1  A    between atoms: C_23  and  C_30
                            x       y       z     vdW  Elec       q    Type
                         _______ _______ _______ _____ _____    ______ ____

>  <TORSDO>
F 1

$$$$
=
 OpenBabel11112417183D

 37 44  0  0  1  0  0  0  0  0999 V2000
  189.7500  175.6100  145.2790 C   0  0  0  0  0  2  0  0  0  0  0  0
  186.6000  178.2440  147.2060 C   0  0  0  0  0  0  0  0  0  0  0  0
  186.1140  177.6670  142.9880 C   0  0  0  0  0  0  0  0  0  0  0  0
  191.1630  175.4360  145.6260 N   0  0  0  0  0  0  0  0  0  0  0  0
  188.7840  175.5360  141.2240 O   0  0  0  0  0  0  0  0  0  0  0  0
  185.2210  178.8020  145.0260 C   0  0  0  0  0  0  0  0  0  0  0  0
  187.5390  177.2220  142.7230 C   0  0  0  0  0  0  0  0  0  0  0  0
  191.4010  174.2320  143.5800 C   0  0  0  0  0  0  0  0  0  0  0  0
  186.1870  177.9610  144.3170 C   0  0  0  0  0  0  0  0  0  0  0  0
  187.9400  176.6870  141.3190 C   0  0  2  0  0  3  0  0  0  0  0  0
  183.9090  179.0280  144.4630 C   0  0  0  0  0  3  0  0  0  0  0  0
  192.1040  175.0160  144.6140 C   0  0  0  0  0  2  0  0  0  0  0  0
  187.3310  177.4630  144.8630 C   0  0  0  0  0  0  0  0  0  0  0  0
  186.1110  176.9340  147.6190 C   0  0  0  0  0  1  0  0  0  0  0  0
  184.6150  177.8390  140.7730 C   0  0  0  0  0  2  0  0  0  0  0  0
  183.8190  178.8180  143.0340 C   0  0  0  0  0  3  0  0  0  0  0  0
  187.7480  177.9780  146.2340 C   0  0  0  0  0  2  0  0  0  0  0  0
  190.9840  175.0610  142.4590 C   0  0  1  0  0  3  0  0  0  0  0  0
  189.4470  175.0810  142.3800 C   0  0  1  0  0  3  0  0  0  0  0  0
  184.8550  178.1720  142.2720 C   0  0  0  0  0  0  0  0  0  0  0  0
  188.2080  176.9300  143.9540 N   0  0  0  0  0  0  0  0  0  0  0  0
  185.5370  179.1960  146.4490 C   0  0  0  0  0  2  0  0  0  0  0  0
  186.8220  176.4920  140.3110 C   0  0  1  0  0  3  0  0  0  0  0  0
  187.0740  178.7160  148.5250 C   0  0  0  0  0  1  0  0  0  0  0  0
  190.2650  176.2560  142.9200 C   0  0  1  0  0  3  0  0  0  0  0  0
  191.2310  173.0240  143.4880 O   0  0  0  0  0  0  0  0  0  0  0  0
  189.6230  176.6810  144.2180 C   0  0  2  0  0  3  0  0  0  0  0  0
  185.9770  177.6670  140.0970 C   0  0  0  0  0  2  0  0  0  0  0  0
  191.0530  176.7170  147.4870 O   0  0  0  0  0  0  0  0  0  0  0  0
  191.7290  175.9800  146.7170 C   0  0  0  0  0  3  0  0  0  0  0  0
  186.8660  176.6130  137.8270 C   0  0  0  0  0  3  0  0  0  0  0  0
  187.3150  176.0120  138.9950 C   0  0  0  0  0  0  0  0  0  0  0  0
  187.9450  174.7440  138.8590 C   0  0  0  0  0  3  0  0  0  0  0  0
  189.2040  172.7710  137.3960 Cl  0  0  0  0  0  0  0  0  0  0  0  0
  187.9310  174.9910  136.4590 C   0  0  0  0  0  3  0  0  0  0  0  0
  188.2780  174.2660  137.5980 C   0  0  0  0  0  0  0  0  0  0  0  0
  187.1780  176.1250  136.6090 N   0  0  0  0  0  0  0  0  0  0  0  0
  1  4  1  0  0  0  0
  2 14  1  0  0  0  0
  2 24  1  0  0  0  0
  3  9  1  0  0  0  0
  4 30  1  0  0  0  0
  6 22  1  0  0  0  0
  7  3  2  0  0  0  0
  7 21  1  0  0  0  0
  8 12  1  0  0  0  0
  9 13  2  0  0  0  0
  9  6  1  0  0  0  0
 10  5  1  1  0  0  0
 10  7  1  0  0  0  0
 11  6  2  0  0  0  0
 12  4  1  0  0  0  0
 13 17  1  0  0  0  0
 15 20  1  0  0  0  0
 16 11  1  0  0  0  0
 17  2  1  0  0  0  0
 18 25  1  0  0  0  0
 18  8  1  1  0  0  0
 19  5  1  6  0  0  0
 19 18  1  0  0  0  0
 19 25  1  0  0  0  0
 20  3  1  0  0  0  0
 20 16  2  0  0  0  0
 21 27  1  0  0  0  0
 21 13  1  0  0  0  0
 22  2  1  0  0  0  0
 23 32  1  6  0  0  0
 23 10  1  0  0  0  0
 25 27  1  0  0  0  0
 26  8  2  0  0  0  0
 27  1  1  0  0  0  0
 28 23  1  0  0  0  0
 28 15  1  0  0  0  0
 30 29  2  0  0  0  0
 31 32  1  0  0  0  0
 33 32  2  0  0  0  0
 34 36  1  0  0  0  0
 35 37  1  0  0  0  0
 35 36  2  0  0  0  0
 36 33  1  0  0  0  0
 37 31  2  0  0  0  0
M  END
>  <MODEL>
3

>  <REMARK>
 VINA RESULT:      -8.9      3.131      7.817
  Name = 
  1 active torsions:
  status: ('A' for Active; 'I' for Inactive)
    1  A    between atoms: C_23  and  C_30
                            x       y       z     vdW  Elec       q    Type
                         _______ _______ _______ _____ _____    ______ ____

>  <TORSDO>
F 1

$$$$
=
 OpenBabel11112417183D

 37 44  0  0  1  0  0  0  0  0999 V2000
  194.6620  175.0270  143.7310 C   0  0  0  0  0  2  0  0  0  0  0  0
  194.0270  172.8440  139.8060 C   0  0  0  0  0  0  0  0  0  0  0  0
  190.4630  174.4550  141.5550 C   0  0  0  0  0  0  0  0  0  0  0  0
  195.6460  174.7800  144.7890 N   0  0  0  0  0  0  0  0  0  0  0  0
  190.8600  176.2380  144.9370 O   0  0  0  0  0  0  0  0  0  0  0  0
  191.4080  173.1320  139.6580 C   0  0  0  0  0  0  0  0  0  0  0  0
  191.0250  174.6000  142.9560 C   0  0  0  0  0  0  0  0  0  0  0  0
  194.4180  176.3230  146.1330 C   0  0  0  0  0  0  0  0  0  0  0  0
  191.5140  173.8600  140.9240 C   0  0  0  0  0  0  0  0  0  0  0  0
  190.1990  175.3270  144.0550 C   0  0  2  0  0  3  0  0  0  0  0  0
  190.2740  173.3550  138.7900 C   0  0  0  0  0  3  0  0  0  0  0  0
  195.3560  175.1840  146.1450 C   0  0  0  0  0  2  0  0  0  0  0  0
  192.6440  173.9380  141.6820 C   0  0  0  0  0  0  0  0  0  0  0  0
  194.5600  174.1040  139.3020 C   0  0  0  0  0  1  0  0  0  0  0  0
  187.8800  175.1440  141.3580 C   0  0  0  0  0  2  0  0  0  0  0  0
  189.1050  173.8970  139.4480 C   0  0  0  0  0  3  0  0  0  0  0  0
  193.8170  173.0440  141.3050 C   0  0  0  0  0  2  0  0  0  0  0  0
  193.0350  175.8910  146.2560 C   0  0  1  0  0  3  0  0  0  0  0  0
  192.2680  176.2520  144.9710 C   0  0  1  0  0  3  0  0  0  0  0  0
  189.1380  174.4350  140.7820 C   0  0  0  0  0  0  0  0  0  0  0  0
  192.4470  174.4400  142.9420 N   0  0  0  0  0  0  0  0  0  0  0  0
  192.6170  172.3640  139.1800 C   0  0  0  0  0  2  0  0  0  0  0  0
  188.9120  176.0020  143.6160 C   0  0  1  0  0  3  0  0  0  0  0  0
  195.1960  171.9890  139.5080 C   0  0  0  0  0  1  0  0  0  0  0  0
  192.7220  174.8260  145.2940 C   0  0  1  0  0  3  0  0  0  0  0  0
  194.6420  177.5260  146.1470 O   0  0  0  0  0  0  0  0  0  0  0  0
  193.3840  174.2830  144.0510 C   0  0  2  0  0  3  0  0  0  0  0  0
  187.9850  175.1390  142.8840 C   0  0  0  0  0  2  0  0  0  0  0  0
  196.7510  173.1760  143.6410 O   0  0  0  0  0  0  0  0  0  0  0  0
  196.6440  173.8870  144.6780 C   0  0  0  0  0  3  0  0  0  0  0  0
  188.0860  175.9770  145.9620 C   0  0  0  0  0  3  0  0  0  0  0  0
  188.1850  176.6370  144.7450 C   0  0  0  0  0  0  0  0  0  0  0  0
  187.2890  177.7210  144.5310 C   0  0  0  0  0  3  0  0  0  0  0  0
  185.5200  179.6530  145.3990 Cl  0  0  0  0  0  0  0  0  0  0  0  0
  186.5790  177.5920  146.8330 C   0  0  0  0  0  3  0  0  0  0  0  0
  186.5250  178.2080  145.5840 C   0  0  0  0  0  0  0  0  0  0  0  0
  187.3220  176.4490  146.9680 N   0  0  0  0  0  0  0  0  0  0  0  0
  1 27  1  0  0  0  0
  1  4  1  0  0  0  0
  2 17  1  0  0  0  0
  3  7  2  0  0  0  0
  4 12  1  0  0  0  0
  6  9  1  0  0  0  0
  8 12  1  0  0  0  0
  8 26  2  0  0  0  0
  9  3  1  0  0  0  0
  9 13  2  0  0  0  0
 10  7  1  6  0  0  0
 10  5  1  0  0  0  0
 11 16  1  0  0  0  0
 11  6  2  0  0  0  0
 13 21  1  0  0  0  0
 14  2  1  0  0  0  0
 15 28  1  0  0  0  0
 16 20  2  0  0  0  0
 17 13  1  0  0  0  0
 18  8  1  6  0  0  0
 19  5  1  1  0  0  0
 19 25  1  0  0  0  0
 19 18  1  0  0  0  0
 20 15  1  0  0  0  0
 20  3  1  0  0  0  0
 21  7  1  0  0  0  0
 21 27  1  0  0  0  0
 22  6  1  0  0  0  0
 22  2  1  0  0  0  0
 23 10  1  0  0  0  0
 23 32  1  1  0  0  0
 24  2  1  0  0  0  0
 25 18  1  0  0  0  0
 27 25  1  0  0  0  0
 28 23  1  0  0  0  0
 29 30  2  0  0  0  0
 30  4  1  0  0  0  0
 31 37  1  0  0  0  0
 32 31  2  0  0  0  0
 33 32  1  0  0  0  0
 33 36  2  0  0  0  0
 34 36  1  0  0  0  0
 35 37  2  0  0  0  0
 36 35  1  0  0  0  0
M  END
>  <MODEL>
4

>  <REMARK>
 VINA RESULT:      -8.5      2.192      5.282
  Name = 
  1 active torsions:
  status: ('A' for Active; 'I' for Inactive)
    1  A    between atoms: C_23  and  C_30
                            x       y       z     vdW  Elec       q    Type
                         _______ _______ _______ _____ _____    ______ ____

>  <TORSDO>
F 1

$$$$
=
 OpenBabel11112417183D

 37 44  0  0  1  0  0  0  0  0999 V2000
  193.5340  173.8670  144.8670 C   0  0  0  0  0  2  0  0  0  0  0  0
  190.8600  176.5620  147.3490 C   0  0  0  0  0  0  0  0  0  0  0  0
  189.2470  175.4620  143.5350 C   0  0  0  0  0  0  0  0  0  0  0  0
  194.9970  173.8030  144.8060 N   0  0  0  0  0  0  0  0  0  0  0  0
  191.4680  173.2630  141.2970 O   0  0  0  0  0  0  0  0  0  0  0  0
  188.8800  176.7910  145.6190 C   0  0  0  0  0  0  0  0  0  0  0  0
  190.5700  175.0560  142.9140 C   0  0  0  0  0  0  0  0  0  0  0  0
  194.7400  172.3750  142.9110 C   0  0  0  0  0  0  0  0  0  0  0  0
  189.6700  175.9160  144.7480 C   0  0  0  0  0  0  0  0  0  0  0  0
  190.5980  174.3770  141.5160 C   0  0  2  0  0  3  0  0  0  0  0  0
  187.4490  176.8860  145.4410 C   0  0  0  0  0  3  0  0  0  0  0  0
  195.6430  173.3090  143.6120 C   0  0  0  0  0  2  0  0  0  0  0  0
  190.9580  175.5420  144.9870 C   0  0  0  0  0  0  0  0  0  0  0  0
  190.6130  175.2910  148.0170 C   0  0  0  0  0  1  0  0  0  0  0  0
  187.1730  175.2980  141.8450 C   0  0  0  0  0  2  0  0  0  0  0  0
  186.9760  176.5020  144.1290 C   0  0  0  0  0  3  0  0  0  0  0  0
  191.7030  176.2360  146.1180 C   0  0  0  0  0  2  0  0  0  0  0  0
  193.9580  173.0430  141.8820 C   0  0  1  0  0  3  0  0  0  0  0  0
  192.4660  172.9810  142.2510 C   0  0  1  0  0  3  0  0  0  0  0  0
  187.8010  175.8190  143.1680 C   0  0  0  0  0  0  0  0  0  0  0  0
  191.5810  174.9460  143.9210 N   0  0  0  0  0  0  0  0  0  0  0  0
  189.5540  177.3670  146.8410 C   0  0  0  0  0  2  0  0  0  0  0  0
  189.2590  174.0100  140.9010 C   0  0  1  0  0  3  0  0  0  0  0  0
  191.6480  177.2110  148.4190 C   0  0  0  0  0  1  0  0  0  0  0  0
  193.3070  174.2500  142.4080 C   0  0  1  0  0  3  0  0  0  0  0  0
  194.6480  171.1580  142.9960 O   0  0  0  0  0  0  0  0  0  0  0  0
  193.0280  174.7970  143.7870 C   0  0  2  0  0  3  0  0  0  0  0  0
  188.2970  175.1100  140.8240 C   0  0  0  0  0  2  0  0  0  0  0  0
  195.3160  175.2910  146.4790 O   0  0  0  0  0  0  0  0  0  0  0  0
  195.8040  174.4990  145.6250 C   0  0  0  0  0  3  0  0  0  0  0  0
  189.1130  174.1500  138.4220 C   0  0  0  0  0  3  0  0  0  0  0  0
  189.3960  173.3990  139.5540 C   0  0  0  0  0  0  0  0  0  0  0  0
  189.4590  171.9880  139.3850 C   0  0  0  0  0  3  0  0  0  0  0  0
  189.6910  169.7070  137.8500 Cl  0  0  0  0  0  0  0  0  0  0  0  0
  189.3160  172.2660  136.9920 C   0  0  0  0  0  3  0  0  0  0  0  0
  189.4550  171.4410  138.1080 C   0  0  0  0  0  0  0  0  0  0  0  0
  189.0900  173.6020  137.1900 N   0  0  0  0  0  0  0  0  0  0  0  0
  2 14  1  0  0  0  0
  2 24  1  0  0  0  0
  3  9  1  0  0  0  0
  4  1  1  0  0  0  0
  4 30  1  0  0  0  0
  6 22  1  0  0  0  0
  7  3  2  0  0  0  0
  7 21  1  0  0  0  0
  8 26  2  0  0  0  0
  8 12  1  0  0  0  0
  9 13  2  0  0  0  0
  9  6  1  0  0  0  0
 10  5  1  1  0  0  0
 10  7  1  0  0  0  0
 11  6  2  0  0  0  0
 12  4  1  0  0  0  0
 13 17  1  0  0  0  0
 15 20  1  0  0  0  0
 16 11  1  0  0  0  0
 17  2  1  0  0  0  0
 18 19  1  0  0  0  0
 18 25  1  0  0  0  0
 18  8  1  1  0  0  0
 19  5  1  6  0  0  0
 19 25  1  0  0  0  0
 20  3  1  0  0  0  0
 20 16  2  0  0  0  0
 21 13  1  0  0  0  0
 22  2  1  0  0  0  0
 23 32  1  6  0  0  0
 23 10  1  0  0  0  0
 25 27  1  0  0  0  0
 27 21  1  0  0  0  0
 27  1  1  0  0  0  0
 28 23  1  0  0  0  0
 28 15  1  0  0  0  0
 30 29  2  0  0  0  0
 31 32  1  0  0  0  0
 33 32  2  0  0  0  0
 34 36  1  0  0  0  0
 35 37  1  0  0  0  0
 35 36  2  0  0  0  0
 36 33  1  0  0  0  0
 37 31  2  0  0  0  0
M  END
>  <MODEL>
5

>  <REMARK>
 VINA RESULT:      -8.5      2.937      6.907
  Name = 
  1 active torsions:
  status: ('A' for Active; 'I' for Inactive)
    1  A    between atoms: C_23  and  C_30
                            x       y       z     vdW  Elec       q    Type
                         _______ _______ _______ _____ _____    ______ ____

>  <TORSDO>
F 1

$$$$
=
 OpenBabel11112417183D

 37 44  0  0  1  0  0  0  0  0999 V2000
  192.0440  172.0990  141.2060 C   0  0  0  0  0  2  0  0  0  0  0  0
  194.5080  173.0890  144.8830 C   0  0  0  0  0  0  0  0  0  0  0  0
  191.0170  175.5180  144.3610 C   0  0  0  0  0  0  0  0  0  0  0  0
  192.4760  171.5950  139.9000 N   0  0  0  0  0  0  0  0  0  0  0  0
  188.9030  174.8410  141.2230 O   0  0  0  0  0  0  0  0  0  0  0  0
  193.0380  175.0940  145.7680 C   0  0  0  0  0  0  0  0  0  0  0  0
  190.8340  175.2180  142.8860 C   0  0  0  0  0  0  0  0  0  0  0  0
  190.2640  172.0410  139.1230 C   0  0  0  0  0  0  0  0  0  0  0  0
  192.1750  174.8440  144.6110 C   0  0  0  0  0  0  0  0  0  0  0  0
  189.5620  175.7160  142.1420 C   0  0  2  0  0  3  0  0  0  0  0  0
  192.5090  175.7700  146.9310 C   0  0  0  0  0  3  0  0  0  0  0  0
  191.6740  171.8600  138.7280 C   0  0  0  0  0  2  0  0  0  0  0  0
  192.4740  173.9950  143.5890 C   0  0  0  0  0  0  0  0  0  0  0  0
  193.8220  171.8970  145.3620 C   0  0  0  0  0  1  0  0  0  0  0  0
  189.2370  177.2720  145.3290 C   0  0  0  0  0  2  0  0  0  0  0  0
  191.3320  176.5740  146.6800 C   0  0  0  0  0  3  0  0  0  0  0  0
  193.8830  173.4210  143.5300 C   0  0  0  0  0  2  0  0  0  0  0  0
  189.9320  173.4420  139.3320 C   0  0  1  0  0  3  0  0  0  0  0  0
  189.5620  173.6670  140.8090 C   0  0  1  0  0  3  0  0  0  0  0  0
  190.5780  176.4970  145.4570 C   0  0  0  0  0  0  0  0  0  0  0  0
  191.6570  174.1150  142.4950 N   0  0  0  0  0  0  0  0  0  0  0  0
  194.3810  174.4070  145.8090 C   0  0  0  0  0  2  0  0  0  0  0  0
  188.4750  176.3570  142.9880 C   0  0  1  0  0  3  0  0  0  0  0  0
  195.8640  172.5130  144.7530 C   0  0  0  0  0  1  0  0  0  0  0  0
  190.9070  174.0940  140.2160 C   0  0  1  0  0  3  0  0  0  0  0  0
  189.3540  171.2250  139.1850 O   0  0  0  0  0  0  0  0  0  0  0  0
  191.9790  173.6100  141.1620 C   0  0  2  0  0  3  0  0  0  0  0  0
  188.9300  177.4550  143.8410 C   0  0  0  0  0  2  0  0  0  0  0  0
  194.6340  171.3160  140.5150 O   0  0  0  0  0  0  0  0  0  0  0  0
  193.7370  171.2130  139.6330 C   0  0  0  0  0  3  0  0  0  0  0  0
  187.5060  177.1710  140.8470 C   0  0  0  0  0  3  0  0  0  0  0  0
  187.3220  176.8260  142.1780 C   0  0  0  0  0  0  0  0  0  0  0  0
  186.1210  177.2740  142.7940 C   0  0  0  0  0  3  0  0  0  0  0  0
  183.5410  178.2520  142.7210 Cl  0  0  0  0  0  0  0  0  0  0  0  0
  185.2960  178.0150  140.6510 C   0  0  0  0  0  3  0  0  0  0  0  0
  185.1100  177.8290  142.0200 C   0  0  0  0  0  0  0  0  0  0  0  0
  186.5230  177.7300  140.1130 N   0  0  0  0  0  0  0  0  0  0  0  0
  2 14  1  0  0  0  0
  2 22  1  0  0  0  0
  3  9  1  0  0  0  0
  3 20  1  0  0  0  0
  4  1  1  0  0  0  0
  6 22  1  0  0  0  0
  6 11  2  0  0  0  0
  7  3  2  0  0  0  0
  8 26  2  0  0  0  0
  9  6  1  0  0  0  0
 10  5  1  1  0  0  0
 10  7  1  0  0  0  0
 10 23  1  0  0  0  0
 12  8  1  0  0  0  0
 12  4  1  0  0  0  0
 13  9  2  0  0  0  0
 15 20  1  0  0  0  0
 16 11  1  0  0  0  0
 17 13  1  0  0  0  0
 17  2  1  0  0  0  0
 18  8  1  1  0  0  0
 18 25  1  0  0  0  0
 18 19  1  0  0  0  0
 19  5  1  6  0  0  0
 20 16  2  0  0  0  0
 21  7  1  0  0  0  0
 21 13  1  0  0  0  0
 23 32  1  6  0  0  0
 23 28  1  0  0  0  0
 24  2  1  0  0  0  0
 25 19  1  0  0  0  0
 25 27  1  0  0  0  0
 27  1  1  0  0  0  0
 27 21  1  0  0  0  0
 28 15  1  0  0  0  0
 30  4  1  0  0  0  0
 30 29  2  0  0  0  0
 31 32  1  0  0  0  0
 32 33  2  0  0  0  0
 35 36  2  0  0  0  0
 36 34  1  0  0  0  0
 36 33  1  0  0  0  0
 37 35  1  0  0  0  0
 37 31  2  0  0  0  0
M  END
>  <MODEL>
6

>  <REMARK>
 VINA RESULT:      -8.3      2.166      2.863
  Name = 
  1 active torsions:
  status: ('A' for Active; 'I' for Inactive)
    1  A    between atoms: C_23  and  C_30
                            x       y       z     vdW  Elec       q    Type
                         _______ _______ _______ _____ _____    ______ ____

>  <TORSDO>
F 1

$$$$
=
 OpenBabel11112417183D

 37 44  0  0  1  0  0  0  0  0999 V2000
  190.3160  173.9130  140.3690 C   0  0  0  0  0  2  0  0  0  0  0  0
  187.5400  176.7670  142.5420 C   0  0  0  0  0  0  0  0  0  0  0  0
  190.9770  175.5530  144.7940 C   0  0  0  0  0  0  0  0  0  0  0  0
  190.0050  172.8810  139.3770 N   0  0  0  0  0  0  0  0  0  0  0  0
  193.3520  173.0520  143.0950 O   0  0  0  0  0  0  0  0  0  0  0  0
  188.8680  176.8910  144.8190 C   0  0  0  0  0  0  0  0  0  0  0  0
  191.2850  174.3220  143.9630 C   0  0  0  0  0  0  0  0  0  0  0  0
  192.2550  172.1250  139.6250 C   0  0  0  0  0  0  0  0  0  0  0  0
  189.8270  175.9750  144.1980 C   0  0  0  0  0  0  0  0  0  0  0  0
  192.5940  173.5200  144.2130 C   0  0  2  0  0  3  0  0  0  0  0  0
  189.2810  177.7310  145.9210 C   0  0  0  0  0  3  0  0  0  0  0  0
  190.8860  171.7470  139.2200 C   0  0  0  0  0  2  0  0  0  0  0  0
  189.6370  175.3460  143.0050 C   0  0  0  0  0  0  0  0  0  0  0  0
  188.2260  177.7100  141.6690 C   0  0  0  0  0  1  0  0  0  0  0  0
  192.6150  175.8680  146.8910 C   0  0  0  0  0  2  0  0  0  0  0  0
  190.4460  177.2580  146.6380 C   0  0  0  0  0  3  0  0  0  0  0  0
  188.2570  175.4300  142.3670 C   0  0  0  0  0  2  0  0  0  0  0  0
  192.5210  171.7940  141.0170 C   0  0  1  0  0  3  0  0  0  0  0  0
  192.7670  173.0870  141.8140 C   0  0  1  0  0  3  0  0  0  0  0  0
  191.2960  176.2070  146.1430 C   0  0  0  0  0  0  0  0  0  0  0  0
  190.5320  174.3410  142.7450 N   0  0  0  0  0  0  0  0  0  0  0  0
  187.5490  177.1170  144.1190 C   0  0  0  0  0  2  0  0  0  0  0  0
  193.5880  174.1140  145.1950 C   0  0  1  0  0  3  0  0  0  0  0  0
  186.2190  176.7910  141.8780 C   0  0  0  0  0  1  0  0  0  0  0  0
  191.4590  172.2970  141.8970 C   0  0  1  0  0  3  0  0  0  0  0  0
  193.1840  172.5510  138.9540 O   0  0  0  0  0  0  0  0  0  0  0  0
  190.3330  173.2920  141.7490 C   0  0  2  0  0  3  0  0  0  0  0  0
  193.0310  174.4470  146.5070 C   0  0  0  0  0  2  0  0  0  0  0  0
  187.8160  173.4280  139.2240 O   0  0  0  0  0  0  0  0  0  0  0  0
  188.7830  172.7100  138.8450 C   0  0  0  0  0  3  0  0  0  0  0  0
  196.0190  173.6740  144.9130 C   0  0  0  0  0  3  0  0  0  0  0  0
  194.7840  173.2560  145.3880 C   0  0  0  0  0  0  0  0  0  0  0  0
  194.6600  171.8770  145.7170 C   0  0  0  0  0  3  0  0  0  0  0  0
  195.7000  169.3940  146.3220 Cl  0  0  0  0  0  0  0  0  0  0  0  0
  197.0370  171.5890  145.4160 C   0  0  0  0  0  3  0  0  0  0  0  0
  195.7900  171.0700  145.7630 C   0  0  0  0  0  0  0  0  0  0  0  0
  197.1030  172.8720  144.9420 N   0  0  0  0  0  0  0  0  0  0  0  0
  1 27  1  0  0  0  0
  2 22  1  0  0  0  0
  3 20  1  0  0  0  0
  4  1  1  0  0  0  0
  6 11  2  0  0  0  0
  7 10  1  0  0  0  0
  7  3  2  0  0  0  0
  9  3  1  0  0  0  0
  9  6  1  0  0  0  0
 10  5  1  6  0  0  0
 10 23  1  0  0  0  0
 11 16  1  0  0  0  0
 12  4  1  0  0  0  0
 12  8  1  0  0  0  0
 13  9  2  0  0  0  0
 14  2  1  0  0  0  0
 17  2  1  0  0  0  0
 17 13  1  0  0  0  0
 18  8  1  6  0  0  0
 18 19  1  0  0  0  0
 18 25  1  0  0  0  0
 19 25  1  0  0  0  0
 19  5  1  1  0  0  0
 20 16  2  0  0  0  0
 20 15  1  0  0  0  0
 21 13  1  0  0  0  0
 21  7  1  0  0  0  0
 22  6  1  0  0  0  0
 23 32  1  1  0  0  0
 23 28  1  0  0  0  0
 24  2  1  0  0  0  0
 26  8  2  0  0  0  0
 27 25  1  0  0  0  0
 27 21  1  0  0  0  0
 28 15  1  0  0  0  0
 30 29  2  0  0  0  0
 30  4  1  0  0  0  0
 31 37  2  0  0  0  0
 31 32  1  0  0  0  0
 32 33  2  0  0  0  0
 33 36  1  0  0  0  0
 35 36  2  0  0  0  0
 36 34  1  0  0  0  0
 37 35  1  0  0  0  0
M  END
>  <MODEL>
7

>  <REMARK>
 VINA RESULT:      -8.1      3.188      6.716
  Name = 
  1 active torsions:
  status: ('A' for Active; 'I' for Inactive)
    1  A    between atoms: C_23  and  C_30
                            x       y       z     vdW  Elec       q    Type
                         _______ _______ _______ _____ _____    ______ ____

>  <TORSDO>
F 1

$$$$
=
 OpenBabel11112417183D

 37 44  0  0  1  0  0  0  0  0999 V2000
  189.0070  175.0860  145.1290 C   0  0  0  0  0  2  0  0  0  0  0  0
  186.0070  178.4880  145.1530 C   0  0  0  0  0  0  0  0  0  0  0  0
  186.7300  176.7680  141.2970 C   0  0  0  0  0  0  0  0  0  0  0  0
  190.1820  174.8700  145.9770 N   0  0  0  0  0  0  0  0  0  0  0  0
  189.3320  173.9430  141.1330 O   0  0  0  0  0  0  0  0  0  0  0  0
  185.5000  178.5350  142.5640 C   0  0  0  0  0  0  0  0  0  0  0  0
  188.0500  176.1150  141.6590 C   0  0  0  0  0  0  0  0  0  0  0  0
  190.7900  173.1060  144.4910 C   0  0  0  0  0  0  0  0  0  0  0  0
  186.4500  177.4250  142.4570 C   0  0  0  0  0  0  0  0  0  0  0  0
  188.7470  175.1560  140.6520 C   0  0  2  0  0  3  0  0  0  0  0  0
  184.4960  178.7270  141.5420 C   0  0  0  0  0  3  0  0  0  0  0  0
  191.2840  174.0760  145.4880 C   0  0  0  0  0  2  0  0  0  0  0  0
  187.2490  176.9880  143.4690 C   0  0  0  0  0  0  0  0  0  0  0  0
  185.1650  177.4160  145.6680 C   0  0  0  0  0  1  0  0  0  0  0  0
  186.0460  176.4500  138.7250 C   0  0  0  0  0  2  0  0  0  0  0  0
  184.8070  178.1220  140.2660 C   0  0  0  0  0  3  0  0  0  0  0  0
  187.3200  177.8300  144.7350 C   0  0  0  0  0  2  0  0  0  0  0  0
  190.9090  173.6140  143.1320 C   0  0  1  0  0  3  0  0  0  0  0  0
  189.5060  173.7750  142.5210 C   0  0  1  0  0  3  0  0  0  0  0  0
  185.8770  177.1760  140.0890 C   0  0  0  0  0  0  0  0  0  0  0  0
  188.2380  176.1230  143.0770 N   0  0  0  0  0  0  0  0  0  0  0  0
  185.4380  179.2890  143.8710 C   0  0  0  0  0  2  0  0  0  0  0  0
  187.9750  174.7980  139.3940 C   0  0  1  0  0  3  0  0  0  0  0  0
  186.1380  179.2690  146.4020 C   0  0  0  0  0  1  0  0  0  0  0  0
  190.3360  174.9610  143.0160 C   0  0  1  0  0  3  0  0  0  0  0  0
  190.4210  171.9490  144.6350 O   0  0  0  0  0  0  0  0  0  0  0  0
  189.4260  175.8110  143.8690 C   0  0  2  0  0  3  0  0  0  0  0  0
  187.4860  175.9440  138.6270 C   0  0  0  0  0  2  0  0  0  0  0  0
  189.7640  176.6400  147.3220 O   0  0  0  0  0  0  0  0  0  0  0  0
  190.4830  175.6430  147.0350 C   0  0  0  0  0  3  0  0  0  0  0  0
  189.1350  174.3640  137.2380 C   0  0  0  0  0  3  0  0  0  0  0  0
  188.7410  173.9060  138.4870 C   0  0  0  0  0  0  0  0  0  0  0  0
  188.7820  172.4990  138.6930 C   0  0  0  0  0  3  0  0  0  0  0  0
  189.6080  169.9460  138.0510 Cl  0  0  0  0  0  0  0  0  0  0  0  0
  189.9100  172.2190  136.5790 C   0  0  0  0  0  3  0  0  0  0  0  0
  189.3960  171.6780  137.7570 C   0  0  0  0  0  0  0  0  0  0  0  0
  189.7100  173.5510  136.3290 N   0  0  0  0  0  0  0  0  0  0  0  0
  1  4  1  0  0  0  0
  2 14  1  0  0  0  0
  2 24  1  0  0  0  0
  3  7  2  0  0  0  0
  3  9  1  0  0  0  0
  4 30  1  0  0  0  0
  6 22  1  0  0  0  0
  7 21  1  0  0  0  0
  8 26  2  0  0  0  0
  8 12  1  0  0  0  0
  9  6  1  0  0  0  0
  9 13  2  0  0  0  0
 10  5  1  1  0  0  0
 10  7  1  0  0  0  0
 11  6  2  0  0  0  0
 12  4  1  0  0  0  0
 13 17  1  0  0  0  0
 15 20  1  0  0  0  0
 16 11  1  0  0  0  0
 17  2  1  0  0  0  0
 18  8  1  1  0  0  0
 19  5  1  6  0  0  0
 19 25  1  0  0  0  0
 19 18  1  0  0  0  0
 20 16  2  0  0  0  0
 20  3  1  0  0  0  0
 21 13  1  0  0  0  0
 21 27  1  0  0  0  0
 22  2  1  0  0  0  0
 23 32  1  6  0  0  0
 23 10  1  0  0  0  0
 25 18  1  0  0  0  0
 25 27  1  0  0  0  0
 27  1  1  0  0  0  0
 28 15  1  0  0  0  0
 28 23  1  0  0  0  0
 30 29  2  0  0  0  0
 31 32  1  0  0  0  0
 32 33  2  0  0  0  0
 35 36  2  0  0  0  0
 36 34  1  0  0  0  0
 36 33  1  0  0  0  0
 37 35  1  0  0  0  0
 37 31  2  0  0  0  0
M  END
>  <MODEL>
8

>  <REMARK>
 VINA RESULT:      -7.8      3.336      8.269
  Name = 
  1 active torsions:
  status: ('A' for Active; 'I' for Inactive)
    1  A    between atoms: C_23  and  C_30
                            x       y       z     vdW  Elec       q    Type
                         _______ _______ _______ _____ _____    ______ ____

>  <TORSDO>
F 1

$$$$
=
 OpenBabel11112417183D

 37 44  0  0  1  0  0  0  0  0999 V2000
  189.9140  176.3190  143.6830 C   0  0  0  0  0  2  0  0  0  0  0  0
  193.8740  176.1470  145.8870 C   0  0  0  0  0  0  0  0  0  0  0  0
  193.3920  173.1740  142.8390 C   0  0  0  0  0  0  0  0  0  0  0  0
  188.5930  176.7280  144.1660 N   0  0  0  0  0  0  0  0  0  0  0  0
  190.0320  173.1550  140.9710 O   0  0  0  0  0  0  0  0  0  0  0  0
  194.8900  174.0590  144.6320 C   0  0  0  0  0  0  0  0  0  0  0  0
  191.8800  173.2690  142.7620 C   0  0  0  0  0  0  0  0  0  0  0  0
  187.7050  175.8660  142.1260 C   0  0  0  0  0  0  0  0  0  0  0  0
  193.6440  174.0400  143.8610 C   0  0  0  0  0  0  0  0  0  0  0  0
  191.1070  172.5030  141.6520 C   0  0  2  0  0  3  0  0  0  0  0  0
  196.0840  173.4500  144.0910 C   0  0  0  0  0  3  0  0  0  0  0  0
  187.4040  176.2110  143.5290 C   0  0  0  0  0  2  0  0  0  0  0  0
  192.5490  174.8000  144.1380 C   0  0  0  0  0  0  0  0  0  0  0  0
  194.1390  177.2700  144.9970 C   0  0  0  0  0  1  0  0  0  0  0  0
  194.4320  171.2950  141.2360 C   0  0  0  0  0  2  0  0  0  0  0  0
  195.8460  172.4540  143.0690 C   0  0  0  0  0  3  0  0  0  0  0  0
  192.5290  175.5690  145.4510 C   0  0  0  0  0  2  0  0  0  0  0  0
  188.0660  174.4640  141.9750 C   0  0  1  0  0  3  0  0  0  0  0  0
  189.5250  174.3590  141.4970 C   0  0  1  0  0  3  0  0  0  0  0  0
  194.5660  172.2740  142.4360 C   0  0  0  0  0  0  0  0  0  0  0  0
  191.4170  174.4310  143.4570 N   0  0  0  0  0  0  0  0  0  0  0  0
  194.9500  174.9420  145.8560 C   0  0  0  0  0  2  0  0  0  0  0  0
  191.9380  171.8070  140.5880 C   0  0  1  0  0  3  0  0  0  0  0  0
  193.7810  176.9020  147.1550 C   0  0  0  0  0  1  0  0  0  0  0  0
  189.1020  174.0750  142.9400 C   0  0  1  0  0  3  0  0  0  0  0  0
  187.5870  176.5360  141.1090 O   0  0  0  0  0  0  0  0  0  0  0  0
  190.0610  174.8210  143.8350 C   0  0  2  0  0  3  0  0  0  0  0  0
  192.9600  170.8970  141.1060 C   0  0  0  0  0  2  0  0  0  0  0  0
  189.3380  177.4000  146.1930 O   0  0  0  0  0  0  0  0  0  0  0  0
  188.3810  177.2630  145.3810 C   0  0  0  0  0  3  0  0  0  0  0  0
  190.8210  169.7340  139.7900 C   0  0  0  0  0  3  0  0  0  0  0  0
  191.1060  171.0780  139.5980 C   0  0  0  0  0  0  0  0  0  0  0  0
  190.8870  171.5970  138.2920 C   0  0  0  0  0  3  0  0  0  0  0  0
  189.7820  171.5010  135.7640 Cl  0  0  0  0  0  0  0  0  0  0  0  0
  189.8170  169.5320  137.6480 C   0  0  0  0  0  3  0  0  0  0  0  0
  190.2150  170.8340  137.3450 C   0  0  0  0  0  0  0  0  0  0  0  0
  190.1880  168.9980  138.8530 N   0  0  0  0  0  0  0  0  0  0  0  0
  1 27  1  0  0  0  0
  1  4  1  0  0  0  0
  2 24  1  0  0  0  0
  3  9  1  0  0  0  0
  4 30  1  0  0  0  0
  6 22  1  0  0  0  0
  7  3  2  0  0  0  0
  7 21  1  0  0  0  0
  8 12  1  0  0  0  0
  9 13  2  0  0  0  0
  9  6  1  0  0  0  0
 10  5  1  6  0  0  0
 10  7  1  0  0  0  0
 11  6  2  0  0  0  0
 12  4  1  0  0  0  0
 13 17  1  0  0  0  0
 14  2  1  0  0  0  0
 15 20  1  0  0  0  0
 16 11  1  0  0  0  0
 17  2  1  0  0  0  0
 18  8  1  1  0  0  0
 18 25  1  0  0  0  0
 19  5  1  6  0  0  0
 19 18  1  0  0  0  0
 19 25  1  0  0  0  0
 20  3  1  0  0  0  0
 20 16  2  0  0  0  0
 21 27  1  0  0  0  0
 21 13  1  0  0  0  0
 22  2  1  0  0  0  0
 23 32  1  6  0  0  0
 23 28  1  0  0  0  0
 23 10  1  0  0  0  0
 25 27  1  0  0  0  0
 26  8  2  0  0  0  0
 28 15  1  0  0  0  0
 30 29  2  0  0  0  0
 32 31  1  0  0  0  0
 33 32  2  0  0  0  0
 34 36  1  0  0  0  0
 35 37  1  0  0  0  0
 36 35  2  0  0  0  0
 36 33  1  0  0  0  0
 37 31  2  0  0  0  0
M  END
>  <MODEL>
9

>  <REMARK>
 VINA RESULT:      -7.8      2.848      6.643
  Name = 
  1 active torsions:
  status: ('A' for Active; 'I' for Inactive)
    1  A    between atoms: C_23  and  C_30
                            x       y       z     vdW  Elec       q    Type
                         _______ _______ _______ _____ _____    ______ ____

>  <TORSDO>
F 1

$$$$
