=
 OpenBabel11112416233D

 30 35  0  0  1  0  0  0  0  0999 V2000
  186.8850  177.4000  143.7850 C   0  0  2  0  0  3  0  0  0  0  0  0
  184.9090  178.4070  145.0330 C   0  0  0  0  0  0  0  0  0  0  0  0
  188.7090  176.6050  147.4780 O   0  0  0  0  0  0  0  0  0  0  0  0
  188.3780  177.1090  143.9120 C   0  0  2  0  0  3  0  0  0  0  0  0
  186.6590  178.0070  142.5480 O   0  0  0  0  0  0  0  0  0  0  0  0
  187.8920  174.9290  141.2100 O   0  0  0  0  0  1  0  0  0  0  0  0
  191.2800  176.8110  143.5330 C   0  0  1  0  0  3  0  0  0  0  0  0
  188.0520  176.2860  141.5000 C   0  0  1  0  0  3  0  0  0  0  0  0
  191.0640  176.7650  145.0500 C   0  0  2  0  0  3  0  0  0  0  0  0
  189.8410  175.9240  147.0660 C   0  0  0  0  0  0  0  0  0  0  0  0
  186.6570  176.9430  141.6310 C   0  0  2  0  0  3  0  0  0  0  0  0
  188.8820  176.4390  142.7100 N   0  0  0  0  0  0  0  0  0  0  0  0
  184.2180  178.4710  146.3340 C   0  0  0  0  0  3  0  0  0  0  0  0
  192.4260  176.3840  145.6100 C   0  0  0  0  0  2  0  0  0  0  0  0
  192.7050  176.3460  143.3150 C   0  0  0  0  0  2  0  0  0  0  0  0
  184.2340  178.5300  143.9760 O   0  0  0  0  0  0  0  0  0  0  0  0
  187.9840  176.9120  146.3450 C   0  0  0  0  0  0  0  0  0  0  0  0
  184.8900  178.4280  147.4900 C   0  0  0  0  0  3  0  0  0  0  0  0
  186.4120  178.2670  144.9690 C   0  0  1  0  0  3  0  0  0  0  0  0
  188.5410  176.2270  145.1410 C   0  0  2  0  0  3  0  0  0  0  0  0
  190.6740  175.4430  147.8800 O   0  0  0  0  0  0  0  0  0  0  0  0
  189.9660  175.8100  145.5690 C   0  0  1  0  0  3  0  0  0  0  0  0
  193.4190  176.5630  144.5620 N   0  0  0  0  0  2  0  0  0  0  0  0
  190.6750  175.2370  141.8170 O   0  0  0  0  0  0  0  0  0  0  0  0
  186.3930  178.3670  147.5520 C   0  0  0  0  0  2  0  0  0  0  0  0
  186.9430  177.7550  146.3010 C   0  0  0  0  0  0  0  0  0  0  0  0
  190.2770  176.0950  142.6530 C   0  0  0  0  0  0  0  0  0  0  0  0
  186.1660  177.4530  140.2830 C   0  0  0  0  0  2  0  0  0  0  0  0
  183.7440  178.0030  140.4480 C   0  0  0  0  0  1  0  0  0  0  0  0
  185.1500  178.5710  140.4500 C   0  0  0  0  0  2  0  0  0  0  0  0
  1  5  1  6  0  0  0
  1  4  1  0  0  0  0
  1 19  1  0  0  0  0
  2 13  1  0  0  0  0
  4 12  1  6  0  0  0
  4 20  1  0  0  0  0
  7 15  1  1  0  0  0
  7  9  1  0  0  0  0
  8  6  1  1  0  0  0
  8 11  1  0  0  0  0
  8 12  1  0  0  0  0
  9 22  1  0  0  0  0
  9 14  1  1  0  0  0
 10  3  1  0  0  0  0
 10 21  2  0  0  0  0
 11 28  1  6  0  0  0
 11  5  1  0  0  0  0
 13 18  2  0  0  0  0
 15 23  1  0  0  0  0
 16  2  2  0  0  0  0
 17  3  1  0  0  0  0
 18 25  1  0  0  0  0
 19  2  1  1  0  0  0
 19 26  1  0  0  0  0
 20 22  1  0  0  0  0
 20 17  1  1  0  0  0
 22 10  1  1  0  0  0
 23 14  1  0  0  0  0
 24 27  2  0  0  0  0
 26 17  2  0  0  0  0
 26 25  1  0  0  0  0
 27 12  1  0  0  0  0
 27  7  1  0  0  0  0
 28 30  1  0  0  0  0
 29 30  1  0  0  0  0
M  END
>  <MODEL>
1

>  <REMARK>
 VINA RESULT:      -9.1      0.000      0.000
  Name = 
  2 active torsions:
  status: ('A' for Active; 'I' for Inactive)
    1  A    between atoms: C_11  and  C_28
    2  A    between atoms: C_28  and  C_30
                            x       y       z     vdW  Elec       q    Type
                         _______ _______ _______ _____ _____    ______ ____

>  <TORSDO>
F 2

$$$$
=
 OpenBabel11112416233D

 30 35  0  0  1  0  0  0  0  0999 V2000
  188.2130  177.0500  145.5120 C   0  0  2  0  0  3  0  0  0  0  0  0
  186.3040  178.1260  146.8060 C   0  0  0  0  0  0  0  0  0  0  0  0
  186.0600  177.6800  141.9680 O   0  0  0  0  0  0  0  0  0  0  0  0
  188.5320  176.3030  144.2200 C   0  0  2  0  0  3  0  0  0  0  0  0
  188.7970  176.3590  146.5750 O   0  0  0  0  0  0  0  0  0  0  0  0
  191.8710  177.1140  144.9120 O   0  0  0  0  0  1  0  0  0  0  0  0
  189.4910  174.4530  142.1430 C   0  0  1  0  0  3  0  0  0  0  0  0
  190.8710  176.2120  145.2790 C   0  0  1  0  0  3  0  0  0  0  0  0
  188.2810  175.1630  141.5250 C   0  0  2  0  0  3  0  0  0  0  0  0
  186.9750  177.2400  141.0270 C   0  0  0  0  0  0  0  0  0  0  0  0
  190.1490  176.7410  146.5410 C   0  0  2  0  0  3  0  0  0  0  0  0
  189.9610  175.9900  144.1380 N   0  0  0  0  0  0  0  0  0  0  0  0
  185.1210  178.9990  146.6930 C   0  0  0  0  0  3  0  0  0  0  0  0
  188.2880  174.7150  140.0710 C   0  0  0  0  0  2  0  0  0  0  0  0
  190.1730  173.7450  140.9920 C   0  0  0  0  0  2  0  0  0  0  0  0
  186.9560  178.1150  147.8840 O   0  0  0  0  0  0  0  0  0  0  0  0
  186.6550  177.5540  143.2050 C   0  0  0  0  0  0  0  0  0  0  0  0
  184.3430  178.9940  145.6050 C   0  0  0  0  0  3  0  0  0  0  0  0
  186.6870  177.2060  145.6710 C   0  0  1  0  0  3  0  0  0  0  0  0
  188.1040  177.2160  143.0800 C   0  0  2  0  0  3  0  0  0  0  0  0
  186.7520  177.2980  139.7890 O   0  0  0  0  0  0  0  0  0  0  0  0
  188.2480  176.7040  141.6290 C   0  0  1  0  0  3  0  0  0  0  0  0
  189.1780  173.5710  139.9470 N   0  0  0  0  0  2  0  0  0  0  0  0
  191.6740  175.2900  142.7120 O   0  0  0  0  0  0  0  0  0  0  0  0
  184.5790  178.0650  144.4450 C   0  0  0  0  0  2  0  0  0  0  0  0
  186.0210  177.6660  144.3810 C   0  0  0  0  0  0  0  0  0  0  0  0
  190.4410  175.2780  142.9850 C   0  0  0  0  0  0  0  0  0  0  0  0
  190.8340  176.2510  147.8080 C   0  0  0  0  0  2  0  0  0  0  0  0
  191.4220  177.9810  149.4980 C   0  0  0  0  0  1  0  0  0  0  0  0
  191.9030  177.2270  148.2730 C   0  0  0  0  0  2  0  0  0  0  0  0
  1 19  1  0  0  0  0
  1  5  1  1  0  0  0
  2 16  2  0  0  0  0
  3 17  1  0  0  0  0
  4 12  1  6  0  0  0
  4  1  1  0  0  0  0
  7 15  1  6  0  0  0
  7 27  1  0  0  0  0
  8  6  1  6  0  0  0
  8 11  1  0  0  0  0
  9 14  1  6  0  0  0
  9 22  1  0  0  0  0
  9  7  1  0  0  0  0
 10  3  1  0  0  0  0
 11  5  1  0  0  0  0
 11 28  1  1  0  0  0
 12  8  1  0  0  0  0
 13  2  1  0  0  0  0
 17 26  2  0  0  0  0
 18 13  2  0  0  0  0
 19 26  1  6  0  0  0
 19  2  1  0  0  0  0
 20 17  1  1  0  0  0
 20  4  1  0  0  0  0
 21 10  2  0  0  0  0
 22 10  1  6  0  0  0
 22 20  1  0  0  0  0
 23 14  1  0  0  0  0
 23 15  1  0  0  0  0
 24 27  2  0  0  0  0
 25 18  1  0  0  0  0
 26 25  1  0  0  0  0
 27 12  1  0  0  0  0
 28 30  1  0  0  0  0
 30 29  1  0  0  0  0
M  END
>  <MODEL>
2

>  <REMARK>
 VINA RESULT:      -8.8      1.820      5.375
  Name = 
  2 active torsions:
  status: ('A' for Active; 'I' for Inactive)
    1  A    between atoms: C_11  and  C_28
    2  A    between atoms: C_28  and  C_30
                            x       y       z     vdW  Elec       q    Type
                         _______ _______ _______ _____ _____    ______ ____

>  <TORSDO>
F 2

$$$$
=
 OpenBabel11112416233D

 30 35  0  0  1  0  0  0  0  0999 V2000
  189.8950  175.1070  143.5240 C   0  0  2  0  0  3  0  0  0  0  0  0
  192.0840  173.8380  143.7910 C   0  0  0  0  0  0  0  0  0  0  0  0
  190.6180  176.9730  147.2100 O   0  0  0  0  0  0  0  0  0  0  0  0
  188.7920  175.8010  144.3170 C   0  0  2  0  0  3  0  0  0  0  0  0
  189.2970  174.2610  142.5880 O   0  0  0  0  0  0  0  0  0  0  0  0
  187.9180  177.2820  141.2630 O   0  0  0  0  0  1  0  0  0  0  0  0
  186.2560  176.7910  145.4350 C   0  0  1  0  0  3  0  0  0  0  0  0
  187.7840  176.0870  141.9710 C   0  0  1  0  0  3  0  0  0  0  0  0
  187.3020  177.0350  146.5290 C   0  0  2  0  0  3  0  0  0  0  0  0
  189.5500  177.8500  147.2710 C   0  0  0  0  0  0  0  0  0  0  0  0
  188.9090  175.1140  141.5420 C   0  0  2  0  0  3  0  0  0  0  0  0
  187.7800  176.3670  143.4200 N   0  0  0  0  0  0  0  0  0  0  0  0
  193.3790  173.8150  144.4970 C   0  0  0  0  0  3  0  0  0  0  0  0
  186.5630  177.8520  147.5770 C   0  0  0  0  0  2  0  0  0  0  0  0
  185.0330  177.5730  145.8660 C   0  0  0  0  0  2  0  0  0  0  0  0
  192.0140  173.3630  142.6260 O   0  0  0  0  0  0  0  0  0  0  0  0
  190.5230  176.2970  146.0120 C   0  0  0  0  0  0  0  0  0  0  0  0
  193.4980  174.2310  145.7630 C   0  0  0  0  0  3  0  0  0  0  0  0
  190.8460  174.3600  144.4800 C   0  0  1  0  0  3  0  0  0  0  0  0
  189.4700  176.8900  145.1350 C   0  0  2  0  0  3  0  0  0  0  0  0
  189.3980  178.6660  148.2190 O   0  0  0  0  0  0  0  0  0  0  0  0
  188.6100  177.7370  146.0990 C   0  0  1  0  0  3  0  0  0  0  0  0
  185.1370  177.7690  147.3030 N   0  0  0  0  0  2  0  0  0  0  0  0
  185.9660  177.8330  143.2850 O   0  0  0  0  0  0  0  0  0  0  0  0
  192.3210  174.6980  146.5760 C   0  0  0  0  0  2  0  0  0  0  0  0
  191.2380  175.2120  145.6790 C   0  0  0  0  0  0  0  0  0  0  0  0
  186.6580  177.0540  143.9990 C   0  0  0  0  0  0  0  0  0  0  0  0
  188.4760  174.2720  140.3500 C   0  0  0  0  0  2  0  0  0  0  0  0
  189.7570  172.2440  139.6860 C   0  0  0  0  0  1  0  0  0  0  0  0
  188.6880  172.7900  140.6130 C   0  0  0  0  0  2  0  0  0  0  0  0
  1  5  1  6  0  0  0
  1  4  1  0  0  0  0
  1 19  1  0  0  0  0
  2 13  1  0  0  0  0
  3 10  1  0  0  0  0
  4 12  1  6  0  0  0
  4 20  1  0  0  0  0
  7 15  1  1  0  0  0
  7  9  1  0  0  0  0
  8  6  1  6  0  0  0
  8 12  1  0  0  0  0
  9 14  1  1  0  0  0
 10 21  2  0  0  0  0
 11 28  1  6  0  0  0
 11  8  1  0  0  0  0
 11  5  1  0  0  0  0
 12 27  1  0  0  0  0
 13 18  2  0  0  0  0
 15 23  1  0  0  0  0
 16  2  2  0  0  0  0
 17  3  1  0  0  0  0
 18 25  1  0  0  0  0
 19  2  1  6  0  0  0
 19 26  1  0  0  0  0
 20 17  1  1  0  0  0
 20 22  1  0  0  0  0
 22  9  1  0  0  0  0
 22 10  1  1  0  0  0
 23 14  1  0  0  0  0
 24 27  2  0  0  0  0
 26 17  2  0  0  0  0
 26 25  1  0  0  0  0
 27  7  1  0  0  0  0
 28 30  1  0  0  0  0
 29 30  1  0  0  0  0
M  END
>  <MODEL>
3

>  <REMARK>
 VINA RESULT:      -7.7      2.237      5.693
  Name = 
  2 active torsions:
  status: ('A' for Active; 'I' for Inactive)
    1  A    between atoms: C_11  and  C_28
    2  A    between atoms: C_28  and  C_30
                            x       y       z     vdW  Elec       q    Type
                         _______ _______ _______ _____ _____    ______ ____

>  <TORSDO>
F 2

$$$$
=
 OpenBabel11112416233D

 30 35  0  0  1  0  0  0  0  0999 V2000
  188.8570  176.5360  145.6170 C   0  0  2  0  0  3  0  0  0  0  0  0
  191.0950  175.9110  146.6530 C   0  0  0  0  0  0  0  0  0  0  0  0
  190.0270  174.5700  142.1010 O   0  0  0  0  0  0  0  0  0  0  0  0
  188.1670  176.7800  144.2770 C   0  0  2  0  0  3  0  0  0  0  0  0
  188.5370  177.5900  146.4740 O   0  0  0  0  0  0  0  0  0  0  0  0
  185.1780  176.4300  146.0750 O   0  0  0  0  0  1  0  0  0  0  0  0
  186.5950  177.7990  142.0090 C   0  0  1  0  0  3  0  0  0  0  0  0
  186.1900  177.3560  145.8130 C   0  0  1  0  0  3  0  0  0  0  0  0
  187.6350  176.8580  141.3900 C   0  0  2  0  0  3  0  0  0  0  0  0
  188.8730  174.6830  141.3450 C   0  0  0  0  0  0  0  0  0  0  0  0
  187.2480  177.2850  146.9400 C   0  0  2  0  0  3  0  0  0  0  0  0
  186.7520  177.1090  144.4710 N   0  0  0  0  0  0  0  0  0  0  0  0
  192.2520  175.0020  146.5530 C   0  0  0  0  0  3  0  0  0  0  0  0
  187.2200  176.7510  139.9300 C   0  0  0  0  0  2  0  0  0  0  0  0
  185.5950  178.0750  140.9060 C   0  0  0  0  0  2  0  0  0  0  0  0
  190.7520  176.3410  147.7870 O   0  0  0  0  0  0  0  0  0  0  0  0
  189.7740  175.1610  143.3210 C   0  0  0  0  0  0  0  0  0  0  0  0
  192.7130  174.5790  145.3710 C   0  0  0  0  0  3  0  0  0  0  0  0
  190.3760  176.3770  145.4090 C   0  0  1  0  0  3  0  0  0  0  0  0
  188.3270  175.4990  143.4720 C   0  0  2  0  0  3  0  0  0  0  0  0
  188.7640  174.1720  140.1990 O   0  0  0  0  0  0  0  0  0  0  0  0
  187.7780  175.4580  142.0280 C   0  0  1  0  0  3  0  0  0  0  0  0
  186.2680  177.8140  139.6440 N   0  0  0  0  0  2  0  0  0  0  0  0
  184.6880  177.3260  143.3990 O   0  0  0  0  0  0  0  0  0  0  0  0
  192.1280  175.0360  144.0620 C   0  0  0  0  0  2  0  0  0  0  0  0
  190.7010  175.4520  144.2450 C   0  0  0  0  0  0  0  0  0  0  0  0
  185.9470  177.3780  143.3120 C   0  0  0  0  0  0  0  0  0  0  0  0
  186.8960  178.2300  148.0790 C   0  0  0  0  0  2  0  0  0  0  0  0
  186.3350  180.6410  148.3430 C   0  0  0  0  0  1  0  0  0  0  0  0
  185.9960  179.3600  147.6050 C   0  0  0  0  0  2  0  0  0  0  0  0
  1  5  1  1  0  0  0
  2 16  2  0  0  0  0
  3 17  1  0  0  0  0
  4 12  1  1  0  0  0
  4  1  1  0  0  0  0
  5 11  1  0  0  0  0
  7 15  1  6  0  0  0
  7 27  1  0  0  0  0
  8  6  1  1  0  0  0
  8 11  1  0  0  0  0
  9 14  1  6  0  0  0
  9  7  1  0  0  0  0
  9 22  1  0  0  0  0
 10  3  1  0  0  0  0
 11 28  1  1  0  0  0
 12  8  1  0  0  0  0
 13  2  1  0  0  0  0
 17 26  2  0  0  0  0
 18 13  2  0  0  0  0
 19 26  1  6  0  0  0
 19  1  1  0  0  0  0
 19  2  1  0  0  0  0
 20 17  1  6  0  0  0
 20  4  1  0  0  0  0
 21 10  2  0  0  0  0
 22 10  1  6  0  0  0
 22 20  1  0  0  0  0
 23 14  1  0  0  0  0
 23 15  1  0  0  0  0
 25 26  1  0  0  0  0
 25 18  1  0  0  0  0
 27 24  2  0  0  0  0
 27 12  1  0  0  0  0
 30 28  1  0  0  0  0
 30 29  1  0  0  0  0
M  END
>  <MODEL>
4

>  <REMARK>
 VINA RESULT:      -7.6      1.845      6.209
  Name = 
  2 active torsions:
  status: ('A' for Active; 'I' for Inactive)
    1  A    between atoms: C_11  and  C_28
    2  A    between atoms: C_28  and  C_30
                            x       y       z     vdW  Elec       q    Type
                         _______ _______ _______ _____ _____    ______ ____

>  <TORSDO>
F 2

$$$$
=
 OpenBabel11112416233D

 30 35  0  0  1  0  0  0  0  0999 V2000
  188.5470  175.7870  143.5910 C   0  0  2  0  0  3  0  0  0  0  0  0
  186.2310  176.7070  144.1060 C   0  0  0  0  0  0  0  0  0  0  0  0
  189.6750  176.6400  147.5400 O   0  0  0  0  0  0  0  0  0  0  0  0
  190.0080  175.8730  144.0210 C   0  0  2  0  0  3  0  0  0  0  0  0
  188.4910  175.8960  142.2010 O   0  0  0  0  0  0  0  0  0  0  0  0
  190.4130  172.8810  142.2400 O   0  0  0  0  0  1  0  0  0  0  0  0
  192.9380  176.0830  144.1850 C   0  0  1  0  0  3  0  0  0  0  0  0
  190.3070  174.2600  142.0440 C   0  0  1  0  0  3  0  0  0  0  0  0
  192.4260  176.4900  145.5720 C   0  0  2  0  0  3  0  0  0  0  0  0
  190.9560  176.1150  147.5630 C   0  0  0  0  0  0  0  0  0  0  0  0
  188.8340  174.6160  141.7340 C   0  0  2  0  0  3  0  0  0  0  0  0
  190.8410  174.9700  143.2230 N   0  0  0  0  0  0  0  0  0  0  0  0
  185.2870  177.0450  145.1870 C   0  0  0  0  0  3  0  0  0  0  0  0
  193.6860  176.6070  146.4160 C   0  0  0  0  0  2  0  0  0  0  0  0
  194.4300  175.8830  144.3500 C   0  0  0  0  0  2  0  0  0  0  0  0
  185.7750  176.3350  142.9910 O   0  0  0  0  0  0  0  0  0  0  0  0
  189.1590  176.4010  146.2830 C   0  0  0  0  0  0  0  0  0  0  0  0
  185.7070  177.5230  146.3640 C   0  0  0  0  0  3  0  0  0  0  0  0
  187.7180  176.8720  144.3080 C   0  0  1  0  0  3  0  0  0  0  0  0
  190.0450  175.4940  145.4950 C   0  0  2  0  0  3  0  0  0  0  0  0
  191.6660  176.1110  148.6030 O   0  0  0  0  0  0  0  0  0  0  0  0
  191.3980  175.5480  146.2390 C   0  0  1  0  0  3  0  0  0  0  0  0
  194.8350  176.6390  145.5240 N   0  0  0  0  0  2  0  0  0  0  0  0
  192.9360  173.9460  143.0800 O   0  0  0  0  0  0  0  0  0  0  0  0
  187.1580  177.8020  146.6540 C   0  0  0  0  0  2  0  0  0  0  0  0
  188.0360  176.9460  145.7950 C   0  0  0  0  0  0  0  0  0  0  0  0
  192.2530  174.9260  143.4880 C   0  0  0  0  0  0  0  0  0  0  0  0
  188.5580  174.5440  140.2390 C   0  0  0  0  0  2  0  0  0  0  0  0
  188.6620  172.8950  138.3790 C   0  0  0  0  0  1  0  0  0  0  0  0
  188.2110  173.1290  139.8070 C   0  0  0  0  0  2  0  0  0  0  0  0
  1  5  1  6  0  0  0
  1  4  1  0  0  0  0
  1 19  1  0  0  0  0
  2 13  1  0  0  0  0
  3 10  1  0  0  0  0
  4 12  1  6  0  0  0
  4 20  1  0  0  0  0
  7 15  1  1  0  0  0
  7  9  1  0  0  0  0
  8  6  1  1  0  0  0
  8 12  1  0  0  0  0
  9 22  1  0  0  0  0
  9 14  1  1  0  0  0
 10 21  2  0  0  0  0
 11 28  1  6  0  0  0
 11  8  1  0  0  0  0
 11  5  1  0  0  0  0
 12 27  1  0  0  0  0
 13 18  2  0  0  0  0
 15 23  1  0  0  0  0
 16  2  2  0  0  0  0
 17  3  1  0  0  0  0
 18 25  1  0  0  0  0
 19  2  1  1  0  0  0
 19 26  1  0  0  0  0
 20 22  1  0  0  0  0
 20 17  1  1  0  0  0
 22 10  1  1  0  0  0
 23 14  1  0  0  0  0
 24 27  2  0  0  0  0
 26 17  2  0  0  0  0
 26 25  1  0  0  0  0
 27  7  1  0  0  0  0
 29 30  1  0  0  0  0
 30 28  1  0  0  0  0
M  END
>  <MODEL>
5

>  <REMARK>
 VINA RESULT:      -7.6      1.999      2.789
  Name = 
  2 active torsions:
  status: ('A' for Active; 'I' for Inactive)
    1  A    between atoms: C_11  and  C_28
    2  A    between atoms: C_28  and  C_30
                            x       y       z     vdW  Elec       q    Type
                         _______ _______ _______ _____ _____    ______ ____

>  <TORSDO>
F 2

$$$$
=
 OpenBabel11112416233D

 30 35  0  0  1  0  0  0  0  0999 V2000
  188.3070  176.0930  142.5680 C   0  0  2  0  0  3  0  0  0  0  0  0
  186.6900  177.1440  140.9090 C   0  0  0  0  0  0  0  0  0  0  0  0
  186.4220  178.2340  145.6430 O   0  0  0  0  0  0  0  0  0  0  0  0
  188.9610  176.3130  143.9290 C   0  0  2  0  0  3  0  0  0  0  0  0
  189.2990  175.7220  141.6590 O   0  0  0  0  0  0  0  0  0  0  0  0
  189.7140  172.8920  143.8050 O   0  0  0  0  0  1  0  0  0  0  0  0
  190.7860  176.5530  146.2250 C   0  0  1  0  0  3  0  0  0  0  0  0
  190.1490  174.1220  143.3070 C   0  0  1  0  0  3  0  0  0  0  0  0
  189.5670  177.4100  146.5860 C   0  0  2  0  0  3  0  0  0  0  0  0
  187.0910  177.7420  146.7500 C   0  0  0  0  0  0  0  0  0  0  0  0
  189.5180  174.3580  141.9150 C   0  0  2  0  0  3  0  0  0  0  0  0
  189.8330  175.1880  144.2770 N   0  0  0  0  0  0  0  0  0  0  0  0
  185.3940  177.8350  140.7700 C   0  0  0  0  0  3  0  0  0  0  0  0
  189.8020  177.8020  148.0370 C   0  0  0  0  0  2  0  0  0  0  0  0
  191.5750  176.4140  147.5100 C   0  0  0  0  0  2  0  0  0  0  0  0
  187.0990  176.4170  139.9650 O   0  0  0  0  0  0  0  0  0  0  0  0
  186.9290  177.5850  144.5370 C   0  0  0  0  0  0  0  0  0  0  0  0
  184.9450  178.6830  141.7020 C   0  0  0  0  0  3  0  0  0  0  0  0
  187.5460  177.3610  142.1350 C   0  0  1  0  0  3  0  0  0  0  0  0
  187.8270  176.4590  144.9330 C   0  0  2  0  0  3  0  0  0  0  0  0
  186.8000  178.0900  147.9250 O   0  0  0  0  0  0  0  0  0  0  0  0
  188.1770  176.7570  146.4080 C   0  0  1  0  0  3  0  0  0  0  0  0
  191.1910  177.5220  148.3690 N   0  0  0  0  0  2  0  0  0  0  0  0
  191.0150  174.1670  146.0150 O   0  0  0  0  0  0  0  0  0  0  0  0
  185.7440  179.0380  142.9280 C   0  0  0  0  0  2  0  0  0  0  0  0
  186.7010  177.9360  143.2640 C   0  0  0  0  0  0  0  0  0  0  0  0
  190.5400  175.2310  145.5280 C   0  0  0  0  0  0  0  0  0  0  0  0
  190.3950  173.7820  140.8130 C   0  0  0  0  0  2  0  0  0  0  0  0
  188.2030  172.9300  140.0000 C   0  0  0  0  0  1  0  0  0  0  0  0
  189.5770  173.4190  139.5850 C   0  0  0  0  0  2  0  0  0  0  0  0
  1  5  1  6  0  0  0
  1  4  1  0  0  0  0
  3 10  1  0  0  0  0
  4 12  1  1  0  0  0
  4 20  1  0  0  0  0
  5 11  1  0  0  0  0
  7  9  1  0  0  0  0
  7 15  1  1  0  0  0
  8  6  1  1  0  0  0
  8 12  1  0  0  0  0
  9 14  1  1  0  0  0
 10 21  2  0  0  0  0
 11 28  1  6  0  0  0
 11  8  1  0  0  0  0
 12 27  1  0  0  0  0
 13  2  1  0  0  0  0
 13 18  2  0  0  0  0
 14 23  1  0  0  0  0
 15 23  1  0  0  0  0
 16  2  2  0  0  0  0
 17  3  1  0  0  0  0
 18 25  1  0  0  0  0
 19  2  1  6  0  0  0
 19  1  1  0  0  0  0
 19 26  1  0  0  0  0
 20 17  1  6  0  0  0
 20 22  1  0  0  0  0
 22  9  1  0  0  0  0
 22 10  1  6  0  0  0
 25 26  1  0  0  0  0
 26 17  2  0  0  0  0
 27 24  2  0  0  0  0
 27  7  1  0  0  0  0
 30 29  1  0  0  0  0
 30 28  1  0  0  0  0
M  END
>  <MODEL>
6

>  <REMARK>
 VINA RESULT:      -7.5      2.096      4.073
  Name = 
  2 active torsions:
  status: ('A' for Active; 'I' for Inactive)
    1  A    between atoms: C_11  and  C_28
    2  A    between atoms: C_28  and  C_30
                            x       y       z     vdW  Elec       q    Type
                         _______ _______ _______ _____ _____    ______ ____

>  <TORSDO>
F 2

$$$$
=
 OpenBabel11112416233D

 30 35  0  0  1  0  0  0  0  0999 V2000
  189.2960  176.3440  144.9750 C   0  0  2  0  0  3  0  0  0  0  0  0
  187.7960  177.3950  146.7410 C   0  0  0  0  0  0  0  0  0  0  0  0
  186.3950  177.2490  142.0840 O   0  0  0  0  0  0  0  0  0  0  0  0
  189.2690  175.6690  143.6070 C   0  0  2  0  0  3  0  0  0  0  0  0
  190.0860  175.5740  145.8300 O   0  0  0  0  0  0  0  0  0  0  0  0
  192.7080  176.3390  143.5230 O   0  0  0  0  0  1  0  0  0  0  0  0
  189.6290  173.9200  141.2690 C   0  0  1  0  0  3  0  0  0  0  0  0
  191.7860  175.4450  144.0710 C   0  0  1  0  0  3  0  0  0  0  0  0
  188.3380  174.7000  140.9950 C   0  0  2  0  0  3  0  0  0  0  0  0
  187.0420  176.8410  140.9310 C   0  0  0  0  0  0  0  0  0  0  0  0
  191.4060  175.9180  145.4940 C   0  0  2  0  0  3  0  0  0  0  0  0
  190.6230  175.3190  143.1700 N   0  0  0  0  0  0  0  0  0  0  0  0
  186.6580  178.3080  146.9590 C   0  0  0  0  0  3  0  0  0  0  0  0
  187.9820  174.3410  139.5600 C   0  0  0  0  0  2  0  0  0  0  0  0
  189.9890  173.2630  139.9530 C   0  0  0  0  0  2  0  0  0  0  0  0
  188.6830  177.3010  147.6300 O   0  0  0  0  0  0  0  0  0  0  0  0
  187.2600  177.0320  143.1360 C   0  0  0  0  0  0  0  0  0  0  0  0
  185.6450  178.3910  146.0900 C   0  0  0  0  0  3  0  0  0  0  0  0
  187.8600  176.5350  145.5010 C   0  0  1  0  0  3  0  0  0  0  0  0
  188.6220  176.6600  142.6510 C   0  0  2  0  0  3  0  0  0  0  0  0
  186.5340  176.9790  139.7870 O   0  0  0  0  0  0  0  0  0  0  0  0
  188.3960  176.2330  141.1830 C   0  0  1  0  0  3  0  0  0  0  0  0
  188.7680  173.1810  139.1690 N   0  0  0  0  0  2  0  0  0  0  0  0
  191.9190  174.6570  141.3430 O   0  0  0  0  0  0  0  0  0  0  0  0
  185.5600  177.5270  144.8600 C   0  0  0  0  0  2  0  0  0  0  0  0
  186.9280  177.0910  144.4340 C   0  0  0  0  0  0  0  0  0  0  0  0
  190.7860  174.6650  141.9010 C   0  0  0  0  0  0  0  0  0  0  0  0
  192.3510  175.3330  146.5340 C   0  0  0  0  0  2  0  0  0  0  0  0
  194.7910  175.6610  146.1710 C   0  0  0  0  0  1  0  0  0  0  0  0
  193.5360  176.2500  146.7850 C   0  0  0  0  0  2  0  0  0  0  0  0
  1 19  1  0  0  0  0
  1  5  1  1  0  0  0
  2 13  1  0  0  0  0
  2 16  2  0  0  0  0
  3 17  1  0  0  0  0
  4 12  1  6  0  0  0
  4  1  1  0  0  0  0
  7 15  1  6  0  0  0
  7 27  1  0  0  0  0
  8  6  1  6  0  0  0
  8 11  1  0  0  0  0
  9 14  1  6  0  0  0
  9 22  1  0  0  0  0
  9  7  1  0  0  0  0
 10  3  1  0  0  0  0
 11  5  1  0  0  0  0
 11 28  1  1  0  0  0
 12  8  1  0  0  0  0
 17 26  2  0  0  0  0
 18 13  2  0  0  0  0
 19 26  1  6  0  0  0
 19  2  1  0  0  0  0
 20 17  1  1  0  0  0
 20  4  1  0  0  0  0
 21 10  2  0  0  0  0
 22 10  1  1  0  0  0
 22 20  1  0  0  0  0
 23 14  1  0  0  0  0
 23 15  1  0  0  0  0
 24 27  2  0  0  0  0
 25 18  1  0  0  0  0
 26 25  1  0  0  0  0
 27 12  1  0  0  0  0
 28 30  1  0  0  0  0
 29 30  1  0  0  0  0
M  END
>  <MODEL>
7

>  <REMARK>
 VINA RESULT:      -7.5      1.941      5.691
  Name = 
  2 active torsions:
  status: ('A' for Active; 'I' for Inactive)
    1  A    between atoms: C_11  and  C_28
    2  A    between atoms: C_28  and  C_30
                            x       y       z     vdW  Elec       q    Type
                         _______ _______ _______ _____ _____    ______ ____

>  <TORSDO>
F 2

$$$$
=
 OpenBabel11112416233D

 30 35  0  0  1  0  0  0  0  0999 V2000
  189.6400  176.1240  144.8200 C   0  0  2  0  0  3  0  0  0  0  0  0
  187.6270  177.4790  145.5850 C   0  0  0  0  0  0  0  0  0  0  0  0
  187.5940  175.2400  141.2670 O   0  0  0  0  0  0  0  0  0  0  0  0
  190.0490  174.9710  143.9080 C   0  0  2  0  0  3  0  0  0  0  0  0
  190.2210  175.9210  146.0730 O   0  0  0  0  0  0  0  0  0  0  0  0
  193.3100  176.1970  144.2940 O   0  0  0  0  0  1  0  0  0  0  0  0
  191.1870  172.5450  142.6940 C   0  0  1  0  0  3  0  0  0  0  0  0
  192.3480  175.4350  144.9590 C   0  0  1  0  0  3  0  0  0  0  0  0
  189.9650  172.8910  141.8360 C   0  0  2  0  0  3  0  0  0  0  0  0
  188.5670  174.5410  140.5740 C   0  0  0  0  0  0  0  0  0  0  0  0
  191.5490  176.3500  145.9180 C   0  0  2  0  0  3  0  0  0  0  0  0
  191.4960  174.7440  143.9710 N   0  0  0  0  0  0  0  0  0  0  0  0
  186.4030  178.1680  145.1350 C   0  0  0  0  0  3  0  0  0  0  0  0
  190.0520  171.9330  140.6570 C   0  0  0  0  0  2  0  0  0  0  0  0
  191.9510  171.5030  141.9040 C   0  0  0  0  0  2  0  0  0  0  0  0
  188.2370  177.9150  146.5980 O   0  0  0  0  0  0  0  0  0  0  0  0
  188.1470  175.6260  142.4700 C   0  0  0  0  0  0  0  0  0  0  0  0
  185.6690  177.7050  144.1180 C   0  0  0  0  0  3  0  0  0  0  0  0
  188.1030  176.2280  144.8860 C   0  0  1  0  0  3  0  0  0  0  0  0
  189.6160  175.3600  142.5020 C   0  0  2  0  0  3  0  0  0  0  0  0
  188.3890  174.1160  139.4020 O   0  0  0  0  0  0  0  0  0  0  0  0
  189.8430  174.3530  141.3520 C   0  0  1  0  0  3  0  0  0  0  0  0
  191.0080  170.8860  140.9860 N   0  0  0  0  0  2  0  0  0  0  0  0
  193.2980  173.6740  142.9390 O   0  0  0  0  0  0  0  0  0  0  0  0
  186.0000  176.4270  143.3950 C   0  0  0  0  0  2  0  0  0  0  0  0
  187.4630  176.1280  143.5080 C   0  0  0  0  0  0  0  0  0  0  0  0
  192.0580  173.6850  143.1780 C   0  0  0  0  0  0  0  0  0  0  0  0
  192.2120  176.4160  147.2860 C   0  0  0  0  0  2  0  0  0  0  0  0
  191.5660  177.8960  149.1800 C   0  0  0  0  0  1  0  0  0  0  0  0
  191.1910  176.6600  148.3860 C   0  0  0  0  0  2  0  0  0  0  0  0
  1 19  1  0  0  0  0
  1  5  1  1  0  0  0
  2 16  2  0  0  0  0
  3 17  1  0  0  0  0
  4 12  1  6  0  0  0
  4  1  1  0  0  0  0
  7 15  1  6  0  0  0
  7 27  1  0  0  0  0
  8  6  1  6  0  0  0
  8 11  1  0  0  0  0
  9 14  1  6  0  0  0
  9  7  1  0  0  0  0
 10  3  1  0  0  0  0
 11  5  1  0  0  0  0
 11 28  1  1  0  0  0
 12  8  1  0  0  0  0
 13  2  1  0  0  0  0
 14 23  1  0  0  0  0
 17 26  2  0  0  0  0
 18 13  2  0  0  0  0
 19 26  1  6  0  0  0
 19  2  1  0  0  0  0
 20 17  1  1  0  0  0
 20  4  1  0  0  0  0
 21 10  2  0  0  0  0
 22 10  1  6  0  0  0
 22  9  1  0  0  0  0
 22 20  1  0  0  0  0
 23 15  1  0  0  0  0
 24 27  2  0  0  0  0
 25 26  1  0  0  0  0
 25 18  1  0  0  0  0
 27 12  1  0  0  0  0
 28 30  1  0  0  0  0
 30 29  1  0  0  0  0
M  END
>  <MODEL>
8

>  <REMARK>
 VINA RESULT:      -7.3      2.590      5.754
  Name = 
  2 active torsions:
  status: ('A' for Active; 'I' for Inactive)
    1  A    between atoms: C_11  and  C_28
    2  A    between atoms: C_28  and  C_30
                            x       y       z     vdW  Elec       q    Type
                         _______ _______ _______ _____ _____    ______ ____

>  <TORSDO>
F 2

$$$$
=
 OpenBabel11112416233D

 30 35  0  0  1  0  0  0  0  0999 V2000
  189.1770  174.8690  143.4800 C   0  0  2  0  0  3  0  0  0  0  0  0
  186.9530  176.0170  143.0210 C   0  0  0  0  0  0  0  0  0  0  0  0
  189.6070  177.2470  146.9080 O   0  0  0  0  0  0  0  0  0  0  0  0
  190.5220  175.0650  144.1730 C   0  0  2  0  0  3  0  0  0  0  0  0
  189.4130  174.3890  142.1900 O   0  0  0  0  0  0  0  0  0  0  0  0
  190.8600  171.5890  143.8800 O   0  0  0  0  0  1  0  0  0  0  0  0
  193.3630  175.2010  144.9280 C   0  0  1  0  0  3  0  0  0  0  0  0
  190.9840  172.7620  143.1330 C   0  0  1  0  0  3  0  0  0  0  0  0
  192.6460  176.1710  145.8740 C   0  0  2  0  0  3  0  0  0  0  0  0
  190.7740  176.7260  147.4400 C   0  0  0  0  0  0  0  0  0  0  0  0
  189.6640  173.0180  142.3670 C   0  0  2  0  0  3  0  0  0  0  0  0
  191.3660  173.8760  144.0220 N   0  0  0  0  0  0  0  0  0  0  0  0
  185.8690  176.8160  143.6220 C   0  0  0  0  0  3  0  0  0  0  0  0
  193.7180  176.5780  146.8740 C   0  0  0  0  0  2  0  0  0  0  0  0
  194.7510  175.0260  145.5070 C   0  0  0  0  0  2  0  0  0  0  0  0
  186.6810  175.2320  142.0740 O   0  0  0  0  0  0  0  0  0  0  0  0
  189.3230  176.5270  145.7670 C   0  0  0  0  0  0  0  0  0  0  0  0
  186.1090  177.7240  144.5750 C   0  0  0  0  0  3  0  0  0  0  0  0
  188.3800  176.1880  143.4870 C   0  0  1  0  0  3  0  0  0  0  0  0
  190.2150  175.3370  145.6390 C   0  0  2  0  0  3  0  0  0  0  0  0
  191.2570  177.1280  148.5320 O   0  0  0  0  0  0  0  0  0  0  0  0
  191.3880  175.6400  146.5970 C   0  0  1  0  0  3  0  0  0  0  0  0
  195.0150  176.1850  146.3430 N   0  0  0  0  0  2  0  0  0  0  0  0
  193.2880  172.7990  144.7980 O   0  0  0  0  0  0  0  0  0  0  0  0
  187.4980  178.0370  145.0640 C   0  0  0  0  0  2  0  0  0  0  0  0
  188.4030  176.8640  144.8510 C   0  0  0  0  0  0  0  0  0  0  0  0
  192.6780  173.8880  144.6080 C   0  0  0  0  0  0  0  0  0  0  0  0
  189.6820  172.3380  141.0060 C   0  0  0  0  0  2  0  0  0  0  0  0
  188.1950  172.9030  139.0930 C   0  0  0  0  0  1  0  0  0  0  0  0
  189.4140  173.3300  139.8870 C   0  0  0  0  0  2  0  0  0  0  0  0
  1  5  1  6  0  0  0
  1 19  1  0  0  0  0
  1  4  1  0  0  0  0
  2 13  1  0  0  0  0
  3 10  1  0  0  0  0
  4 12  1  1  0  0  0
  4 20  1  0  0  0  0
  5 11  1  0  0  0  0
  7 15  1  1  0  0  0
  7  9  1  0  0  0  0
  8  6  1  1  0  0  0
  8 12  1  0  0  0  0
  9 22  1  0  0  0  0
  9 14  1  1  0  0  0
 10 21  2  0  0  0  0
 11 28  1  6  0  0  0
 11  8  1  0  0  0  0
 12 27  1  0  0  0  0
 13 18  2  0  0  0  0
 15 23  1  0  0  0  0
 16  2  2  0  0  0  0
 17  3  1  0  0  0  0
 18 25  1  0  0  0  0
 19  2  1  1  0  0  0
 19 26  1  0  0  0  0
 20 17  1  6  0  0  0
 20 22  1  0  0  0  0
 22 10  1  1  0  0  0
 23 14  1  0  0  0  0
 26 25  1  0  0  0  0
 26 17  2  0  0  0  0
 27 24  2  0  0  0  0
 27  7  1  0  0  0  0
 29 30  1  0  0  0  0
 30 28  1  0  0  0  0
M  END
>  <MODEL>
9

>  <REMARK>
 VINA RESULT:      -7.3      2.421      3.783
  Name = 
  2 active torsions:
  status: ('A' for Active; 'I' for Inactive)
    1  A    between atoms: C_11  and  C_28
    2  A    between atoms: C_28  and  C_30
                            x       y       z     vdW  Elec       q    Type
                         _______ _______ _______ _____ _____    ______ ____

>  <TORSDO>
F 2

$$$$
