=
 OpenBabel11112417523D

 34 41  0  0  1  0  0  0  0  0999 V2000
  189.4810  174.8950  142.2870 C   0  0  0  0  0  0  0  0  0  0  0  0
  190.7410  172.9330  143.2730 C   0  0  0  0  0  2  0  0  0  0  0  0
  184.4340  178.6400  143.8350 C   0  0  0  0  0  0  0  0  0  0  0  0
  187.6510  176.3890  141.8040 C   0  0  0  0  0  0  0  0  0  0  0  0
  186.7900  177.9850  143.4630 C   0  0  0  0  0  0  0  0  0  0  0  0
  185.9400  179.3460  145.4060 C   0  0  0  0  0  2  0  0  0  0  0  0
  184.2160  178.9860  145.6100 S   0  0  0  0  0  0  0  0  0  0  0  0
  184.2380  177.9720  141.5680 C   0  0  0  0  0  3  0  0  0  0  0  0
  190.8610  175.0630  144.3940 C   0  0  1  0  0  3  0  0  0  0  0  0
  192.1080  175.8250  146.9610 C   0  0  0  0  0  2  0  0  0  0  0  0
  188.0620  177.7540  144.2500 C   0  0  0  0  0  2  0  0  0  0  0  0
  185.5120  177.6370  141.3070 C   0  0  0  0  0  3  0  0  0  0  0  0
  189.9090  176.1950  144.8810 C   0  0  1  0  0  3  0  0  0  0  0  0
  191.4590  172.7270  144.6010 C   0  0  0  0  0  2  0  0  0  0  0  0
  186.6380  177.3830  142.2510 C   0  0  0  0  0  0  0  0  0  0  0  0
  183.7010  178.1960  142.8750 N   0  0  0  0  0  0  0  0  0  0  0  0
  192.2670  174.3960  146.4000 C   0  0  1  0  0  3  0  0  0  0  0  0
  188.6090  175.8990  142.7050 C   0  0  0  0  0  0  0  0  0  0  0  0
  185.8700  179.0830  143.9350 C   0  0  2  0  0  3  0  0  0  0  0  0
  188.5570  176.3110  144.1540 C   0  0  2  0  0  3  0  0  0  0  0  0
  188.4820  174.9550  140.1300 N   0  0  0  0  0  0  0  0  0  0  0  0
  190.6800  176.1400  147.3050 C   0  0  0  0  0  3  0  0  0  0  0  0
  187.6290  175.9000  140.5330 N   0  0  0  0  0  0  0  0  0  0  0  0
  189.7120  176.2830  146.3830 C   0  0  0  0  0  3  0  0  0  0  0  0
  191.1580  173.9810  145.4120 C   0  0  1  0  0  3  0  0  0  0  0  0
  189.4060  174.4290  140.9740 C   0  0  0  0  0  3  0  0  0  0  0  0
  190.4150  174.3470  143.2140 N   0  0  0  0  0  0  0  0  0  0  0  0
  193.5800  174.1080  145.9600 O   0  0  0  0  0  0  0  0  0  0  0  0
  194.3120  175.3080  145.8710 C   0  0  0  0  0  2  0  0  0  0  0  0
  194.1610  174.0460  142.7720 O   0  0  0  0  0  0  0  0  0  0  0  0
  194.0750  176.2620  143.5790 C   0  0  0  0  0  2  0  0  0  0  0  0
  194.9550  175.4670  144.4960 C   0  0  2  0  0  3  0  0  0  0  0  0
  193.9280  175.3690  142.3710 C   0  0  0  0  0  2  0  0  0  0  0  0
  195.1100  174.1310  143.8020 C   0  0  0  0  0  2  0  0  0  0  0  0
  1 18  1  0  0  0  0
  1 27  1  0  0  0  0
  2 14  1  0  0  0  0
  3 19  1  0  0  0  0
  3  7  1  0  0  0  0
  4 15  1  0  0  0  0
  4 18  2  0  0  0  0
  5 19  1  0  0  0  0
  5 11  1  0  0  0  0
  6  7  1  0  0  0  0
  8 16  1  0  0  0  0
  9 27  1  6  0  0  0
  9 13  1  0  0  0  0
  9 25  1  0  0  0  0
 10 22  1  0  0  0  0
 12  8  2  0  0  0  0
 12 15  1  0  0  0  0
 13 24  1  1  0  0  0
 15  5  2  0  0  0  0
 16  3  2  0  0  0  0
 17 28  1  6  0  0  0
 17 10  1  0  0  0  0
 18 20  1  0  0  0  0
 19  6  1  1  0  0  0
 20 11  1  6  0  0  0
 20 13  1  0  0  0  0
 21 23  2  0  0  0  0
 21 26  1  0  0  0  0
 23  4  1  0  0  0  0
 24 22  2  0  0  0  0
 25 14  1  6  0  0  0
 25 17  1  0  0  0  0
 26  1  2  0  0  0  0
 27  2  1  0  0  0  0
 29 28  1  0  0  0  0
 30 34  1  0  0  0  0
 31 32  1  0  0  0  0
 32 29  1  1  0  0  0
 33 30  1  0  0  0  0
 33 31  1  0  0  0  0
 34 32  1  0  0  0  0
M  END
>  <MODEL>
1

>  <REMARK>
 VINA RESULT:      -8.4      0.000      0.000
  Name = 
  3 active torsions:
  status: ('A' for Active; 'I' for Inactive)
    1  A    between atoms: C_17  and  O_28
    2  A    between atoms: O_28  and  C_29
    3  A    between atoms: C_29  and  C_32
                            x       y       z     vdW  Elec       q    Type
                         _______ _______ _______ _____ _____    ______ ____

>  <TORSDO>
F 3

$$$$
=
 OpenBabel11112417523D

 34 41  0  0  1  0  0  0  0  0999 V2000
  188.1780  175.2220  141.5640 C   0  0  0  0  0  0  0  0  0  0  0  0
  187.0100  176.8450  140.0100 C   0  0  0  0  0  2  0  0  0  0  0  0
  192.0190  175.4600  146.7680 C   0  0  0  0  0  0  0  0  0  0  0  0
  189.8250  174.3510  143.0940 C   0  0  0  0  0  0  0  0  0  0  0  0
  189.9700  175.1010  145.4290 C   0  0  0  0  0  0  0  0  0  0  0  0
  190.0640  176.2080  147.6910 C   0  0  0  0  0  2  0  0  0  0  0  0
  191.7070  176.8320  147.9240 S   0  0  0  0  0  0  0  0  0  0  0  0
  192.9030  173.8940  145.2220 C   0  0  0  0  0  3  0  0  0  0  0  0
  186.2820  176.7160  142.3040 C   0  0  1  0  0  3  0  0  0  0  0  0
  184.3030  178.3240  143.7940 C   0  0  0  0  0  2  0  0  0  0  0  0
  188.5850  175.6860  145.2600 C   0  0  0  0  0  2  0  0  0  0  0  0
  191.8090  173.6390  144.4870 C   0  0  0  0  0  3  0  0  0  0  0  0
  186.8910  176.7130  143.7370 C   0  0  1  0  0  3  0  0  0  0  0  0
  186.0070  177.9670  140.2500 C   0  0  0  0  0  2  0  0  0  0  0  0
  190.5240  174.3940  144.4060 C   0  0  0  0  0  0  0  0  0  0  0  0
  193.0370  174.9800  146.1440 N   0  0  0  0  0  0  0  0  0  0  0  0
  184.5130  178.5360  142.2790 C   0  0  1  0  0  3  0  0  0  0  0  0
  188.7490  175.2130  142.8360 C   0  0  0  0  0  0  0  0  0  0  0  0
  190.5580  175.0970  146.8180 C   0  0  2  0  0  3  0  0  0  0  0  0
  188.3550  176.2490  143.8570 C   0  0  2  0  0  3  0  0  0  0  0  0
  189.6900  173.5120  140.8970 N   0  0  0  0  0  0  0  0  0  0  0  0
  185.5260  178.6830  144.5890 C   0  0  0  0  0  3  0  0  0  0  0  0
  190.2550  173.5170  142.1060 N   0  0  0  0  0  0  0  0  0  0  0  0
  186.6700  177.9800  144.5440 C   0  0  0  0  0  3  0  0  0  0  0  0
  185.8920  178.0770  141.7660 C   0  0  1  0  0  3  0  0  0  0  0  0
  188.6650  174.3490  140.5910 C   0  0  0  0  0  3  0  0  0  0  0  0
  187.1250  176.1390  141.2750 N   0  0  0  0  0  0  0  0  0  0  0  0
  183.4210  178.0990  141.4950 O   0  0  0  0  0  0  0  0  0  0  0  0
  182.2200  178.5380  142.0850 C   0  0  0  0  0  2  0  0  0  0  0  0
  178.8910  178.8910  141.9770 O   0  0  0  0  0  0  0  0  0  0  0  0
  180.6180  179.7970  140.6480 C   0  0  0  0  0  2  0  0  0  0  0  0
  181.0510  178.4380  141.1100 C   0  0  2  0  0  3  0  0  0  0  0  0
  179.1410  179.8190  140.9570 C   0  0  0  0  0  2  0  0  0  0  0  0
  179.8220  177.8600  141.7800 C   0  0  0  0  0  2  0  0  0  0  0  0
  1 18  1  0  0  0  0
  2 14  1  0  0  0  0
  2 27  1  0  0  0  0
  3 19  1  0  0  0  0
  3  7  1  0  0  0  0
  4 15  1  0  0  0  0
  5 19  1  0  0  0  0
  6  7  1  0  0  0  0
  8 16  1  0  0  0  0
  9 27  1  6  0  0  0
  9 13  1  0  0  0  0
 10 22  1  0  0  0  0
 11  5  1  0  0  0  0
 12  8  2  0  0  0  0
 13 20  1  0  0  0  0
 13 24  1  6  0  0  0
 15 12  1  0  0  0  0
 15  5  2  0  0  0  0
 16  3  2  0  0  0  0
 17 28  1  6  0  0  0
 17 10  1  0  0  0  0
 18  4  2  0  0  0  0
 18 20  1  0  0  0  0
 19  6  1  1  0  0  0
 20 11  1  1  0  0  0
 21 23  2  0  0  0  0
 23  4  1  0  0  0  0
 24 22  2  0  0  0  0
 25 14  1  6  0  0  0
 25 17  1  0  0  0  0
 25  9  1  0  0  0  0
 26 21  1  0  0  0  0
 26  1  2  0  0  0  0
 27  1  1  0  0  0  0
 28 29  1  0  0  0  0
 31 33  1  0  0  0  0
 31 32  1  0  0  0  0
 32 34  1  0  0  0  0
 32 29  1  1  0  0  0
 33 30  1  0  0  0  0
 34 30  1  0  0  0  0
M  END
>  <MODEL>
2

>  <REMARK>
 VINA RESULT:      -8.0      4.139      8.613
  Name = 
  3 active torsions:
  status: ('A' for Active; 'I' for Inactive)
    1  A    between atoms: C_17  and  O_28
    2  A    between atoms: O_28  and  C_29
    3  A    between atoms: C_29  and  C_32
                            x       y       z     vdW  Elec       q    Type
                         _______ _______ _______ _____ _____    ______ ____

>  <TORSDO>
F 3

$$$$
=
 OpenBabel11112417523D

 34 41  0  0  1  0  0  0  0  0999 V2000
  189.0580  175.2450  142.3160 C   0  0  0  0  0  0  0  0  0  0  0  0
  190.3210  173.0700  142.6120 C   0  0  0  0  0  2  0  0  0  0  0  0
  184.6030  178.6930  145.5030 C   0  0  0  0  0  0  0  0  0  0  0  0
  187.2830  176.8670  142.5000 C   0  0  0  0  0  0  0  0  0  0  0  0
  186.8160  178.0660  144.5930 C   0  0  0  0  0  0  0  0  0  0  0  0
  186.3890  178.9720  146.9050 C   0  0  0  0  0  2  0  0  0  0  0  0
  184.7000  178.6300  147.3210 S   0  0  0  0  0  0  0  0  0  0  0  0
  183.9970  178.5690  143.2140 C   0  0  0  0  0  3  0  0  0  0  0  0
  190.7690  174.8820  144.1370 C   0  0  1  0  0  3  0  0  0  0  0  0
  192.4650  174.9960  146.5520 C   0  0  0  0  0  2  0  0  0  0  0  0
  188.1790  177.6220  145.0760 C   0  0  0  0  0  2  0  0  0  0  0  0
  185.1840  178.2620  142.6680 C   0  0  0  0  0  3  0  0  0  0  0  0
  189.9900  175.9020  145.0190 C   0  0  1  0  0  3  0  0  0  0  0  0
  191.2270  172.5420  143.7170 C   0  0  0  0  0  2  0  0  0  0  0  0
  186.4280  177.7620  143.3230 C   0  0  0  0  0  0  0  0  0  0  0  0
  183.6950  178.5030  144.6110 N   0  0  0  0  0  0  0  0  0  0  0  0
  192.4310  173.7290  145.6710 C   0  0  1  0  0  3  0  0  0  0  0  0
  188.3370  176.1530  143.0910 C   0  0  0  0  0  0  0  0  0  0  0  0
  186.0640  179.0560  145.4470 C   0  0  2  0  0  3  0  0  0  0  0  0
  188.5490  176.2230  144.5810 C   0  0  2  0  0  3  0  0  0  0  0  0
  187.7300  175.8290  140.4330 N   0  0  0  0  0  0  0  0  0  0  0  0
  191.1370  175.2690  147.2000 C   0  0  0  0  0  3  0  0  0  0  0  0
  187.0220  176.6820  141.1760 N   0  0  0  0  0  0  0  0  0  0  0  0
  190.0450  175.6490  146.5140 C   0  0  0  0  0  3  0  0  0  0  0  0
  191.1510  173.5870  144.8240 C   0  0  1  0  0  3  0  0  0  0  0  0
  188.7390  175.0940  140.9670 C   0  0  0  0  0  3  0  0  0  0  0  0
  190.0900  174.4700  142.9240 N   0  0  0  0  0  0  0  0  0  0  0  0
  193.6320  173.5090  144.9580 O   0  0  0  0  0  0  0  0  0  0  0  0
  194.3790  172.5060  145.6060 C   0  0  0  0  0  2  0  0  0  0  0  0
  196.7220  174.4350  144.1870 O   0  0  0  0  0  0  0  0  0  0  0  0
  196.7870  172.9810  146.0440 C   0  0  0  0  0  2  0  0  0  0  0  0
  195.8010  172.4300  145.0580 C   0  0  2  0  0  3  0  0  0  0  0  0
  197.5380  174.0210  145.2490 C   0  0  0  0  0  2  0  0  0  0  0  0
  195.9680  173.3050  143.8340 C   0  0  0  0  0  2  0  0  0  0  0  0
  1 27  1  0  0  0  0
  1 18  1  0  0  0  0
  2 27  1  0  0  0  0
  2 14  1  0  0  0  0
  3  7  1  0  0  0  0
  4 18  2  0  0  0  0
  4 15  1  0  0  0  0
  5 11  1  0  0  0  0
  5 19  1  0  0  0  0
  6  7  1  0  0  0  0
  8 16  1  0  0  0  0
  9 27  1  6  0  0  0
  9 25  1  0  0  0  0
  9 13  1  0  0  0  0
 10 22  1  0  0  0  0
 12  8  2  0  0  0  0
 12 15  1  0  0  0  0
 13 24  1  1  0  0  0
 15  5  2  0  0  0  0
 16  3  2  0  0  0  0
 17 28  1  6  0  0  0
 17 10  1  0  0  0  0
 18 20  1  0  0  0  0
 19  3  1  0  0  0  0
 19  6  1  1  0  0  0
 20 13  1  0  0  0  0
 20 11  1  6  0  0  0
 21 26  1  0  0  0  0
 21 23  2  0  0  0  0
 23  4  1  0  0  0  0
 24 22  2  0  0  0  0
 25 14  1  6  0  0  0
 25 17  1  0  0  0  0
 26  1  2  0  0  0  0
 28 29  1  0  0  0  0
 30 33  1  0  0  0  0
 32 29  1  1  0  0  0
 32 31  1  0  0  0  0
 33 31  1  0  0  0  0
 34 30  1  0  0  0  0
 34 32  1  0  0  0  0
M  END
>  <MODEL>
3

>  <REMARK>
 VINA RESULT:      -7.9      1.394      1.808
  Name = 
  3 active torsions:
  status: ('A' for Active; 'I' for Inactive)
    1  A    between atoms: C_17  and  O_28
    2  A    between atoms: O_28  and  C_29
    3  A    between atoms: C_29  and  C_32
                            x       y       z     vdW  Elec       q    Type
                         _______ _______ _______ _____ _____    ______ ____

>  <TORSDO>
F 3

$$$$
=
 OpenBabel11112417523D

 34 41  0  0  1  0  0  0  0  0999 V2000
  188.8380  174.7840  141.6250 C   0  0  0  0  0  0  0  0  0  0  0  0
  188.7170  177.2130  142.3320 C   0  0  0  0  0  2  0  0  0  0  0  0
  193.1040  169.9200  141.8290 C   0  0  0  0  0  0  0  0  0  0  0  0
  189.7870  172.6900  140.8980 C   0  0  0  0  0  0  0  0  0  0  0  0
  191.1020  171.2560  142.4000 C   0  0  0  0  0  0  0  0  0  0  0  0
  192.6070  170.0970  144.0550 C   0  0  0  0  0  2  0  0  0  0  0  0
  194.1910  169.8770  143.2900 S   0  0  0  0  0  0  0  0  0  0  0  0
  192.1450  170.0210  139.6630 C   0  0  0  0  0  3  0  0  0  0  0  0
  188.8390  175.5170  144.0410 C   0  0  1  0  0  3  0  0  0  0  0  0
  189.0880  175.7490  146.9750 C   0  0  0  0  0  2  0  0  0  0  0  0
  190.5400  172.0580  143.5530 C   0  0  0  0  0  2  0  0  0  0  0  0
  191.0260  170.7130  139.9290 C   0  0  0  0  0  3  0  0  0  0  0  0
  189.6700  174.2470  144.3860 C   0  0  1  0  0  3  0  0  0  0  0  0
  188.9000  177.9090  143.6750 C   0  0  0  0  0  2  0  0  0  0  0  0
  190.6730  171.5190  141.1340 C   0  0  0  0  0  0  0  0  0  0  0  0
  193.2580  169.8890  140.5520 N   0  0  0  0  0  0  0  0  0  0  0  0
  188.9170  177.0060  146.0960 C   0  0  1  0  0  3  0  0  0  0  0  0
  189.5920  173.6460  141.9070 C   0  0  0  0  0  0  0  0  0  0  0  0
  191.9060  170.0250  142.7350 C   0  0  2  0  0  3  0  0  0  0  0  0
  190.3520  173.5350  143.2030 C   0  0  2  0  0  3  0  0  0  0  0  0
  188.4590  173.9620  139.4270 N   0  0  0  0  0  0  0  0  0  0  0  0
  190.3820  175.0380  146.6970 C   0  0  0  0  0  3  0  0  0  0  0  0
  189.1990  172.8820  139.6850 N   0  0  0  0  0  0  0  0  0  0  0  0
  190.6390  174.3950  145.5450 C   0  0  0  0  0  3  0  0  0  0  0  0
  189.3560  176.8130  144.6300 C   0  0  1  0  0  3  0  0  0  0  0  0
  188.2660  174.9280  140.3620 C   0  0  0  0  0  3  0  0  0  0  0  0
  188.6880  175.7900  142.6250 N   0  0  0  0  0  0  0  0  0  0  0  0
  187.6580  177.6330  146.2520 O   0  0  0  0  0  0  0  0  0  0  0  0
  186.7520  176.7180  146.8200 C   0  0  0  0  0  2  0  0  0  0  0  0
  184.5270  179.0060  145.8020 O   0  0  0  0  0  0  0  0  0  0  0  0
  185.4920  177.1490  144.7110 C   0  0  0  0  0  2  0  0  0  0  0  0
  185.3750  176.8220  146.1700 C   0  0  2  0  0  3  0  0  0  0  0  0
  184.6250  178.3740  144.5550 C   0  0  0  0  0  2  0  0  0  0  0  0
  184.5780  177.9710  146.7490 C   0  0  0  0  0  2  0  0  0  0  0  0
  1 18  1  0  0  0  0
  1 27  1  0  0  0  0
  2 27  1  0  0  0  0
  2 14  1  0  0  0  0
  3 19  1  0  0  0  0
  3  7  1  0  0  0  0
  4 15  1  0  0  0  0
  4 18  2  0  0  0  0
  5 19  1  0  0  0  0
  5 11  1  0  0  0  0
  7  6  1  0  0  0  0
  8 12  2  0  0  0  0
  8 16  1  0  0  0  0
  9 27  1  6  0  0  0
  9 13  1  0  0  0  0
  9 25  1  0  0  0  0
 12 15  1  0  0  0  0
 13 24  1  1  0  0  0
 15  5  2  0  0  0  0
 16  3  2  0  0  0  0
 17 28  1  6  0  0  0
 17 10  1  0  0  0  0
 18 20  1  0  0  0  0
 19  6  1  1  0  0  0
 20 11  1  1  0  0  0
 20 13  1  0  0  0  0
 21 23  2  0  0  0  0
 21 26  1  0  0  0  0
 22 10  1  0  0  0  0
 23  4  1  0  0  0  0
 24 22  2  0  0  0  0
 25 14  1  6  0  0  0
 25 17  1  0  0  0  0
 26  1  2  0  0  0  0
 28 29  1  0  0  0  0
 30 34  1  0  0  0  0
 31 32  1  0  0  0  0
 32 34  1  0  0  0  0
 32 29  1  1  0  0  0
 33 31  1  0  0  0  0
 33 30  1  0  0  0  0
M  END
>  <MODEL>
4

>  <REMARK>
 VINA RESULT:      -7.8      3.911      7.551
  Name = 
  3 active torsions:
  status: ('A' for Active; 'I' for Inactive)
    1  A    between atoms: C_17  and  O_28
    2  A    between atoms: O_28  and  C_29
    3  A    between atoms: C_29  and  C_32
                            x       y       z     vdW  Elec       q    Type
                         _______ _______ _______ _____ _____    ______ ____

>  <TORSDO>
F 3

$$$$
=
 OpenBabel11112417523D

 34 41  0  0  1  0  0  0  0  0999 V2000
  192.4360  176.4420  145.7630 C   0  0  0  0  0  0  0  0  0  0  0  0
  190.3200  175.6260  146.8900 C   0  0  0  0  0  2  0  0  0  0  0  0
  196.3650  174.5650  140.9740 C   0  0  0  0  0  0  0  0  0  0  0  0
  194.5300  176.3670  144.5690 C   0  0  0  0  0  0  0  0  0  0  0  0
  194.6480  175.8920  142.1610 C   0  0  0  0  0  0  0  0  0  0  0  0
  194.5180  175.1480  139.7580 C   0  0  0  0  0  2  0  0  0  0  0  0
  195.5630  173.7280  139.5700 S   0  0  0  0  0  0  0  0  0  0  0  0
  197.6730  175.1990  142.8480 C   0  0  0  0  0  3  0  0  0  0  0  0
  190.1970  176.3630  144.5980 C   0  0  1  0  0  3  0  0  0  0  0  0
  187.9590  176.3080  142.6720 C   0  0  0  0  0  2  0  0  0  0  0  0
  193.1650  176.1820  142.0970 C   0  0  0  0  0  2  0  0  0  0  0  0
  196.7870  175.9580  143.5130 C   0  0  0  0  0  3  0  0  0  0  0  0
  190.9490  176.1550  143.2510 C   0  0  1  0  0  3  0  0  0  0  0  0
  188.9280  175.2990  146.3640 C   0  0  0  0  0  2  0  0  0  0  0  0
  195.3090  176.0600  143.3400 C   0  0  0  0  0  0  0  0  0  0  0  0
  197.3520  174.3220  141.7640 N   0  0  0  0  0  0  0  0  0  0  0  0
  187.7490  175.8720  144.1370 C   0  0  1  0  0  3  0  0  0  0  0  0
  193.1310  176.2460  144.5700 C   0  0  0  0  0  0  0  0  0  0  0  0
  195.3760  175.6940  140.8550 C   0  0  2  0  0  3  0  0  0  0  0  0
  192.4220  175.7190  143.3500 C   0  0  2  0  0  3  0  0  0  0  0  0
  194.4910  176.9220  146.8580 N   0  0  0  0  0  0  0  0  0  0  0  0
  188.9040  175.3970  141.9410 C   0  0  0  0  0  3  0  0  0  0  0  0
  195.1630  176.7120  145.7250 N   0  0  0  0  0  0  0  0  0  0  0  0
  190.2180  175.3210  142.2150 C   0  0  0  0  0  3  0  0  0  0  0  0
  189.0400  175.4180  144.8490 C   0  0  1  0  0  3  0  0  0  0  0  0
  193.1400  176.7880  146.9160 C   0  0  0  0  0  3  0  0  0  0  0  0
  191.0210  176.2600  145.7870 N   0  0  0  0  0  0  0  0  0  0  0  0
  186.9560  176.7740  144.8840 O   0  0  0  0  0  0  0  0  0  0  0  0
  186.9770  178.0360  144.2590 C   0  0  0  0  0  2  0  0  0  0  0  0
  183.7570  178.8030  144.7770 O   0  0  0  0  0  0  0  0  0  0  0  0
  185.5530  178.4430  146.2660 C   0  0  0  0  0  2  0  0  0  0  0  0
  186.1060  179.0410  145.0070 C   0  0  2  0  0  3  0  0  0  0  0  0
  184.0660  178.6660  146.1380 C   0  0  0  0  0  2  0  0  0  0  0  0
  184.8800  179.4160  144.2010 C   0  0  0  0  0  2  0  0  0  0  0  0
  1 27  1  0  0  0  0
  1 26  1  0  0  0  0
  3 16  2  0  0  0  0
  4 18  1  0  0  0  0
  4 23  2  0  0  0  0
  5 15  2  0  0  0  0
  7  6  1  0  0  0  0
  7  3  1  0  0  0  0
  8 12  2  0  0  0  0
  9 25  1  0  0  0  0
  9 27  1  1  0  0  0
 10 17  1  0  0  0  0
 11  5  1  0  0  0  0
 13 24  1  6  0  0  0
 13 20  1  0  0  0  0
 13  9  1  0  0  0  0
 14  2  1  0  0  0  0
 15 12  1  0  0  0  0
 15  4  1  0  0  0  0
 16  8  1  0  0  0  0
 17 25  1  0  0  0  0
 17 28  1  1  0  0  0
 18  1  2  0  0  0  0
 19  6  1  6  0  0  0
 19  3  1  0  0  0  0
 19  5  1  0  0  0  0
 20 11  1  6  0  0  0
 20 18  1  0  0  0  0
 21 26  2  0  0  0  0
 22 24  2  0  0  0  0
 22 10  1  0  0  0  0
 23 21  1  0  0  0  0
 25 14  1  1  0  0  0
 27  2  1  0  0  0  0
 29 28  1  0  0  0  0
 30 33  1  0  0  0  0
 32 29  1  6  0  0  0
 32 31  1  0  0  0  0
 33 31  1  0  0  0  0
 34 30  1  0  0  0  0
 34 32  1  0  0  0  0
M  END
>  <MODEL>
5

>  <REMARK>
 VINA RESULT:      -7.6      4.062      8.575
  Name = 
  3 active torsions:
  status: ('A' for Active; 'I' for Inactive)
    1  A    between atoms: C_17  and  O_28
    2  A    between atoms: O_28  and  C_29
    3  A    between atoms: C_29  and  C_32
                            x       y       z     vdW  Elec       q    Type
                         _______ _______ _______ _____ _____    ______ ____

>  <TORSDO>
F 3

$$$$
=
 OpenBabel11112417523D

 34 41  0  0  1  0  0  0  0  0999 V2000
  190.3160  173.9140  141.4250 C   0  0  0  0  0  0  0  0  0  0  0  0
  188.1920  175.1950  140.9120 C   0  0  0  0  0  2  0  0  0  0  0  0
  196.5990  175.1820  142.3240 C   0  0  0  0  0  0  0  0  0  0  0  0
  192.6620  173.3610  141.4700 C   0  0  0  0  0  0  0  0  0  0  0  0
  194.2670  174.5740  142.8820 C   0  0  0  0  0  0  0  0  0  0  0  0
  195.7360  176.1210  144.2220 C   0  0  0  0  0  2  0  0  0  0  0  0
  196.9820  176.7650  143.1380 S   0  0  0  0  0  0  0  0  0  0  0  0
  196.3830  173.3230  140.8670 C   0  0  0  0  0  3  0  0  0  0  0  0
  189.2670  175.5470  143.0400 C   0  0  1  0  0  3  0  0  0  0  0  0
  188.6570  177.4460  145.2190 C   0  0  0  0  0  2  0  0  0  0  0  0
  193.0820  175.1250  143.6440 C   0  0  0  0  0  2  0  0  0  0  0  0
  195.1320  172.9330  141.1610 C   0  0  0  0  0  3  0  0  0  0  0  0
  190.6860  175.8330  143.6120 C   0  0  1  0  0  3  0  0  0  0  0  0
  187.4880  176.3510  141.6100 C   0  0  0  0  0  2  0  0  0  0  0  0
  194.0570  173.6670  141.8890 C   0  0  0  0  0  0  0  0  0  0  0  0
  196.9630  174.5740  141.2490 N   0  0  0  0  0  0  0  0  0  0  0  0
  187.7370  177.3400  143.9840 C   0  0  1  0  0  3  0  0  0  0  0  0
  191.5980  174.1620  141.9130 C   0  0  0  0  0  0  0  0  0  0  0  0
  195.6410  174.8510  143.4380 C   0  0  2  0  0  3  0  0  0  0  0  0
  191.8760  175.3890  142.7420 C   0  0  2  0  0  3  0  0  0  0  0  0
  191.1710  172.0900  140.1630 N   0  0  0  0  0  0  0  0  0  0  0  0
  190.0270  177.9490  144.8610 C   0  0  0  0  0  3  0  0  0  0  0  0
  192.4050  172.3390  140.6090 N   0  0  0  0  0  0  0  0  0  0  0  0
  190.9090  177.2400  144.1360 C   0  0  0  0  0  3  0  0  0  0  0  0
  188.4320  176.7720  142.7300 C   0  0  1  0  0  3  0  0  0  0  0  0
  190.1150  172.8560  140.5390 C   0  0  0  0  0  3  0  0  0  0  0  0
  189.2400  174.7630  141.8210 N   0  0  0  0  0  0  0  0  0  0  0  0
  186.4790  176.7610  144.2690 O   0  0  0  0  0  0  0  0  0  0  0  0
  185.4890  177.7620  144.2320 C   0  0  0  0  0  2  0  0  0  0  0  0
  186.0690  177.1480  147.4740 O   0  0  0  0  0  0  0  0  0  0  0  0
  185.5070  179.1280  146.3180 C   0  0  0  0  0  2  0  0  0  0  0  0
  184.8630  177.9750  145.6070 C   0  0  2  0  0  3  0  0  0  0  0  0
  185.9300  178.5330  147.6390 C   0  0  0  0  0  2  0  0  0  0  0  0
  185.1090  176.7900  146.5150 C   0  0  0  0  0  2  0  0  0  0  0  0
  1 27  1  0  0  0  0
  1 18  1  0  0  0  0
  2 14  1  0  0  0  0
  2 27  1  0  0  0  0
  3  7  1  0  0  0  0
  3 19  1  0  0  0  0
  4 15  1  0  0  0  0
  4 18  2  0  0  0  0
  5 19  1  0  0  0  0
  5 11  1  0  0  0  0
  7  6  1  0  0  0  0
  8 12  2  0  0  0  0
  8 16  1  0  0  0  0
  9 27  1  6  0  0  0
  9 13  1  0  0  0  0
 12 15  1  0  0  0  0
 13 24  1  6  0  0  0
 15  5  2  0  0  0  0
 16  3  2  0  0  0  0
 17 28  1  1  0  0  0
 17 10  1  0  0  0  0
 18 20  1  0  0  0  0
 19  6  1  1  0  0  0
 20 13  1  0  0  0  0
 20 11  1  1  0  0  0
 21 26  1  0  0  0  0
 21 23  2  0  0  0  0
 22 10  1  0  0  0  0
 23  4  1  0  0  0  0
 24 22  2  0  0  0  0
 25 14  1  6  0  0  0
 25  9  1  0  0  0  0
 25 17  1  0  0  0  0
 26  1  2  0  0  0  0
 29 28  1  0  0  0  0
 30 33  1  0  0  0  0
 31 33  1  0  0  0  0
 32 29  1  6  0  0  0
 32 31  1  0  0  0  0
 32 34  1  0  0  0  0
 34 30  1  0  0  0  0
M  END
>  <MODEL>
6

>  <REMARK>
 VINA RESULT:      -7.5      3.706      7.927
  Name = 
  3 active torsions:
  status: ('A' for Active; 'I' for Inactive)
    1  A    between atoms: C_17  and  O_28
    2  A    between atoms: O_28  and  C_29
    3  A    between atoms: C_29  and  C_32
                            x       y       z     vdW  Elec       q    Type
                         _______ _______ _______ _____ _____    ______ ____

>  <TORSDO>
F 3

$$$$
=
 OpenBabel11112417523D

 34 41  0  0  1  0  0  0  0  0999 V2000
  188.1050  175.7890  141.2880 C   0  0  0  0  0  0  0  0  0  0  0  0
  188.4280  177.9430  142.5790 C   0  0  0  0  0  2  0  0  0  0  0  0
  191.5460  170.5140  139.7920 C   0  0  0  0  0  0  0  0  0  0  0  0
  188.6480  173.8480  139.9640 C   0  0  0  0  0  0  0  0  0  0  0  0
  189.8330  171.9110  140.9020 C   0  0  0  0  0  0  0  0  0  0  0  0
  191.2600  170.1710  142.0350 C   0  0  0  0  0  2  0  0  0  0  0  0
  192.7240  169.9480  141.0600 S   0  0  0  0  0  0  0  0  0  0  0  0
  190.4470  171.3020  137.8440 C   0  0  0  0  0  3  0  0  0  0  0  0
  188.4130  175.8610  143.7930 C   0  0  1  0  0  3  0  0  0  0  0  0
  188.9270  175.2860  146.6440 C   0  0  0  0  0  2  0  0  0  0  0  0
  189.4980  172.4530  142.2750 C   0  0  0  0  0  2  0  0  0  0  0  0
  189.4760  172.0450  138.4010 C   0  0  0  0  0  3  0  0  0  0  0  0
  189.0570  174.4450  143.7160 C   0  0  1  0  0  3  0  0  0  0  0  0
  188.8240  178.2350  144.0210 C   0  0  0  0  0  2  0  0  0  0  0  0
  189.3530  172.5490  139.8000 C   0  0  0  0  0  0  0  0  0  0  0  0
  191.5910  170.7960  138.5370 N   0  0  0  0  0  0  0  0  0  0  0  0
  188.8890  176.7400  146.1270 C   0  0  1  0  0  3  0  0  0  0  0  0
  188.6880  174.5260  141.1920 C   0  0  0  0  0  0  0  0  0  0  0  0
  190.4550  170.5390  140.8290 C   0  0  2  0  0  3  0  0  0  0  0  0
  189.5210  173.9810  142.3230 C   0  0  2  0  0  3  0  0  0  0  0  0
  187.4270  175.6260  139.0150 N   0  0  0  0  0  0  0  0  0  0  0  0
  190.0650  174.5060  146.0510 C   0  0  0  0  0  3  0  0  0  0  0  0
  188.0050  174.4270  138.9120 N   0  0  0  0  0  0  0  0  0  0  0  0
  190.1250  174.1550  144.7540 C   0  0  0  0  0  3  0  0  0  0  0  0
  189.1750  176.8780  144.6180 C   0  0  1  0  0  3  0  0  0  0  0  0
  187.4660  176.3320  140.1740 C   0  0  0  0  0  3  0  0  0  0  0  0
  188.1960  176.5100  142.5150 N   0  0  0  0  0  0  0  0  0  0  0  0
  187.7620  177.4670  146.5780 O   0  0  0  0  0  0  0  0  0  0  0  0
  186.7430  176.5650  146.9400 C   0  0  0  0  0  2  0  0  0  0  0  0
  185.1710  179.4100  146.1280 O   0  0  0  0  0  0  0  0  0  0  0  0
  185.3200  177.3220  145.0370 C   0  0  0  0  0  2  0  0  0  0  0  0
  185.3700  177.0780  146.5150 C   0  0  2  0  0  3  0  0  0  0  0  0
  184.8500  178.7520  144.9320 C   0  0  0  0  0  2  0  0  0  0  0  0
  185.0730  178.4300  147.1280 C   0  0  0  0  0  2  0  0  0  0  0  0
  1 27  1  0  0  0  0
  2 14  1  0  0  0  0
  3 19  1  0  0  0  0
  3  7  1  0  0  0  0
  4 18  2  0  0  0  0
  5 11  1  0  0  0  0
  7  6  1  0  0  0  0
  8 12  2  0  0  0  0
  8 16  1  0  0  0  0
  9 27  1  6  0  0  0
  9 25  1  0  0  0  0
 12 15  1  0  0  0  0
 13  9  1  0  0  0  0
 13 24  1  1  0  0  0
 15  4  1  0  0  0  0
 15  5  2  0  0  0  0
 16  3  2  0  0  0  0
 17 28  1  6  0  0  0
 17 10  1  0  0  0  0
 18  1  1  0  0  0  0
 18 20  1  0  0  0  0
 19  5  1  0  0  0  0
 19  6  1  1  0  0  0
 20 11  1  1  0  0  0
 20 13  1  0  0  0  0
 21 26  1  0  0  0  0
 22 10  1  0  0  0  0
 23 21  2  0  0  0  0
 23  4  1  0  0  0  0
 24 22  2  0  0  0  0
 25 14  1  6  0  0  0
 25 17  1  0  0  0  0
 26  1  2  0  0  0  0
 27  2  1  0  0  0  0
 28 29  1  0  0  0  0
 30 34  1  0  0  0  0
 31 32  1  0  0  0  0
 32 29  1  1  0  0  0
 32 34  1  0  0  0  0
 33 31  1  0  0  0  0
 33 30  1  0  0  0  0
M  END
>  <MODEL>
7

>  <REMARK>
 VINA RESULT:      -7.5      3.840      7.215
  Name = 
  3 active torsions:
  status: ('A' for Active; 'I' for Inactive)
    1  A    between atoms: C_17  and  O_28
    2  A    between atoms: O_28  and  C_29
    3  A    between atoms: C_29  and  C_32
                            x       y       z     vdW  Elec       q    Type
                         _______ _______ _______ _____ _____    ______ ____

>  <TORSDO>
F 3

$$$$
=
 OpenBabel11112417523D

 34 41  0  0  1  0  0  0  0  0999 V2000
  192.0540  176.3900  146.1570 C   0  0  0  0  0  0  0  0  0  0  0  0
  194.5480  176.7060  145.8490 C   0  0  0  0  0  2  0  0  0  0  0  0
  186.6050  177.6760  142.9090 C   0  0  0  0  0  0  0  0  0  0  0  0
  189.6860  176.7960  145.9540 C   0  0  0  0  0  0  0  0  0  0  0  0
  188.4520  176.3460  143.8770 C   0  0  0  0  0  0  0  0  0  0  0  0
  187.4760  176.0340  141.5760 C   0  0  0  0  0  2  0  0  0  0  0  0
  186.7150  177.5610  141.0940 S   0  0  0  0  0  0  0  0  0  0  0  0
  186.3310  178.3270  145.1720 C   0  0  0  0  0  3  0  0  0  0  0  0
  193.3880  175.1820  144.3860 C   0  0  1  0  0  3  0  0  0  0  0  0
  194.3360  173.6690  142.0330 C   0  0  0  0  0  2  0  0  0  0  0  0
  189.6370  175.5190  143.4290 C   0  0  0  0  0  2  0  0  0  0  0  0
  187.2990  177.5980  145.7500 C   0  0  0  0  0  3  0  0  0  0  0  0
  192.1050  175.1390  143.5040 C   0  0  1  0  0  3  0  0  0  0  0  0
  195.5200  176.2650  144.7620 C   0  0  0  0  0  2  0  0  0  0  0  0
  188.4550  176.8910  145.1250 C   0  0  0  0  0  0  0  0  0  0  0  0
  186.2000  178.5470  143.7650 N   0  0  0  0  0  0  0  0  0  0  0  0
  195.3170  174.5070  142.8800 C   0  0  1  0  0  3  0  0  0  0  0  0
  190.8950  176.3730  145.3810 C   0  0  0  0  0  0  0  0  0  0  0  0
  187.2100  176.3010  143.0230 C   0  0  2  0  0  3  0  0  0  0  0  0
  190.9700  176.1000  143.9020 C   0  0  2  0  0  3  0  0  0  0  0  0
  190.7790  177.1630  148.0080 N   0  0  0  0  0  0  0  0  0  0  0  0
  193.3080  174.5260  141.3480 C   0  0  0  0  0  3  0  0  0  0  0  0
  189.6710  177.1720  147.2630 N   0  0  0  0  0  0  0  0  0  0  0  0
  192.3400  175.1860  142.0060 C   0  0  0  0  0  3  0  0  0  0  0  0
  194.6470  175.6420  143.6800 C   0  0  1  0  0  3  0  0  0  0  0  0
  191.9780  176.7910  147.4900 C   0  0  0  0  0  3  0  0  0  0  0  0
  193.2980  176.0220  145.5640 N   0  0  0  0  0  0  0  0  0  0  0  0
  196.2250  173.7210  143.6280 O   0  0  0  0  0  0  0  0  0  0  0  0
  195.6440  172.4650  143.8890 C   0  0  0  0  0  2  0  0  0  0  0  0
  195.1430  169.9140  146.0020 O   0  0  0  0  0  0  0  0  0  0  0  0
  196.9290  171.4390  145.7640 C   0  0  0  0  0  2  0  0  0  0  0  0
  195.6620  172.1430  145.3810 C   0  0  2  0  0  3  0  0  0  0  0  0
  196.4410  170.1890  146.4550 C   0  0  0  0  0  2  0  0  0  0  0  0
  194.5650  171.1660  145.7480 C   0  0  0  0  0  2  0  0  0  0  0  0
  1 26  1  0  0  0  0
  3 19  1  0  0  0  0
  3 16  2  0  0  0  0
  4 23  2  0  0  0  0
  5 15  2  0  0  0  0
  7  6  1  0  0  0  0
  7  3  1  0  0  0  0
  8 12  2  0  0  0  0
  9 27  1  1  0  0  0
 10 17  1  0  0  0  0
 11  5  1  0  0  0  0
 13 24  1  6  0  0  0
 13 20  1  0  0  0  0
 13  9  1  0  0  0  0
 14  2  1  0  0  0  0
 15 12  1  0  0  0  0
 15  4  1  0  0  0  0
 16  8  1  0  0  0  0
 17 28  1  1  0  0  0
 17 25  1  0  0  0  0
 18  4  1  0  0  0  0
 18  1  2  0  0  0  0
 19  6  1  6  0  0  0
 19  5  1  0  0  0  0
 20 11  1  1  0  0  0
 20 18  1  0  0  0  0
 22 24  2  0  0  0  0
 22 10  1  0  0  0  0
 23 21  1  0  0  0  0
 25  9  1  0  0  0  0
 25 14  1  1  0  0  0
 26 21  2  0  0  0  0
 27  2  1  0  0  0  0
 27  1  1  0  0  0  0
 28 29  1  0  0  0  0
 30 33  1  0  0  0  0
 31 33  1  0  0  0  0
 32 29  1  6  0  0  0
 32 34  1  0  0  0  0
 32 31  1  0  0  0  0
 34 30  1  0  0  0  0
M  END
>  <MODEL>
8

>  <REMARK>
 VINA RESULT:      -7.5      2.585      4.837
  Name = 
  3 active torsions:
  status: ('A' for Active; 'I' for Inactive)
    1  A    between atoms: C_17  and  O_28
    2  A    between atoms: O_28  and  C_29
    3  A    between atoms: C_29  and  C_32
                            x       y       z     vdW  Elec       q    Type
                         _______ _______ _______ _____ _____    ______ ____

>  <TORSDO>
F 3

$$$$
=
 OpenBabel11112417523D

 34 41  0  0  1  0  0  0  0  0999 V2000
  192.1320  176.3910  145.6600 C   0  0  0  0  0  0  0  0  0  0  0  0
  189.8140  176.1920  146.6590 C   0  0  0  0  0  2  0  0  0  0  0  0
  195.9690  173.0050  141.6960 C   0  0  0  0  0  0  0  0  0  0  0  0
  194.2560  175.7210  144.7340 C   0  0  0  0  0  0  0  0  0  0  0  0
  194.4650  174.8140  142.4590 C   0  0  0  0  0  0  0  0  0  0  0  0
  194.3770  173.6930  140.2050 C   0  0  0  0  0  2  0  0  0  0  0  0
  195.1280  172.0950  140.3610 S   0  0  0  0  0  0  0  0  0  0  0  0
  197.2260  173.7080  143.5800 C   0  0  0  0  0  3  0  0  0  0  0  0
  190.0220  176.5210  144.2800 C   0  0  1  0  0  3  0  0  0  0  0  0
  187.9760  176.5400  142.1500 C   0  0  0  0  0  2  0  0  0  0  0  0
  193.0800  175.3560  142.1850 C   0  0  0  0  0  2  0  0  0  0  0  0
  196.4610  174.7230  144.0130 C   0  0  0  0  0  3  0  0  0  0  0  0
  190.8200  175.9430  143.0750 C   0  0  1  0  0  3  0  0  0  0  0  0
  188.4310  176.0390  146.0400 C   0  0  0  0  0  2  0  0  0  0  0  0
  195.0510  175.0640  143.6630 C   0  0  0  0  0  0  0  0  0  0  0  0
  196.8210  172.7280  142.6200 N   0  0  0  0  0  0  0  0  0  0  0  0
  187.5690  176.4160  143.6330 C   0  0  1  0  0  3  0  0  0  0  0  0
  192.8660  175.8630  144.5980 C   0  0  0  0  0  0  0  0  0  0  0  0
  195.2380  174.2580  141.2900 C   0  0  2  0  0  3  0  0  0  0  0  0
  192.1630  175.2670  143.4060 C   0  0  2  0  0  3  0  0  0  0  0  0
  194.1490  176.6700  146.8870 N   0  0  0  0  0  0  0  0  0  0  0  0
  188.7740  175.3550  141.6830 C   0  0  0  0  0  3  0  0  0  0  0  0
  194.8530  176.1430  145.8830 N   0  0  0  0  0  0  0  0  0  0  0  0
  190.0200  175.0880  142.1100 C   0  0  0  0  0  3  0  0  0  0  0  0
  188.6820  175.8650  144.5470 C   0  0  1  0  0  3  0  0  0  0  0  0
  192.7990  176.7990  146.8140 C   0  0  0  0  0  3  0  0  0  0  0  0
  190.7130  176.4800  145.5540 N   0  0  0  0  0  0  0  0  0  0  0  0
  186.9170  177.5670  144.1340 O   0  0  0  0  0  0  0  0  0  0  0  0
  185.5250  177.3540  144.1180 C   0  0  0  0  0  2  0  0  0  0  0  0
  185.7380  177.6020  147.4510 O   0  0  0  0  0  0  0  0  0  0  0  0
  185.6260  179.2350  145.7510 C   0  0  0  0  0  2  0  0  0  0  0  0
  184.8430  178.0390  145.2990 C   0  0  2  0  0  3  0  0  0  0  0  0
  185.8350  178.9820  147.2240 C   0  0  0  0  0  2  0  0  0  0  0  0
  184.8050  177.1350  146.5130 C   0  0  0  0  0  2  0  0  0  0  0  0
  1 26  1  0  0  0  0
  3 16  2  0  0  0  0
  4 23  2  0  0  0  0
  5 15  2  0  0  0  0
  6  7  1  0  0  0  0
  7  3  1  0  0  0  0
  8 12  2  0  0  0  0
  9 25  1  0  0  0  0
  9 27  1  1  0  0  0
 10 17  1  0  0  0  0
 11  5  1  0  0  0  0
 13 24  1  1  0  0  0
 13 20  1  0  0  0  0
 13  9  1  0  0  0  0
 14  2  1  0  0  0  0
 15 12  1  0  0  0  0
 15  4  1  0  0  0  0
 16  8  1  0  0  0  0
 17 28  1  1  0  0  0
 17 25  1  0  0  0  0
 18  4  1  0  0  0  0
 18  1  2  0  0  0  0
 19  6  1  6  0  0  0
 19  3  1  0  0  0  0
 19  5  1  0  0  0  0
 20 11  1  6  0  0  0
 20 18  1  0  0  0  0
 22 24  2  0  0  0  0
 22 10  1  0  0  0  0
 23 21  1  0  0  0  0
 25 14  1  1  0  0  0
 26 21  2  0  0  0  0
 27  1  1  0  0  0  0
 27  2  1  0  0  0  0
 29 28  1  0  0  0  0
 31 33  1  0  0  0  0
 32 29  1  6  0  0  0
 32 31  1  0  0  0  0
 32 34  1  0  0  0  0
 33 30  1  0  0  0  0
 34 30  1  0  0  0  0
M  END
>  <MODEL>
9

>  <REMARK>
 VINA RESULT:      -7.4      3.958      8.606
  Name = 
  3 active torsions:
  status: ('A' for Active; 'I' for Inactive)
    1  A    between atoms: C_17  and  O_28
    2  A    between atoms: O_28  and  C_29
    3  A    between atoms: C_29  and  C_32
                            x       y       z     vdW  Elec       q    Type
                         _______ _______ _______ _____ _____    ______ ____

>  <TORSDO>
F 3

$$$$
