=
 OpenBabel11112418023D

 34 40  0  0  1  0  0  0  0  0999 V2000
  189.2910  175.0430  142.6500 C   0  0  0  0  0  0  0  0  0  0  0  0
  191.4310  173.6320  142.5060 C   0  0  0  0  0  3  0  0  0  0  0  0
  184.6720  178.4210  145.8830 C   0  0  0  0  0  0  0  0  0  0  0  0
  187.3320  176.4050  142.9520 C   0  0  0  0  0  0  0  0  0  0  0  0
  186.7450  177.1420  145.2980 C   0  0  0  0  0  0  0  0  0  0  0  0
  186.1920  177.4510  147.6710 C   0  0  0  0  0  1  0  0  0  0  0  0
  183.5810  178.3040  146.7380 O   0  0  0  0  0  1  0  0  0  0  0  0
  185.5780  179.5560  143.8260 C   0  0  0  0  0  3  0  0  0  0  0  0
  190.7550  174.4980  144.5940 C   0  0  0  0  0  0  0  0  0  0  0  0
  192.8150  175.0800  146.9280 C   0  0  0  0  0  2  0  0  0  0  0  0
  187.9460  176.4760  145.7370 N   0  0  0  0  0  0  0  0  0  0  0  0
  186.4460  178.6570  143.3680 C   0  0  0  0  0  3  0  0  0  0  0  0
  189.9720  175.1790  145.4540 C   0  0  0  0  0  0  0  0  0  0  0  0
  192.4370  173.1760  143.5720 C   0  0  0  0  0  3  0  0  0  0  0  0
  186.4230  177.2340  143.8190 C   0  0  1  0  0  3  0  0  0  0  0  0
  184.5620  179.2780  144.8570 C   0  0  0  0  0  3  0  0  0  0  0  0
  193.0730  174.7530  145.4590 C   0  0  2  0  0  3  0  0  0  0  0  0
  188.4540  175.7760  143.4930 C   0  0  0  0  0  0  0  0  0  0  0  0
  185.9070  177.6620  146.2180 C   0  0  0  0  0  0  0  0  0  0  0  0
  188.7550  175.8540  144.9340 C   0  0  0  0  0  0  0  0  0  0  0  0
  187.8990  175.5510  140.8130 C   0  0  0  0  0  3  0  0  0  0  0  0
  191.6260  176.0140  147.1150 C   0  0  0  0  0  2  0  0  0  0  0  0
  187.0750  176.2750  141.6220 N   0  0  0  0  0  0  0  0  0  0  0  0
  190.3170  175.2670  146.9120 C   0  0  0  0  0  2  0  0  0  0  0  0
  192.0130  173.7770  144.9270 C   0  0  1  0  0  3  0  0  0  0  0  0
  189.0000  174.9420  141.3260 N   0  0  0  0  0  0  0  0  0  0  0  0
  190.4410  174.4070  143.2170 N   0  0  0  0  0  0  0  0  0  0  0  0
  194.3490  174.1910  145.3500 O   0  0  0  0  0  0  0  0  0  0  0  0
  195.2090  175.2830  145.2020 C   0  0  0  0  0  2  0  0  0  0  0  0
  197.5900  176.0990  142.9290 N   0  0  0  0  0  2  0  0  0  0  0  0
  195.8940  174.4210  142.9790 C   0  0  0  0  0  2  0  0  0  0  0  0
  195.3690  175.6210  143.7310 C   0  0  2  0  0  3  0  0  0  0  0  0
  197.0910  174.9340  142.2170 C   0  0  0  0  0  2  0  0  0  0  0  0
  196.4260  176.6950  143.5680 C   0  0  0  0  0  2  0  0  0  0  0  0
  1 27  1  0  0  0  0
  1 18  1  0  0  0  0
  2 27  1  0  0  0  0
  2 14  2  0  0  0  0
  3 19  1  0  0  0  0
  3  7  1  0  0  0  0
  4 18  2  0  0  0  0
  4 15  1  0  0  0  0
  5 11  1  0  0  0  0
  5 19  2  0  0  0  0
  8 16  1  0  0  0  0
  9 25  1  0  0  0  0
  9 13  2  0  0  0  0
 10 22  1  0  0  0  0
 12  8  2  0  0  0  0
 13 24  1  0  0  0  0
 15 12  1  6  0  0  0
 15  5  1  0  0  0  0
 16  3  2  0  0  0  0
 17 28  1  1  0  0  0
 17 10  1  0  0  0  0
 18 20  1  0  0  0  0
 19  6  1  0  0  0  0
 20 13  1  0  0  0  0
 20 11  2  0  0  0  0
 21 26  1  0  0  0  0
 21 23  2  0  0  0  0
 23  4  1  0  0  0  0
 24 22  1  0  0  0  0
 25 14  1  6  0  0  0
 25 17  1  0  0  0  0
 26  1  2  0  0  0  0
 27  9  1  0  0  0  0
 29 28  1  0  0  0  0
 30 34  1  0  0  0  0
 31 32  1  0  0  0  0
 32 29  1  1  0  0  0
 33 30  1  0  0  0  0
 33 31  1  0  0  0  0
 34 32  1  0  0  0  0
M  END
>  <MODEL>
1

>  <REMARK>
 VINA RESULT:      -9.3      0.000      0.000
  Name = 
  3 active torsions:
  status: ('A' for Active; 'I' for Inactive)
    1  A    between atoms: C_17  and  O_28
    2  A    between atoms: O_28  and  C_29
    3  A    between atoms: C_29  and  C_32
                            x       y       z     vdW  Elec       q    Type
                         _______ _______ _______ _____ _____    ______ ____

>  <TORSDO>
F 3

$$$$
=
 OpenBabel11112418023D

 34 40  0  0  1  0  0  0  0  0999 V2000
  189.1990  174.9730  142.5960 C   0  0  0  0  0  0  0  0  0  0  0  0
  191.2870  173.4850  142.4660 C   0  0  0  0  0  3  0  0  0  0  0  0
  184.6540  178.4740  145.8030 C   0  0  0  0  0  0  0  0  0  0  0  0
  187.2870  176.4020  142.8870 C   0  0  0  0  0  0  0  0  0  0  0  0
  186.6880  177.1270  145.2330 C   0  0  0  0  0  0  0  0  0  0  0  0
  186.1060  177.4220  147.6020 C   0  0  0  0  0  1  0  0  0  0  0  0
  183.5450  178.3860  146.6380 O   0  0  0  0  0  1  0  0  0  0  0  0
  185.6370  179.6040  143.7790 C   0  0  0  0  0  3  0  0  0  0  0  0
  190.6080  174.3450  144.5570 C   0  0  0  0  0  0  0  0  0  0  0  0
  192.6480  174.8160  146.9330 C   0  0  0  0  0  2  0  0  0  0  0  0
  187.8550  176.4100  145.6820 N   0  0  0  0  0  0  0  0  0  0  0  0
  186.4780  178.6800  143.3220 C   0  0  0  0  0  3  0  0  0  0  0  0
  189.8370  175.0420  145.4130 C   0  0  0  0  0  0  0  0  0  0  0  0
  192.2580  172.9770  143.5420 C   0  0  0  0  0  3  0  0  0  0  0  0
  186.3950  177.2520  143.7510 C   0  0  1  0  0  3  0  0  0  0  0  0
  184.5940  179.3490  144.7890 C   0  0  0  0  0  3  0  0  0  0  0  0
  192.9190  174.5010  145.4630 C   0  0  2  0  0  3  0  0  0  0  0  0
  188.3760  175.7240  143.4360 C   0  0  0  0  0  0  0  0  0  0  0  0
  185.8540  177.6640  146.1470 C   0  0  0  0  0  0  0  0  0  0  0  0
  188.6550  175.7700  144.8830 C   0  0  0  0  0  0  0  0  0  0  0  0
  187.8580  175.5590  140.7440 C   0  0  0  0  0  3  0  0  0  0  0  0
  191.4920  175.7910  147.1130 C   0  0  0  0  0  2  0  0  0  0  0  0
  187.0490  176.3020  141.5500 N   0  0  0  0  0  0  0  0  0  0  0  0
  190.1590  175.0960  146.8780 C   0  0  0  0  0  2  0  0  0  0  0  0
  191.8330  173.5730  144.8990 C   0  0  1  0  0  3  0  0  0  0  0  0
  188.9280  174.9020  141.2670 N   0  0  0  0  0  0  0  0  0  0  0  0
  190.3150  174.2860  143.1730 N   0  0  0  0  0  0  0  0  0  0  0  0
  194.1750  173.8930  145.3670 O   0  0  0  0  0  0  0  0  0  0  0  0
  195.0820  174.8810  145.7600 C   0  0  0  0  0  2  0  0  0  0  0  0
  197.1400  172.1930  145.5640 N   0  0  0  0  0  2  0  0  0  0  0  0
  196.4420  173.8280  143.9730 C   0  0  0  0  0  2  0  0  0  0  0  0
  196.4840  174.5000  145.3250 C   0  0  2  0  0  3  0  0  0  0  0  0
  197.2060  172.5410  144.1540 C   0  0  0  0  0  2  0  0  0  0  0  0
  197.0460  173.4610  146.2750 C   0  0  0  0  0  2  0  0  0  0  0  0
  1 27  1  0  0  0  0
  1 18  1  0  0  0  0
  2 27  1  0  0  0  0
  2 14  2  0  0  0  0
  3 19  1  0  0  0  0
  3  7  1  0  0  0  0
  4 18  2  0  0  0  0
  4 15  1  0  0  0  0
  5 11  1  0  0  0  0
  5 19  2  0  0  0  0
  8 16  1  0  0  0  0
  9 25  1  0  0  0  0
  9 13  2  0  0  0  0
 10 22  1  0  0  0  0
 12  8  2  0  0  0  0
 13 24  1  0  0  0  0
 15 12  1  6  0  0  0
 15  5  1  0  0  0  0
 16  3  2  0  0  0  0
 17 28  1  1  0  0  0
 17 10  1  0  0  0  0
 18 20  1  0  0  0  0
 19  6  1  0  0  0  0
 20 13  1  0  0  0  0
 20 11  2  0  0  0  0
 21 26  1  0  0  0  0
 21 23  2  0  0  0  0
 23  4  1  0  0  0  0
 24 22  1  0  0  0  0
 25 14  1  6  0  0  0
 25 17  1  0  0  0  0
 26  1  2  0  0  0  0
 27  9  1  0  0  0  0
 28 29  1  0  0  0  0
 30 34  1  0  0  0  0
 31 33  1  0  0  0  0
 31 32  1  0  0  0  0
 32 29  1  1  0  0  0
 32 34  1  0  0  0  0
 33 30  1  0  0  0  0
M  END
>  <MODEL>
2

>  <REMARK>
 VINA RESULT:      -9.1      1.118      1.308
  Name = 
  3 active torsions:
  status: ('A' for Active; 'I' for Inactive)
    1  A    between atoms: C_17  and  O_28
    2  A    between atoms: O_28  and  C_29
    3  A    between atoms: C_29  and  C_32
                            x       y       z     vdW  Elec       q    Type
                         _______ _______ _______ _____ _____    ______ ____

>  <TORSDO>
F 3

$$$$
=
 OpenBabel11112418023D

 34 40  0  0  1  0  0  0  0  0999 V2000
  189.8660  173.7990  142.8120 C   0  0  0  0  0  0  0  0  0  0  0  0
  187.5770  174.9210  142.5090 C   0  0  0  0  0  3  0  0  0  0  0  0
  195.9060  173.3370  145.3630 C   0  0  0  0  0  0  0  0  0  0  0  0
  192.0360  172.8530  143.2370 C   0  0  0  0  0  0  0  0  0  0  0  0
  193.5490  174.0350  144.8820 C   0  0  0  0  0  0  0  0  0  0  0  0
  194.9540  175.5210  146.2430 C   0  0  0  0  0  1  0  0  0  0  0  0
  197.1810  173.8920  145.3490 O   0  0  0  0  0  1  0  0  0  0  0  0
  194.5790  171.1970  145.3720 C   0  0  0  0  0  3  0  0  0  0  0  0
  189.1060  175.8140  144.0700 C   0  0  0  0  0  0  0  0  0  0  0  0
  188.1640  177.4710  146.6000 C   0  0  0  0  0  2  0  0  0  0  0  0
  192.4730  174.9690  145.0990 N   0  0  0  0  0  0  0  0  0  0  0  0
  193.4450  171.5680  144.7840 C   0  0  0  0  0  3  0  0  0  0  0  0
  190.2610  175.8970  144.7590 C   0  0  0  0  0  0  0  0  0  0  0  0
  186.9420  176.1570  143.1620 C   0  0  0  0  0  3  0  0  0  0  0  0
  193.3390  172.8270  143.9890 C   0  0  1  0  0  3  0  0  0  0  0  0
  195.8160  171.9990  145.3670 C   0  0  0  0  0  3  0  0  0  0  0  0
  187.3440  176.6270  145.6260 C   0  0  2  0  0  3  0  0  0  0  0  0
  191.0760  173.8280  143.5080 C   0  0  0  0  0  0  0  0  0  0  0  0
  194.7440  174.2600  145.4660 C   0  0  0  0  0  0  0  0  0  0  0  0
  191.3250  174.8940  144.4960 C   0  0  0  0  0  0  0  0  0  0  0  0
  190.5920  171.8990  141.6150 C   0  0  0  0  0  3  0  0  0  0  0  0
  189.5030  176.8290  146.9370 C   0  0  0  0  0  2  0  0  0  0  0  0
  191.7750  171.9100  142.2900 N   0  0  0  0  0  0  0  0  0  0  0  0
  190.4780  176.9750  145.7790 C   0  0  0  0  0  2  0  0  0  0  0  0
  187.9290  176.7140  144.2090 C   0  0  1  0  0  3  0  0  0  0  0  0
  189.6450  172.8380  141.8780 N   0  0  0  0  0  0  0  0  0  0  0  0
  188.8880  174.8020  143.1040 N   0  0  0  0  0  0  0  0  0  0  0  0
  186.0260  177.0960  145.6370 O   0  0  0  0  0  0  0  0  0  0  0  0
  186.1170  178.4090  146.1080 C   0  0  0  0  0  2  0  0  0  0  0  0
  185.1590  179.0660  142.9220 N   0  0  0  0  0  2  0  0  0  0  0  0
  183.9490  178.5410  144.9100 C   0  0  0  0  0  2  0  0  0  0  0  0
  185.1840  179.3080  145.3190 C   0  0  2  0  0  3  0  0  0  0  0  0
  183.8290  178.7630  143.4230 C   0  0  0  0  0  2  0  0  0  0  0  0
  185.8520  179.7220  144.0220 C   0  0  0  0  0  2  0  0  0  0  0  0
  1 27  1  0  0  0  0
  1 18  1  0  0  0  0
  2 27  1  0  0  0  0
  2 14  2  0  0  0  0
  3 16  2  0  0  0  0
  3 19  1  0  0  0  0
  4 18  2  0  0  0  0
  4 15  1  0  0  0  0
  5 11  1  0  0  0  0
  5 19  2  0  0  0  0
  7  3  1  0  0  0  0
  9 25  1  0  0  0  0
  9 13  2  0  0  0  0
 10 22  1  0  0  0  0
 12  8  2  0  0  0  0
 13 24  1  0  0  0  0
 15 12  1  1  0  0  0
 15  5  1  0  0  0  0
 16  8  1  0  0  0  0
 17 28  1  6  0  0  0
 17 10  1  0  0  0  0
 18 20  1  0  0  0  0
 19  6  1  0  0  0  0
 20 13  1  0  0  0  0
 20 11  2  0  0  0  0
 21 26  1  0  0  0  0
 21 23  2  0  0  0  0
 23  4  1  0  0  0  0
 24 22  1  0  0  0  0
 25 14  1  6  0  0  0
 25 17  1  0  0  0  0
 26  1  2  0  0  0  0
 27  9  1  0  0  0  0
 28 29  1  0  0  0  0
 30 33  1  0  0  0  0
 30 34  1  0  0  0  0
 31 32  1  0  0  0  0
 32 29  1  1  0  0  0
 33 31  1  0  0  0  0
 34 32  1  0  0  0  0
M  END
>  <MODEL>
3

>  <REMARK>
 VINA RESULT:      -8.7      2.080      8.277
  Name = 
  3 active torsions:
  status: ('A' for Active; 'I' for Inactive)
    1  A    between atoms: C_17  and  O_28
    2  A    between atoms: O_28  and  C_29
    3  A    between atoms: C_29  and  C_32
                            x       y       z     vdW  Elec       q    Type
                         _______ _______ _______ _____ _____    ______ ____

>  <TORSDO>
F 3

$$$$
=
 OpenBabel11112418023D

 34 40  0  0  1  0  0  0  0  0999 V2000
  190.4640  174.3600  142.2660 C   0  0  0  0  0  0  0  0  0  0  0  0
  192.7950  173.2920  142.1300 C   0  0  0  0  0  3  0  0  0  0  0  0
  185.5600  177.4090  145.4030 C   0  0  0  0  0  0  0  0  0  0  0  0
  188.3300  175.4310  142.5500 C   0  0  0  0  0  0  0  0  0  0  0  0
  187.7750  176.3970  144.8200 C   0  0  0  0  0  0  0  0  0  0  0  0
  187.3260  176.9540  147.1700 C   0  0  0  0  0  1  0  0  0  0  0  0
  184.5580  177.2490  146.3550 O   0  0  0  0  0  1  0  0  0  0  0  0
  186.1370  178.3640  143.1460 C   0  0  0  0  0  3  0  0  0  0  0  0
  192.1150  174.3330  144.1360 C   0  0  0  0  0  0  0  0  0  0  0  0
  194.1910  175.5570  146.1910 C   0  0  0  0  0  2  0  0  0  0  0  0
  189.0940  175.9950  145.2400 N   0  0  0  0  0  0  0  0  0  0  0  0
  187.1110  177.5540  142.7390 C   0  0  0  0  0  3  0  0  0  0  0  0
  191.2860  175.0010  144.9610 C   0  0  0  0  0  0  0  0  0  0  0  0
  193.9270  173.1560  143.1580 C   0  0  0  0  0  3  0  0  0  0  0  0
  187.3520  176.2240  143.3740 C   0  0  1  0  0  3  0  0  0  0  0  0
  185.2460  178.0830  144.2870 C   0  0  0  0  0  3  0  0  0  0  0  0
  194.4080  175.0660  144.7610 C   0  0  2  0  0  3  0  0  0  0  0  0
  189.5710  175.0670  143.0730 C   0  0  0  0  0  0  0  0  0  0  0  0
  186.9210  176.9070  145.7300 C   0  0  0  0  0  0  0  0  0  0  0  0
  189.9440  175.3970  144.4610 C   0  0  0  0  0  0  0  0  0  0  0  0
  188.8960  174.3770  140.5020 C   0  0  0  0  0  3  0  0  0  0  0  0
  192.8780  176.3120  146.3520 C   0  0  0  0  0  2  0  0  0  0  0  0
  188.0160  175.0730  141.2750 N   0  0  0  0  0  0  0  0  0  0  0  0
  191.7000  175.3500  146.3600 C   0  0  0  0  0  2  0  0  0  0  0  0
  193.4940  173.8720  144.4540 C   0  0  1  0  0  3  0  0  0  0  0  0
  190.1130  174.0260  140.9970 N   0  0  0  0  0  0  0  0  0  0  0  0
  191.7360  173.9980  142.8140 N   0  0  0  0  0  0  0  0  0  0  0  0
  195.7500  174.7000  144.6200 O   0  0  0  0  0  0  0  0  0  0  0  0
  196.1500  174.3010  145.8990 C   0  0  0  0  0  2  0  0  0  0  0  0
  196.4860  171.1690  144.6420 N   0  0  0  0  0  2  0  0  0  0  0  0
  197.7840  173.1590  144.4230 C   0  0  0  0  0  2  0  0  0  0  0  0
  197.1600  173.1730  145.7980 C   0  0  2  0  0  3  0  0  0  0  0  0
  197.6210  171.7400  143.9370 C   0  0  0  0  0  2  0  0  0  0  0  0
  196.4490  171.8410  145.9340 C   0  0  0  0  0  2  0  0  0  0  0  0
  1 27  1  0  0  0  0
  1 18  1  0  0  0  0
  2 27  1  0  0  0  0
  2 14  2  0  0  0  0
  3 19  1  0  0  0  0
  3  7  1  0  0  0  0
  4 18  2  0  0  0  0
  4 15  1  0  0  0  0
  5 11  1  0  0  0  0
  5 19  2  0  0  0  0
  8 16  1  0  0  0  0
  9 25  1  0  0  0  0
  9 13  2  0  0  0  0
 10 22  1  0  0  0  0
 12  8  2  0  0  0  0
 13 24  1  0  0  0  0
 15 12  1  6  0  0  0
 15  5  1  0  0  0  0
 16  3  2  0  0  0  0
 17 28  1  1  0  0  0
 17 10  1  0  0  0  0
 18 20  1  0  0  0  0
 19  6  1  0  0  0  0
 20 13  1  0  0  0  0
 20 11  2  0  0  0  0
 21 26  1  0  0  0  0
 21 23  2  0  0  0  0
 22 24  1  0  0  0  0
 23  4  1  0  0  0  0
 25 14  1  6  0  0  0
 25 17  1  0  0  0  0
 26  1  2  0  0  0  0
 27  9  1  0  0  0  0
 28 29  1  0  0  0  0
 30 34  1  0  0  0  0
 31 32  1  0  0  0  0
 32 29  1  6  0  0  0
 32 34  1  0  0  0  0
 33 31  1  0  0  0  0
 33 30  1  0  0  0  0
M  END
>  <MODEL>
4

>  <REMARK>
 VINA RESULT:      -8.6      1.816      2.131
  Name = 
  3 active torsions:
  status: ('A' for Active; 'I' for Inactive)
    1  A    between atoms: C_17  and  O_28
    2  A    between atoms: O_28  and  C_29
    3  A    between atoms: C_29  and  C_32
                            x       y       z     vdW  Elec       q    Type
                         _______ _______ _______ _____ _____    ______ ____

>  <TORSDO>
F 3

$$$$
=
 OpenBabel11112418023D

 34 40  0  0  1  0  0  0  0  0999 V2000
  192.2950  176.3610  146.3720 C   0  0  0  0  0  0  0  0  0  0  0  0
  194.6930  175.4470  146.3230 C   0  0  0  0  0  3  0  0  0  0  0  0
  186.6190  178.1540  143.5860 C   0  0  0  0  0  0  0  0  0  0  0  0
  190.0290  177.1580  146.2520 C   0  0  0  0  0  0  0  0  0  0  0  0
  188.9060  177.2150  143.9870 C   0  0  0  0  0  0  0  0  0  0  0  0
  188.1460  177.4950  141.6680 C   0  0  0  0  0  1  0  0  0  0  0  0
  186.0110  179.1120  142.7810 O   0  0  0  0  0  1  0  0  0  0  0  0
  186.3880  176.7460  145.6610 C   0  0  0  0  0  3  0  0  0  0  0  0
  193.4340  175.5000  144.3270 C   0  0  0  0  0  0  0  0  0  0  0  0
  193.9770  173.4980  141.9340 C   0  0  0  0  0  2  0  0  0  0  0  0
  190.1090  176.6310  143.4490 N   0  0  0  0  0  0  0  0  0  0  0  0
  187.6570  176.5650  146.0190 C   0  0  0  0  0  3  0  0  0  0  0  0
  192.3600  175.7410  143.5510 C   0  0  0  0  0  0  0  0  0  0  0  0
  195.5630  174.9000  145.1820 C   0  0  0  0  0  3  0  0  0  0  0  0
  188.7610  177.4160  145.4840 C   0  0  0  0  0  0  0  0  0  0  0  0
  185.9410  177.7380  144.6660 C   0  0  0  0  0  2  0  0  0  0  0  0
  194.5080  173.4730  143.3650 C   0  0  2  0  0  3  0  0  0  0  0  0
  191.1480  176.6170  145.6180 C   0  0  0  0  0  0  0  0  0  0  0  0
  187.9250  177.5960  143.1440 C   0  0  0  0  0  0  0  0  0  0  0  0
  191.1460  176.3330  144.1710 C   0  0  0  0  0  0  0  0  0  0  0  0
  191.2180  177.1870  148.3040 C   0  0  0  0  0  3  0  0  0  0  0  0
  192.5150  173.9190  141.8650 C   0  0  0  0  0  2  0  0  0  0  0  0
  190.0900  177.4360  147.5830 N   0  0  0  0  0  0  0  0  0  0  0  0
  192.3740  175.4170  142.0860 C   0  0  0  0  0  2  0  0  0  0  0  0
  194.7230  174.9000  143.8880 C   0  0  1  0  0  3  0  0  0  0  0  0
  192.3120  176.6500  147.6990 N   0  0  0  0  0  0  0  0  0  0  0  0
  193.4340  175.8010  145.7100 N   0  0  0  0  0  0  0  0  0  0  0  0
  195.7130  172.7640  143.3760 O   0  0  0  0  0  0  0  0  0  0  0  0
  195.3500  171.4430  143.6510 C   0  0  0  0  0  2  0  0  0  0  0  0
  195.4010  169.0150  146.0180 N   0  0  0  0  0  2  0  0  0  0  0  0
  196.5350  171.1040  145.8030 C   0  0  0  0  0  2  0  0  0  0  0  0
  195.1830  171.2510  145.1470 C   0  0  2  0  0  3  0  0  0  0  0  0
  196.4330  169.8410  146.6230 C   0  0  0  0  0  2  0  0  0  0  0  0
  194.4580  169.9470  145.4140 C   0  0  0  0  0  2  0  0  0  0  0  0
  1 26  1  0  0  0  0
  3 16  1  0  0  0  0
  4 23  2  0  0  0  0
  5 15  2  0  0  0  0
  6 19  1  0  0  0  0
  7  3  1  0  0  0  0
  8 12  2  0  0  0  0
  9 27  1  0  0  0  0
 10 17  1  0  0  0  0
 11  5  1  0  0  0  0
 11 20  2  0  0  0  0
 13 20  1  0  0  0  0
 13  9  2  0  0  0  0
 14  2  2  0  0  0  0
 15 12  1  0  0  0  0
 15  4  1  0  0  0  0
 16  8  1  0  0  0  0
 17 28  1  6  0  0  0
 17 25  1  0  0  0  0
 18  4  1  0  0  0  0
 18  1  2  0  0  0  0
 19  3  2  0  0  0  0
 19  5  1  0  0  0  0
 20 18  1  0  0  0  0
 22 10  1  0  0  0  0
 22 24  1  0  0  0  0
 23 21  1  0  0  0  0
 24 13  1  0  0  0  0
 25  9  1  0  0  0  0
 25 14  1  1  0  0  0
 26 21  2  0  0  0  0
 27  2  1  0  0  0  0
 27  1  1  0  0  0  0
 28 29  1  0  0  0  0
 30 33  1  0  0  0  0
 31 33  1  0  0  0  0
 32 29  1  6  0  0  0
 32 34  1  0  0  0  0
 32 31  1  0  0  0  0
 34 30  1  0  0  0  0
M  END
>  <MODEL>
5

>  <REMARK>
 VINA RESULT:      -8.1      2.932      4.806
  Name = 
  3 active torsions:
  status: ('A' for Active; 'I' for Inactive)
    1  A    between atoms: C_17  and  O_28
    2  A    between atoms: O_28  and  C_29
    3  A    between atoms: C_29  and  C_32
                            x       y       z     vdW  Elec       q    Type
                         _______ _______ _______ _____ _____    ______ ____

>  <TORSDO>
F 3

$$$$
=
 OpenBabel11112418023D

 34 40  0  0  1  0  0  0  0  0999 V2000
  190.5360  175.7070  144.9250 C   0  0  0  0  0  0  0  0  0  0  0  0
  192.4510  174.3360  143.9030 C   0  0  0  0  0  3  0  0  0  0  0  0
  184.6020  178.5290  144.8090 C   0  0  0  0  0  0  0  0  0  0  0  0
  188.6390  176.9330  145.7490 C   0  0  0  0  0  0  0  0  0  0  0  0
  186.6240  177.1650  144.2400 C   0  0  0  0  0  0  0  0  0  0  0  0
  184.9370  177.5410  142.4940 C   0  0  0  0  0  1  0  0  0  0  0  0
  183.8590  179.5710  144.2630 O   0  0  0  0  0  1  0  0  0  0  0  0
  185.1260  177.2380  146.9060 C   0  0  0  0  0  3  0  0  0  0  0  0
  190.4410  174.5950  142.6940 C   0  0  0  0  0  0  0  0  0  0  0  0
  189.4760  172.4760  140.5470 C   0  0  0  0  0  2  0  0  0  0  0  0
  187.3260  176.3430  143.2860 N   0  0  0  0  0  0  0  0  0  0  0  0
  186.3670  176.8170  146.6730 C   0  0  0  0  0  3  0  0  0  0  0  0
  189.1870  175.0280  142.4620 C   0  0  0  0  0  0  0  0  0  0  0  0
  192.5910  173.6040  142.5610 C   0  0  0  0  0  3  0  0  0  0  0  0
  187.2220  177.4210  145.6090 C   0  0  0  0  0  0  0  0  0  0  0  0
  184.4420  178.2780  146.1160 C   0  0  0  0  0  2  0  0  0  0  0  0
  190.5960  172.3760  141.5810 C   0  0  2  0  0  3  0  0  0  0  0  0
  189.2310  176.1690  144.7440 C   0  0  0  0  0  0  0  0  0  0  0  0
  185.4430  177.7150  143.8910 C   0  0  0  0  0  0  0  0  0  0  0  0
  188.5140  175.8610  143.4920 C   0  0  0  0  0  0  0  0  0  0  0  0
  190.6280  176.7690  147.0310 C   0  0  0  0  0  3  0  0  0  0  0  0
  188.2400  173.1760  141.0970 C   0  0  0  0  0  2  0  0  0  0  0  0
  189.3530  177.2220  146.8710 N   0  0  0  0  0  0  0  0  0  0  0  0
  188.4680  174.6770  141.1930 C   0  0  0  0  0  2  0  0  0  0  0  0
  191.2620  173.7430  141.7920 C   0  0  1  0  0  3  0  0  0  0  0  0
  191.2130  176.0150  146.0620 N   0  0  0  0  0  0  0  0  0  0  0  0
  191.1300  174.9190  143.8880 N   0  0  0  0  0  0  0  0  0  0  0  0
  191.5330  171.4430  141.1270 O   0  0  0  0  0  0  0  0  0  0  0  0
  191.2300  171.2600  139.7750 C   0  0  0  0  0  2  0  0  0  0  0  0
  193.6000  173.5530  138.9830 N   0  0  0  0  0  2  0  0  0  0  0  0
  193.7100  171.3200  139.8150 C   0  0  0  0  0  2  0  0  0  0  0  0
  192.4850  171.4170  138.9370 C   0  0  2  0  0  3  0  0  0  0  0  0
  194.5200  172.5490  139.4890 C   0  0  0  0  0  2  0  0  0  0  0  0
  192.5260  172.8100  138.3390 C   0  0  0  0  0  2  0  0  0  0  0  0
  1 26  1  0  0  0  0
  3 16  1  0  0  0  0
  4 23  2  0  0  0  0
  5 15  2  0  0  0  0
  6 19  1  0  0  0  0
  7  3  1  0  0  0  0
  9 27  1  0  0  0  0
 10 22  1  0  0  0  0
 10 17  1  0  0  0  0
 11 20  2  0  0  0  0
 11  5  1  0  0  0  0
 12  8  2  0  0  0  0
 13  9  2  0  0  0  0
 13 20  1  0  0  0  0
 14  2  2  0  0  0  0
 15  4  1  0  0  0  0
 15 12  1  0  0  0  0
 16  8  1  0  0  0  0
 17 28  1  6  0  0  0
 17 25  1  0  0  0  0
 18  1  2  0  0  0  0
 18  4  1  0  0  0  0
 19  5  1  0  0  0  0
 19  3  2  0  0  0  0
 20 18  1  0  0  0  0
 22 24  1  0  0  0  0
 23 21  1  0  0  0  0
 24 13  1  0  0  0  0
 25 14  1  1  0  0  0
 25  9  1  0  0  0  0
 26 21  2  0  0  0  0
 27  2  1  0  0  0  0
 27  1  1  0  0  0  0
 29 28  1  0  0  0  0
 30 33  1  0  0  0  0
 32 29  1  1  0  0  0
 32 31  1  0  0  0  0
 33 31  1  0  0  0  0
 34 32  1  0  0  0  0
 34 30  1  0  0  0  0
M  END
>  <MODEL>
6

>  <REMARK>
 VINA RESULT:      -8.1      2.501      4.564
  Name = 
  3 active torsions:
  status: ('A' for Active; 'I' for Inactive)
    1  A    between atoms: C_17  and  O_28
    2  A    between atoms: O_28  and  C_29
    3  A    between atoms: C_29  and  C_32
                            x       y       z     vdW  Elec       q    Type
                         _______ _______ _______ _____ _____    ______ ____

>  <TORSDO>
F 3

$$$$
=
 OpenBabel11112418023D

 34 40  0  0  1  0  0  0  0  0999 V2000
  192.3580  175.9900  145.5770 C   0  0  0  0  0  0  0  0  0  0  0  0
  190.3790  177.6190  145.4260 C   0  0  0  0  0  3  0  0  0  0  0  0
  195.2150  170.1140  144.8720 C   0  0  0  0  0  0  0  0  0  0  0  0
  194.1190  174.3530  145.6170 C   0  0  0  0  0  0  0  0  0  0  0  0
  193.6000  172.0260  144.7760 C   0  0  0  0  0  0  0  0  0  0  0  0
  192.7810  169.7750  144.2340 C   0  0  0  0  0  1  0  0  0  0  0  0
  195.2690  168.8190  145.3760 O   0  0  0  0  0  1  0  0  0  0  0  0
  196.5640  172.0630  144.0220 C   0  0  0  0  0  3  0  0  0  0  0  0
  190.1320  175.4190  144.6080 C   0  0  0  0  0  0  0  0  0  0  0  0
  188.0640  174.6880  142.3230 C   0  0  0  0  0  2  0  0  0  0  0  0
  192.2800  172.5080  144.4560 N   0  0  0  0  0  0  0  0  0  0  0  0
  195.7790  173.0970  144.3160 C   0  0  0  0  0  3  0  0  0  0  0  0
  190.5110  174.1580  144.3220 C   0  0  0  0  0  0  0  0  0  0  0  0
  188.9490  177.4540  144.8920 C   0  0  0  0  0  3  0  0  0  0  0  0
  194.6550  172.9850  145.2920 C   0  0  0  0  0  0  0  0  0  0  0  0
  196.3790  170.7020  144.5580 C   0  0  0  0  0  3  0  0  0  0  0  0
  188.5330  176.0570  142.8120 C   0  0  2  0  0  3  0  0  0  0  0  0
  192.8080  174.7010  145.2890 C   0  0  0  0  0  0  0  0  0  0  0  0
  193.8760  170.7140  144.6300 C   0  0  2  0  0  3  0  0  0  0  0  0
  191.8910  173.7290  144.6660 C   0  0  0  0  0  0  0  0  0  0  0  0
  194.4620  176.5260  146.5050 C   0  0  0  0  0  3  0  0  0  0  0  0
  189.1980  173.6730  142.2650 C   0  0  0  0  0  2  0  0  0  0  0  0
  194.9180  175.2730  146.2240 N   0  0  0  0  0  0  0  0  0  0  0  0
  189.5670  173.1960  143.6610 C   0  0  0  0  0  2  0  0  0  0  0  0
  188.8050  176.0280  144.3230 C   0  0  1  0  0  3  0  0  0  0  0  0
  193.1900  176.8800  146.1800 N   0  0  0  0  0  0  0  0  0  0  0  0
  191.0130  176.3350  145.2300 N   0  0  0  0  0  0  0  0  0  0  0  0
  187.5410  176.9960  142.5150 O   0  0  0  0  0  0  0  0  0  0  0  0
  186.3370  176.3510  142.8120 C   0  0  0  0  0  2  0  0  0  0  0  0
  185.7380  178.8300  145.0470 N   0  0  0  0  0  2  0  0  0  0  0  0
  185.6730  178.7360  142.6640 C   0  0  0  0  0  2  0  0  0  0  0  0
  185.2790  177.3740  143.1830 C   0  0  2  0  0  3  0  0  0  0  0  0
  185.5730  179.6510  143.8600 C   0  0  0  0  0  2  0  0  0  0  0  0
  185.2180  177.5180  144.6910 C   0  0  0  0  0  2  0  0  0  0  0  0
  1 26  1  0  0  0  0
  3  7  1  0  0  0  0
  4 23  2  0  0  0  0
  5 15  2  0  0  0  0
  8 12  2  0  0  0  0
  8 16  1  0  0  0  0
  9 27  1  0  0  0  0
 10 17  1  0  0  0  0
 11 20  2  0  0  0  0
 11  5  1  0  0  0  0
 12 15  1  0  0  0  0
 13  9  2  0  0  0  0
 13 20  1  0  0  0  0
 14  2  2  0  0  0  0
 15  4  1  0  0  0  0
 16  3  2  0  0  0  0
 17 28  1  1  0  0  0
 17 25  1  0  0  0  0
 18  1  2  0  0  0  0
 18  4  1  0  0  0  0
 19  6  1  1  0  0  0
 19  5  1  0  0  0  0
 19  3  1  0  0  0  0
 20 18  1  0  0  0  0
 22 10  1  0  0  0  0
 22 24  1  0  0  0  0
 23 21  1  0  0  0  0
 24 13  1  0  0  0  0
 25  9  1  0  0  0  0
 25 14  1  6  0  0  0
 26 21  2  0  0  0  0
 27  2  1  0  0  0  0
 27  1  1  0  0  0  0
 28 29  1  0  0  0  0
 31 32  1  0  0  0  0
 31 33  1  0  0  0  0
 32 29  1  1  0  0  0
 32 34  1  0  0  0  0
 33 30  1  0  0  0  0
 34 30  1  0  0  0  0
M  END
>  <MODEL>
7

>  <REMARK>
 VINA RESULT:      -8.1      2.671      8.889
  Name = 
  3 active torsions:
  status: ('A' for Active; 'I' for Inactive)
    1  A    between atoms: C_17  and  O_28
    2  A    between atoms: O_28  and  C_29
    3  A    between atoms: C_29  and  C_32
                            x       y       z     vdW  Elec       q    Type
                         _______ _______ _______ _____ _____    ______ ____

>  <TORSDO>
F 3

$$$$
=
 OpenBabel11112418023D

 34 40  0  0  1  0  0  0  0  0999 V2000
  190.5810  175.6700  145.0820 C   0  0  0  0  0  0  0  0  0  0  0  0
  192.5040  174.2640  144.1270 C   0  0  0  0  0  3  0  0  0  0  0  0
  184.6680  178.5250  144.7960 C   0  0  0  0  0  0  0  0  0  0  0  0
  188.6780  176.9280  145.8430 C   0  0  0  0  0  0  0  0  0  0  0  0
  186.6900  177.1350  144.2950 C   0  0  0  0  0  0  0  0  0  0  0  0
  185.0360  177.4790  142.5110 C   0  0  0  0  0  1  0  0  0  0  0  0
  183.9410  179.5580  144.2120 O   0  0  0  0  0  1  0  0  0  0  0  0
  185.1480  177.2810  146.9320 C   0  0  0  0  0  3  0  0  0  0  0  0
  190.5170  174.5060  142.8770 C   0  0  0  0  0  0  0  0  0  0  0  0
  189.5750  172.3420  140.7650 C   0  0  0  0  0  2  0  0  0  0  0  0
  187.4040  176.2870  143.3730 N   0  0  0  0  0  0  0  0  0  0  0  0
  186.3900  176.8470  146.7310 C   0  0  0  0  0  3  0  0  0  0  0  0
  189.2700  174.9410  142.6130 C   0  0  0  0  0  0  0  0  0  0  0  0
  192.6630  173.4990  142.8040 C   0  0  0  0  0  3  0  0  0  0  0  0
  187.2670  177.4210  145.6680 C   0  0  0  0  0  0  0  0  0  0  0  0
  184.4840  178.3060  146.1060 C   0  0  0  0  0  2  0  0  0  0  0  0
  190.6760  172.2600  141.8200 C   0  0  2  0  0  3  0  0  0  0  0  0
  189.2830  176.1360  144.8670 C   0  0  0  0  0  0  0  0  0  0  0  0
  185.5190  177.6840  143.9130 C   0  0  0  0  0  0  0  0  0  0  0  0
  188.5850  175.8020  143.6110 C   0  0  0  0  0  0  0  0  0  0  0  0
  190.6430  176.7820  147.1630 C   0  0  0  0  0  3  0  0  0  0  0  0
  188.3350  173.0630  141.2760 C   0  0  0  0  0  2  0  0  0  0  0  0
  189.3740  177.2390  146.9710 N   0  0  0  0  0  0  0  0  0  0  0  0
  188.5710  174.5640  141.3400 C   0  0  0  0  0  2  0  0  0  0  0  0
  191.3480  173.6280  142.0090 C   0  0  1  0  0  3  0  0  0  0  0  0
  191.2400  176.0010  146.2230 N   0  0  0  0  0  0  0  0  0  0  0  0
  191.1870  174.8550  144.0740 N   0  0  0  0  0  0  0  0  0  0  0  0
  191.6160  171.3110  141.4040 O   0  0  0  0  0  0  0  0  0  0  0  0
  191.1850  170.1090  141.9710 C   0  0  0  0  0  2  0  0  0  0  0  0
  194.5310  170.4100  142.4300 N   0  0  0  0  0  2  0  0  0  0  0  0
  192.7240  169.9170  143.9070 C   0  0  0  0  0  2  0  0  0  0  0  0
  192.3680  169.3560  142.5510 C   0  0  2  0  0  3  0  0  0  0  0  0
  194.2020  170.2090  143.8310 C   0  0  0  0  0  2  0  0  0  0  0  0
  193.5910  169.5860  141.6850 C   0  0  0  0  0  2  0  0  0  0  0  0
  1 26  1  0  0  0  0
  3 16  1  0  0  0  0
  4 23  2  0  0  0  0
  5 15  2  0  0  0  0
  6 19  1  0  0  0  0
  7  3  1  0  0  0  0
  9 27  1  0  0  0  0
 10 22  1  0  0  0  0
 10 17  1  0  0  0  0
 11 20  2  0  0  0  0
 11  5  1  0  0  0  0
 12  8  2  0  0  0  0
 13  9  2  0  0  0  0
 13 20  1  0  0  0  0
 14  2  2  0  0  0  0
 15  4  1  0  0  0  0
 15 12  1  0  0  0  0
 16  8  1  0  0  0  0
 17 28  1  6  0  0  0
 17 25  1  0  0  0  0
 18  1  2  0  0  0  0
 18  4  1  0  0  0  0
 19  5  1  0  0  0  0
 19  3  2  0  0  0  0
 20 18  1  0  0  0  0
 22 24  1  0  0  0  0
 23 21  1  0  0  0  0
 24 13  1  0  0  0  0
 25 14  1  1  0  0  0
 25  9  1  0  0  0  0
 26 21  2  0  0  0  0
 27  2  1  0  0  0  0
 27  1  1  0  0  0  0
 28 29  1  0  0  0  0
 30 33  1  0  0  0  0
 32 29  1  6  0  0  0
 32 31  1  0  0  0  0
 33 31  1  0  0  0  0
 34 30  1  0  0  0  0
 34 32  1  0  0  0  0
M  END
>  <MODEL>
8

>  <REMARK>
 VINA RESULT:      -8.1      2.457      4.610
  Name = 
  3 active torsions:
  status: ('A' for Active; 'I' for Inactive)
    1  A    between atoms: C_17  and  O_28
    2  A    between atoms: O_28  and  C_29
    3  A    between atoms: C_29  and  C_32
                            x       y       z     vdW  Elec       q    Type
                         _______ _______ _______ _____ _____    ______ ____

>  <TORSDO>
F 3

$$$$
=
 OpenBabel11112418023D

 34 40  0  0  1  0  0  0  0  0999 V2000
  191.7700  175.9410  143.7760 C   0  0  0  0  0  0  0  0  0  0  0  0
  190.4100  177.2590  145.5100 C   0  0  0  0  0  3  0  0  0  0  0  0
  192.4130  171.9490  138.5960 C   0  0  0  0  0  0  0  0  0  0  0  0
  192.8930  174.6860  142.0600 C   0  0  0  0  0  0  0  0  0  0  0  0
  191.4780  173.4500  140.3690 C   0  0  0  0  0  0  0  0  0  0  0  0
  189.9200  172.0750  139.0590 C   0  0  0  0  0  1  0  0  0  0  0  0
  192.2720  170.6350  138.1600 O   0  0  0  0  0  1  0  0  0  0  0  0
  193.8730  174.0000  138.5470 C   0  0  0  0  0  3  0  0  0  0  0  0
  189.2810  176.1070  143.7860 C   0  0  0  0  0  0  0  0  0  0  0  0
  186.4290  177.0050  142.7410 C   0  0  0  0  0  2  0  0  0  0  0  0
  190.3230  174.0100  141.0250 N   0  0  0  0  0  0  0  0  0  0  0  0
  193.5670  174.5890  139.7010 C   0  0  0  0  0  3  0  0  0  0  0  0
  189.1630  175.3350  142.6880 C   0  0  0  0  0  0  0  0  0  0  0  0
  188.8990  177.4620  145.6940 C   0  0  0  0  0  3  0  0  0  0  0  0
  192.8720  173.8600  140.8030 C   0  0  0  0  0  0  0  0  0  0  0  0
  193.5100  172.6130  138.2030 C   0  0  0  0  0  3  0  0  0  0  0  0
  187.4060  177.7370  143.6580 C   0  0  2  0  0  3  0  0  0  0  0  0
  191.7070  175.1500  142.6280 C   0  0  0  0  0  0  0  0  0  0  0  0
  191.3020  172.5470  139.3820 C   0  0  2  0  0  3  0  0  0  0  0  0
  190.3950  174.8010  142.0520 C   0  0  0  0  0  0  0  0  0  0  0  0
  194.1240  175.7740  143.7710 C   0  0  0  0  0  3  0  0  0  0  0  0
  187.1350  176.2810  141.6010 C   0  0  0  0  0  2  0  0  0  0  0  0
  194.0790  175.0050  142.6480 N   0  0  0  0  0  0  0  0  0  0  0  0
  187.8170  175.0180  142.1050 C   0  0  0  0  0  2  0  0  0  0  0  0
  188.1680  176.7410  144.5440 C   0  0  1  0  0  3  0  0  0  0  0  0
  192.9750  176.2390  144.3290 N   0  0  0  0  0  0  0  0  0  0  0  0
  190.5450  176.4140  144.3450 N   0  0  0  0  0  0  0  0  0  0  0  0
  186.6810  178.6340  144.4480 O   0  0  0  0  0  0  0  0  0  0  0  0
  185.3750  178.1380  144.4480 C   0  0  0  0  0  2  0  0  0  0  0  0
  186.0460  176.9110  147.5370 N   0  0  0  0  0  2  0  0  0  0  0  0
  185.5920  179.1060  146.7200 C   0  0  0  0  0  2  0  0  0  0  0  0
  184.8210  178.1340  145.8600 C   0  0  2  0  0  3  0  0  0  0  0  0
  186.0070  178.3090  147.9320 C   0  0  0  0  0  2  0  0  0  0  0  0
  185.0430  176.7730  146.4900 C   0  0  0  0  0  2  0  0  0  0  0  0
  1 26  1  0  0  0  0
  1 27  1  0  0  0  0
  2 14  2  0  0  0  0
  3 19  1  0  0  0  0
  4 18  1  0  0  0  0
  4 23  2  0  0  0  0
  5 15  2  0  0  0  0
  5 11  1  0  0  0  0
  7  3  1  0  0  0  0
  8 12  2  0  0  0  0
  9 27  1  0  0  0  0
  9 25  1  0  0  0  0
 10 17  1  0  0  0  0
 11 20  2  0  0  0  0
 12 15  1  0  0  0  0
 13  9  2  0  0  0  0
 15  4  1  0  0  0  0
 16  8  1  0  0  0  0
 16  3  2  0  0  0  0
 17 28  1  1  0  0  0
 17 25  1  0  0  0  0
 18  1  2  0  0  0  0
 19  6  1  1  0  0  0
 19  5  1  0  0  0  0
 20 18  1  0  0  0  0
 20 13  1  0  0  0  0
 21 26  2  0  0  0  0
 22 24  1  0  0  0  0
 22 10  1  0  0  0  0
 23 21  1  0  0  0  0
 24 13  1  0  0  0  0
 25 14  1  1  0  0  0
 27  2  1  0  0  0  0
 29 28  1  0  0  0  0
 30 33  1  0  0  0  0
 31 33  1  0  0  0  0
 32 29  1  6  0  0  0
 32 34  1  0  0  0  0
 32 31  1  0  0  0  0
 34 30  1  0  0  0  0
M  END
>  <MODEL>
9

>  <REMARK>
 VINA RESULT:      -8.0      2.840      8.583
  Name = 
  3 active torsions:
  status: ('A' for Active; 'I' for Inactive)
    1  A    between atoms: C_17  and  O_28
    2  A    between atoms: O_28  and  C_29
    3  A    between atoms: C_29  and  C_32
                            x       y       z     vdW  Elec       q    Type
                         _______ _______ _______ _____ _____    ______ ____

>  <TORSDO>
F 3

$$$$
