=
 OpenBabel11112417563D

 34 41  0  0  1  0  0  0  0  0999 V2000
  185.7430  177.8760  145.8560 C   0  0  1  0  0  3  0  0  0  0  0  0
  183.6190  179.0480  145.0570 C   0  0  0  0  0  3  0  0  0  0  0  0
  192.0810  176.6040  144.5790 C   0  0  2  0  0  3  0  0  0  0  0  0
  188.2140  177.3680  146.3790 C   0  0  0  0  0  0  0  0  0  0  0  0
  189.6600  176.5590  144.5410 C   0  0  0  0  0  0  0  0  0  0  0  0
  191.3910  176.0520  142.6460 C   0  0  0  0  0  2  0  0  0  0  0  0
  192.7280  176.5220  143.2140 C   0  0  0  0  0  2  0  0  0  0  0  0
  191.5530  175.5810  146.7920 C   0  0  0  0  0  2  0  0  0  0  0  0
  185.1280  178.2250  143.4670 C   0  0  0  0  0  0  0  0  0  0  0  0
  184.7050  177.9340  140.3870 C   0  0  0  0  0  3  0  0  0  0  0  0
  188.6950  176.7880  143.6990 N   0  0  0  0  0  0  0  0  0  0  0  0
  190.5920  176.7790  146.9450 C   0  0  0  0  0  2  0  0  0  0  0  0
  186.3950  177.6010  143.0270 C   0  0  0  0  0  0  0  0  0  0  0  0
  182.9380  178.9520  143.6960 C   0  0  0  0  0  3  0  0  0  0  0  0
  189.4770  176.8040  145.9660 N   0  0  0  0  0  0  0  0  0  0  0  0
  192.6610  175.8250  145.7430 C   0  0  0  0  0  2  0  0  0  0  0  0
  183.7330  178.0310  141.4320 N   0  0  0  0  0  0  0  0  0  0  0  0
  187.1420  177.5460  145.3770 C   0  0  0  0  0  0  0  0  0  0  0  0
  190.8870  175.8570  144.0640 C   0  0  1  0  0  3  0  0  0  0  0  0
  187.4080  177.3100  144.0780 C   0  0  0  0  0  0  0  0  0  0  0  0
  186.7890  178.5420  148.0030 C   0  0  0  0  0  3  0  0  0  0  0  0
  185.9980  177.6690  140.5280 C   0  0  0  0  0  3  0  0  0  0  0  0
  188.0300  177.8410  147.6200 C   0  0  0  0  0  3  0  0  0  0  0  0
  186.7490  177.4070  141.7560 C   0  0  0  0  0  3  0  0  0  0  0  0
  184.0030  178.4160  142.7910 C   0  0  0  0  0  0  0  0  0  0  0  0
  185.7450  178.6080  147.1720 C   0  0  0  0  0  3  0  0  0  0  0  0
  184.9770  178.5830  144.8330 N   0  0  0  0  0  0  0  0  0  0  0  0
  182.3460  177.9920  140.9880 C   0  0  0  0  0  2  0  0  0  0  0  0
  181.9110  179.3260  140.6040 N   0  0  0  0  0  2  0  0  0  0  0  0
  178.8070  180.0230  139.5570 N   0  0  0  0  0  0  0  0  0  0  0  0
  179.7340  178.2380  140.6800 C   0  0  0  0  0  2  0  0  0  0  0  0
  180.5390  179.4770  141.0570 C   0  0  2  0  0  3  0  0  0  0  0  0
  178.7110  178.7650  139.7430 C   0  0  0  0  0  3  0  0  0  0  0  0
  179.8780  180.6230  140.3000 C   0  0  0  0  0  2  0  0  0  0  0  0
  1 26  1  1  0  0  0
  3  7  1  6  0  0  0
  3 16  1  0  0  0  0
  4 23  2  0  0  0  0
  5 15  1  0  0  0  0
  6  7  1  0  0  0  0
  8 12  1  0  0  0  0
  9 27  1  0  0  0  0
 10 22  2  0  0  0  0
 10 17  1  0  0  0  0
 11 20  1  0  0  0  0
 11  5  2  0  0  0  0
 13  9  1  0  0  0  0
 13 20  1  0  0  0  0
 14  2  2  0  0  0  0
 15  4  1  0  0  0  0
 15 12  1  0  0  0  0
 16  8  1  0  0  0  0
 17 25  1  0  0  0  0
 18  1  1  0  0  0  0
 18  4  1  0  0  0  0
 19  6  1  6  0  0  0
 19  5  1  0  0  0  0
 19  3  1  0  0  0  0
 20 18  2  0  0  0  0
 22 24  1  0  0  0  0
 23 21  1  0  0  0  0
 24 13  2  0  0  0  0
 25  9  2  0  0  0  0
 25 14  1  0  0  0  0
 26 21  2  0  0  0  0
 27  2  1  0  0  0  0
 27  1  1  0  0  0  0
 28 17  1  0  0  0  0
 29 28  1  0  0  0  0
 30 33  2  0  0  0  0
 30 34  1  0  0  0  0
 31 32  1  0  0  0  0
 32 29  1  6  0  0  0
 33 31  1  0  0  0  0
 34 32  1  0  0  0  0
M  END
>  <MODEL>
1

>  <REMARK>
 VINA RESULT:      -8.7      0.000      0.000
  Name = 
  3 active torsions:
  status: ('A' for Active; 'I' for Inactive)
    1  A    between atoms: N_17  and  C_28
    2  A    between atoms: C_28  and  N_29
    3  A    between atoms: N_29  and  C_32
                            x       y       z     vdW  Elec       q    Type
                         _______ _______ _______ _____ _____    ______ ____

>  <TORSDO>
F 3

$$$$
=
 OpenBabel11112417563D

 34 41  0  0  1  0  0  0  0  0999 V2000
  189.8490  174.6470  144.8200 C   0  0  1  0  0  3  0  0  0  0  0  0
  191.1450  172.5270  144.2270 C   0  0  0  0  0  3  0  0  0  0  0  0
  184.4410  178.2340  143.6770 C   0  0  2  0  0  3  0  0  0  0  0  0
  187.9260  176.2770  145.3510 C   0  0  0  0  0  0  0  0  0  0  0  0
  186.6280  177.2150  143.4650 C   0  0  0  0  0  0  0  0  0  0  0  0
  184.9420  177.9990  141.6240 C   0  0  0  0  0  2  0  0  0  0  0  0
  183.6520  178.2920  142.3880 C   0  0  0  0  0  2  0  0  0  0  0  0
  185.7180  179.3780  145.4900 C   0  0  0  0  0  2  0  0  0  0  0  0
  189.8390  173.5580  142.5790 C   0  0  0  0  0  0  0  0  0  0  0  0
  189.7930  172.9640  139.5130 C   0  0  0  0  0  3  0  0  0  0  0  0
  187.2540  176.4130  142.6530 N   0  0  0  0  0  0  0  0  0  0  0  0
  186.1270  177.9460  145.8960 C   0  0  0  0  0  2  0  0  0  0  0  0
  188.8740  174.5590  142.0730 C   0  0  0  0  0  0  0  0  0  0  0  0
  191.5550  172.0210  142.8480 C   0  0  0  0  0  3  0  0  0  0  0  0
  186.9460  177.2290  144.8870 N   0  0  0  0  0  0  0  0  0  0  0  0
  184.4400  179.4190  144.6230 C   0  0  0  0  0  2  0  0  0  0  0  0
  190.8110  172.6820  140.4780 N   0  0  0  0  0  0  0  0  0  0  0  0
  188.6410  175.4390  144.3650 C   0  0  0  0  0  0  0  0  0  0  0  0
  185.7230  178.2580  142.8990 C   0  0  1  0  0  3  0  0  0  0  0  0
  188.2670  175.4800  143.0720 C   0  0  0  0  0  0  0  0  0  0  0  0
  189.0210  174.9820  147.1330 C   0  0  0  0  0  3  0  0  0  0  0  0
  188.7620  173.7870  139.6650 C   0  0  0  0  0  3  0  0  0  0  0  0
  188.1200  176.0520  146.6590 C   0  0  0  0  0  3  0  0  0  0  0  0
  188.4100  174.6080  140.8240 C   0  0  0  0  0  3  0  0  0  0  0  0
  190.6540  172.7570  141.9050 C   0  0  0  0  0  0  0  0  0  0  0  0
  189.7860  174.2920  146.2820 C   0  0  0  0  0  3  0  0  0  0  0  0
  190.0720  173.4750  143.9770 N   0  0  0  0  0  0  0  0  0  0  0  0
  191.9950  172.0180  139.9470 C   0  0  0  0  0  2  0  0  0  0  0  0
  191.9240  171.9660  138.4950 N   0  0  0  0  0  2  0  0  0  0  0  0
  190.5450  168.9620  139.0380 N   0  0  0  0  0  0  0  0  0  0  0  0
  190.8690  170.2350  137.1450 C   0  0  0  0  0  2  0  0  0  0  0  0
  192.0000  170.5660  138.1130 C   0  0  2  0  0  3  0  0  0  0  0  0
  190.0650  169.2320  137.8870 C   0  0  0  0  0  3  0  0  0  0  0  0
  191.7440  169.6920  139.3350 C   0  0  0  0  0  2  0  0  0  0  0  0
  1 26  1  1  0  0  0
  3  7  1  6  0  0  0
  3 16  1  0  0  0  0
  4 23  2  0  0  0  0
  5 15  1  0  0  0  0
  6  7  1  0  0  0  0
  8 12  1  0  0  0  0
  9 27  1  0  0  0  0
 10 22  2  0  0  0  0
 10 17  1  0  0  0  0
 11 20  1  0  0  0  0
 11  5  2  0  0  0  0
 13  9  1  0  0  0  0
 13 20  1  0  0  0  0
 14  2  2  0  0  0  0
 15  4  1  0  0  0  0
 15 12  1  0  0  0  0
 16  8  1  0  0  0  0
 17 25  1  0  0  0  0
 18  1  1  0  0  0  0
 18  4  1  0  0  0  0
 19  6  1  6  0  0  0
 19  5  1  0  0  0  0
 19  3  1  0  0  0  0
 20 18  2  0  0  0  0
 22 24  1  0  0  0  0
 23 21  1  0  0  0  0
 24 13  2  0  0  0  0
 25  9  2  0  0  0  0
 25 14  1  0  0  0  0
 26 21  2  0  0  0  0
 27  2  1  0  0  0  0
 27  1  1  0  0  0  0
 28 17  1  0  0  0  0
 29 28  1  0  0  0  0
 30 34  1  0  0  0  0
 31 33  1  0  0  0  0
 31 32  1  0  0  0  0
 32 29  1  1  0  0  0
 32 34  1  0  0  0  0
 33 30  2  0  0  0  0
M  END
>  <MODEL>
2

>  <REMARK>
 VINA RESULT:      -8.6      4.219      8.642
  Name = 
  3 active torsions:
  status: ('A' for Active; 'I' for Inactive)
    1  A    between atoms: N_17  and  C_28
    2  A    between atoms: C_28  and  N_29
    3  A    between atoms: N_29  and  C_32
                            x       y       z     vdW  Elec       q    Type
                         _______ _______ _______ _____ _____    ______ ____

>  <TORSDO>
F 3

$$$$
=
 OpenBabel11112417563D

 34 41  0  0  1  0  0  0  0  0999 V2000
  189.8940  174.7600  144.9440 C   0  0  1  0  0  3  0  0  0  0  0  0
  191.2520  172.6750  144.3700 C   0  0  0  0  0  3  0  0  0  0  0  0
  184.4420  178.2390  143.6830 C   0  0  2  0  0  3  0  0  0  0  0  0
  187.9210  176.3430  145.4360 C   0  0  0  0  0  0  0  0  0  0  0  0
  186.6550  177.2700  143.5230 C   0  0  0  0  0  0  0  0  0  0  0  0
  185.0030  178.0330  141.6430 C   0  0  0  0  0  2  0  0  0  0  0  0
  183.6870  178.2910  142.3720 C   0  0  0  0  0  2  0  0  0  0  0  0
  185.6430  179.3950  145.5390 C   0  0  0  0  0  2  0  0  0  0  0  0
  189.9680  173.6910  142.6950 C   0  0  0  0  0  0  0  0  0  0  0  0
  190.0190  173.1220  139.6250 C   0  0  0  0  0  3  0  0  0  0  0  0
  187.3200  176.4880  142.7220 N   0  0  0  0  0  0  0  0  0  0  0  0
  186.0720  177.9690  145.9450 C   0  0  0  0  0  2  0  0  0  0  0  0
  188.9960  174.6750  142.1710 C   0  0  0  0  0  0  0  0  0  0  0  0
  191.7100  172.1890  142.9990 C   0  0  0  0  0  3  0  0  0  0  0  0
  186.9340  177.2780  144.9530 N   0  0  0  0  0  0  0  0  0  0  0  0
  184.3880  179.4160  144.6380 C   0  0  0  0  0  2  0  0  0  0  0  0
  191.0170  172.8540  140.6150 N   0  0  0  0  0  0  0  0  0  0  0  0
  188.6810  175.5300  144.4630 C   0  0  0  0  0  0  0  0  0  0  0  0
  185.7440  178.2970  142.9400 C   0  0  1  0  0  3  0  0  0  0  0  0
  188.3410  175.5740  143.1610 C   0  0  0  0  0  0  0  0  0  0  0  0
  188.9950  175.0580  147.2360 C   0  0  0  0  0  3  0  0  0  0  0  0
  188.9670  173.9210  139.7550 C   0  0  0  0  0  3  0  0  0  0  0  0
  188.0850  176.1110  146.7470 C   0  0  0  0  0  3  0  0  0  0  0  0
  188.5650  174.7250  140.9100 C   0  0  0  0  0  3  0  0  0  0  0  0
  190.8180  172.9140  142.0380 C   0  0  0  0  0  0  0  0  0  0  0  0
  189.7980  174.3920  146.4010 C   0  0  0  0  0  3  0  0  0  0  0  0
  190.1650  173.6010  144.0990 N   0  0  0  0  0  0  0  0  0  0  0  0
  192.2280  172.2210  140.1110 C   0  0  0  0  0  2  0  0  0  0  0  0
  193.0580  173.2060  139.4370 N   0  0  0  0  0  2  0  0  0  0  0  0
  195.7670  175.1500  139.7630 N   0  0  0  0  0  0  0  0  0  0  0  0
  193.8310  174.9150  140.9910 C   0  0  0  0  0  2  0  0  0  0  0  0
  194.1290  173.5630  140.3530 C   0  0  2  0  0  3  0  0  0  0  0  0
  194.9430  175.7740  140.5120 C   0  0  0  0  0  3  0  0  0  0  0  0
  195.4180  173.7720  139.5680 C   0  0  0  0  0  2  0  0  0  0  0  0
  1 26  1  1  0  0  0
  3  7  1  6  0  0  0
  3 16  1  0  0  0  0
  4 23  2  0  0  0  0
  5 15  1  0  0  0  0
  6  7  1  0  0  0  0
  8 12  1  0  0  0  0
  9 27  1  0  0  0  0
 10 22  2  0  0  0  0
 10 17  1  0  0  0  0
 11 20  1  0  0  0  0
 11  5  2  0  0  0  0
 13  9  1  0  0  0  0
 13 20  1  0  0  0  0
 14  2  2  0  0  0  0
 15  4  1  0  0  0  0
 15 12  1  0  0  0  0
 16  8  1  0  0  0  0
 17 25  1  0  0  0  0
 18  1  1  0  0  0  0
 18  4  1  0  0  0  0
 19  6  1  6  0  0  0
 19  5  1  0  0  0  0
 19  3  1  0  0  0  0
 20 18  2  0  0  0  0
 22 24  1  0  0  0  0
 23 21  1  0  0  0  0
 24 13  2  0  0  0  0
 25  9  2  0  0  0  0
 25 14  1  0  0  0  0
 26 21  2  0  0  0  0
 27  2  1  0  0  0  0
 27  1  1  0  0  0  0
 28 17  1  0  0  0  0
 29 28  1  0  0  0  0
 30 33  2  0  0  0  0
 32 29  1  6  0  0  0
 32 31  1  0  0  0  0
 33 31  1  0  0  0  0
 34 30  1  0  0  0  0
 34 32  1  0  0  0  0
M  END
>  <MODEL>
3

>  <REMARK>
 VINA RESULT:      -8.6      3.390      8.879
  Name = 
  3 active torsions:
  status: ('A' for Active; 'I' for Inactive)
    1  A    between atoms: N_17  and  C_28
    2  A    between atoms: C_28  and  N_29
    3  A    between atoms: N_29  and  C_32
                            x       y       z     vdW  Elec       q    Type
                         _______ _______ _______ _____ _____    ______ ____

>  <TORSDO>
F 3

$$$$
=
 OpenBabel11112417563D

 34 41  0  0  1  0  0  0  0  0999 V2000
  189.4240  175.1600  143.1230 C   0  0  1  0  0  3  0  0  0  0  0  0
  191.7220  174.6580  142.1270 C   0  0  0  0  0  3  0  0  0  0  0  0
  185.9450  179.0880  147.1090 C   0  0  2  0  0  3  0  0  0  0  0  0
  187.3540  176.4170  144.0020 C   0  0  0  0  0  0  0  0  0  0  0  0
  187.4400  177.3720  146.2820 C   0  0  0  0  0  0  0  0  0  0  0  0
  187.5070  178.7420  148.5100 C   0  0  0  0  0  2  0  0  0  0  0  0
  186.4660  179.8430  148.3130 C   0  0  0  0  0  2  0  0  0  0  0  0
  184.3480  177.4610  146.0960 C   0  0  0  0  0  2  0  0  0  0  0  0
  191.5930  175.5850  144.2740 C   0  0  0  0  0  0  0  0  0  0  0  0
  193.8850  175.8980  146.3710 C   0  0  0  0  0  3  0  0  0  0  0  0
  188.7050  177.0680  146.3470 N   0  0  0  0  0  0  0  0  0  0  0  0
  185.2800  177.5430  144.8690 C   0  0  0  0  0  2  0  0  0  0  0  0
  190.8870  176.1720  145.4340 C   0  0  0  0  0  0  0  0  0  0  0  0
  193.0500  174.4730  142.8520 C   0  0  0  0  0  3  0  0  0  0  0  0
  186.6540  177.0340  145.1030 N   0  0  0  0  0  0  0  0  0  0  0  0
  184.4890  178.6720  147.0450 C   0  0  0  0  0  2  0  0  0  0  0  0
  193.7920  175.0100  145.2540 N   0  0  0  0  0  0  0  0  0  0  0  0
  188.7750  176.0460  144.1670 C   0  0  0  0  0  0  0  0  0  0  0  0
  186.7570  177.8900  147.5030 C   0  0  1  0  0  3  0  0  0  0  0  0
  189.4260  176.4150  145.2860 C   0  0  0  0  0  0  0  0  0  0  0  0
  187.5380  175.7740  141.6350 C   0  0  0  0  0  3  0  0  0  0  0  0
  192.8930  176.5920  146.9180 C   0  0  0  0  0  3  0  0  0  0  0  0
  186.7800  176.2780  142.7970 C   0  0  0  0  0  3  0  0  0  0  0  0
  191.4810  176.6230  146.5390 C   0  0  0  0  0  3  0  0  0  0  0  0
  192.8250  175.1000  144.1930 C   0  0  0  0  0  0  0  0  0  0  0  0
  188.7820  175.3030  141.7690 C   0  0  0  0  0  3  0  0  0  0  0  0
  190.8700  175.3600  143.0720 N   0  0  0  0  0  0  0  0  0  0  0  0
  194.9370  174.1280  145.0720 C   0  0  0  0  0  2  0  0  0  0  0  0
  196.1150  174.9110  144.7350 N   0  0  0  0  0  2  0  0  0  0  0  0
  197.1970  171.8280  145.4730 N   0  0  0  0  0  0  0  0  0  0  0  0
  197.9390  173.4610  144.0260 C   0  0  0  0  0  2  0  0  0  0  0  0
  197.2730  174.1670  145.2020 C   0  0  2  0  0  3  0  0  0  0  0  0
  197.7920  172.0220  144.3620 C   0  0  0  0  0  3  0  0  0  0  0  0
  196.8140  173.0460  146.1270 C   0  0  0  0  0  2  0  0  0  0  0  0
  1 26  1  6  0  0  0
  1 18  1  0  0  0  0
  2 14  2  0  0  0  0
  2 27  1  0  0  0  0
  3 16  1  1  0  0  0
  3 19  1  0  0  0  0
  3  7  1  0  0  0  0
  4 18  1  0  0  0  0
  4 15  1  0  0  0  0
  5 11  2  0  0  0  0
  5 19  1  0  0  0  0
  7  6  1  0  0  0  0
  8 16  1  0  0  0  0
  9 13  1  0  0  0  0
 10 22  2  0  0  0  0
 12 15  1  0  0  0  0
 12  8  1  0  0  0  0
 13 24  2  0  0  0  0
 14 25  1  0  0  0  0
 15  5  1  0  0  0  0
 17 10  1  0  0  0  0
 18 20  2  0  0  0  0
 19  6  1  1  0  0  0
 20 13  1  0  0  0  0
 20 11  1  0  0  0  0
 21 26  2  0  0  0  0
 21 23  1  0  0  0  0
 23  4  2  0  0  0  0
 24 22  1  0  0  0  0
 25  9  2  0  0  0  0
 25 17  1  0  0  0  0
 27  1  1  0  0  0  0
 27  9  1  0  0  0  0
 28 17  1  0  0  0  0
 29 28  1  0  0  0  0
 30 34  1  0  0  0  0
 31 33  1  0  0  0  0
 31 32  1  0  0  0  0
 32 29  1  6  0  0  0
 32 34  1  0  0  0  0
 33 30  2  0  0  0  0
M  END
>  <MODEL>
4

>  <REMARK>
 VINA RESULT:      -8.6      3.808     10.525
  Name = 
  3 active torsions:
  status: ('A' for Active; 'I' for Inactive)
    1  A    between atoms: N_17  and  C_28
    2  A    between atoms: C_28  and  N_29
    3  A    between atoms: N_29  and  C_32
                            x       y       z     vdW  Elec       q    Type
                         _______ _______ _______ _____ _____    ______ ____

>  <TORSDO>
F 3

$$$$
=
 OpenBabel11112417563D

 34 41  0  0  1  0  0  0  0  0999 V2000
  186.8800  176.9110  145.4910 C   0  0  1  0  0  3  0  0  0  0  0  0
  185.0840  178.7260  145.4250 C   0  0  0  0  0  3  0  0  0  0  0  0
  192.0080  174.1950  142.3690 C   0  0  2  0  0  3  0  0  0  0  0  0
  189.1280  175.6770  145.2480 C   0  0  0  0  0  0  0  0  0  0  0  0
  189.7570  174.8120  143.0170 C   0  0  0  0  0  0  0  0  0  0  0  0
  190.7260  174.1670  140.6730 C   0  0  0  0  0  2  0  0  0  0  0  0
  192.2400  174.1600  140.8740 C   0  0  0  0  0  2  0  0  0  0  0  0
  191.7600  173.0120  144.5510 C   0  0  0  0  0  2  0  0  0  0  0  0
  185.8290  177.7920  143.4110 C   0  0  0  0  0  0  0  0  0  0  0  0
  184.5880  178.1230  140.5650 C   0  0  0  0  0  3  0  0  0  0  0  0
  188.7310  175.4260  142.5040 N   0  0  0  0  0  0  0  0  0  0  0  0
  191.2770  174.3840  145.0670 C   0  0  0  0  0  2  0  0  0  0  0  0
  186.6950  176.9270  142.5800 C   0  0  0  0  0  0  0  0  0  0  0  0
  184.0910  179.0380  144.3100 C   0  0  0  0  0  3  0  0  0  0  0  0
  190.0160  174.8660  144.4500 N   0  0  0  0  0  0  0  0  0  0  0  0
  192.5930  173.1110  143.2540 C   0  0  0  0  0  2  0  0  0  0  0  0
  183.9820  178.3120  141.8470 N   0  0  0  0  0  0  0  0  0  0  0  0
  187.9480  176.2970  144.6100 C   0  0  0  0  0  0  0  0  0  0  0  0
  190.5540  173.8910  142.1550 C   0  0  1  0  0  3  0  0  0  0  0  0
  187.8000  176.2090  143.2740 C   0  0  0  0  0  0  0  0  0  0  0  0
  188.5770  176.9160  147.2990 C   0  0  0  0  0  3  0  0  0  0  0  0
  185.7320  177.5000  140.3110 C   0  0  0  0  0  3  0  0  0  0  0  0
  189.4100  175.9770  146.5250 C   0  0  0  0  0  3  0  0  0  0  0  0
  186.6470  176.8510  141.2500 C   0  0  0  0  0  3  0  0  0  0  0  0
  184.6840  178.3860  143.1000 C   0  0  0  0  0  0  0  0  0  0  0  0
  187.4300  177.3940  146.8070 C   0  0  0  0  0  3  0  0  0  0  0  0
  186.1370  177.9530  144.7880 N   0  0  0  0  0  0  0  0  0  0  0  0
  182.5840  178.7210  141.8130 C   0  0  0  0  0  2  0  0  0  0  0  0
  181.9700  178.2840  140.5690 N   0  0  0  0  0  2  0  0  0  0  0  0
  178.7070  177.5710  140.8140 N   0  0  0  0  0  0  0  0  0  0  0  0
  180.0940  179.0360  141.9270 C   0  0  0  0  0  2  0  0  0  0  0  0
  180.6440  178.8760  140.5150 C   0  0  2  0  0  3  0  0  0  0  0  0
  178.9010  178.1520  141.9330 C   0  0  0  0  0  3  0  0  0  0  0  0
  179.6870  177.9120  139.8240 C   0  0  0  0  0  2  0  0  0  0  0  0
  1 26  1  1  0  0  0
  3  7  1  6  0  0  0
  3 16  1  0  0  0  0
  4 23  2  0  0  0  0
  5 15  1  0  0  0  0
  6  7  1  0  0  0  0
  8 12  1  0  0  0  0
  9 27  1  0  0  0  0
 10 17  1  0  0  0  0
 11  5  2  0  0  0  0
 11 20  1  0  0  0  0
 13 20  1  0  0  0  0
 13  9  1  0  0  0  0
 14  2  2  0  0  0  0
 15 12  1  0  0  0  0
 15  4  1  0  0  0  0
 16  8  1  0  0  0  0
 17 25  1  0  0  0  0
 18  4  1  0  0  0  0
 18  1  1  0  0  0  0
 19  6  1  6  0  0  0
 19  3  1  0  0  0  0
 19  5  1  0  0  0  0
 20 18  2  0  0  0  0
 22 10  2  0  0  0  0
 22 24  1  0  0  0  0
 23 21  1  0  0  0  0
 24 13  2  0  0  0  0
 25  9  2  0  0  0  0
 25 14  1  0  0  0  0
 26 21  2  0  0  0  0
 27  2  1  0  0  0  0
 27  1  1  0  0  0  0
 28 17  1  0  0  0  0
 29 28  1  0  0  0  0
 30 33  2  0  0  0  0
 31 33  1  0  0  0  0
 32 29  1  1  0  0  0
 32 31  1  0  0  0  0
 34 32  1  0  0  0  0
 34 30  1  0  0  0  0
M  END
>  <MODEL>
5

>  <REMARK>
 VINA RESULT:      -8.4      1.643      2.112
  Name = 
  3 active torsions:
  status: ('A' for Active; 'I' for Inactive)
    1  A    between atoms: N_17  and  C_28
    2  A    between atoms: C_28  and  N_29
    3  A    between atoms: N_29  and  C_32
                            x       y       z     vdW  Elec       q    Type
                         _______ _______ _______ _____ _____    ______ ____

>  <TORSDO>
F 3

$$$$
=
 OpenBabel11112417563D

 34 41  0  0  1  0  0  0  0  0999 V2000
  188.8130  176.8670  146.6170 C   0  0  1  0  0  3  0  0  0  0  0  0
  190.8320  175.7440  147.7060 C   0  0  0  0  0  3  0  0  0  0  0  0
  185.2590  177.5440  141.1090 C   0  0  2  0  0  3  0  0  0  0  0  0
  186.7120  177.2750  145.1820 C   0  0  0  0  0  0  0  0  0  0  0  0
  187.0090  177.7440  142.7720 C   0  0  0  0  0  0  0  0  0  0  0  0
  187.1320  177.8870  140.1620 C   0  0  0  0  0  2  0  0  0  0  0  0
  185.7610  177.4080  139.6880 C   0  0  0  0  0  2  0  0  0  0  0  0
  184.1260  178.8760  142.8880 C   0  0  0  0  0  2  0  0  0  0  0  0
  190.9110  176.2540  145.4210 C   0  0  0  0  0  0  0  0  0  0  0  0
  193.3870  176.1740  143.5200 C   0  0  0  0  0  3  0  0  0  0  0  0
  188.2760  177.4710  142.8890 N   0  0  0  0  0  0  0  0  0  0  0  0
  184.6500  177.7740  143.8340 C   0  0  0  0  0  2  0  0  0  0  0  0
  190.3470  176.7320  144.1400 C   0  0  0  0  0  0  0  0  0  0  0  0
  192.2760  175.7080  147.2160 C   0  0  0  0  0  3  0  0  0  0  0  0
  186.1290  177.6970  143.9320 N   0  0  0  0  0  0  0  0  0  0  0  0
  184.0650  178.4280  141.4110 C   0  0  0  0  0  2  0  0  0  0  0  0
  193.3410  176.2750  144.9460 N   0  0  0  0  0  0  0  0  0  0  0  0
  188.1690  177.0400  145.2560 C   0  0  0  0  0  0  0  0  0  0  0  0
  186.5030  178.2960  141.4810 C   0  0  1  0  0  3  0  0  0  0  0  0
  188.9020  177.0880  144.1270 C   0  0  0  0  0  0  0  0  0  0  0  0
  186.5330  176.4160  147.4800 C   0  0  0  0  0  3  0  0  0  0  0  0
  192.3800  176.3680  142.6770 C   0  0  0  0  0  3  0  0  0  0  0  0
  185.9500  176.9790  146.2460 C   0  0  0  0  0  3  0  0  0  0  0  0
  190.9960  176.7370  142.9750 C   0  0  0  0  0  3  0  0  0  0  0  0
  192.1770  176.0520  145.7620 C   0  0  0  0  0  0  0  0  0  0  0  0
  187.8560  176.3130  147.6380 C   0  0  0  0  0  3  0  0  0  0  0  0
  190.0440  176.0860  146.5330 N   0  0  0  0  0  0  0  0  0  0  0  0
  194.6400  176.3480  145.6010 C   0  0  0  0  0  2  0  0  0  0  0  0
  195.5650  175.4200  144.9690 N   0  0  0  0  0  2  0  0  0  0  0  0
  195.8090  172.0810  145.0740 N   0  0  0  0  0  0  0  0  0  0  0  0
  197.1650  173.7900  145.8150 C   0  0  0  0  0  2  0  0  0  0  0  0
  195.7270  174.2950  145.8740 C   0  0  2  0  0  3  0  0  0  0  0  0
  197.0230  172.4090  145.2920 C   0  0  0  0  0  3  0  0  0  0  0  0
  194.8780  173.1270  145.3880 C   0  0  0  0  0  2  0  0  0  0  0  0
  1 26  1  1  0  0  0
  3  7  1  6  0  0  0
  3 16  1  0  0  0  0
  3 19  1  0  0  0  0
  4 18  1  0  0  0  0
  4 23  2  0  0  0  0
  5 11  2  0  0  0  0
  5 15  1  0  0  0  0
  7  6  1  0  0  0  0
  8 12  1  0  0  0  0
  9 25  2  0  0  0  0
  9 27  1  0  0  0  0
 10 17  1  0  0  0  0
 11 20  1  0  0  0  0
 12 15  1  0  0  0  0
 13  9  1  0  0  0  0
 14  2  2  0  0  0  0
 15  4  1  0  0  0  0
 16  8  1  0  0  0  0
 17 28  1  0  0  0  0
 17 25  1  0  0  0  0
 18  1  1  0  0  0  0
 19  6  1  6  0  0  0
 19  5  1  0  0  0  0
 20 13  1  0  0  0  0
 20 18  2  0  0  0  0
 21 26  2  0  0  0  0
 22 24  1  0  0  0  0
 22 10  2  0  0  0  0
 23 21  1  0  0  0  0
 24 13  2  0  0  0  0
 25 14  1  0  0  0  0
 27  1  1  0  0  0  0
 27  2  1  0  0  0  0
 29 28  1  0  0  0  0
 30 33  2  0  0  0  0
 30 34  1  0  0  0  0
 31 32  1  0  0  0  0
 32 29  1  6  0  0  0
 33 31  1  0  0  0  0
 34 32  1  0  0  0  0
M  END
>  <MODEL>
6

>  <REMARK>
 VINA RESULT:      -8.4      2.715      9.727
  Name = 
  3 active torsions:
  status: ('A' for Active; 'I' for Inactive)
    1  A    between atoms: N_17  and  C_28
    2  A    between atoms: C_28  and  N_29
    3  A    between atoms: N_29  and  C_32
                            x       y       z     vdW  Elec       q    Type
                         _______ _______ _______ _____ _____    ______ ____

>  <TORSDO>
F 3

$$$$
=
 OpenBabel11112417563D

 34 41  0  0  1  0  0  0  0  0999 V2000
  192.2920  175.9360  145.2080 C   0  0  1  0  0  3  0  0  0  0  0  0
  190.9300  177.9140  144.3390 C   0  0  0  0  0  3  0  0  0  0  0  0
  194.6090  169.9090  143.8930 C   0  0  2  0  0  3  0  0  0  0  0  0
  193.9170  173.9400  145.3240 C   0  0  0  0  0  0  0  0  0  0  0  0
  193.1450  171.7460  144.4800 C   0  0  0  0  0  0  0  0  0  0  0  0
  192.6140  169.4710  143.3030 C   0  0  0  0  0  2  0  0  0  0  0  0
  193.9850  168.8820  142.9740 C   0  0  0  0  0  2  0  0  0  0  0  0
  195.4800  170.5620  146.1380 C   0  0  0  0  0  2  0  0  0  0  0  0
  190.3650  175.7510  143.6390 C   0  0  0  0  0  0  0  0  0  0  0  0
  187.8120  174.8380  142.0920 C   0  0  0  0  0  3  0  0  0  0  0  0
  192.0680  172.3170  144.0230 N   0  0  0  0  0  0  0  0  0  0  0  0
  195.4880  171.9900  145.5500 C   0  0  0  0  0  2  0  0  0  0  0  0
  190.5540  174.2870  143.5450 C   0  0  0  0  0  0  0  0  0  0  0  0
  189.5250  177.9100  143.7470 C   0  0  0  0  0  3  0  0  0  0  0  0
  194.1460  172.5200  145.2020 N   0  0  0  0  0  0  0  0  0  0  0  0
  195.4770  169.4620  145.0530 C   0  0  0  0  0  2  0  0  0  0  0  0
  188.0230  176.0120  142.8830 N   0  0  0  0  0  0  0  0  0  0  0  0
  192.6440  174.5100  144.8360 C   0  0  0  0  0  0  0  0  0  0  0  0
  193.2530  170.2590  144.4300 C   0  0  1  0  0  3  0  0  0  0  0  0
  191.7850  173.7210  144.1630 C   0  0  0  0  0  0  0  0  0  0  0  0
  194.6920  176.2330  145.7580 C   0  0  0  0  0  3  0  0  0  0  0  0
  188.5690  173.7480  142.0710 C   0  0  0  0  0  3  0  0  0  0  0  0
  194.8760  174.7690  145.7630 C   0  0  0  0  0  3  0  0  0  0  0  0
  189.7820  173.4620  142.8370 C   0  0  0  0  0  3  0  0  0  0  0  0
  189.2980  176.4840  143.3520 C   0  0  0  0  0  0  0  0  0  0  0  0
  193.5130  176.7830  145.4520 C   0  0  0  0  0  3  0  0  0  0  0  0
  191.3880  176.5380  144.2330 N   0  0  0  0  0  0  0  0  0  0  0  0
  186.8780  176.9090  142.9720 C   0  0  0  0  0  2  0  0  0  0  0  0
  185.9510  176.4280  143.9830 N   0  0  0  0  0  2  0  0  0  0  0  0
  184.8560  179.0330  145.7820 N   0  0  0  0  0  0  0  0  0  0  0  0
  185.1910  176.8050  146.2660 C   0  0  0  0  0  2  0  0  0  0  0  0
  186.2030  177.1920  145.1930 C   0  0  2  0  0  3  0  0  0  0  0  0
  184.4420  178.0640  146.5020 C   0  0  0  0  0  3  0  0  0  0  0  0
  185.9460  178.6690  144.9220 C   0  0  0  0  0  2  0  0  0  0  0  0
  1 26  1  6  0  0  0
  3  7  1  6  0  0  0
  3 19  1  0  0  0  0
  3 16  1  0  0  0  0
  4 23  2  0  0  0  0
  5 15  1  0  0  0  0
  7  6  1  0  0  0  0
  9 27  1  0  0  0  0
 10 17  1  0  0  0  0
 11 20  1  0  0  0  0
 11  5  2  0  0  0  0
 12  8  1  0  0  0  0
 13  9  1  0  0  0  0
 13 20  1  0  0  0  0
 14  2  2  0  0  0  0
 15  4  1  0  0  0  0
 15 12  1  0  0  0  0
 16  8  1  0  0  0  0
 17 28  1  0  0  0  0
 17 25  1  0  0  0  0
 18  1  1  0  0  0  0
 18  4  1  0  0  0  0
 19  6  1  6  0  0  0
 19  5  1  0  0  0  0
 20 18  2  0  0  0  0
 21 23  1  0  0  0  0
 22 10  2  0  0  0  0
 22 24  1  0  0  0  0
 24 13  2  0  0  0  0
 25  9  2  0  0  0  0
 25 14  1  0  0  0  0
 26 21  2  0  0  0  0
 27  2  1  0  0  0  0
 27  1  1  0  0  0  0
 28 29  1  0  0  0  0
 30 33  2  0  0  0  0
 31 33  1  0  0  0  0
 32 29  1  6  0  0  0
 32 31  1  0  0  0  0
 34 32  1  0  0  0  0
 34 30  1  0  0  0  0
M  END
>  <MODEL>
7

>  <REMARK>
 VINA RESULT:      -8.2      3.836      6.723
  Name = 
  3 active torsions:
  status: ('A' for Active; 'I' for Inactive)
    1  A    between atoms: N_17  and  C_28
    2  A    between atoms: C_28  and  N_29
    3  A    between atoms: N_29  and  C_32
                            x       y       z     vdW  Elec       q    Type
                         _______ _______ _______ _____ _____    ______ ____

>  <TORSDO>
F 3

$$$$
=
 OpenBabel11112417563D

 34 41  0  0  1  0  0  0  0  0999 V2000
  192.0130  175.9450  145.7420 C   0  0  1  0  0  3  0  0  0  0  0  0
  190.0130  177.1670  146.7570 C   0  0  0  0  0  3  0  0  0  0  0  0
  195.5480  174.8530  140.2890 C   0  0  2  0  0  3  0  0  0  0  0  0
  194.1060  175.4120  144.3370 C   0  0  0  0  0  0  0  0  0  0  0  0
  193.7980  174.7900  141.9620 C   0  0  0  0  0  0  0  0  0  0  0  0
  193.6690  174.4770  139.3680 C   0  0  0  0  0  2  0  0  0  0  0  0
  195.0460  174.9040  138.8630 C   0  0  0  0  0  2  0  0  0  0  0  0
  196.6630  173.6230  142.1520 C   0  0  0  0  0  2  0  0  0  0  0  0
  189.9230  176.5100  144.5100 C   0  0  0  0  0  0  0  0  0  0  0  0
  187.4450  176.5030  142.6090 C   0  0  0  0  0  3  0  0  0  0  0  0
  192.5350  175.0890  142.0620 N   0  0  0  0  0  0  0  0  0  0  0  0
  196.1580  174.7930  143.0230 C   0  0  0  0  0  2  0  0  0  0  0  0
  190.4780  175.9400  143.2630 C   0  0  0  0  0  0  0  0  0  0  0  0
  188.5700  177.1930  146.2660 C   0  0  0  0  0  3  0  0  0  0  0  0
  194.6800  174.8990  143.1170 N   0  0  0  0  0  0  0  0  0  0  0  0
  196.7290  173.9730  140.6480 C   0  0  0  0  0  2  0  0  0  0  0  0
  187.4920  176.4950  144.0390 N   0  0  0  0  0  0  0  0  0  0  0  0
  192.6520  175.6730  144.3960 C   0  0  0  0  0  0  0  0  0  0  0  0
  194.2930  174.1470  140.7100 C   0  0  1  0  0  3  0  0  0  0  0  0
  191.9170  175.5620  143.2730 C   0  0  0  0  0  0  0  0  0  0  0  0
  194.3010  176.4160  146.5730 C   0  0  0  0  0  3  0  0  0  0  0  0
  188.4480  176.2380  141.7800 C   0  0  0  0  0  3  0  0  0  0  0  0
  194.8730  175.7650  145.3790 C   0  0  0  0  0  3  0  0  0  0  0  0
  189.8270  175.8690  142.1010 C   0  0  0  0  0  3  0  0  0  0  0  0
  188.6600  176.7530  144.8380 C   0  0  0  0  0  0  0  0  0  0  0  0
  192.9800  176.5500  146.7250 C   0  0  0  0  0  3  0  0  0  0  0  0
  190.7940  176.7370  145.6090 N   0  0  0  0  0  0  0  0  0  0  0  0
  186.1930  176.4850  144.6980 C   0  0  0  0  0  2  0  0  0  0  0  0
  185.4110  177.6330  144.2650 N   0  0  0  0  0  2  0  0  0  0  0  0
  185.4680  177.9130  147.6030 N   0  0  0  0  0  0  0  0  0  0  0  0
  185.1410  179.4230  145.8940 C   0  0  0  0  0  2  0  0  0  0  0  0
  184.6280  178.0720  145.4080 C   0  0  2  0  0  3  0  0  0  0  0  0
  185.6280  179.1330  147.2660 C   0  0  0  0  0  3  0  0  0  0  0  0
  184.8560  177.1200  146.5750 C   0  0  0  0  0  2  0  0  0  0  0  0
  1 26  1  1  0  0  0
  3  7  1  6  0  0  0
  3 16  1  0  0  0  0
  3 19  1  0  0  0  0
  4 18  1  0  0  0  0
  4 23  2  0  0  0  0
  5 11  2  0  0  0  0
  5 15  1  0  0  0  0
  7  6  1  0  0  0  0
  8 12  1  0  0  0  0
  9 25  2  0  0  0  0
  9 27  1  0  0  0  0
 10 17  1  0  0  0  0
 11 20  1  0  0  0  0
 12 15  1  0  0  0  0
 13 20  1  0  0  0  0
 13  9  1  0  0  0  0
 14  2  2  0  0  0  0
 15  4  1  0  0  0  0
 16  8  1  0  0  0  0
 17 28  1  0  0  0  0
 17 25  1  0  0  0  0
 18  1  1  0  0  0  0
 19  6  1  6  0  0  0
 19  5  1  0  0  0  0
 20 18  2  0  0  0  0
 21 26  2  0  0  0  0
 22 24  1  0  0  0  0
 22 10  2  0  0  0  0
 23 21  1  0  0  0  0
 24 13  2  0  0  0  0
 25 14  1  0  0  0  0
 27  1  1  0  0  0  0
 27  2  1  0  0  0  0
 29 28  1  0  0  0  0
 31 33  1  0  0  0  0
 32 29  1  6  0  0  0
 32 31  1  0  0  0  0
 32 34  1  0  0  0  0
 33 30  2  0  0  0  0
 34 30  1  0  0  0  0
M  END
>  <MODEL>
8

>  <REMARK>
 VINA RESULT:      -8.1      3.485      6.346
  Name = 
  3 active torsions:
  status: ('A' for Active; 'I' for Inactive)
    1  A    between atoms: N_17  and  C_28
    2  A    between atoms: C_28  and  N_29
    3  A    between atoms: N_29  and  C_32
                            x       y       z     vdW  Elec       q    Type
                         _______ _______ _______ _____ _____    ______ ____

>  <TORSDO>
F 3

$$$$
=
 OpenBabel11112417563D

 34 41  0  0  1  0  0  0  0  0999 V2000
  190.4270  172.9560  141.9310 C   0  0  1  0  0  3  0  0  0  0  0  0
  187.9780  173.6720  142.0390 C   0  0  0  0  0  3  0  0  0  0  0  0
  196.2040  172.7790  145.0950 C   0  0  2  0  0  3  0  0  0  0  0  0
  192.7470  172.0480  142.5870 C   0  0  0  0  0  0  0  0  0  0  0  0
  194.2800  173.5360  143.8350 C   0  0  0  0  0  0  0  0  0  0  0  0
  195.8590  174.8450  145.4590 C   0  0  0  0  0  2  0  0  0  0  0  0
  196.6930  173.7600  146.1380 C   0  0  0  0  0  2  0  0  0  0  0  0
  196.5140  171.5910  142.9230 C   0  0  0  0  0  2  0  0  0  0  0  0
  189.5840  174.9440  143.1730 C   0  0  0  0  0  0  0  0  0  0  0  0
  189.2330  177.7560  144.4840 C   0  0  0  0  0  3  0  0  0  0  0  0
  193.3170  174.4040  143.9560 N   0  0  0  0  0  0  0  0  0  0  0  0
  195.0420  171.1700  143.1180 C   0  0  0  0  0  2  0  0  0  0  0  0
  190.9470  175.2390  143.6690 C   0  0  0  0  0  0  0  0  0  0  0  0
  187.4050  175.0430  142.3840 C   0  0  0  0  0  3  0  0  0  0  0  0
  194.0720  172.2930  143.1040 N   0  0  0  0  0  0  0  0  0  0  0  0
  197.2000  172.0210  144.2390 C   0  0  0  0  0  2  0  0  0  0  0  0
  188.4540  177.1280  143.4620 N   0  0  0  0  0  0  0  0  0  0  0  0
  191.7190  173.1030  142.7070 C   0  0  0  0  0  0  0  0  0  0  0  0
  195.6530  173.9110  144.2810 C   0  0  1  0  0  3  0  0  0  0  0  0
  191.9960  174.2140  143.4170 C   0  0  0  0  0  0  0  0  0  0  0  0
  191.0030  170.5550  141.7050 C   0  0  0  0  0  3  0  0  0  0  0  0
  190.4380  177.3900  144.9020 C   0  0  0  0  0  3  0  0  0  0  0  0
  192.3930  170.8470  142.1060 C   0  0  0  0  0  3  0  0  0  0  0  0
  191.2710  176.2810  144.4350 C   0  0  0  0  0  3  0  0  0  0  0  0
  188.5260  175.7390  143.0930 C   0  0  0  0  0  0  0  0  0  0  0  0
  190.0740  171.5150  141.6720 C   0  0  0  0  0  3  0  0  0  0  0  0
  189.3320  173.6860  142.5650 N   0  0  0  0  0  0  0  0  0  0  0  0
  187.3340  177.9170  142.9670 C   0  0  0  0  0  2  0  0  0  0  0  0
  186.7140  178.6390  144.0670 N   0  0  0  0  0  2  0  0  0  0  0  0
  184.6940  177.6280  146.5400 N   0  0  0  0  0  0  0  0  0  0  0  0
  184.4100  179.0440  144.7440 C   0  0  0  0  0  2  0  0  0  0  0  0
  185.4390  177.9960  144.3360 C   0  0  2  0  0  3  0  0  0  0  0  0
  184.0660  178.6630  146.1370 C   0  0  0  0  0  3  0  0  0  0  0  0
  185.5780  177.0840  145.5500 C   0  0  0  0  0  2  0  0  0  0  0  0
  1 26  1  1  0  0  0
  1 27  1  0  0  0  0
  1 18  1  0  0  0  0
  2 14  2  0  0  0  0
  2 27  1  0  0  0  0
  3 16  1  6  0  0  0
  3  7  1  0  0  0  0
  4 18  1  0  0  0  0
  4 15  1  0  0  0  0
  5 11  2  0  0  0  0
  5 19  1  0  0  0  0
  6  7  1  0  0  0  0
  8 12  1  0  0  0  0
  8 16  1  0  0  0  0
  9 13  1  0  0  0  0
 10 22  2  0  0  0  0
 13 24  2  0  0  0  0
 14 25  1  0  0  0  0
 15 12  1  0  0  0  0
 15  5  1  0  0  0  0
 17 10  1  0  0  0  0
 18 20  2  0  0  0  0
 19  3  1  0  0  0  0
 19  6  1  1  0  0  0
 20 13  1  0  0  0  0
 20 11  1  0  0  0  0
 21 23  1  0  0  0  0
 23  4  2  0  0  0  0
 24 22  1  0  0  0  0
 25  9  2  0  0  0  0
 25 17  1  0  0  0  0
 26 21  2  0  0  0  0
 27  9  1  0  0  0  0
 28 17  1  0  0  0  0
 28 29  1  0  0  0  0
 31 33  1  0  0  0  0
 32 29  1  1  0  0  0
 32 31  1  0  0  0  0
 32 34  1  0  0  0  0
 33 30  2  0  0  0  0
 34 30  1  0  0  0  0
M  END
>  <MODEL>
9

>  <REMARK>
 VINA RESULT:      -8.0      3.625      6.945
  Name = 
  3 active torsions:
  status: ('A' for Active; 'I' for Inactive)
    1  A    between atoms: N_17  and  C_28
    2  A    between atoms: C_28  and  N_29
    3  A    between atoms: N_29  and  C_32
                            x       y       z     vdW  Elec       q    Type
                         _______ _______ _______ _____ _____    ______ ____

>  <TORSDO>
F 3

$$$$
