=
 OpenBabel11112417093D

 37 43  0  0  1  0  0  0  0  0999 V2000
  191.8250  175.3870  145.0750 C   0  0  0  0  0  2  0  0  0  0  0  0
  191.3780  171.1990  142.1370 C   0  0  0  0  0  0  0  0  0  0  0  0
  189.1010  174.7330  142.0830 C   0  0  0  0  0  0  0  0  0  0  0  0
  192.5460  175.8780  146.3320 C   0  0  2  0  0  3  0  0  0  0  0  0
  187.6370  175.3740  145.2250 O   0  0  0  0  0  0  0  0  0  0  0  0
  189.8120  172.7650  140.8640 C   0  0  0  0  0  0  0  0  0  0  0  0
  189.3230  175.2980  143.4590 C   0  0  1  0  0  3  0  0  0  0  0  0
  190.2920  177.1600  146.7440 C   0  0  2  0  0  3  0  0  0  0  0  0
  189.7910  173.5530  142.0040 C   0  0  0  0  0  0  0  0  0  0  0  0
  188.1880  176.0790  144.1460 C   0  0  1  0  0  3  0  0  0  0  0  0
  189.1130  173.2200  139.7370 C   0  0  0  0  0  3  0  0  0  0  0  0
  191.7540  176.9160  147.1520 C   0  0  0  0  0  2  0  0  0  0  0  0
  190.3650  173.1620  143.2280 N   0  0  0  0  0  0  0  0  0  0  0  0
  192.7220  171.8520  141.8580 C   0  0  0  0  0  1  0  0  0  0  0  0
  187.4890  176.4160  141.0150 C   0  0  0  0  0  2  0  0  0  0  0  0
  188.4100  174.4410  139.7880 C   0  0  0  0  0  3  0  0  0  0  0  0
  190.7810  171.7780  143.4360 C   0  0  0  0  0  2  0  0  0  0  0  0
  189.3690  175.9340  146.8920 C   0  0  1  0  0  3  0  0  0  0  0  0
  187.9340  176.1350  146.3690 C   0  0  0  0  0  2  0  0  0  0  0  0
  188.3970  175.2190  140.9630 C   0  0  0  0  0  0  0  0  0  0  0  0
  189.8070  174.0490  144.2400 C   0  0  1  0  0  3  0  0  0  0  0  0
  190.4420  171.3990  140.9210 C   0  0  0  0  0  2  0  0  0  0  0  0
  187.1280  176.6470  143.2010 C   0  0  2  0  0  3  0  0  0  0  0  0
  191.6030  169.7150  142.3300 C   0  0  0  0  0  1  0  0  0  0  0  0
  189.9890  174.5410  146.7030 C   0  0  0  0  0  2  0  0  0  0  0  0
  190.2200  177.7320  145.4720 O   0  0  0  0  0  1  0  0  0  0  0  0
  190.7650  174.3260  145.3950 C   0  0  2  0  0  3  0  0  0  0  0  0
  187.7610  177.2490  142.1060 O   0  0  0  0  0  0  0  0  0  0  0  0
  186.3430  179.0120  143.6070 C   0  0  0  0  0  3  0  0  0  0  0  0
  186.2570  177.6430  143.9020 C   0  0  0  0  0  0  0  0  0  0  0  0
  185.3650  177.2020  144.8840 C   0  0  0  0  0  3  0  0  0  0  0  0
  183.6940  177.6880  146.5130 F   0  0  0  0  0  0  0  0  0  0  0  0
  184.6440  179.4820  145.2650 C   0  0  0  0  0  3  0  0  0  0  0  0
  184.5580  178.1190  145.5630 C   0  0  0  0  0  0  0  0  0  0  0  0
  185.5370  179.9290  144.2870 C   0  0  0  0  0  3  0  0  0  0  0  0
  194.9380  175.4690  146.1370 N   0  0  0  0  0  1  0  0  0  0  0  0
  193.8960  176.4650  145.9650 C   0  0  0  0  0  2  0  0  0  0  0  0
  1  4  1  0  0  0  0
  2 24  1  0  0  0  0
  2 17  1  0  0  0  0
  4 37  1  6  0  0  0
  4 12  1  0  0  0  0
  5 19  1  0  0  0  0
  6 22  1  0  0  0  0
  6  9  2  0  0  0  0
  7  3  1  6  0  0  0
  7 10  1  0  0  0  0
  7 21  1  0  0  0  0
  8 26  1  6  0  0  0
  8 18  1  0  0  0  0
  8 12  1  0  0  0  0
  9  3  1  0  0  0  0
  9 13  1  0  0  0  0
 10  5  1  1  0  0  0
 11 16  2  0  0  0  0
 11  6  1  0  0  0  0
 13 17  1  0  0  0  0
 14  2  1  0  0  0  0
 15 28  1  0  0  0  0
 16 20  1  0  0  0  0
 18 19  1  6  0  0  0
 20 15  1  0  0  0  0
 20  3  2  0  0  0  0
 21 13  1  6  0  0  0
 21 27  1  0  0  0  0
 22  2  1  0  0  0  0
 23 30  1  1  0  0  0
 23 10  1  0  0  0  0
 25 18  1  0  0  0  0
 27  1  1  6  0  0  0
 27 25  1  0  0  0  0
 28 23  1  0  0  0  0
 29 30  2  0  0  0  0
 29 35  1  0  0  0  0
 30 31  1  0  0  0  0
 31 34  2  0  0  0  0
 33 34  1  0  0  0  0
 34 32  1  0  0  0  0
 35 33  2  0  0  0  0
 37 36  1  0  0  0  0
M  END
>  <MODEL>
1

>  <REMARK>
 VINA RESULT:      -9.4      0.000      0.000
  Name = 
  2 active torsions:
  status: ('A' for Active; 'I' for Inactive)
    1  A    between atoms: C_4  and  C_37
    2  A    between atoms: C_23  and  C_30
                            x       y       z     vdW  Elec       q    Type
                         _______ _______ _______ _____ _____    ______ ____

>  <TORSDO>
F 2

$$$$
=
 OpenBabel11112417093D

 37 43  0  0  1  0  0  0  0  0999 V2000
  192.0020  175.4320  145.2680 C   0  0  0  0  0  2  0  0  0  0  0  0
  191.6560  171.2120  142.3620 C   0  0  0  0  0  0  0  0  0  0  0  0
  189.2700  174.6740  142.3080 C   0  0  0  0  0  0  0  0  0  0  0  0
  192.7200  175.9530  146.5150 C   0  0  2  0  0  3  0  0  0  0  0  0
  187.8190  175.2910  145.4610 O   0  0  0  0  0  0  0  0  0  0  0  0
  190.0300  172.7210  141.0950 C   0  0  0  0  0  0  0  0  0  0  0  0
  189.4890  175.2550  143.6780 C   0  0  1  0  0  3  0  0  0  0  0  0
  190.4320  177.1690  146.9410 C   0  0  2  0  0  3  0  0  0  0  0  0
  189.9960  173.5160  142.2300 C   0  0  0  0  0  0  0  0  0  0  0  0
  188.3360  176.0050  144.3710 C   0  0  1  0  0  3  0  0  0  0  0  0
  189.3060  173.1450  139.9720 C   0  0  0  0  0  3  0  0  0  0  0  0
  191.9050  176.9720  147.3360 C   0  0  0  0  0  2  0  0  0  0  0  0
  190.5940  173.1500  143.4510 N   0  0  0  0  0  0  0  0  0  0  0  0
  192.9760  171.9040  142.0650 C   0  0  0  0  0  1  0  0  0  0  0  0
  187.5970  176.2990  141.2450 C   0  0  0  0  0  2  0  0  0  0  0  0
  188.5660  174.3450  140.0220 C   0  0  0  0  0  3  0  0  0  0  0  0
  191.0540  171.7810  143.6640 C   0  0  0  0  0  2  0  0  0  0  0  0
  189.5480  175.9160  147.1060 C   0  0  1  0  0  3  0  0  0  0  0  0
  188.1030  176.0680  146.5970 C   0  0  0  0  0  2  0  0  0  0  0  0
  188.5410  175.1300  141.1920 C   0  0  0  0  0  0  0  0  0  0  0  0
  190.0180  174.0270  144.4630 C   0  0  1  0  0  3  0  0  0  0  0  0
  190.7020  171.3750  141.1540 C   0  0  0  0  0  2  0  0  0  0  0  0
  187.2500  176.5340  143.4330 C   0  0  2  0  0  3  0  0  0  0  0  0
  191.9280  169.7370  142.5630 C   0  0  0  0  0  1  0  0  0  0  0  0
  190.2090  174.5410  146.9210 C   0  0  0  0  0  2  0  0  0  0  0  0
  190.3300  177.7290  145.6660 O   0  0  0  0  0  1  0  0  0  0  0  0
  190.9780  174.3410  145.6060 C   0  0  2  0  0  3  0  0  0  0  0  0
  187.8540  177.1480  142.3280 O   0  0  0  0  0  0  0  0  0  0  0  0
  185.4770  177.0830  145.1450 C   0  0  0  0  0  3  0  0  0  0  0  0
  186.3560  177.5070  144.1370 C   0  0  0  0  0  0  0  0  0  0  0  0
  186.3800  178.8540  143.7620 C   0  0  0  0  0  3  0  0  0  0  0  0
  185.5660  181.0790  144.0290 F   0  0  0  0  0  0  0  0  0  0  0  0
  184.6670  179.3490  145.4010 C   0  0  0  0  0  3  0  0  0  0  0  0
  185.5390  179.7750  144.3940 C   0  0  0  0  0  0  0  0  0  0  0  0
  184.6350  178.0040  145.7760 C   0  0  0  0  0  3  0  0  0  0  0  0
  194.2460  176.4900  144.6950 N   0  0  0  0  0  1  0  0  0  0  0  0
  194.0480  176.5800  146.1310 C   0  0  0  0  0  2  0  0  0  0  0  0
  1  4  1  0  0  0  0
  2 24  1  0  0  0  0
  2 17  1  0  0  0  0
  4 37  1  6  0  0  0
  4 12  1  0  0  0  0
  5 19  1  0  0  0  0
  6 22  1  0  0  0  0
  6  9  2  0  0  0  0
  7  3  1  6  0  0  0
  7 10  1  0  0  0  0
  7 21  1  0  0  0  0
  8 26  1  6  0  0  0
  8 18  1  0  0  0  0
  8 12  1  0  0  0  0
  9  3  1  0  0  0  0
  9 13  1  0  0  0  0
 10  5  1  1  0  0  0
 11 16  2  0  0  0  0
 11  6  1  0  0  0  0
 13 17  1  0  0  0  0
 14  2  1  0  0  0  0
 15 28  1  0  0  0  0
 16 20  1  0  0  0  0
 18 19  1  6  0  0  0
 20 15  1  0  0  0  0
 20  3  2  0  0  0  0
 21 13  1  6  0  0  0
 21 27  1  0  0  0  0
 22  2  1  0  0  0  0
 23 30  1  1  0  0  0
 23 10  1  0  0  0  0
 25 18  1  0  0  0  0
 27  1  1  6  0  0  0
 27 25  1  0  0  0  0
 28 23  1  0  0  0  0
 29 35  1  0  0  0  0
 30 29  2  0  0  0  0
 31 30  1  0  0  0  0
 31 34  2  0  0  0  0
 32 34  1  0  0  0  0
 33 35  2  0  0  0  0
 34 33  1  0  0  0  0
 36 37  1  0  0  0  0
M  END
>  <MODEL>
2

>  <REMARK>
 VINA RESULT:      -9.4      0.866      1.176
  Name = 
  2 active torsions:
  status: ('A' for Active; 'I' for Inactive)
    1  A    between atoms: C_4  and  C_37
    2  A    between atoms: C_23  and  C_30
                            x       y       z     vdW  Elec       q    Type
                         _______ _______ _______ _____ _____    ______ ____

>  <TORSDO>
F 2

$$$$
=
 OpenBabel11112417093D

 37 43  0  0  1  0  0  0  0  0999 V2000
  192.1710  175.5830  144.4710 C   0  0  0  0  0  2  0  0  0  0  0  0
  191.0270  172.4730  140.5490 C   0  0  0  0  0  0  0  0  0  0  0  0
  188.7370  175.5720  142.2320 C   0  0  0  0  0  0  0  0  0  0  0  0
  193.2010  175.7450  145.5900 C   0  0  2  0  0  3  0  0  0  0  0  0
  188.1930  175.0500  145.6760 O   0  0  0  0  0  0  0  0  0  0  0  0
  189.1290  174.1660  140.3000 C   0  0  0  0  0  0  0  0  0  0  0  0
  189.3210  175.7100  143.6120 C   0  0  1  0  0  3  0  0  0  0  0  0
  191.1210  176.5760  146.9600 C   0  0  2  0  0  3  0  0  0  0  0  0
  189.4080  174.5590  141.6000 C   0  0  0  0  0  0  0  0  0  0  0  0
  188.4030  176.1090  144.7810 C   0  0  1  0  0  3  0  0  0  0  0  0
  188.1320  174.8600  139.6010 C   0  0  0  0  0  3  0  0  0  0  0  0
  192.6450  176.3850  146.8770 C   0  0  0  0  0  2  0  0  0  0  0  0
  190.3100  173.8800  142.4400 N   0  0  0  0  0  0  0  0  0  0  0  0
  192.2230  173.3280  140.1630 C   0  0  0  0  0  1  0  0  0  0  0  0
  186.8500  177.3070  142.2200 C   0  0  0  0  0  2  0  0  0  0  0  0
  187.4420  175.9200  140.2250 C   0  0  0  0  0  3  0  0  0  0  0  0
  190.8010  172.5550  142.0720 C   0  0  0  0  0  2  0  0  0  0  0  0
  190.3060  175.2670  146.9320 C   0  0  1  0  0  3  0  0  0  0  0  0
  188.7780  175.4530  146.8890 C   0  0  0  0  0  2  0  0  0  0  0  0
  187.7370  176.2940  141.5510 C   0  0  0  0  0  0  0  0  0  0  0  0
  190.0340  174.3460  143.7930 C   0  0  1  0  0  3  0  0  0  0  0  0
  189.7840  172.9280  139.7460 C   0  0  0  0  0  2  0  0  0  0  0  0
  187.1070  176.8150  144.3780 C   0  0  2  0  0  3  0  0  0  0  0  0
  191.3330  171.0370  140.1840 C   0  0  0  0  0  1  0  0  0  0  0  0
  190.8840  174.0780  146.1480 C   0  0  0  0  0  2  0  0  0  0  0  0
  190.6830  177.4970  146.0060 O   0  0  0  0  0  1  0  0  0  0  0  0
  191.2690  174.3630  144.6890 C   0  0  2  0  0  3  0  0  0  0  0  0
  187.3950  177.7920  143.4140 O   0  0  0  0  0  0  0  0  0  0  0  0
  185.0450  177.4430  145.6920 C   0  0  0  0  0  3  0  0  0  0  0  0
  186.4420  177.4440  145.5630 C   0  0  0  0  0  0  0  0  0  0  0  0
  187.2270  178.0630  146.5410 C   0  0  0  0  0  3  0  0  0  0  0  0
  187.3880  179.2690  148.5900 F   0  0  0  0  0  0  0  0  0  0  0  0
  185.2320  178.6660  147.7720 C   0  0  0  0  0  3  0  0  0  0  0  0
  186.6240  178.6720  147.6450 C   0  0  0  0  0  0  0  0  0  0  0  0
  184.4420  178.0530  146.7960 C   0  0  0  0  0  3  0  0  0  0  0  0
  194.7090  177.5950  146.0720 N   0  0  0  0  0  1  0  0  0  0  0  0
  194.3810  176.5660  145.1020 C   0  0  0  0  0  2  0  0  0  0  0  0
  1  4  1  0  0  0  0
  2 17  1  0  0  0  0
  4 37  1  6  0  0  0
  4 12  1  0  0  0  0
  5 19  1  0  0  0  0
  6  9  2  0  0  0  0
  7  3  1  6  0  0  0
  7 21  1  0  0  0  0
  7 10  1  0  0  0  0
  8 26  1  6  0  0  0
  9  3  1  0  0  0  0
  9 13  1  0  0  0  0
 10  5  1  6  0  0  0
 11 16  2  0  0  0  0
 11  6  1  0  0  0  0
 12  8  1  0  0  0  0
 14  2  1  0  0  0  0
 15 28  1  0  0  0  0
 16 20  1  0  0  0  0
 17 13  1  0  0  0  0
 18 25  1  6  0  0  0
 18  8  1  0  0  0  0
 19 18  1  0  0  0  0
 20 15  1  0  0  0  0
 20  3  2  0  0  0  0
 21 13  1  6  0  0  0
 21 27  1  0  0  0  0
 22  6  1  0  0  0  0
 22  2  1  0  0  0  0
 23 10  1  0  0  0  0
 23 30  1  1  0  0  0
 24  2  1  0  0  0  0
 27  1  1  1  0  0  0
 27 25  1  0  0  0  0
 28 23  1  0  0  0  0
 29 35  1  0  0  0  0
 30 29  2  0  0  0  0
 30 31  1  0  0  0  0
 31 34  2  0  0  0  0
 34 33  1  0  0  0  0
 34 32  1  0  0  0  0
 35 33  2  0  0  0  0
 37 36  1  0  0  0  0
M  END
>  <MODEL>
3

>  <REMARK>
 VINA RESULT:      -9.3      1.496      1.846
  Name = 
  2 active torsions:
  status: ('A' for Active; 'I' for Inactive)
    1  A    between atoms: C_4  and  C_37
    2  A    between atoms: C_23  and  C_30
                            x       y       z     vdW  Elec       q    Type
                         _______ _______ _______ _____ _____    ______ ____

>  <TORSDO>
F 2

$$$$
=
 OpenBabel11112417093D

 37 43  0  0  1  0  0  0  0  0999 V2000
  193.1630  175.2280  143.9430 C   0  0  0  0  0  2  0  0  0  0  0  0
  192.0070  171.6740  140.4210 C   0  0  0  0  0  0  0  0  0  0  0  0
  189.6050  174.7620  141.9610 C   0  0  0  0  0  0  0  0  0  0  0  0
  194.2470  175.5690  144.9670 C   0  0  2  0  0  3  0  0  0  0  0  0
  189.3200  174.5480  145.4680 O   0  0  0  0  0  0  0  0  0  0  0  0
  189.9770  173.2010  140.1480 C   0  0  0  0  0  0  0  0  0  0  0  0
  190.2630  175.0750  143.2770 C   0  0  1  0  0  3  0  0  0  0  0  0
  192.2020  176.3880  146.3940 C   0  0  2  0  0  3  0  0  0  0  0  0
  190.3070  173.7390  141.3820 C   0  0  0  0  0  0  0  0  0  0  0  0
  189.3930  175.5250  144.4650 C   0  0  1  0  0  3  0  0  0  0  0  0
  188.8890  173.7540  139.4580 C   0  0  0  0  0  3  0  0  0  0  0  0
  193.7270  176.2940  146.2230 C   0  0  0  0  0  2  0  0  0  0  0  0
  191.3090  173.2090  142.2170 N   0  0  0  0  0  0  0  0  0  0  0  0
  193.1090  172.5650  139.8730 C   0  0  0  0  0  1  0  0  0  0  0  0
  187.5970  176.3540  141.9180 C   0  0  0  0  0  2  0  0  0  0  0  0
  188.1630  174.8200  140.0260 C   0  0  0  0  0  3  0  0  0  0  0  0
  191.8730  171.8910  141.9420 C   0  0  0  0  0  2  0  0  0  0  0  0
  191.4860  175.0300  146.5470 C   0  0  1  0  0  3  0  0  0  0  0  0
  189.9490  175.1080  146.5940 C   0  0  0  0  0  2  0  0  0  0  0  0
  188.5130  175.3430  141.2870 C   0  0  0  0  0  0  0  0  0  0  0  0
  191.0850  173.7870  143.5350 C   0  0  1  0  0  3  0  0  0  0  0  0
  190.6850  171.9620  139.6680 C   0  0  0  0  0  2  0  0  0  0  0  0
  188.0260  176.0980  144.0890 C   0  0  2  0  0  3  0  0  0  0  0  0
  192.3960  170.2320  140.1730 C   0  0  0  0  0  1  0  0  0  0  0  0
  192.1000  173.8110  145.8400 C   0  0  0  0  0  2  0  0  0  0  0  0
  191.6370  177.1780  145.3910 O   0  0  0  0  0  1  0  0  0  0  0  0
  192.3690  173.9760  144.3370 C   0  0  2  0  0  3  0  0  0  0  0  0
  188.1790  176.9910  143.0200 O   0  0  0  0  0  0  0  0  0  0  0  0
  188.1670  177.5260  146.1660 C   0  0  0  0  0  3  0  0  0  0  0  0
  187.3930  176.7940  145.2530 C   0  0  0  0  0  0  0  0  0  0  0  0
  186.0110  176.6890  145.4460 C   0  0  0  0  0  3  0  0  0  0  0  0
  184.0660  177.2140  146.7200 F   0  0  0  0  0  0  0  0  0  0  0  0
  186.1790  178.0470  147.4440 C   0  0  0  0  0  3  0  0  0  0  0  0
  185.4050  177.3160  146.5380 C   0  0  0  0  0  0  0  0  0  0  0  0
  187.5600  178.1510  147.2590 C   0  0  0  0  0  3  0  0  0  0  0  0
  196.4250  175.5720  143.8780 N   0  0  0  0  0  1  0  0  0  0  0  0
  195.3290  176.4150  144.3210 C   0  0  0  0  0  2  0  0  0  0  0  0
  1  4  1  0  0  0  0
  2 17  1  0  0  0  0
  4 37  1  6  0  0  0
  4 12  1  0  0  0  0
  5 19  1  0  0  0  0
  6  9  2  0  0  0  0
  7  3  1  6  0  0  0
  7 21  1  0  0  0  0
  7 10  1  0  0  0  0
  8 26  1  6  0  0  0
  8 18  1  0  0  0  0
  9  3  1  0  0  0  0
  9 13  1  0  0  0  0
 10  5  1  1  0  0  0
 11 16  2  0  0  0  0
 11  6  1  0  0  0  0
 12  8  1  0  0  0  0
 14  2  1  0  0  0  0
 15 28  1  0  0  0  0
 16 20  1  0  0  0  0
 17 13  1  0  0  0  0
 18 25  1  6  0  0  0
 18 19  1  0  0  0  0
 20 15  1  0  0  0  0
 20  3  2  0  0  0  0
 21 13  1  6  0  0  0
 21 27  1  0  0  0  0
 22  6  1  0  0  0  0
 22  2  1  0  0  0  0
 23 10  1  0  0  0  0
 23 30  1  1  0  0  0
 24  2  1  0  0  0  0
 27  1  1  1  0  0  0
 27 25  1  0  0  0  0
 28 23  1  0  0  0  0
 29 35  1  0  0  0  0
 30 31  1  0  0  0  0
 30 29  2  0  0  0  0
 31 34  2  0  0  0  0
 34 32  1  0  0  0  0
 34 33  1  0  0  0  0
 35 33  2  0  0  0  0
 36 37  1  0  0  0  0
M  END
>  <MODEL>
4

>  <REMARK>
 VINA RESULT:      -9.1      1.516      1.895
  Name = 
  2 active torsions:
  status: ('A' for Active; 'I' for Inactive)
    1  A    between atoms: C_4  and  C_37
    2  A    between atoms: C_23  and  C_30
                            x       y       z     vdW  Elec       q    Type
                         _______ _______ _______ _____ _____    ______ ____

>  <TORSDO>
F 2

$$$$
=
 OpenBabel11112417093D

 37 43  0  0  1  0  0  0  0  0999 V2000
  191.2670  172.7120  142.4530 C   0  0  0  0  0  2  0  0  0  0  0  0
  195.8490  174.9590  143.0250 C   0  0  0  0  0  0  0  0  0  0  0  0
  192.2210  175.7960  144.9790 C   0  0  0  0  0  0  0  0  0  0  0  0
  190.5380  171.7300  141.5330 C   0  0  2  0  0  3  0  0  0  0  0  0
  189.6670  176.5780  142.6790 O   0  0  0  0  0  0  0  0  0  0  0  0
  194.6350  175.9810  145.0270 C   0  0  0  0  0  0  0  0  0  0  0  0
  191.1930  175.2360  144.0340 C   0  0  1  0  0  3  0  0  0  0  0  0
  188.4910  173.3080  141.9900 C   0  0  2  0  0  3  0  0  0  0  0  0
  193.4530  175.5920  144.4170 C   0  0  0  0  0  0  0  0  0  0  0  0
  189.8250  175.9310  143.9120 C   0  0  1  0  0  3  0  0  0  0  0  0
  194.5560  176.5870  146.2890 C   0  0  0  0  0  3  0  0  0  0  0  0
  189.0270  171.9980  141.3900 C   0  0  0  0  0  2  0  0  0  0  0  0
  193.3890  175.0680  143.1120 N   0  0  0  0  0  0  0  0  0  0  0  0
  195.9560  173.5090  143.4680 C   0  0  0  0  0  1  0  0  0  0  0  0
  190.7990  176.7960  146.8620 C   0  0  0  0  0  2  0  0  0  0  0  0
  193.3000  176.7910  146.8960 C   0  0  0  0  0  3  0  0  0  0  0  0
  194.5460  175.1610  142.2260 C   0  0  0  0  0  2  0  0  0  0  0  0
  189.0580  174.5900  141.3480 C   0  0  1  0  0  3  0  0  0  0  0  0
  188.6210  175.9040  142.0240 C   0  0  0  0  0  2  0  0  0  0  0  0
  192.1120  176.3940  146.2500 C   0  0  0  0  0  0  0  0  0  0  0  0
  191.9920  175.1540  142.7080 C   0  0  1  0  0  3  0  0  0  0  0  0
  195.9280  175.8860  144.2630 C   0  0  0  0  0  2  0  0  0  0  0  0
  189.4350  176.8100  145.1020 C   0  0  2  0  0  3  0  0  0  0  0  0
  197.0220  175.2660  142.1200 C   0  0  0  0  0  1  0  0  0  0  0  0
  190.4870  174.5410  140.7850 C   0  0  0  0  0  2  0  0  0  0  0  0
  188.6180  173.3070  143.3800 O   0  0  0  0  0  1  0  0  0  0  0  0
  191.5700  174.0420  141.7530 C   0  0  2  0  0  3  0  0  0  0  0  0
  189.7120  176.1240  146.2920 O   0  0  0  0  0  0  0  0  0  0  0  0
  187.5440  178.2630  144.2730 C   0  0  0  0  0  3  0  0  0  0  0  0
  187.9850  177.1800  145.0480 C   0  0  0  0  0  0  0  0  0  0  0  0
  187.0620  176.4480  145.8030 C   0  0  0  0  0  3  0  0  0  0  0  0
  184.8170  176.0790  146.5130 F   0  0  0  0  0  0  0  0  0  0  0  0
  185.2710  177.8690  145.0060 C   0  0  0  0  0  3  0  0  0  0  0  0
  185.7080  176.7910  145.7810 C   0  0  0  0  0  0  0  0  0  0  0  0
  186.1890  178.6060  144.2520 C   0  0  0  0  0  3  0  0  0  0  0  0
  191.9850  170.2070  142.7650 N   0  0  0  0  0  1  0  0  0  0  0  0
  190.7420  170.3070  142.0200 C   0  0  0  0  0  2  0  0  0  0  0  0
  2 14  1  0  0  0  0
  2 22  1  0  0  0  0
  3 20  1  0  0  0  0
  4 37  1  1  0  0  0
  4  1  1  0  0  0  0
  6 11  2  0  0  0  0
  7  3  1  1  0  0  0
  8 26  1  1  0  0  0
  9  3  2  0  0  0  0
  9  6  1  0  0  0  0
 10  5  1  6  0  0  0
 10  7  1  0  0  0  0
 10 23  1  0  0  0  0
 11 16  1  0  0  0  0
 12  4  1  0  0  0  0
 12  8  1  0  0  0  0
 13  9  1  0  0  0  0
 17  2  1  0  0  0  0
 17 13  1  0  0  0  0
 18 25  1  1  0  0  0
 18  8  1  0  0  0  0
 18 19  1  0  0  0  0
 19  5  1  0  0  0  0
 20 15  1  0  0  0  0
 20 16  2  0  0  0  0
 21 13  1  1  0  0  0
 21  7  1  0  0  0  0
 22  6  1  0  0  0  0
 23 30  1  6  0  0  0
 23 28  1  0  0  0  0
 24  2  1  0  0  0  0
 27 25  1  1  0  0  0
 27  1  1  0  0  0  0
 27 21  1  0  0  0  0
 28 15  1  0  0  0  0
 29 30  1  0  0  0  0
 30 31  2  0  0  0  0
 33 34  2  0  0  0  0
 34 31  1  0  0  0  0
 34 32  1  0  0  0  0
 35 29  2  0  0  0  0
 35 33  1  0  0  0  0
 37 36  1  0  0  0  0
M  END
>  <MODEL>
5

>  <REMARK>
 VINA RESULT:      -9.0      2.106      5.310
  Name = 
  2 active torsions:
  status: ('A' for Active; 'I' for Inactive)
    1  A    between atoms: C_4  and  C_37
    2  A    between atoms: C_23  and  C_30
                            x       y       z     vdW  Elec       q    Type
                         _______ _______ _______ _____ _____    ______ ____

>  <TORSDO>
F 2

$$$$
=
 OpenBabel11112417093D

 37 43  0  0  1  0  0  0  0  0999 V2000
  192.7100  171.9060  141.5580 C   0  0  0  0  0  2  0  0  0  0  0  0
  196.3430  174.9090  139.5220 C   0  0  0  0  0  0  0  0  0  0  0  0
  194.2210  175.3820  143.1210 C   0  0  0  0  0  0  0  0  0  0  0  0
  191.8170  170.7180  141.1950 C   0  0  2  0  0  3  0  0  0  0  0  0
  190.7410  175.4660  142.5650 O   0  0  0  0  0  0  0  0  0  0  0  0
  196.2000  175.9550  141.8490 C   0  0  0  0  0  0  0  0  0  0  0  0
  192.9840  174.5560  142.8930 C   0  0  1  0  0  3  0  0  0  0  0  0
  190.0560  171.9910  142.6690 C   0  0  2  0  0  3  0  0  0  0  0  0
  194.9790  175.3120  141.9830 C   0  0  0  0  0  0  0  0  0  0  0  0
  191.6530  175.0030  143.5240 C   0  0  1  0  0  3  0  0  0  0  0  0
  196.6830  176.6860  142.9430 C   0  0  0  0  0  3  0  0  0  0  0  0
  190.4420  170.7220  141.8900 C   0  0  0  0  0  2  0  0  0  0  0  0
  194.3390  174.6340  140.9280 N   0  0  0  0  0  0  0  0  0  0  0  0
  196.9550  173.5580  139.8550 C   0  0  0  0  0  1  0  0  0  0  0  0
  193.8480  176.3580  145.4610 C   0  0  0  0  0  2  0  0  0  0  0  0
  195.9280  176.7570  144.1320 C   0  0  0  0  0  3  0  0  0  0  0  0
  194.8050  174.8040  139.5550 C   0  0  0  0  0  2  0  0  0  0  0  0
  189.9290  173.2620  141.8050 C   0  0  1  0  0  3  0  0  0  0  0  0
  189.6660  174.5600  142.5920 C   0  0  0  0  0  2  0  0  0  0  0  0
  194.6850  176.1010  144.2390 C   0  0  0  0  0  0  0  0  0  0  0  0
  192.9560  174.4460  141.3470 C   0  0  1  0  0  3  0  0  0  0  0  0
  196.8800  175.9780  140.5060 C   0  0  0  0  0  2  0  0  0  0  0  0
  191.7870  175.9440  144.7230 C   0  0  2  0  0  3  0  0  0  0  0  0
  196.7700  175.2910  138.1210 C   0  0  0  0  0  1  0  0  0  0  0  0
  190.8180  173.3750  140.5570 C   0  0  0  0  0  2  0  0  0  0  0  0
  190.8980  172.1750  143.7670 O   0  0  0  0  0  1  0  0  0  0  0  0
  192.3240  173.1750  140.7890 C   0  0  2  0  0  3  0  0  0  0  0  0
  192.7830  175.4580  145.5810 O   0  0  0  0  0  0  0  0  0  0  0  0
  189.6550  177.1800  145.2710 C   0  0  0  0  0  3  0  0  0  0  0  0
  190.4890  176.0680  145.4600 C   0  0  0  0  0  0  0  0  0  0  0  0
  190.1200  175.0710  146.3690 C   0  0  0  0  0  3  0  0  0  0  0  0
  188.5660  174.2110  147.9590 F   0  0  0  0  0  0  0  0  0  0  0  0
  188.0910  176.2870  146.8880 C   0  0  0  0  0  3  0  0  0  0  0  0
  188.9220  175.1790  147.0810 C   0  0  0  0  0  0  0  0  0  0  0  0
  188.4570  177.2880  145.9840 C   0  0  0  0  0  3  0  0  0  0  0  0
  192.4910  169.1620  142.9410 N   0  0  0  0  0  1  0  0  0  0  0  0
  192.5260  169.4140  141.5120 C   0  0  0  0  0  2  0  0  0  0  0  0
  2 17  1  0  0  0  0
  2 14  1  0  0  0  0
  2 22  1  0  0  0  0
  3 20  1  0  0  0  0
  4 37  1  1  0  0  0
  4  1  1  0  0  0  0
  4 12  1  0  0  0  0
  5 19  1  0  0  0  0
  6  9  1  0  0  0  0
  6 11  2  0  0  0  0
  7  3  1  6  0  0  0
  7 10  1  0  0  0  0
  8 26  1  1  0  0  0
  9  3  2  0  0  0  0
 10  5  1  6  0  0  0
 10 23  1  0  0  0  0
 11 16  1  0  0  0  0
 12  8  1  0  0  0  0
 13  9  1  0  0  0  0
 15 28  1  0  0  0  0
 16 20  2  0  0  0  0
 17 13  1  0  0  0  0
 18 25  1  1  0  0  0
 18 19  1  0  0  0  0
 18  8  1  0  0  0  0
 20 15  1  0  0  0  0
 21 13  1  1  0  0  0
 21  7  1  0  0  0  0
 22  6  1  0  0  0  0
 23 30  1  1  0  0  0
 23 28  1  0  0  0  0
 24  2  1  0  0  0  0
 27 25  1  1  0  0  0
 27 21  1  0  0  0  0
 27  1  1  0  0  0  0
 29 30  2  0  0  0  0
 29 35  1  0  0  0  0
 30 31  1  0  0  0  0
 31 34  2  0  0  0  0
 33 34  1  0  0  0  0
 34 32  1  0  0  0  0
 35 33  2  0  0  0  0
 37 36  1  0  0  0  0
M  END
>  <MODEL>
6

>  <REMARK>
 VINA RESULT:      -8.9      3.253      6.219
  Name = 
  2 active torsions:
  status: ('A' for Active; 'I' for Inactive)
    1  A    between atoms: C_4  and  C_37
    2  A    between atoms: C_23  and  C_30
                            x       y       z     vdW  Elec       q    Type
                         _______ _______ _______ _____ _____    ______ ____

>  <TORSDO>
F 2

$$$$
=
 OpenBabel11112417093D

 37 43  0  0  1  0  0  0  0  0999 V2000
  191.3890  175.4440  142.8200 C   0  0  0  0  0  2  0  0  0  0  0  0
  190.0170  172.2250  139.0630 C   0  0  0  0  0  0  0  0  0  0  0  0
  188.0450  175.6650  140.4610 C   0  0  0  0  0  0  0  0  0  0  0  0
  192.3980  175.5650  143.9650 C   0  0  2  0  0  3  0  0  0  0  0  0
  187.3430  175.4390  143.9080 O   0  0  0  0  0  0  0  0  0  0  0  0
  188.3320  174.0970  138.6370 C   0  0  0  0  0  0  0  0  0  0  0  0
  188.5990  175.8300  141.8500 C   0  0  1  0  0  3  0  0  0  0  0  0
  190.3860  176.7120  145.2000 C   0  0  2  0  0  3  0  0  0  0  0  0
  188.6150  174.5440  139.9190 C   0  0  0  0  0  0  0  0  0  0  0  0
  187.6980  176.4060  142.9560 C   0  0  1  0  0  3  0  0  0  0  0  0
  187.4410  174.8500  137.8590 C   0  0  0  0  0  3  0  0  0  0  0  0
  191.8790  176.3480  145.1870 C   0  0  0  0  0  2  0  0  0  0  0  0
  189.4090  173.8260  140.8330 N   0  0  0  0  0  0  0  0  0  0  0  0
  191.3130  172.9130  138.6680 C   0  0  0  0  0  1  0  0  0  0  0  0
  186.3680  177.5940  140.2690 C   0  0  0  0  0  2  0  0  0  0  0  0
  186.8570  176.0190  138.3890 C   0  0  0  0  0  3  0  0  0  0  0  0
  189.7570  172.4330  140.5690 C   0  0  0  0  0  2  0  0  0  0  0  0
  189.4290  175.5030  145.2250 C   0  0  1  0  0  3  0  0  0  0  0  0
  187.9330  175.8550  145.1140 C   0  0  0  0  0  2  0  0  0  0  0  0
  187.1540  176.4460  139.6980 C   0  0  0  0  0  0  0  0  0  0  0  0
  189.1470  174.4090  142.1430 C   0  0  1  0  0  3  0  0  0  0  0  0
  188.8580  172.7600  138.1880 C   0  0  0  0  0  2  0  0  0  0  0  0
  186.5030  177.2230  142.4610 C   0  0  2  0  0  3  0  0  0  0  0  0
  190.1690  170.7420  138.8020 C   0  0  0  0  0  1  0  0  0  0  0  0
  189.8900  174.2070  144.5400 C   0  0  0  0  0  2  0  0  0  0  0  0
  190.0830  177.6100  144.1750 O   0  0  0  0  0  1  0  0  0  0  0  0
  190.3490  174.3490  143.0810 C   0  0  2  0  0  3  0  0  0  0  0  0
  186.9290  178.0940  141.4490 O   0  0  0  0  0  0  0  0  0  0  0  0
  185.9410  179.4010  143.6080 C   0  0  0  0  0  3  0  0  0  0  0  0
  185.8790  177.9990  143.5790 C   0  0  0  0  0  0  0  0  0  0  0  0
  185.2490  177.3130  144.6220 C   0  0  0  0  0  3  0  0  0  0  0  0
  184.0660  177.3520  146.6910 F   0  0  0  0  0  0  0  0  0  0  0  0
  184.7380  179.4160  145.7070 C   0  0  0  0  0  3  0  0  0  0  0  0
  184.6770  178.0200  145.6830 C   0  0  0  0  0  0  0  0  0  0  0  0
  185.3710  180.1070  144.6710 C   0  0  0  0  0  3  0  0  0  0  0  0
  193.6290  176.3770  142.0270 N   0  0  0  0  0  1  0  0  0  0  0  0
  193.6770  176.2150  143.4690 C   0  0  0  0  0  2  0  0  0  0  0  0
  1  4  1  0  0  0  0
  2 17  1  0  0  0  0
  4 37  1  6  0  0  0
  4 12  1  0  0  0  0
  5 19  1  0  0  0  0
  6  9  2  0  0  0  0
  7  3  1  6  0  0  0
  7 21  1  0  0  0  0
  7 10  1  0  0  0  0
  8 26  1  6  0  0  0
  8 18  1  0  0  0  0
  9  3  1  0  0  0  0
  9 13  1  0  0  0  0
 10  5  1  6  0  0  0
 11 16  2  0  0  0  0
 11  6  1  0  0  0  0
 12  8  1  0  0  0  0
 14  2  1  0  0  0  0
 15 28  1  0  0  0  0
 16 20  1  0  0  0  0
 17 13  1  0  0  0  0
 18 25  1  6  0  0  0
 19 18  1  0  0  0  0
 20 15  1  0  0  0  0
 20  3  2  0  0  0  0
 21 13  1  6  0  0  0
 21 27  1  0  0  0  0
 22  6  1  0  0  0  0
 22  2  1  0  0  0  0
 23 10  1  0  0  0  0
 23 30  1  1  0  0  0
 24  2  1  0  0  0  0
 27  1  1  1  0  0  0
 27 25  1  0  0  0  0
 28 23  1  0  0  0  0
 29 35  1  0  0  0  0
 30 29  2  0  0  0  0
 30 31  1  0  0  0  0
 31 34  2  0  0  0  0
 34 33  1  0  0  0  0
 34 32  1  0  0  0  0
 35 33  2  0  0  0  0
 36 37  1  0  0  0  0
M  END
>  <MODEL>
7

>  <REMARK>
 VINA RESULT:      -8.4      1.693      2.270
  Name = 
  2 active torsions:
  status: ('A' for Active; 'I' for Inactive)
    1  A    between atoms: C_4  and  C_37
    2  A    between atoms: C_23  and  C_30
                            x       y       z     vdW  Elec       q    Type
                         _______ _______ _______ _____ _____    ______ ____

>  <TORSDO>
F 2

$$$$
=
 OpenBabel11112417093D

 37 43  0  0  1  0  0  0  0  0999 V2000
  191.0380  173.4940  142.1640 C   0  0  0  0  0  2  0  0  0  0  0  0
  189.2320  176.2030  146.1340 C   0  0  0  0  0  0  0  0  0  0  0  0
  193.1430  174.8400  145.4140 C   0  0  0  0  0  0  0  0  0  0  0  0
  190.5460  172.7050  140.9490 C   0  0  2  0  0  3  0  0  0  0  0  0
  193.2350  171.3390  145.0080 O   0  0  0  0  0  0  0  0  0  0  0  0
  191.7360  176.4170  146.5940 C   0  0  0  0  0  0  0  0  0  0  0  0
  192.9310  173.6990  144.4560 C   0  0  1  0  0  3  0  0  0  0  0  0
  192.5740  171.1440  141.5330 C   0  0  2  0  0  3  0  0  0  0  0  0
  191.9110  175.3450  145.7330 C   0  0  0  0  0  0  0  0  0  0  0  0
  193.8740  172.4840  144.5110 C   0  0  1  0  0  3  0  0  0  0  0  0
  192.8790  177.0210  147.1360 C   0  0  0  0  0  3  0  0  0  0  0  0
  191.4470  171.5180  140.5570 C   0  0  0  0  0  2  0  0  0  0  0  0
  190.8460  174.5910  145.2050 N   0  0  0  0  0  0  0  0  0  0  0  0
  189.1010  177.0390  144.8720 C   0  0  0  0  0  1  0  0  0  0  0  0
  195.6820  174.8430  145.7640 C   0  0  0  0  0  2  0  0  0  0  0  0
  194.1590  176.5300  146.8070 C   0  0  0  0  0  3  0  0  0  0  0  0
  189.5020  174.7330  145.7560 C   0  0  0  0  0  2  0  0  0  0  0  0
  192.0950  170.6760  142.9220 C   0  0  1  0  0  3  0  0  0  0  0  0
  193.2180  170.4200  143.9450 C   0  0  0  0  0  2  0  0  0  0  0  0
  194.3100  175.4320  145.9360 C   0  0  0  0  0  0  0  0  0  0  0  0
  191.4360  173.3620  144.6900 C   0  0  1  0  0  3  0  0  0  0  0  0
  190.3450  176.7920  147.0340 C   0  0  0  0  0  2  0  0  0  0  0  0
  195.2300  172.7440  145.1690 C   0  0  2  0  0  3  0  0  0  0  0  0
  187.9200  176.2740  146.8860 C   0  0  0  0  0  1  0  0  0  0  0  0
  190.7820  171.2620  143.4640 C   0  0  0  0  0  2  0  0  0  0  0  0
  193.5220  172.1670  141.6120 O   0  0  0  0  0  1  0  0  0  0  0  0
  190.6930  172.7960  143.4840 C   0  0  2  0  0  3  0  0  0  0  0  0
  195.7520  173.9520  144.6870 O   0  0  0  0  0  0  0  0  0  0  0  0
  196.6790  171.3950  143.6030 C   0  0  0  0  0  3  0  0  0  0  0  0
  196.1870  171.6250  144.8970 C   0  0  0  0  0  0  0  0  0  0  0  0
  196.5730  170.7830  145.9440 C   0  0  0  0  0  3  0  0  0  0  0  0
  197.8230  168.9090  146.7230 F   0  0  0  0  0  0  0  0  0  0  0  0
  197.9410  169.4960  144.4160 C   0  0  0  0  0  3  0  0  0  0  0  0
  197.4500  169.7210  145.7050 C   0  0  0  0  0  0  0  0  0  0  0  0
  197.5550  170.3320  143.3640 C   0  0  0  0  0  3  0  0  0  0  0  0
  188.9940  173.9230  139.5220 N   0  0  0  0  0  1  0  0  0  0  0  0
  190.3960  173.6270  139.7520 C   0  0  0  0  0  2  0  0  0  0  0  0
  2 24  1  0  0  0  0
  2 22  1  0  0  0  0
  3  9  2  0  0  0  0
  3 20  1  0  0  0  0
  4 37  1  6  0  0  0
  4  1  1  0  0  0  0
  6 22  1  0  0  0  0
  6 11  2  0  0  0  0
  7 10  1  0  0  0  0
  7 21  1  0  0  0  0
  7  3  1  1  0  0  0
  8 26  1  1  0  0  0
  8 18  1  0  0  0  0
  9  6  1  0  0  0  0
 10  5  1  1  0  0  0
 10 23  1  0  0  0  0
 12  4  1  0  0  0  0
 12  8  1  0  0  0  0
 13  9  1  0  0  0  0
 13 17  1  0  0  0  0
 14  2  1  0  0  0  0
 15 20  1  0  0  0  0
 16 11  1  0  0  0  0
 17  2  1  0  0  0  0
 18 25  1  1  0  0  0
 18 19  1  0  0  0  0
 19  5  1  0  0  0  0
 20 16  2  0  0  0  0
 21 13  1  6  0  0  0
 23 30  1  6  0  0  0
 25 27  1  0  0  0  0
 27  1  1  6  0  0  0
 27 21  1  0  0  0  0
 28 23  1  0  0  0  0
 28 15  1  0  0  0  0
 29 30  1  0  0  0  0
 30 31  2  0  0  0  0
 33 34  2  0  0  0  0
 34 31  1  0  0  0  0
 34 32  1  0  0  0  0
 35 29  2  0  0  0  0
 35 33  1  0  0  0  0
 36 37  1  0  0  0  0
M  END
>  <MODEL>
8

>  <REMARK>
 VINA RESULT:      -8.4      4.329      8.999
  Name = 
  2 active torsions:
  status: ('A' for Active; 'I' for Inactive)
    1  A    between atoms: C_4  and  C_37
    2  A    between atoms: C_23  and  C_30
                            x       y       z     vdW  Elec       q    Type
                         _______ _______ _______ _____ _____    ______ ____

>  <TORSDO>
F 2

$$$$
=
 OpenBabel11112417093D

 37 43  0  0  1  0  0  0  0  0999 V2000
  189.8030  173.4170  139.9520 C   0  0  0  0  0  2  0  0  0  0  0  0
  187.0250  176.9870  142.3830 C   0  0  0  0  0  0  0  0  0  0  0  0
  191.0210  175.8450  143.0230 C   0  0  0  0  0  0  0  0  0  0  0  0
  189.6390  172.2650  138.9590 C   0  0  2  0  0  3  0  0  0  0  0  0
  191.2800  172.4030  143.7400 O   0  0  0  0  0  0  0  0  0  0  0  0
  189.3360  177.5600  143.3110 C   0  0  0  0  0  0  0  0  0  0  0  0
  191.0730  174.4590  142.4380 C   0  0  1  0  0  3  0  0  0  0  0  0
  191.4940  171.1400  140.4370 C   0  0  2  0  0  3  0  0  0  0  0  0
  189.7390  176.3040  142.8830 C   0  0  0  0  0  0  0  0  0  0  0  0
  191.9980  173.4070  143.0750 C   0  0  1  0  0  3  0  0  0  0  0  0
  190.3000  178.4000  143.8870 C   0  0  0  0  0  3  0  0  0  0  0  0
  190.6320  171.1050  139.1640 C   0  0  0  0  0  2  0  0  0  0  0  0
  188.8510  175.3320  142.3850 N   0  0  0  0  0  0  0  0  0  0  0  0
  187.1910  177.4020  140.9310 C   0  0  0  0  0  1  0  0  0  0  0  0
  193.3970  176.1880  143.9220 C   0  0  0  0  0  2  0  0  0  0  0  0
  191.6310  177.9550  144.0240 C   0  0  0  0  0  3  0  0  0  0  0  0
  187.4100  175.5020  142.5450 C   0  0  0  0  0  2  0  0  0  0  0  0
  190.6990  171.0560  141.7560 C   0  0  1  0  0  3  0  0  0  0  0  0
  191.5420  171.2160  143.0350 C   0  0  0  0  0  2  0  0  0  0  0  0
  192.0120  176.6700  143.5890 C   0  0  0  0  0  0  0  0  0  0  0  0
  189.5730  174.0670  142.4180 C   0  0  1  0  0  3  0  0  0  0  0  0
  187.8730  177.9150  143.2870 C   0  0  0  0  0  2  0  0  0  0  0  0
  193.1460  173.9740  143.9120 C   0  0  2  0  0  3  0  0  0  0  0  0
  185.5690  177.1510  142.7590 C   0  0  0  0  0  1  0  0  0  0  0  0
  189.2810  171.6490  141.7790 C   0  0  0  0  0  2  0  0  0  0  0  0
  192.3720  172.2250  140.4130 O   0  0  0  0  0  1  0  0  0  0  0  0
  189.1590  173.1060  141.3080 C   0  0  2  0  0  3  0  0  0  0  0  0
  193.7460  175.0310  143.2150 O   0  0  0  0  0  0  0  0  0  0  0  0
  194.2220  172.3210  145.4880 C   0  0  0  0  0  3  0  0  0  0  0  0
  194.1630  172.9190  144.2200 C   0  0  0  0  0  0  0  0  0  0  0  0
  195.0830  172.5450  143.2350 C   0  0  0  0  0  3  0  0  0  0  0  0
  196.9390  171.2150  142.5520 F   0  0  0  0  0  0  0  0  0  0  0  0
  196.1060  170.9800  144.7730 C   0  0  0  0  0  3  0  0  0  0  0  0
  196.0510  171.5760  143.5090 C   0  0  0  0  0  0  0  0  0  0  0  0
  195.1920  171.3520  145.7620 C   0  0  0  0  0  3  0  0  0  0  0  0
  190.8070  173.7900  137.4620 N   0  0  0  0  0  1  0  0  0  0  0  0
  189.7680  172.7780  137.5360 C   0  0  0  0  0  2  0  0  0  0  0  0
  2 17  1  0  0  0  0
  2 24  1  0  0  0  0
  2 22  1  0  0  0  0
  3 20  1  0  0  0  0
  4 37  1  6  0  0  0
  4 12  1  0  0  0  0
  4  1  1  0  0  0  0
  6 11  2  0  0  0  0
  7  3  1  1  0  0  0
  7 10  1  0  0  0  0
  8 26  1  1  0  0  0
  8 18  1  0  0  0  0
  9  3  2  0  0  0  0
  9  6  1  0  0  0  0
 10  5  1  1  0  0  0
 10 23  1  0  0  0  0
 11 16  1  0  0  0  0
 12  8  1  0  0  0  0
 13 17  1  0  0  0  0
 13  9  1  0  0  0  0
 14  2  1  0  0  0  0
 18 25  1  6  0  0  0
 18 19  1  0  0  0  0
 19  5  1  0  0  0  0
 20 15  1  0  0  0  0
 20 16  2  0  0  0  0
 21 13  1  6  0  0  0
 21  7  1  0  0  0  0
 22  6  1  0  0  0  0
 23 30  1  6  0  0  0
 27  1  1  6  0  0  0
 27 25  1  0  0  0  0
 27 21  1  0  0  0  0
 28 23  1  0  0  0  0
 28 15  1  0  0  0  0
 29 35  1  0  0  0  0
 30 29  2  0  0  0  0
 31 34  2  0  0  0  0
 31 30  1  0  0  0  0
 32 34  1  0  0  0  0
 33 35  2  0  0  0  0
 34 33  1  0  0  0  0
 36 37  1  0  0  0  0
M  END
>  <MODEL>
9

>  <REMARK>
 VINA RESULT:      -8.2      3.813      8.101
  Name = 
  2 active torsions:
  status: ('A' for Active; 'I' for Inactive)
    1  A    between atoms: C_4  and  C_37
    2  A    between atoms: C_23  and  C_30
                            x       y       z     vdW  Elec       q    Type
                         _______ _______ _______ _____ _____    ______ ____

>  <TORSDO>
F 2

$$$$
