=
 OpenBabel11112417283D

 37 42  0  0  1  0  0  0  0  0999 V2000
  194.0790  176.1300  145.8970 C   0  0  0  0  0  0  0  0  0  0  0  0
  190.3730  175.5900  145.3850 C   0  0  1  0  0  3  0  0  0  0  0  0
  189.2100  174.1870  142.5360 O   0  0  0  0  0  0  0  0  0  0  0  0
  192.2420  175.6880  147.2060 C   0  0  2  0  0  3  0  0  0  0  0  0
  190.6860  175.5550  143.8890 C   0  0  2  0  0  3  0  0  0  0  0  0
  191.5950  174.9250  146.0470 C   0  0  2  0  0  3  0  0  0  0  0  0
  189.4660  175.5050  142.9460 C   0  0  2  0  0  3  0  0  0  0  0  0
  191.1490  176.2810  148.0760 C   0  0  0  0  0  2  0  0  0  0  0  0
  192.6060  174.6130  144.9430 C   0  0  2  0  0  3  0  0  0  0  0  0
  194.7610  175.0820  146.5070 F   0  0  0  0  0  0  0  0  0  0  0  0
  188.6960  177.3910  145.5360 N   0  0  0  0  0  2  0  0  0  0  0  0
  190.3320  177.3310  147.3230 C   0  0  0  0  0  2  0  0  0  0  0  0
  193.4620  175.7150  144.6970 O   0  0  0  0  0  0  0  0  0  0  0  0
  190.5490  174.1730  140.7250 C   0  0  0  0  0  2  0  0  0  0  0  0
  189.2130  174.2010  141.2070 O   0  0  0  0  0  0  0  0  0  0  0  0
  190.0820  177.0400  145.8330 C   0  0  1  0  0  3  0  0  0  0  0  0
  191.6880  174.4060  143.7400 C   0  0  2  0  0  3  0  0  0  0  0  0
  193.1200  176.6990  146.7630 O   0  0  0  0  0  0  0  0  0  0  0  0
  188.1960  176.2090  143.4670 C   0  0  1  0  0  3  0  0  0  0  0  0
  195.0060  177.1070  145.5880 F   0  0  0  0  0  0  0  0  0  0  0  0
  191.5380  173.4230  141.6170 C   0  0  0  0  0  2  0  0  0  0  0  0
  192.3250  174.3670  142.4090 N   0  0  0  0  0  0  0  0  0  0  0  0
  188.5260  177.5560  144.1000 C   0  0  0  0  0  2  0  0  0  0  0  0
  187.6380  177.2740  141.2310 C   0  0  0  0  0  2  0  0  0  0  0  0
  187.1280  176.4040  142.3880 C   0  0  2  0  0  3  0  0  0  0  0  0
  185.7520  176.8290  142.9600 C   0  0  0  0  0  2  0  0  0  0  0  0
  183.7610  178.0930  142.5230 O   0  0  0  0  0  1  0  0  0  0  0  0
  185.3230  177.9220  140.7470 C   0  0  0  0  0  3  0  0  0  0  0  0
  185.1220  178.0240  142.2310 C   0  0  2  0  0  3  0  0  0  0  0  0
  186.5210  177.5670  140.2710 C   0  0  0  0  0  3  0  0  0  0  0  0
  193.6630  173.7700  142.4820 C   0  0  0  0  0  2  0  0  0  0  0  0
  194.6410  174.4310  141.5010 C   0  0  1  0  0  3  0  0  0  0  0  0
  195.2460  176.7000  141.2630 O   0  0  0  0  0  0  0  0  0  0  0  0
  194.3420  175.8820  141.2990 C   0  0  0  0  0  3  0  0  0  0  0  0
  196.0890  174.2540  141.9360 C   0  0  0  0  0  2  0  0  0  0  0  0
  196.1740  173.9990  143.4310 C   0  0  0  0  0  2  0  0  0  0  0  0
  196.9160  175.0080  144.0460 O   0  0  0  0  0  1  0  0  0  0  0  0
  1 10  1  0  0  0  0
  1 18  1  0  0  0  0
  2 16  1  0  0  0  0
  2  6  1  0  0  0  0
  3  7  1  0  0  0  0
  4  8  1  0  0  0  0
  5  2  1  0  0  0  0
  6  4  1  0  0  0  0
  7 19  1  0  0  0  0
  7  5  1  0  0  0  0
  9  6  1  0  0  0  0
 11 16  1  0  0  0  0
 12  8  1  0  0  0  0
 13  9  1  0  0  0  0
 13  1  1  0  0  0  0
 14 15  1  0  0  0  0
 14 21  1  0  0  0  0
 15  3  1  0  0  0  0
 16 12  1  0  0  0  0
 17  5  1  0  0  0  0
 17  9  1  0  0  0  0
 18  4  1  0  0  0  0
 19 23  1  0  0  0  0
 20  1  1  0  0  0  0
 21 22  1  0  0  0  0
 22 31  1  0  0  0  0
 22 17  1  0  0  0  0
 23 11  1  0  0  0  0
 24 25  1  0  0  0  0
 25 26  1  0  0  0  0
 25 19  1  0  0  0  0
 28 29  1  0  0  0  0
 29 27  1  0  0  0  0
 29 26  1  0  0  0  0
 30 28  2  0  0  0  0
 30 24  1  0  0  0  0
 32 35  1  0  0  0  0
 32 31  1  0  0  0  0
 33 34  2  0  0  0  0
 34 32  1  0  0  0  0
 35 36  1  0  0  0  0
 36 37  1  0  0  0  0
M  END
>  <MODEL>
1

>  <REMARK>
 VINA RESULT:      -7.8      0.000      0.000
  Name = 
  6 active torsions:
  status: ('A' for Active; 'I' for Inactive)
    1  A    between atoms: C_1  and  C_4
    2  A    between atoms: C_1  and  N_27
    3  A    between atoms: C_4  and  C_12
    4  A    between atoms: C_4  and  C_37
    5  A    between atoms: C_8  and  C_12
    6  A    between atoms: C_23  and  C_30
                            x       y       z     vdW  Elec       q    Type
                         _______ _______ _______ _____ _____    ______ ____

>  <TORSDO>
F 6

$$$$
=
 OpenBabel11112417283D

 37 42  0  0  1  0  0  0  0  0999 V2000
  187.5390  176.9170  141.5010 C   0  0  0  0  0  0  0  0  0  0  0  0
  189.6960  174.2800  143.1400 C   0  0  1  0  0  3  0  0  0  0  0  0
  190.6810  174.6110  146.3590 O   0  0  0  0  0  0  0  0  0  0  0  0
  187.8370  174.6440  141.3420 C   0  0  2  0  0  3  0  0  0  0  0  0
  190.1050  175.3720  144.1300 C   0  0  2  0  0  3  0  0  0  0  0  0
  188.2190  174.5860  142.8230 C   0  0  2  0  0  3  0  0  0  0  0  0
  191.2240  174.9960  145.1230 C   0  0  2  0  0  3  0  0  0  0  0  0
  188.5440  173.5190  140.6070 C   0  0  0  0  0  2  0  0  0  0  0  0
  187.8470  175.8770  143.5530 C   0  0  2  0  0  3  0  0  0  0  0  0
  186.1650  176.7260  141.6130 F   0  0  0  0  0  0  0  0  0  0  0  0
  191.8660  173.5360  142.2390 N   0  0  0  0  0  2  0  0  0  0  0  0
  190.0630  173.6940  140.6290 C   0  0  0  0  0  2  0  0  0  0  0  0
  188.1500  177.0200  142.7710 O   0  0  0  0  0  0  0  0  0  0  0  0
  190.6000  176.6560  147.2990 C   0  0  0  0  0  2  0  0  0  0  0  0
  191.2460  175.3910  147.2750 O   0  0  0  0  0  0  0  0  0  0  0  0
  190.6500  174.2790  141.9250 C   0  0  1  0  0  3  0  0  0  0  0  0
  188.7850  175.8260  144.7580 C   0  0  2  0  0  3  0  0  0  0  0  0
  188.1490  175.8870  140.7540 O   0  0  0  0  0  0  0  0  0  0  0  0
  192.2600  173.9800  144.6010 C   0  0  1  0  0  3  0  0  0  0  0  0
  187.7420  178.1080  140.8300 F   0  0  0  0  0  0  0  0  0  0  0  0
  189.1160  176.6270  146.9360 C   0  0  0  0  0  2  0  0  0  0  0  0
  188.9210  177.0610  145.5540 N   0  0  0  0  0  0  0  0  0  0  0  0
  192.6830  174.3000  143.1710 C   0  0  0  0  0  2  0  0  0  0  0  0
  194.5090  175.0000  145.1930 C   0  0  0  0  0  2  0  0  0  0  0  0
  193.5050  173.8760  145.4870 C   0  0  2  0  0  3  0  0  0  0  0  0
  194.1170  172.4540  145.5170 C   0  0  0  0  0  2  0  0  0  0  0  0
  196.1570  171.2090  145.7180 O   0  0  0  0  0  1  0  0  0  0  0  0
  196.3100  173.5560  146.0190 C   0  0  0  0  0  3  0  0  0  0  0  0
  195.6350  172.4280  145.2920 C   0  0  2  0  0  3  0  0  0  0  0  0
  195.7740  174.7810  145.9700 C   0  0  0  0  0  3  0  0  0  0  0  0
  187.6650  177.8190  145.5730 C   0  0  0  0  0  2  0  0  0  0  0  0
  186.7170  177.3340  146.6790 C   0  0  1  0  0  3  0  0  0  0  0  0
  186.0240  179.4250  147.5260 O   0  0  0  0  0  0  0  0  0  0  0  0
  186.5500  178.3510  147.7630 C   0  0  0  0  0  3  0  0  0  0  0  0
  185.3570  176.9340  146.1270 C   0  0  0  0  0  2  0  0  0  0  0  0
  185.0550  177.6840  144.8420 C   0  0  0  0  0  2  0  0  0  0  0  0
  184.0350  178.6110  145.0580 O   0  0  0  0  0  1  0  0  0  0  0  0
  1 10  1  0  0  0  0
  1 13  1  0  0  0  0
  2  5  1  0  0  0  0
  3 15  1  0  0  0  0
  4  6  1  0  0  0  0
  5 17  1  0  0  0  0
  5  7  1  0  0  0  0
  6  2  1  0  0  0  0
  6  9  1  0  0  0  0
  7  3  1  0  0  0  0
  8 12  1  0  0  0  0
  8  4  1  0  0  0  0
  9 17  1  0  0  0  0
 11 23  1  0  0  0  0
 12 16  1  0  0  0  0
 13  9  1  0  0  0  0
 15 14  1  0  0  0  0
 16 11  1  0  0  0  0
 16  2  1  0  0  0  0
 17 22  1  0  0  0  0
 18  4  1  0  0  0  0
 18  1  1  0  0  0  0
 19  7  1  0  0  0  0
 19 25  1  0  0  0  0
 20  1  1  0  0  0  0
 21 14  1  0  0  0  0
 22 31  1  0  0  0  0
 22 21  1  0  0  0  0
 23 19  1  0  0  0  0
 24 25  1  0  0  0  0
 24 30  1  0  0  0  0
 25 26  1  0  0  0  0
 29 26  1  0  0  0  0
 29 27  1  0  0  0  0
 29 28  1  0  0  0  0
 30 28  2  0  0  0  0
 31 32  1  0  0  0  0
 32 34  1  0  0  0  0
 33 34  2  0  0  0  0
 35 32  1  0  0  0  0
 36 37  1  0  0  0  0
 36 35  1  0  0  0  0
M  END
>  <MODEL>
2

>  <REMARK>
 VINA RESULT:      -7.7      3.090      8.417
  Name = 
  6 active torsions:
  status: ('A' for Active; 'I' for Inactive)
    1  A    between atoms: C_1  and  C_4
    2  A    between atoms: C_1  and  N_27
    3  A    between atoms: C_4  and  C_12
    4  A    between atoms: C_4  and  C_37
    5  A    between atoms: C_8  and  C_12
    6  A    between atoms: C_23  and  C_30
                            x       y       z     vdW  Elec       q    Type
                         _______ _______ _______ _____ _____    ______ ____

>  <TORSDO>
F 6

$$$$
=
 OpenBabel11112417283D

 37 42  0  0  1  0  0  0  0  0999 V2000
  191.1630  175.8600  147.7830 C   0  0  0  0  0  0  0  0  0  0  0  0
  191.7180  175.7160  144.0470 C   0  0  1  0  0  3  0  0  0  0  0  0
  189.2190  176.4760  141.9000 O   0  0  0  0  0  0  0  0  0  0  0  0
  192.9060  176.1910  146.3230 C   0  0  2  0  0  3  0  0  0  0  0  0
  190.2000  175.5790  143.9270 C   0  0  2  0  0  3  0  0  0  0  0  0
  191.9230  176.6590  145.2480 C   0  0  2  0  0  3  0  0  0  0  0  0
  189.6590  175.2920  142.5100 C   0  0  2  0  0  3  0  0  0  0  0  0
  194.1140  175.5670  145.6470 C   0  0  0  0  0  2  0  0  0  0  0  0
  190.5450  176.9630  145.8380 C   0  0  2  0  0  3  0  0  0  0  0  0
  191.4410  177.0830  148.3860 F   0  0  0  0  0  0  0  0  0  0  0  0
  192.5310  173.7130  142.8620 N   0  0  0  0  0  2  0  0  0  0  0  0
  193.7400  174.2990  144.8780 C   0  0  0  0  0  2  0  0  0  0  0  0
  190.1640  175.9880  146.7930 O   0  0  0  0  0  0  0  0  0  0  0  0
  187.1010  176.4350  142.6640 C   0  0  0  0  0  2  0  0  0  0  0  0
  187.9560  176.2650  141.5420 O   0  0  0  0  0  0  0  0  0  0  0  0
  192.3700  174.3210  144.1790 C   0  0  1  0  0  3  0  0  0  0  0  0
  189.6520  176.8380  144.6040 C   0  0  2  0  0  3  0  0  0  0  0  0
  192.3240  175.2800  147.2270 O   0  0  0  0  0  0  0  0  0  0  0  0
  190.5970  174.4790  141.5950 C   0  0  1  0  0  3  0  0  0  0  0  0
  190.6890  175.0080  148.7630 F   0  0  0  0  0  0  0  0  0  0  0  0
  187.5840  177.4580  143.6910 C   0  0  0  0  0  2  0  0  0  0  0  0
  188.1960  176.7810  144.8330 N   0  0  0  0  0  0  0  0  0  0  0  0
  191.2320  173.3110  142.3430 C   0  0  0  0  0  2  0  0  0  0  0  0
  188.7460  173.0090  140.6680 C   0  0  0  0  0  2  0  0  0  0  0  0
  189.9060  173.9570  140.3330 C   0  0  2  0  0  3  0  0  0  0  0  0
  190.8970  173.4160  139.2720 C   0  0  0  0  0  2  0  0  0  0  0  0
  191.1960  171.8060  137.5190 O   0  0  0  0  0  1  0  0  0  0  0  0
  189.0320  171.9440  138.4780 C   0  0  0  0  0  3  0  0  0  0  0  0
  190.5130  172.0400  138.7100 C   0  0  2  0  0  3  0  0  0  0  0  0
  188.1910  172.4030  139.4110 C   0  0  0  0  0  3  0  0  0  0  0  0
  187.8130  177.5880  145.9970 C   0  0  0  0  0  2  0  0  0  0  0  0
  186.6520  176.9570  146.7780 C   0  0  1  0  0  3  0  0  0  0  0  0
  186.9420  178.7390  148.2980 O   0  0  0  0  0  0  0  0  0  0  0  0
  186.3170  177.7320  148.0120 C   0  0  0  0  0  3  0  0  0  0  0  0
  185.4090  176.7910  145.9150 C   0  0  0  0  0  2  0  0  0  0  0  0
  184.4410  177.9390  146.1390 C   0  0  0  0  0  2  0  0  0  0  0  0
  184.5610  178.8720  145.1090 O   0  0  0  0  0  1  0  0  0  0  0  0
  1 10  1  0  0  0  0
  1 20  1  0  0  0  0
  2 16  1  0  0  0  0
  2  6  1  0  0  0  0
  3  7  1  0  0  0  0
  4 18  1  0  0  0  0
  5  2  1  0  0  0  0
  5 17  1  0  0  0  0
  6  9  1  0  0  0  0
  6  4  1  0  0  0  0
  7  5  1  0  0  0  0
  8  4  1  0  0  0  0
  9 13  1  0  0  0  0
 11 16  1  0  0  0  0
 12  8  1  0  0  0  0
 13  1  1  0  0  0  0
 14 21  1  0  0  0  0
 15  3  1  0  0  0  0
 15 14  1  0  0  0  0
 16 12  1  0  0  0  0
 17 22  1  0  0  0  0
 17  9  1  0  0  0  0
 18  1  1  0  0  0  0
 19 23  1  0  0  0  0
 19  7  1  0  0  0  0
 21 22  1  0  0  0  0
 22 31  1  0  0  0  0
 23 11  1  0  0  0  0
 25 24  1  0  0  0  0
 25 19  1  0  0  0  0
 26 25  1  0  0  0  0
 27 29  1  0  0  0  0
 28 29  1  0  0  0  0
 28 30  2  0  0  0  0
 29 26  1  0  0  0  0
 30 24  1  0  0  0  0
 31 32  1  0  0  0  0
 32 34  1  0  0  0  0
 34 33  2  0  0  0  0
 35 36  1  0  0  0  0
 35 32  1  0  0  0  0
 37 36  1  0  0  0  0
M  END
>  <MODEL>
3

>  <REMARK>
 VINA RESULT:      -7.2      2.589      6.525
  Name = 
  6 active torsions:
  status: ('A' for Active; 'I' for Inactive)
    1  A    between atoms: C_1  and  C_4
    2  A    between atoms: C_1  and  N_27
    3  A    between atoms: C_4  and  C_12
    4  A    between atoms: C_4  and  C_37
    5  A    between atoms: C_8  and  C_12
    6  A    between atoms: C_23  and  C_30
                            x       y       z     vdW  Elec       q    Type
                         _______ _______ _______ _____ _____    ______ ____

>  <TORSDO>
F 6

$$$$
=
 OpenBabel11112417283D

 37 42  0  0  1  0  0  0  0  0999 V2000
  194.2090  175.0690  143.4650 C   0  0  0  0  0  0  0  0  0  0  0  0
  190.7310  175.1700  144.9450 C   0  0  1  0  0  3  0  0  0  0  0  0
  188.0110  174.6780  142.9970 O   0  0  0  0  0  0  0  0  0  0  0  0
  193.2160  174.5670  145.4760 C   0  0  2  0  0  3  0  0  0  0  0  0
  190.2440  175.4620  143.5260 C   0  0  2  0  0  3  0  0  0  0  0  0
  191.9180  174.2060  144.7500 C   0  0  2  0  0  3  0  0  0  0  0  0
  188.7470  175.8090  143.3850 C   0  0  2  0  0  3  0  0  0  0  0  0
  192.8780  175.0680  146.8690 C   0  0  0  0  0  2  0  0  0  0  0  0
  192.1390  174.0430  143.2460 C   0  0  2  0  0  3  0  0  0  0  0  0
  194.8250  173.8220  143.4620 F   0  0  0  0  0  0  0  0  0  0  0  0
  189.8440  177.0840  146.2190 N   0  0  0  0  0  2  0  0  0  0  0  0
  192.0780  176.3690  146.8250 C   0  0  0  0  0  2  0  0  0  0  0  0
  192.9990  175.0480  142.7370 O   0  0  0  0  0  0  0  0  0  0  0  0
  188.2290  174.9320  140.7700 C   0  0  0  0  0  2  0  0  0  0  0  0
  187.3590  175.0190  141.8900 O   0  0  0  0  0  0  0  0  0  0  0  0
  191.0620  176.4900  145.6760 C   0  0  1  0  0  3  0  0  0  0  0  0
  190.7270  174.2630  142.7060 C   0  0  2  0  0  3  0  0  0  0  0  0
  193.9740  175.5300  144.7790 O   0  0  0  0  0  0  0  0  0  0  0  0
  188.1160  176.5250  144.5970 C   0  0  1  0  0  3  0  0  0  0  0  0
  195.0660  175.9600  142.8480 F   0  0  0  0  0  0  0  0  0  0  0  0
  189.3130  173.8610  140.8800 C   0  0  0  0  0  2  0  0  0  0  0  0
  190.5910  174.4680  141.2510 N   0  0  0  0  0  0  0  0  0  0  0  0
  189.0310  177.6190  145.1360 C   0  0  0  0  0  2  0  0  0  0  0  0
  186.8430  178.4330  143.5070 C   0  0  0  0  0  2  0  0  0  0  0  0
  186.7380  177.1200  144.2960 C   0  0  2  0  0  3  0  0  0  0  0  0
  185.8160  177.1850  145.5390 C   0  0  0  0  0  2  0  0  0  0  0  0
  184.0500  178.4140  146.6000 O   0  0  0  0  0  1  0  0  0  0  0  0
  184.6710  179.1130  144.4220 C   0  0  0  0  0  3  0  0  0  0  0  0
  185.1330  178.5460  145.7330 C   0  0  2  0  0  3  0  0  0  0  0  0
  185.4870  179.0600  143.3620 C   0  0  0  0  0  3  0  0  0  0  0  0
  191.5990  173.6990  140.5120 C   0  0  0  0  0  2  0  0  0  0  0  0
  191.0950  172.2970  140.1410 C   0  0  1  0  0  3  0  0  0  0  0  0
  190.9530  170.9180  138.2310 O   0  0  0  0  0  0  0  0  0  0  0  0
  191.2660  172.0060  138.6840 C   0  0  0  0  0  3  0  0  0  0  0  0
  191.7670  171.2130  140.9710 C   0  0  0  0  0  2  0  0  0  0  0  0
  190.7620  170.5340  141.8840 C   0  0  0  0  0  2  0  0  0  0  0  0
  190.7170  169.1670  141.6130 O   0  0  0  0  0  1  0  0  0  0  0  0
  1 18  1  0  0  0  0
  2 16  1  0  0  0  0
  3  7  1  0  0  0  0
  4  8  1  0  0  0  0
  5  2  1  0  0  0  0
  6  2  1  0  0  0  0
  6  4  1  0  0  0  0
  7  5  1  0  0  0  0
  7 19  1  0  0  0  0
  9  6  1  0  0  0  0
 10  1  1  0  0  0  0
 12  8  1  0  0  0  0
 13  9  1  0  0  0  0
 13  1  1  0  0  0  0
 14 21  1  0  0  0  0
 14 15  1  0  0  0  0
 15  3  1  0  0  0  0
 16 11  1  0  0  0  0
 16 12  1  0  0  0  0
 17  9  1  0  0  0  0
 17  5  1  0  0  0  0
 18  4  1  0  0  0  0
 19 23  1  0  0  0  0
 20  1  1  0  0  0  0
 21 22  1  0  0  0  0
 22 17  1  0  0  0  0
 23 11  1  0  0  0  0
 24 25  1  0  0  0  0
 25 19  1  0  0  0  0
 25 26  1  0  0  0  0
 26 29  1  0  0  0  0
 28 29  1  0  0  0  0
 29 27  1  0  0  0  0
 30 24  1  0  0  0  0
 30 28  2  0  0  0  0
 31 22  1  0  0  0  0
 32 31  1  0  0  0  0
 32 35  1  0  0  0  0
 33 34  2  0  0  0  0
 34 32  1  0  0  0  0
 35 36  1  0  0  0  0
 37 36  1  0  0  0  0
M  END
>  <MODEL>
4

>  <REMARK>
 VINA RESULT:      -7.2      2.252      3.435
  Name = 
  6 active torsions:
  status: ('A' for Active; 'I' for Inactive)
    1  A    between atoms: C_1  and  C_4
    2  A    between atoms: C_1  and  N_27
    3  A    between atoms: C_4  and  C_12
    4  A    between atoms: C_4  and  C_37
    5  A    between atoms: C_8  and  C_12
    6  A    between atoms: C_23  and  C_30
                            x       y       z     vdW  Elec       q    Type
                         _______ _______ _______ _____ _____    ______ ____

>  <TORSDO>
F 6

$$$$
=
 OpenBabel11112417283D

 37 42  0  0  1  0  0  0  0  0999 V2000
  191.2020  175.8260  147.5490 C   0  0  0  0  0  0  0  0  0  0  0  0
  191.8130  175.1800  143.8740 C   0  0  1  0  0  3  0  0  0  0  0  0
  189.3000  175.4700  141.6300 O   0  0  0  0  0  0  0  0  0  0  0  0
  192.9410  176.0500  146.0630 C   0  0  2  0  0  3  0  0  0  0  0  0
  190.3070  174.9350  143.7690 C   0  0  2  0  0  3  0  0  0  0  0  0
  191.9450  176.2970  144.9280 C   0  0  2  0  0  3  0  0  0  0  0  0
  189.8030  174.4140  142.4070 C   0  0  2  0  0  3  0  0  0  0  0  0
  194.1920  175.4090  145.4890 C   0  0  0  0  0  2  0  0  0  0  0  0
  190.5440  176.5970  145.4620 C   0  0  2  0  0  3  0  0  0  0  0  0
  191.3980  177.1370  147.9700 F   0  0  0  0  0  0  0  0  0  0  0  0
  192.7590  173.0810  142.9950 N   0  0  0  0  0  2  0  0  0  0  0  0
  193.9050  174.0240  144.9100 C   0  0  0  0  0  2  0  0  0  0  0  0
  190.2100  175.7490  146.5460 O   0  0  0  0  0  0  0  0  0  0  0  0
  187.1780  175.4090  142.3830 C   0  0  0  0  0  2  0  0  0  0  0  0
  188.0570  175.1320  141.3010 O   0  0  0  0  0  0  0  0  0  0  0  0
  192.5450  173.8620  144.2090 C   0  0  1  0  0  3  0  0  0  0  0  0
  189.6760  176.2420  144.2550 C   0  0  2  0  0  3  0  0  0  0  0  0
  192.4020  175.2440  147.0870 O   0  0  0  0  0  0  0  0  0  0  0  0
  190.8000  173.5370  141.6220 C   0  0  1  0  0  3  0  0  0  0  0  0
  190.7670  175.0970  148.6390 F   0  0  0  0  0  0  0  0  0  0  0  0
  187.5870  176.5970  143.2540 C   0  0  0  0  0  2  0  0  0  0  0  0
  188.2230  176.1300  144.4840 N   0  0  0  0  0  0  0  0  0  0  0  0
  191.4930  172.5300  142.5340 C   0  0  0  0  0  2  0  0  0  0  0  0
  190.5910  171.3260  140.3910 C   0  0  0  0  0  2  0  0  0  0  0  0
  190.1570  172.7980  140.4460 C   0  0  2  0  0  3  0  0  0  0  0  0
  190.2840  173.5590  139.1020 C   0  0  0  0  0  2  0  0  0  0  0  0
  190.4940  173.3080  136.7260 O   0  0  0  0  0  1  0  0  0  0  0  0
  190.1510  171.3240  137.9790 C   0  0  0  0  0  3  0  0  0  0  0  0
  190.7800  172.6870  137.9410 C   0  0  2  0  0  3  0  0  0  0  0  0
  190.0630  170.6760  139.1460 C   0  0  0  0  0  3  0  0  0  0  0  0
  187.7770  177.0710  145.5180 C   0  0  0  0  0  2  0  0  0  0  0  0
  186.3070  177.4720  145.3340 C   0  0  1  0  0  3  0  0  0  0  0  0
  184.3710  177.3170  146.6750 O   0  0  0  0  0  0  0  0  0  0  0  0
  185.4100  176.7900  146.3180 C   0  0  0  0  0  3  0  0  0  0  0  0
  186.1140  178.9800  145.4150 C   0  0  0  0  0  2  0  0  0  0  0  0
  185.5540  179.5210  144.1110 C   0  0  0  0  0  2  0  0  0  0  0  0
  184.1620  179.4340  144.1180 O   0  0  0  0  0  1  0  0  0  0  0  0
  1 10  1  0  0  0  0
  1 20  1  0  0  0  0
  2 16  1  0  0  0  0
  2  6  1  0  0  0  0
  3  7  1  0  0  0  0
  4 18  1  0  0  0  0
  5  2  1  0  0  0  0
  5 17  1  0  0  0  0
  6  9  1  0  0  0  0
  6  4  1  0  0  0  0
  7  5  1  0  0  0  0
  8  4  1  0  0  0  0
  9 13  1  0  0  0  0
 11 16  1  0  0  0  0
 12  8  1  0  0  0  0
 13  1  1  0  0  0  0
 14 21  1  0  0  0  0
 15  3  1  0  0  0  0
 15 14  1  0  0  0  0
 16 12  1  0  0  0  0
 17 22  1  0  0  0  0
 17  9  1  0  0  0  0
 18  1  1  0  0  0  0
 19  7  1  0  0  0  0
 19 23  1  0  0  0  0
 21 22  1  0  0  0  0
 22 31  1  0  0  0  0
 23 11  1  0  0  0  0
 24 25  1  0  0  0  0
 25 19  1  0  0  0  0
 26 25  1  0  0  0  0
 27 29  1  0  0  0  0
 28 30  2  0  0  0  0
 29 28  1  0  0  0  0
 29 26  1  0  0  0  0
 30 24  1  0  0  0  0
 32 35  1  0  0  0  0
 32 31  1  0  0  0  0
 32 34  1  0  0  0  0
 34 33  2  0  0  0  0
 36 37  1  0  0  0  0
 36 35  1  0  0  0  0
M  END
>  <MODEL>
5

>  <REMARK>
 VINA RESULT:      -7.1      2.512      6.644
  Name = 
  6 active torsions:
  status: ('A' for Active; 'I' for Inactive)
    1  A    between atoms: C_1  and  C_4
    2  A    between atoms: C_1  and  N_27
    3  A    between atoms: C_4  and  C_12
    4  A    between atoms: C_4  and  C_37
    5  A    between atoms: C_8  and  C_12
    6  A    between atoms: C_23  and  C_30
                            x       y       z     vdW  Elec       q    Type
                         _______ _______ _______ _____ _____    ______ ____

>  <TORSDO>
F 6

$$$$
=
 OpenBabel11112417283D

 37 42  0  0  1  0  0  0  0  0999 V2000
  191.4560  171.7790  142.1440 C   0  0  0  0  0  0  0  0  0  0  0  0
  189.7730  175.1580  142.3460 C   0  0  1  0  0  3  0  0  0  0  0  0
  190.4290  177.2630  144.9100 O   0  0  0  0  0  0  0  0  0  0  0  0
  190.6580  173.3560  140.6750 C   0  0  2  0  0  3  0  0  0  0  0  0
  190.0860  175.1140  143.8410 C   0  0  2  0  0  3  0  0  0  0  0  0
  190.9780  174.4630  141.6830 C   0  0  2  0  0  3  0  0  0  0  0  0
  189.4810  176.2510  144.6910 C   0  0  2  0  0  3  0  0  0  0  0  0
  189.4820  173.7940  139.8200 C   0  0  0  0  0  2  0  0  0  0  0  0
  191.8940  173.9610  142.7990 C   0  0  2  0  0  3  0  0  0  0  0  0
  192.6610  171.7470  141.4490 F   0  0  0  0  0  0  0  0  0  0  0  0
  187.3280  175.4710  142.3200 N   0  0  0  0  0  2  0  0  0  0  0  0
  188.2070  173.9530  140.6480 C   0  0  0  0  0  2  0  0  0  0  0  0
  191.5150  172.6690  143.2400 O   0  0  0  0  0  0  0  0  0  0  0  0
  191.3410  176.4140  146.7860 C   0  0  0  0  0  2  0  0  0  0  0  0
  190.5080  177.4210  146.2270 O   0  0  0  0  0  0  0  0  0  0  0  0
  188.3980  174.5100  142.0690 C   0  0  1  0  0  3  0  0  0  0  0  0
  191.6090  174.9760  143.9050 C   0  0  2  0  0  3  0  0  0  0  0  0
  190.3780  172.1230  141.3000 O   0  0  0  0  0  0  0  0  0  0  0  0
  188.1370  176.8130  144.1840 C   0  0  1  0  0  3  0  0  0  0  0  0
  191.2230  170.5080  142.6360 F   0  0  0  0  0  0  0  0  0  0  0  0
  192.4630  175.9270  145.8700 C   0  0  0  0  0  2  0  0  0  0  0  0
  192.1020  174.6500  145.2580 N   0  0  0  0  0  0  0  0  0  0  0  0
  187.1930  175.6960  143.7520 C   0  0  0  0  0  2  0  0  0  0  0  0
  187.1240  176.9480  146.5090 C   0  0  0  0  0  2  0  0  0  0  0  0
  187.4300  177.7050  145.2090 C   0  0  2  0  0  3  0  0  0  0  0  0
  186.2300  178.4850  144.6160 C   0  0  0  0  0  2  0  0  0  0  0  0
  184.0710  179.4100  145.1000 O   0  0  0  0  0  1  0  0  0  0  0  0
  185.2700  178.4980  146.9300 C   0  0  0  0  0  3  0  0  0  0  0  0
  184.9550  178.3970  145.4650 C   0  0  2  0  0  3  0  0  0  0  0  0
  186.3020  177.8060  147.4270 C   0  0  0  0  0  3  0  0  0  0  0  0
  193.3580  173.8960  145.1940 C   0  0  0  0  0  2  0  0  0  0  0  0
  194.5800  174.8200  145.1060 C   0  0  1  0  0  3  0  0  0  0  0  0
  196.7380  174.1650  145.8010 O   0  0  0  0  0  0  0  0  0  0  0  0
  195.6120  174.4890  146.1370 C   0  0  0  0  0  3  0  0  0  0  0  0
  195.2070  174.8050  143.7190 C   0  0  0  0  0  2  0  0  0  0  0  0
  195.2730  176.2080  143.1420 C   0  0  0  0  0  2  0  0  0  0  0  0
  196.5000  176.7940  143.4530 O   0  0  0  0  0  1  0  0  0  0  0  0
  1 20  1  0  0  0  0
  1 13  1  0  0  0  0
  2  5  1  0  0  0  0
  3 15  1  0  0  0  0
  4 18  1  0  0  0  0
  4  6  1  0  0  0  0
  5 17  1  0  0  0  0
  5  7  1  0  0  0  0
  6  2  1  0  0  0  0
  6  9  1  0  0  0  0
  7  3  1  0  0  0  0
  8 12  1  0  0  0  0
  8  4  1  0  0  0  0
  9 13  1  0  0  0  0
  9 17  1  0  0  0  0
 10  1  1  0  0  0  0
 11 23  1  0  0  0  0
 12 16  1  0  0  0  0
 15 14  1  0  0  0  0
 16 11  1  0  0  0  0
 16  2  1  0  0  0  0
 17 22  1  0  0  0  0
 18  1  1  0  0  0  0
 19  7  1  0  0  0  0
 19 25  1  0  0  0  0
 21 14  1  0  0  0  0
 22 21  1  0  0  0  0
 23 19  1  0  0  0  0
 24 30  1  0  0  0  0
 25 24  1  0  0  0  0
 26 25  1  0  0  0  0
 26 29  1  0  0  0  0
 27 29  1  0  0  0  0
 28 30  2  0  0  0  0
 29 28  1  0  0  0  0
 31 22  1  0  0  0  0
 32 31  1  0  0  0  0
 32 34  1  0  0  0  0
 33 34  2  0  0  0  0
 35 32  1  0  0  0  0
 36 37  1  0  0  0  0
 36 35  1  0  0  0  0
M  END
>  <MODEL>
6

>  <REMARK>
 VINA RESULT:      -7.0      2.664      4.841
  Name = 
  6 active torsions:
  status: ('A' for Active; 'I' for Inactive)
    1  A    between atoms: C_1  and  C_4
    2  A    between atoms: C_1  and  N_27
    3  A    between atoms: C_4  and  C_12
    4  A    between atoms: C_4  and  C_37
    5  A    between atoms: C_8  and  C_12
    6  A    between atoms: C_23  and  C_30
                            x       y       z     vdW  Elec       q    Type
                         _______ _______ _______ _____ _____    ______ ____

>  <TORSDO>
F 6

$$$$
=
 OpenBabel11112417283D

 37 42  0  0  1  0  0  0  0  0999 V2000
  194.3600  174.8590  143.5710 C   0  0  0  0  0  0  0  0  0  0  0  0
  190.8390  175.0700  144.9320 C   0  0  1  0  0  3  0  0  0  0  0  0
  188.1770  174.4850  142.9310 O   0  0  0  0  0  0  0  0  0  0  0  0
  193.3010  174.4810  145.5750 C   0  0  2  0  0  3  0  0  0  0  0  0
  190.3990  175.2830  143.4840 C   0  0  2  0  0  3  0  0  0  0  0  0
  192.0230  174.0880  144.8310 C   0  0  2  0  0  3  0  0  0  0  0  0
  188.9090  175.6310  143.2770 C   0  0  2  0  0  3  0  0  0  0  0  0
  192.9250  175.0640  146.9260 C   0  0  0  0  0  2  0  0  0  0  0  0
  192.2890  173.8360  143.3470 C   0  0  2  0  0  3  0  0  0  0  0  0
  194.9650  173.6090  143.6600 F   0  0  0  0  0  0  0  0  0  0  0  0
  189.9300  177.0610  146.0660 N   0  0  0  0  0  2  0  0  0  0  0  0
  192.1380  176.3670  146.7820 C   0  0  0  0  0  2  0  0  0  0  0  0
  193.1730  174.8040  142.8070 O   0  0  0  0  0  0  0  0  0  0  0  0
  188.4650  174.6080  140.7010 C   0  0  0  0  0  2  0  0  0  0  0  0
  187.5620  174.7660  141.7870 O   0  0  0  0  0  0  0  0  0  0  0  0
  191.1590  176.4280  145.5970 C   0  0  1  0  0  3  0  0  0  0  0  0
  190.8960  174.0350  142.7500 C   0  0  2  0  0  3  0  0  0  0  0  0
  194.0880  175.3960  144.8480 O   0  0  0  0  0  0  0  0  0  0  0  0
  188.2480  176.4210  144.4250 C   0  0  1  0  0  3  0  0  0  0  0  0
  195.2430  175.7070  142.9310 F   0  0  0  0  0  0  0  0  0  0  0  0
  189.5360  173.5380  140.9070 C   0  0  0  0  0  2  0  0  0  0  0  0
  190.8070  174.1560  141.2820 N   0  0  0  0  0  0  0  0  0  0  0  0
  189.1560  177.5380  144.9290 C   0  0  0  0  0  2  0  0  0  0  0  0
  187.0260  178.3240  143.2700 C   0  0  0  0  0  2  0  0  0  0  0  0
  186.8850  177.0070  144.0480 C   0  0  2  0  0  3  0  0  0  0  0  0
  185.8920  177.0610  145.2350 C   0  0  0  0  0  2  0  0  0  0  0  0
  184.0590  178.2730  146.1970 O   0  0  0  0  0  1  0  0  0  0  0  0
  184.8000  178.9850  144.0600 C   0  0  0  0  0  3  0  0  0  0  0  0
  185.1890  178.4160  145.3940 C   0  0  2  0  0  3  0  0  0  0  0  0
  185.6760  178.9420  143.0490 C   0  0  0  0  0  3  0  0  0  0  0  0
  191.8310  173.3390  140.6220 C   0  0  0  0  0  2  0  0  0  0  0  0
  192.1260  173.8280  139.1970 C   0  0  1  0  0  3  0  0  0  0  0  0
  193.7580  175.1210  138.0850 O   0  0  0  0  0  0  0  0  0  0  0  0
  193.4410  174.5340  139.1060 C   0  0  0  0  0  3  0  0  0  0  0  0
  192.0730  172.6940  138.1840 C   0  0  0  0  0  2  0  0  0  0  0  0
  191.1340  173.0370  137.0400 C   0  0  0  0  0  2  0  0  0  0  0  0
  190.0480  173.7700  137.5180 O   0  0  0  0  0  1  0  0  0  0  0  0
  1 10  1  0  0  0  0
  1 18  1  0  0  0  0
  2 16  1  0  0  0  0
  3  7  1  0  0  0  0
  4  8  1  0  0  0  0
  5  2  1  0  0  0  0
  6  2  1  0  0  0  0
  6  4  1  0  0  0  0
  7  5  1  0  0  0  0
  7 19  1  0  0  0  0
  9  6  1  0  0  0  0
 12  8  1  0  0  0  0
 13  9  1  0  0  0  0
 13  1  1  0  0  0  0
 14 21  1  0  0  0  0
 14 15  1  0  0  0  0
 15  3  1  0  0  0  0
 16 11  1  0  0  0  0
 16 12  1  0  0  0  0
 17  9  1  0  0  0  0
 17  5  1  0  0  0  0
 18  4  1  0  0  0  0
 19 23  1  0  0  0  0
 20  1  1  0  0  0  0
 21 22  1  0  0  0  0
 22 17  1  0  0  0  0
 23 11  1  0  0  0  0
 24 25  1  0  0  0  0
 25 19  1  0  0  0  0
 25 26  1  0  0  0  0
 26 29  1  0  0  0  0
 28 29  1  0  0  0  0
 29 27  1  0  0  0  0
 30 24  1  0  0  0  0
 30 28  2  0  0  0  0
 31 22  1  0  0  0  0
 32 31  1  0  0  0  0
 33 34  2  0  0  0  0
 34 32  1  0  0  0  0
 35 32  1  0  0  0  0
 36 37  1  0  0  0  0
 36 35  1  0  0  0  0
M  END
>  <MODEL>
7

>  <REMARK>
 VINA RESULT:      -7.0      2.096      3.195
  Name = 
  6 active torsions:
  status: ('A' for Active; 'I' for Inactive)
    1  A    between atoms: C_1  and  C_4
    2  A    between atoms: C_1  and  N_27
    3  A    between atoms: C_4  and  C_12
    4  A    between atoms: C_4  and  C_37
    5  A    between atoms: C_8  and  C_12
    6  A    between atoms: C_23  and  C_30
                            x       y       z     vdW  Elec       q    Type
                         _______ _______ _______ _____ _____    ______ ____

>  <TORSDO>
F 6

$$$$
=
 OpenBabel11112417283D

 37 42  0  0  1  0  0  0  0  0999 V2000
  186.5390  177.5550  146.5760 C   0  0  0  0  0  0  0  0  0  0  0  0
  189.4040  175.8440  144.8000 C   0  0  1  0  0  3  0  0  0  0  0  0
  189.3990  175.5150  141.4340 O   0  0  0  0  0  0  0  0  0  0  0  0
  188.8010  177.2940  146.8860 C   0  0  2  0  0  3  0  0  0  0  0  0
  188.4230  175.6110  143.6510 C   0  0  2  0  0  3  0  0  0  0  0  0
  189.0040  177.2180  145.3710 C   0  0  2  0  0  3  0  0  0  0  0  0
  188.9340  174.7240  142.4960 C   0  0  2  0  0  3  0  0  0  0  0  0
  189.8890  176.4860  147.5700 C   0  0  0  0  0  2  0  0  0  0  0  0
  187.7660  177.6920  144.6110 C   0  0  2  0  0  3  0  0  0  0  0  0
  186.6760  178.9280  146.7560 F   0  0  0  0  0  0  0  0  0  0  0  0
  190.1660  173.5590  145.3220 N   0  0  0  0  0  2  0  0  0  0  0  0
  189.7870  174.9980  147.2340 C   0  0  0  0  0  2  0  0  0  0  0  0
  186.5750  177.2080  145.2070 O   0  0  0  0  0  0  0  0  0  0  0  0
  187.4420  175.7250  140.3400 C   0  0  0  0  0  2  0  0  0  0  0  0
  188.7290  175.1230  140.3560 O   0  0  0  0  0  0  0  0  0  0  0  0
  189.3440  174.6670  145.7990 C   0  0  1  0  0  3  0  0  0  0  0  0
  187.9640  177.0170  143.2550 C   0  0  2  0  0  3  0  0  0  0  0  0
  187.5270  176.8360  147.2820 O   0  0  0  0  0  0  0  0  0  0  0  0
  189.9480  173.6340  142.8980 C   0  0  1  0  0  3  0  0  0  0  0  0
  185.3050  177.1880  147.0790 F   0  0  0  0  0  0  0  0  0  0  0  0
  187.3720  177.1070  140.9890 C   0  0  0  0  0  2  0  0  0  0  0  0
  186.8100  177.0090  142.3350 N   0  0  0  0  0  0  0  0  0  0  0  0
  189.5250  172.9240  144.1800 C   0  0  0  0  0  2  0  0  0  0  0  0
  190.1930  171.1650  142.3570 C   0  0  0  0  0  2  0  0  0  0  0  0
  190.1850  172.5950  141.7990 C   0  0  2  0  0  3  0  0  0  0  0  0
  191.3850  172.9380  140.8820 C   0  0  0  0  0  2  0  0  0  0  0  0
  193.1510  172.0140  139.5460 O   0  0  0  0  0  1  0  0  0  0  0  0
  191.6000  170.4770  140.4700 C   0  0  0  0  0  3  0  0  0  0  0  0
  192.3490  171.7640  140.6580 C   0  0  2  0  0  3  0  0  0  0  0  0
  190.5750  170.1900  141.2800 C   0  0  0  0  0  3  0  0  0  0  0  0
  186.0010  178.2220  142.4930 C   0  0  0  0  0  2  0  0  0  0  0  0
  184.4970  177.9230  142.4200 C   0  0  1  0  0  3  0  0  0  0  0  0
  184.3060  179.2920  144.3330 O   0  0  0  0  0  0  0  0  0  0  0  0
  183.7240  178.6660  143.4630 C   0  0  0  0  0  3  0  0  0  0  0  0
  183.9240  178.2170  141.0410 C   0  0  0  0  0  2  0  0  0  0  0  0
  182.4360  177.9160  141.0000 C   0  0  0  0  0  2  0  0  0  0  0  0
  181.7330  179.0420  140.5730 O   0  0  0  0  0  1  0  0  0  0  0  0
  1 10  1  0  0  0  0
  1 20  1  0  0  0  0
  1 18  1  0  0  0  0
  2  6  1  0  0  0  0
  2 16  1  0  0  0  0
  3  7  1  0  0  0  0
  4 18  1  0  0  0  0
  4  8  1  0  0  0  0
  5  2  1  0  0  0  0
  6  4  1  0  0  0  0
  7 19  1  0  0  0  0
  7  5  1  0  0  0  0
  9 13  1  0  0  0  0
  9  6  1  0  0  0  0
 11 16  1  0  0  0  0
 12  8  1  0  0  0  0
 13  1  1  0  0  0  0
 14 15  1  0  0  0  0
 14 21  1  0  0  0  0
 15  3  1  0  0  0  0
 16 12  1  0  0  0  0
 17  5  1  0  0  0  0
 17  9  1  0  0  0  0
 19 23  1  0  0  0  0
 21 22  1  0  0  0  0
 22 31  1  0  0  0  0
 22 17  1  0  0  0  0
 23 11  1  0  0  0  0
 25 24  1  0  0  0  0
 25 19  1  0  0  0  0
 26 25  1  0  0  0  0
 27 29  1  0  0  0  0
 28 29  1  0  0  0  0
 28 30  2  0  0  0  0
 29 26  1  0  0  0  0
 30 24  1  0  0  0  0
 32 31  1  0  0  0  0
 32 34  1  0  0  0  0
 34 33  2  0  0  0  0
 35 32  1  0  0  0  0
 36 35  1  0  0  0  0
 37 36  1  0  0  0  0
M  END
>  <MODEL>
8

>  <REMARK>
 VINA RESULT:      -7.0      3.604      7.638
  Name = 
  6 active torsions:
  status: ('A' for Active; 'I' for Inactive)
    1  A    between atoms: C_1  and  C_4
    2  A    between atoms: C_1  and  N_27
    3  A    between atoms: C_4  and  C_12
    4  A    between atoms: C_4  and  C_37
    5  A    between atoms: C_8  and  C_12
    6  A    between atoms: C_23  and  C_30
                            x       y       z     vdW  Elec       q    Type
                         _______ _______ _______ _____ _____    ______ ____

>  <TORSDO>
F 6

$$$$
=
 OpenBabel11112417283D

 37 42  0  0  1  0  0  0  0  0999 V2000
  193.3900  172.3330  142.9320 C   0  0  0  0  0  0  0  0  0  0  0  0
  190.5610  174.1850  141.2410 C   0  0  1  0  0  3  0  0  0  0  0  0
  189.6450  177.2670  142.2890 O   0  0  0  0  0  0  0  0  0  0  0  0
  192.4810  172.4650  140.8250 C   0  0  2  0  0  3  0  0  0  0  0  0
  190.4500  174.9930  142.5340 C   0  0  2  0  0  3  0  0  0  0  0  0
  192.0700  173.9160  141.0880 C   0  0  2  0  0  3  0  0  0  0  0  0
  189.2520  175.9620  142.6230 C   0  0  2  0  0  3  0  0  0  0  0  0
  191.5060  171.8480  139.8380 C   0  0  0  0  0  2  0  0  0  0  0  0
  192.7700  174.4850  142.3230 C   0  0  2  0  0  3  0  0  0  0  0  0
  194.6560  172.5480  142.3950 F   0  0  0  0  0  0  0  0  0  0  0  0
  188.2870  173.2680  140.9870 N   0  0  0  0  0  2  0  0  0  0  0  0
  190.0940  171.7580  140.4170 C   0  0  0  0  0  2  0  0  0  0  0  0
  192.8080  173.5400  143.3790 O   0  0  0  0  0  0  0  0  0  0  0  0
  190.2680  177.9260  144.3510 C   0  0  0  0  0  2  0  0  0  0  0  0
  189.2990  178.0360  143.3170 O   0  0  0  0  0  0  0  0  0  0  0  0
  189.6670  172.9280  141.3210 C   0  0  1  0  0  3  0  0  0  0  0  0
  191.8320  175.6300  142.7020 C   0  0  2  0  0  3  0  0  0  0  0  0
  192.5340  171.6970  142.0060 O   0  0  0  0  0  0  0  0  0  0  0  0
  187.9860  175.5220  141.8590 C   0  0  1  0  0  3  0  0  0  0  0  0
  193.5350  171.4970  144.0220 F   0  0  0  0  0  0  0  0  0  0  0  0
  191.6930  177.6580  143.8700 C   0  0  0  0  0  2  0  0  0  0  0  0
  192.0260  176.2430  144.0310 N   0  0  0  0  0  0  0  0  0  0  0  0
  187.6940  174.0400  142.0700 C   0  0  0  0  0  2  0  0  0  0  0  0
  186.6720  177.6520  141.4310 C   0  0  0  0  0  2  0  0  0  0  0  0
  186.7450  176.3400  142.2250 C   0  0  2  0  0  3  0  0  0  0  0  0
  186.5450  176.4970  143.7530 C   0  0  0  0  0  2  0  0  0  0  0  0
  185.7130  177.9430  145.4770 O   0  0  0  0  0  1  0  0  0  0  0  0
  185.3320  178.6270  143.2390 C   0  0  0  0  0  3  0  0  0  0  0  0
  186.2620  177.9390  144.1960 C   0  0  2  0  0  3  0  0  0  0  0  0
  185.5290  178.4920  141.9230 C   0  0  0  0  0  3  0  0  0  0  0  0
  193.4410  176.2320  144.4150 C   0  0  0  0  0  2  0  0  0  0  0  0
  193.6350  175.8340  145.8850 C   0  0  1  0  0  3  0  0  0  0  0  0
  194.8090  177.8600  146.1750 O   0  0  0  0  0  0  0  0  0  0  0  0
  194.1850  176.9570  146.7050 C   0  0  0  0  0  3  0  0  0  0  0  0
  192.3460  175.3170  146.5090 C   0  0  0  0  0  2  0  0  0  0  0  0
  191.8620  176.2560  147.6000 C   0  0  0  0  0  2  0  0  0  0  0  0
  190.4840  176.4390  147.4960 O   0  0  0  0  0  1  0  0  0  0  0  0
  1 13  1  0  0  0  0
  1 20  1  0  0  0  0
  2 16  1  0  0  0  0
  2  5  1  0  0  0  0
  3  7  1  0  0  0  0
  3 15  1  0  0  0  0
  4  6  1  0  0  0  0
  4 18  1  0  0  0  0
  5  7  1  0  0  0  0
  5 17  1  0  0  0  0
  6  2  1  0  0  0  0
  6  9  1  0  0  0  0
  8 12  1  0  0  0  0
  8  4  1  0  0  0  0
  9 17  1  0  0  0  0
  9 13  1  0  0  0  0
 10  1  1  0  0  0  0
 11 16  1  0  0  0  0
 11 23  1  0  0  0  0
 12 16  1  0  0  0  0
 15 14  1  0  0  0  0
 17 22  1  0  0  0  0
 18  1  1  0  0  0  0
 19 23  1  0  0  0  0
 19 25  1  0  0  0  0
 19  7  1  0  0  0  0
 21 22  1  0  0  0  0
 21 14  1  0  0  0  0
 22 31  1  0  0  0  0
 24 30  1  0  0  0  0
 24 25  1  0  0  0  0
 25 26  1  0  0  0  0
 26 29  1  0  0  0  0
 28 29  1  0  0  0  0
 29 27  1  0  0  0  0
 30 28  2  0  0  0  0
 31 32  1  0  0  0  0
 32 35  1  0  0  0  0
 32 34  1  0  0  0  0
 33 34  2  0  0  0  0
 35 36  1  0  0  0  0
 37 36  1  0  0  0  0
M  END
>  <MODEL>
9

>  <REMARK>
 VINA RESULT:      -6.9      2.453      4.782
  Name = 
  6 active torsions:
  status: ('A' for Active; 'I' for Inactive)
    1  A    between atoms: C_1  and  C_4
    2  A    between atoms: C_1  and  N_27
    3  A    between atoms: C_4  and  C_12
    4  A    between atoms: C_4  and  C_37
    5  A    between atoms: C_8  and  C_12
    6  A    between atoms: C_23  and  C_30
                            x       y       z     vdW  Elec       q    Type
                         _______ _______ _______ _____ _____    ______ ____

>  <TORSDO>
F 6

$$$$
