=
 OpenBabel11112417043D

 31 35  0  0  1  0  0  0  0  0999 V2000
  184.7730  178.2380  146.9210 C   0  0  0  0  0  0  0  0  0  0  0  0
  187.3690  175.9580  145.3340 C   0  0  2  0  0  3  0  0  0  0  0  0
  187.5050  176.3920  143.8800 C   0  0  0  0  0  0  0  0  0  0  0  0
  186.6580  177.5890  141.9370 C   0  0  0  0  0  0  0  0  0  0  0  0
  186.7520  177.0220  146.2120 C   0  0  0  0  0  0  0  0  0  0  0  0
  185.5600  179.0530  147.7350 C   0  0  0  0  0  3  0  0  0  0  0  0
  186.5450  177.2230  143.2800 C   0  0  0  0  0  3  0  0  0  0  0  0
  189.6290  176.6700  146.1950 C   0  0  2  0  0  3  0  0  0  0  0  0
  183.4340  178.4310  146.8610 F   0  0  0  0  0  0  0  0  0  0  0  0
  189.5350  175.0130  143.6580 N   0  0  0  0  0  2  0  0  0  0  0  0
  185.7100  178.4230  141.3620 O   0  0  0  0  0  1  0  0  0  0  0  0
  189.0110  177.5830  147.2530 C   0  0  0  0  0  2  0  0  0  0  0  0
  188.7090  175.4720  145.9260 C   0  0  2  0  0  3  0  0  0  0  0  0
  185.3660  177.2250  146.1630 C   0  0  0  0  0  3  0  0  0  0  0  0
  187.7270  177.1170  141.1730 C   0  0  0  0  0  3  0  0  0  0  0  0
  187.5460  177.8460  147.0410 C   0  0  0  0  0  0  0  0  0  0  0  0
  186.9400  178.8510  147.8020 C   0  0  0  0  0  3  0  0  0  0  0  0
  189.3540  174.4470  144.9890 C   0  0  0  0  0  2  0  0  0  0  0  0
  188.5590  175.8900  143.0880 C   0  0  0  0  0  0  0  0  0  0  0  0
  188.6750  176.2670  141.7470 C   0  0  0  0  0  3  0  0  0  0  0  0
  192.0820  177.0180  144.7830 O   0  0  0  0  0  0  0  0  0  0  0  0
  192.1300  176.4340  145.8990 C   0  0  0  0  0  0  0  0  0  0  0  0
  190.9370  176.2170  146.6520 N   0  0  0  0  0  2  0  0  0  0  0  0
  195.4660  176.2200  144.4130 C   0  0  0  0  0  0  0  0  0  0  0  0
  194.4880  177.0560  146.5380 C   0  0  0  0  0  2  0  0  0  0  0  0
  193.0330  173.7040  145.6200 O   0  0  0  0  0  1  0  0  0  0  0  0
  196.5370  176.1960  143.8310 O   0  0  0  0  0  0  0  0  0  0  0  0
  195.0400  177.4440  145.1640 C   0  0  0  0  0  2  0  0  0  0  0  0
  193.9960  174.7110  145.7100 C   0  0  2  0  0  3  0  0  0  0  0  0
  193.4380  175.9410  146.4480 C   0  0  2  0  0  3  0  0  0  0  0  0
  194.5290  175.0560  144.3200 C   0  0  0  0  0  2  0  0  0  0  0  0
  1  6  1  0  0  0  0
  2  3  1  6  0  0  0
  2 13  1  0  0  0  0
  2  5  1  0  0  0  0
  4  7  2  0  0  0  0
  5 16  2  0  0  0  0
  6 17  2  0  0  0  0
  7  3  1  0  0  0  0
  8 23  1  1  0  0  0
  8 12  1  0  0  0  0
  9  1  1  0  0  0  0
 10 18  1  0  0  0  0
 11  4  1  0  0  0  0
 13 18  1  6  0  0  0
 13  8  1  0  0  0  0
 14  5  1  0  0  0  0
 14  1  2  0  0  0  0
 15 20  2  0  0  0  0
 15  4  1  0  0  0  0
 16 12  1  0  0  0  0
 16 17  1  0  0  0  0
 19 10  1  0  0  0  0
 19  3  2  0  0  0  0
 20 19  1  0  0  0  0
 21 22  2  0  0  0  0
 22 23  1  0  0  0  0
 24 28  1  0  0  0  0
 27 24  2  0  0  0  0
 28 25  1  0  0  0  0
 29 26  1  6  0  0  0
 29 30  1  0  0  0  0
 30 22  1  6  0  0  0
 30 25  1  0  0  0  0
 31 24  1  0  0  0  0
 31 29  1  0  0  0  0
M  END
>  <MODEL>
1

>  <REMARK>
 VINA RESULT:      -9.0      0.000      0.000
  Name = 
  2 active torsions:
  status: ('A' for Active; 'I' for Inactive)
    1  A    between atoms: C_5  and  C_30
    2  A    between atoms: C_10  and  N_16
                            x       y       z     vdW  Elec       q    Type
                         _______ _______ _______ _____ _____    ______ ____

>  <TORSDO>
F 2

$$$$
=
 OpenBabel11112417043D

 31 35  0  0  1  0  0  0  0  0999 V2000
  184.8920  177.8300  146.8600 C   0  0  0  0  0  0  0  0  0  0  0  0
  187.2490  175.9150  144.5710 C   0  0  2  0  0  3  0  0  0  0  0  0
  187.0600  176.4850  143.1710 C   0  0  0  0  0  0  0  0  0  0  0  0
  185.7640  177.7750  141.5640 C   0  0  0  0  0  0  0  0  0  0  0  0
  186.7580  176.8440  145.6570 C   0  0  0  0  0  0  0  0  0  0  0  0
  185.7760  178.6310  147.5830 C   0  0  0  0  0  3  0  0  0  0  0  0
  185.9490  177.2850  142.8590 C   0  0  0  0  0  3  0  0  0  0  0  0
  189.5880  176.7300  145.0400 C   0  0  2  0  0  3  0  0  0  0  0  0
  183.5600  177.9180  147.0840 F   0  0  0  0  0  0  0  0  0  0  0  0
  189.0830  175.3000  142.4150 N   0  0  0  0  0  2  0  0  0  0  0  0
  184.6690  178.5770  141.2750 O   0  0  0  0  0  1  0  0  0  0  0  0
  189.1420  177.4930  146.2870 C   0  0  0  0  0  2  0  0  0  0  0  0
  188.7090  175.4890  144.8360 C   0  0  2  0  0  3  0  0  0  0  0  0
  185.3810  176.9390  145.9020 C   0  0  0  0  0  3  0  0  0  0  0  0
  186.6830  177.4600  140.5610 C   0  0  0  0  0  3  0  0  0  0  0  0
  187.6520  177.6540  146.3940 C   0  0  0  0  0  0  0  0  0  0  0  0
  187.1510  178.5370  147.3580 C   0  0  0  0  0  3  0  0  0  0  0  0
  189.2120  174.6060  143.6910 C   0  0  0  0  0  2  0  0  0  0  0  0
  187.9600  176.1410  142.1400 C   0  0  0  0  0  0  0  0  0  0  0  0
  187.7780  176.6430  140.8480 C   0  0  0  0  0  3  0  0  0  0  0  0
  191.7620  177.8380  143.5650 O   0  0  0  0  0  0  0  0  0  0  0  0
  192.0300  176.9500  144.4190 C   0  0  0  0  0  0  0  0  0  0  0  0
  190.9860  176.3460  145.1840 N   0  0  0  0  0  2  0  0  0  0  0  0
  193.4420  173.6780  145.2440 C   0  0  0  0  0  0  0  0  0  0  0  0
  193.8970  175.4740  143.5880 C   0  0  0  0  0  2  0  0  0  0  0  0
  193.3010  176.9280  147.0130 O   0  0  0  0  0  1  0  0  0  0  0  0
  193.8150  172.5490  145.5130 O   0  0  0  0  0  0  0  0  0  0  0  0
  193.2670  174.0980  143.8170 C   0  0  0  0  0  2  0  0  0  0  0  0
  193.7240  175.9960  146.0640 C   0  0  2  0  0  3  0  0  0  0  0  0
  193.4460  176.5000  144.6360 C   0  0  2  0  0  3  0  0  0  0  0  0
  193.0830  174.6360  146.3370 C   0  0  0  0  0  2  0  0  0  0  0  0
  1  9  1  0  0  0  0
  1  6  1  0  0  0  0
  2  3  1  6  0  0  0
  2 13  1  0  0  0  0
  2  5  1  0  0  0  0
  4  7  2  0  0  0  0
  5 14  1  0  0  0  0
  5 16  2  0  0  0  0
  7  3  1  0  0  0  0
  8 23  1  1  0  0  0
  8 12  1  0  0  0  0
 10 18  1  0  0  0  0
 11  4  1  0  0  0  0
 12 16  1  0  0  0  0
 13 18  1  6  0  0  0
 13  8  1  0  0  0  0
 14  1  2  0  0  0  0
 15 20  2  0  0  0  0
 15  4  1  0  0  0  0
 16 17  1  0  0  0  0
 17  6  2  0  0  0  0
 19 10  1  0  0  0  0
 19  3  2  0  0  0  0
 20 19  1  0  0  0  0
 21 22  2  0  0  0  0
 22 23  1  0  0  0  0
 24 27  2  0  0  0  0
 24 31  1  0  0  0  0
 25 28  1  0  0  0  0
 25 30  1  0  0  0  0
 28 24  1  0  0  0  0
 29 31  1  0  0  0  0
 29 26  1  1  0  0  0
 30 22  1  1  0  0  0
 30 29  1  0  0  0  0
M  END
>  <MODEL>
2

>  <REMARK>
 VINA RESULT:      -8.6      1.352      1.895
  Name = 
  2 active torsions:
  status: ('A' for Active; 'I' for Inactive)
    1  A    between atoms: C_5  and  C_30
    2  A    between atoms: C_10  and  N_16
                            x       y       z     vdW  Elec       q    Type
                         _______ _______ _______ _____ _____    ______ ____

>  <TORSDO>
F 2

$$$$
=
 OpenBabel11112417043D

 31 35  0  0  1  0  0  0  0  0999 V2000
  194.5620  176.4790  145.1000 C   0  0  0  0  0  0  0  0  0  0  0  0
  191.1620  176.9200  143.4550 C   0  0  2  0  0  3  0  0  0  0  0  0
  190.8860  175.6450  142.6680 C   0  0  0  0  0  0  0  0  0  0  0  0
  191.6620  173.5830  141.6340 C   0  0  0  0  0  0  0  0  0  0  0  0
  192.2170  176.7380  144.5220 C   0  0  0  0  0  0  0  0  0  0  0  0
  194.2150  176.2950  146.4390 C   0  0  0  0  0  3  0  0  0  0  0  0
  191.9150  174.7320  142.3860 C   0  0  0  0  0  3  0  0  0  0  0  0
  189.4140  176.6850  145.2560 C   0  0  2  0  0  3  0  0  0  0  0  0
  195.8620  176.4380  144.7250 F   0  0  0  0  0  0  0  0  0  0  0  0
  188.5390  176.3330  142.3750 N   0  0  0  0  0  2  0  0  0  0  0  0
  192.6860  172.6820  141.3760 O   0  0  0  0  0  1  0  0  0  0  0  0
  190.4590  176.7330  146.3690 C   0  0  0  0  0  2  0  0  0  0  0  0
  189.8760  177.5240  144.0570 C   0  0  2  0  0  3  0  0  0  0  0  0
  193.5660  176.7020  144.1450 C   0  0  0  0  0  3  0  0  0  0  0  0
  190.3780  173.3370  141.1440 C   0  0  0  0  0  3  0  0  0  0  0  0
  191.8690  176.5560  145.8790 C   0  0  0  0  0  0  0  0  0  0  0  0
  192.8750  176.3430  146.8290 C   0  0  0  0  0  3  0  0  0  0  0  0
  188.7950  177.6350  142.9790 C   0  0  0  0  0  2  0  0  0  0  0  0
  189.6020  175.4070  142.1350 C   0  0  0  0  0  0  0  0  0  0  0  0
  189.3500  174.2490  141.3930 C   0  0  0  0  0  3  0  0  0  0  0  0
  187.8830  175.4680  147.3310 O   0  0  0  0  0  0  0  0  0  0  0  0
  187.4300  176.5270  146.8180 C   0  0  0  0  0  0  0  0  0  0  0  0
  188.1420  177.1810  145.7670 N   0  0  0  0  0  2  0  0  0  0  0  0
  185.1410  178.9260  145.2750 C   0  0  0  0  0  0  0  0  0  0  0  0
  184.9530  176.7130  146.3880 C   0  0  0  0  0  2  0  0  0  0  0  0
  187.2550  178.9910  148.3140 O   0  0  0  0  0  1  0  0  0  0  0  0
  184.4410  179.7260  144.6760 O   0  0  0  0  0  0  0  0  0  0  0  0
  184.9720  177.4550  145.0490 C   0  0  0  0  0  2  0  0  0  0  0  0
  186.1750  178.6340  147.5040 C   0  0  2  0  0  3  0  0  0  0  0  0
  186.1290  177.1100  147.2900 C   0  0  2  0  0  3  0  0  0  0  0  0
  186.2270  179.4070  146.1860 C   0  0  0  0  0  2  0  0  0  0  0  0
  1  6  1  0  0  0  0
  2  3  1  1  0  0  0
  2 13  1  0  0  0  0
  2  5  1  0  0  0  0
  4  7  2  0  0  0  0
  5 16  2  0  0  0  0
  6 17  2  0  0  0  0
  7  3  1  0  0  0  0
  8 23  1  1  0  0  0
  8 12  1  0  0  0  0
  9  1  1  0  0  0  0
 10 18  1  0  0  0  0
 11  4  1  0  0  0  0
 13 18  1  6  0  0  0
 13  8  1  0  0  0  0
 14  5  1  0  0  0  0
 14  1  2  0  0  0  0
 15 20  2  0  0  0  0
 15  4  1  0  0  0  0
 16 12  1  0  0  0  0
 16 17  1  0  0  0  0
 19 10  1  0  0  0  0
 19  3  2  0  0  0  0
 20 19  1  0  0  0  0
 22 21  2  0  0  0  0
 23 22  1  0  0  0  0
 24 31  1  0  0  0  0
 25 30  1  0  0  0  0
 27 24  2  0  0  0  0
 28 24  1  0  0  0  0
 28 25  1  0  0  0  0
 29 26  1  1  0  0  0
 30 22  1  6  0  0  0
 30 29  1  0  0  0  0
 31 29  1  0  0  0  0
M  END
>  <MODEL>
3

>  <REMARK>
 VINA RESULT:      -8.3      3.427      7.163
  Name = 
  2 active torsions:
  status: ('A' for Active; 'I' for Inactive)
    1  A    between atoms: C_5  and  C_30
    2  A    between atoms: C_10  and  N_16
                            x       y       z     vdW  Elec       q    Type
                         _______ _______ _______ _____ _____    ______ ____

>  <TORSDO>
F 2

$$$$
=
 OpenBabel11112417043D

 31 35  0  0  1  0  0  0  0  0999 V2000
  186.1620  178.1600  140.9030 C   0  0  0  0  0  0  0  0  0  0  0  0
  188.5630  177.9020  143.8410 C   0  0  2  0  0  3  0  0  0  0  0  0
  187.7240  177.5490  145.0630 C   0  0  0  0  0  0  0  0  0  0  0  0
  185.5690  177.3960  146.1830 C   0  0  0  0  0  0  0  0  0  0  0  0
  187.8660  177.5890  142.5370 C   0  0  0  0  0  0  0  0  0  0  0  0
  186.4600  177.0040  140.1820 C   0  0  0  0  0  3  0  0  0  0  0  0
  186.3270  177.6890  145.0470 C   0  0  0  0  0  3  0  0  0  0  0  0
  189.8480  175.7500  143.5810 C   0  0  2  0  0  3  0  0  0  0  0  0
  185.1900  178.9980  140.4700 F   0  0  0  0  0  0  0  0  0  0  0  0
  189.7780  177.0380  146.3240 N   0  0  0  0  0  2  0  0  0  0  0  0
  184.1870  177.5250  146.1470 O   0  0  0  0  0  1  0  0  0  0  0  0
  189.3300  175.5350  142.1600 C   0  0  0  0  0  2  0  0  0  0  0  0
  189.9610  177.2500  143.8830 C   0  0  2  0  0  3  0  0  0  0  0  0
  186.8630  178.4520  142.0760 C   0  0  0  0  0  3  0  0  0  0  0  0
  186.1990  176.9710  147.3530 C   0  0  0  0  0  3  0  0  0  0  0  0
  188.1690  176.4200  141.8020 C   0  0  0  0  0  0  0  0  0  0  0  0
  187.4660  176.1420  140.6240 C   0  0  0  0  0  3  0  0  0  0  0  0
  190.6220  177.5180  145.2370 C   0  0  0  0  0  2  0  0  0  0  0  0
  188.3540  177.1570  146.2630 C   0  0  0  0  0  0  0  0  0  0  0  0
  187.5910  176.8540  147.3940 C   0  0  0  0  0  3  0  0  0  0  0  0
  190.3670  173.4260  145.1500 O   0  0  0  0  0  0  0  0  0  0  0  0
  191.3350  173.9310  144.5200 C   0  0  0  0  0  0  0  0  0  0  0  0
  191.1460  175.1020  143.7240 N   0  0  0  0  0  2  0  0  0  0  0  0
  194.6720  175.4230  144.3730 C   0  0  0  0  0  0  0  0  0  0  0  0
  193.4810  173.8080  145.8380 C   0  0  0  0  0  2  0  0  0  0  0  0
  192.8250  173.0590  142.2040 O   0  0  0  0  0  1  0  0  0  0  0  0
  195.7370  176.0150  144.3180 O   0  0  0  0  0  0  0  0  0  0  0  0
  193.9680  175.2520  145.6840 C   0  0  0  0  0  2  0  0  0  0  0  0
  193.5390  173.4900  143.3230 C   0  0  2  0  0  3  0  0  0  0  0  0
  192.7050  173.3230  144.6060 C   0  0  2  0  0  3  0  0  0  0  0  0
  194.0170  174.9270  143.1210 C   0  0  0  0  0  2  0  0  0  0  0  0
  1 14  1  0  0  0  0
  2  5  1  6  0  0  0
  2 13  1  0  0  0  0
  2  3  1  0  0  0  0
  3 19  1  0  0  0  0
  4 15  2  0  0  0  0
  6 17  1  0  0  0  0
  6  1  2  0  0  0  0
  7  3  2  0  0  0  0
  7  4  1  0  0  0  0
  8 23  1  6  0  0  0
  8 13  1  0  0  0  0
  9  1  1  0  0  0  0
 11  4  1  0  0  0  0
 12  8  1  0  0  0  0
 13 18  1  1  0  0  0
 14  5  2  0  0  0  0
 15 20  1  0  0  0  0
 16 12  1  0  0  0  0
 16  5  1  0  0  0  0
 17 16  2  0  0  0  0
 18 10  1  0  0  0  0
 19 10  1  0  0  0  0
 19 20  2  0  0  0  0
 22 21  2  0  0  0  0
 23 22  1  0  0  0  0
 24 28  1  0  0  0  0
 27 24  2  0  0  0  0
 28 25  1  0  0  0  0
 29 26  1  6  0  0  0
 29 30  1  0  0  0  0
 30 22  1  6  0  0  0
 30 25  1  0  0  0  0
 31 29  1  0  0  0  0
 31 24  1  0  0  0  0
M  END
>  <MODEL>
4

>  <REMARK>
 VINA RESULT:      -8.1      2.199      4.288
  Name = 
  2 active torsions:
  status: ('A' for Active; 'I' for Inactive)
    1  A    between atoms: C_5  and  C_30
    2  A    between atoms: C_10  and  N_16
                            x       y       z     vdW  Elec       q    Type
                         _______ _______ _______ _____ _____    ______ ____

>  <TORSDO>
F 2

$$$$
=
 OpenBabel11112417043D

 31 35  0  0  1  0  0  0  0  0999 V2000
  192.0110  173.2360  141.5840 C   0  0  0  0  0  0  0  0  0  0  0  0
  191.1870  174.0790  145.2000 C   0  0  2  0  0  3  0  0  0  0  0  0
  192.2150  175.1070  145.6550 C   0  0  0  0  0  0  0  0  0  0  0  0
  194.3450  176.2490  145.3640 C   0  0  0  0  0  0  0  0  0  0  0  0
  191.0740  173.9860  143.6950 C   0  0  0  0  0  0  0  0  0  0  0  0
  190.9780  173.8710  140.8940 C   0  0  0  0  0  3  0  0  0  0  0  0
  193.3910  175.3300  144.9210 C   0  0  0  0  0  3  0  0  0  0  0  0
  189.1250  175.5290  145.1870 C   0  0  2  0  0  3  0  0  0  0  0  0
  192.9710  172.5680  140.9010 F   0  0  0  0  0  0  0  0  0  0  0  0
  190.8680  175.5620  147.6670 N   0  0  0  0  0  2  0  0  0  0  0  0
  195.4950  176.4690  144.6190 O   0  0  0  0  0  1  0  0  0  0  0  0
  188.8620  175.2560  143.7070 C   0  0  0  0  0  2  0  0  0  0  0  0
  189.8020  174.3160  145.8380 C   0  0  2  0  0  3  0  0  0  0  0  0
  192.0580  173.2920  142.9790 C   0  0  0  0  0  3  0  0  0  0  0  0
  194.1400  176.9480  146.5550 C   0  0  0  0  0  3  0  0  0  0  0  0
  190.0260  174.6260  142.9940 C   0  0  0  0  0  0  0  0  0  0  0  0
  189.9840  174.5550  141.5970 C   0  0  0  0  0  3  0  0  0  0  0  0
  189.9460  174.4780  147.3530 C   0  0  0  0  0  2  0  0  0  0  0  0
  192.0370  175.7910  146.8770 C   0  0  0  0  0  0  0  0  0  0  0  0
  192.9890  176.7180  147.3110 C   0  0  0  0  0  3  0  0  0  0  0  0
  188.6550  177.7590  146.9010 O   0  0  0  0  0  0  0  0  0  0  0  0
  187.6920  176.9710  146.6930 C   0  0  0  0  0  0  0  0  0  0  0  0
  187.8640  175.8280  145.8540 N   0  0  0  0  0  2  0  0  0  0  0  0
  184.7470  178.8210  145.5630 C   0  0  0  0  0  0  0  0  0  0  0  0
  185.2070  176.5820  146.5350 C   0  0  0  0  0  2  0  0  0  0  0  0
  187.1280  179.2580  148.3640 O   0  0  0  0  0  1  0  0  0  0  0  0
  183.8160  179.4560  145.0950 O   0  0  0  0  0  0  0  0  0  0  0  0
  184.8980  177.3630  145.2550 C   0  0  0  0  0  2  0  0  0  0  0  0
  186.0740  178.6890  147.6470 C   0  0  2  0  0  3  0  0  0  0  0  0
  186.3560  177.2090  147.3360 C   0  0  2  0  0  3  0  0  0  0  0  0
  185.7910  179.5070  146.3880 C   0  0  0  0  0  2  0  0  0  0  0  0
  1 14  1  0  0  0  0
  2  5  1  6  0  0  0
  2  3  1  0  0  0  0
  2 13  1  0  0  0  0
  3 19  1  0  0  0  0
  4 15  2  0  0  0  0
  6  1  2  0  0  0  0
  6 17  1  0  0  0  0
  7  4  1  0  0  0  0
  7  3  2  0  0  0  0
  8 13  1  0  0  0  0
  8 23  1  1  0  0  0
  9  1  1  0  0  0  0
 11  4  1  0  0  0  0
 12  8  1  0  0  0  0
 13 18  1  1  0  0  0
 14  5  2  0  0  0  0
 15 20  1  0  0  0  0
 16  5  1  0  0  0  0
 16 12  1  0  0  0  0
 17 16  2  0  0  0  0
 18 10  1  0  0  0  0
 19 20  2  0  0  0  0
 19 10  1  0  0  0  0
 22 21  2  0  0  0  0
 23 22  1  0  0  0  0
 24 31  1  0  0  0  0
 25 30  1  0  0  0  0
 27 24  2  0  0  0  0
 28 24  1  0  0  0  0
 28 25  1  0  0  0  0
 29 26  1  6  0  0  0
 30 22  1  6  0  0  0
 30 29  1  0  0  0  0
 31 29  1  0  0  0  0
M  END
>  <MODEL>
5

>  <REMARK>
 VINA RESULT:      -7.7      3.267      7.809
  Name = 
  2 active torsions:
  status: ('A' for Active; 'I' for Inactive)
    1  A    between atoms: C_5  and  C_30
    2  A    between atoms: C_10  and  N_16
                            x       y       z     vdW  Elec       q    Type
                         _______ _______ _______ _____ _____    ______ ____

>  <TORSDO>
F 2

$$$$
=
 OpenBabel11112417043D

 31 35  0  0  1  0  0  0  0  0999 V2000
  186.1470  177.2570  142.3200 C   0  0  0  0  0  0  0  0  0  0  0  0
  188.9080  175.0400  143.7070 C   0  0  2  0  0  3  0  0  0  0  0  0
  189.2450  174.0280  142.6200 C   0  0  0  0  0  0  0  0  0  0  0  0
  188.6860  172.8710  140.5530 C   0  0  0  0  0  0  0  0  0  0  0  0
  188.1890  176.2590  143.1750 C   0  0  0  0  0  0  0  0  0  0  0  0
  186.8250  178.4530  142.0830 C   0  0  0  0  0  3  0  0  0  0  0  0
  188.3870  173.8250  141.5270 C   0  0  0  0  0  3  0  0  0  0  0  0
  191.0370  176.3880  143.6980 C   0  0  2  0  0  3  0  0  0  0  0  0
  184.8310  177.1540  142.0180 F   0  0  0  0  0  0  0  0  0  0  0  0
  191.2690  173.3700  143.8610 N   0  0  0  0  0  2  0  0  0  0  0  0
  187.8350  172.6920  139.4710 O   0  0  0  0  0  1  0  0  0  0  0  0
  190.2920  177.6860  143.3870 C   0  0  0  0  0  2  0  0  0  0  0  0
  190.1480  175.4530  144.5270 C   0  0  2  0  0  3  0  0  0  0  0  0
  186.8260  176.1650  142.8660 C   0  0  0  0  0  3  0  0  0  0  0  0
  189.8430  172.0980  140.6650 C   0  0  0  0  0  3  0  0  0  0  0  0
  188.8730  177.4730  142.9380 C   0  0  0  0  0  0  0  0  0  0  0  0
  188.1810  178.5630  142.4000 C   0  0  0  0  0  3  0  0  0  0  0  0
  190.9020  174.2060  144.9980 C   0  0  0  0  0  2  0  0  0  0  0  0
  190.3910  173.2140  142.7430 C   0  0  0  0  0  0  0  0  0  0  0  0
  190.6930  172.2680  141.7600 C   0  0  0  0  0  3  0  0  0  0  0  0
  193.6670  175.6650  142.8670 O   0  0  0  0  0  0  0  0  0  0  0  0
  193.5540  176.3150  143.9410 C   0  0  0  0  0  0  0  0  0  0  0  0
  192.2650  176.6990  144.4200 N   0  0  0  0  0  2  0  0  0  0  0  0
  196.5790  174.4340  144.7730 C   0  0  0  0  0  0  0  0  0  0  0  0
  196.0460  176.6960  143.8940 C   0  0  0  0  0  2  0  0  0  0  0  0
  193.7860  175.8100  146.7760 O   0  0  0  0  0  1  0  0  0  0  0  0
  197.5500  173.7290  144.9900 O   0  0  0  0  0  0  0  0  0  0  0  0
  196.5220  175.2850  143.5410 C   0  0  0  0  0  2  0  0  0  0  0  0
  194.9540  175.8290  146.0120 C   0  0  2  0  0  3  0  0  0  0  0  0
  194.7690  176.6830  144.7450 C   0  0  2  0  0  3  0  0  0  0  0  0
  195.4000  174.4030  145.6950 C   0  0  0  0  0  2  0  0  0  0  0  0
  1 14  1  0  0  0  0
  2  3  1  6  0  0  0
  2 13  1  0  0  0  0
  3 19  1  0  0  0  0
  4 15  2  0  0  0  0
  4  7  1  0  0  0  0
  5  2  1  0  0  0  0
  6  1  2  0  0  0  0
  6 17  1  0  0  0  0
  7  3  2  0  0  0  0
  8 23  1  1  0  0  0
  8 13  1  0  0  0  0
  9  1  1  0  0  0  0
 10 18  1  0  0  0  0
 11  4  1  0  0  0  0
 12  8  1  0  0  0  0
 13 18  1  6  0  0  0
 14  5  2  0  0  0  0
 15 20  1  0  0  0  0
 16  5  1  0  0  0  0
 16 12  1  0  0  0  0
 17 16  2  0  0  0  0
 19 10  1  0  0  0  0
 20 19  2  0  0  0  0
 21 22  2  0  0  0  0
 22 23  1  0  0  0  0
 24 27  2  0  0  0  0
 24 31  1  0  0  0  0
 25 30  1  0  0  0  0
 28 25  1  0  0  0  0
 28 24  1  0  0  0  0
 29 26  1  6  0  0  0
 30 22  1  6  0  0  0
 30 29  1  0  0  0  0
 31 29  1  0  0  0  0
M  END
>  <MODEL>
6

>  <REMARK>
 VINA RESULT:      -7.7      3.048      3.730
  Name = 
  2 active torsions:
  status: ('A' for Active; 'I' for Inactive)
    1  A    between atoms: C_5  and  C_30
    2  A    between atoms: C_10  and  N_16
                            x       y       z     vdW  Elec       q    Type
                         _______ _______ _______ _____ _____    ______ ____

>  <TORSDO>
F 2

$$$$
=
 OpenBabel11112417043D

 31 35  0  0  1  0  0  0  0  0999 V2000
  193.8140  172.4890  141.2380 C   0  0  0  0  0  0  0  0  0  0  0  0
  191.6300  173.4040  144.2140 C   0  0  2  0  0  3  0  0  0  0  0  0
  192.3820  174.4720  144.9980 C   0  0  0  0  0  0  0  0  0  0  0  0
  194.4380  175.6650  145.5200 C   0  0  0  0  0  0  0  0  0  0  0  0
  192.1150  173.2680  142.7890 C   0  0  0  0  0  0  0  0  0  0  0  0
  193.1230  173.0780  140.1780 C   0  0  0  0  0  3  0  0  0  0  0  0
  193.7480  174.7090  144.7730 C   0  0  0  0  0  3  0  0  0  0  0  0
  189.7140  174.7940  143.3480 C   0  0  2  0  0  3  0  0  0  0  0  0
  194.9750  171.8310  141.0080 F   0  0  0  0  0  0  0  0  0  0  0  0
  190.3490  174.9410  146.3080 N   0  0  0  0  0  2  0  0  0  0  0  0
  195.7840  175.8980  145.2760 O   0  0  0  0  0  1  0  0  0  0  0  0
  190.0540  174.4750  141.8930 C   0  0  0  0  0  2  0  0  0  0  0  0
  190.1020  173.6180  144.2530 C   0  0  2  0  0  3  0  0  0  0  0  0
  193.3110  172.5830  142.5380 C   0  0  0  0  0  3  0  0  0  0  0  0
  193.7740  176.3890  146.5120 C   0  0  0  0  0  3  0  0  0  0  0  0
  191.4140  173.8590  141.7130 C   0  0  0  0  0  0  0  0  0  0  0  0
  191.9220  173.7510  140.4140 C   0  0  0  0  0  3  0  0  0  0  0  0
  189.6400  173.8230  145.6980 C   0  0  0  0  0  2  0  0  0  0  0  0
  191.7300  175.1820  146.0290 C   0  0  0  0  0  0  0  0  0  0  0  0
  192.4220  176.1460  146.7670 C   0  0  0  0  0  3  0  0  0  0  0  0
  188.5820  177.2960  144.1150 O   0  0  0  0  0  0  0  0  0  0  0  0
  187.7860  176.3570  143.8400 C   0  0  0  0  0  0  0  0  0  0  0  0
  188.2890  175.0750  143.4590 N   0  0  0  0  0  2  0  0  0  0  0  0
  185.7640  179.3930  144.1030 C   0  0  0  0  0  0  0  0  0  0  0  0
  185.7530  177.3330  142.7130 C   0  0  0  0  0  2  0  0  0  0  0  0
  186.3480  176.5020  146.3400 O   0  0  0  0  0  1  0  0  0  0  0  0
  185.1800  180.4610  144.1830 O   0  0  0  0  0  0  0  0  0  0  0  0
  186.1130  178.8200  142.7630 C   0  0  0  0  0  2  0  0  0  0  0  0
  185.8370  177.1990  145.2440 C   0  0  2  0  0  3  0  0  0  0  0  0
  186.3010  176.5630  143.9220 C   0  0  2  0  0  3  0  0  0  0  0  0
  186.2070  178.6790  145.3410 C   0  0  0  0  0  2  0  0  0  0  0  0
  1 14  1  0  0  0  0
  2  5  1  6  0  0  0
  2 13  1  0  0  0  0
  2  3  1  0  0  0  0
  3 19  1  0  0  0  0
  4 15  2  0  0  0  0
  6 17  1  0  0  0  0
  6  1  2  0  0  0  0
  7  3  2  0  0  0  0
  7  4  1  0  0  0  0
  8 23  1  6  0  0  0
  8 13  1  0  0  0  0
  9  1  1  0  0  0  0
 11  4  1  0  0  0  0
 12  8  1  0  0  0  0
 13 18  1  1  0  0  0
 14  5  2  0  0  0  0
 15 20  1  0  0  0  0
 16 12  1  0  0  0  0
 16  5  1  0  0  0  0
 17 16  2  0  0  0  0
 18 10  1  0  0  0  0
 19 10  1  0  0  0  0
 19 20  2  0  0  0  0
 22 21  2  0  0  0  0
 23 22  1  0  0  0  0
 24 27  2  0  0  0  0
 24 31  1  0  0  0  0
 25 28  1  0  0  0  0
 25 30  1  0  0  0  0
 28 24  1  0  0  0  0
 29 31  1  0  0  0  0
 29 26  1  1  0  0  0
 30 22  1  1  0  0  0
 30 29  1  0  0  0  0
M  END
>  <MODEL>
7

>  <REMARK>
 VINA RESULT:      -7.6      3.618      8.199
  Name = 
  2 active torsions:
  status: ('A' for Active; 'I' for Inactive)
    1  A    between atoms: C_5  and  C_30
    2  A    between atoms: C_10  and  N_16
                            x       y       z     vdW  Elec       q    Type
                         _______ _______ _______ _____ _____    ______ ____

>  <TORSDO>
F 2

$$$$
=
 OpenBabel11112417043D

 31 35  0  0  1  0  0  0  0  0999 V2000
  185.8220  178.9860  143.0630 C   0  0  0  0  0  0  0  0  0  0  0  0
  189.1360  177.2480  143.7390 C   0  0  2  0  0  3  0  0  0  0  0  0
  188.9660  176.4700  145.0380 C   0  0  0  0  0  0  0  0  0  0  0  0
  187.7580  176.0320  147.1050 C   0  0  0  0  0  0  0  0  0  0  0  0
  187.8190  177.6040  143.0880 C   0  0  0  0  0  0  0  0  0  0  0  0
  185.3160  178.2430  141.9950 C   0  0  0  0  0  3  0  0  0  0  0  0
  187.8880  176.7260  145.9000 C   0  0  0  0  0  3  0  0  0  0  0  0
  189.3260  175.3240  142.1210 C   0  0  2  0  0  3  0  0  0  0  0  0
  185.1020  180.0110  143.5750 F   0  0  0  0  0  0  0  0  0  0  0  0
  191.0750  175.2740  144.5970 N   0  0  0  0  0  2  0  0  0  0  0  0
  186.6790  176.2860  147.9400 O   0  0  0  0  0  1  0  0  0  0  0  0
  188.1240  175.8040  141.3080 C   0  0  0  0  0  2  0  0  0  0  0  0
  190.0600  176.5210  142.7390 C   0  0  2  0  0  3  0  0  0  0  0  0
  187.0690  178.6680  143.6060 C   0  0  0  0  0  3  0  0  0  0  0  0
  188.7130  175.0820  147.4690 C   0  0  0  0  0  3  0  0  0  0  0  0
  187.3070  176.8560  142.0040 C   0  0  0  0  0  0  0  0  0  0  0  0
  186.0610  177.1890  141.4610 C   0  0  0  0  0  3  0  0  0  0  0  0
  191.3590  176.1070  143.4340 C   0  0  0  0  0  2  0  0  0  0  0  0
  189.9460  175.5350  145.4340 C   0  0  0  0  0  0  0  0  0  0  0  0
  189.8060  174.8350  146.6360 C   0  0  0  0  0  3  0  0  0  0  0  0
  189.7140  172.5010  142.2190 O   0  0  0  0  0  0  0  0  0  0  0  0
  190.3620  173.1490  141.3520 C   0  0  0  0  0  0  0  0  0  0  0  0
  190.2210  174.5670  141.2570 N   0  0  0  0  0  2  0  0  0  0  0  0
  189.9910  172.0990  137.8670 C   0  0  0  0  0  0  0  0  0  0  0  0
  191.6870  173.3180  139.2140 C   0  0  0  0  0  2  0  0  0  0  0  0
  190.4430  170.2760  141.0580 O   0  0  0  0  0  1  0  0  0  0  0  0
  189.7730  171.7960  136.7070 O   0  0  0  0  0  0  0  0  0  0  0  0
  190.5440  173.4510  138.2040 C   0  0  0  0  0  2  0  0  0  0  0  0
  190.8040  171.0620  139.9610 C   0  0  2  0  0  3  0  0  0  0  0  0
  191.3020  172.4450  140.4160 C   0  0  2  0  0  3  0  0  0  0  0  0
  189.6400  171.1560  138.9750 C   0  0  0  0  0  2  0  0  0  0  0  0
  1  9  1  0  0  0  0
  1 14  1  0  0  0  0
  2  5  1  6  0  0  0
  2  3  1  0  0  0  0
  3 19  2  0  0  0  0
  3  7  1  0  0  0  0
  4 15  1  0  0  0  0
  4 11  1  0  0  0  0
  5 14  2  0  0  0  0
  6  1  2  0  0  0  0
  7  4  2  0  0  0  0
  8 23  1  6  0  0  0
  8 13  1  0  0  0  0
 10 19  1  0  0  0  0
 12 16  1  0  0  0  0
 12  8  1  0  0  0  0
 13 18  1  1  0  0  0
 13  2  1  0  0  0  0
 16  5  1  0  0  0  0
 17  6  1  0  0  0  0
 17 16  2  0  0  0  0
 18 10  1  0  0  0  0
 19 20  1  0  0  0  0
 20 15  2  0  0  0  0
 22 21  2  0  0  0  0
 23 22  1  0  0  0  0
 24 28  1  0  0  0  0
 24 31  1  0  0  0  0
 25 30  1  0  0  0  0
 27 24  2  0  0  0  0
 28 25  1  0  0  0  0
 29 30  1  0  0  0  0
 29 26  1  1  0  0  0
 30 22  1  6  0  0  0
 31 29  1  0  0  0  0
M  END
>  <MODEL>
8

>  <REMARK>
 VINA RESULT:      -7.4      3.754      5.965
  Name = 
  2 active torsions:
  status: ('A' for Active; 'I' for Inactive)
    1  A    between atoms: C_5  and  C_30
    2  A    between atoms: C_10  and  N_16
                            x       y       z     vdW  Elec       q    Type
                         _______ _______ _______ _____ _____    ______ ____

>  <TORSDO>
F 2

$$$$
=
 OpenBabel11112417043D

 31 35  0  0  1  0  0  0  0  0999 V2000
  186.1690  179.0280  142.8450 C   0  0  0  0  0  0  0  0  0  0  0  0
  189.2930  177.0110  143.6400 C   0  0  2  0  0  3  0  0  0  0  0  0
  189.0300  176.2950  144.9580 C   0  0  0  0  0  0  0  0  0  0  0  0
  187.7520  176.0400  147.0140 C   0  0  0  0  0  0  0  0  0  0  0  0
  188.0260  177.4670  142.9530 C   0  0  0  0  0  0  0  0  0  0  0  0
  185.6140  178.3010  141.7910 C   0  0  0  0  0  3  0  0  0  0  0  0
  187.9660  176.6790  145.7910 C   0  0  0  0  0  3  0  0  0  0  0  0
  189.3290  175.0260  142.0870 C   0  0  2  0  0  3  0  0  0  0  0  0
  185.5400  180.1320  143.3110 F   0  0  0  0  0  0  0  0  0  0  0  0
  191.0240  174.8950  144.5960 N   0  0  0  0  0  2  0  0  0  0  0  0
  186.6880  176.4210  147.8190 O   0  0  0  0  0  1  0  0  0  0  0  0
  188.1910  175.5890  141.2350 C   0  0  0  0  0  2  0  0  0  0  0  0
  190.1610  176.1690  142.6810 C   0  0  2  0  0  3  0  0  0  0  0  0
  187.3710  178.6130  143.4230 C   0  0  0  0  0  3  0  0  0  0  0  0
  188.6070  175.0170  147.4270 C   0  0  0  0  0  3  0  0  0  0  0  0
  187.4650  176.7350  141.8820 C   0  0  0  0  0  0  0  0  0  0  0  0
  186.2640  177.1650  141.3050 C   0  0  0  0  0  3  0  0  0  0  0  0
  191.4050  175.6580  143.4140 C   0  0  0  0  0  2  0  0  0  0  0  0
  189.9110  175.2860  145.4030 C   0  0  0  0  0  0  0  0  0  0  0  0
  189.6860  174.6420  146.6230 C   0  0  0  0  0  3  0  0  0  0  0  0
  189.8120  172.2580  142.5700 O   0  0  0  0  0  0  0  0  0  0  0  0
  190.3560  172.7760  141.5570 C   0  0  0  0  0  0  0  0  0  0  0  0
  190.1630  174.1600  141.2640 N   0  0  0  0  0  2  0  0  0  0  0  0
  192.2300  169.6880  142.1330 C   0  0  0  0  0  0  0  0  0  0  0  0
  190.6560  170.5490  140.4140 C   0  0  0  0  0  2  0  0  0  0  0  0
  193.2090  173.1660  141.3270 O   0  0  0  0  0  1  0  0  0  0  0  0
  192.8130  168.6570  142.4230 O   0  0  0  0  0  0  0  0  0  0  0  0
  190.8170  169.6440  141.6380 C   0  0  0  0  0  2  0  0  0  0  0  0
  192.6980  171.8870  141.1000 C   0  0  2  0  0  3  0  0  0  0  0  0
  191.2270  171.9540  140.6520 C   0  0  2  0  0  3  0  0  0  0  0  0
  192.8910  171.0150  142.3400 C   0  0  0  0  0  2  0  0  0  0  0  0
  1  9  1  0  0  0  0
  1 14  1  0  0  0  0
  2  5  1  6  0  0  0
  2  3  1  0  0  0  0
  3 19  2  0  0  0  0
  3  7  1  0  0  0  0
  4 15  1  0  0  0  0
  4 11  1  0  0  0  0
  5 14  2  0  0  0  0
  6  1  2  0  0  0  0
  7  4  2  0  0  0  0
  8 23  1  6  0  0  0
  8 13  1  0  0  0  0
 10 19  1  0  0  0  0
 12 16  1  0  0  0  0
 12  8  1  0  0  0  0
 13 18  1  1  0  0  0
 13  2  1  0  0  0  0
 16  5  1  0  0  0  0
 17  6  1  0  0  0  0
 17 16  2  0  0  0  0
 18 10  1  0  0  0  0
 19 20  1  0  0  0  0
 20 15  2  0  0  0  0
 22 21  2  0  0  0  0
 23 22  1  0  0  0  0
 24 31  1  0  0  0  0
 24 27  2  0  0  0  0
 25 30  1  0  0  0  0
 25 28  1  0  0  0  0
 28 24  1  0  0  0  0
 29 26  1  1  0  0  0
 29 31  1  0  0  0  0
 30 29  1  0  0  0  0
 30 22  1  1  0  0  0
M  END
>  <MODEL>
9

>  <REMARK>
 VINA RESULT:      -7.3      3.517      5.622
  Name = 
  2 active torsions:
  status: ('A' for Active; 'I' for Inactive)
    1  A    between atoms: C_5  and  C_30
    2  A    between atoms: C_10  and  N_16
                            x       y       z     vdW  Elec       q    Type
                         _______ _______ _______ _____ _____    ______ ____

>  <TORSDO>
F 2

$$$$
