=
 OpenBabel11112417363D

 28 31  0  0  1  0  0  0  0  0999 V2000
  186.8930  177.8390  145.0360 C   0  0  0  0  0  0  0  0  0  0  0  0
  190.5050  178.1610  147.5830 O   0  0  0  0  0  0  0  0  0  0  0  0
  186.1720  176.3600  147.2990 C   0  0  0  0  0  3  0  0  0  0  0  0
  187.2200  178.5260  143.8670 O   0  0  0  0  0  0  0  0  0  0  0  0
  189.9140  175.7850  147.8800 O   0  0  0  0  0  0  0  0  0  0  0  0
  190.7350  176.7610  147.0870 S   0  0  0  0  0  0  0  0  0  0  0  0
  193.1840  176.4170  145.8800 C   0  0  1  0  0  3  0  0  0  0  0  0
  190.4160  176.6530  145.3420 C   0  0  1  0  0  3  0  0  0  0  0  0
  186.9760  177.5370  140.2570 C   0  0  0  0  0  1  0  0  0  0  0  0
  188.9990  175.3690  143.8390 C   0  0  2  0  0  3  0  0  0  0  0  0
  192.5800  175.5480  144.7510 C   0  0  0  0  0  2  0  0  0  0  0  0
  192.4650  176.3070  147.2360 C   0  0  0  0  0  2  0  0  0  0  0  0
  187.6510  177.9920  141.5360 C   0  0  2  0  0  3  0  0  0  0  0  0
  187.7700  176.8680  145.5460 C   0  0  0  0  0  0  0  0  0  0  0  0
  194.6520  176.0900  146.0460 C   0  0  0  0  0  1  0  0  0  0  0  0
  188.7910  177.0340  141.9110 C   0  0  0  0  0  2  0  0  0  0  0  0
  187.3880  176.1080  146.6580 C   0  0  0  0  0  3  0  0  0  0  0  0
  185.6750  178.0890  145.6800 C   0  0  0  0  0  3  0  0  0  0  0  0
  185.3200  177.3550  146.8150 C   0  0  0  0  0  3  0  0  0  0  0  0
  186.6060  178.1680  142.6380 C   0  0  0  0  0  2  0  0  0  0  0  0
  190.3980  174.9750  143.6320 N   0  0  0  0  0  0  0  0  0  0  0  0
  188.2880  175.7200  142.5190 C   0  0  1  0  0  3  0  0  0  0  0  0
  191.0600  175.3820  144.8700 C   0  0  2  0  0  3  0  0  0  0  0  0
  189.0190  176.5650  144.7770 C   0  0  1  0  0  3  0  0  0  0  0  0
  187.3800  173.7920  141.9230 C   0  0  0  0  0  1  0  0  0  0  0  0
  188.4030  174.6820  141.5910 O   0  0  0  0  0  0  0  0  0  0  0  0
  190.4260  173.5200  143.5970 C   0  0  0  0  0  2  0  0  0  0  0  0
  189.8650  172.9660  144.8920 C   0  0  0  0  0  1  0  0  0  0  0  0
  1 14  2  0  0  0  0
  1 18  1  0  0  0  0
  4  1  1  0  0  0  0
  6 12  1  0  0  0  0
  6  2  2  0  0  0  0
  6  5  2  0  0  0  0
  7 15  1  1  0  0  0
  7 12  1  0  0  0  0
  8  6  1  1  0  0  0
 10 21  1  6  0  0  0
 10 24  1  0  0  0  0
 11  7  1  0  0  0  0
 13  9  1  6  0  0  0
 13 16  1  0  0  0  0
 13 20  1  0  0  0  0
 14 17  1  0  0  0  0
 16 22  1  0  0  0  0
 17  3  2  0  0  0  0
 18 19  2  0  0  0  0
 19  3  1  0  0  0  0
 20  4  1  0  0  0  0
 21 23  1  0  0  0  0
 22 26  1  6  0  0  0
 22 10  1  0  0  0  0
 23 11  1  6  0  0  0
 23  8  1  0  0  0  0
 24  8  1  0  0  0  0
 24 14  1  1  0  0  0
 26 25  1  0  0  0  0
 27 21  1  0  0  0  0
 27 28  1  0  0  0  0
M  END
>  <MODEL>
1

>  <REMARK>
 VINA RESULT:      -7.3      0.000      0.000
  Name = 
  2 active torsions:
  status: ('A' for Active; 'I' for Inactive)
    1  A    between atoms: C_5  and  N_24
    2  A    between atoms: O_17  and  C_25
                            x       y       z     vdW  Elec       q    Type
                         _______ _______ _______ _____ _____    ______ ____

>  <TORSDO>
F 2

$$$$
=
 OpenBabel11112417363D

 28 31  0  0  1  0  0  0  0  0999 V2000
  186.0800  176.7770  143.0450 C   0  0  0  0  0  0  0  0  0  0  0  0
  187.4920  172.9420  141.3320 O   0  0  0  0  0  0  0  0  0  0  0  0
  186.8040  177.5060  140.4420 C   0  0  0  0  0  3  0  0  0  0  0  0
  185.7490  176.4760  144.3660 O   0  0  0  0  0  0  0  0  0  0  0  0
  189.1890  174.5100  140.4720 O   0  0  0  0  0  0  0  0  0  0  0  0
  188.8390  173.5580  141.5790 S   0  0  0  0  0  0  0  0  0  0  0  0
  190.4880  171.9950  143.1330 C   0  0  1  0  0  3  0  0  0  0  0  0
  188.8930  174.3320  143.1790 C   0  0  1  0  0  3  0  0  0  0  0  0
  186.7260  178.1010  147.6020 C   0  0  0  0  0  1  0  0  0  0  0  0
  189.3630  176.5290  144.1090 C   0  0  2  0  0  3  0  0  0  0  0  0
  190.9980  173.2150  143.9370 C   0  0  0  0  0  2  0  0  0  0  0  0
  190.1110  172.2950  141.6710 C   0  0  0  0  0  2  0  0  0  0  0  0
  186.5960  176.9830  146.5870 C   0  0  2  0  0  3  0  0  0  0  0  0
  187.3250  176.3830  142.5280 C   0  0  0  0  0  0  0  0  0  0  0  0
  191.5140  170.8850  143.1840 C   0  0  0  0  0  1  0  0  0  0  0  0
  187.9750  176.3980  146.2520 C   0  0  0  0  0  2  0  0  0  0  0  0
  187.6950  176.7810  141.2380 C   0  0  0  0  0  3  0  0  0  0  0  0
  185.1900  177.5050  142.2460 C   0  0  0  0  0  3  0  0  0  0  0  0
  185.5500  177.8620  140.9440 C   0  0  0  0  0  3  0  0  0  0  0  0
  185.8250  177.4830  145.3640 C   0  0  0  0  0  2  0  0  0  0  0  0
  190.4380  175.6050  144.4930 N   0  0  0  0  0  0  0  0  0  0  0  0
  188.7910  177.2960  145.3160 C   0  0  1  0  0  3  0  0  0  0  0  0
  190.3440  174.5330  143.5050 C   0  0  2  0  0  3  0  0  0  0  0  0
  188.2860  175.6870  143.4430 C   0  0  1  0  0  3  0  0  0  0  0  0
  189.9720  177.1840  147.1840 C   0  0  0  0  0  1  0  0  0  0  0  0
  189.8030  177.9460  146.0270 O   0  0  0  0  0  0  0  0  0  0  0  0
  191.6950  176.2970  144.2490 C   0  0  0  0  0  2  0  0  0  0  0  0
  191.5860  177.1230  142.9820 C   0  0  0  0  0  1  0  0  0  0  0  0
  1  4  1  0  0  0  0
  2  6  2  0  0  0  0
  3 19  2  0  0  0  0
  3 17  1  0  0  0  0
  4 20  1  0  0  0  0
  5  6  2  0  0  0  0
  6 12  1  0  0  0  0
  7 15  1  6  0  0  0
  7 11  1  0  0  0  0
  8  6  1  6  0  0  0
  8 24  1  0  0  0  0
  8 23  1  0  0  0  0
 10 21  1  1  0  0  0
 10 22  1  0  0  0  0
 12  7  1  0  0  0  0
 13  9  1  1  0  0  0
 14  1  1  0  0  0  0
 16 13  1  0  0  0  0
 17 14  2  0  0  0  0
 18  1  2  0  0  0  0
 19 18  1  0  0  0  0
 20 13  1  0  0  0  0
 22 26  1  1  0  0  0
 22 16  1  0  0  0  0
 23 11  1  1  0  0  0
 23 21  1  0  0  0  0
 24 14  1  6  0  0  0
 24 10  1  0  0  0  0
 26 25  1  0  0  0  0
 27 21  1  0  0  0  0
 28 27  1  0  0  0  0
M  END
>  <MODEL>
2

>  <REMARK>
 VINA RESULT:      -7.0      2.032      5.068
  Name = 
  2 active torsions:
  status: ('A' for Active; 'I' for Inactive)
    1  A    between atoms: C_5  and  N_24
    2  A    between atoms: O_17  and  C_25
                            x       y       z     vdW  Elec       q    Type
                         _______ _______ _______ _____ _____    ______ ____

>  <TORSDO>
F 2

$$$$
=
 OpenBabel11112417363D

 28 31  0  0  1  0  0  0  0  0999 V2000
  188.6750  176.7440  145.7390 C   0  0  0  0  0  0  0  0  0  0  0  0
  192.9360  176.9970  146.9280 O   0  0  0  0  0  0  0  0  0  0  0  0
  188.9610  174.5410  147.4390 C   0  0  0  0  0  3  0  0  0  0  0  0
  188.4910  177.8010  144.8480 O   0  0  0  0  0  0  0  0  0  0  0  0
  192.6840  174.5740  146.5430 O   0  0  0  0  0  0  0  0  0  0  0  0
  193.0740  175.8860  145.9260 S   0  0  0  0  0  0  0  0  0  0  0  0
  194.9210  176.4160  143.9550 C   0  0  1  0  0  3  0  0  0  0  0  0
  192.1410  176.2470  144.4560 C   0  0  1  0  0  3  0  0  0  0  0  0
  187.0050  177.9160  141.4050 C   0  0  0  0  0  1  0  0  0  0  0  0
  190.3740  175.2190  143.1390 C   0  0  2  0  0  3  0  0  0  0  0  0
  194.0120  175.8240  142.8500 C   0  0  0  0  0  2  0  0  0  0  0  0
  194.7660  175.7620  145.3390 C   0  0  0  0  0  2  0  0  0  0  0  0
  188.0690  178.0900  142.4720 C   0  0  2  0  0  3  0  0  0  0  0  0
  189.7510  175.8590  145.5630 C   0  0  0  0  0  0  0  0  0  0  0  0
  196.3660  176.3520  143.5130 C   0  0  0  0  0  1  0  0  0  0  0  0
  189.3370  177.3110  142.0980 C   0  0  0  0  0  2  0  0  0  0  0  0
  189.8680  174.7400  146.3950 C   0  0  0  0  0  3  0  0  0  0  0  0
  187.7660  176.5410  146.7850 C   0  0  0  0  0  3  0  0  0  0  0  0
  187.9150  175.4450  147.6380 C   0  0  0  0  0  3  0  0  0  0  0  0
  187.4950  177.7140  143.8390 C   0  0  0  0  0  2  0  0  0  0  0  0
  191.6230  175.1920  142.3680 N   0  0  0  0  0  0  0  0  0  0  0  0
  189.1990  175.8020  142.3310 C   0  0  1  0  0  3  0  0  0  0  0  0
  192.6620  175.3310  143.3860 C   0  0  2  0  0  3  0  0  0  0  0  0
  190.6460  176.0570  144.3780 C   0  0  1  0  0  3  0  0  0  0  0  0
  188.1760  174.0780  141.3950 C   0  0  0  0  0  1  0  0  0  0  0  0
  189.0430  175.1350  141.1140 O   0  0  0  0  0  0  0  0  0  0  0  0
  191.7490  173.8510  141.8160 C   0  0  0  0  0  2  0  0  0  0  0  0
  191.4730  172.8240  142.8970 C   0  0  0  0  0  1  0  0  0  0  0  0
  1 18  1  0  0  0  0
  3 19  1  0  0  0  0
  4  1  1  0  0  0  0
  6  5  2  0  0  0  0
  6  2  2  0  0  0  0
  7 15  1  6  0  0  0
  7 12  1  0  0  0  0
  8  6  1  1  0  0  0
 10 21  1  6  0  0  0
 10 24  1  0  0  0  0
 11  7  1  0  0  0  0
 12  6  1  0  0  0  0
 13  9  1  6  0  0  0
 13 20  1  0  0  0  0
 14  1  2  0  0  0  0
 14 17  1  0  0  0  0
 16 22  1  0  0  0  0
 16 13  1  0  0  0  0
 17  3  2  0  0  0  0
 18 19  2  0  0  0  0
 20  4  1  0  0  0  0
 21 23  1  0  0  0  0
 22 26  1  6  0  0  0
 22 10  1  0  0  0  0
 23 11  1  6  0  0  0
 23  8  1  0  0  0  0
 24  8  1  0  0  0  0
 24 14  1  1  0  0  0
 26 25  1  0  0  0  0
 27 21  1  0  0  0  0
 27 28  1  0  0  0  0
M  END
>  <MODEL>
3

>  <REMARK>
 VINA RESULT:      -7.0      1.752      2.279
  Name = 
  2 active torsions:
  status: ('A' for Active; 'I' for Inactive)
    1  A    between atoms: C_5  and  N_24
    2  A    between atoms: O_17  and  C_25
                            x       y       z     vdW  Elec       q    Type
                         _______ _______ _______ _____ _____    ______ ____

>  <TORSDO>
F 2

$$$$
=
 OpenBabel11112417363D

 28 31  0  0  1  0  0  0  0  0999 V2000
  191.9130  173.9030  144.8190 C   0  0  0  0  0  0  0  0  0  0  0  0
  189.3350  176.2040  147.5930 O   0  0  0  0  0  0  0  0  0  0  0  0
  193.2730  176.3390  145.0290 C   0  0  0  0  0  3  0  0  0  0  0  0
  191.2500  172.6880  144.6430 O   0  0  0  0  0  0  0  0  0  0  0  0
  189.9030  177.9240  145.9200 O   0  0  0  0  0  0  0  0  0  0  0  0
  188.9060  176.8750  146.3190 S   0  0  0  0  0  0  0  0  0  0  0  0
  186.1860  176.7910  145.9030 C   0  0  1  0  0  3  0  0  0  0  0  0
  188.6380  175.6730  145.0370 C   0  0  1  0  0  3  0  0  0  0  0  0
  190.2750  170.8190  141.5410 C   0  0  0  0  0  1  0  0  0  0  0  0
  189.4420  175.2210  142.7870 C   0  0  2  0  0  3  0  0  0  0  0  0
  186.3590  176.4820  144.3960 C   0  0  0  0  0  2  0  0  0  0  0  0
  187.3020  177.6550  146.5180 C   0  0  0  0  0  2  0  0  0  0  0  0
  190.0670  171.5330  142.8620 C   0  0  2  0  0  3  0  0  0  0  0  0
  191.2130  175.1110  144.6640 C   0  0  0  0  0  0  0  0  0  0  0  0
  184.8410  177.4400  146.1390 C   0  0  0  0  0  1  0  0  0  0  0  0
  189.0760  172.6930  142.6960 C   0  0  0  0  0  2  0  0  0  0  0  0
  191.9070  176.3240  144.7360 C   0  0  0  0  0  3  0  0  0  0  0  0
  193.2820  173.9200  145.1110 C   0  0  0  0  0  3  0  0  0  0  0  0
  193.9580  175.1370  145.2230 C   0  0  0  0  0  3  0  0  0  0  0  0
  191.4190  171.9550  143.4390 C   0  0  0  0  0  2  0  0  0  0  0  0
  188.0380  175.6440  142.7170 N   0  0  0  0  0  0  0  0  0  0  0  0
  189.7000  173.9150  142.0130 C   0  0  1  0  0  3  0  0  0  0  0  0
  187.8280  176.3590  143.9740 C   0  0  2  0  0  3  0  0  0  0  0  0
  189.7720  175.0500  144.2610 C   0  0  1  0  0  3  0  0  0  0  0  0
  190.3890  173.7910  139.9130 C   0  0  0  0  0  1  0  0  0  0  0  0
  189.2530  174.0130  140.6920 O   0  0  0  0  0  0  0  0  0  0  0  0
  187.9470  176.6290  141.6500 C   0  0  0  0  0  2  0  0  0  0  0  0
  188.7620  177.8550  142.0130 C   0  0  0  0  0  1  0  0  0  0  0  0
  1 18  1  0  0  0  0
  3 19  1  0  0  0  0
  4  1  1  0  0  0  0
  5  6  2  0  0  0  0
  6 12  1  0  0  0  0
  6  2  2  0  0  0  0
  7 15  1  6  0  0  0
  7 12  1  0  0  0  0
  8  6  1  1  0  0  0
 10 21  1  1  0  0  0
 10 24  1  0  0  0  0
 11  7  1  0  0  0  0
 13  9  1  6  0  0  0
 13 20  1  0  0  0  0
 14 17  1  0  0  0  0
 14  1  2  0  0  0  0
 16 13  1  0  0  0  0
 17  3  2  0  0  0  0
 18 19  2  0  0  0  0
 20  4  1  0  0  0  0
 21 23  1  0  0  0  0
 22 26  1  6  0  0  0
 22 16  1  0  0  0  0
 22 10  1  0  0  0  0
 23 11  1  1  0  0  0
 23  8  1  0  0  0  0
 24 14  1  6  0  0  0
 24  8  1  0  0  0  0
 25 26  1  0  0  0  0
 27 28  1  0  0  0  0
 27 21  1  0  0  0  0
M  END
>  <MODEL>
4

>  <REMARK>
 VINA RESULT:      -6.9      1.901      5.569
  Name = 
  2 active torsions:
  status: ('A' for Active; 'I' for Inactive)
    1  A    between atoms: C_5  and  N_24
    2  A    between atoms: O_17  and  C_25
                            x       y       z     vdW  Elec       q    Type
                         _______ _______ _______ _____ _____    ______ ____

>  <TORSDO>
F 2

$$$$
=
 OpenBabel11112417363D

 28 31  0  0  1  0  0  0  0  0999 V2000
  191.7510  173.9880  141.5190 C   0  0  0  0  0  0  0  0  0  0  0  0
  187.8170  175.7690  140.5230 O   0  0  0  0  0  0  0  0  0  0  0  0
  190.0200  171.8040  141.7570 C   0  0  0  0  0  3  0  0  0  0  0  0
  192.6490  175.0540  141.4600 O   0  0  0  0  0  0  0  0  0  0  0  0
  187.2280  174.3340  142.4410 O   0  0  0  0  0  0  0  0  0  0  0  0
  187.6390  175.7140  142.0140 S   0  0  0  0  0  0  0  0  0  0  0  0
  187.0210  178.1520  143.1320 C   0  0  1  0  0  3  0  0  0  0  0  0
  189.1120  176.2670  142.8430 C   0  0  1  0  0  3  0  0  0  0  0  0
  195.2230  176.2700  143.9020 C   0  0  0  0  0  1  0  0  0  0  0  0
  190.6890  175.4160  144.4870 C   0  0  2  0  0  3  0  0  0  0  0  0
  187.9660  177.9160  144.3350 C   0  0  0  0  0  2  0  0  0  0  0  0
  186.3830  176.8770  142.5510 C   0  0  0  0  0  2  0  0  0  0  0  0
  193.9990  176.3490  143.0110 C   0  0  2  0  0  3  0  0  0  0  0  0
  190.5640  174.1130  142.2590 C   0  0  0  0  0  0  0  0  0  0  0  0
  185.9420  179.1390  143.5180 C   0  0  0  0  0  1  0  0  0  0  0  0
  192.7650  176.7560  143.8290 C   0  0  0  0  0  2  0  0  0  0  0  0
  189.7200  173.0060  142.4030 C   0  0  0  0  0  3  0  0  0  0  0  0
  192.0500  172.7820  140.8740 C   0  0  0  0  0  3  0  0  0  0  0  0
  191.1800  171.6940  140.9870 C   0  0  0  0  0  3  0  0  0  0  0  0
  193.8290  175.0340  142.2500 C   0  0  0  0  0  2  0  0  0  0  0  0
  189.9120  176.5070  145.0880 N   0  0  0  0  0  0  0  0  0  0  0  0
  192.2060  175.6060  144.6740 C   0  0  1  0  0  3  0  0  0  0  0  0
  188.7130  176.5780  144.2560 C   0  0  2  0  0  3  0  0  0  0  0  0
  190.3260  175.3880  143.0100 C   0  0  1  0  0  3  0  0  0  0  0  0
  193.0490  174.5640  146.4360 C   0  0  0  0  0  1  0  0  0  0  0  0
  192.5300  175.7910  146.0200 O   0  0  0  0  0  0  0  0  0  0  0  0
  189.4880  176.0470  146.4030 C   0  0  0  0  0  2  0  0  0  0  0  0
  189.3150  174.5410  146.3870 C   0  0  0  0  0  1  0  0  0  0  0  0
  1 14  1  0  0  0  0
  2  6  2  0  0  0  0
  3 17  1  0  0  0  0
  4  1  1  0  0  0  0
  4 20  1  0  0  0  0
  6  5  2  0  0  0  0
  6 12  1  0  0  0  0
  7 15  1  1  0  0  0
  7 11  1  0  0  0  0
  8  6  1  1  0  0  0
  8 24  1  0  0  0  0
  8 23  1  0  0  0  0
 10 22  1  0  0  0  0
 10 21  1  1  0  0  0
 12  7  1  0  0  0  0
 13 16  1  0  0  0  0
 13  9  1  1  0  0  0
 14 17  2  0  0  0  0
 16 22  1  0  0  0  0
 18 19  1  0  0  0  0
 18  1  2  0  0  0  0
 19  3  2  0  0  0  0
 20 13  1  0  0  0  0
 21 27  1  0  0  0  0
 22 26  1  1  0  0  0
 23 11  1  6  0  0  0
 23 21  1  0  0  0  0
 24 14  1  1  0  0  0
 24 10  1  0  0  0  0
 26 25  1  0  0  0  0
 28 27  1  0  0  0  0
M  END
>  <MODEL>
5

>  <REMARK>
 VINA RESULT:      -6.6      2.445      6.412
  Name = 
  2 active torsions:
  status: ('A' for Active; 'I' for Inactive)
    1  A    between atoms: C_5  and  N_24
    2  A    between atoms: O_17  and  C_25
                            x       y       z     vdW  Elec       q    Type
                         _______ _______ _______ _____ _____    ______ ____

>  <TORSDO>
F 2

$$$$
=
 OpenBabel11112417363D

 28 31  0  0  1  0  0  0  0  0999 V2000
  191.8640  173.9590  143.2310 C   0  0  0  0  0  0  0  0  0  0  0  0
  188.5450  175.2900  140.6130 O   0  0  0  0  0  0  0  0  0  0  0  0
  190.2050  171.7080  143.1650 C   0  0  0  0  0  3  0  0  0  0  0  0
  192.7020  175.0700  143.3340 O   0  0  0  0  0  0  0  0  0  0  0  0
  187.3150  174.0960  142.3870 O   0  0  0  0  0  0  0  0  0  0  0  0
  187.8310  175.4300  141.9280 S   0  0  0  0  0  0  0  0  0  0  0  0
  186.8020  177.9480  142.3500 C   0  0  1  0  0  3  0  0  0  0  0  0
  188.8840  176.2000  143.1360 C   0  0  1  0  0  3  0  0  0  0  0  0
  194.1730  176.8000  146.3200 C   0  0  0  0  0  1  0  0  0  0  0  0
  189.7580  175.7050  145.3500 C   0  0  2  0  0  3  0  0  0  0  0  0
  187.2410  177.9510  143.8340 C   0  0  0  0  0  2  0  0  0  0  0  0
  186.4450  176.5610  141.7840 C   0  0  0  0  0  2  0  0  0  0  0  0
  193.3620  176.6640  145.0460 C   0  0  2  0  0  3  0  0  0  0  0  0
  190.4860  174.0980  143.4620 C   0  0  0  0  0  0  0  0  0  0  0  0
  185.6400  178.8970  142.1590 C   0  0  0  0  0  1  0  0  0  0  0  0
  191.9070  177.0880  145.2870 C   0  0  0  0  0  2  0  0  0  0  0  0
  189.6680  172.9630  143.4620 C   0  0  0  0  0  3  0  0  0  0  0  0
  192.4000  172.7000  142.9350 C   0  0  0  0  0  3  0  0  0  0  0  0
  191.5700  171.5780  142.8950 C   0  0  0  0  0  3  0  0  0  0  0  0
  193.5080  175.2470  144.4910 C   0  0  0  0  0  2  0  0  0  0  0  0
  188.7950  176.8080  145.4510 N   0  0  0  0  0  0  0  0  0  0  0  0
  191.0960  176.0290  146.0410 C   0  0  1  0  0  3  0  0  0  0  0  0
  187.9870  176.6750  144.2420 C   0  0  2  0  0  3  0  0  0  0  0  0
  189.9660  175.4440  143.8670 C   0  0  1  0  0  3  0  0  0  0  0  0
  191.1940  175.2910  148.1260 C   0  0  0  0  0  1  0  0  0  0  0  0
  190.8970  176.4240  147.3670 O   0  0  0  0  0  0  0  0  0  0  0  0
  187.9250  176.5060  146.5780 C   0  0  0  0  0  2  0  0  0  0  0  0
  187.5090  177.7930  147.2620 C   0  0  0  0  0  1  0  0  0  0  0  0
  1  4  1  0  0  0  0
  1 14  1  0  0  0  0
  2  6  2  0  0  0  0
  3 17  1  0  0  0  0
  4 20  1  0  0  0  0
  6  5  2  0  0  0  0
  7 15  1  1  0  0  0
  7 11  1  0  0  0  0
  8  6  1  6  0  0  0
  8 24  1  0  0  0  0
  8 23  1  0  0  0  0
 10 21  1  6  0  0  0
 10 22  1  0  0  0  0
 12  6  1  0  0  0  0
 12  7  1  0  0  0  0
 13 16  1  0  0  0  0
 13  9  1  1  0  0  0
 16 22  1  0  0  0  0
 17 14  2  0  0  0  0
 18  1  2  0  0  0  0
 19 18  1  0  0  0  0
 19  3  2  0  0  0  0
 20 13  1  0  0  0  0
 21 27  1  0  0  0  0
 22 26  1  1  0  0  0
 23 11  1  6  0  0  0
 23 21  1  0  0  0  0
 24 14  1  1  0  0  0
 24 10  1  0  0  0  0
 26 25  1  0  0  0  0
 27 28  1  0  0  0  0
M  END
>  <MODEL>
6

>  <REMARK>
 VINA RESULT:      -6.5      2.091      6.492
  Name = 
  2 active torsions:
  status: ('A' for Active; 'I' for Inactive)
    1  A    between atoms: C_5  and  N_24
    2  A    between atoms: O_17  and  C_25
                            x       y       z     vdW  Elec       q    Type
                         _______ _______ _______ _____ _____    ______ ____

>  <TORSDO>
F 2

$$$$
=
 OpenBabel11112417363D

 28 31  0  0  1  0  0  0  0  0999 V2000
  190.5930  176.7670  145.5720 C   0  0  0  0  0  0  0  0  0  0  0  0
  194.9370  177.5790  145.2530 O   0  0  0  0  0  0  0  0  0  0  0  0
  191.5660  175.8230  148.0180 C   0  0  0  0  0  3  0  0  0  0  0  0
  190.0630  177.1800  144.3490 O   0  0  0  0  0  0  0  0  0  0  0  0
  194.9380  175.3330  146.2700 O   0  0  0  0  0  0  0  0  0  0  0  0
  194.9900  176.1030  144.9810 S   0  0  0  0  0  0  0  0  0  0  0  0
  196.2370  175.4700  142.6110 C   0  0  1  0  0  3  0  0  0  0  0  0
  193.7000  175.6240  143.8550 C   0  0  1  0  0  3  0  0  0  0  0  0
  187.8160  175.4390  141.9020 C   0  0  0  0  0  1  0  0  0  0  0  0
  191.8340  174.0660  143.8000 C   0  0  2  0  0  3  0  0  0  0  0  0
  195.1860  174.3860  142.2700 C   0  0  0  0  0  2  0  0  0  0  0  0
  196.5000  175.6660  144.1150 C   0  0  0  0  0  2  0  0  0  0  0  0
  189.0640  176.1490  142.3880 C   0  0  2  0  0  3  0  0  0  0  0  0
  191.7100  175.9170  145.5990 C   0  0  0  0  0  0  0  0  0  0  0  0
  197.5350  175.1650  141.8960 C   0  0  0  0  0  1  0  0  0  0  0  0
  190.3060  175.2790  142.1480 C   0  0  0  0  0  2  0  0  0  0  0  0
  192.1690  175.4200  146.8240 C   0  0  0  0  0  3  0  0  0  0  0  0
  189.9890  177.1680  146.7700 C   0  0  0  0  0  3  0  0  0  0  0  0
  190.4810  176.7020  147.9910 C   0  0  0  0  0  3  0  0  0  0  0  0
  188.8820  176.5740  143.8460 C   0  0  0  0  0  2  0  0  0  0  0  0
  192.8610  173.6170  142.8530 N   0  0  0  0  0  0  0  0  0  0  0  0
  190.4350  174.1350  143.1590 C   0  0  1  0  0  3  0  0  0  0  0  0
  194.0790  174.2720  143.3240 C   0  0  2  0  0  3  0  0  0  0  0  0
  192.2690  175.4370  144.2950 C   0  0  1  0  0  3  0  0  0  0  0  0
  189.3160  172.2580  143.5160 C   0  0  0  0  0  1  0  0  0  0  0  0
  190.0930  172.9180  142.5620 O   0  0  0  0  0  0  0  0  0  0  0  0
  193.0380  172.1880  143.0690 C   0  0  0  0  0  2  0  0  0  0  0  0
  193.1730  171.9090  144.5530 C   0  0  0  0  0  1  0  0  0  0  0  0
  1 14  2  0  0  0  0
  1 18  1  0  0  0  0
  4  1  1  0  0  0  0
  6  2  2  0  0  0  0
  6  5  2  0  0  0  0
  7 15  1  6  0  0  0
  7 12  1  0  0  0  0
  8 24  1  0  0  0  0
  8  6  1  1  0  0  0
 10 21  1  6  0  0  0
 10 24  1  0  0  0  0
 11  7  1  0  0  0  0
 12  6  1  0  0  0  0
 13  9  1  1  0  0  0
 13 20  1  0  0  0  0
 14 17  1  0  0  0  0
 16 13  1  0  0  0  0
 16 22  1  0  0  0  0
 17  3  2  0  0  0  0
 18 19  2  0  0  0  0
 19  3  1  0  0  0  0
 20  4  1  0  0  0  0
 21 27  1  0  0  0  0
 21 23  1  0  0  0  0
 22 26  1  6  0  0  0
 22 10  1  0  0  0  0
 23 11  1  6  0  0  0
 23  8  1  0  0  0  0
 24 14  1  1  0  0  0
 26 25  1  0  0  0  0
 27 28  1  0  0  0  0
M  END
>  <MODEL>
7

>  <REMARK>
 VINA RESULT:      -6.5      2.780      3.956
  Name = 
  2 active torsions:
  status: ('A' for Active; 'I' for Inactive)
    1  A    between atoms: C_5  and  N_24
    2  A    between atoms: O_17  and  C_25
                            x       y       z     vdW  Elec       q    Type
                         _______ _______ _______ _____ _____    ______ ____

>  <TORSDO>
F 2

$$$$
=
 OpenBabel11112417363D

 28 31  0  0  1  0  0  0  0  0999 V2000
  188.3900  176.5220  144.5050 C   0  0  0  0  0  0  0  0  0  0  0  0
  187.5150  172.9630  142.0140 O   0  0  0  0  0  0  0  0  0  0  0  0
  188.1770  177.6160  141.9390 C   0  0  0  0  0  3  0  0  0  0  0  0
  188.5520  176.0200  145.7960 O   0  0  0  0  0  0  0  0  0  0  0  0
  189.1360  174.1610  140.5940 O   0  0  0  0  0  0  0  0  0  0  0  0
  188.9650  173.1090  141.6510 S   0  0  0  0  0  0  0  0  0  0  0  0
  190.4420  170.8320  142.1120 C   0  0  1  0  0  3  0  0  0  0  0  0
  189.9450  173.4380  143.0980 C   0  0  1  0  0  3  0  0  0  0  0  0
  191.2850  176.5020  148.3210 C   0  0  0  0  0  1  0  0  0  0  0  0
  191.4990  175.1370  143.8810 C   0  0  2  0  0  3  0  0  0  0  0  0
  191.6330  171.6390  142.6830 C   0  0  0  0  0  2  0  0  0  0  0  0
  189.6270  171.5600  141.0290 C   0  0  0  0  0  2  0  0  0  0  0  0
  190.3610  175.7360  147.3950 C   0  0  2  0  0  3  0  0  0  0  0  0
  189.0820  175.9340  143.4340 C   0  0  0  0  0  0  0  0  0  0  0  0
  190.9340  169.5030  141.5820 C   0  0  0  0  0  1  0  0  0  0  0  0
  191.1740  174.8910  146.4050 C   0  0  0  0  0  2  0  0  0  0  0  0
  188.9990  176.5080  142.1600 C   0  0  0  0  0  3  0  0  0  0  0  0
  187.5690  177.6330  144.2810 C   0  0  0  0  0  3  0  0  0  0  0  0
  187.4570  178.1740  142.9980 C   0  0  0  0  0  3  0  0  0  0  0  0
  189.3840  176.7030  146.7240 C   0  0  0  0  0  2  0  0  0  0  0  0
  192.2350  173.8900  143.6360 N   0  0  0  0  0  0  0  0  0  0  0  0
  191.7880  175.7240  145.2740 C   0  0  1  0  0  3  0  0  0  0  0  0
  191.3700  173.1500  142.7210 C   0  0  2  0  0  3  0  0  0  0  0  0
  190.0230  174.8060  143.7300 C   0  0  1  0  0  3  0  0  0  0  0  0
  193.4460  177.1660  145.0060 C   0  0  0  0  0  1  0  0  0  0  0  0
  193.1610  175.8850  145.4800 O   0  0  0  0  0  0  0  0  0  0  0  0
  193.4330  174.2480  142.8900 C   0  0  0  0  0  2  0  0  0  0  0  0
  193.0670  175.1810  141.7530 C   0  0  0  0  0  1  0  0  0  0  0  0
  1  4  1  0  0  0  0
  3 17  2  0  0  0  0
  3 19  1  0  0  0  0
  4 20  1  0  0  0  0
  5  6  2  0  0  0  0
  6  2  2  0  0  0  0
  7 15  1  6  0  0  0
  7 11  1  0  0  0  0
  8  6  1  6  0  0  0
  8 24  1  0  0  0  0
 10 21  1  1  0  0  0
 10 22  1  0  0  0  0
 12  6  1  0  0  0  0
 12  7  1  0  0  0  0
 13  9  1  6  0  0  0
 14  1  2  0  0  0  0
 16 13  1  0  0  0  0
 17 14  1  0  0  0  0
 18  1  1  0  0  0  0
 19 18  2  0  0  0  0
 20 13  1  0  0  0  0
 22 26  1  1  0  0  0
 22 16  1  0  0  0  0
 23 11  1  1  0  0  0
 23  8  1  0  0  0  0
 23 21  1  0  0  0  0
 24 14  1  6  0  0  0
 24 10  1  0  0  0  0
 25 26  1  0  0  0  0
 27 21  1  0  0  0  0
 28 27  1  0  0  0  0
M  END
>  <MODEL>
8

>  <REMARK>
 VINA RESULT:      -6.4      2.424      5.595
  Name = 
  2 active torsions:
  status: ('A' for Active; 'I' for Inactive)
    1  A    between atoms: C_5  and  N_24
    2  A    between atoms: O_17  and  C_25
                            x       y       z     vdW  Elec       q    Type
                         _______ _______ _______ _____ _____    ______ ____

>  <TORSDO>
F 2

$$$$
=
 OpenBabel11112417363D

 28 31  0  0  1  0  0  0  0  0999 V2000
  196.1190  174.1330  144.8070 C   0  0  0  0  0  0  0  0  0  0  0  0
  193.1690  176.8350  146.7150 O   0  0  0  0  0  0  0  0  0  0  0  0
  195.9400  176.2300  142.9650 C   0  0  0  0  0  3  0  0  0  0  0  0
  196.2100  173.0410  145.6700 O   0  0  0  0  0  0  0  0  0  0  0  0
  192.4370  176.9030  144.3600 O   0  0  0  0  0  0  0  0  0  0  0  0
  192.2520  176.2290  145.6900 S   0  0  0  0  0  0  0  0  0  0  0  0
  189.9950  175.0920  146.7800 C   0  0  1  0  0  3  0  0  0  0  0  0
  192.4890  174.4700  145.5960 C   0  0  1  0  0  3  0  0  0  0  0  0
  195.9490  169.3520  145.0410 C   0  0  0  0  0  1  0  0  0  0  0  0
  193.0510  172.8090  143.9110 C   0  0  2  0  0  3  0  0  0  0  0  0
  190.0730  173.8700  145.8330 C   0  0  0  0  0  2  0  0  0  0  0  0
  190.5370  176.4050  146.1860 C   0  0  0  0  0  2  0  0  0  0  0  0
  195.5920  170.6900  145.6580 C   0  0  2  0  0  3  0  0  0  0  0  0
  194.8590  174.5910  144.3890 C   0  0  0  0  0  0  0  0  0  0  0  0
  188.5690  175.2850  147.2460 C   0  0  0  0  0  1  0  0  0  0  0  0
  194.1170  171.0250  145.4000 C   0  0  0  0  0  2  0  0  0  0  0  0
  194.7780  175.6170  143.4400 C   0  0  0  0  0  3  0  0  0  0  0  0
  197.2820  174.7480  144.3290 C   0  0  0  0  0  3  0  0  0  0  0  0
  197.1910  175.8010  143.4150 C   0  0  0  0  0  3  0  0  0  0  0  0
  196.5640  171.7620  145.1630 C   0  0  0  0  0  2  0  0  0  0  0  0
  191.6530  172.6230  144.3200 N   0  0  0  0  0  0  0  0  0  0  0  0
  193.8560  171.4980  143.9650 C   0  0  1  0  0  3  0  0  0  0  0  0
  191.2840  173.9150  144.8940 C   0  0  2  0  0  3  0  0  0  0  0  0
  193.6440  173.8470  144.8510 C   0  0  1  0  0  3  0  0  0  0  0  0
  193.8960  170.4770  142.0020 C   0  0  0  0  0  1  0  0  0  0  0  0
  193.2300  170.4890  143.2280 O   0  0  0  0  0  0  0  0  0  0  0  0
  190.8740  172.4630  143.1010 C   0  0  0  0  0  2  0  0  0  0  0  0
  191.1600  173.6140  142.1570 C   0  0  0  0  0  1  0  0  0  0  0  0
  1  4  1  0  0  0  0
  3 19  2  0  0  0  0
  3 17  1  0  0  0  0
  5  6  2  0  0  0  0
  6 12  1  0  0  0  0
  6  2  2  0  0  0  0
  7 15  1  6  0  0  0
  8  6  1  6  0  0  0
 10 22  1  0  0  0  0
 10 21  1  1  0  0  0
 10 24  1  0  0  0  0
 11  7  1  0  0  0  0
 12  7  1  0  0  0  0
 13  9  1  6  0  0  0
 14  1  1  0  0  0  0
 16 13  1  0  0  0  0
 17 14  2  0  0  0  0
 18  1  2  0  0  0  0
 19 18  1  0  0  0  0
 20 13  1  0  0  0  0
 20  4  1  0  0  0  0
 21 23  1  0  0  0  0
 22 26  1  6  0  0  0
 22 16  1  0  0  0  0
 23  8  1  0  0  0  0
 23 11  1  1  0  0  0
 24 14  1  6  0  0  0
 24  8  1  0  0  0  0
 25 26  1  0  0  0  0
 27 21  1  0  0  0  0
 28 27  1  0  0  0  0
M  END
>  <MODEL>
9

>  <REMARK>
 VINA RESULT:      -6.1      3.690      7.582
  Name = 
  2 active torsions:
  status: ('A' for Active; 'I' for Inactive)
    1  A    between atoms: C_5  and  N_24
    2  A    between atoms: O_17  and  C_25
                            x       y       z     vdW  Elec       q    Type
                         _______ _______ _______ _____ _____    ______ ____

>  <TORSDO>
F 2

$$$$
