=
 OpenBabel11112417363D

 28 32  0  0  1  0  0  0  0  0999 V2000
  191.7150  176.4210  145.1820 C   0  0  0  0  0  0  0  0  0  0  0  0
  189.8250  174.6010  141.1730 O   0  0  0  0  0  1  0  0  0  0  0  0
  185.4970  177.4050  146.2110 O   0  0  0  0  0  0  0  0  0  0  0  0
  193.1470  176.0950  142.7960 C   0  0  0  0  0  3  0  0  0  0  0  0
  186.7080  178.3950  144.4550 N   0  0  0  0  0  0  0  0  0  0  0  0
  191.0560  176.6290  146.5020 C   0  0  0  0  0  2  0  0  0  0  0  0
  187.7000  174.2290  142.1390 C   0  0  0  0  0  1  0  0  0  0  0  0
  188.6410  175.2550  141.5070 C   0  0  1  0  0  0  0  0  0  0  0  0
  186.9710  176.6500  140.6010 C   0  0  2  0  0  3  0  0  0  0  0  0
  188.9580  176.4110  142.4650 C   0  0  1  0  0  3  0  0  0  0  0  0
  188.5740  174.2770  147.7650 O   0  0  0  0  0  0  0  0  0  0  0  0
  188.7580  177.2240  144.7310 C   0  0  1  0  0  3  0  0  0  0  0  0
  187.3620  177.7580  141.3920 O   0  0  0  0  0  0  0  0  0  0  0  0
  188.0710  175.7880  140.3120 O   0  0  0  0  0  0  0  0  0  0  0  0
  189.0680  175.3470  147.3200 C   0  0  0  0  0  0  0  0  0  0  0  0
  191.0000  176.2540  143.9630 C   0  0  0  0  0  0  0  0  0  0  0  0
  186.5480  177.4820  145.5200 C   0  0  0  0  0  0  0  0  0  0  0  0
  186.3640  177.1460  139.3050 C   0  0  0  0  0  1  0  0  0  0  0  0
  188.1870  176.5350  147.1120 C   0  0  0  0  0  2  0  0  0  0  0  0
  191.7530  176.0800  142.7860 C   0  0  0  0  0  3  0  0  0  0  0  0
  193.1140  176.4330  145.1810 C   0  0  0  0  0  3  0  0  0  0  0  0
  193.8290  176.2720  143.9960 C   0  0  0  0  0  3  0  0  0  0  0  0
  190.4500  175.3940  146.9700 N   0  0  0  0  0  2  0  0  0  0  0  0
  187.9540  178.1250  143.7630 C   0  0  1  0  0  3  0  0  0  0  0  0
  187.7120  176.5800  145.6690 C   0  0  2  0  0  3  0  0  0  0  0  0
  187.6920  177.1820  142.6200 C   0  0  2  0  0  3  0  0  0  0  0  0
  185.6580  179.2610  143.9430 C   0  0  0  0  0  1  0  0  0  0  0  0
  189.4710  176.1460  143.8860 C   0  0  2  0  0  3  0  0  0  0  0  0
  1  6  1  0  0  0  0
  2  8  1  0  0  0  0
  4 22  1  0  0  0  0
  5 17  1  0  0  0  0
  6 23  1  0  0  0  0
  8  7  1  1  0  0  0
  8 10  1  0  0  0  0
  9 18  1  6  0  0  0
  9 13  1  0  0  0  0
 10 26  1  0  0  0  0
 10 28  1  0  0  0  0
 12 25  1  0  0  0  0
 13 26  1  0  0  0  0
 14  9  1  0  0  0  0
 14  8  1  0  0  0  0
 15 11  2  0  0  0  0
 16  1  2  0  0  0  0
 17 25  1  0  0  0  0
 17  3  2  0  0  0  0
 19 15  1  0  0  0  0
 20  4  2  0  0  0  0
 20 16  1  0  0  0  0
 21  1  1  0  0  0  0
 22 21  2  0  0  0  0
 23 15  1  0  0  0  0
 24  5  1  0  0  0  0
 24 12  1  0  0  0  0
 25 19  1  0  0  0  0
 26 24  1  0  0  0  0
 27  5  1  0  0  0  0
 28 16  1  0  0  0  0
 28 12  1  0  0  0  0
M  END
>  <MODEL>
1

>  <REMARK>
 VINA RESULT:      -8.4      0.000      0.000
  Name = 
  0 active torsions:
  status: ('A' for Active; 'I' for Inactive)
                            x       y       z     vdW  Elec       q    Type
                         _______ _______ _______ _____ _____    ______ ____

>  <TORSDO>
F 0

$$$$
=
 OpenBabel11112417363D

 28 32  0  0  1  0  0  0  0  0999 V2000
  189.8250  176.3110  145.5810 C   0  0  0  0  0  0  0  0  0  0  0  0
  189.4990  172.2580  143.0460 O   0  0  0  0  0  1  0  0  0  0  0  0
  184.7910  177.5920  141.8790 O   0  0  0  0  0  0  0  0  0  0  0  0
  191.9530  174.5240  145.2240 C   0  0  0  0  0  3  0  0  0  0  0  0
  186.9600  177.2050  141.0550 N   0  0  0  0  0  0  0  0  0  0  0  0
  188.7630  177.3230  145.8450 C   0  0  0  0  0  2  0  0  0  0  0  0
  187.2150  172.5690  142.5200 C   0  0  0  0  0  1  0  0  0  0  0  0
  188.6560  172.9440  142.1730 C   0  0  1  0  0  0  0  0  0  0  0  0
  188.2980  173.3590  139.8810 C   0  0  2  0  0  3  0  0  0  0  0  0
  188.9070  174.4510  142.3120 C   0  0  1  0  0  3  0  0  0  0  0  0
  185.2900  176.3340  146.3320 O   0  0  0  0  0  0  0  0  0  0  0  0
  188.0020  176.5520  143.0890 C   0  0  1  0  0  3  0  0  0  0  0  0
  188.6670  174.7210  139.9930 O   0  0  0  0  0  0  0  0  0  0  0  0
  188.9720  172.5450  140.8400 O   0  0  0  0  0  0  0  0  0  0  0  0
  186.3050  176.8550  145.8010 C   0  0  0  0  0  0  0  0  0  0  0  0
  189.7640  175.3660  144.5190 C   0  0  0  0  0  0  0  0  0  0  0  0
  185.9790  177.2180  142.0720 C   0  0  0  0  0  0  0  0  0  0  0  0
  188.6160  172.8630  138.4850 C   0  0  0  0  0  1  0  0  0  0  0  0
  186.1650  177.5920  144.5080 C   0  0  0  0  0  2  0  0  0  0  0  0
  190.8460  174.4760  144.3780 C   0  0  0  0  0  3  0  0  0  0  0  0
  190.9400  176.3510  146.4250 C   0  0  0  0  0  3  0  0  0  0  0  0
  192.0010  175.4640  146.2500 C   0  0  0  0  0  3  0  0  0  0  0  0
  187.5840  176.6900  146.4100 N   0  0  0  0  0  2  0  0  0  0  0  0
  188.1670  176.5730  141.5510 C   0  0  1  0  0  3  0  0  0  0  0  0
  186.4820  176.6630  143.3480 C   0  0  2  0  0  3  0  0  0  0  0  0
  188.1300  175.1050  141.2230 C   0  0  2  0  0  3  0  0  0  0  0  0
  186.7030  177.4950  139.6540 C   0  0  0  0  0  1  0  0  0  0  0  0
  188.5460  175.2000  143.6010 C   0  0  2  0  0  3  0  0  0  0  0  0
  1  6  1  0  0  0  0
  1 21  1  0  0  0  0
  3 17  2  0  0  0  0
  4 22  1  0  0  0  0
  5 24  1  0  0  0  0
  5 17  1  0  0  0  0
  6 23  1  0  0  0  0
  8 10  1  0  0  0  0
  8  7  1  1  0  0  0
  8  2  1  0  0  0  0
  9 18  1  6  0  0  0
  9 13  1  0  0  0  0
  9 14  1  0  0  0  0
 10 28  1  0  0  0  0
 12 25  1  0  0  0  0
 12 28  1  0  0  0  0
 13 26  1  0  0  0  0
 14  8  1  0  0  0  0
 15 11  2  0  0  0  0
 15 23  1  0  0  0  0
 16  1  2  0  0  0  0
 17 25  1  0  0  0  0
 19 15  1  0  0  0  0
 20 16  1  0  0  0  0
 20  4  2  0  0  0  0
 22 21  2  0  0  0  0
 24 12  1  0  0  0  0
 25 19  1  0  0  0  0
 26 24  1  0  0  0  0
 26 10  1  0  0  0  0
 27  5  1  0  0  0  0
 28 16  1  0  0  0  0
M  END
>  <MODEL>
2

>  <REMARK>
 VINA RESULT:      -8.1      1.919      3.118
  Name = 
  0 active torsions:
  status: ('A' for Active; 'I' for Inactive)
                            x       y       z     vdW  Elec       q    Type
                         _______ _______ _______ _____ _____    ______ ____

>  <TORSDO>
F 0

$$$$
=
 OpenBabel11112417363D

 28 32  0  0  1  0  0  0  0  0999 V2000
  187.2610  176.4710  146.4700 C   0  0  0  0  0  0  0  0  0  0  0  0
  186.6770  179.0580  142.4780 O   0  0  0  0  0  1  0  0  0  0  0  0
  191.5600  173.7560  142.6190 O   0  0  0  0  0  0  0  0  0  0  0  0
  184.9390  177.9260  145.8850 C   0  0  0  0  0  3  0  0  0  0  0  0
  189.2440  173.7450  142.2120 N   0  0  0  0  0  0  0  0  0  0  0  0
  188.4480  175.6730  146.8880 C   0  0  0  0  0  2  0  0  0  0  0  0
  188.8300  178.5630  141.6380 C   0  0  0  0  0  1  0  0  0  0  0  0
  187.3930  178.0690  141.8060 C   0  0  1  0  0  0  0  0  0  0  0  0
  187.3280  176.7180  139.8760 C   0  0  2  0  0  3  0  0  0  0  0  0
  187.3240  176.7640  142.6100 C   0  0  1  0  0  3  0  0  0  0  0  0
  191.8340  176.7910  146.1380 O   0  0  0  0  0  0  0  0  0  0  0  0
  188.5670  175.1990  143.9670 C   0  0  1  0  0  3  0  0  0  0  0  0
  187.1240  175.5320  140.6220 O   0  0  0  0  0  0  0  0  0  0  0  0
  186.7810  177.8610  140.5340 O   0  0  0  0  0  0  0  0  0  0  0  0
  190.7900  176.0880  146.1100 C   0  0  0  0  0  0  0  0  0  0  0  0
  187.0160  176.8740  145.1260 C   0  0  0  0  0  0  0  0  0  0  0  0
  190.4040  174.1710  142.8970 C   0  0  0  0  0  0  0  0  0  0  0  0
  186.6910  176.5700  138.5090 C   0  0  0  0  0  1  0  0  0  0  0  0
  190.7420  174.8720  145.2440 C   0  0  0  0  0  2  0  0  0  0  0  0
  185.8450  177.6140  144.8720 C   0  0  0  0  0  3  0  0  0  0  0  0
  186.3450  176.7910  147.4780 C   0  0  0  0  0  3  0  0  0  0  0  0
  185.1880  177.5130  147.1900 C   0  0  0  0  0  3  0  0  0  0  0  0
  189.6470  176.4920  146.8620 N   0  0  0  0  0  2  0  0  0  0  0  0
  188.1030  174.5230  142.6550 C   0  0  1  0  0  3  0  0  0  0  0  0
  190.1110  175.2150  143.9040 C   0  0  2  0  0  3  0  0  0  0  0  0
  187.9300  175.7120  141.7470 C   0  0  2  0  0  3  0  0  0  0  0  0
  189.2450  172.8870  141.0390 C   0  0  0  0  0  1  0  0  0  0  0  0
  188.0060  176.6370  143.9780 C   0  0  2  0  0  3  0  0  0  0  0  0
  1  6  1  0  0  0  0
  1 21  1  0  0  0  0
  3 17  2  0  0  0  0
  4 22  1  0  0  0  0
  5 24  1  0  0  0  0
  5 17  1  0  0  0  0
  8  7  1  6  0  0  0
  8  2  1  0  0  0  0
  8 10  1  0  0  0  0
  9 18  1  6  0  0  0
  9 14  1  0  0  0  0
  9 13  1  0  0  0  0
 10 28  1  0  0  0  0
 12 28  1  0  0  0  0
 13 26  1  0  0  0  0
 14  8  1  0  0  0  0
 15 11  2  0  0  0  0
 15 23  1  0  0  0  0
 16  1  2  0  0  0  0
 17 25  1  0  0  0  0
 19 15  1  0  0  0  0
 20 16  1  0  0  0  0
 20  4  2  0  0  0  0
 22 21  2  0  0  0  0
 23  6  1  0  0  0  0
 24 12  1  0  0  0  0
 25 12  1  0  0  0  0
 25 19  1  0  0  0  0
 26 10  1  0  0  0  0
 26 24  1  0  0  0  0
 27  5  1  0  0  0  0
 28 16  1  0  0  0  0
M  END
>  <MODEL>
3

>  <REMARK>
 VINA RESULT:      -7.9      2.089      4.814
  Name = 
  0 active torsions:
  status: ('A' for Active; 'I' for Inactive)
                            x       y       z     vdW  Elec       q    Type
                         _______ _______ _______ _____ _____    ______ ____

>  <TORSDO>
F 0

$$$$
=
 OpenBabel11112417363D

 28 32  0  0  1  0  0  0  0  0999 V2000
  188.6460  173.6700  142.4510 C   0  0  0  0  0  0  0  0  0  0  0  0
  192.4850  175.4530  144.6970 O   0  0  0  0  0  1  0  0  0  0  0  0
  186.2730  179.1120  144.7830 O   0  0  0  0  0  0  0  0  0  0  0  0
  190.8220  172.1140  143.2850 C   0  0  0  0  0  3  0  0  0  0  0  0
  187.0760  177.3520  146.1200 N   0  0  0  0  0  0  0  0  0  0  0  0
  187.4440  174.3980  141.9550 C   0  0  0  0  0  2  0  0  0  0  0  0
  191.7000  177.6820  144.6310 C   0  0  0  0  0  1  0  0  0  0  0  0
  191.6200  176.3320  145.3450 C   0  0  1  0  0  0  0  0  0  0  0  0
  191.0860  177.1730  147.4820 C   0  0  2  0  0  3  0  0  0  0  0  0
  190.2000  175.7520  145.3200 C   0  0  1  0  0  3  0  0  0  0  0  0
  187.7130  177.7580  140.5680 O   0  0  0  0  0  0  0  0  0  0  0  0
  187.9770  175.9800  144.4010 C   0  0  1  0  0  3  0  0  0  0  0  0
  189.8320  176.5170  147.5080 O   0  0  0  0  0  0  0  0  0  0  0  0
  192.0440  176.4570  146.7020 O   0  0  0  0  0  0  0  0  0  0  0  0
  187.3980  176.8280  141.3570 C   0  0  0  0  0  0  0  0  0  0  0  0
  189.5330  174.1920  143.4340 C   0  0  0  0  0  0  0  0  0  0  0  0
  186.8870  178.0170  144.8880 C   0  0  0  0  0  0  0  0  0  0  0  0
  191.6030  177.3300  148.8970 C   0  0  0  0  0  1  0  0  0  0  0  0
  186.6180  177.1410  142.5920 C   0  0  0  0  0  2  0  0  0  0  0  0
  190.6230  173.3870  143.8200 C   0  0  0  0  0  3  0  0  0  0  0  0
  188.8560  172.3920  141.9210 C   0  0  0  0  0  3  0  0  0  0  0  0
  189.9370  171.6160  142.3340 C   0  0  0  0  0  3  0  0  0  0  0  0
  187.8360  175.4970  141.0890 N   0  0  0  0  0  2  0  0  0  0  0  0
  187.9540  176.2130  145.9310 C   0  0  1  0  0  3  0  0  0  0  0  0
  187.5630  177.3280  143.7670 C   0  0  2  0  0  3  0  0  0  0  0  0
  189.3750  176.6320  146.1940 C   0  0  2  0  0  3  0  0  0  0  0  0
  186.7070  177.8940  147.4180 C   0  0  0  0  0  1  0  0  0  0  0  0
  189.4240  175.6110  144.0040 C   0  0  2  0  0  3  0  0  0  0  0  0
  1 16  1  0  0  0  0
  2  8  1  0  0  0  0
  3 17  2  0  0  0  0
  4 20  1  0  0  0  0
  5 27  1  0  0  0  0
  6  1  1  0  0  0  0
  8  7  1  6  0  0  0
  8 14  1  0  0  0  0
  9 13  1  0  0  0  0
  9 18  1  1  0  0  0
 10  8  1  0  0  0  0
 10 26  1  0  0  0  0
 11 15  2  0  0  0  0
 12 24  1  0  0  0  0
 14  9  1  0  0  0  0
 15 19  1  0  0  0  0
 16 20  2  0  0  0  0
 16 28  1  0  0  0  0
 17  5  1  0  0  0  0
 19 25  1  0  0  0  0
 21 22  1  0  0  0  0
 21  1  2  0  0  0  0
 22  4  2  0  0  0  0
 23 15  1  0  0  0  0
 23  6  1  0  0  0  0
 24  5  1  0  0  0  0
 24 26  1  0  0  0  0
 25 12  1  0  0  0  0
 25 17  1  0  0  0  0
 26 13  1  0  0  0  0
 28 12  1  0  0  0  0
 28 10  1  0  0  0  0
M  END
>  <MODEL>
4

>  <REMARK>
 VINA RESULT:      -7.8      2.290      5.303
  Name = 
  0 active torsions:
  status: ('A' for Active; 'I' for Inactive)
                            x       y       z     vdW  Elec       q    Type
                         _______ _______ _______ _____ _____    ______ ____

>  <TORSDO>
F 0

$$$$
=
 OpenBabel11112417363D

 28 32  0  0  1  0  0  0  0  0999 V2000
  187.2880  176.7510  142.9040 C   0  0  0  0  0  0  0  0  0  0  0  0
  189.5700  176.4320  147.1050 O   0  0  0  0  0  1  0  0  0  0  0  0
  192.5070  173.4980  141.2110 O   0  0  0  0  0  0  0  0  0  0  0  0
  186.8270  178.4800  145.0600 C   0  0  0  0  0  3  0  0  0  0  0  0
  192.5470  175.6920  142.0580 N   0  0  0  0  0  0  0  0  0  0  0  0
  187.4430  175.8860  141.7000 C   0  0  0  0  0  2  0  0  0  0  0  0
  190.8360  174.5400  146.4690 C   0  0  0  0  0  1  0  0  0  0  0  0
  190.7070  176.0610  146.3900 C   0  0  1  0  0  0  0  0  0  0  0  0
  193.0080  176.5310  146.1870 C   0  0  2  0  0  3  0  0  0  0  0  0
  190.5730  176.5520  144.9430 C   0  0  1  0  0  3  0  0  0  0  0  0
  188.0790  172.3110  142.0140 O   0  0  0  0  0  0  0  0  0  0  0  0
  190.2510  175.8900  142.6420 C   0  0  1  0  0  3  0  0  0  0  0  0
  192.8520  177.1120  144.9050 O   0  0  0  0  0  0  0  0  0  0  0  0
  191.8380  176.6920  146.9890 O   0  0  0  0  0  0  0  0  0  0  0  0
  188.2730  173.5240  141.7400 C   0  0  0  0  0  0  0  0  0  0  0  0
  188.2590  176.8380  143.9410 C   0  0  0  0  0  0  0  0  0  0  0  0
  191.9140  174.4650  141.7590 C   0  0  0  0  0  0  0  0  0  0  0  0
  194.1910  177.1660  146.8880 C   0  0  0  0  0  1  0  0  0  0  0  0
  189.5760  173.9480  141.1450 C   0  0  0  0  0  2  0  0  0  0  0  0
  187.9870  177.7090  145.0140 C   0  0  0  0  0  3  0  0  0  0  0  0
  186.1260  177.5280  142.9600 C   0  0  0  0  0  3  0  0  0  0  0  0
  185.8950  178.3900  144.0300 C   0  0  0  0  0  3  0  0  0  0  0  0
  187.2670  174.4870  142.0520 N   0  0  0  0  0  2  0  0  0  0  0  0
  191.6480  176.5300  142.8270 C   0  0  1  0  0  3  0  0  0  0  0  0
  190.5160  174.4210  142.2410 C   0  0  2  0  0  3  0  0  0  0  0  0
  191.8910  176.3040  144.2950 C   0  0  2  0  0  3  0  0  0  0  0  0
  193.9680  175.9520  141.8920 C   0  0  0  0  0  1  0  0  0  0  0  0
  189.5170  175.9630  143.9990 C   0  0  2  0  0  3  0  0  0  0  0  0
  1 21  2  0  0  0  0
  1 16  1  0  0  0  0
  3 17  2  0  0  0  0
  5 24  1  0  0  0  0
  6 23  1  0  0  0  0
  6  1  1  0  0  0  0
  8  7  1  1  0  0  0
  8 14  1  0  0  0  0
  8  2  1  0  0  0  0
  9 18  1  1  0  0  0
  9 14  1  0  0  0  0
 10  8  1  0  0  0  0
 12 24  1  0  0  0  0
 12 28  1  0  0  0  0
 13  9  1  0  0  0  0
 15 11  2  0  0  0  0
 15 23  1  0  0  0  0
 16 28  1  0  0  0  0
 16 20  2  0  0  0  0
 17  5  1  0  0  0  0
 17 25  1  0  0  0  0
 19 15  1  0  0  0  0
 19 25  1  0  0  0  0
 20  4  1  0  0  0  0
 21 22  1  0  0  0  0
 22  4  2  0  0  0  0
 24 26  1  0  0  0  0
 25 12  1  0  0  0  0
 26 13  1  0  0  0  0
 26 10  1  0  0  0  0
 27  5  1  0  0  0  0
 28 10  1  0  0  0  0
M  END
>  <MODEL>
5

>  <REMARK>
 VINA RESULT:      -7.7      2.459      6.418
  Name = 
  0 active torsions:
  status: ('A' for Active; 'I' for Inactive)
                            x       y       z     vdW  Elec       q    Type
                         _______ _______ _______ _____ _____    ______ ____

>  <TORSDO>
F 0

$$$$
=
 OpenBabel11112417363D

 28 32  0  0  1  0  0  0  0  0999 V2000
  187.2020  177.3730  142.3610 C   0  0  0  0  0  0  0  0  0  0  0  0
  187.5960  176.7360  147.0940 O   0  0  0  0  0  1  0  0  0  0  0  0
  192.5400  173.8960  142.6820 O   0  0  0  0  0  0  0  0  0  0  0  0
  185.9790  179.0300  144.2610 C   0  0  0  0  0  3  0  0  0  0  0  0
  192.3170  176.0450  143.6120 N   0  0  0  0  0  0  0  0  0  0  0  0
  187.7950  176.5540  141.2660 C   0  0  0  0  0  2  0  0  0  0  0  0
  188.9410  174.8030  146.8940 C   0  0  0  0  0  1  0  0  0  0  0  0
  188.9100  176.3310  146.8680 C   0  0  1  0  0  0  0  0  0  0  0  0
  191.1150  176.6730  147.6280 C   0  0  2  0  0  3  0  0  0  0  0  0
  189.3850  176.8920  145.5210 C   0  0  1  0  0  3  0  0  0  0  0  0
  188.1210  172.9380  141.5780 O   0  0  0  0  0  0  0  0  0  0  0  0
  189.9880  176.3520  143.2450 C   0  0  1  0  0  3  0  0  0  0  0  0
  191.5070  177.3180  146.4300 O   0  0  0  0  0  0  0  0  0  0  0  0
  189.7290  176.8680  147.9070 O   0  0  0  0  0  0  0  0  0  0  0  0
  188.4520  174.1480  141.4820 C   0  0  0  0  0  0  0  0  0  0  0  0
  187.6790  177.3580  143.7020 C   0  0  0  0  0  0  0  0  0  0  0  0
  191.8120  174.8710  143.0090 C   0  0  0  0  0  0  0  0  0  0  0  0
  191.9410  177.2060  148.7810 C   0  0  0  0  0  1  0  0  0  0  0  0
  189.8990  174.5200  141.4820 C   0  0  0  0  0  2  0  0  0  0  0  0
  187.0320  178.1950  144.6320 C   0  0  0  0  0  3  0  0  0  0  0  0
  186.1440  178.2150  141.9990 C   0  0  0  0  0  3  0  0  0  0  0  0
  185.5350  179.0410  142.9420 C   0  0  0  0  0  3  0  0  0  0  0  0
  187.4410  175.1540  141.4280 N   0  0  0  0  0  2  0  0  0  0  0  0
  191.2160  176.9000  144.0110 C   0  0  1  0  0  3  0  0  0  0  0  0
  190.3380  174.8880  142.8900 C   0  0  2  0  0  3  0  0  0  0  0  0
  190.8430  176.5960  145.4380 C   0  0  2  0  0  3  0  0  0  0  0  0
  193.6940  176.2270  144.0420 C   0  0  0  0  0  1  0  0  0  0  0  0
  188.7760  176.4080  144.2000 C   0  0  2  0  0  3  0  0  0  0  0  0
  1 16  1  0  0  0  0
  3 17  2  0  0  0  0
  4 20  1  0  0  0  0
  5 24  1  0  0  0  0
  5 27  1  0  0  0  0
  6 23  1  0  0  0  0
  6  1  1  0  0  0  0
  8  7  1  6  0  0  0
  8  2  1  0  0  0  0
  8 14  1  0  0  0  0
  9 14  1  0  0  0  0
  9 18  1  1  0  0  0
 10  8  1  0  0  0  0
 12 24  1  0  0  0  0
 12 28  1  0  0  0  0
 13  9  1  0  0  0  0
 15 19  1  0  0  0  0
 15 11  2  0  0  0  0
 16 28  1  0  0  0  0
 16 20  2  0  0  0  0
 17  5  1  0  0  0  0
 19 25  1  0  0  0  0
 21  1  2  0  0  0  0
 21 22  1  0  0  0  0
 22  4  2  0  0  0  0
 23 15  1  0  0  0  0
 24 26  1  0  0  0  0
 25 17  1  0  0  0  0
 25 12  1  0  0  0  0
 26 10  1  0  0  0  0
 26 13  1  0  0  0  0
 28 10  1  0  0  0  0
M  END
>  <MODEL>
6

>  <REMARK>
 VINA RESULT:      -7.7      2.028      6.398
  Name = 
  0 active torsions:
  status: ('A' for Active; 'I' for Inactive)
                            x       y       z     vdW  Elec       q    Type
                         _______ _______ _______ _____ _____    ______ ____

>  <TORSDO>
F 0

$$$$
=
 OpenBabel11112417363D

 28 32  0  0  1  0  0  0  0  0999 V2000
  192.1130  176.1060  144.9540 C   0  0  0  0  0  0  0  0  0  0  0  0
  191.2500  172.4090  142.0290 O   0  0  0  0  0  1  0  0  0  0  0  0
  185.7880  176.5490  144.2650 O   0  0  0  0  0  0  0  0  0  0  0  0
  194.0570  174.9370  143.3090 C   0  0  0  0  0  3  0  0  0  0  0  0
  187.3200  176.7920  142.4960 N   0  0  0  0  0  0  0  0  0  0  0  0
  191.1670  176.7950  145.8750 C   0  0  0  0  0  2  0  0  0  0  0  0
  188.9810  172.2180  142.6610 C   0  0  0  0  0  1  0  0  0  0  0  0
  189.9950  172.9670  141.7950 C   0  0  1  0  0  0  0  0  0  0  0  0
  188.5140  173.5410  140.0540 C   0  0  2  0  0  3  0  0  0  0  0  0
  190.0400  174.4640  142.1270 C   0  0  1  0  0  3  0  0  0  0  0  0
  188.5670  174.9490  147.6390 O   0  0  0  0  0  0  0  0  0  0  0  0
  189.3030  176.1830  143.6560 C   0  0  1  0  0  3  0  0  0  0  0  0
  188.6710  174.9300  140.2780 O   0  0  0  0  0  0  0  0  0  0  0  0
  189.6860  172.8090  140.4110 O   0  0  0  0  0  0  0  0  0  0  0  0
  189.1020  175.7570  146.8350 C   0  0  0  0  0  0  0  0  0  0  0  0
  191.6980  175.3010  143.8560 C   0  0  0  0  0  0  0  0  0  0  0  0
  186.9630  176.4530  143.8210 C   0  0  0  0  0  0  0  0  0  0  0  0
  188.1930  173.2990  138.5930 C   0  0  0  0  0  1  0  0  0  0  0  0
  188.2410  176.5800  145.9330 C   0  0  0  0  0  2  0  0  0  0  0  0
  192.7030  174.7200  143.0580 C   0  0  0  0  0  3  0  0  0  0  0  0
  193.4750  176.3160  145.1960 C   0  0  0  0  0  3  0  0  0  0  0  0
  194.4440  175.7370  144.3790 C   0  0  0  0  0  3  0  0  0  0  0  0
  190.5240  175.8360  146.7570 N   0  0  0  0  0  2  0  0  0  0  0  0
  188.6990  176.4180  142.2510 C   0  0  1  0  0  3  0  0  0  0  0  0
  188.1000  175.8940  144.5840 C   0  0  2  0  0  3  0  0  0  0  0  0
  188.7410  175.0310  141.6680 C   0  0  2  0  0  3  0  0  0  0  0  0
  186.3760  177.1700  141.4570 C   0  0  0  0  0  1  0  0  0  0  0  0
  190.2320  174.9520  143.5680 C   0  0  2  0  0  3  0  0  0  0  0  0
  1 21  1  0  0  0  0
  1  6  1  0  0  0  0
  4 22  1  0  0  0  0
  5 17  1  0  0  0  0
  6 23  1  0  0  0  0
  8  2  1  0  0  0  0
  8 10  1  0  0  0  0
  8  7  1  1  0  0  0
  9 18  1  6  0  0  0
  9 13  1  0  0  0  0
  9 14  1  0  0  0  0
 10 28  1  0  0  0  0
 12 25  1  0  0  0  0
 13 26  1  0  0  0  0
 14  8  1  0  0  0  0
 15 11  2  0  0  0  0
 16  1  2  0  0  0  0
 17  3  2  0  0  0  0
 17 25  1  0  0  0  0
 19 15  1  0  0  0  0
 20  4  2  0  0  0  0
 20 16  1  0  0  0  0
 22 21  2  0  0  0  0
 23 15  1  0  0  0  0
 24  5  1  0  0  0  0
 24 12  1  0  0  0  0
 25 19  1  0  0  0  0
 26 10  1  0  0  0  0
 26 24  1  0  0  0  0
 27  5  1  0  0  0  0
 28 12  1  0  0  0  0
 28 16  1  0  0  0  0
M  END
>  <MODEL>
7

>  <REMARK>
 VINA RESULT:      -7.5      1.630      2.200
  Name = 
  0 active torsions:
  status: ('A' for Active; 'I' for Inactive)
                            x       y       z     vdW  Elec       q    Type
                         _______ _______ _______ _____ _____    ______ ____

>  <TORSDO>
F 0

$$$$
=
 OpenBabel11112417363D

 28 32  0  0  1  0  0  0  0  0999 V2000
  193.6420  175.9570  144.4480 C   0  0  0  0  0  0  0  0  0  0  0  0
  191.9600  172.0500  142.2400 O   0  0  0  0  0  1  0  0  0  0  0  0
  187.3600  176.7180  145.2440 O   0  0  0  0  0  0  0  0  0  0  0  0
  195.0830  174.5140  142.5260 C   0  0  0  0  0  3  0  0  0  0  0  0
  188.4220  176.6920  143.1460 N   0  0  0  0  0  0  0  0  0  0  0  0
  192.9740  176.7910  145.4860 C   0  0  0  0  0  2  0  0  0  0  0  0
  189.9080  172.0620  143.4120 C   0  0  0  0  0  1  0  0  0  0  0  0
  190.7060  172.6590  142.2530 C   0  0  1  0  0  0  0  0  0  0  0  0
  188.8670  173.1480  140.8630 C   0  0  2  0  0  3  0  0  0  0  0  0
  190.8840  174.1750  142.3970 C   0  0  1  0  0  3  0  0  0  0  0  0
  190.8180  175.2910  148.0130 O   0  0  0  0  0  0  0  0  0  0  0  0
  190.6050  176.0780  143.8590 C   0  0  1  0  0  3  0  0  0  0  0  0
  189.1230  174.5400  140.8880 O   0  0  0  0  0  0  0  0  0  0  0  0
  190.0640  172.3850  141.0080 O   0  0  0  0  0  0  0  0  0  0  0  0
  191.1700  175.9810  147.0200 C   0  0  0  0  0  0  0  0  0  0  0  0
  192.9430  175.0750  143.5760 C   0  0  0  0  0  0  0  0  0  0  0  0
  188.3870  176.5060  144.5460 C   0  0  0  0  0  0  0  0  0  0  0  0
  188.1910  172.7840  139.5570 C   0  0  0  0  0  1  0  0  0  0  0  0
  190.1450  176.7630  146.2650 C   0  0  0  0  0  2  0  0  0  0  0  0
  193.7020  174.3570  142.6310 C   0  0  0  0  0  3  0  0  0  0  0  0
  195.0290  176.1060  144.3340 C   0  0  0  0  0  3  0  0  0  0  0  0
  195.7480  175.3910  143.3780 C   0  0  0  0  0  3  0  0  0  0  0  0
  192.5320  175.9640  146.5970 N   0  0  0  0  0  2  0  0  0  0  0  0
  189.6850  176.2110  142.6210 C   0  0  1  0  0  3  0  0  0  0  0  0
  189.6550  175.9570  145.0730 C   0  0  2  0  0  3  0  0  0  0  0  0
  189.5340  174.7730  142.2020 C   0  0  2  0  0  3  0  0  0  0  0  0
  187.2670  177.0220  142.3260 C   0  0  0  0  0  1  0  0  0  0  0  0
  191.4400  174.7900  143.6880 C   0  0  2  0  0  3  0  0  0  0  0  0
  1  6  1  0  0  0  0
  2  8  1  0  0  0  0
  4 20  2  0  0  0  0
  4 22  1  0  0  0  0
  5 17  1  0  0  0  0
  6 23  1  0  0  0  0
  8 10  1  0  0  0  0
  8  7  1  1  0  0  0
  9 18  1  6  0  0  0
  9 13  1  0  0  0  0
  9 14  1  0  0  0  0
 10 28  1  0  0  0  0
 12 25  1  0  0  0  0
 13 26  1  0  0  0  0
 14  8  1  0  0  0  0
 15 11  2  0  0  0  0
 16 28  1  0  0  0  0
 16  1  2  0  0  0  0
 17 25  1  0  0  0  0
 17  3  2  0  0  0  0
 19 15  1  0  0  0  0
 20 16  1  0  0  0  0
 21  1  1  0  0  0  0
 22 21  2  0  0  0  0
 23 15  1  0  0  0  0
 24  5  1  0  0  0  0
 24 12  1  0  0  0  0
 25 19  1  0  0  0  0
 26 10  1  0  0  0  0
 26 24  1  0  0  0  0
 27  5  1  0  0  0  0
 28 12  1  0  0  0  0
M  END
>  <MODEL>
8

>  <REMARK>
 VINA RESULT:      -7.0      1.970      2.867
  Name = 
  0 active torsions:
  status: ('A' for Active; 'I' for Inactive)
                            x       y       z     vdW  Elec       q    Type
                         _______ _______ _______ _____ _____    ______ ____

>  <TORSDO>
F 0

$$$$
=
 OpenBabel11112417363D

 28 32  0  0  1  0  0  0  0  0999 V2000
  192.0060  175.3520  146.3760 C   0  0  0  0  0  0  0  0  0  0  0  0
  190.5440  172.5170  142.8010 O   0  0  0  0  0  1  0  0  0  0  0  0
  197.4830  172.5110  144.7580 O   0  0  0  0  0  0  0  0  0  0  0  0
  189.3480  174.5410  146.0220 C   0  0  0  0  0  3  0  0  0  0  0  0
  195.6120  171.3650  145.6060 N   0  0  0  0  0  0  0  0  0  0  0  0
  193.3820  175.8530  146.6540 C   0  0  0  0  0  2  0  0  0  0  0  0
  192.6940  172.3400  141.8330 C   0  0  0  0  0  1  0  0  0  0  0  0
  191.7540  171.8360  142.9280 C   0  0  1  0  0  0  0  0  0  0  0  0
  192.6520  169.6630  143.0950 C   0  0  2  0  0  3  0  0  0  0  0  0
  192.3230  172.0800  144.3310 C   0  0  1  0  0  3  0  0  0  0  0  0
  195.6610  176.7160  143.9450 O   0  0  0  0  0  0  0  0  0  0  0  0
  194.0620  173.1670  145.6090 C   0  0  1  0  0  3  0  0  0  0  0  0
  193.0500  169.8510  144.4410 O   0  0  0  0  0  0  0  0  0  0  0  0
  191.5000  170.4400  142.7680 O   0  0  0  0  0  0  0  0  0  0  0  0
  195.1830  176.1020  144.9340 C   0  0  0  0  0  0  0  0  0  0  0  0
  191.7310  174.2240  145.5530 C   0  0  0  0  0  0  0  0  0  0  0  0
  196.2660  172.5030  145.0820 C   0  0  0  0  0  0  0  0  0  0  0  0
  192.3560  168.1970  142.8570 C   0  0  0  0  0  1  0  0  0  0  0  0
  195.9050  174.9160  145.4850 C   0  0  0  0  0  2  0  0  0  0  0  0
  190.3820  173.8530  145.3880 C   0  0  0  0  0  3  0  0  0  0  0  0
  190.9610  176.0350  147.0070 C   0  0  0  0  0  3  0  0  0  0  0  0
  189.6380  175.6330  146.8330 C   0  0  0  0  0  3  0  0  0  0  0  0
  193.9310  176.5120  145.4820 N   0  0  0  0  0  2  0  0  0  0  0  0
  194.1910  171.6290  145.7230 C   0  0  1  0  0  3  0  0  0  0  0  0
  195.3410  173.6400  144.8810 C   0  0  2  0  0  3  0  0  0  0  0  0
  193.4970  171.1730  144.4680 C   0  0  2  0  0  3  0  0  0  0  0  0
  196.2130  170.0460  145.7190 C   0  0  0  0  0  1  0  0  0  0  0  0
  192.8070  173.4710  144.7610 C   0  0  2  0  0  3  0  0  0  0  0  0
  1  6  1  0  0  0  0
  1 21  1  0  0  0  0
  2  8  1  0  0  0  0
  3 17  2  0  0  0  0
  4 22  1  0  0  0  0
  5 27  1  0  0  0  0
  5 24  1  0  0  0  0
  8  7  1  6  0  0  0
  8 10  1  0  0  0  0
  9 18  1  1  0  0  0
  9 13  1  0  0  0  0
 10 26  1  0  0  0  0
 10 28  1  0  0  0  0
 11 15  2  0  0  0  0
 12 24  1  0  0  0  0
 13 26  1  0  0  0  0
 14  8  1  0  0  0  0
 14  9  1  0  0  0  0
 15 23  1  0  0  0  0
 15 19  1  0  0  0  0
 16  1  2  0  0  0  0
 17  5  1  0  0  0  0
 20 16  1  0  0  0  0
 20  4  2  0  0  0  0
 22 21  2  0  0  0  0
 23  6  1  0  0  0  0
 25 17  1  0  0  0  0
 25 19  1  0  0  0  0
 25 12  1  0  0  0  0
 26 24  1  0  0  0  0
 28 16  1  0  0  0  0
 28 12  1  0  0  0  0
M  END
>  <MODEL>
9

>  <REMARK>
 VINA RESULT:      -7.0      4.596      7.686
  Name = 
  0 active torsions:
  status: ('A' for Active; 'I' for Inactive)
                            x       y       z     vdW  Elec       q    Type
                         _______ _______ _______ _____ _____    ______ ____

>  <TORSDO>
F 0

$$$$
