=
 OpenBabel11112417113D

 37 43  0  0  1  0  0  0  0  0999 V2000
  193.0310  175.2260  144.2870 O   0  0  0  0  0  0  0  0  0  0  0  0
  191.6040  171.0330  141.8200 C   0  0  0  0  0  0  0  0  0  0  0  0
  189.7970  174.8080  142.6610 C   0  0  1  0  0  3  0  0  0  0  0  0
  194.4200  175.0210  144.3800 C   0  0  2  0  0  3  0  0  0  0  0  0
  190.4830  176.5050  145.9850 O   0  0  0  0  0  0  0  0  0  0  0  0
  189.8300  172.7450  141.1220 C   0  0  1  0  0  3  0  0  0  0  0  0
  190.0070  174.9750  144.1720 C   0  0  2  0  0  3  0  0  0  0  0  0
  194.1250  176.4240  146.4980 C   0  0  0  0  0  0  0  0  0  0  0  0
  189.9300  173.3230  142.5350 C   0  0  1  0  0  3  0  0  0  0  0  0
  190.3660  176.4130  144.5930 C   0  0  1  0  0  3  0  0  0  0  0  0
  189.3670  173.8050  140.1210 C   0  0  0  0  0  2  0  0  0  0  0  0
  194.9990  175.4530  145.7450 C   0  0  0  0  0  2  0  0  0  0  0  0
  191.2280  173.0930  143.2220 C   0  0  2  0  0  3  0  0  0  0  0  0
  193.0510  170.6860  141.5330 C   0  0  0  0  0  1  0  0  0  0  0  0
  188.3220  176.7760  141.8660 C   0  0  0  0  0  2  0  0  0  0  0  0
  188.1660  174.5790  140.7030 C   0  0  0  0  0  2  0  0  0  0  0  0
  191.5160  171.6020  143.2610 C   0  0  0  0  0  2  0  0  0  0  0  0
  192.6970  176.0870  146.8670 C   0  0  1  0  0  3  0  0  0  0  0  0
  191.7420  177.0760  146.1940 C   0  0  0  0  0  2  0  0  0  0  0  0
  188.4550  175.2620  142.0650 C   0  0  1  0  0  3  0  0  0  0  0  0
  191.0360  173.8410  144.5320 C   0  0  1  0  0  3  0  0  0  0  0  0
  191.1110  172.0040  140.7130 C   0  0  0  0  0  2  0  0  0  0  0  0
  189.3760  177.4810  144.1020 C   0  0  1  0  0  3  0  0  0  0  0  0
  190.7900  169.7550  141.7590 C   0  0  0  0  0  1  0  0  0  0  0  0
  192.3390  174.6200  146.5690 C   0  0  0  0  0  2  0  0  0  0  0  0
  194.5950  177.4960  146.8410 O   0  0  0  0  0  0  0  0  0  0  0  0
  192.4130  174.2400  145.0800 C   0  0  2  0  0  3  0  0  0  0  0  0
  189.3490  177.6540  142.5840 C   0  0  0  0  0  2  0  0  0  0  0  0
  186.9830  178.2080  144.1680 C   0  0  0  0  0  3  0  0  0  0  0  0
  188.0340  177.5190  144.7830 C   0  0  0  0  0  0  0  0  0  0  0  0
  187.8100  176.8660  146.0040 C   0  0  0  0  0  3  0  0  0  0  0  0
  186.3420  176.2760  147.7850 F   0  0  0  0  0  0  0  0  0  0  0  0
  185.5050  177.6010  145.9890 C   0  0  0  0  0  3  0  0  0  0  0  0
  186.5500  176.9080  146.6060 C   0  0  0  0  0  0  0  0  0  0  0  0
  185.7210  178.2500  144.7700 C   0  0  0  0  0  3  0  0  0  0  0  0
  194.1420  176.0150  142.1110 C   0  0  0  0  0  1  0  0  0  0  0  0
  195.1060  175.7780  143.2570 C   0  0  0  0  0  2  0  0  0  0  0  0
  1  4  1  0  0  0  0
  1 27  1  0  0  0  0
  2 17  1  0  0  0  0
  3  7  1  0  0  0  0
  4 12  1  0  0  0  0
  5 19  1  0  0  0  0
  6  9  1  0  0  0  0
  7 21  1  0  0  0  0
  7 10  1  0  0  0  0
  8 26  2  0  0  0  0
  8 18  1  0  0  0  0
  9  3  1  0  0  0  0
  9 13  1  0  0  0  0
 10  5  1  0  0  0  0
 11 16  1  0  0  0  0
 11  6  1  0  0  0  0
 12  8  1  0  0  0  0
 13 17  1  0  0  0  0
 13 21  1  0  0  0  0
 14  2  1  0  0  0  0
 15 20  1  0  0  0  0
 15 28  1  0  0  0  0
 16 20  1  0  0  0  0
 19 18  1  0  0  0  0
 20  3  1  0  0  0  0
 21 27  1  0  0  0  0
 22  6  1  0  0  0  0
 22  2  1  0  0  0  0
 23 10  1  0  0  0  0
 23 30  1  0  0  0  0
 24  2  1  0  0  0  0
 25 18  1  0  0  0  0
 27 25  1  0  0  0  0
 28 23  1  0  0  0  0
 29 35  2  0  0  0  0
 29 30  1  0  0  0  0
 30 31  2  0  0  0  0
 31 34  1  0  0  0  0
 33 34  2  0  0  0  0
 34 32  1  0  0  0  0
 35 33  1  0  0  0  0
 36 37  1  0  0  0  0
 37  4  1  0  0  0  0
M  END
>  <MODEL>
1

>  <REMARK>
 VINA RESULT:      -9.8      0.000      0.000
  Name = 
  2 active torsions:
  status: ('A' for Active; 'I' for Inactive)
    1  A    between atoms: C_4  and  C_37
    2  A    between atoms: C_23  and  C_30
                            x       y       z     vdW  Elec       q    Type
                         _______ _______ _______ _____ _____    ______ ____

>  <TORSDO>
F 2

$$$$
=
 OpenBabel11112417113D

 37 43  0  0  1  0  0  0  0  0999 V2000
  193.6130  174.8580  143.2520 O   0  0  0  0  0  0  0  0  0  0  0  0
  191.9750  170.2880  141.7920 C   0  0  0  0  0  0  0  0  0  0  0  0
  190.1150  174.0340  142.6490 C   0  0  1  0  0  3  0  0  0  0  0  0
  194.9890  174.7480  142.9800 C   0  0  2  0  0  3  0  0  0  0  0  0
  191.5040  176.2130  145.4260 O   0  0  0  0  0  0  0  0  0  0  0  0
  189.9270  171.7820  141.4160 C   0  0  1  0  0  3  0  0  0  0  0  0
  190.7050  174.4210  144.0110 C   0  0  2  0  0  3  0  0  0  0  0  0
  195.1410  176.4120  144.9150 C   0  0  0  0  0  0  0  0  0  0  0  0
  190.3470  172.5560  142.6670 C   0  0  1  0  0  3  0  0  0  0  0  0
  191.0280  175.9220  144.1430 C   0  0  1  0  0  3  0  0  0  0  0  0
  189.1160  172.6640  140.4640 C   0  0  0  0  0  2  0  0  0  0  0  0
  195.8690  175.3980  144.0700 C   0  0  0  0  0  2  0  0  0  0  0  0
  191.7970  172.4980  142.9890 C   0  0  2  0  0  3  0  0  0  0  0  0
  193.3170  169.9870  141.1570 C   0  0  0  0  0  1  0  0  0  0  0  0
  188.3060  175.7860  142.0670 C   0  0  0  0  0  2  0  0  0  0  0  0
  188.0490  173.4430  141.2610 C   0  0  0  0  0  2  0  0  0  0  0  0
  192.2220  171.0460  143.1230 C   0  0  0  0  0  2  0  0  0  0  0  0
  193.9030  176.0500  145.7030 C   0  0  1  0  0  3  0  0  0  0  0  0
  192.7150  176.8790  145.2100 C   0  0  0  0  0  2  0  0  0  0  0  0
  188.6270  174.3240  142.3980 C   0  0  1  0  0  3  0  0  0  0  0  0
  191.8940  173.4090  144.2030 C   0  0  1  0  0  3  0  0  0  0  0  0
  191.1150  171.0660  140.7580 C   0  0  0  0  0  2  0  0  0  0  0  0
  189.8480  176.8530  143.8230 C   0  0  1  0  0  3  0  0  0  0  0  0
  191.2960  168.9700  142.1100 C   0  0  0  0  0  1  0  0  0  0  0  0
  193.6160  174.5370  145.6910 C   0  0  0  0  0  2  0  0  0  0  0  0
  195.5850  177.5470  144.9850 O   0  0  0  0  0  0  0  0  0  0  0  0
  193.3240  173.9580  144.2960 C   0  0  2  0  0  3  0  0  0  0  0  0
  189.4000  176.8120  142.3620 C   0  0  0  0  0  2  0  0  0  0  0  0
  187.7110  177.8420  144.6690 C   0  0  0  0  0  3  0  0  0  0  0  0
  188.7400  176.9090  144.8400 C   0  0  0  0  0  0  0  0  0  0  0  0
  188.7060  176.0380  145.9390 C   0  0  0  0  0  3  0  0  0  0  0  0
  187.6300  175.2620  147.9180 F   0  0  0  0  0  0  0  0  0  0  0  0
  186.6340  177.0420  146.6850 C   0  0  0  0  0  3  0  0  0  0  0  0
  187.6560  176.1050  146.8590 C   0  0  0  0  0  0  0  0  0  0  0  0
  186.6610  177.9090  145.5900 C   0  0  0  0  0  3  0  0  0  0  0  0
  194.1040  175.1760  140.6900 C   0  0  0  0  0  1  0  0  0  0  0  0
  195.2760  175.3790  141.6290 C   0  0  0  0  0  2  0  0  0  0  0  0
  1 27  1  0  0  0  0
  2 24  1  0  0  0  0
  2 17  1  0  0  0  0
  3  9  1  0  0  0  0
  3  7  1  0  0  0  0
  4  1  1  0  0  0  0
  4 12  1  0  0  0  0
  6  9  1  0  0  0  0
  7 10  1  0  0  0  0
  7 21  1  0  0  0  0
  8 26  2  0  0  0  0
  8 18  1  0  0  0  0
  9 13  1  0  0  0  0
 10  5  1  0  0  0  0
 11 16  1  0  0  0  0
 11  6  1  0  0  0  0
 12  8  1  0  0  0  0
 13 17  1  0  0  0  0
 13 21  1  0  0  0  0
 14  2  1  0  0  0  0
 15 28  1  0  0  0  0
 15 20  1  0  0  0  0
 16 20  1  0  0  0  0
 19  5  1  0  0  0  0
 19 18  1  0  0  0  0
 20  3  1  0  0  0  0
 21 27  1  0  0  0  0
 22  6  1  0  0  0  0
 22  2  1  0  0  0  0
 23 10  1  0  0  0  0
 23 30  1  0  0  0  0
 25 18  1  0  0  0  0
 27 25  1  0  0  0  0
 28 23  1  0  0  0  0
 29 30  2  0  0  0  0
 29 35  1  0  0  0  0
 30 31  1  0  0  0  0
 31 34  2  0  0  0  0
 33 34  1  0  0  0  0
 34 32  1  0  0  0  0
 35 33  2  0  0  0  0
 36 37  1  0  0  0  0
 37  4  1  0  0  0  0
M  END
>  <MODEL>
2

>  <REMARK>
 VINA RESULT:      -8.7      1.135      1.268
  Name = 
  2 active torsions:
  status: ('A' for Active; 'I' for Inactive)
    1  A    between atoms: C_4  and  C_37
    2  A    between atoms: C_23  and  C_30
                            x       y       z     vdW  Elec       q    Type
                         _______ _______ _______ _____ _____    ______ ____

>  <TORSDO>
F 2

$$$$
=
 OpenBabel11112417113D

 37 43  0  0  1  0  0  0  0  0999 V2000
  192.5210  172.5780  142.1590 O   0  0  0  0  0  0  0  0  0  0  0  0
  196.5210  175.4890  143.2670 C   0  0  0  0  0  0  0  0  0  0  0  0
  192.4450  175.3470  144.5270 C   0  0  1  0  0  3  0  0  0  0  0  0
  193.1490  171.4900  141.5270 C   0  0  2  0  0  3  0  0  0  0  0  0
  189.7520  174.4020  142.0270 O   0  0  0  0  0  0  0  0  0  0  0  0
  194.8390  176.0970  145.1020 C   0  0  1  0  0  3  0  0  0  0  0  0
  191.6650  175.2970  143.2070 C   0  0  2  0  0  3  0  0  0  0  0  0
  190.9090  171.3660  140.3020 C   0  0  0  0  0  0  0  0  0  0  0  0
  193.7380  175.9310  144.0530 C   0  0  1  0  0  3  0  0  0  0  0  0
  190.4490  174.3520  143.2400 C   0  0  1  0  0  3  0  0  0  0  0  0
  194.3030  175.8450  146.5130 C   0  0  0  0  0  2  0  0  0  0  0  0
  192.3640  170.9730  140.3020 C   0  0  0  0  0  2  0  0  0  0  0  0
  194.0690  175.0170  142.9280 C   0  0  2  0  0  3  0  0  0  0  0  0
  197.4670  174.3660  142.8940 C   0  0  0  0  0  1  0  0  0  0  0  0
  190.7140  175.5580  146.4360 C   0  0  0  0  0  2  0  0  0  0  0  0
  192.9660  176.5900  146.7010 C   0  0  0  0  0  2  0  0  0  0  0  0
  195.3450  175.4940  142.2550 C   0  0  0  0  0  2  0  0  0  0  0  0
  190.4760  172.8140  140.3500 C   0  0  1  0  0  3  0  0  0  0  0  0
  189.6590  173.0680  141.6190 C   0  0  0  0  0  2  0  0  0  0  0  0
  191.8760  176.2030  145.6690 C   0  0  1  0  0  3  0  0  0  0  0  0
  192.7750  175.0060  142.1300 C   0  0  1  0  0  3  0  0  0  0  0  0
  196.0960  175.2900  144.7490 C   0  0  0  0  0  2  0  0  0  0  0  0
  189.4690  174.6230  144.3920 C   0  0  1  0  0  3  0  0  0  0  0  0
  197.2700  176.8010  143.1370 C   0  0  0  0  0  1  0  0  0  0  0  0
  191.6570  173.7910  140.2000 C   0  0  0  0  0  2  0  0  0  0  0  0
  190.0620  170.4900  140.2310 O   0  0  0  0  0  0  0  0  0  0  0  0
  192.7000  173.7000  141.3270 C   0  0  2  0  0  3  0  0  0  0  0  0
  190.0480  174.3480  145.7790 C   0  0  0  0  0  2  0  0  0  0  0  0
  187.7450  176.1800  145.3210 C   0  0  0  0  0  3  0  0  0  0  0  0
  188.6200  175.8600  144.2770 C   0  0  0  0  0  0  0  0  0  0  0  0
  188.6990  176.7050  143.1600 C   0  0  0  0  0  3  0  0  0  0  0  0
  187.9880  178.6650  142.0060 F   0  0  0  0  0  0  0  0  0  0  0  0
  187.0330  178.1660  144.1320 C   0  0  0  0  0  3  0  0  0  0  0  0
  187.9070  177.8540  143.0870 C   0  0  0  0  0  0  0  0  0  0  0  0
  186.9520  177.3300  145.2490 C   0  0  0  0  0  3  0  0  0  0  0  0
  192.6170  170.7050  143.8320 C   0  0  0  0  0  1  0  0  0  0  0  0
  193.3360  170.3730  142.5380 C   0  0  0  0  0  2  0  0  0  0  0  0
  2 22  1  0  0  0  0
  3 20  1  0  0  0  0
  4  1  1  0  0  0  0
  4 37  1  0  0  0  0
  5 10  1  0  0  0  0
  6 11  1  0  0  0  0
  7 10  1  0  0  0  0
  7  3  1  0  0  0  0
  8 12  1  0  0  0  0
  8 18  1  0  0  0  0
  9  3  1  0  0  0  0
  9  6  1  0  0  0  0
 10 23  1  0  0  0  0
 11 16  1  0  0  0  0
 12  4  1  0  0  0  0
 13  9  1  0  0  0  0
 14  2  1  0  0  0  0
 17 13  1  0  0  0  0
 17  2  1  0  0  0  0
 18 19  1  0  0  0  0
 19  5  1  0  0  0  0
 20 15  1  0  0  0  0
 20 16  1  0  0  0  0
 21 13  1  0  0  0  0
 21  7  1  0  0  0  0
 22  6  1  0  0  0  0
 23 28  1  0  0  0  0
 24  2  1  0  0  0  0
 25 18  1  0  0  0  0
 25 27  1  0  0  0  0
 26  8  2  0  0  0  0
 27 21  1  0  0  0  0
 27  1  1  0  0  0  0
 28 15  1  0  0  0  0
 30 23  1  0  0  0  0
 30 29  2  0  0  0  0
 31 30  1  0  0  0  0
 32 34  1  0  0  0  0
 33 35  2  0  0  0  0
 34 31  2  0  0  0  0
 34 33  1  0  0  0  0
 35 29  1  0  0  0  0
 37 36  1  0  0  0  0
M  END
>  <MODEL>
3

>  <REMARK>
 VINA RESULT:      -8.5      2.236      5.687
  Name = 
  2 active torsions:
  status: ('A' for Active; 'I' for Inactive)
    1  A    between atoms: C_4  and  C_37
    2  A    between atoms: C_23  and  C_30
                            x       y       z     vdW  Elec       q    Type
                         _______ _______ _______ _____ _____    ______ ____

>  <TORSDO>
F 2

$$$$
=
 OpenBabel11112417113D

 37 43  0  0  1  0  0  0  0  0999 V2000
  194.6650  174.3530  143.2770 O   0  0  0  0  0  0  0  0  0  0  0  0
  193.4980  169.4200  143.1640 C   0  0  0  0  0  0  0  0  0  0  0  0
  191.2590  173.0540  143.2760 C   0  0  1  0  0  3  0  0  0  0  0  0
  196.0170  174.3160  142.8930 C   0  0  2  0  0  3  0  0  0  0  0  0
  192.5830  175.9990  145.2700 O   0  0  0  0  0  0  0  0  0  0  0  0
  191.2560  170.5550  142.6590 C   0  0  1  0  0  3  0  0  0  0  0  0
  191.9030  173.8330  144.4300 C   0  0  2  0  0  3  0  0  0  0  0  0
  196.1150  176.4260  144.3340 C   0  0  0  0  0  0  0  0  0  0  0  0
  191.6750  171.6610  143.6300 C   0  0  1  0  0  3  0  0  0  0  0  0
  192.0460  175.3430  144.1560 C   0  0  1  0  0  3  0  0  0  0  0  0
  190.2690  171.0790  141.6140 C   0  0  0  0  0  2  0  0  0  0  0  0
  196.8930  175.3080  143.6880 C   0  0  0  0  0  2  0  0  0  0  0  0
  193.1420  171.8340  143.7970 C   0  0  2  0  0  3  0  0  0  0  0  0
  194.8130  169.1040  142.4810 C   0  0  0  0  0  1  0  0  0  0  0  0
  189.2050  174.4080  142.4840 C   0  0  0  0  0  2  0  0  0  0  0  0
  189.1790  171.9230  142.3070 C   0  0  0  0  0  2  0  0  0  0  0  0
  193.7540  170.5140  144.2350 C   0  0  0  0  0  2  0  0  0  0  0  0
  194.9980  176.1530  145.3160 C   0  0  1  0  0  3  0  0  0  0  0  0
  193.6800  176.7050  144.7670 C   0  0  0  0  0  2  0  0  0  0  0  0
  189.7320  173.1190  143.1260 C   0  0  1  0  0  3  0  0  0  0  0  0
  193.2210  173.0290  144.7340 C   0  0  1  0  0  3  0  0  0  0  0  0
  192.4680  169.8180  142.0710 C   0  0  0  0  0  2  0  0  0  0  0  0
  190.7370  176.0380  143.7480 C   0  0  1  0  0  3  0  0  0  0  0  0
  193.0160  168.1660  143.8670 C   0  0  0  0  0  1  0  0  0  0  0  0
  194.9010  174.6670  145.7060 C   0  0  0  0  0  2  0  0  0  0  0  0
  196.4170  177.5800  144.0760 O   0  0  0  0  0  0  0  0  0  0  0  0
  194.5740  173.7250  144.5340 C   0  0  2  0  0  3  0  0  0  0  0  0
  190.1840  175.5800  142.3990 C   0  0  0  0  0  2  0  0  0  0  0  0
  188.8860  177.3650  144.7830 C   0  0  0  0  0  3  0  0  0  0  0  0
  189.7150  176.2390  144.8340 C   0  0  0  0  0  0  0  0  0  0  0  0
  189.5640  175.3180  145.8820 C   0  0  0  0  0  3  0  0  0  0  0  0
  188.4580  174.6340  147.8780 F   0  0  0  0  0  0  0  0  0  0  0  0
  187.7750  176.6540  146.8140 C   0  0  0  0  0  3  0  0  0  0  0  0
  188.5970  175.5260  146.8690 C   0  0  0  0  0  0  0  0  0  0  0  0
  187.9180  177.5730  145.7710 C   0  0  0  0  0  3  0  0  0  0  0  0
  195.2240  173.6630  140.6220 C   0  0  0  0  0  1  0  0  0  0  0  0
  196.1150  174.6080  141.4060 C   0  0  0  0  0  2  0  0  0  0  0  0
  1 27  1  0  0  0  0
  2 24  1  0  0  0  0
  2 17  1  0  0  0  0
  3  9  1  0  0  0  0
  3  7  1  0  0  0  0
  4  1  1  0  0  0  0
  4 12  1  0  0  0  0
  6  9  1  0  0  0  0
  7 21  1  0  0  0  0
  8 18  1  0  0  0  0
  9 13  1  0  0  0  0
 10  7  1  0  0  0  0
 10  5  1  0  0  0  0
 11 16  1  0  0  0  0
 11  6  1  0  0  0  0
 12  8  1  0  0  0  0
 13 17  1  0  0  0  0
 13 21  1  0  0  0  0
 14  2  1  0  0  0  0
 15 20  1  0  0  0  0
 16 20  1  0  0  0  0
 18 25  1  0  0  0  0
 19  5  1  0  0  0  0
 19 18  1  0  0  0  0
 20  3  1  0  0  0  0
 22  6  1  0  0  0  0
 22  2  1  0  0  0  0
 23 10  1  0  0  0  0
 23 30  1  0  0  0  0
 26  8  2  0  0  0  0
 27 21  1  0  0  0  0
 27 25  1  0  0  0  0
 28 15  1  0  0  0  0
 28 23  1  0  0  0  0
 29 30  2  0  0  0  0
 29 35  1  0  0  0  0
 30 31  1  0  0  0  0
 31 34  2  0  0  0  0
 33 34  1  0  0  0  0
 34 32  1  0  0  0  0
 35 33  2  0  0  0  0
 36 37  1  0  0  0  0
 37  4  1  0  0  0  0
M  END
>  <MODEL>
4

>  <REMARK>
 VINA RESULT:      -8.5      1.735      2.613
  Name = 
  2 active torsions:
  status: ('A' for Active; 'I' for Inactive)
    1  A    between atoms: C_4  and  C_37
    2  A    between atoms: C_23  and  C_30
                            x       y       z     vdW  Elec       q    Type
                         _______ _______ _______ _____ _____    ______ ____

>  <TORSDO>
F 2

$$$$
=
 OpenBabel11112417113D

 37 43  0  0  1  0  0  0  0  0999 V2000
  191.6050  175.6940  145.2230 O   0  0  0  0  0  0  0  0  0  0  0  0
  187.2400  177.5640  143.4470 C   0  0  0  0  0  0  0  0  0  0  0  0
  189.9510  174.5110  142.1980 C   0  0  1  0  0  3  0  0  0  0  0  0
  191.5980  176.2010  146.5350 C   0  0  2  0  0  3  0  0  0  0  0  0
  193.6770  174.9960  142.7270 O   0  0  0  0  0  0  0  0  0  0  0  0
  187.5430  175.4140  142.0850 C   0  0  1  0  0  3  0  0  0  0  0  0
  191.3170  175.2090  142.2390 C   0  0  2  0  0  3  0  0  0  0  0  0
  194.1320  176.0910  146.2090 C   0  0  0  0  0  0  0  0  0  0  0  0
  189.0470  175.6990  142.0990 C   0  0  1  0  0  3  0  0  0  0  0  0
  192.4540  174.3170  142.7750 C   0  0  1  0  0  3  0  0  0  0  0  0
  187.2640  173.9170  141.9360 C   0  0  0  0  0  2  0  0  0  0  0  0
  192.9910  176.6800  146.9990 C   0  0  0  0  0  2  0  0  0  0  0  0
  189.5250  176.5190  143.2420 C   0  0  2  0  0  3  0  0  0  0  0  0
  186.8370  178.0010  144.8400 C   0  0  0  0  0  1  0  0  0  0  0  0
  190.3170  172.1610  141.1860 C   0  0  0  0  0  2  0  0  0  0  0  0
  188.1490  173.3330  140.8170 C   0  0  0  0  0  2  0  0  0  0  0  0
  188.7590  177.8310  143.2700 C   0  0  0  0  0  2  0  0  0  0  0  0
  194.2350  176.2650  144.7100 C   0  0  1  0  0  3  0  0  0  0  0  0
  194.1850  174.8970  144.0260 C   0  0  0  0  0  2  0  0  0  0  0  0
  189.6690  173.5430  141.0390 C   0  0  1  0  0  3  0  0  0  0  0  0
  191.0280  176.5490  143.0110 C   0  0  1  0  0  3  0  0  0  0  0  0
  186.8230  176.0780  143.2670 C   0  0  0  0  0  2  0  0  0  0  0  0
  192.5980  172.9720  142.0470 C   0  0  1  0  0  3  0  0  0  0  0  0
  186.4850  178.4160  142.4460 C   0  0  0  0  0  1  0  0  0  0  0  0
  193.1860  177.2460  144.1540 C   0  0  0  0  0  2  0  0  0  0  0  0
  195.0080  175.4850  146.8040 O   0  0  0  0  0  0  0  0  0  0  0  0
  191.7290  176.7940  144.3540 C   0  0  2  0  0  3  0  0  0  0  0  0
  191.4130  172.0270  142.2440 C   0  0  0  0  0  2  0  0  0  0  0  0
  193.8320  171.8910  140.1580 C   0  0  0  0  0  3  0  0  0  0  0  0
  193.1670  173.0180  140.6540 C   0  0  0  0  0  0  0  0  0  0  0  0
  193.0300  174.1520  139.8410 C   0  0  0  0  0  3  0  0  0  0  0  0
  193.4220  175.2590  137.7670 F   0  0  0  0  0  0  0  0  0  0  0  0
  194.2240  173.0330  138.0580 C   0  0  0  0  0  3  0  0  0  0  0  0
  193.5580  174.1600  138.5470 C   0  0  0  0  0  0  0  0  0  0  0  0
  194.3610  171.8980  138.8630 C   0  0  0  0  0  3  0  0  0  0  0  0
  189.6180  174.8300  147.1770 C   0  0  0  0  0  1  0  0  0  0  0  0
  191.0740  175.1300  147.4750 C   0  0  0  0  0  2  0  0  0  0  0  0
  1  4  1  0  0  0  0
  2 14  1  0  0  0  0
  3  7  1  0  0  0  0
  4 12  1  0  0  0  0
  4 37  1  0  0  0  0
  5 10  1  0  0  0  0
  5 19  1  0  0  0  0
  6  9  1  0  0  0  0
  6 22  1  0  0  0  0
  7 10  1  0  0  0  0
  7 21  1  0  0  0  0
  8 26  2  0  0  0  0
  8 12  1  0  0  0  0
  9  3  1  0  0  0  0
  9 13  1  0  0  0  0
 11  6  1  0  0  0  0
 13 17  1  0  0  0  0
 15 28  1  0  0  0  0
 16 20  1  0  0  0  0
 16 11  1  0  0  0  0
 17  2  1  0  0  0  0
 18  8  1  0  0  0  0
 19 18  1  0  0  0  0
 20 15  1  0  0  0  0
 20  3  1  0  0  0  0
 21 13  1  0  0  0  0
 21 27  1  0  0  0  0
 22  2  1  0  0  0  0
 23 28  1  0  0  0  0
 23 10  1  0  0  0  0
 24  2  1  0  0  0  0
 25 27  1  0  0  0  0
 25 18  1  0  0  0  0
 27  1  1  0  0  0  0
 29 30  1  0  0  0  0
 30 23  1  0  0  0  0
 31 30  2  0  0  0  0
 32 34  1  0  0  0  0
 33 34  2  0  0  0  0
 33 35  1  0  0  0  0
 34 31  1  0  0  0  0
 35 29  2  0  0  0  0
 36 37  1  0  0  0  0
M  END
>  <MODEL>
5

>  <REMARK>
 VINA RESULT:      -8.1      2.740      6.414
  Name = 
  2 active torsions:
  status: ('A' for Active; 'I' for Inactive)
    1  A    between atoms: C_4  and  C_37
    2  A    between atoms: C_23  and  C_30
                            x       y       z     vdW  Elec       q    Type
                         _______ _______ _______ _____ _____    ______ ____

>  <TORSDO>
F 2

$$$$
=
 OpenBabel11112417113D

 37 43  0  0  1  0  0  0  0  0999 V2000
  191.8010  172.6800  141.8350 O   0  0  0  0  0  0  0  0  0  0  0  0
  190.1100  176.1900  145.0790 C   0  0  0  0  0  0  0  0  0  0  0  0
  193.5940  173.7360  144.8260 C   0  0  1  0  0  3  0  0  0  0  0  0
  190.9690  172.9180  140.7260 C   0  0  2  0  0  3  0  0  0  0  0  0
  193.2950  170.2070  143.4660 O   0  0  0  0  0  0  0  0  0  0  0  0
  192.5580  175.8930  145.7740 C   0  0  1  0  0  3  0  0  0  0  0  0
  193.0240  172.3310  144.5930 C   0  0  2  0  0  3  0  0  0  0  0  0
  191.3680  170.4220  140.3410 C   0  0  0  0  0  0  0  0  0  0  0  0
  192.4040  174.4100  145.4340 C   0  0  1  0  0  3  0  0  0  0  0  0
  193.8350  171.4930  143.5850 C   0  0  1  0  0  3  0  0  0  0  0  0
  194.0140  176.3450  145.6400 C   0  0  0  0  0  2  0  0  0  0  0  0
  190.5010  171.6180  140.0370 C   0  0  0  0  0  2  0  0  0  0  0  0
  191.3550  174.0970  144.4280 C   0  0  2  0  0  3  0  0  0  0  0  0
  189.2910  176.8380  143.9810 C   0  0  0  0  0  1  0  0  0  0  0  0
  196.1490  173.4900  145.1330 C   0  0  0  0  0  2  0  0  0  0  0  0
  194.9410  175.3180  146.3200 C   0  0  0  0  0  2  0  0  0  0  0  0
  190.0230  174.6500  144.9080 C   0  0  0  0  0  2  0  0  0  0  0  0
  191.6010  169.9480  141.7570 C   0  0  1  0  0  3  0  0  0  0  0  0
  193.0920  170.0360  142.0930 C   0  0  0  0  0  2  0  0  0  0  0  0
  194.8050  173.8770  145.7620 C   0  0  1  0  0  3  0  0  0  0  0  0
  191.5100  172.5940  144.2570 C   0  0  1  0  0  3  0  0  0  0  0  0
  191.5510  176.7650  145.0110 C   0  0  0  0  0  2  0  0  0  0  0  0
  195.3310  171.3800  143.9160 C   0  0  1  0  0  3  0  0  0  0  0  0
  189.4900  176.5580  146.4130 C   0  0  0  0  0  1  0  0  0  0  0  0
  190.7180  170.6840  142.7820 C   0  0  0  0  0  2  0  0  0  0  0  0
  191.8670  169.8070  139.4130 O   0  0  0  0  0  0  0  0  0  0  0  0
  190.9810  172.1980  142.8720 C   0  0  2  0  0  3  0  0  0  0  0  0
  196.0910  172.7030  143.8230 C   0  0  0  0  0  2  0  0  0  0  0  0
  197.0300  170.0970  145.2310 C   0  0  0  0  0  3  0  0  0  0  0  0
  195.6990  170.5010  145.0810 C   0  0  0  0  0  0  0  0  0  0  0  0
  194.7440  170.0970  146.0260 C   0  0  0  0  0  3  0  0  0  0  0  0
  194.1910  168.9030  148.0130 F   0  0  0  0  0  0  0  0  0  0  0  0
  196.4490  168.8870  147.2470 C   0  0  0  0  0  3  0  0  0  0  0  0
  195.1180  169.2910  147.1050 C   0  0  0  0  0  0  0  0  0  0  0  0
  197.4040  169.2910  146.3110 C   0  0  0  0  0  3  0  0  0  0  0  0
  193.0810  174.1630  140.2700 C   0  0  0  0  0  1  0  0  0  0  0  0
  191.7100  173.7980  139.7340 C   0  0  0  0  0  2  0  0  0  0  0  0
  1 27  1  0  0  0  0
  2 24  1  0  0  0  0
  3  9  1  0  0  0  0
  3 20  1  0  0  0  0
  4  1  1  0  0  0  0
  5 10  1  0  0  0  0
  7  3  1  0  0  0  0
  8 18  1  0  0  0  0
  9  6  1  0  0  0  0
 10 23  1  0  0  0  0
 10  7  1  0  0  0  0
 11  6  1  0  0  0  0
 11 16  1  0  0  0  0
 12  8  1  0  0  0  0
 12  4  1  0  0  0  0
 13 17  1  0  0  0  0
 13  9  1  0  0  0  0
 14  2  1  0  0  0  0
 15 20  1  0  0  0  0
 17  2  1  0  0  0  0
 18 19  1  0  0  0  0
 18 25  1  0  0  0  0
 19  5  1  0  0  0  0
 20 16  1  0  0  0  0
 21 13  1  0  0  0  0
 21  7  1  0  0  0  0
 22  2  1  0  0  0  0
 22  6  1  0  0  0  0
 23 30  1  0  0  0  0
 25 27  1  0  0  0  0
 26  8  2  0  0  0  0
 27 21  1  0  0  0  0
 28 23  1  0  0  0  0
 28 15  1  0  0  0  0
 29 35  1  0  0  0  0
 30 29  2  0  0  0  0
 30 31  1  0  0  0  0
 31 34  2  0  0  0  0
 34 33  1  0  0  0  0
 34 32  1  0  0  0  0
 35 33  2  0  0  0  0
 37 36  1  0  0  0  0
 37  4  1  0  0  0  0
M  END
>  <MODEL>
6

>  <REMARK>
 VINA RESULT:      -8.1      3.583      8.037
  Name = 
  2 active torsions:
  status: ('A' for Active; 'I' for Inactive)
    1  A    between atoms: C_4  and  C_37
    2  A    between atoms: C_23  and  C_30
                            x       y       z     vdW  Elec       q    Type
                         _______ _______ _______ _____ _____    ______ ____

>  <TORSDO>
F 2

$$$$
=
 OpenBabel11112417113D

 37 43  0  0  1  0  0  0  0  0999 V2000
  190.4230  173.8600  143.2620 O   0  0  0  0  0  0  0  0  0  0  0  0
  194.3510  176.3380  145.2970 C   0  0  0  0  0  0  0  0  0  0  0  0
  190.1060  176.5400  145.7110 C   0  0  1  0  0  3  0  0  0  0  0  0
  191.0710  172.7390  142.7110 C   0  0  2  0  0  3  0  0  0  0  0  0
  187.9060  175.9430  142.6780 O   0  0  0  0  0  0  0  0  0  0  0  0
  192.3900  177.0400  146.7900 C   0  0  1  0  0  3  0  0  0  0  0  0
  189.6100  176.6110  144.2610 C   0  0  2  0  0  3  0  0  0  0  0  0
  189.1230  172.8710  141.0600 C   0  0  0  0  0  0  0  0  0  0  0  0
  191.5150  177.0150  145.5350 C   0  0  1  0  0  3  0  0  0  0  0  0
  188.3350  175.7840  144.0010 C   0  0  1  0  0  3  0  0  0  0  0  0
  191.5590  176.7910  148.0500 C   0  0  0  0  0  2  0  0  0  0  0  0
  190.5090  172.3420  141.3290 C   0  0  0  0  0  2  0  0  0  0  0  0
  191.9870  176.1120  144.4520 C   0  0  2  0  0  3  0  0  0  0  0  0
  195.2520  175.1430  145.0600 C   0  0  0  0  0  1  0  0  0  0  0  0
  188.0500  176.8490  147.2450 C   0  0  0  0  0  2  0  0  0  0  0  0
  190.2810  177.6530  148.0080 C   0  0  0  0  0  2  0  0  0  0  0  0
  193.4090  176.4890  144.0730 C   0  0  0  0  0  2  0  0  0  0  0  0
  188.8160  174.3510  141.0980 C   0  0  1  0  0  3  0  0  0  0  0  0
  187.7830  174.6380  142.1900 C   0  0  0  0  0  2  0  0  0  0  0  0
  189.3930  177.4070  146.7610 C   0  0  1  0  0  3  0  0  0  0  0  0
  190.8850  176.2520  143.4130 C   0  0  1  0  0  3  0  0  0  0  0  0
  193.6180  176.1290  146.6510 C   0  0  0  0  0  2  0  0  0  0  0  0
  187.1690  176.1070  144.9480 C   0  0  1  0  0  3  0  0  0  0  0  0
  195.2200  177.5770  145.3880 C   0  0  0  0  0  1  0  0  0  0  0  0
  190.0820  175.2160  141.2370 C   0  0  0  0  0  2  0  0  0  0  0  0
  188.2360  172.0820  140.7760 O   0  0  0  0  0  0  0  0  0  0  0  0
  190.8630  174.9880  142.5430 C   0  0  2  0  0  3  0  0  0  0  0  0
  187.4290  175.7310  146.4070 C   0  0  0  0  0  2  0  0  0  0  0  0
  186.9520  178.2900  143.7450 C   0  0  0  0  0  3  0  0  0  0  0  0
  186.4700  177.4230  144.7320 C   0  0  0  0  0  0  0  0  0  0  0  0
  185.3410  177.7880  145.4800 C   0  0  0  0  0  3  0  0  0  0  0  0
  183.6180  179.3570  145.9740 F   0  0  0  0  0  0  0  0  0  0  0  0
  185.1950  179.8750  144.2630 C   0  0  0  0  0  3  0  0  0  0  0  0
  184.7060  179.0110  145.2470 C   0  0  0  0  0  0  0  0  0  0  0  0
  186.3170  179.5140  143.5110 C   0  0  0  0  0  3  0  0  0  0  0  0
  189.8260  171.8210  144.6660 C   0  0  0  0  0  1  0  0  0  0  0  0
  190.9510  171.5760  143.6790 C   0  0  0  0  0  2  0  0  0  0  0  0
  2 24  1  0  0  0  0
  2 22  1  0  0  0  0
  3 20  1  0  0  0  0
  4  1  1  0  0  0  0
  4 37  1  0  0  0  0
  5 10  1  0  0  0  0
  6 11  1  0  0  0  0
  7  3  1  0  0  0  0
  8 18  1  0  0  0  0
  8 12  1  0  0  0  0
  9  3  1  0  0  0  0
  9  6  1  0  0  0  0
 10  7  1  0  0  0  0
 10 23  1  0  0  0  0
 12  4  1  0  0  0  0
 13  9  1  0  0  0  0
 14  2  1  0  0  0  0
 16 11  1  0  0  0  0
 17 13  1  0  0  0  0
 17  2  1  0  0  0  0
 18 25  1  0  0  0  0
 18 19  1  0  0  0  0
 19  5  1  0  0  0  0
 20 15  1  0  0  0  0
 20 16  1  0  0  0  0
 21  7  1  0  0  0  0
 21 13  1  0  0  0  0
 22  6  1  0  0  0  0
 23 28  1  0  0  0  0
 25 27  1  0  0  0  0
 26  8  2  0  0  0  0
 27  1  1  0  0  0  0
 27 21  1  0  0  0  0
 28 15  1  0  0  0  0
 29 30  1  0  0  0  0
 30 23  1  0  0  0  0
 30 31  2  0  0  0  0
 33 34  2  0  0  0  0
 34 31  1  0  0  0  0
 34 32  1  0  0  0  0
 35 29  2  0  0  0  0
 35 33  1  0  0  0  0
 37 36  1  0  0  0  0
M  END
>  <MODEL>
7

>  <REMARK>
 VINA RESULT:      -8.1      2.084      5.569
  Name = 
  2 active torsions:
  status: ('A' for Active; 'I' for Inactive)
    1  A    between atoms: C_4  and  C_37
    2  A    between atoms: C_23  and  C_30
                            x       y       z     vdW  Elec       q    Type
                         _______ _______ _______ _____ _____    ______ ____

>  <TORSDO>
F 2

$$$$
=
 OpenBabel11112417113D

 37 43  0  0  1  0  0  0  0  0999 V2000
  194.5790  174.9960  143.4570 O   0  0  0  0  0  0  0  0  0  0  0  0
  190.4460  176.1520  146.1560 C   0  0  0  0  0  0  0  0  0  0  0  0
  191.3290  173.4120  143.0030 C   0  0  1  0  0  3  0  0  0  0  0  0
  195.5860  175.5820  144.2450 C   0  0  2  0  0  3  0  0  0  0  0  0
  193.7790  174.4200  140.2880 O   0  0  0  0  0  0  0  0  0  0  0  0
  189.7760  173.9780  144.9770 C   0  0  1  0  0  3  0  0  0  0  0  0
  192.0350  174.2860  141.9590 C   0  0  2  0  0  3  0  0  0  0  0  0
  196.7470  175.7890  141.9770 C   0  0  0  0  0  0  0  0  0  0  0  0
  190.5890  174.4600  143.7740 C   0  0  1  0  0  3  0  0  0  0  0  0
  193.2230  173.5900  141.2680 C   0  0  1  0  0  3  0  0  0  0  0  0
  189.6900  172.4510  145.0120 C   0  0  0  0  0  2  0  0  0  0  0  0
  196.6820  176.2710  143.4040 C   0  0  0  0  0  2  0  0  0  0  0  0
  191.6880  175.4090  144.0930 C   0  0  2  0  0  3  0  0  0  0  0  0
  191.3080  176.6210  147.3110 C   0  0  0  0  0  1  0  0  0  0  0  0
  191.0040  171.0710  141.9570 C   0  0  0  0  0  2  0  0  0  0  0  0
  189.3420  171.9180  143.6070 C   0  0  0  0  0  2  0  0  0  0  0  0
  191.1150  176.6060  144.8320 C   0  0  0  0  0  2  0  0  0  0  0  0
  195.5540  175.8780  141.0520 C   0  0  1  0  0  3  0  0  0  0  0  0
  195.1410  174.4740  140.6050 C   0  0  0  0  0  2  0  0  0  0  0  0
  190.3450  172.3420  142.5040 C   0  0  1  0  0  3  0  0  0  0  0  0
  192.3340  175.6230  142.7330 C   0  0  1  0  0  3  0  0  0  0  0  0
  190.2570  174.6150  146.2880 C   0  0  0  0  0  2  0  0  0  0  0  0
  192.8800  172.2310  140.6380 C   0  0  1  0  0  3  0  0  0  0  0  0
  189.0950  176.8300  146.2670 C   0  0  0  0  0  1  0  0  0  0  0  0
  194.3870  176.6720  141.6660 C   0  0  0  0  0  2  0  0  0  0  0  0
  197.8010  175.3430  141.5540 O   0  0  0  0  0  0  0  0  0  0  0  0
  193.7950  176.0450  142.9400 C   0  0  2  0  0  3  0  0  0  0  0  0
  192.5010  171.1520  141.6520 C   0  0  0  0  0  2  0  0  0  0  0  0
  192.2660  171.2840  138.4040 C   0  0  0  0  0  3  0  0  0  0  0  0
  192.0500  172.2620  139.3820 C   0  0  0  0  0  0  0  0  0  0  0  0
  191.0580  173.2320  139.1800 C   0  0  0  0  0  3  0  0  0  0  0  0
  189.3390  174.1680  137.8210 F   0  0  0  0  0  0  0  0  0  0  0  0
  190.5170  172.2500  137.0350 C   0  0  0  0  0  3  0  0  0  0  0  0
  190.2940  173.2270  138.0090 C   0  0  0  0  0  0  0  0  0  0  0  0
  191.5020  171.2780  137.2330 C   0  0  0  0  0  3  0  0  0  0  0  0
  195.2060  173.3980  145.3860 C   0  0  0  0  0  1  0  0  0  0  0  0
  196.2010  174.5140  145.1320 C   0  0  0  0  0  2  0  0  0  0  0  0
  1  4  1  0  0  0  0
  2 24  1  0  0  0  0
  2 22  1  0  0  0  0
  2 14  1  0  0  0  0
  3  9  1  0  0  0  0
  4 37  1  0  0  0  0
  5 19  1  0  0  0  0
  5 10  1  0  0  0  0
  6 11  1  0  0  0  0
  6 22  1  0  0  0  0
  7 21  1  0  0  0  0
  7  3  1  0  0  0  0
  8 12  1  0  0  0  0
  9 13  1  0  0  0  0
  9  6  1  0  0  0  0
 10  7  1  0  0  0  0
 12  4  1  0  0  0  0
 13 17  1  0  0  0  0
 15 20  1  0  0  0  0
 16 11  1  0  0  0  0
 17  2  1  0  0  0  0
 18 25  1  0  0  0  0
 18  8  1  0  0  0  0
 19 18  1  0  0  0  0
 20  3  1  0  0  0  0
 20 16  1  0  0  0  0
 21 27  1  0  0  0  0
 21 13  1  0  0  0  0
 23 10  1  0  0  0  0
 23 28  1  0  0  0  0
 25 27  1  0  0  0  0
 26  8  2  0  0  0  0
 27  1  1  0  0  0  0
 28 15  1  0  0  0  0
 29 30  1  0  0  0  0
 30 23  1  0  0  0  0
 31 30  2  0  0  0  0
 32 34  1  0  0  0  0
 33 35  1  0  0  0  0
 33 34  2  0  0  0  0
 34 31  1  0  0  0  0
 35 29  2  0  0  0  0
 37 36  1  0  0  0  0
M  END
>  <MODEL>
8

>  <REMARK>
 VINA RESULT:      -7.8      2.869      6.499
  Name = 
  2 active torsions:
  status: ('A' for Active; 'I' for Inactive)
    1  A    between atoms: C_4  and  C_37
    2  A    between atoms: C_23  and  C_30
                            x       y       z     vdW  Elec       q    Type
                         _______ _______ _______ _____ _____    ______ ____

>  <TORSDO>
F 2

$$$$
=
 OpenBabel11112417113D

 37 43  0  0  1  0  0  0  0  0999 V2000
  190.8010  173.1300  139.7810 O   0  0  0  0  0  0  0  0  0  0  0  0
  187.9020  176.3010  142.4730 C   0  0  0  0  0  0  0  0  0  0  0  0
  191.9460  174.9540  142.7210 C   0  0  1  0  0  3  0  0  0  0  0  0
  190.0390  173.0050  138.6050 C   0  0  2  0  0  3  0  0  0  0  0  0
  192.7790  171.3730  141.7840 O   0  0  0  0  0  0  0  0  0  0  0  0
  190.2620  176.8000  143.3390 C   0  0  1  0  0  3  0  0  0  0  0  0
  191.8190  173.4280  142.6270 C   0  0  2  0  0  3  0  0  0  0  0  0
  191.1590  170.7070  138.5490 C   0  0  0  0  0  0  0  0  0  0  0  0
  190.5640  175.3100  143.1730 C   0  0  1  0  0  3  0  0  0  0  0  0
  192.9210  172.7660  141.7770 C   0  0  1  0  0  3  0  0  0  0  0  0
  191.5360  177.6400  143.2350 C   0  0  0  0  0  2  0  0  0  0  0  0
  190.0210  171.5630  138.0540 C   0  0  0  0  0  2  0  0  0  0  0  0
  189.7410  174.6070  142.1540 C   0  0  2  0  0  3  0  0  0  0  0  0
  187.0360  176.5710  141.2590 C   0  0  0  0  0  1  0  0  0  0  0  0
  194.4270  175.4930  143.2020 C   0  0  0  0  0  2  0  0  0  0  0  0
  192.6510  176.9990  144.0870 C   0  0  0  0  0  2  0  0  0  0  0  0
  188.2700  174.7930  142.4850 C   0  0  0  0  0  2  0  0  0  0  0  0
  191.3890  170.4650  140.0240 C   0  0  1  0  0  3  0  0  0  0  0  0
  192.7570  171.0150  140.4320 C   0  0  0  0  0  2  0  0  0  0  0  0
  192.9780  175.5340  143.7010 C   0  0  1  0  0  3  0  0  0  0  0  0
  190.3290  173.2050  142.1750 C   0  0  1  0  0  3  0  0  0  0  0  0
  189.1230  177.2610  142.4190 C   0  0  0  0  0  2  0  0  0  0  0  0
  194.3520  173.1270  142.2050 C   0  0  1  0  0  3  0  0  0  0  0  0
  187.0860  176.6040  143.7140 C   0  0  0  0  0  1  0  0  0  0  0  0
  190.2450  171.0100  140.8990 C   0  0  0  0  0  2  0  0  0  0  0  0
  191.8940  170.1750  137.7330 O   0  0  0  0  0  0  0  0  0  0  0  0
  190.0600  172.5360  140.8210 C   0  0  2  0  0  3  0  0  0  0  0  0
  194.7120  174.5970  141.9960 C   0  0  0  0  0  2  0  0  0  0  0  0
  193.9210  172.2150  144.4950 C   0  0  0  0  0  3  0  0  0  0  0  0
  194.8460  172.5130  143.4870 C   0  0  0  0  0  0  0  0  0  0  0  0
  196.2020  172.2160  143.6860 C   0  0  0  0  0  3  0  0  0  0  0  0
  197.9400  171.3520  145.0690 F   0  0  0  0  0  0  0  0  0  0  0  0
  195.7010  171.3430  145.8870 C   0  0  0  0  0  3  0  0  0  0  0  0
  196.6290  171.6340  144.8830 C   0  0  0  0  0  0  0  0  0  0  0  0
  194.3480  171.6320  145.6930 C   0  0  0  0  0  3  0  0  0  0  0  0
  192.0930  174.0820  137.6920 C   0  0  0  0  0  1  0  0  0  0  0  0
  190.5870  173.9590  137.5590 C   0  0  0  0  0  2  0  0  0  0  0  0
  1 27  1  0  0  0  0
  2 17  1  0  0  0  0
  2 24  1  0  0  0  0
  3  9  1  0  0  0  0
  3 20  1  0  0  0  0
  4  1  1  0  0  0  0
  7  3  1  0  0  0  0
  8 18  1  0  0  0  0
  9  6  1  0  0  0  0
 10  5  1  0  0  0  0
 10 23  1  0  0  0  0
 10  7  1  0  0  0  0
 11  6  1  0  0  0  0
 11 16  1  0  0  0  0
 12  8  1  0  0  0  0
 12  4  1  0  0  0  0
 13 21  1  0  0  0  0
 13 17  1  0  0  0  0
 13  9  1  0  0  0  0
 14  2  1  0  0  0  0
 15 20  1  0  0  0  0
 18 19  1  0  0  0  0
 18 25  1  0  0  0  0
 19  5  1  0  0  0  0
 20 16  1  0  0  0  0
 21  7  1  0  0  0  0
 22  2  1  0  0  0  0
 22  6  1  0  0  0  0
 23 30  1  0  0  0  0
 26  8  2  0  0  0  0
 27 25  1  0  0  0  0
 27 21  1  0  0  0  0
 28 23  1  0  0  0  0
 28 15  1  0  0  0  0
 29 35  1  0  0  0  0
 30 31  1  0  0  0  0
 30 29  2  0  0  0  0
 31 34  2  0  0  0  0
 34 32  1  0  0  0  0
 34 33  1  0  0  0  0
 35 33  2  0  0  0  0
 37 36  1  0  0  0  0
 37  4  1  0  0  0  0
M  END
>  <MODEL>
9

>  <REMARK>
 VINA RESULT:      -7.2      3.472      7.601
  Name = 
  2 active torsions:
  status: ('A' for Active; 'I' for Inactive)
    1  A    between atoms: C_4  and  C_37
    2  A    between atoms: C_23  and  C_30
                            x       y       z     vdW  Elec       q    Type
                         _______ _______ _______ _____ _____    ______ ____

>  <TORSDO>
F 2

$$$$
