=
 OpenBabel11112417453D

 34 40  0  0  1  0  0  0  0  0999 V2000
  189.2460  175.1610  141.9840 C   0  0  0  0  0  0  0  0  0  0  0  0
  186.8860  175.8480  142.6330 C   0  0  0  0  0  2  0  0  0  0  0  0
  195.4370  173.5190  143.2800 C   0  0  0  0  0  0  0  0  0  0  0  0
  191.4800  174.3070  141.6720 C   0  0  0  0  0  0  0  0  0  0  0  0
  193.3770  175.0930  143.2400 C   0  0  2  0  0  3  0  0  0  0  0  0
  195.4080  175.6100  144.6110 C   0  0  0  0  0  1  0  0  0  0  0  0
  195.8960  172.5280  143.9040 O   0  0  0  0  0  0  0  0  0  0  0  0
  195.2710  174.7820  141.0850 C   0  0  0  0  0  2  0  0  0  0  0  0
  188.7570  176.9690  143.6730 C   0  0  2  0  0  3  0  0  0  0  0  0
  188.3900  177.1470  146.8870 C   0  0  0  0  0  3  0  0  0  0  0  0
  192.2300  175.3660  144.2090 C   0  0  0  0  0  2  0  0  0  0  0  0
  193.7860  174.5740  140.7860 C   0  0  0  0  0  2  0  0  0  0  0  0
  189.9690  176.4330  144.4520 C   0  0  1  0  0  3  0  0  0  0  0  0
  186.3390  176.8590  143.6270 C   0  0  0  0  0  2  0  0  0  0  0  0
  192.9480  174.2330  142.0250 C   0  0  2  0  0  3  0  0  0  0  0  0
  195.7940  173.6990  141.9040 N   0  0  0  0  0  2  0  0  0  0  0  0
  187.4990  176.5120  145.8490 C   0  0  2  0  0  3  0  0  0  0  0  0
  190.5970  175.1530  142.3660 C   0  0  0  0  0  0  0  0  0  0  0  0
  194.5600  174.4970  144.0230 C   0  0  2  0  0  3  0  0  0  0  0  0
  191.0910  176.0560  143.4720 C   0  0  2  0  0  3  0  0  0  0  0  0
  189.6810  173.5150  140.3460 C   0  0  0  0  0  3  0  0  0  0  0  0
  189.6650  177.5370  146.7090 C   0  0  0  0  0  3  0  0  0  0  0  0
  190.9960  173.5020  140.6880 N   0  0  0  0  0  0  0  0  0  0  0  0
  190.4410  177.5110  145.4180 C   0  0  0  0  0  2  0  0  0  0  0  0
  187.5120  177.2840  144.5160 C   0  0  1  0  0  3  0  0  0  0  0  0
  188.8160  174.3380  140.9910 N   0  0  0  0  0  0  0  0  0  0  0  0
  188.3230  176.0060  142.6800 N   0  0  0  0  0  0  0  0  0  0  0  0
  186.2030  176.4250  146.3660 O   0  0  0  0  0  0  0  0  0  0  0  0
  186.2380  177.1660  147.5500 C   0  0  0  0  0  2  0  0  0  0  0  0
  185.3930  179.6740  145.6470 O   0  0  0  0  0  0  0  0  0  0  0  0
  184.1160  177.8860  146.5070 C   0  0  0  0  0  2  0  0  0  0  0  0
  185.1650  178.2410  147.5210 C   0  0  2  0  0  3  0  0  0  0  0  0
  184.1490  179.0400  145.5330 C   0  0  0  0  0  2  0  0  0  0  0  0
  185.7570  179.5280  146.9950 C   0  0  0  0  0  2  0  0  0  0  0  0
  1 18  1  0  0  0  0
  1 27  1  0  0  0  0
  2 27  1  0  0  0  0
  2 14  1  0  0  0  0
  3  7  2  0  0  0  0
  3 19  1  0  0  0  0
  4 15  1  0  0  0  0
  4 18  2  0  0  0  0
  5 19  1  0  0  0  0
  5 11  1  1  0  0  0
  8 16  1  0  0  0  0
  9 27  1  6  0  0  0
  9 13  1  0  0  0  0
  9 25  1  0  0  0  0
 12  8  1  0  0  0  0
 13 24  1  1  0  0  0
 15 12  1  6  0  0  0
 15  5  1  0  0  0  0
 16  3  1  0  0  0  0
 17 28  1  1  0  0  0
 17 10  1  0  0  0  0
 18 20  1  0  0  0  0
 19  6  1  6  0  0  0
 20 11  1  1  0  0  0
 20 13  1  0  0  0  0
 21 23  2  0  0  0  0
 21 26  1  0  0  0  0
 22 10  2  0  0  0  0
 23  4  1  0  0  0  0
 24 22  1  0  0  0  0
 25 14  1  6  0  0  0
 25 17  1  0  0  0  0
 26  1  2  0  0  0  0
 28 29  1  0  0  0  0
 30 34  1  0  0  0  0
 31 32  1  0  0  0  0
 32 29  1  6  0  0  0
 33 30  1  0  0  0  0
 33 31  1  0  0  0  0
 34 32  1  0  0  0  0
M  END
>  <MODEL>
1

>  <REMARK>
 VINA RESULT:      -8.3      0.000      0.000
  Name = 
  3 active torsions:
  status: ('A' for Active; 'I' for Inactive)
    1  A    between atoms: C_17  and  O_28
    2  A    between atoms: O_28  and  C_29
    3  A    between atoms: C_29  and  C_32
                            x       y       z     vdW  Elec       q    Type
                         _______ _______ _______ _____ _____    ______ ____

>  <TORSDO>
F 3

$$$$
=
 OpenBabel11112417453D

 34 40  0  0  1  0  0  0  0  0999 V2000
  192.2270  176.2390  145.6800 C   0  0  0  0  0  0  0  0  0  0  0  0
  190.1030  177.0780  146.7970 C   0  0  0  0  0  2  0  0  0  0  0  0
  195.9940  174.8940  140.5120 C   0  0  0  0  0  0  0  0  0  0  0  0
  194.1850  175.7060  144.3760 C   0  0  0  0  0  0  0  0  0  0  0  0
  193.9110  174.6460  142.0370 C   0  0  2  0  0  3  0  0  0  0  0  0
  193.9850  173.6690  139.7310 C   0  0  0  0  0  1  0  0  0  0  0  0
  196.4840  175.6650  139.6470 O   0  0  0  0  0  0  0  0  0  0  0  0
  196.4070  173.2410  142.3930 C   0  0  0  0  0  2  0  0  0  0  0  0
  189.9180  175.5880  144.9030 C   0  0  2  0  0  3  0  0  0  0  0  0
  187.7690  176.6870  142.7410 C   0  0  0  0  0  3  0  0  0  0  0  0
  192.5420  175.3180  142.0820 C   0  0  0  0  0  2  0  0  0  0  0  0
  195.8510  174.0500  143.5660 C   0  0  0  0  0  2  0  0  0  0  0  0
  190.4810  175.6710  143.4750 C   0  0  1  0  0  3  0  0  0  0  0  0
  188.6270  176.8680  146.5030 C   0  0  0  0  0  2  0  0  0  0  0  0
  194.8660  175.1500  143.1470 C   0  0  2  0  0  3  0  0  0  0  0  0
  196.8770  174.1190  141.3320 N   0  0  0  0  0  2  0  0  0  0  0  0
  188.2260  177.2990  144.0410 C   0  0  2  0  0  3  0  0  0  0  0  0
  192.7860  175.6970  144.5120 C   0  0  0  0  0  0  0  0  0  0  0  0
  194.4920  174.7910  140.6190 C   0  0  2  0  0  3  0  0  0  0  0  0
  191.9040  175.0900  143.4450 C   0  0  2  0  0  3  0  0  0  0  0  0
  194.3820  176.8030  146.4700 C   0  0  0  0  0  3  0  0  0  0  0  0
  188.3680  175.6790  142.0830 C   0  0  0  0  0  3  0  0  0  0  0  0
  194.9450  176.2690  145.3540 N   0  0  0  0  0  0  0  0  0  0  0  0
  189.5650  174.8890  142.5450 C   0  0  0  0  0  2  0  0  0  0  0  0
  188.5390  176.2350  145.1110 C   0  0  1  0  0  3  0  0  0  0  0  0
  193.0330  176.7860  146.6280 N   0  0  0  0  0  0  0  0  0  0  0  0
  190.8040  176.2500  145.8400 N   0  0  0  0  0  0  0  0  0  0  0  0
  187.2420  178.1850  144.4890 O   0  0  0  0  0  0  0  0  0  0  0  0
  186.0350  177.5120  144.2890 C   0  0  0  0  0  2  0  0  0  0  0  0
  185.5880  177.5150  147.5180 O   0  0  0  0  0  0  0  0  0  0  0  0
  185.4790  179.2650  145.9400 C   0  0  0  0  0  2  0  0  0  0  0  0
  184.9940  178.0080  145.2780 C   0  0  2  0  0  3  0  0  0  0  0  0
  185.5190  178.9100  147.4070 C   0  0  0  0  0  2  0  0  0  0  0  0
  184.8710  177.0220  146.4170 C   0  0  0  0  0  2  0  0  0  0  0  0
  1 27  1  0  0  0  0
  1 26  1  0  0  0  0
  3 19  1  0  0  0  0
  3 16  1  0  0  0  0
  4 18  1  0  0  0  0
  4 23  2  0  0  0  0
  5 11  1  6  0  0  0
  5 15  1  0  0  0  0
  7  3  2  0  0  0  0
  8 12  1  0  0  0  0
  9 25  1  0  0  0  0
  9 27  1  1  0  0  0
 10 17  1  0  0  0  0
 13 24  1  6  0  0  0
 13  9  1  0  0  0  0
 14  2  1  0  0  0  0
 15 12  1  1  0  0  0
 15  4  1  0  0  0  0
 16  8  1  0  0  0  0
 17 28  1  1  0  0  0
 17 25  1  0  0  0  0
 18  1  2  0  0  0  0
 19  6  1  6  0  0  0
 19  5  1  0  0  0  0
 20 11  1  6  0  0  0
 20 13  1  0  0  0  0
 20 18  1  0  0  0  0
 21 26  2  0  0  0  0
 22 24  1  0  0  0  0
 22 10  2  0  0  0  0
 23 21  1  0  0  0  0
 25 14  1  1  0  0  0
 27  2  1  0  0  0  0
 29 28  1  0  0  0  0
 31 33  1  0  0  0  0
 32 29  1  6  0  0  0
 32 31  1  0  0  0  0
 32 34  1  0  0  0  0
 33 30  1  0  0  0  0
 34 30  1  0  0  0  0
M  END
>  <MODEL>
2

>  <REMARK>
 VINA RESULT:      -8.1      2.153      3.892
  Name = 
  3 active torsions:
  status: ('A' for Active; 'I' for Inactive)
    1  A    between atoms: C_17  and  O_28
    2  A    between atoms: O_28  and  C_29
    3  A    between atoms: C_29  and  C_32
                            x       y       z     vdW  Elec       q    Type
                         _______ _______ _______ _____ _____    ______ ____

>  <TORSDO>
F 3

$$$$
=
 OpenBabel11112417453D

 34 40  0  0  1  0  0  0  0  0999 V2000
  190.4190  176.2740  146.2730 C   0  0  0  0  0  0  0  0  0  0  0  0
  187.9130  176.6770  146.4080 C   0  0  0  0  0  2  0  0  0  0  0  0
  196.1630  176.0680  143.1630 C   0  0  0  0  0  0  0  0  0  0  0  0
  192.8010  176.1720  145.9120 C   0  0  0  0  0  0  0  0  0  0  0  0
  193.7130  175.3590  143.6350 C   0  0  2  0  0  3  0  0  0  0  0  0
  194.9060  174.6740  141.5420 C   0  0  0  0  0  1  0  0  0  0  0  0
  196.8250  176.9940  142.6280 O   0  0  0  0  0  0  0  0  0  0  0  0
  196.0390  174.2830  144.9630 C   0  0  0  0  0  2  0  0  0  0  0  0
  188.7930  175.4030  144.5530 C   0  0  2  0  0  3  0  0  0  0  0  0
  187.5810  176.4340  141.7310 C   0  0  0  0  0  3  0  0  0  0  0  0
  192.3550  175.8250  143.1190 C   0  0  0  0  0  2  0  0  0  0  0  0
  194.9150  174.8670  145.8190 C   0  0  0  0  0  2  0  0  0  0  0  0
  189.8750  175.7260  143.5100 C   0  0  1  0  0  3  0  0  0  0  0  0
  186.7530  176.2990  145.5020 C   0  0  0  0  0  2  0  0  0  0  0  0
  194.0170  175.8600  145.0690 C   0  0  2  0  0  3  0  0  0  0  0  0
  196.7460  175.3340  144.2460 N   0  0  0  0  0  2  0  0  0  0  0  0
  187.3430  176.9500  143.1280 C   0  0  2  0  0  3  0  0  0  0  0  0
  191.4970  175.9530  145.4340 C   0  0  0  0  0  0  0  0  0  0  0  0
  194.7950  175.7460  142.6110 C   0  0  2  0  0  3  0  0  0  0  0  0
  191.2590  175.3560  144.0660 C   0  0  2  0  0  3  0  0  0  0  0  0
  191.9160  177.0370  147.9340 C   0  0  0  0  0  3  0  0  0  0  0  0
  188.5650  175.6020  141.3480 C   0  0  0  0  0  3  0  0  0  0  0  0
  192.9760  176.7180  147.1450 N   0  0  0  0  0  0  0  0  0  0  0  0
  189.5790  174.9370  142.2430 C   0  0  0  0  0  2  0  0  0  0  0  0
  187.3640  175.8240  144.1790 C   0  0  1  0  0  3  0  0  0  0  0  0
  190.6500  176.8150  147.4980 N   0  0  0  0  0  0  0  0  0  0  0  0
  189.0800  176.0700  145.8080 N   0  0  0  0  0  0  0  0  0  0  0  0
  186.1240  177.6340  143.1500 O   0  0  0  0  0  0  0  0  0  0  0  0
  186.4710  178.9850  143.2340 C   0  0  0  0  0  2  0  0  0  0  0  0
  183.9460  178.2670  145.1680 O   0  0  0  0  0  0  0  0  0  0  0  0
  185.8080  179.6750  145.5130 C   0  0  0  0  0  2  0  0  0  0  0  0
  185.4400  179.7350  144.0590 C   0  0  2  0  0  3  0  0  0  0  0  0
  184.6280  178.9880  146.1570 C   0  0  0  0  0  2  0  0  0  0  0  0
  184.1150  179.0110  143.9890 C   0  0  0  0  0  2  0  0  0  0  0  0
  1 26  1  0  0  0  0
  3 16  1  0  0  0  0
  4 23  2  0  0  0  0
  5 11  1  6  0  0  0
  5 15  1  0  0  0  0
  7  3  2  0  0  0  0
  8 12  1  0  0  0  0
  9 27  1  1  0  0  0
 10 17  1  0  0  0  0
 13 24  1  6  0  0  0
 13 20  1  0  0  0  0
 13  9  1  0  0  0  0
 14  2  1  0  0  0  0
 15 12  1  1  0  0  0
 15  4  1  0  0  0  0
 16  8  1  0  0  0  0
 17 28  1  6  0  0  0
 17 25  1  0  0  0  0
 18  4  1  0  0  0  0
 18  1  2  0  0  0  0
 19  6  1  6  0  0  0
 19  3  1  0  0  0  0
 19  5  1  0  0  0  0
 20 11  1  6  0  0  0
 20 18  1  0  0  0  0
 22 10  2  0  0  0  0
 22 24  1  0  0  0  0
 23 21  1  0  0  0  0
 25  9  1  0  0  0  0
 25 14  1  1  0  0  0
 26 21  2  0  0  0  0
 27  1  1  0  0  0  0
 27  2  1  0  0  0  0
 28 29  1  0  0  0  0
 30 33  1  0  0  0  0
 31 33  1  0  0  0  0
 32 29  1  6  0  0  0
 32 31  1  0  0  0  0
 34 32  1  0  0  0  0
 34 30  1  0  0  0  0
M  END
>  <MODEL>
3

>  <REMARK>
 VINA RESULT:      -7.9      2.333      4.002
  Name = 
  3 active torsions:
  status: ('A' for Active; 'I' for Inactive)
    1  A    between atoms: C_17  and  O_28
    2  A    between atoms: O_28  and  C_29
    3  A    between atoms: C_29  and  C_32
                            x       y       z     vdW  Elec       q    Type
                         _______ _______ _______ _____ _____    ______ ____

>  <TORSDO>
F 3

$$$$
=
 OpenBabel11112417453D

 34 40  0  0  1  0  0  0  0  0999 V2000
  192.2170  175.9390  145.9250 C   0  0  0  0  0  0  0  0  0  0  0  0
  190.0120  176.4700  147.0720 C   0  0  0  0  0  2  0  0  0  0  0  0
  196.0310  175.0110  140.7000 C   0  0  0  0  0  0  0  0  0  0  0  0
  194.2040  175.6770  144.5840 C   0  0  0  0  0  0  0  0  0  0  0  0
  194.0520  174.4920  142.2940 C   0  0  2  0  0  3  0  0  0  0  0  0
  194.2290  173.4480  140.0240 C   0  0  0  0  0  1  0  0  0  0  0  0
  196.3690  175.8150  139.7940 O   0  0  0  0  0  0  0  0  0  0  0  0
  196.7500  173.5240  142.6270 C   0  0  0  0  0  2  0  0  0  0  0  0
  190.0260  174.8940  145.2400 C   0  0  2  0  0  3  0  0  0  0  0  0
  187.6780  175.5430  143.1050 C   0  0  0  0  0  3  0  0  0  0  0  0
  192.5930  174.9360  142.3540 C   0  0  0  0  0  2  0  0  0  0  0  0
  196.0980  174.2800  143.7850 C   0  0  0  0  0  2  0  0  0  0  0  0
  190.5360  175.0080  143.7940 C   0  0  1  0  0  3  0  0  0  0  0  0
  188.5830  176.0130  146.8300 C   0  0  0  0  0  2  0  0  0  0  0  0
  194.9380  175.1890  143.3560 C   0  0  2  0  0  3  0  0  0  0  0  0
  197.0460  174.4230  141.5210 N   0  0  0  0  0  2  0  0  0  0  0  0
  188.0600  176.2730  144.3670 C   0  0  2  0  0  3  0  0  0  0  0  0
  192.8290  175.4480  144.7610 C   0  0  0  0  0  0  0  0  0  0  0  0
  194.5680  174.6720  140.8550 C   0  0  2  0  0  3  0  0  0  0  0  0
  192.0330  174.6640  143.7430 C   0  0  2  0  0  3  0  0  0  0  0  0
  194.2690  176.8750  146.6300 C   0  0  0  0  0  3  0  0  0  0  0  0
  188.4180  174.6200  142.4650 C   0  0  0  0  0  3  0  0  0  0  0  0
  194.8860  176.3950  145.5180 N   0  0  0  0  0  0  0  0  0  0  0  0
  189.7370  174.0520  142.9210 C   0  0  0  0  0  2  0  0  0  0  0  0
  188.5660  175.3180  145.4650 C   0  0  1  0  0  3  0  0  0  0  0  0
  192.9460  176.6470  146.8280 N   0  0  0  0  0  0  0  0  0  0  0  0
  190.8150  175.7280  146.1260 N   0  0  0  0  0  0  0  0  0  0  0  0
  186.9560  177.0070  144.8120 O   0  0  0  0  0  0  0  0  0  0  0  0
  187.0050  178.2010  144.0890 C   0  0  0  0  0  2  0  0  0  0  0  0
  183.8260  178.8680  144.3720 O   0  0  0  0  0  0  0  0  0  0  0  0
  185.5190  178.6800  146.0050 C   0  0  0  0  0  2  0  0  0  0  0  0
  186.1330  179.2490  144.7590 C   0  0  2  0  0  3  0  0  0  0  0  0
  184.0330  178.7800  145.7550 C   0  0  0  0  0  2  0  0  0  0  0  0
  184.9450  179.5560  143.8760 C   0  0  0  0  0  2  0  0  0  0  0  0
  1 27  1  0  0  0  0
  1 26  1  0  0  0  0
  3 19  1  0  0  0  0
  3 16  1  0  0  0  0
  4 18  1  0  0  0  0
  4 23  2  0  0  0  0
  5 11  1  6  0  0  0
  5 15  1  0  0  0  0
  7  3  2  0  0  0  0
  8 12  1  0  0  0  0
  9 25  1  0  0  0  0
  9 27  1  1  0  0  0
 10 17  1  0  0  0  0
 13 24  1  6  0  0  0
 13  9  1  0  0  0  0
 14  2  1  0  0  0  0
 15 12  1  1  0  0  0
 15  4  1  0  0  0  0
 16  8  1  0  0  0  0
 17 28  1  1  0  0  0
 17 25  1  0  0  0  0
 18  1  2  0  0  0  0
 19  6  1  6  0  0  0
 19  5  1  0  0  0  0
 20 11  1  6  0  0  0
 20 13  1  0  0  0  0
 20 18  1  0  0  0  0
 21 26  2  0  0  0  0
 22 24  1  0  0  0  0
 22 10  2  0  0  0  0
 23 21  1  0  0  0  0
 25 14  1  1  0  0  0
 27  2  1  0  0  0  0
 29 28  1  0  0  0  0
 30 33  1  0  0  0  0
 32 29  1  6  0  0  0
 32 31  1  0  0  0  0
 33 31  1  0  0  0  0
 34 30  1  0  0  0  0
 34 32  1  0  0  0  0
M  END
>  <MODEL>
4

>  <REMARK>
 VINA RESULT:      -7.9      2.262      3.960
  Name = 
  3 active torsions:
  status: ('A' for Active; 'I' for Inactive)
    1  A    between atoms: C_17  and  O_28
    2  A    between atoms: O_28  and  C_29
    3  A    between atoms: C_29  and  C_32
                            x       y       z     vdW  Elec       q    Type
                         _______ _______ _______ _____ _____    ______ ____

>  <TORSDO>
F 3

$$$$
=
 OpenBabel11112417453D

 34 40  0  0  1  0  0  0  0  0999 V2000
  189.9680  176.3470  146.3390 C   0  0  0  0  0  0  0  0  0  0  0  0
  187.5090  176.9670  146.5070 C   0  0  0  0  0  2  0  0  0  0  0  0
  195.6970  175.8850  143.2300 C   0  0  0  0  0  0  0  0  0  0  0  0
  192.3340  176.0560  145.9730 C   0  0  0  0  0  0  0  0  0  0  0  0
  193.1880  175.3690  143.6340 C   0  0  2  0  0  3  0  0  0  0  0  0
  194.3330  174.7650  141.4890 C   0  0  0  0  0  1  0  0  0  0  0  0
  196.4470  176.7890  142.7810 O   0  0  0  0  0  0  0  0  0  0  0  0
  195.3910  173.9660  144.8630 C   0  0  0  0  0  2  0  0  0  0  0  0
  188.2850  175.7880  144.5460 C   0  0  2  0  0  3  0  0  0  0  0  0
  187.2000  177.1750  141.8260 C   0  0  0  0  0  3  0  0  0  0  0  0
  191.8840  176.0030  143.1600 C   0  0  0  0  0  2  0  0  0  0  0  0
  194.3180  174.5740  145.7670 C   0  0  0  0  0  2  0  0  0  0  0  0
  189.4020  176.1010  143.5370 C   0  0  1  0  0  3  0  0  0  0  0  0
  186.3280  176.7820  145.5680 C   0  0  0  0  0  2  0  0  0  0  0  0
  193.5230  175.7090  145.1080 C   0  0  2  0  0  3  0  0  0  0  0  0
  196.1990  175.0060  144.2440 N   0  0  0  0  0  2  0  0  0  0  0  0
  186.9980  177.5840  143.2630 C   0  0  2  0  0  3  0  0  0  0  0  0
  191.0200  176.0030  145.4760 C   0  0  0  0  0  0  0  0  0  0  0  0
  194.3110  175.7430  142.6500 C   0  0  2  0  0  3  0  0  0  0  0  0
  190.7400  175.5550  144.0600 C   0  0  2  0  0  3  0  0  0  0  0  0
  191.5130  176.8150  148.0640 C   0  0  0  0  0  3  0  0  0  0  0  0
  188.1070  176.2930  141.3710 C   0  0  0  0  0  3  0  0  0  0  0  0
  192.5460  176.4710  147.2510 N   0  0  0  0  0  0  0  0  0  0  0  0
  189.0460  175.4590  142.2040 C   0  0  0  0  0  2  0  0  0  0  0  0
  186.9040  176.3720  144.2100 C   0  0  1  0  0  3  0  0  0  0  0  0
  190.2360  176.7520  147.6080 N   0  0  0  0  0  0  0  0  0  0  0  0
  188.6200  176.3100  145.8560 N   0  0  0  0  0  0  0  0  0  0  0  0
  185.8470  178.3740  143.3460 O   0  0  0  0  0  0  0  0  0  0  0  0
  184.8850  177.6850  142.6030 C   0  0  0  0  0  2  0  0  0  0  0  0
  182.7550  177.6220  140.1350 O   0  0  0  0  0  0  0  0  0  0  0  0
  182.5780  178.5230  142.3080 C   0  0  0  0  0  2  0  0  0  0  0  0
  184.0020  178.6710  141.8560 C   0  0  2  0  0  3  0  0  0  0  0  0
  181.8340  178.1530  141.0480 C   0  0  0  0  0  2  0  0  0  0  0  0
  183.9580  178.2980  140.3920 C   0  0  0  0  0  2  0  0  0  0  0  0
  1 26  1  0  0  0  0
  3 16  1  0  0  0  0
  4 23  2  0  0  0  0
  5 11  1  6  0  0  0
  5 15  1  0  0  0  0
  7  3  2  0  0  0  0
  8 12  1  0  0  0  0
  9 27  1  1  0  0  0
 10 17  1  0  0  0  0
 13 24  1  6  0  0  0
 13 20  1  0  0  0  0
 13  9  1  0  0  0  0
 14  2  1  0  0  0  0
 15 12  1  1  0  0  0
 15  4  1  0  0  0  0
 16  8  1  0  0  0  0
 17 28  1  6  0  0  0
 17 25  1  0  0  0  0
 18  4  1  0  0  0  0
 18  1  2  0  0  0  0
 19  6  1  6  0  0  0
 19  3  1  0  0  0  0
 19  5  1  0  0  0  0
 20 11  1  6  0  0  0
 20 18  1  0  0  0  0
 22 10  2  0  0  0  0
 22 24  1  0  0  0  0
 23 21  1  0  0  0  0
 25  9  1  0  0  0  0
 25 14  1  1  0  0  0
 26 21  2  0  0  0  0
 27  1  1  0  0  0  0
 27  2  1  0  0  0  0
 29 28  1  0  0  0  0
 30 34  1  0  0  0  0
 30 33  1  0  0  0  0
 32 31  1  0  0  0  0
 32 29  1  1  0  0  0
 33 31  1  0  0  0  0
 34 32  1  0  0  0  0
M  END
>  <MODEL>
5

>  <REMARK>
 VINA RESULT:      -7.9      2.803      4.424
  Name = 
  3 active torsions:
  status: ('A' for Active; 'I' for Inactive)
    1  A    between atoms: C_17  and  O_28
    2  A    between atoms: O_28  and  C_29
    3  A    between atoms: C_29  and  C_32
                            x       y       z     vdW  Elec       q    Type
                         _______ _______ _______ _____ _____    ______ ____

>  <TORSDO>
F 3

$$$$
=
 OpenBabel11112417453D

 34 40  0  0  1  0  0  0  0  0999 V2000
  189.2420  174.5650  142.5780 C   0  0  0  0  0  0  0  0  0  0  0  0
  187.8750  176.5980  143.2580 C   0  0  0  0  0  2  0  0  0  0  0  0
  193.2100  169.5090  143.7590 C   0  0  0  0  0  0  0  0  0  0  0  0
  190.4400  172.4970  142.2550 C   0  0  0  0  0  0  0  0  0  0  0  0
  192.5570  172.0170  143.6550 C   0  0  2  0  0  3  0  0  0  0  0  0
  194.5960  171.2320  144.8800 C   0  0  0  0  0  1  0  0  0  0  0  0
  193.0200  168.4790  144.4570 O   0  0  0  0  0  0  0  0  0  0  0  0
  193.6480  170.4920  141.4600 C   0  0  0  0  0  2  0  0  0  0  0  0
  190.1280  176.3690  144.1010 C   0  0  2  0  0  3  0  0  0  0  0  0
  190.2520  176.8960  147.2960 C   0  0  0  0  0  3  0  0  0  0  0  0
  191.9180  172.9890  144.6410 C   0  0  0  0  0  2  0  0  0  0  0  0
  192.3280  171.2340  141.2480 C   0  0  0  0  0  2  0  0  0  0  0  0
  190.8220  175.2380  144.8770 C   0  0  1  0  0  3  0  0  0  0  0  0
  188.1600  177.7780  144.1710 C   0  0  0  0  0  2  0  0  0  0  0  0
  191.5790  171.5470  142.5490 C   0  0  2  0  0  3  0  0  0  0  0  0
  193.4700  169.3600  142.3580 N   0  0  0  0  0  2  0  0  0  0  0  0
  189.0670  176.8990  146.3640 C   0  0  2  0  0  3  0  0  0  0  0  0
  190.3320  173.7410  142.9000 C   0  0  0  0  0  0  0  0  0  0  0  0
  193.1930  170.8560  144.4400 C   0  0  2  0  0  3  0  0  0  0  0  0
  191.3780  174.1990  143.8900 C   0  0  2  0  0  3  0  0  0  0  0  0
  188.4190  172.9240  141.0910 C   0  0  0  0  0  3  0  0  0  0  0  0
  191.4740  176.4040  147.0260 C   0  0  0  0  0  3  0  0  0  0  0  0
  189.4740  172.1170  141.3750 N   0  0  0  0  0  0  0  0  0  0  0  0
  191.9450  175.8380  145.7110 C   0  0  0  0  0  2  0  0  0  0  0  0
  189.4240  177.4290  144.9630 C   0  0  1  0  0  3  0  0  0  0  0  0
  188.3070  174.1370  141.6890 N   0  0  0  0  0  0  0  0  0  0  0  0
  189.1030  175.8340  143.2270 N   0  0  0  0  0  0  0  0  0  0  0  0
  188.0450  177.6590  146.9430 O   0  0  0  0  0  0  0  0  0  0  0  0
  187.0560  176.7330  147.2820 C   0  0  0  0  0  2  0  0  0  0  0  0
  185.5680  179.3900  146.1190 O   0  0  0  0  0  0  0  0  0  0  0  0
  184.8380  177.1520  146.2750 C   0  0  0  0  0  2  0  0  0  0  0  0
  185.7220  177.4380  147.4540 C   0  0  2  0  0  3  0  0  0  0  0  0
  184.5600  178.5170  145.6910 C   0  0  0  0  0  2  0  0  0  0  0  0
  185.9320  178.9340  147.3960 C   0  0  0  0  0  2  0  0  0  0  0  0
  1 18  1  0  0  0  0
  1 27  1  0  0  0  0
  2 14  1  0  0  0  0
  3 19  1  0  0  0  0
  3  7  2  0  0  0  0
  4 15  1  0  0  0  0
  4 18  2  0  0  0  0
  5 19  1  0  0  0  0
  5 11  1  1  0  0  0
  8 16  1  0  0  0  0
  9 27  1  6  0  0  0
  9 13  1  0  0  0  0
  9 25  1  0  0  0  0
 12  8  1  0  0  0  0
 13 24  1  6  0  0  0
 15 12  1  6  0  0  0
 15  5  1  0  0  0  0
 16  3  1  0  0  0  0
 17 28  1  1  0  0  0
 17 10  1  0  0  0  0
 18 20  1  0  0  0  0
 19  6  1  6  0  0  0
 20 11  1  1  0  0  0
 20 13  1  0  0  0  0
 21 23  2  0  0  0  0
 21 26  1  0  0  0  0
 22 10  2  0  0  0  0
 23  4  1  0  0  0  0
 24 22  1  0  0  0  0
 25 14  1  6  0  0  0
 25 17  1  0  0  0  0
 26  1  2  0  0  0  0
 27  2  1  0  0  0  0
 28 29  1  0  0  0  0
 30 34  1  0  0  0  0
 31 32  1  0  0  0  0
 32 29  1  6  0  0  0
 33 30  1  0  0  0  0
 33 31  1  0  0  0  0
 34 32  1  0  0  0  0
M  END
>  <MODEL>
6

>  <REMARK>
 VINA RESULT:      -7.9      2.314      2.587
  Name = 
  3 active torsions:
  status: ('A' for Active; 'I' for Inactive)
    1  A    between atoms: C_17  and  O_28
    2  A    between atoms: O_28  and  C_29
    3  A    between atoms: C_29  and  C_32
                            x       y       z     vdW  Elec       q    Type
                         _______ _______ _______ _____ _____    ______ ____

>  <TORSDO>
F 3

$$$$
=
 OpenBabel11112417453D

 34 40  0  0  1  0  0  0  0  0999 V2000
  192.1150  175.8980  146.0390 C   0  0  0  0  0  0  0  0  0  0  0  0
  189.9720  177.2400  146.2990 C   0  0  0  0  0  2  0  0  0  0  0  0
  196.3280  172.1690  142.7150 C   0  0  0  0  0  0  0  0  0  0  0  0
  194.1510  174.7480  145.4490 C   0  0  0  0  0  0  0  0  0  0  0  0
  194.0580  172.7360  143.8320 C   0  0  2  0  0  3  0  0  0  0  0  0
  194.3120  170.8000  142.2630 C   0  0  0  0  0  1  0  0  0  0  0  0
  197.0030  172.4330  141.6860 O   0  0  0  0  0  0  0  0  0  0  0  0
  196.3240  171.5620  145.1790 C   0  0  0  0  0  2  0  0  0  0  0  0
  189.8640  175.0500  145.2820 C   0  0  2  0  0  3  0  0  0  0  0  0
  188.1310  175.1030  142.5450 C   0  0  0  0  0  3  0  0  0  0  0  0
  192.7740  173.4030  143.3480 C   0  0  0  0  0  2  0  0  0  0  0  0
  195.7180  172.8430  145.7530 C   0  0  0  0  0  2  0  0  0  0  0  0
  190.6060  174.4400  144.0820 C   0  0  1  0  0  3  0  0  0  0  0  0
  188.5300  176.9740  145.9010 C   0  0  0  0  0  2  0  0  0  0  0  0
  194.9160  173.6600  144.7310 C   0  0  2  0  0  3  0  0  0  0  0  0
  197.0140  171.8290  143.9250 N   0  0  0  0  0  2  0  0  0  0  0  0
  188.4870  176.2300  143.4820 C   0  0  2  0  0  3  0  0  0  0  0  0
  192.7530  174.8560  145.3480 C   0  0  0  0  0  0  0  0  0  0  0  0
  194.8220  172.1850  142.6150 C   0  0  2  0  0  3  0  0  0  0  0  0
  191.9510  173.8580  144.5460 C   0  0  2  0  0  3  0  0  0  0  0  0
  194.2030  176.6810  146.8210 C   0  0  0  0  0  3  0  0  0  0  0  0
  188.6960  173.8830  142.5190 C   0  0  0  0  0  3  0  0  0  0  0  0
  194.8400  175.6710  146.1740 N   0  0  0  0  0  0  0  0  0  0  0  0
  189.7330  173.3520  143.4740 C   0  0  0  0  0  2  0  0  0  0  0  0
  188.5480  175.7720  144.9520 C   0  0  1  0  0  3  0  0  0  0  0  0
  192.8520  176.7910  146.7520 N   0  0  0  0  0  0  0  0  0  0  0  0
  190.6930  176.0360  145.9460 N   0  0  0  0  0  0  0  0  0  0  0  0
  187.5560  177.2600  143.3170 O   0  0  0  0  0  0  0  0  0  0  0  0
  186.3210  176.6140  143.2140 C   0  0  0  0  0  2  0  0  0  0  0  0
  185.6080  178.9490  145.3750 O   0  0  0  0  0  0  0  0  0  0  0  0
  185.6090  178.9730  143.0160 C   0  0  0  0  0  2  0  0  0  0  0  0
  185.1960  177.6020  143.4690 C   0  0  2  0  0  3  0  0  0  0  0  0
  185.5310  179.8080  144.2710 C   0  0  0  0  0  2  0  0  0  0  0  0
  184.9910  177.7590  144.9580 C   0  0  0  0  0  2  0  0  0  0  0  0
  1 26  1  0  0  0  0
  3 16  1  0  0  0  0
  4 23  2  0  0  0  0
  5 11  1  6  0  0  0
  5 15  1  0  0  0  0
  7  3  2  0  0  0  0
  8 12  1  0  0  0  0
  9 27  1  6  0  0  0
 10 17  1  0  0  0  0
 13 24  1  1  0  0  0
 13 20  1  0  0  0  0
 13  9  1  0  0  0  0
 14  2  1  0  0  0  0
 15  4  1  0  0  0  0
 15 12  1  1  0  0  0
 16  8  1  0  0  0  0
 17 28  1  1  0  0  0
 17 25  1  0  0  0  0
 18  4  1  0  0  0  0
 18  1  2  0  0  0  0
 19  6  1  1  0  0  0
 19  3  1  0  0  0  0
 19  5  1  0  0  0  0
 20 11  1  6  0  0  0
 20 18  1  0  0  0  0
 22 10  2  0  0  0  0
 22 24  1  0  0  0  0
 23 21  1  0  0  0  0
 25  9  1  0  0  0  0
 25 14  1  1  0  0  0
 26 21  2  0  0  0  0
 27  1  1  0  0  0  0
 27  2  1  0  0  0  0
 29 28  1  0  0  0  0
 31 32  1  0  0  0  0
 31 33  1  0  0  0  0
 32 29  1  1  0  0  0
 32 34  1  0  0  0  0
 33 30  1  0  0  0  0
 34 30  1  0  0  0  0
M  END
>  <MODEL>
7

>  <REMARK>
 VINA RESULT:      -7.7      2.405      4.230
  Name = 
  3 active torsions:
  status: ('A' for Active; 'I' for Inactive)
    1  A    between atoms: C_17  and  O_28
    2  A    between atoms: O_28  and  C_29
    3  A    between atoms: C_29  and  C_32
                            x       y       z     vdW  Elec       q    Type
                         _______ _______ _______ _____ _____    ______ ____

>  <TORSDO>
F 3

$$$$
=
 OpenBabel11112417453D

 34 40  0  0  1  0  0  0  0  0999 V2000
  187.8900  175.3670  140.6910 C   0  0  0  0  0  0  0  0  0  0  0  0
  188.4440  174.1560  138.5260 C   0  0  0  0  0  2  0  0  0  0  0  0
  189.0220  177.1120  146.8860 C   0  0  0  0  0  0  0  0  0  0  0  0
  187.7240  176.5650  142.7780 C   0  0  0  0  0  0  0  0  0  0  0  0
  188.5340  175.4450  144.9600 C   0  0  2  0  0  3  0  0  0  0  0  0
  189.2740  174.6690  147.2240 C   0  0  0  0  0  1  0  0  0  0  0  0
  189.9620  177.7900  147.3760 O   0  0  0  0  0  0  0  0  0  0  0  0
  186.5320  176.9060  146.4400 C   0  0  0  0  0  2  0  0  0  0  0  0
  188.6400  172.9600  140.6170 C   0  0  2  0  0  3  0  0  0  0  0  0
  191.4560  171.3690  140.8090 C   0  0  0  0  0  3  0  0  0  0  0  0
  189.4100  174.6300  144.0140 C   0  0  0  0  0  2  0  0  0  0  0  0
  186.5400  177.0200  144.9150 C   0  0  0  0  0  2  0  0  0  0  0  0
  189.4250  173.2670  141.9040 C   0  0  1  0  0  3  0  0  0  0  0  0
  188.9420  172.7520  138.2230 C   0  0  0  0  0  2  0  0  0  0  0  0
  187.8920  176.6780  144.2760 C   0  0  2  0  0  3  0  0  0  0  0  0
  187.6790  177.5910  147.0180 N   0  0  0  0  0  2  0  0  0  0  0  0
  190.9270  172.2620  139.7150 C   0  0  2  0  0  3  0  0  0  0  0  0
  188.0690  175.3930  142.0830 C   0  0  0  0  0  0  0  0  0  0  0  0
  189.3510  175.8000  146.2150 C   0  0  2  0  0  3  0  0  0  0  0  0
  188.5870  174.1770  142.8170 C   0  0  2  0  0  3  0  0  0  0  0  0
  187.1190  177.6000  140.7320 C   0  0  0  0  0  3  0  0  0  0  0  0
  190.9700  171.2700  142.0590 C   0  0  0  0  0  3  0  0  0  0  0  0
  187.2680  177.6420  142.0820 N   0  0  0  0  0  0  0  0  0  0  0  0
  189.7430  171.9540  142.6030 C   0  0  0  0  0  2  0  0  0  0  0  0
  189.3990  172.1490  139.5550 C   0  0  1  0  0  3  0  0  0  0  0  0
  187.4280  176.4700  140.0460 N   0  0  0  0  0  0  0  0  0  0  0  0
  188.2420  174.1880  139.9580 N   0  0  0  0  0  0  0  0  0  0  0  0
  191.5810  171.9430  138.5210 O   0  0  0  0  0  0  0  0  0  0  0  0
  192.8070  172.6090  138.5940 C   0  0  0  0  0  2  0  0  0  0  0  0
  194.4660  175.2720  137.7100 O   0  0  0  0  0  0  0  0  0  0  0  0
  192.2890  174.5510  137.1570 C   0  0  0  0  0  2  0  0  0  0  0  0
  192.5840  174.1110  138.5610 C   0  0  2  0  0  3  0  0  0  0  0  0
  193.3960  175.5290  136.8440 C   0  0  0  0  0  2  0  0  0  0  0  0
  193.8750  174.8190  138.9000 C   0  0  0  0  0  2  0  0  0  0  0  0
  1 18  1  0  0  0  0
  2 27  1  0  0  0  0
  3 16  1  0  0  0  0
  3  7  2  0  0  0  0
  4 15  1  0  0  0  0
  5 11  1  6  0  0  0
  5 19  1  0  0  0  0
  8 16  1  0  0  0  0
  9 27  1  6  0  0  0
  9 13  1  0  0  0  0
 10 22  2  0  0  0  0
 12  8  1  0  0  0  0
 13 24  1  1  0  0  0
 13 20  1  0  0  0  0
 14  2  1  0  0  0  0
 15 12  1  1  0  0  0
 15  5  1  0  0  0  0
 17 28  1  6  0  0  0
 17 10  1  0  0  0  0
 18  4  2  0  0  0  0
 18 20  1  0  0  0  0
 19  3  1  0  0  0  0
 19  6  1  1  0  0  0
 20 11  1  1  0  0  0
 21 23  2  0  0  0  0
 22 24  1  0  0  0  0
 23  4  1  0  0  0  0
 25 14  1  6  0  0  0
 25 17  1  0  0  0  0
 25  9  1  0  0  0  0
 26  1  2  0  0  0  0
 26 21  1  0  0  0  0
 27  1  1  0  0  0  0
 28 29  1  0  0  0  0
 30 34  1  0  0  0  0
 31 32  1  0  0  0  0
 32 29  1  6  0  0  0
 32 34  1  0  0  0  0
 33 31  1  0  0  0  0
 33 30  1  0  0  0  0
M  END
>  <MODEL>
8

>  <REMARK>
 VINA RESULT:      -7.7      3.268      8.016
  Name = 
  3 active torsions:
  status: ('A' for Active; 'I' for Inactive)
    1  A    between atoms: C_17  and  O_28
    2  A    between atoms: O_28  and  C_29
    3  A    between atoms: C_29  and  C_32
                            x       y       z     vdW  Elec       q    Type
                         _______ _______ _______ _____ _____    ______ ____

>  <TORSDO>
F 3

$$$$
=
 OpenBabel11112417453D

 34 40  0  0  1  0  0  0  0  0999 V2000
  187.6340  175.6740  140.7030 C   0  0  0  0  0  0  0  0  0  0  0  0
  188.1940  174.6170  138.4600 C   0  0  0  0  0  2  0  0  0  0  0  0
  188.8710  177.1930  146.9370 C   0  0  0  0  0  0  0  0  0  0  0  0
  187.4590  176.7510  142.8530 C   0  0  0  0  0  0  0  0  0  0  0  0
  188.4340  175.5910  144.9450 C   0  0  2  0  0  3  0  0  0  0  0  0
  189.3170  174.7620  147.1380 C   0  0  0  0  0  1  0  0  0  0  0  0
  189.7760  177.9160  147.4280 O   0  0  0  0  0  0  0  0  0  0  0  0
  186.3880  176.8200  146.5670 C   0  0  0  0  0  2  0  0  0  0  0  0
  188.5590  173.3380  140.4770 C   0  0  2  0  0  3  0  0  0  0  0  0
  191.4910  171.9600  140.4890 C   0  0  0  0  0  3  0  0  0  0  0  0
  189.3320  174.8920  143.9280 C   0  0  0  0  0  2  0  0  0  0  0  0
  186.3280  177.0080  145.0510 C   0  0  0  0  0  2  0  0  0  0  0  0
  189.3670  173.6400  141.7500 C   0  0  1  0  0  3  0  0  0  0  0  0
  188.7830  173.2720  138.0670 C   0  0  0  0  0  2  0  0  0  0  0  0
  187.6770  176.8030  144.3480 C   0  0  2  0  0  3  0  0  0  0  0  0
  187.5010  177.5610  147.1400 N   0  0  0  0  0  2  0  0  0  0  0  0
  190.8550  172.8620  139.4620 C   0  0  2  0  0  3  0  0  0  0  0  0
  187.8640  175.6440  142.0870 C   0  0  0  0  0  0  0  0  0  0  0  0
  189.2700  175.9450  146.1880 C   0  0  2  0  0  3  0  0  0  0  0  0
  188.4990  174.4370  142.7380 C   0  0  2  0  0  3  0  0  0  0  0  0
  186.7000  177.8360  140.8860 C   0  0  0  0  0  3  0  0  0  0  0  0
  191.0620  171.7620  141.7480 C   0  0  0  0  0  3  0  0  0  0  0  0
  186.8980  177.8230  142.2310 N   0  0  0  0  0  0  0  0  0  0  0  0
  189.8090  172.3220  142.3690 C   0  0  0  0  0  2  0  0  0  0  0  0
  189.3340  172.6400  139.3490 C   0  0  1  0  0  3  0  0  0  0  0  0
  187.0670  176.7690  140.1320 N   0  0  0  0  0  0  0  0  0  0  0  0
  188.0450  174.5630  139.8970 N   0  0  0  0  0  0  0  0  0  0  0  0
  191.4840  172.6530  138.2310 O   0  0  0  0  0  0  0  0  0  0  0  0
  192.1000  171.4040  138.3510 C   0  0  0  0  0  2  0  0  0  0  0  0
  189.6910  170.4160  136.3900 O   0  0  0  0  0  0  0  0  0  0  0  0
  191.6910  171.5750  135.9190 C   0  0  0  0  0  2  0  0  0  0  0  0
  191.9560  170.6280  137.0530 C   0  0  2  0  0  3  0  0  0  0  0  0
  190.3510  171.1330  135.3830 C   0  0  0  0  0  2  0  0  0  0  0  0
  190.7100  169.7750  137.1120 C   0  0  0  0  0  2  0  0  0  0  0  0
  1 18  1  0  0  0  0
  2 27  1  0  0  0  0
  3 16  1  0  0  0  0
  3  7  2  0  0  0  0
  4 15  1  0  0  0  0
  5 11  1  6  0  0  0
  5 19  1  0  0  0  0
  8 16  1  0  0  0  0
  9 27  1  6  0  0  0
  9 13  1  0  0  0  0
 10 22  2  0  0  0  0
 12  8  1  0  0  0  0
 13 24  1  1  0  0  0
 13 20  1  0  0  0  0
 14  2  1  0  0  0  0
 15  5  1  0  0  0  0
 15 12  1  1  0  0  0
 17 28  1  6  0  0  0
 17 10  1  0  0  0  0
 18 20  1  0  0  0  0
 18  4  2  0  0  0  0
 19  3  1  0  0  0  0
 19  6  1  1  0  0  0
 20 11  1  1  0  0  0
 21 23  2  0  0  0  0
 22 24  1  0  0  0  0
 23  4  1  0  0  0  0
 25 14  1  6  0  0  0
 25 17  1  0  0  0  0
 25  9  1  0  0  0  0
 26  1  2  0  0  0  0
 26 21  1  0  0  0  0
 27  1  1  0  0  0  0
 28 29  1  0  0  0  0
 30 34  1  0  0  0  0
 31 32  1  0  0  0  0
 32 34  1  0  0  0  0
 32 29  1  1  0  0  0
 33 31  1  0  0  0  0
 33 30  1  0  0  0  0
M  END
>  <MODEL>
9

>  <REMARK>
 VINA RESULT:      -7.7      3.435      8.461
  Name = 
  3 active torsions:
  status: ('A' for Active; 'I' for Inactive)
    1  A    between atoms: C_17  and  O_28
    2  A    between atoms: O_28  and  C_29
    3  A    between atoms: C_29  and  C_32
                            x       y       z     vdW  Elec       q    Type
                         _______ _______ _______ _____ _____    ______ ____

>  <TORSDO>
F 3

$$$$
