=
 OpenBabel11112417143D

 37 42  0  0  1  0  0  0  0  0999 V2000
  189.4750  172.7840  138.7530 C   0  0  0  0  0  0  0  0  0  0  0  0
  188.0500  176.1300  140.8080 C   0  0  0  0  0  0  0  0  0  0  0  0
  186.4520  175.3400  143.1930 C   0  0  0  0  0  1  0  0  0  0  0  0
  187.9090  174.8020  138.8230 C   0  0  0  0  0  0  0  0  0  0  0  0
  188.6740  176.0450  142.1650 C   0  0  1  0  0  3  0  0  0  0  0  0
  188.4530  175.0730  140.0660 C   0  0  0  0  0  0  0  0  0  0  0  0
  187.6590  176.2720  143.2890 C   0  0  1  0  0  3  0  0  0  0  0  0
  186.9510  175.6450  138.3370 N   0  0  0  0  0  0  0  0  0  0  0  0
  189.2820  174.1880  140.7730 N   0  0  0  0  0  0  0  0  0  0  0  0
  190.7470  173.4250  138.2220 C   0  0  0  0  0  1  0  0  0  0  0  0
  186.4000  177.9940  141.2440 C   0  0  0  0  0  2  0  0  0  0  0  0
  186.5140  176.7220  139.0650 C   0  0  0  0  0  3  0  0  0  0  0  0
  189.4820  172.8230  140.2970 C   0  0  0  0  0  2  0  0  0  0  0  0
  187.0510  176.9900  140.3390 C   0  0  0  0  0  0  0  0  0  0  0  0
  189.3510  174.6390  142.1650 C   0  0  1  0  0  3  0  0  0  0  0  0
  188.2430  173.5000  138.1450 C   0  0  0  0  0  2  0  0  0  0  0  0
  187.2690  177.7680  143.3700 C   0  0  1  0  0  3  0  0  0  0  0  0
  189.4560  171.3360  138.3090 C   0  0  0  0  0  1  0  0  0  0  0  0
  187.3200  178.5210  142.1690 O   0  0  0  0  0  0  0  0  0  0  0  0
  191.4140  176.0750  142.8470 C   0  0  0  0  0  2  0  0  0  0  0  0
  191.9500  176.2570  144.1930 N   0  0  0  0  0  0  0  0  0  0  0  0
  190.7420  174.9000  145.7800 C   0  0  0  0  0  0  0  0  0  0  0  0
  190.8330  176.2420  145.1250 C   0  0  0  0  0  2  0  0  0  0  0  0
  190.5250  173.6370  144.9910 C   0  0  1  0  0  3  0  0  0  0  0  0
  189.1700  173.3270  144.8940 O   0  0  0  0  0  1  0  0  0  0  0  0
  191.2200  173.5810  143.6240 C   0  0  0  0  0  2  0  0  0  0  0  0
  190.8070  174.8320  146.9960 O   0  0  0  0  0  0  0  0  0  0  0  0
  190.8160  174.6740  142.6220 C   0  0  1  0  0  3  0  0  0  0  0  0
  191.4670  178.6110  143.8420 C   0  0  0  0  0  1  0  0  0  0  0  0
  192.5150  177.5940  144.2440 C   0  0  0  0  0  2  0  0  0  0  0  0
  184.9880  178.7500  143.8570 C   0  0  0  0  0  3  0  0  0  0  0  0
  186.1690  178.1480  144.3170 C   0  0  0  0  0  0  0  0  0  0  0  0
  186.3170  177.8710  145.6800 C   0  0  0  0  0  3  0  0  0  0  0  0
  185.4500  177.9310  147.8990 F   0  0  0  0  0  0  0  0  0  0  0  0
  184.1260  178.8040  146.1190 C   0  0  0  0  0  3  0  0  0  0  0  0
  185.2990  178.1990  146.5800 C   0  0  0  0  0  0  0  0  0  0  0  0
  183.9700  179.0790  144.7570 C   0  0  0  0  0  3  0  0  0  0  0  0
  1 13  1  0  0  0  0
  4  6  1  0  0  0  0
  5  2  1  6  0  0  0
  5 15  1  0  0  0  0
  5  7  1  0  0  0  0
  6  9  1  0  0  0  0
  6  2  2  0  0  0  0
  7  3  1  6  0  0  0
  7 17  1  0  0  0  0
  8  4  2  0  0  0  0
  8 12  1  0  0  0  0
 10  1  1  0  0  0  0
 11 19  1  0  0  0  0
 12 14  2  0  0  0  0
 13  9  1  0  0  0  0
 14  2  1  0  0  0  0
 14 11  1  0  0  0  0
 15  9  1  6  0  0  0
 15 28  1  0  0  0  0
 16  1  1  0  0  0  0
 16  4  1  0  0  0  0
 17 32  1  6  0  0  0
 18  1  1  0  0  0  0
 19 17  1  0  0  0  0
 20 21  1  0  0  0  0
 21 30  1  0  0  0  0
 21 23  1  0  0  0  0
 22 27  2  0  0  0  0
 23 22  1  0  0  0  0
 24 25  1  6  0  0  0
 24 22  1  0  0  0  0
 26 24  1  0  0  0  0
 28 20  1  1  0  0  0
 28 26  1  0  0  0  0
 29 30  1  0  0  0  0
 31 32  2  0  0  0  0
 31 37  1  0  0  0  0
 32 33  1  0  0  0  0
 33 36  2  0  0  0  0
 35 36  1  0  0  0  0
 36 34  1  0  0  0  0
 37 35  2  0  0  0  0
M  END
>  <MODEL>
1

>  <REMARK>
 VINA RESULT:      -7.8      0.000      0.000
  Name = 
  3 active torsions:
  status: ('A' for Active; 'I' for Inactive)
    1  A    between atoms: N_4  and  C_37
    2  A    between atoms: C_21  and  C_27
    3  A    between atoms: C_23  and  C_30
                            x       y       z     vdW  Elec       q    Type
                         _______ _______ _______ _____ _____    ______ ____

>  <TORSDO>
F 3

$$$$
=
 OpenBabel11112417143D

 37 42  0  0  1  0  0  0  0  0999 V2000
  195.6200  176.0670  142.5750 C   0  0  0  0  0  0  0  0  0  0  0  0
  192.2430  175.7710  145.0180 C   0  0  0  0  0  0  0  0  0  0  0  0
  190.0860  177.6150  144.1170 C   0  0  0  0  0  1  0  0  0  0  0  0
  194.5230  176.4780  144.8460 C   0  0  0  0  0  0  0  0  0  0  0  0
  191.1510  175.3000  144.1120 C   0  0  1  0  0  3  0  0  0  0  0  0
  193.3860  175.9030  144.3050 C   0  0  0  0  0  0  0  0  0  0  0  0
  189.8630  176.1120  144.2800 C   0  0  1  0  0  3  0  0  0  0  0  0
  194.4800  176.9030  146.1430 N   0  0  0  0  0  0  0  0  0  0  0  0
  193.2200  175.6180  142.9410 N   0  0  0  0  0  0  0  0  0  0  0  0
  196.0870  174.6300  142.7370 C   0  0  0  0  0  1  0  0  0  0  0  0
  190.8570  176.3400  147.0540 C   0  0  0  0  0  2  0  0  0  0  0  0
  193.3370  176.7910  146.8930 C   0  0  0  0  0  3  0  0  0  0  0  0
  194.2010  176.0830  141.9650 C   0  0  0  0  0  2  0  0  0  0  0  0
  192.1720  176.2240  146.3400 C   0  0  0  0  0  0  0  0  0  0  0  0
  191.7970  175.3780  142.6930 C   0  0  1  0  0  3  0  0  0  0  0  0
  195.6870  176.7900  143.9430 C   0  0  0  0  0  2  0  0  0  0  0  0
  189.1600  175.7410  145.6080 C   0  0  1  0  0  3  0  0  0  0  0  0
  196.5620  176.7640  141.6170 C   0  0  0  0  0  1  0  0  0  0  0  0
  189.9800  175.3040  146.6800 O   0  0  0  0  0  0  0  0  0  0  0  0
  191.6510  172.7780  142.6900 C   0  0  0  0  0  2  0  0  0  0  0  0
  190.4510  171.9670  142.4980 N   0  0  0  0  0  0  0  0  0  0  0  0
  188.5460  173.3670  142.0180 C   0  0  0  0  0  0  0  0  0  0  0  0
  189.3300  172.6790  143.0910 C   0  0  0  0  0  2  0  0  0  0  0  0
  189.1580  174.4090  141.1230 C   0  0  1  0  0  3  0  0  0  0  0  0
  188.9710  175.6910  141.6380 O   0  0  0  0  0  1  0  0  0  0  0  0
  190.6190  174.1660  140.7220 C   0  0  0  0  0  2  0  0  0  0  0  0
  187.3630  173.1000  141.8900 O   0  0  0  0  0  0  0  0  0  0  0  0
  191.6270  174.0870  141.8800 C   0  0  1  0  0  3  0  0  0  0  0  0
  192.0210  170.7400  143.8880 C   0  0  0  0  0  1  0  0  0  0  0  0
  190.6330  170.7550  143.2780 C   0  0  0  0  0  2  0  0  0  0  0  0
  186.7360  176.4160  145.3400 C   0  0  0  0  0  3  0  0  0  0  0  0
  187.9610  176.5500  146.0090 C   0  0  0  0  0  0  0  0  0  0  0  0
  188.0670  177.4330  147.0880 C   0  0  0  0  0  3  0  0  0  0  0  0
  187.0680  179.0410  148.5360 F   0  0  0  0  0  0  0  0  0  0  0  0
  185.7410  178.0530  146.8200 C   0  0  0  0  0  3  0  0  0  0  0  0
  186.9600  178.1850  147.4920 C   0  0  0  0  0  0  0  0  0  0  0  0
  185.6290  177.1680  145.7440 C   0  0  0  0  0  3  0  0  0  0  0  0
  1 10  1  0  0  0  0
  1 16  1  0  0  0  0
  2 14  1  0  0  0  0
  4  8  2  0  0  0  0
  5  7  1  0  0  0  0
  5  2  1  1  0  0  0
  6  4  1  0  0  0  0
  6  2  2  0  0  0  0
  7  3  1  1  0  0  0
  7 17  1  0  0  0  0
  8 12  1  0  0  0  0
  9  6  1  0  0  0  0
 13  1  1  0  0  0  0
 13  9  1  0  0  0  0
 14 12  2  0  0  0  0
 14 11  1  0  0  0  0
 15  9  1  1  0  0  0
 15  5  1  0  0  0  0
 16  4  1  0  0  0  0
 17 32  1  1  0  0  0
 17 19  1  0  0  0  0
 18  1  1  0  0  0  0
 19 11  1  0  0  0  0
 21 20  1  0  0  0  0
 21 23  1  0  0  0  0
 21 30  1  0  0  0  0
 22 23  1  0  0  0  0
 24 25  1  1  0  0  0
 24 22  1  0  0  0  0
 26 24  1  0  0  0  0
 27 22  2  0  0  0  0
 28 26  1  1  0  0  0
 28 20  1  0  0  0  0
 28 15  1  0  0  0  0
 30 29  1  0  0  0  0
 31 37  2  0  0  0  0
 31 32  1  0  0  0  0
 32 33  2  0  0  0  0
 33 36  1  0  0  0  0
 35 36  2  0  0  0  0
 36 34  1  0  0  0  0
 37 35  1  0  0  0  0
M  END
>  <MODEL>
2

>  <REMARK>
 VINA RESULT:      -7.7      2.585      5.881
  Name = 
  3 active torsions:
  status: ('A' for Active; 'I' for Inactive)
    1  A    between atoms: N_4  and  C_37
    2  A    between atoms: C_21  and  C_27
    3  A    between atoms: C_23  and  C_30
                            x       y       z     vdW  Elec       q    Type
                         _______ _______ _______ _____ _____    ______ ____

>  <TORSDO>
F 3

$$$$
=
 OpenBabel11112417143D

 37 42  0  0  1  0  0  0  0  0999 V2000
  194.8960  174.6560  145.1940 C   0  0  0  0  0  0  0  0  0  0  0  0
  190.8650  175.6360  145.6910 C   0  0  0  0  0  0  0  0  0  0  0  0
  189.9610  177.5890  143.6330 C   0  0  0  0  0  1  0  0  0  0  0  0
  193.0830  175.8180  146.5700 C   0  0  0  0  0  0  0  0  0  0  0  0
  190.1990  175.1810  144.4310 C   0  0  1  0  0  3  0  0  0  0  0  0
  192.1880  175.3630  145.6170 C   0  0  0  0  0  0  0  0  0  0  0  0
  189.2650  176.2460  143.8470 C   0  0  1  0  0  3  0  0  0  0  0  0
  192.5980  176.5470  147.6170 N   0  0  0  0  0  0  0  0  0  0  0  0
  192.5650  174.7900  144.3930 N   0  0  0  0  0  0  0  0  0  0  0  0
  194.8070  173.2400  145.7380 C   0  0  0  0  0  1  0  0  0  0  0  0
  188.9550  176.9460  146.7020 C   0  0  0  0  0  2  0  0  0  0  0  0
  191.2640  176.8490  147.7200 C   0  0  0  0  0  3  0  0  0  0  0  0
  193.9630  174.8000  143.9720 C   0  0  0  0  0  2  0  0  0  0  0  0
  190.3530  176.4040  146.7420 C   0  0  0  0  0  0  0  0  0  0  0  0
  191.3960  174.7810  143.5120 C   0  0  1  0  0  3  0  0  0  0  0  0
  194.5600  175.6650  146.3210 C   0  0  0  0  0  2  0  0  0  0  0  0
  187.9760  176.3560  144.6970 C   0  0  1  0  0  3  0  0  0  0  0  0
  196.3200  174.8990  144.7420 C   0  0  0  0  0  1  0  0  0  0  0  0
  188.0750  176.0430  146.0770 O   0  0  0  0  0  0  0  0  0  0  0  0
  189.8130  173.0230  142.4230 C   0  0  0  0  0  2  0  0  0  0  0  0
  189.7480  172.6570  141.0110 N   0  0  0  0  0  0  0  0  0  0  0  0
  191.4500  173.8140  139.7530 C   0  0  0  0  0  0  0  0  0  0  0  0
  190.0310  173.8490  140.2260 C   0  0  0  0  0  2  0  0  0  0  0  0
  192.6120  173.7680  140.7070 C   0  0  1  0  0  3  0  0  0  0  0  0
  193.0760  175.0490  141.0010 O   0  0  0  0  0  1  0  0  0  0  0  0
  192.3930  172.9370  141.9790 C   0  0  0  0  0  2  0  0  0  0  0  0
  191.6730  173.8630  138.5550 O   0  0  0  0  0  0  0  0  0  0  0  0
  191.2350  173.3900  142.8840 C   0  0  1  0  0  3  0  0  0  0  0  0
  187.4850  172.7040  141.8950 C   0  0  0  0  0  1  0  0  0  0  0  0
  188.3680  172.2950  140.7330 C   0  0  0  0  0  2  0  0  0  0  0  0
  186.5400  178.3380  145.3420 C   0  0  0  0  0  3  0  0  0  0  0  0
  187.0140  177.4580  144.3590 C   0  0  0  0  0  0  0  0  0  0  0  0
  186.6070  177.6220  143.0300 C   0  0  0  0  0  3  0  0  0  0  0  0
  185.3340  178.8040  141.3990 F   0  0  0  0  0  0  0  0  0  0  0  0
  185.2510  179.5230  143.6700 C   0  0  0  0  0  3  0  0  0  0  0  0
  185.7260  178.6510  142.6860 C   0  0  0  0  0  0  0  0  0  0  0  0
  185.6580  179.3670  144.9980 C   0  0  0  0  0  3  0  0  0  0  0  0
  1 10  1  0  0  0  0
  1 16  1  0  0  0  0
  2 14  1  0  0  0  0
  4  8  2  0  0  0  0
  5  2  1  1  0  0  0
  6  2  2  0  0  0  0
  6  4  1  0  0  0  0
  7  3  1  1  0  0  0
  7  5  1  0  0  0  0
  7 17  1  0  0  0  0
  8 12  1  0  0  0  0
  9  6  1  0  0  0  0
 11 14  1  0  0  0  0
 13  9  1  0  0  0  0
 13  1  1  0  0  0  0
 14 12  2  0  0  0  0
 15  9  1  1  0  0  0
 15  5  1  0  0  0  0
 16  4  1  0  0  0  0
 17 32  1  1  0  0  0
 17 19  1  0  0  0  0
 18  1  1  0  0  0  0
 19 11  1  0  0  0  0
 20 28  1  0  0  0  0
 21 20  1  0  0  0  0
 22 23  1  0  0  0  0
 22 24  1  0  0  0  0
 23 21  1  0  0  0  0
 24 25  1  1  0  0  0
 24 26  1  0  0  0  0
 27 22  2  0  0  0  0
 28 26  1  6  0  0  0
 28 15  1  0  0  0  0
 30 21  1  0  0  0  0
 30 29  1  0  0  0  0
 32 31  2  0  0  0  0
 33 32  1  0  0  0  0
 34 36  1  0  0  0  0
 35 37  2  0  0  0  0
 36 33  2  0  0  0  0
 36 35  1  0  0  0  0
 37 31  1  0  0  0  0
M  END
>  <MODEL>
3

>  <REMARK>
 VINA RESULT:      -7.7      2.845      6.133
  Name = 
  3 active torsions:
  status: ('A' for Active; 'I' for Inactive)
    1  A    between atoms: N_4  and  C_37
    2  A    between atoms: C_21  and  C_27
    3  A    between atoms: C_23  and  C_30
                            x       y       z     vdW  Elec       q    Type
                         _______ _______ _______ _____ _____    ______ ____

>  <TORSDO>
F 3

$$$$
=
 OpenBabel11112417143D

 37 42  0  0  1  0  0  0  0  0999 V2000
  190.9050  169.8570  138.2550 C   0  0  0  0  0  0  0  0  0  0  0  0
  190.1630  173.2490  140.5790 C   0  0  0  0  0  0  0  0  0  0  0  0
  189.2840  172.5130  143.3260 C   0  0  0  0  0  1  0  0  0  0  0  0
  189.4530  171.9050  138.7320 C   0  0  0  0  0  0  0  0  0  0  0  0
  191.1400  173.1650  141.7080 C   0  0  1  0  0  3  0  0  0  0  0  0
  190.3270  172.1780  139.7690 C   0  0  0  0  0  0  0  0  0  0  0  0
  190.4840  173.4220  143.0680 C   0  0  1  0  0  3  0  0  0  0  0  0
  188.4100  172.7610  138.5210 N   0  0  0  0  0  0  0  0  0  0  0  0
  191.3060  171.2840  140.2290 N   0  0  0  0  0  0  0  0  0  0  0  0
  191.9870  170.4680  137.3820 C   0  0  0  0  0  1  0  0  0  0  0  0
  188.7300  175.1480  141.4310 C   0  0  0  0  0  2  0  0  0  0  0  0
  188.2100  173.8530  139.3260 C   0  0  0  0  0  3  0  0  0  0  0  0
  191.3430  169.9110  139.7360 C   0  0  0  0  0  2  0  0  0  0  0  0
  189.0870  174.1240  140.3940 C   0  0  0  0  0  0  0  0  0  0  0  0
  191.7690  171.7460  141.5390 C   0  0  1  0  0  3  0  0  0  0  0  0
  189.5630  170.5900  138.0060 C   0  0  0  0  0  2  0  0  0  0  0  0
  190.1560  174.9260  143.2320 C   0  0  1  0  0  3  0  0  0  0  0  0
  190.7400  168.4060  137.8560 C   0  0  0  0  0  1  0  0  0  0  0  0
  189.8800  175.6670  142.0540 O   0  0  0  0  0  0  0  0  0  0  0  0
  193.9620  173.1500  141.5680 C   0  0  0  0  0  2  0  0  0  0  0  0
  194.8560  173.3580  142.7040 N   0  0  0  0  0  0  0  0  0  0  0  0
  194.1180  172.0800  144.6110 C   0  0  0  0  0  0  0  0  0  0  0  0
  194.0440  173.3990  143.9100 C   0  0  0  0  0  2  0  0  0  0  0  0
  193.6700  170.8000  143.9600 C   0  0  1  0  0  3  0  0  0  0  0  0
  192.3360  170.5220  144.2560 O   0  0  0  0  0  1  0  0  0  0  0  0
  193.9540  170.6860  142.4560 C   0  0  0  0  0  2  0  0  0  0  0  0
  194.5200  172.0470  145.7630 O   0  0  0  0  0  0  0  0  0  0  0  0
  193.3040  171.7580  141.5680 C   0  0  1  0  0  3  0  0  0  0  0  0
  194.3320  175.7170  142.4500 C   0  0  0  0  0  1  0  0  0  0  0  0
  195.4350  174.6810  142.5470 C   0  0  0  0  0  2  0  0  0  0  0  0
  188.3270  176.2700  144.3530 C   0  0  0  0  0  3  0  0  0  0  0  0
  189.3700  175.3370  144.4430 C   0  0  0  0  0  0  0  0  0  0  0  0
  189.6700  174.7540  145.6790 C   0  0  0  0  0  3  0  0  0  0  0  0
  189.2380  174.5410  148.0130 F   0  0  0  0  0  0  0  0  0  0  0  0
  187.9060  176.0410  146.7260 C   0  0  0  0  0  3  0  0  0  0  0  0
  188.9410  175.1060  146.8190 C   0  0  0  0  0  0  0  0  0  0  0  0
  187.5980  176.6220  145.4920 C   0  0  0  0  0  3  0  0  0  0  0  0
  1 13  1  0  0  0  0
  4  6  1  0  0  0  0
  5  2  1  6  0  0  0
  5  7  1  0  0  0  0
  6  9  1  0  0  0  0
  6  2  2  0  0  0  0
  7 17  1  0  0  0  0
  7  3  1  6  0  0  0
  8  4  2  0  0  0  0
  8 12  1  0  0  0  0
 10  1  1  0  0  0  0
 11 19  1  0  0  0  0
 12 14  2  0  0  0  0
 13  9  1  0  0  0  0
 14  2  1  0  0  0  0
 14 11  1  0  0  0  0
 15  9  1  6  0  0  0
 15 28  1  0  0  0  0
 15  5  1  0  0  0  0
 16  1  1  0  0  0  0
 16  4  1  0  0  0  0
 17 32  1  1  0  0  0
 18  1  1  0  0  0  0
 19 17  1  0  0  0  0
 20 21  1  0  0  0  0
 21 23  1  0  0  0  0
 22 27  2  0  0  0  0
 23 22  1  0  0  0  0
 24 25  1  6  0  0  0
 24 22  1  0  0  0  0
 26 24  1  0  0  0  0
 28 20  1  1  0  0  0
 28 26  1  0  0  0  0
 29 30  1  0  0  0  0
 30 21  1  0  0  0  0
 31 32  2  0  0  0  0
 31 37  1  0  0  0  0
 32 33  1  0  0  0  0
 33 36  2  0  0  0  0
 35 36  1  0  0  0  0
 36 34  1  0  0  0  0
 37 35  2  0  0  0  0
M  END
>  <MODEL>
4

>  <REMARK>
 VINA RESULT:      -7.3      2.842      4.023
  Name = 
  3 active torsions:
  status: ('A' for Active; 'I' for Inactive)
    1  A    between atoms: N_4  and  C_37
    2  A    between atoms: C_21  and  C_27
    3  A    between atoms: C_23  and  C_30
                            x       y       z     vdW  Elec       q    Type
                         _______ _______ _______ _____ _____    ______ ____

>  <TORSDO>
F 3

$$$$
=
 OpenBabel11112417143D

 37 42  0  0  1  0  0  0  0  0999 V2000
  193.7100  175.3720  145.5470 C   0  0  0  0  0  0  0  0  0  0  0  0
  189.6390  175.7740  144.7000 C   0  0  0  0  0  0  0  0  0  0  0  0
  189.1910  177.4870  142.3060 C   0  0  0  0  0  1  0  0  0  0  0  0
  191.4250  176.3130  146.1970 C   0  0  0  0  0  0  0  0  0  0  0  0
  189.4660  175.1750  143.3400 C   0  0  1  0  0  3  0  0  0  0  0  0
  190.9410  175.6940  145.0590 C   0  0  0  0  0  0  0  0  0  0  0  0
  188.6380  176.0670  142.4110 C   0  0  1  0  0  3  0  0  0  0  0  0
  190.5480  177.0070  146.9800 N   0  0  0  0  0  0  0  0  0  0  0  0
  191.7530  175.1320  144.0620 N   0  0  0  0  0  0  0  0  0  0  0  0
  193.6330  173.9820  146.1550 C   0  0  0  0  0  1  0  0  0  0  0  0
  187.3590  176.8330  144.9630 C   0  0  0  0  0  2  0  0  0  0  0  0
  189.2220  177.1150  146.6440 C   0  0  0  0  0  3  0  0  0  0  0  0
  193.1990  175.3290  144.0900 C   0  0  0  0  0  2  0  0  0  0  0  0
  188.7290  176.5020  145.4750 C   0  0  0  0  0  0  0  0  0  0  0  0
  190.9310  174.9160  142.8690 C   0  0  1  0  0  3  0  0  0  0  0  0
  192.9120  176.3670  146.4260 C   0  0  0  0  0  2  0  0  0  0  0  0
  187.1430  176.0230  142.8120 C   0  0  1  0  0  3  0  0  0  0  0  0
  195.1620  175.8020  145.5340 C   0  0  0  0  0  1  0  0  0  0  0  0
  186.8410  175.7860  144.1770 O   0  0  0  0  0  0  0  0  0  0  0  0
  190.0120  172.9070  141.4910 C   0  0  0  0  0  2  0  0  0  0  0  0
  190.4510  172.4780  140.1660 N   0  0  0  0  0  0  0  0  0  0  0  0
  192.3140  173.8130  139.4140 C   0  0  0  0  0  0  0  0  0  0  0  0
  190.8250  173.6650  139.4120 C   0  0  0  0  0  2  0  0  0  0  0  0
  193.1010  173.9720  140.6850 C   0  0  1  0  0  3  0  0  0  0  0  0
  193.2870  175.3170  141.0000 O   0  0  0  0  0  1  0  0  0  0  0  0
  192.5870  173.1720  141.8890 C   0  0  0  0  0  2  0  0  0  0  0  0
  192.9030  173.8440  138.3460 O   0  0  0  0  0  0  0  0  0  0  0  0
  191.1530  173.4910  142.3420 C   0  0  1  0  0  3  0  0  0  0  0  0
  188.1890  172.9500  139.4160 C   0  0  0  0  0  1  0  0  0  0  0  0
  189.2900  171.9120  139.5000 C   0  0  0  0  0  2  0  0  0  0  0  0
  186.4560  177.3810  140.7890 C   0  0  0  0  0  3  0  0  0  0  0  0
  186.2070  176.9580  142.1030 C   0  0  0  0  0  0  0  0  0  0  0  0
  185.0510  177.3920  142.7610 C   0  0  0  0  0  3  0  0  0  0  0  0
  183.0380  178.6680  142.7590 F   0  0  0  0  0  0  0  0  0  0  0  0
  184.4080  178.6720  140.8090 C   0  0  0  0  0  3  0  0  0  0  0  0
  184.1540  178.2490  142.1170 C   0  0  0  0  0  0  0  0  0  0  0  0
  185.5590  178.2370  140.1450 C   0  0  0  0  0  3  0  0  0  0  0  0
  1 10  1  0  0  0  0
  1 16  1  0  0  0  0
  2  6  2  0  0  0  0
  2 14  1  0  0  0  0
  4 16  1  0  0  0  0
  4  8  2  0  0  0  0
  5  2  1  1  0  0  0
  6  4  1  0  0  0  0
  7  3  1  1  0  0  0
  7 17  1  0  0  0  0
  7  5  1  0  0  0  0
  9 13  1  0  0  0  0
  9  6  1  0  0  0  0
 11 14  1  0  0  0  0
 12  8  1  0  0  0  0
 13  1  1  0  0  0  0
 14 12  2  0  0  0  0
 15  5  1  0  0  0  0
 15  9  1  1  0  0  0
 17 32  1  1  0  0  0
 17 19  1  0  0  0  0
 18  1  1  0  0  0  0
 19 11  1  0  0  0  0
 21 20  1  0  0  0  0
 22 24  1  0  0  0  0
 23 22  1  0  0  0  0
 23 21  1  0  0  0  0
 24 25  1  1  0  0  0
 24 26  1  0  0  0  0
 26 28  1  0  0  0  0
 27 22  2  0  0  0  0
 28 20  1  6  0  0  0
 28 15  1  0  0  0  0
 29 30  1  0  0  0  0
 30 21  1  0  0  0  0
 31 32  1  0  0  0  0
 32 33  2  0  0  0  0
 35 36  2  0  0  0  0
 36 34  1  0  0  0  0
 36 33  1  0  0  0  0
 37 31  2  0  0  0  0
 37 35  1  0  0  0  0
M  END
>  <MODEL>
5

>  <REMARK>
 VINA RESULT:      -7.2      2.644      5.915
  Name = 
  3 active torsions:
  status: ('A' for Active; 'I' for Inactive)
    1  A    between atoms: N_4  and  C_37
    2  A    between atoms: C_21  and  C_27
    3  A    between atoms: C_23  and  C_30
                            x       y       z     vdW  Elec       q    Type
                         _______ _______ _______ _____ _____    ______ ____

>  <TORSDO>
F 3

$$$$
=
 OpenBabel11112417143D

 37 42  0  0  1  0  0  0  0  0999 V2000
  187.3960  176.5580  142.5170 C   0  0  0  0  0  0  0  0  0  0  0  0
  191.5030  175.9600  142.9950 C   0  0  0  0  0  0  0  0  0  0  0  0
  192.0620  173.6640  144.8060 C   0  0  0  0  0  1  0  0  0  0  0  0
  189.6280  177.3730  143.4560 C   0  0  0  0  0  0  0  0  0  0  0  0
  191.7600  174.5910  142.4520 C   0  0  1  0  0  3  0  0  0  0  0  0
  190.1840  176.2410  142.8870 C   0  0  0  0  0  0  0  0  0  0  0  0
  192.6280  173.7450  143.3880 C   0  0  1  0  0  3  0  0  0  0  0  0
  190.4500  178.2310  144.1280 N   0  0  0  0  0  0  0  0  0  0  0  0
  189.4360  175.1780  142.3560 N   0  0  0  0  0  0  0  0  0  0  0  0
  187.4570  177.1160  141.1050 C   0  0  0  0  0  1  0  0  0  0  0  0
  193.7500  176.3940  144.0670 C   0  0  0  0  0  2  0  0  0  0  0  0
  191.7910  177.9750  144.2640 C   0  0  0  0  0  3  0  0  0  0  0  0
  187.9880  175.1320  142.5350 C   0  0  0  0  0  2  0  0  0  0  0  0
  192.3570  176.8140  143.7020 C   0  0  0  0  0  0  0  0  0  0  0  0
  190.3270  174.0270  142.1950 C   0  0  1  0  0  3  0  0  0  0  0  0
  188.1300  177.5190  143.4850 C   0  0  0  0  0  2  0  0  0  0  0  0
  194.0980  174.2290  143.3450 C   0  0  1  0  0  3  0  0  0  0  0  0
  185.9410  176.4790  142.9300 C   0  0  0  0  0  1  0  0  0  0  0  0
  194.3250  175.5990  143.0580 O   0  0  0  0  0  0  0  0  0  0  0  0
  191.2710  173.7620  139.7830 C   0  0  0  0  0  2  0  0  0  0  0  0
  191.8880  172.5690  139.2090 N   0  0  0  0  0  0  0  0  0  0  0  0
  191.8060  170.7330  140.7710 C   0  0  0  0  0  0  0  0  0  0  0  0
  192.6160  171.8870  140.2680 C   0  0  0  0  0  2  0  0  0  0  0  0
  190.4410  170.9150  141.3760 C   0  0  1  0  0  3  0  0  0  0  0  0
  190.5170  171.0530  142.7610 O   0  0  0  0  0  1  0  0  0  0  0  0
  189.5750  172.0110  140.7420 C   0  0  0  0  0  2  0  0  0  0  0  0
  192.2860  169.6130  140.7220 O   0  0  0  0  0  0  0  0  0  0  0  0
  190.1540  173.4340  140.7900 C   0  0  1  0  0  3  0  0  0  0  0  0
  193.4410  174.3660  138.6950 C   0  0  0  0  0  1  0  0  0  0  0  0
  192.8810  173.0280  138.2530 C   0  0  0  0  0  2  0  0  0  0  0  0
  195.7780  174.3970  145.2310 C   0  0  0  0  0  3  0  0  0  0  0  0
  195.0600  173.6110  144.3170 C   0  0  0  0  0  0  0  0  0  0  0  0
  195.2220  172.2210  144.3250 C   0  0  0  0  0  3  0  0  0  0  0  0
  196.2530  170.2750  145.2340 F   0  0  0  0  0  0  0  0  0  0  0  0
  196.8160  172.4070  146.1380 C   0  0  0  0  0  3  0  0  0  0  0  0
  196.0990  171.6200  145.2320 C   0  0  0  0  0  0  0  0  0  0  0  0
  196.6550  173.7960  146.1380 C   0  0  0  0  0  3  0  0  0  0  0  0
  1 13  1  0  0  0  0
  1 18  1  0  0  0  0
  1 16  1  0  0  0  0
  2 14  1  0  0  0  0
  4 16  1  0  0  0  0
  4  8  2  0  0  0  0
  5  2  1  1  0  0  0
  5  7  1  0  0  0  0
  6  2  2  0  0  0  0
  6  4  1  0  0  0  0
  7  3  1  1  0  0  0
  8 12  1  0  0  0  0
  9 13  1  0  0  0  0
  9  6  1  0  0  0  0
 10  1  1  0  0  0  0
 14 11  1  0  0  0  0
 14 12  2  0  0  0  0
 15  9  1  6  0  0  0
 15  5  1  0  0  0  0
 17  7  1  0  0  0  0
 17 32  1  1  0  0  0
 19 17  1  0  0  0  0
 19 11  1  0  0  0  0
 21 20  1  0  0  0  0
 21 23  1  0  0  0  0
 22 24  1  0  0  0  0
 23 22  1  0  0  0  0
 24 25  1  1  0  0  0
 26 28  1  0  0  0  0
 26 24  1  0  0  0  0
 27 22  2  0  0  0  0
 28 20  1  1  0  0  0
 28 15  1  0  0  0  0
 30 29  1  0  0  0  0
 30 21  1  0  0  0  0
 31 37  1  0  0  0  0
 32 33  1  0  0  0  0
 32 31  2  0  0  0  0
 33 36  2  0  0  0  0
 35 37  2  0  0  0  0
 36 34  1  0  0  0  0
 36 35  1  0  0  0  0
M  END
>  <MODEL>
6

>  <REMARK>
 VINA RESULT:      -7.1      3.745      7.556
  Name = 
  3 active torsions:
  status: ('A' for Active; 'I' for Inactive)
    1  A    between atoms: N_4  and  C_37
    2  A    between atoms: C_21  and  C_27
    3  A    between atoms: C_23  and  C_30
                            x       y       z     vdW  Elec       q    Type
                         _______ _______ _______ _____ _____    ______ ____

>  <TORSDO>
F 3

$$$$
=
 OpenBabel11112417143D

 37 42  0  0  1  0  0  0  0  0999 V2000
  189.5090  176.0860  146.1030 C   0  0  0  0  0  0  0  0  0  0  0  0
  191.4710  174.3930  142.8250 C   0  0  0  0  0  0  0  0  0  0  0  0
  193.4370  176.2880  141.6390 C   0  0  0  0  0  1  0  0  0  0  0  0
  189.4100  175.2470  143.6910 C   0  0  0  0  0  0  0  0  0  0  0  0
  192.9140  174.3570  143.2160 C   0  0  1  0  0  3  0  0  0  0  0  0
  190.7510  174.9380  143.8340 C   0  0  0  0  0  0  0  0  0  0  0  0
  193.8310  174.8900  142.1110 C   0  0  1  0  0  3  0  0  0  0  0  0
  188.8050  174.9730  142.4980 N   0  0  0  0  0  0  0  0  0  0  0  0
  191.5440  175.3510  144.9150 N   0  0  0  0  0  0  0  0  0  0  0  0
  189.2830  174.7920  146.8670 C   0  0  0  0  0  1  0  0  0  0  0  0
  191.7010  173.7880  140.3820 C   0  0  0  0  0  2  0  0  0  0  0  0
  189.5050  174.4280  141.4520 C   0  0  0  0  0  3  0  0  0  0  0  0
  191.0230  176.3030  145.8910 C   0  0  0  0  0  2  0  0  0  0  0  0
  190.8750  174.1290  141.5870 C   0  0  0  0  0  0  0  0  0  0  0  0
  192.9500  175.1680  144.5480 C   0  0  1  0  0  3  0  0  0  0  0  0
  188.7230  176.0430  144.7680 C   0  0  0  0  0  2  0  0  0  0  0  0
  193.9360  173.8640  140.9560 C   0  0  1  0  0  3  0  0  0  0  0  0
  188.9720  177.2280  146.9390 C   0  0  0  0  0  1  0  0  0  0  0  0
  192.8230  173.0130  140.7350 O   0  0  0  0  0  0  0  0  0  0  0  0
  193.8270  172.9140  145.5130 C   0  0  0  0  0  2  0  0  0  0  0  0
  195.2150  172.4610  145.5620 N   0  0  0  0  0  0  0  0  0  0  0  0
  196.6980  174.1760  144.7380 C   0  0  0  0  0  0  0  0  0  0  0  0
  195.8920  172.9670  144.3780 C   0  0  0  0  0  2  0  0  0  0  0  0
  196.0690  175.4170  145.3100 C   0  0  1  0  0  3  0  0  0  0  0  0
  195.7430  176.3270  144.3060 O   0  0  0  0  0  1  0  0  0  0  0  0
  194.8940  175.1830  146.2700 C   0  0  0  0  0  2  0  0  0  0  0  0
  197.8990  174.1670  144.5260 O   0  0  0  0  0  0  0  0  0  0  0  0
  193.6860  174.4380  145.6800 C   0  0  1  0  0  3  0  0  0  0  0  0
  196.4180  170.4200  146.1000 C   0  0  0  0  0  1  0  0  0  0  0  0
  195.1900  171.0140  145.4390 C   0  0  0  0  0  2  0  0  0  0  0  0
  194.0710  174.2180  138.4530 C   0  0  0  0  0  3  0  0  0  0  0  0
  194.6730  174.2860  139.7180 C   0  0  0  0  0  0  0  0  0  0  0  0
  195.9770  174.7810  139.8380 C   0  0  0  0  0  3  0  0  0  0  0  0
  197.9400  175.6720  138.8230 F   0  0  0  0  0  0  0  0  0  0  0  0
  196.0770  175.1220  137.4420 C   0  0  0  0  0  3  0  0  0  0  0  0
  196.6780  175.1960  138.7020 C   0  0  0  0  0  0  0  0  0  0  0  0
  194.7730  174.6340  137.3180 C   0  0  0  0  0  3  0  0  0  0  0  0
  1 10  1  0  0  0  0
  1 18  1  0  0  0  0
  2  6  1  0  0  0  0
  4  6  2  0  0  0  0
  4 16  1  0  0  0  0
  5  2  1  6  0  0  0
  5 15  1  0  0  0  0
  6  9  1  0  0  0  0
  7  3  1  6  0  0  0
  7  5  1  0  0  0  0
  8  4  1  0  0  0  0
  9 13  1  0  0  0  0
 11 19  1  0  0  0  0
 11 14  1  0  0  0  0
 12 14  1  0  0  0  0
 12  8  2  0  0  0  0
 13  1  1  0  0  0  0
 14  2  2  0  0  0  0
 15  9  1  1  0  0  0
 15 28  1  0  0  0  0
 16  1  1  0  0  0  0
 17 32  1  6  0  0  0
 17  7  1  0  0  0  0
 19 17  1  0  0  0  0
 20 21  1  0  0  0  0
 22 24  1  0  0  0  0
 23 22  1  0  0  0  0
 23 21  1  0  0  0  0
 24 25  1  6  0  0  0
 24 26  1  0  0  0  0
 27 22  2  0  0  0  0
 28 20  1  6  0  0  0
 28 26  1  0  0  0  0
 30 21  1  0  0  0  0
 30 29  1  0  0  0  0
 31 32  1  0  0  0  0
 32 33  2  0  0  0  0
 35 36  2  0  0  0  0
 36 34  1  0  0  0  0
 36 33  1  0  0  0  0
 37 35  1  0  0  0  0
 37 31  2  0  0  0  0
M  END
>  <MODEL>
7

>  <REMARK>
 VINA RESULT:      -6.8      4.618      8.242
  Name = 
  3 active torsions:
  status: ('A' for Active; 'I' for Inactive)
    1  A    between atoms: N_4  and  C_37
    2  A    between atoms: C_21  and  C_27
    3  A    between atoms: C_23  and  C_30
                            x       y       z     vdW  Elec       q    Type
                         _______ _______ _______ _____ _____    ______ ____

>  <TORSDO>
F 3

$$$$
=
 OpenBabel11112417143D

 37 42  0  0  1  0  0  0  0  0999 V2000
  189.2220  176.5140  145.8540 C   0  0  0  0  0  0  0  0  0  0  0  0
  193.1010  175.2380  144.9710 C   0  0  0  0  0  0  0  0  0  0  0  0
  193.3950  172.3020  145.3700 C   0  0  0  0  0  1  0  0  0  0  0  0
  191.7030  176.4790  146.4640 C   0  0  0  0  0  0  0  0  0  0  0  0
  192.9430  174.2820  143.8320 C   0  0  1  0  0  3  0  0  0  0  0  0
  191.8830  175.7030  145.3330 C   0  0  0  0  0  0  0  0  0  0  0  0
  193.7300  172.9850  144.0450 C   0  0  1  0  0  3  0  0  0  0  0  0
  192.7980  176.7910  147.2170 N   0  0  0  0  0  0  0  0  0  0  0  0
  190.8350  175.1360  144.5920 N   0  0  0  0  0  0  0  0  0  0  0  0
  189.1840  177.6720  144.8710 C   0  0  0  0  0  1  0  0  0  0  0  0
  195.5290  174.8050  145.5230 C   0  0  0  0  0  2  0  0  0  0  0  0
  194.0470  176.3310  146.8840 C   0  0  0  0  0  3  0  0  0  0  0  0
  189.4630  175.1940  145.0890 C   0  0  0  0  0  2  0  0  0  0  0  0
  194.2310  175.5250  145.7440 C   0  0  0  0  0  0  0  0  0  0  0  0
  191.3970  174.1020  143.7200 C   0  0  1  0  0  3  0  0  0  0  0  0
  190.3040  176.7840  146.9290 C   0  0  0  0  0  2  0  0  0  0  0  0
  195.2450  173.2360  143.8540 C   0  0  1  0  0  3  0  0  0  0  0  0
  187.8740  176.4320  146.5390 C   0  0  0  0  0  1  0  0  0  0  0  0
  195.7350  174.5320  144.1570 O   0  0  0  0  0  0  0  0  0  0  0  0
  191.9350  174.5420  141.2110 C   0  0  0  0  0  2  0  0  0  0  0  0
  191.8800  173.5740  140.1190 N   0  0  0  0  0  0  0  0  0  0  0  0
  191.0560  171.4490  140.9070 C   0  0  0  0  0  0  0  0  0  0  0  0
  192.2750  172.2780  140.6490 C   0  0  0  0  0  2  0  0  0  0  0  0
  189.9820  171.8810  141.8670 C   0  0  1  0  0  3  0  0  0  0  0  0
  190.2090  171.3710  143.1440 O   0  0  0  0  0  1  0  0  0  0  0  0
  189.6880  173.3870  141.9000 C   0  0  0  0  0  2  0  0  0  0  0  0
  190.9500  170.3690  140.3490 O   0  0  0  0  0  0  0  0  0  0  0  0
  190.8680  174.2910  142.2910 C   0  0  1  0  0  3  0  0  0  0  0  0
  194.1460  174.4230  139.8960 C   0  0  0  0  0  1  0  0  0  0  0  0
  192.9030  173.9600  139.1620 C   0  0  0  0  0  2  0  0  0  0  0  0
  197.0670  171.6000  143.2130 C   0  0  0  0  0  3  0  0  0  0  0  0
  196.1810  172.1070  144.1750 C   0  0  0  0  0  0  0  0  0  0  0  0
  196.1850  171.5720  145.4680 C   0  0  0  0  0  3  0  0  0  0  0  0
  197.0570  170.0180  147.0490 F   0  0  0  0  0  0  0  0  0  0  0  0
  197.9370  170.0260  144.8340 C   0  0  0  0  0  3  0  0  0  0  0  0
  197.0590  170.5330  145.7970 C   0  0  0  0  0  0  0  0  0  0  0  0
  197.9410  170.5600  143.5420 C   0  0  0  0  0  3  0  0  0  0  0  0
  1 18  1  0  0  0  0
  1 16  1  0  0  0  0
  2  6  2  0  0  0  0
  2 14  1  0  0  0  0
  4 16  1  0  0  0  0
  4  8  2  0  0  0  0
  5  7  1  0  0  0  0
  5  2  1  1  0  0  0
  6  4  1  0  0  0  0
  7  3  1  1  0  0  0
  9 13  1  0  0  0  0
  9  6  1  0  0  0  0
 10  1  1  0  0  0  0
 11 14  1  0  0  0  0
 12  8  1  0  0  0  0
 13  1  1  0  0  0  0
 14 12  2  0  0  0  0
 15  5  1  0  0  0  0
 15  9  1  1  0  0  0
 17  7  1  0  0  0  0
 17 19  1  0  0  0  0
 17 32  1  1  0  0  0
 19 11  1  0  0  0  0
 21 23  1  0  0  0  0
 21 20  1  0  0  0  0
 22 24  1  0  0  0  0
 23 22  1  0  0  0  0
 24 26  1  0  0  0  0
 24 25  1  1  0  0  0
 26 28  1  0  0  0  0
 27 22  2  0  0  0  0
 28 20  1  6  0  0  0
 28 15  1  0  0  0  0
 30 29  1  0  0  0  0
 30 21  1  0  0  0  0
 31 37  2  0  0  0  0
 31 32  1  0  0  0  0
 32 33  2  0  0  0  0
 33 36  1  0  0  0  0
 35 36  2  0  0  0  0
 36 34  1  0  0  0  0
 37 35  1  0  0  0  0
M  END
>  <MODEL>
8

>  <REMARK>
 VINA RESULT:      -6.8      4.344      8.922
  Name = 
  3 active torsions:
  status: ('A' for Active; 'I' for Inactive)
    1  A    between atoms: N_4  and  C_37
    2  A    between atoms: C_21  and  C_27
    3  A    between atoms: C_23  and  C_30
                            x       y       z     vdW  Elec       q    Type
                         _______ _______ _______ _____ _____    ______ ____

>  <TORSDO>
F 3

$$$$
=
 OpenBabel11112417143D

 37 42  0  0  1  0  0  0  0  0999 V2000
  196.8080  174.6340  139.2930 C   0  0  0  0  0  0  0  0  0  0  0  0
  195.1170  175.0490  143.0910 C   0  0  0  0  0  0  0  0  0  0  0  0
  192.4680  176.4020  142.9590 C   0  0  0  0  0  1  0  0  0  0  0  0
  196.8510  175.7410  141.5960 C   0  0  0  0  0  0  0  0  0  0  0  0
  193.8470  174.2610  143.0370 C   0  0  1  0  0  3  0  0  0  0  0  0
  195.7360  174.9770  141.8900 C   0  0  0  0  0  0  0  0  0  0  0  0
  192.6560  175.0340  143.6120 C   0  0  1  0  0  3  0  0  0  0  0  0
  197.3390  176.5750  142.5610 N   0  0  0  0  0  0  0  0  0  0  0  0
  195.0100  174.2440  140.9390 N   0  0  0  0  0  0  0  0  0  0  0  0
  197.5750  173.3530  139.5750 C   0  0  0  0  0  1  0  0  0  0  0  0
  194.7700  176.2150  145.3060 C   0  0  0  0  0  2  0  0  0  0  0  0
  196.7330  176.6780  143.7870 C   0  0  0  0  0  3  0  0  0  0  0  0
  195.2980  174.3920  139.5160 C   0  0  0  0  0  2  0  0  0  0  0  0
  195.5870  175.9160  144.0840 C   0  0  0  0  0  0  0  0  0  0  0  0
  193.7190  173.8830  141.5280 C   0  0  1  0  0  3  0  0  0  0  0  0
  197.3630  175.7760  140.1800 C   0  0  0  0  0  2  0  0  0  0  0  0
  192.7520  175.1030  145.1550 C   0  0  1  0  0  3  0  0  0  0  0  0
  197.0250  175.0050  137.8420 C   0  0  0  0  0  1  0  0  0  0  0  0
  194.0490  175.0820  145.7300 O   0  0  0  0  0  0  0  0  0  0  0  0
  193.6900  171.4730  142.5150 C   0  0  0  0  0  2  0  0  0  0  0  0
  192.5130  170.6880  142.8770 N   0  0  0  0  0  0  0  0  0  0  0  0
  190.4910  171.8700  142.3020 C   0  0  0  0  0  0  0  0  0  0  0  0
  191.4990  171.6050  143.3760 C   0  0  0  0  0  2  0  0  0  0  0  0
  190.8690  172.4860  140.9830 C   0  0  1  0  0  3  0  0  0  0  0  0
  190.7290  173.8730  141.0140 O   0  0  0  0  0  1  0  0  0  0  0  0
  192.2330  172.0650  140.4200 C   0  0  0  0  0  2  0  0  0  0  0  0
  189.3190  171.6130  142.5200 O   0  0  0  0  0  0  0  0  0  0  0  0
  193.4500  172.3890  141.3000 C   0  0  1  0  0  3  0  0  0  0  0  0
  193.8260  170.6110  144.9200 C   0  0  0  0  0  1  0  0  0  0  0  0
  192.8980  169.8460  143.9980 C   0  0  0  0  0  2  0  0  0  0  0  0
  190.5270  176.3010  145.2810 C   0  0  0  0  0  3  0  0  0  0  0  0
  191.7480  175.9550  145.8760 C   0  0  0  0  0  0  0  0  0  0  0  0
  192.0300  176.3860  147.1760 C   0  0  0  0  0  3  0  0  0  0  0  0
  191.3830  177.5830  149.1330 F   0  0  0  0  0  0  0  0  0  0  0  0
  189.8890  177.5130  147.2770 C   0  0  0  0  0  3  0  0  0  0  0  0
  191.1040  177.1660  147.8750 C   0  0  0  0  0  0  0  0  0  0  0  0
  189.6000  177.0800  145.9790 C   0  0  0  0  0  3  0  0  0  0  0  0
  1 13  1  0  0  0  0
  1 10  1  0  0  0  0
  1 16  1  0  0  0  0
  2 14  1  0  0  0  0
  4  6  1  0  0  0  0
  4  8  2  0  0  0  0
  5  2  1  6  0  0  0
  5  7  1  0  0  0  0
  6  2  2  0  0  0  0
  7  3  1  6  0  0  0
  7 17  1  0  0  0  0
  8 12  1  0  0  0  0
  9  6  1  0  0  0  0
 11 19  1  0  0  0  0
 12 14  2  0  0  0  0
 13  9  1  0  0  0  0
 14 11  1  0  0  0  0
 15  9  1  6  0  0  0
 15  5  1  0  0  0  0
 16  4  1  0  0  0  0
 17 19  1  0  0  0  0
 17 32  1  6  0  0  0
 18  1  1  0  0  0  0
 20 21  1  0  0  0  0
 21 23  1  0  0  0  0
 21 30  1  0  0  0  0
 22 27  2  0  0  0  0
 22 23  1  0  0  0  0
 24 25  1  1  0  0  0
 24 22  1  0  0  0  0
 26 24  1  0  0  0  0
 28 26  1  1  0  0  0
 28 15  1  0  0  0  0
 28 20  1  0  0  0  0
 30 29  1  0  0  0  0
 31 32  2  0  0  0  0
 31 37  1  0  0  0  0
 32 33  1  0  0  0  0
 33 36  2  0  0  0  0
 35 36  1  0  0  0  0
 36 34  1  0  0  0  0
 37 35  2  0  0  0  0
M  END
>  <MODEL>
9

>  <REMARK>
 VINA RESULT:      -6.7      4.242      6.954
  Name = 
  3 active torsions:
  status: ('A' for Active; 'I' for Inactive)
    1  A    between atoms: N_4  and  C_37
    2  A    between atoms: C_21  and  C_27
    3  A    between atoms: C_23  and  C_30
                            x       y       z     vdW  Elec       q    Type
                         _______ _______ _______ _____ _____    ______ ____

>  <TORSDO>
F 3

$$$$
