=
 OpenBabel11112416183D

 30 34  0  0  1  0  0  0  0  0999 V2000
  187.6680  176.0680  143.6310 C   0  0  0  0  0  0  0  0  0  0  0  0
  185.5410  177.4660  143.5210 C   0  0  0  0  0  0  0  0  0  0  0  0
  188.8260  177.8370  147.2470 N   0  0  0  0  0  2  0  0  0  0  0  0
  188.8230  175.6570  144.3360 C   0  0  0  0  0  0  0  0  0  0  0  0
  187.4430  175.5890  142.3330 O   0  0  0  0  0  0  0  0  0  0  0  0
  190.6340  174.2380  141.5820 O   0  0  0  0  0  0  0  0  0  0  0  0
  191.9300  175.1860  144.9990 C   0  0  2  0  0  3  0  0  0  0  0  0
  189.6410  174.5480  142.2950 C   0  0  0  0  0  0  0  0  0  0  0  0
  191.4110  176.3970  145.5330 O   0  0  0  0  0  0  0  0  0  0  0  0
  190.0950  177.1980  147.3770 C   0  0  0  0  0  0  0  0  0  0  0  0
  188.2590  174.6020  141.6980 C   0  0  2  0  0  3  0  0  0  0  0  0
  189.7960  174.7980  143.7040 N   0  0  0  0  0  0  0  0  0  0  0  0
  184.5130  178.2720  144.2630 C   0  0  0  0  0  2  0  0  0  0  0  0
  185.3100  177.1500  142.3240 O   0  0  0  0  0  0  0  0  0  0  0  0
  188.2510  177.1980  146.1160 C   0  0  0  0  0  0  0  0  0  0  0  0
  185.0770  178.9970  145.4550 C   0  0  0  0  0  3  0  0  0  0  0  0
  186.7720  177.0080  144.2120 C   0  0  0  0  0  0  0  0  0  0  0  0
  189.0700  176.2260  145.5890 C   0  0  0  0  0  0  0  0  0  0  0  0
  190.9240  177.5160  148.2670 O   0  0  0  0  0  0  0  0  0  0  0  0
  190.3250  176.1060  146.3800 C   0  0  1  0  0  3  0  0  0  0  0  0
  191.4590  172.9140  143.9010 C   0  0  0  0  0  1  0  0  0  0  0  0
  186.2370  178.6590  146.0220 C   0  0  0  0  0  3  0  0  0  0  0  0
  187.0820  177.5890  145.4640 C   0  0  0  0  0  0  0  0  0  0  0  0
  190.8570  174.1720  144.5210 C   0  0  1  0  0  3  0  0  0  0  0  0
  192.9020  174.5440  145.9850 C   0  0  0  0  0  2  0  0  0  0  0  0
  195.3390  174.9590  145.9150 C   0  0  0  0  0  1  0  0  0  0  0  0
  194.0030  175.5210  146.3500 C   0  0  0  0  0  2  0  0  0  0  0  0
  188.2710  174.8370  140.1910 C   0  0  0  0  0  2  0  0  0  0  0  0
  188.2980  173.9750  138.1590 C   0  0  0  0  0  1  0  0  0  0  0  0
  188.2580  173.6200  139.5060 O   0  0  0  0  0  0  0  0  0  0  0  0
  1 17  2  0  0  0  0
  1  4  1  0  0  0  0
  2 17  1  0  0  0  0
  2 13  1  0  0  0  0
  3 10  1  0  0  0  0
  4 18  2  0  0  0  0
  5  1  1  0  0  0  0
  6  8  2  0  0  0  0
  7  9  1  0  0  0  0
  7 25  1  1  0  0  0
  8 12  1  0  0  0  0
 10 19  2  0  0  0  0
 11 28  1  6  0  0  0
 11  8  1  0  0  0  0
 11  5  1  0  0  0  0
 12  4  1  0  0  0  0
 12 24  1  0  0  0  0
 13 16  1  0  0  0  0
 14  2  2  0  0  0  0
 15  3  1  0  0  0  0
 16 22  2  0  0  0  0
 17 23  1  0  0  0  0
 18 15  1  0  0  0  0
 18 20  1  0  0  0  0
 20  9  1  6  0  0  0
 20 10  1  0  0  0  0
 23 22  1  0  0  0  0
 23 15  2  0  0  0  0
 24 21  1  6  0  0  0
 24  7  1  0  0  0  0
 25 27  1  0  0  0  0
 26 27  1  0  0  0  0
 29 30  1  0  0  0  0
 30 28  1  0  0  0  0
M  END
>  <MODEL>
1

>  <REMARK>
 VINA RESULT:      -7.8      0.000      0.000
  Name = 
  4 active torsions:
  status: ('A' for Active; 'I' for Inactive)
    1  A    between atoms: C_7  and  C_15
    2  A    between atoms: C_11  and  C_28
    3  A    between atoms: C_15  and  C_23
    4  A    between atoms: C_28  and  O_30
                            x       y       z     vdW  Elec       q    Type
                         _______ _______ _______ _____ _____    ______ ____

>  <TORSDO>
F 4

$$$$
=
 OpenBabel11112416183D

 30 34  0  0  1  0  0  0  0  0999 V2000
  186.1500  177.2500  144.0030 C   0  0  0  0  0  0  0  0  0  0  0  0
  184.7510  178.4180  145.7840 C   0  0  0  0  0  0  0  0  0  0  0  0
  189.2070  176.4040  146.7380 N   0  0  0  0  0  2  0  0  0  0  0  0
  187.2890  176.4910  143.6490 C   0  0  0  0  0  0  0  0  0  0  0  0
  185.2650  177.6760  143.0020 O   0  0  0  0  0  0  0  0  0  0  0  0
  187.2260  177.0780  140.1090 O   0  0  0  0  0  0  0  0  0  0  0  0
  190.0510  175.7100  142.2080 C   0  0  2  0  0  3  0  0  0  0  0  0
  186.7780  176.8810  141.2720 C   0  0  0  0  0  0  0  0  0  0  0  0
  190.2260  176.3320  143.4740 O   0  0  0  0  0  0  0  0  0  0  0  0
  190.1310  175.8210  145.8200 C   0  0  0  0  0  0  0  0  0  0  0  0
  185.3740  177.2930  141.6290 C   0  0  2  0  0  3  0  0  0  0  0  0
  187.5750  176.2060  142.2630 N   0  0  0  0  0  0  0  0  0  0  0  0
  184.4480  178.5920  147.2450 C   0  0  0  0  0  2  0  0  0  0  0  0
  183.9570  178.9100  144.9400 O   0  0  0  0  0  0  0  0  0  0  0  0
  188.0420  176.6010  145.9490 C   0  0  0  0  0  0  0  0  0  0  0  0
  185.6570  178.4250  148.1250 C   0  0  0  0  0  3  0  0  0  0  0  0
  185.9350  177.6300  145.3570 C   0  0  0  0  0  0  0  0  0  0  0  0
  188.2040  176.1630  144.6550 C   0  0  0  0  0  0  0  0  0  0  0  0
  191.3080  175.5200  146.1460 O   0  0  0  0  0  0  0  0  0  0  0  0
  189.5580  175.5800  144.4590 C   0  0  1  0  0  3  0  0  0  0  0  0
  188.4560  174.6040  140.5290 C   0  0  0  0  0  1  0  0  0  0  0  0
  186.7670  177.8090  147.7150 C   0  0  0  0  0  3  0  0  0  0  0  0
  186.9060  177.3120  146.3360 C   0  0  0  0  0  0  0  0  0  0  0  0
  188.6110  175.2090  141.9210 C   0  0  1  0  0  3  0  0  0  0  0  0
  191.0760  174.5950  142.0170 C   0  0  0  0  0  2  0  0  0  0  0  0
  193.1930  174.4080  143.2830 C   0  0  0  0  0  1  0  0  0  0  0  0
  192.4830  175.1430  142.1670 C   0  0  0  0  0  2  0  0  0  0  0  0
  184.8380  178.4100  140.7390 C   0  0  0  0  0  2  0  0  0  0  0  0
  182.6380  178.2360  140.7790 C   0  0  0  0  0  1  0  0  0  0  0  0
  183.7510  177.9570  139.9880 O   0  0  0  0  0  0  0  0  0  0  0  0
  1 17  1  0  0  0  0
  2 13  1  0  0  0  0
  4  1  2  0  0  0  0
  4 18  1  0  0  0  0
  5  1  1  0  0  0  0
  6  8  2  0  0  0  0
  7 25  1  1  0  0  0
  7  9  1  0  0  0  0
  8 11  1  0  0  0  0
  8 12  1  0  0  0  0
 10 19  2  0  0  0  0
 10  3  1  0  0  0  0
 11 28  1  6  0  0  0
 11  5  1  0  0  0  0
 12  4  1  0  0  0  0
 13 16  1  0  0  0  0
 14  2  2  0  0  0  0
 15 23  1  0  0  0  0
 15  3  1  0  0  0  0
 17  2  1  0  0  0  0
 17 23  2  0  0  0  0
 18 15  2  0  0  0  0
 20  9  1  6  0  0  0
 20 18  1  0  0  0  0
 20 10  1  0  0  0  0
 22 16  2  0  0  0  0
 23 22  1  0  0  0  0
 24 21  1  6  0  0  0
 24  7  1  0  0  0  0
 24 12  1  0  0  0  0
 25 27  1  0  0  0  0
 27 26  1  0  0  0  0
 30 28  1  0  0  0  0
 30 29  1  0  0  0  0
M  END
>  <MODEL>
2

>  <REMARK>
 VINA RESULT:      -7.7      1.982      3.502
  Name = 
  4 active torsions:
  status: ('A' for Active; 'I' for Inactive)
    1  A    between atoms: C_7  and  C_15
    2  A    between atoms: C_11  and  C_28
    3  A    between atoms: C_15  and  C_23
    4  A    between atoms: C_28  and  O_30
                            x       y       z     vdW  Elec       q    Type
                         _______ _______ _______ _____ _____    ______ ____

>  <TORSDO>
F 4

$$$$
=
 OpenBabel11112416183D

 30 34  0  0  1  0  0  0  0  0999 V2000
  187.6450  176.4260  144.3810 C   0  0  0  0  0  0  0  0  0  0  0  0
  185.4750  177.6990  144.7870 C   0  0  0  0  0  0  0  0  0  0  0  0
  189.2710  177.7330  148.0130 N   0  0  0  0  0  2  0  0  0  0  0  0
  188.9070  175.9880  144.8430 C   0  0  0  0  0  0  0  0  0  0  0  0
  187.2430  176.1220  143.0730 O   0  0  0  0  0  0  0  0  0  0  0  0
  190.3320  175.0780  141.6770 O   0  0  0  0  0  0  0  0  0  0  0  0
  192.0940  175.6100  144.9730 C   0  0  2  0  0  3  0  0  0  0  0  0
  189.4470  175.2260  142.5640 C   0  0  0  0  0  0  0  0  0  0  0  0
  191.6180  176.7020  145.7500 O   0  0  0  0  0  0  0  0  0  0  0  0
  190.5680  177.1570  147.8620 C   0  0  0  0  0  0  0  0  0  0  0  0
  187.9900  175.2840  142.1870 C   0  0  2  0  0  3  0  0  0  0  0  0
  189.8040  175.2850  143.9580 N   0  0  0  0  0  0  0  0  0  0  0  0
  184.5430  178.3310  145.7810 C   0  0  0  0  0  2  0  0  0  0  0  0
  185.0780  177.5420  143.6030 O   0  0  0  0  0  0  0  0  0  0  0  0
  188.5560  177.2270  146.8950 C   0  0  0  0  0  0  0  0  0  0  0  0
  185.2540  178.9130  146.9730 C   0  0  0  0  0  3  0  0  0  0  0  0
  186.8130  177.2210  145.2180 C   0  0  0  0  0  0  0  0  0  0  0  0
  189.3210  176.3890  146.1180 C   0  0  0  0  0  0  0  0  0  0  0  0
  191.5100  177.3950  148.6610 O   0  0  0  0  0  0  0  0  0  0  0  0
  190.6840  176.2320  146.6920 C   0  0  1  0  0  3  0  0  0  0  0  0
  191.5460  173.4920  143.6320 C   0  0  0  0  0  1  0  0  0  0  0  0
  186.4980  178.5670  147.3100 C   0  0  0  0  0  3  0  0  0  0  0  0
  187.2870  177.6370  146.4850 C   0  0  0  0  0  0  0  0  0  0  0  0
  190.9990  174.6130  144.5110 C   0  0  1  0  0  3  0  0  0  0  0  0
  193.2270  174.8930  145.7030 C   0  0  0  0  0  2  0  0  0  0  0  0
  194.9390  176.3750  144.7070 C   0  0  0  0  0  1  0  0  0  0  0  0
  194.3540  175.8620  146.0050 C   0  0  0  0  0  2  0  0  0  0  0  0
  187.7650  175.7290  140.7460 C   0  0  0  0  0  2  0  0  0  0  0  0
  186.5480  177.2730  139.7450 C   0  0  0  0  0  1  0  0  0  0  0  0
  187.5620  177.1090  140.6870 O   0  0  0  0  0  0  0  0  0  0  0  0
  1  4  2  0  0  0  0
  1 17  1  0  0  0  0
  2 17  1  0  0  0  0
  2 13  1  0  0  0  0
  4 18  1  0  0  0  0
  5  1  1  0  0  0  0
  6  8  2  0  0  0  0
  7 25  1  1  0  0  0
  7  9  1  0  0  0  0
  8 12  1  0  0  0  0
 10  3  1  0  0  0  0
 10 19  2  0  0  0  0
 11 28  1  6  0  0  0
 11  8  1  0  0  0  0
 11  5  1  0  0  0  0
 12 24  1  0  0  0  0
 12  4  1  0  0  0  0
 13 16  1  0  0  0  0
 14  2  2  0  0  0  0
 15  3  1  0  0  0  0
 16 22  2  0  0  0  0
 17 23  2  0  0  0  0
 18 20  1  0  0  0  0
 18 15  2  0  0  0  0
 20  9  1  6  0  0  0
 20 10  1  0  0  0  0
 23 15  1  0  0  0  0
 23 22  1  0  0  0  0
 24 21  1  6  0  0  0
 24  7  1  0  0  0  0
 25 27  1  0  0  0  0
 26 27  1  0  0  0  0
 29 30  1  0  0  0  0
 30 28  1  0  0  0  0
M  END
>  <MODEL>
3

>  <REMARK>
 VINA RESULT:      -7.7      1.189      1.375
  Name = 
  4 active torsions:
  status: ('A' for Active; 'I' for Inactive)
    1  A    between atoms: C_7  and  C_15
    2  A    between atoms: C_11  and  C_28
    3  A    between atoms: C_15  and  C_23
    4  A    between atoms: C_28  and  O_30
                            x       y       z     vdW  Elec       q    Type
                         _______ _______ _______ _____ _____    ______ ____

>  <TORSDO>
F 4

$$$$
=
 OpenBabel11112416183D

 30 34  0  0  1  0  0  0  0  0999 V2000
  189.9010  175.6020  143.8970 C   0  0  0  0  0  0  0  0  0  0  0  0
  191.6270  174.7380  145.5610 C   0  0  0  0  0  0  0  0  0  0  0  0
  187.8140  177.6540  146.8930 N   0  0  0  0  0  2  0  0  0  0  0  0
  188.7820  176.4180  143.6120 C   0  0  0  0  0  0  0  0  0  0  0  0
  190.4300  174.7790  142.8920 O   0  0  0  0  0  0  0  0  0  0  0  0
  187.8050  174.8980  140.5120 O   0  0  0  0  0  0  0  0  0  0  0  0
  185.8110  177.2350  142.7060 C   0  0  2  0  0  3  0  0  0  0  0  0
  188.5740  175.3220  141.4170 C   0  0  0  0  0  0  0  0  0  0  0  0
  185.9390  177.0160  144.1050 O   0  0  0  0  0  0  0  0  0  0  0  0
  186.7280  178.1160  146.0900 C   0  0  0  0  0  0  0  0  0  0  0  0
  189.9790  174.7910  141.5360 C   0  0  2  0  0  3  0  0  0  0  0  0
  188.1490  176.3630  142.3160 N   0  0  0  0  0  0  0  0  0  0  0  0
  192.3080  174.9150  146.8880 C   0  0  0  0  0  2  0  0  0  0  0  0
  192.1070  173.9110  144.7420 O   0  0  0  0  0  0  0  0  0  0  0  0
  188.6910  177.0590  145.9470 C   0  0  0  0  0  0  0  0  0  0  0  0
  191.4110  175.5140  147.9380 C   0  0  0  0  0  3  0  0  0  0  0  0
  190.4480  175.5700  145.2100 C   0  0  0  0  0  0  0  0  0  0  0  0
  188.2160  177.1530  144.6590 C   0  0  0  0  0  0  0  0  0  0  0  0
  185.7200  178.6860  146.5810 O   0  0  0  0  0  0  0  0  0  0  0  0
  186.9200  177.8820  144.6250 C   0  0  1  0  0  3  0  0  0  0  0  0
  186.9700  177.5640  140.4400 C   0  0  0  0  0  1  0  0  0  0  0  0
  190.2910  176.1750  147.6380 C   0  0  0  0  0  3  0  0  0  0  0  0
  189.8200  176.2980  146.2480 C   0  0  0  0  0  0  0  0  0  0  0  0
  187.1540  177.3910  141.9450 C   0  0  1  0  0  3  0  0  0  0  0  0
  184.8790  178.4140  142.4360 C   0  0  0  0  0  2  0  0  0  0  0  0
  183.3000  178.2880  140.5370 C   0  0  0  0  0  1  0  0  0  0  0  0
  183.5180  177.9160  141.9870 C   0  0  0  0  0  2  0  0  0  0  0  0
  190.1430  173.4030  140.9270 C   0  0  0  0  0  2  0  0  0  0  0  0
  190.4500  173.3400  138.7420 C   0  0  0  0  0  1  0  0  0  0  0  0
  191.1410  173.4130  139.9500 O   0  0  0  0  0  0  0  0  0  0  0  0
  1 17  1  0  0  0  0
  2 13  1  0  0  0  0
  4  1  2  0  0  0  0
  4 18  1  0  0  0  0
  5  1  1  0  0  0  0
  6  8  2  0  0  0  0
  7 25  1  1  0  0  0
  7  9  1  0  0  0  0
  8 11  1  0  0  0  0
  8 12  1  0  0  0  0
 10 19  2  0  0  0  0
 10  3  1  0  0  0  0
 11 28  1  1  0  0  0
 11  5  1  0  0  0  0
 12  4  1  0  0  0  0
 13 16  1  0  0  0  0
 14  2  2  0  0  0  0
 15 23  1  0  0  0  0
 15  3  1  0  0  0  0
 17  2  1  0  0  0  0
 17 23  2  0  0  0  0
 18 15  2  0  0  0  0
 20  9  1  1  0  0  0
 20 18  1  0  0  0  0
 20 10  1  0  0  0  0
 22 16  2  0  0  0  0
 23 22  1  0  0  0  0
 24 21  1  6  0  0  0
 24 12  1  0  0  0  0
 24  7  1  0  0  0  0
 26 27  1  0  0  0  0
 27 25  1  0  0  0  0
 29 30  1  0  0  0  0
 30 28  1  0  0  0  0
M  END
>  <MODEL>
4

>  <REMARK>
 VINA RESULT:      -7.3      1.932      5.776
  Name = 
  4 active torsions:
  status: ('A' for Active; 'I' for Inactive)
    1  A    between atoms: C_7  and  C_15
    2  A    between atoms: C_11  and  C_28
    3  A    between atoms: C_15  and  C_23
    4  A    between atoms: C_28  and  O_30
                            x       y       z     vdW  Elec       q    Type
                         _______ _______ _______ _____ _____    ______ ____

>  <TORSDO>
F 4

$$$$
=
 OpenBabel11112416183D

 30 34  0  0  1  0  0  0  0  0999 V2000
  190.8400  175.3580  143.7200 C   0  0  0  0  0  0  0  0  0  0  0  0
  193.2660  174.8240  144.2890 C   0  0  0  0  0  0  0  0  0  0  0  0
  190.3060  177.4720  147.2960 N   0  0  0  0  0  2  0  0  0  0  0  0
  189.6360  176.0330  144.0240 C   0  0  0  0  0  0  0  0  0  0  0  0
  190.8910  174.5010  142.6120 O   0  0  0  0  0  0  0  0  0  0  0  0
  187.4340  174.1440  141.9120 O   0  0  0  0  0  0  0  0  0  0  0  0
  186.5370  176.4750  144.7430 C   0  0  2  0  0  3  0  0  0  0  0  0
  188.4920  174.7230  142.2800 C   0  0  0  0  0  0  0  0  0  0  0  0
  187.3810  176.4000  145.8850 O   0  0  0  0  0  0  0  0  0  0  0  0
  188.9140  177.7500  147.1500 C   0  0  0  0  0  0  0  0  0  0  0  0
  189.8200  174.3420  141.6790 C   0  0  2  0  0  3  0  0  0  0  0  0
  188.4480  175.7970  143.2370 N   0  0  0  0  0  0  0  0  0  0  0  0
  194.4940  175.1880  145.0740 C   0  0  0  0  0  2  0  0  0  0  0  0
  193.3700  173.9730  143.3670 O   0  0  0  0  0  0  0  0  0  0  0  0
  190.6540  176.8780  146.0540 C   0  0  0  0  0  0  0  0  0  0  0  0
  194.1810  175.7940  146.4160 C   0  0  0  0  0  3  0  0  0  0  0  0
  191.9740  175.5020  144.5670 C   0  0  0  0  0  0  0  0  0  0  0  0
  189.5860  176.8060  145.1890 C   0  0  0  0  0  0  0  0  0  0  0  0
  188.2270  178.2650  148.0690 O   0  0  0  0  0  0  0  0  0  0  0  0
  188.3680  177.4000  145.8010 C   0  0  1  0  0  3  0  0  0  0  0  0
  186.3390  176.7000  142.1950 C   0  0  0  0  0  1  0  0  0  0  0  0
  192.9880  176.3130  146.7120 C   0  0  0  0  0  3  0  0  0  0  0  0
  191.8680  176.2600  145.7570 C   0  0  0  0  0  0  0  0  0  0  0  0
  187.2780  176.6860  143.3970 C   0  0  1  0  0  3  0  0  0  0  0  0
  185.4520  177.5280  144.9530 C   0  0  0  0  0  2  0  0  0  0  0  0
  184.8260  178.6100  147.0870 C   0  0  0  0  0  1  0  0  0  0  0  0
  184.7720  177.3230  146.2930 C   0  0  0  0  0  2  0  0  0  0  0  0
  189.8330  172.9250  141.1160 C   0  0  0  0  0  2  0  0  0  0  0  0
  190.2840  171.0140  142.1240 C   0  0  0  0  0  1  0  0  0  0  0  0
  190.8830  172.1890  141.6690 O   0  0  0  0  0  0  0  0  0  0  0  0
  1  4  2  0  0  0  0
  1 17  1  0  0  0  0
  2 17  1  0  0  0  0
  2 13  1  0  0  0  0
  4 18  1  0  0  0  0
  5  1  1  0  0  0  0
  6  8  2  0  0  0  0
  7 25  1  1  0  0  0
  7  9  1  0  0  0  0
  8 12  1  0  0  0  0
 10  3  1  0  0  0  0
 10 19  2  0  0  0  0
 11 28  1  1  0  0  0
 11  8  1  0  0  0  0
 11  5  1  0  0  0  0
 12 24  1  0  0  0  0
 12  4  1  0  0  0  0
 13 16  1  0  0  0  0
 14  2  2  0  0  0  0
 15  3  1  0  0  0  0
 16 22  2  0  0  0  0
 17 23  2  0  0  0  0
 18 15  2  0  0  0  0
 20 18  1  6  0  0  0
 20  9  1  0  0  0  0
 20 10  1  0  0  0  0
 23 15  1  0  0  0  0
 23 22  1  0  0  0  0
 24 21  1  6  0  0  0
 24  7  1  0  0  0  0
 25 27  1  0  0  0  0
 27 26  1  0  0  0  0
 28 30  1  0  0  0  0
 30 29  1  0  0  0  0
M  END
>  <MODEL>
5

>  <REMARK>
 VINA RESULT:      -7.2      1.802      5.653
  Name = 
  4 active torsions:
  status: ('A' for Active; 'I' for Inactive)
    1  A    between atoms: C_7  and  C_15
    2  A    between atoms: C_11  and  C_28
    3  A    between atoms: C_15  and  C_23
    4  A    between atoms: C_28  and  O_30
                            x       y       z     vdW  Elec       q    Type
                         _______ _______ _______ _____ _____    ______ ____

>  <TORSDO>
F 4

$$$$
=
 OpenBabel11112416183D

 30 34  0  0  1  0  0  0  0  0999 V2000
  190.3160  174.5890  144.0420 C   0  0  0  0  0  0  0  0  0  0  0  0
  191.7790  173.1530  142.5300 C   0  0  0  0  0  0  0  0  0  0  0  0
  187.8170  175.6670  140.8590 N   0  0  0  0  0  2  0  0  0  0  0  0
  189.1610  175.3840  144.2270 C   0  0  0  0  0  0  0  0  0  0  0  0
  191.2230  174.4330  145.1000 O   0  0  0  0  0  0  0  0  0  0  0  0
  190.1290  177.0110  147.2750 O   0  0  0  0  0  0  0  0  0  0  0  0
  187.3570  177.9560  144.8920 C   0  0  2  0  0  3  0  0  0  0  0  0
  190.0260  176.0870  146.4220 C   0  0  0  0  0  0  0  0  0  0  0  0
  187.6680  177.8210  143.5110 O   0  0  0  0  0  0  0  0  0  0  0  0
  186.9840  176.5830  141.5690 C   0  0  0  0  0  0  0  0  0  0  0  0
  191.0020  174.9390  146.4190 C   0  0  2  0  0  3  0  0  0  0  0  0
  188.9440  176.0790  145.4730 N   0  0  0  0  0  0  0  0  0  0  0  0
  191.8980  172.3690  141.2540 C   0  0  0  0  0  2  0  0  0  0  0  0
  192.6830  173.0320  143.3980 O   0  0  0  0  0  0  0  0  0  0  0  0
  188.6290  175.1040  141.8790 C   0  0  0  0  0  0  0  0  0  0  0  0
  191.0810  172.9430  140.1280 C   0  0  0  0  0  3  0  0  0  0  0  0
  190.5870  174.0020  142.7750 C   0  0  0  0  0  0  0  0  0  0  0  0
  188.3250  175.6000  143.1260 C   0  0  0  0  0  0  0  0  0  0  0  0
  186.1310  177.3060  140.9940 O   0  0  0  0  0  0  0  0  0  0  0  0
  187.2040  176.5750  143.0490 C   0  0  1  0  0  3  0  0  0  0  0  0
  187.3360  176.9010  147.2310 C   0  0  0  0  0  1  0  0  0  0  0  0
  190.0710  173.7920  140.3300 C   0  0  0  0  0  3  0  0  0  0  0  0
  189.7370  174.2810  141.6790 C   0  0  0  0  0  0  0  0  0  0  0  0
  187.6270  176.6910  145.7480 C   0  0  1  0  0  3  0  0  0  0  0  0
  185.9240  178.4520  145.0680 C   0  0  0  0  0  2  0  0  0  0  0  0
  184.2110  179.0410  143.3840 C   0  0  0  0  0  1  0  0  0  0  0  0
  185.5610  179.4170  143.9550 C   0  0  0  0  0  2  0  0  0  0  0  0
  192.3370  175.2910  147.0660 C   0  0  0  0  0  2  0  0  0  0  0  0
  194.0790  176.5290  146.5130 C   0  0  0  0  0  1  0  0  0  0  0  0
  193.3300  175.4300  146.0940 O   0  0  0  0  0  0  0  0  0  0  0  0
  1  4  1  0  0  0  0
  1  5  1  0  0  0  0
  2 17  1  0  0  0  0
  2 14  2  0  0  0  0
  3 10  1  0  0  0  0
  3 15  1  0  0  0  0
  4 12  1  0  0  0  0
  5 11  1  0  0  0  0
  7 25  1  6  0  0  0
  7 24  1  0  0  0  0
  8  6  2  0  0  0  0
  9  7  1  0  0  0  0
 11  8  1  0  0  0  0
 11 28  1  6  0  0  0
 12 24  1  0  0  0  0
 12  8  1  0  0  0  0
 13  2  1  0  0  0  0
 15 18  1  0  0  0  0
 16 22  2  0  0  0  0
 16 13  1  0  0  0  0
 17  1  2  0  0  0  0
 18  4  2  0  0  0  0
 19 10  2  0  0  0  0
 20 10  1  6  0  0  0
 20 18  1  0  0  0  0
 20  9  1  0  0  0  0
 22 23  1  0  0  0  0
 23 15  2  0  0  0  0
 23 17  1  0  0  0  0
 24 21  1  1  0  0  0
 26 27  1  0  0  0  0
 27 25  1  0  0  0  0
 30 29  1  0  0  0  0
 30 28  1  0  0  0  0
M  END
>  <MODEL>
6

>  <REMARK>
 VINA RESULT:      -7.2      1.788      6.989
  Name = 
  4 active torsions:
  status: ('A' for Active; 'I' for Inactive)
    1  A    between atoms: C_7  and  C_15
    2  A    between atoms: C_11  and  C_28
    3  A    between atoms: C_15  and  C_23
    4  A    between atoms: C_28  and  O_30
                            x       y       z     vdW  Elec       q    Type
                         _______ _______ _______ _____ _____    ______ ____

>  <TORSDO>
F 4

$$$$
=
 OpenBabel11112416183D

 30 34  0  0  1  0  0  0  0  0999 V2000
  187.4720  176.9380  143.9340 C   0  0  0  0  0  0  0  0  0  0  0  0
  185.7050  178.1710  142.5740 C   0  0  0  0  0  0  0  0  0  0  0  0
  188.8760  174.9040  140.5530 N   0  0  0  0  0  2  0  0  0  0  0  0
  188.5890  176.0730  143.9850 C   0  0  0  0  0  0  0  0  0  0  0  0
  186.9220  177.4280  145.1270 O   0  0  0  0  0  0  0  0  0  0  0  0
  188.4730  175.2780  147.4820 O   0  0  0  0  0  0  0  0  0  0  0  0
  190.3770  173.5150  144.7400 C   0  0  2  0  0  3  0  0  0  0  0  0
  188.3680  175.9740  146.4350 C   0  0  0  0  0  0  0  0  0  0  0  0
  189.6840  173.3810  143.5060 O   0  0  0  0  0  0  0  0  0  0  0  0
  189.8330  174.0740  141.2100 C   0  0  0  0  0  0  0  0  0  0  0  0
  187.4930  177.2000  146.4180 C   0  0  2  0  0  3  0  0  0  0  0  0
  189.1250  175.6470  145.2550 N   0  0  0  0  0  0  0  0  0  0  0  0
  185.2570  178.6650  141.2270 C   0  0  0  0  0  2  0  0  0  0  0  0
  185.1010  178.5840  143.5980 O   0  0  0  0  0  0  0  0  0  0  0  0
  188.4260  175.7680  141.5860 C   0  0  0  0  0  0  0  0  0  0  0  0
  185.6810  177.7670  140.0970 C   0  0  0  0  0  3  0  0  0  0  0  0
  186.8730  177.2620  142.6850 C   0  0  0  0  0  0  0  0  0  0  0  0
  189.0550  175.5240  142.7850 C   0  0  0  0  0  0  0  0  0  0  0  0
  190.4430  173.1470  140.6190 O   0  0  0  0  0  0  0  0  0  0  0  0
  190.0550  174.4320  142.6460 C   0  0  1  0  0  3  0  0  0  0  0  0
  191.1320  175.0460  146.6560 C   0  0  0  0  0  1  0  0  0  0  0  0
  186.6620  176.8700  140.2170 C   0  0  0  0  0  3  0  0  0  0  0  0
  187.3500  176.6520  141.5000 C   0  0  0  0  0  0  0  0  0  0  0  0
  190.4330  174.9590  145.3030 C   0  0  1  0  0  3  0  0  0  0  0  0
  191.7720  172.9040  144.6350 C   0  0  0  0  0  2  0  0  0  0  0  0
  192.6250  171.4390  142.8340 C   0  0  0  0  0  1  0  0  0  0  0  0
  191.6950  171.5180  144.0250 C   0  0  0  0  0  2  0  0  0  0  0  0
  186.3880  177.1580  147.4690 C   0  0  0  0  0  2  0  0  0  0  0  0
  184.5120  178.2950  147.2320 C   0  0  0  0  0  1  0  0  0  0  0  0
  185.1340  177.1050  146.8580 O   0  0  0  0  0  0  0  0  0  0  0  0
  1  4  1  0  0  0  0
  1  5  1  0  0  0  0
  2 17  1  0  0  0  0
  2 14  2  0  0  0  0
  3 10  1  0  0  0  0
  3 15  1  0  0  0  0
  4 12  1  0  0  0  0
  5 11  1  0  0  0  0
  7 25  1  6  0  0  0
  7 24  1  0  0  0  0
  8  6  2  0  0  0  0
  9  7  1  0  0  0  0
 11  8  1  0  0  0  0
 11 28  1  1  0  0  0
 12 24  1  0  0  0  0
 12  8  1  0  0  0  0
 13  2  1  0  0  0  0
 15 18  1  0  0  0  0
 16 22  2  0  0  0  0
 16 13  1  0  0  0  0
 17  1  2  0  0  0  0
 18  4  2  0  0  0  0
 19 10  2  0  0  0  0
 20 10  1  6  0  0  0
 20 18  1  0  0  0  0
 20  9  1  0  0  0  0
 22 23  1  0  0  0  0
 23 15  2  0  0  0  0
 23 17  1  0  0  0  0
 24 21  1  1  0  0  0
 26 27  1  0  0  0  0
 27 25  1  0  0  0  0
 30 29  1  0  0  0  0
 30 28  1  0  0  0  0
M  END
>  <MODEL>
7

>  <REMARK>
 VINA RESULT:      -7.0      2.141      5.119
  Name = 
  4 active torsions:
  status: ('A' for Active; 'I' for Inactive)
    1  A    between atoms: C_7  and  C_15
    2  A    between atoms: C_11  and  C_28
    3  A    between atoms: C_15  and  C_23
    4  A    between atoms: C_28  and  O_30
                            x       y       z     vdW  Elec       q    Type
                         _______ _______ _______ _____ _____    ______ ____

>  <TORSDO>
F 4

$$$$
=
 OpenBabel11112416183D

 30 34  0  0  1  0  0  0  0  0999 V2000
  188.0900  176.9340  144.6860 C   0  0  0  0  0  0  0  0  0  0  0  0
  186.3940  178.4530  145.8290 C   0  0  0  0  0  0  0  0  0  0  0  0
  186.2350  177.4100  140.9610 N   0  0  0  0  0  2  0  0  0  0  0  0
  188.6170  176.3650  143.5030 C   0  0  0  0  0  0  0  0  0  0  0  0
  188.6320  176.5730  145.9270 O   0  0  0  0  0  0  0  0  0  0  0  0
  190.5160  173.7150  145.0020 O   0  0  0  0  0  0  0  0  0  0  0  0
  189.5070  174.1190  141.3870 C   0  0  2  0  0  3  0  0  0  0  0  0
  190.0000  174.8580  144.8750 C   0  0  0  0  0  0  0  0  0  0  0  0
  188.1910  174.6130  141.1730 O   0  0  0  0  0  0  0  0  0  0  0  0
  187.0500  176.5010  140.2210 C   0  0  0  0  0  0  0  0  0  0  0  0
  189.7810  175.7360  146.0800 C   0  0  2  0  0  3  0  0  0  0  0  0
  189.6640  175.3740  143.5730 N   0  0  0  0  0  0  0  0  0  0  0  0
  185.3820  179.5540  145.6900 C   0  0  0  0  0  2  0  0  0  0  0  0
  186.7660  178.1180  146.9850 O   0  0  0  0  0  0  0  0  0  0  0  0
  186.8670  177.4580  142.2320 C   0  0  0  0  0  0  0  0  0  0  0  0
  184.6590  179.5300  144.3710 C   0  0  0  0  0  3  0  0  0  0  0  0
  186.9800  177.8200  144.6210 C   0  0  0  0  0  0  0  0  0  0  0  0
  187.9930  176.6690  142.2880 C   0  0  0  0  0  0  0  0  0  0  0  0
  186.7930  176.1750  139.0340 O   0  0  0  0  0  0  0  0  0  0  0  0
  188.2410  176.0060  140.9800 C   0  0  1  0  0  3  0  0  0  0  0  0
  191.7590  174.3780  142.5890 C   0  0  0  0  0  1  0  0  0  0  0  0
  185.1250  178.8760  143.3050 C   0  0  0  0  0  3  0  0  0  0  0  0
  186.3540  178.0680  143.3760 C   0  0  0  0  0  0  0  0  0  0  0  0
  190.3780  174.9770  142.3410 C   0  0  1  0  0  3  0  0  0  0  0  0
  190.2100  173.8840  140.0520 C   0  0  0  0  0  2  0  0  0  0  0  0
  189.0540  172.0820  138.8130 C   0  0  0  0  0  1  0  0  0  0  0  0
  190.2230  172.4050  139.7180 C   0  0  0  0  0  2  0  0  0  0  0  0
  189.6740  174.9460  147.3790 C   0  0  0  0  0  2  0  0  0  0  0  0
  191.2380  176.3700  148.0060 C   0  0  0  0  0  1  0  0  0  0  0  0
  190.8650  175.0310  148.1030 O   0  0  0  0  0  0  0  0  0  0  0  0
  1  5  1  0  0  0  0
  2 14  2  0  0  0  0
  3 15  1  0  0  0  0
  4 12  1  0  0  0  0
  4  1  2  0  0  0  0
  5 11  1  0  0  0  0
  7 25  1  6  0  0  0
  7 24  1  0  0  0  0
  8  6  2  0  0  0  0
  8 11  1  0  0  0  0
  9  7  1  0  0  0  0
 10  3  1  0  0  0  0
 11 28  1  1  0  0  0
 12  8  1  0  0  0  0
 13  2  1  0  0  0  0
 15 18  2  0  0  0  0
 15 23  1  0  0  0  0
 16 13  1  0  0  0  0
 17  1  1  0  0  0  0
 17  2  1  0  0  0  0
 18  4  1  0  0  0  0
 19 10  2  0  0  0  0
 20 10  1  6  0  0  0
 20  9  1  0  0  0  0
 20 18  1  0  0  0  0
 22 23  1  0  0  0  0
 22 16  2  0  0  0  0
 23 17  2  0  0  0  0
 24 21  1  1  0  0  0
 24 12  1  0  0  0  0
 26 27  1  0  0  0  0
 27 25  1  0  0  0  0
 28 30  1  0  0  0  0
 29 30  1  0  0  0  0
M  END
>  <MODEL>
8

>  <REMARK>
 VINA RESULT:      -6.9      2.138      5.497
  Name = 
  4 active torsions:
  status: ('A' for Active; 'I' for Inactive)
    1  A    between atoms: C_7  and  C_15
    2  A    between atoms: C_11  and  C_28
    3  A    between atoms: C_15  and  C_23
    4  A    between atoms: C_28  and  O_30
                            x       y       z     vdW  Elec       q    Type
                         _______ _______ _______ _____ _____    ______ ____

>  <TORSDO>
F 4

$$$$
=
 OpenBabel11112416183D

 30 34  0  0  1  0  0  0  0  0999 V2000
  188.8780  177.1890  145.3670 C   0  0  0  0  0  0  0  0  0  0  0  0
  186.6930  178.1050  146.3030 C   0  0  0  0  0  0  0  0  0  0  0  0
  187.0500  176.0870  141.7630 N   0  0  0  0  0  2  0  0  0  0  0  0
  189.6090  176.6430  144.2870 C   0  0  0  0  0  0  0  0  0  0  0  0
  189.5000  177.3450  146.6130 O   0  0  0  0  0  0  0  0  0  0  0  0
  192.3970  175.3550  146.1440 O   0  0  0  0  0  0  0  0  0  0  0  0
  191.3690  174.5510  142.6010 C   0  0  2  0  0  3  0  0  0  0  0  0
  191.4630  176.1420  145.8280 C   0  0  0  0  0  0  0  0  0  0  0  0
  189.9690  174.4200  142.3870 O   0  0  0  0  0  0  0  0  0  0  0  0
  188.1760  175.4470  141.1630 C   0  0  0  0  0  0  0  0  0  0  0  0
  190.8870  177.0910  146.8470 C   0  0  2  0  0  3  0  0  0  0  0  0
  190.9670  176.1930  144.4780 N   0  0  0  0  0  0  0  0  0  0  0  0
  185.3230  178.6540  146.0200 C   0  0  0  0  0  2  0  0  0  0  0  0
  187.1500  178.1990  147.4730 O   0  0  0  0  0  0  0  0  0  0  0  0
  187.5870  176.6500  142.9510 C   0  0  0  0  0  0  0  0  0  0  0  0
  184.6930  178.0650  144.7870 C   0  0  0  0  0  3  0  0  0  0  0  0
  187.5040  177.5210  145.2060 C   0  0  0  0  0  0  0  0  0  0  0  0
  188.9360  176.4090  143.0830 C   0  0  0  0  0  0  0  0  0  0  0  0
  188.0920  174.8030  140.0860 O   0  0  0  0  0  0  0  0  0  0  0  0
  189.4530  175.6420  141.9180 C   0  0  1  0  0  3  0  0  0  0  0  0
  193.3020  175.9370  143.5640 C   0  0  0  0  0  1  0  0  0  0  0  0
  185.4020  177.4440  143.8420 C   0  0  0  0  0  3  0  0  0  0  0  0
  186.8520  177.2300  143.9840 C   0  0  0  0  0  0  0  0  0  0  0  0
  191.8010  175.8660  143.3010 C   0  0  1  0  0  3  0  0  0  0  0  0
  192.1280  174.3420  141.2930 C   0  0  0  0  0  2  0  0  0  0  0  0
  192.7820  172.3330  142.5790 C   0  0  0  0  0  1  0  0  0  0  0  0
  192.6120  172.9080  141.1890 C   0  0  0  0  0  2  0  0  0  0  0  0
  191.0890  176.6160  148.2830 C   0  0  0  0  0  2  0  0  0  0  0  0
  191.3430  178.2420  149.7530 C   0  0  0  0  0  1  0  0  0  0  0  0
  192.0630  177.3870  148.9200 O   0  0  0  0  0  0  0  0  0  0  0  0
  1  5  1  0  0  0  0
  2 14  2  0  0  0  0
  3 15  1  0  0  0  0
  4 12  1  0  0  0  0
  4  1  2  0  0  0  0
  5 11  1  0  0  0  0
  7 25  1  6  0  0  0
  7 24  1  0  0  0  0
  8  6  2  0  0  0  0
  8 11  1  0  0  0  0
  9  7  1  0  0  0  0
 10  3  1  0  0  0  0
 11 28  1  1  0  0  0
 12  8  1  0  0  0  0
 13  2  1  0  0  0  0
 15 18  2  0  0  0  0
 15 23  1  0  0  0  0
 16 13  1  0  0  0  0
 17  1  1  0  0  0  0
 17  2  1  0  0  0  0
 18  4  1  0  0  0  0
 19 10  2  0  0  0  0
 20 10  1  6  0  0  0
 20  9  1  0  0  0  0
 20 18  1  0  0  0  0
 22 23  1  0  0  0  0
 22 16  2  0  0  0  0
 23 17  2  0  0  0  0
 24 21  1  1  0  0  0
 24 12  1  0  0  0  0
 27 25  1  0  0  0  0
 27 26  1  0  0  0  0
 28 30  1  0  0  0  0
 30 29  1  0  0  0  0
M  END
>  <MODEL>
9

>  <REMARK>
 VINA RESULT:      -6.8      1.880      5.346
  Name = 
  4 active torsions:
  status: ('A' for Active; 'I' for Inactive)
    1  A    between atoms: C_7  and  C_15
    2  A    between atoms: C_11  and  C_28
    3  A    between atoms: C_15  and  C_23
    4  A    between atoms: C_28  and  O_30
                            x       y       z     vdW  Elec       q    Type
                         _______ _______ _______ _____ _____    ______ ____

>  <TORSDO>
F 4

$$$$
