=
 OpenBabel11112416303D

 32 37  0  0  1  0  0  0  0  0999 V2000
  188.1090  176.7600  146.2800 C   0  0  0  0  0  2  0  0  0  0  0  0
  192.0680  174.7070  143.7080 C   0  0  1  0  0  3  0  0  0  0  0  0
  190.5690  170.3110  141.9370 C   0  0  0  0  0  3  0  0  0  0  0  0
  191.9000  169.9700  141.6920 C   0  0  0  0  0  3  0  0  0  0  0  0
  194.4320  175.0560  144.3740 N   0  0  0  0  0  0  0  0  0  0  0  0
  195.6010  175.0210  143.4770 C   0  0  2  0  0  3  0  0  0  0  0  0
  190.4160  176.5260  144.1450 C   0  0  1  0  0  3  0  0  0  0  0  0
  189.6530  174.3440  143.1600 C   0  0  0  0  0  2  0  0  0  0  0  0
  195.6590  175.4760  141.1400 C   0  0  0  0  0  0  0  0  0  0  0  0
  187.6940  176.2500  143.5280 S   0  0  0  0  0  0  0  0  0  0  0  0
  190.2630  171.5250  142.5560 C   0  0  0  0  0  3  0  0  0  0  0  0
  190.9280  173.6780  143.6840 C   0  0  1  0  0  3  0  0  0  0  0  0
  191.2810  172.4230  142.9170 C   0  0  0  0  0  0  0  0  0  0  0  0
  193.7690  172.9670  143.0580 C   0  0  1  0  0  3  0  0  0  0  0  0
  196.4180  176.5700  141.6190 N   0  0  0  0  0  2  0  0  0  0  0  0
  189.4630  177.4770  146.3490 C   0  0  0  0  0  2  0  0  0  0  0  0
  189.2710  175.5030  144.0750 C   0  0  2  0  0  3  0  0  0  0  0  0
  196.4100  176.6630  143.3840 S   0  0  0  0  0  0  0  0  0  0  0  0
  190.0900  177.7690  144.9790 C   0  0  0  0  0  2  0  0  0  0  0  0
  187.2740  177.1770  145.0650 C   0  0  1  0  0  3  0  0  0  0  0  0
  192.9250  170.8390  142.0710 C   0  0  0  0  0  3  0  0  0  0  0  0
  192.6290  172.0570  142.6960 C   0  0  0  0  0  0  0  0  0  0  0  0
  194.2860  173.6170  141.8640 N   0  0  0  0  0  2  0  0  0  0  0  0
  191.6940  175.8560  144.6470 C   0  0  0  0  0  2  0  0  0  0  0  0
  194.9230  174.8130  145.7210 C   0  0  0  0  0  1  0  0  0  0  0  0
  195.3550  175.3040  139.6930 C   0  0  0  0  0  1  0  0  0  0  0  0
  193.3820  174.0350  144.1180 C   0  0  2  0  0  3  0  0  0  0  0  0
  195.2040  174.6780  142.0850 C   0  0  0  0  0  0  0  0  0  0  0  0
  185.7930  177.0000  145.3570 C   0  0  0  0  0  2  0  0  0  0  0  0
  185.0860  178.3130  145.3510 C   0  0  0  0  0  0  0  0  0  0  0  0
  183.9310  178.4840  146.1030 O   0  0  0  0  0  1  0  0  0  0  0  0
  185.5720  179.3260  144.6490 C   0  0  0  0  0  2  0  0  0  0  0  0
  1 16  1  0  0  0  0
  2 27  1  0  0  0  0
  2 24  1  1  0  0  0
  3 11  1  0  0  0  0
  4  3  2  0  0  0  0
  4 21  1  0  0  0  0
  5 25  1  0  0  0  0
  6 28  1  6  0  0  0
  6  5  1  0  0  0  0
  7 24  1  1  0  0  0
  7 19  1  0  0  0  0
  9 15  1  0  0  0  0
  9 28  2  0  0  0  0
 10 17  1  0  0  0  0
 10 20  1  0  0  0  0
 11 13  2  0  0  0  0
 12  8  1  6  0  0  0
 12  2  1  0  0  0  0
 13 12  1  0  0  0  0
 14 23  1  6  0  0  0
 14 27  1  0  0  0  0
 15 18  1  0  0  0  0
 17  8  1  6  0  0  0
 17  7  1  0  0  0  0
 18  6  1  0  0  0  0
 19 16  1  0  0  0  0
 20 29  1  1  0  0  0
 20  1  1  0  0  0  0
 21 22  2  0  0  0  0
 22 13  1  0  0  0  0
 22 14  1  0  0  0  0
 23 28  1  0  0  0  0
 26  9  1  0  0  0  0
 27  5  1  6  0  0  0
 30 29  1  0  0  0  0
 30 31  1  0  0  0  0
 32 30  2  0  0  0  0
M  END
>  <MODEL>
1

>  <REMARK>
 VINA RESULT:      -7.9      0.000      0.000
  Name = 
  2 active torsions:
  status: ('A' for Active; 'I' for Inactive)
    1  A    between atoms: C_20  and  C_29
    2  A    between atoms: C_29  and  C_30
                            x       y       z     vdW  Elec       q    Type
                         _______ _______ _______ _____ _____    ______ ____

>  <TORSDO>
F 2

$$$$
=
 OpenBabel11112416303D

 32 37  0  0  1  0  0  0  0  0999 V2000
  186.8740  178.1290  142.8240 C   0  0  0  0  0  2  0  0  0  0  0  0
  190.8220  174.8260  142.7070 C   0  0  1  0  0  3  0  0  0  0  0  0
  194.5730  176.9070  145.2170 C   0  0  0  0  0  3  0  0  0  0  0  0
  195.4480  175.9740  144.6590 C   0  0  0  0  0  3  0  0  0  0  0  0
  191.2730  173.3340  140.7760 N   0  0  0  0  0  0  0  0  0  0  0  0
  191.9590  172.0310  140.8280 C   0  0  2  0  0  3  0  0  0  0  0  0
  188.4570  175.4330  143.2290 C   0  0  1  0  0  3  0  0  0  0  0  0
  190.3370  176.4230  144.5720 C   0  0  0  0  0  2  0  0  0  0  0  0
  192.1030  170.5320  142.6730 C   0  0  0  0  0  0  0  0  0  0  0  0
  187.7920  177.1750  145.3250 S   0  0  0  0  0  0  0  0  0  0  0  0
  193.2290  176.9170  144.8370 C   0  0  0  0  0  3  0  0  0  0  0  0
  191.3070  176.0880  143.4360 C   0  0  1  0  0  3  0  0  0  0  0  0
  192.7380  175.9820  143.9110 C   0  0  0  0  0  0  0  0  0  0  0  0
  193.1810  174.0330  142.3270 C   0  0  1  0  0  3  0  0  0  0  0  0
  191.3100  169.7580  141.7930 N   0  0  0  0  0  2  0  0  0  0  0  0
  186.7410  176.8760  141.9490 C   0  0  0  0  0  2  0  0  0  0  0  0
  188.9460  176.6720  143.9980 C   0  0  2  0  0  3  0  0  0  0  0  0
  190.8240  170.6700  140.3590 S   0  0  0  0  0  0  0  0  0  0  0  0
  187.0320  175.5610  142.6840 C   0  0  0  0  0  2  0  0  0  0  0  0
  186.4530  177.8870  144.2770 C   0  0  1  0  0  3  0  0  0  0  0  0
  194.9820  175.0560  143.7160 C   0  0  0  0  0  3  0  0  0  0  0  0
  193.6370  175.0610  143.3250 C   0  0  0  0  0  0  0  0  0  0  0  0
  193.0700  172.7320  142.9680 N   0  0  0  0  0  2  0  0  0  0  0  0
  189.4370  175.0860  142.1100 C   0  0  0  0  0  2  0  0  0  0  0  0
  191.3740  173.8140  139.4080 C   0  0  0  0  0  1  0  0  0  0  0  0
  192.4670  170.0490  144.0340 C   0  0  0  0  0  1  0  0  0  0  0  0
  191.8380  174.4040  141.6410 C   0  0  2  0  0  3  0  0  0  0  0  0
  192.4270  171.7210  142.2060 C   0  0  0  0  0  0  0  0  0  0  0  0
  185.9730  179.1840  144.9080 C   0  0  0  0  0  2  0  0  0  0  0  0
  185.2930  178.9260  146.2100 C   0  0  0  0  0  0  0  0  0  0  0  0
  185.8440  179.4080  147.3900 O   0  0  0  0  0  1  0  0  0  0  0  0
  184.1490  178.2590  146.2400 C   0  0  0  0  0  2  0  0  0  0  0  0
  1 20  1  0  0  0  0
  2 24  1  6  0  0  0
  2 12  1  0  0  0  0
  4  3  2  0  0  0  0
  5  6  1  0  0  0  0
  6 18  1  1  0  0  0
  6 28  1  0  0  0  0
  7 24  1  6  0  0  0
  7 17  1  0  0  0  0
  9 26  1  0  0  0  0
 11  3  1  0  0  0  0
 12 13  1  0  0  0  0
 12  8  1  1  0  0  0
 13 11  2  0  0  0  0
 14 23  1  1  0  0  0
 14 22  1  0  0  0  0
 15  9  1  0  0  0  0
 16 19  1  0  0  0  0
 16  1  1  0  0  0  0
 17  8  1  1  0  0  0
 17 10  1  0  0  0  0
 18 15  1  0  0  0  0
 19  7  1  0  0  0  0
 20 29  1  1  0  0  0
 20 10  1  0  0  0  0
 21  4  1  0  0  0  0
 22 21  2  0  0  0  0
 22 13  1  0  0  0  0
 25  5  1  0  0  0  0
 27  5  1  1  0  0  0
 27 14  1  0  0  0  0
 27  2  1  0  0  0  0
 28  9  2  0  0  0  0
 28 23  1  0  0  0  0
 29 30  1  0  0  0  0
 30 32  2  0  0  0  0
 30 31  1  0  0  0  0
M  END
>  <MODEL>
2

>  <REMARK>
 VINA RESULT:      -7.8      2.485      4.759
  Name = 
  2 active torsions:
  status: ('A' for Active; 'I' for Inactive)
    1  A    between atoms: C_20  and  C_29
    2  A    between atoms: C_29  and  C_30
                            x       y       z     vdW  Elec       q    Type
                         _______ _______ _______ _____ _____    ______ ____

>  <TORSDO>
F 2

$$$$
=
 OpenBabel11112416303D

 32 37  0  0  1  0  0  0  0  0999 V2000
  184.6450  177.5220  142.7580 C   0  0  0  0  0  2  0  0  0  0  0  0
  189.1520  175.3840  144.0300 C   0  0  1  0  0  3  0  0  0  0  0  0
  190.0840  171.8000  140.7140 C   0  0  0  0  0  3  0  0  0  0  0  0
  191.0640  171.2850  141.5640 C   0  0  0  0  0  3  0  0  0  0  0  0
  189.9190  175.1560  146.3780 N   0  0  0  0  0  0  0  0  0  0  0  0
  191.3200  175.1020  146.8320 C   0  0  2  0  0  3  0  0  0  0  0  0
  187.7220  177.3350  143.4170 C   0  0  1  0  0  3  0  0  0  0  0  0
  188.2610  175.5820  141.6990 C   0  0  0  0  0  2  0  0  0  0  0  0
  193.2370  176.0220  145.7580 C   0  0  0  0  0  0  0  0  0  0  0  0
  186.7070  177.6860  140.8260 S   0  0  0  0  0  0  0  0  0  0  0  0
  189.3120  172.8910  141.1200 C   0  0  0  0  0  3  0  0  0  0  0  0
  188.6030  174.6030  142.8260 C   0  0  1  0  0  3  0  0  0  0  0  0
  189.5250  173.4960  142.3690 C   0  0  0  0  0  0  0  0  0  0  0  0
  190.7790  173.5440  144.5900 C   0  0  1  0  0  3  0  0  0  0  0  0
  193.1930  176.8370  146.9140 N   0  0  0  0  0  0  0  0  0  0  0  0
  185.3030  177.9550  144.0740 C   0  0  0  0  0  2  0  0  0  0  0  0
  187.2070  176.5710  142.1870 C   0  0  2  0  0  3  0  0  0  0  0  0
  191.7330  176.5560  147.8710 S   0  0  0  0  0  0  0  0  0  0  0  0
  186.7600  178.4120  143.9290 C   0  0  0  0  0  2  0  0  0  0  0  0
  185.1390  178.3290  141.5520 C   0  0  1  0  0  3  0  0  0  0  0  0
  191.2690  171.8580  142.8200 C   0  0  0  0  0  3  0  0  0  0  0  0
  190.4980  172.9500  143.2380 C   0  0  0  0  0  0  0  0  0  0  0  0
  192.0040  174.3280  144.5440 N   0  0  0  0  0  0  0  0  0  0  0  0
  188.0840  176.3570  144.5330 C   0  0  0  0  0  2  0  0  0  0  0  0
  189.1100  174.5520  147.4240 C   0  0  0  0  0  1  0  0  0  0  0  0
  194.2650  176.2150  144.6990 C   0  0  0  0  0  1  0  0  0  0  0  0
  189.6110  174.4160  145.1260 C   0  0  2  0  0  3  0  0  0  0  0  0
  192.2630  175.1370  145.6820 C   0  0  0  0  0  0  0  0  0  0  0  0
  184.0730  178.3610  140.4690 C   0  0  0  0  0  2  0  0  0  0  0  0
  182.7050  178.3450  141.0630 C   0  0  0  0  0  0  0  0  0  0  0  0
  182.4780  178.9340  142.3000 O   0  0  0  0  0  1  0  0  0  0  0  0
  181.7000  177.7920  140.4000 C   0  0  0  0  0  2  0  0  0  0  0  0
  1 16  1  0  0  0  0
  2 24  1  1  0  0  0
  2 27  1  0  0  0  0
  3 11  2  0  0  0  0
  3  4  1  0  0  0  0
  4 21  2  0  0  0  0
  5  6  1  0  0  0  0
  5 25  1  0  0  0  0
  6 28  1  6  0  0  0
  6 18  1  0  0  0  0
  7 19  1  1  0  0  0
  7 24  1  0  0  0  0
  9 15  2  0  0  0  0
 10 20  1  0  0  0  0
 10 17  1  0  0  0  0
 11 13  1  0  0  0  0
 12  8  1  6  0  0  0
 12  2  1  0  0  0  0
 13 12  1  0  0  0  0
 13 22  2  0  0  0  0
 14 22  1  6  0  0  0
 14 27  1  0  0  0  0
 15 18  1  0  0  0  0
 17  8  1  6  0  0  0
 17  7  1  0  0  0  0
 19 16  1  0  0  0  0
 20 29  1  6  0  0  0
 20  1  1  0  0  0  0
 21 22  1  0  0  0  0
 23 14  1  0  0  0  0
 23 28  2  0  0  0  0
 26  9  1  0  0  0  0
 27  5  1  1  0  0  0
 28  9  1  0  0  0  0
 29 30  1  0  0  0  0
 30 31  1  0  0  0  0
 32 30  2  0  0  0  0
M  END
>  <MODEL>
3

>  <REMARK>
 VINA RESULT:      -7.6      2.865      4.181
  Name = 
  2 active torsions:
  status: ('A' for Active; 'I' for Inactive)
    1  A    between atoms: C_20  and  C_29
    2  A    between atoms: C_29  and  C_30
                            x       y       z     vdW  Elec       q    Type
                         _______ _______ _______ _____ _____    ______ ____

>  <TORSDO>
F 2

$$$$
=
 OpenBabel11112416303D

 32 37  0  0  1  0  0  0  0  0999 V2000
  190.9080  173.5770  138.2460 C   0  0  0  0  0  2  0  0  0  0  0  0
  189.6490  175.6840  142.7720 C   0  0  1  0  0  3  0  0  0  0  0  0
  185.2850  177.9860  142.1750 C   0  0  0  0  0  3  0  0  0  0  0  0
  185.4940  178.6690  143.3740 C   0  0  0  0  0  3  0  0  0  0  0  0
  191.3360  176.5750  144.3580 N   0  0  0  0  0  0  0  0  0  0  0  0
  191.1870  176.6690  145.8210 C   0  0  2  0  0  3  0  0  0  0  0  0
  190.2650  173.7430  141.3280 C   0  0  1  0  0  3  0  0  0  0  0  0
  188.0150  174.8350  141.0760 C   0  0  0  0  0  2  0  0  0  0  0  0
  189.8160  175.3290  147.2350 C   0  0  0  0  0  0  0  0  0  0  0  0
  188.4980  172.6770  139.4270 S   0  0  0  0  0  0  0  0  0  0  0  0
  186.2710  177.1320  141.6770 C   0  0  0  0  0  3  0  0  0  0  0  0
  188.5620  176.0880  141.7650 C   0  0  1  0  0  3  0  0  0  0  0  0
  187.4690  176.9310  142.3810 C   0  0  0  0  0  0  0  0  0  0  0  0
  188.9480  177.4870  144.3840 C   0  0  1  0  0  3  0  0  0  0  0  0
  191.0960  174.9180  147.6790 N   0  0  0  0  0  0  0  0  0  0  0  0
  191.9430  173.5290  139.3770 C   0  0  0  0  0  2  0  0  0  0  0  0
  189.1470  174.1220  140.3430 C   0  0  2  0  0  3  0  0  0  0  0  0
  192.3920  175.5840  146.6770 S   0  0  0  0  0  0  0  0  0  0  0  0
  191.4100  172.9490  140.6930 C   0  0  0  0  0  2  0  0  0  0  0  0
  189.9230  172.4030  138.2900 C   0  0  1  0  0  3  0  0  0  0  0  0
  186.6920  178.5020  144.0710 C   0  0  0  0  0  3  0  0  0  0  0  0
  187.6890  177.6510  143.5790 C   0  0  0  0  0  0  0  0  0  0  0  0
  188.6920  176.6440  145.5410 N   0  0  0  0  0  0  0  0  0  0  0  0
  190.7950  174.9920  142.0300 C   0  0  0  0  0  2  0  0  0  0  0  0
  192.3620  177.5290  143.9730 C   0  0  0  0  0  1  0  0  0  0  0  0
  188.5660  174.7450  147.7950 C   0  0  0  0  0  1  0  0  0  0  0  0
  190.1280  176.9090  143.5570 C   0  0  2  0  0  3  0  0  0  0  0  0
  189.8390  176.2130  146.2580 C   0  0  0  0  0  0  0  0  0  0  0  0
  189.3910  172.1110  136.8970 C   0  0  0  0  0  2  0  0  0  0  0  0
  189.9670  170.8450  136.3580 C   0  0  0  0  0  0  0  0  0  0  0  0
  190.4220  170.7910  135.0480 O   0  0  0  0  0  1  0  0  0  0  0  0
  190.0700  169.7790  137.1380 C   0  0  0  0  0  2  0  0  0  0  0  0
  1 20  1  0  0  0  0
  1 16  1  0  0  0  0
  2 24  1  6  0  0  0
  2 27  1  0  0  0  0
  3  4  1  0  0  0  0
  4 21  2  0  0  0  0
  5  6  1  0  0  0  0
  6 28  1  6  0  0  0
  6 18  1  0  0  0  0
  7 19  1  6  0  0  0
  7 24  1  0  0  0  0
  9 15  2  0  0  0  0
  9 26  1  0  0  0  0
 10 17  1  0  0  0  0
 11  3  2  0  0  0  0
 11 13  1  0  0  0  0
 12  8  1  1  0  0  0
 12 13  1  0  0  0  0
 12  2  1  0  0  0  0
 13 22  2  0  0  0  0
 14 22  1  6  0  0  0
 14 23  1  0  0  0  0
 16 19  1  0  0  0  0
 17  8  1  1  0  0  0
 17  7  1  0  0  0  0
 18 15  1  0  0  0  0
 20 29  1  6  0  0  0
 20 10  1  0  0  0  0
 22 21  1  0  0  0  0
 23 28  2  0  0  0  0
 25  5  1  0  0  0  0
 27  5  1  1  0  0  0
 27 14  1  0  0  0  0
 28  9  1  0  0  0  0
 30 29  1  0  0  0  0
 30 32  2  0  0  0  0
 31 30  1  0  0  0  0
M  END
>  <MODEL>
4

>  <REMARK>
 VINA RESULT:      -7.6      4.279      7.872
  Name = 
  2 active torsions:
  status: ('A' for Active; 'I' for Inactive)
    1  A    between atoms: C_20  and  C_29
    2  A    between atoms: C_29  and  C_30
                            x       y       z     vdW  Elec       q    Type
                         _______ _______ _______ _____ _____    ______ ____

>  <TORSDO>
F 2

$$$$
=
 OpenBabel11112416303D

 32 37  0  0  1  0  0  0  0  0999 V2000
  188.5660  175.2910  147.1450 C   0  0  0  0  0  2  0  0  0  0  0  0
  192.2800  174.4480  143.6810 C   0  0  1  0  0  3  0  0  0  0  0  0
  190.0660  173.3370  139.3720 C   0  0  0  0  0  3  0  0  0  0  0  0
  191.2800  172.8490  138.8870 C   0  0  0  0  0  3  0  0  0  0  0  0
  194.4660  173.4340  144.2710 N   0  0  0  0  0  0  0  0  0  0  0  0
  195.7410  173.6480  143.5620 C   0  0  2  0  0  3  0  0  0  0  0  0
  191.1140  175.8590  145.3770 C   0  0  1  0  0  3  0  0  0  0  0  0
  190.0180  175.3870  143.1650 C   0  0  0  0  0  2  0  0  0  0  0  0
  196.3890  175.5380  142.2670 C   0  0  0  0  0  0  0  0  0  0  0  0
  188.5980  177.0030  144.8920 S   0  0  0  0  0  0  0  0  0  0  0  0
  189.9720  173.7910  140.6890 C   0  0  0  0  0  3  0  0  0  0  0  0
  190.9380  174.1770  142.9840 C   0  0  1  0  0  3  0  0  0  0  0  0
  191.0950  173.7840  141.5320 C   0  0  0  0  0  0  0  0  0  0  0  0
  193.5570  173.2190  141.8910 C   0  0  1  0  0  3  0  0  0  0  0  0
  197.2970  175.6620  143.3450 N   0  0  0  0  0  0  0  0  0  0  0  0
  190.0180  175.2600  147.6380 C   0  0  0  0  0  2  0  0  0  0  0  0
  189.7780  175.6250  144.6530 C   0  0  2  0  0  3  0  0  0  0  0  0
  196.9560  174.5030  144.6370 S   0  0  0  0  0  0  0  0  0  0  0  0
  190.9650  176.1890  146.8660 C   0  0  0  0  0  2  0  0  0  0  0  0
  188.1360  176.6740  146.6460 C   0  0  1  0  0  3  0  0  0  0  0  0
  192.3990  172.8100  139.7210 C   0  0  0  0  0  3  0  0  0  0  0  0
  192.3150  173.2590  141.0450 C   0  0  0  0  0  0  0  0  0  0  0  0
  194.4580  174.2930  141.5030 N   0  0  0  0  0  0  0  0  0  0  0  0
  192.0390  174.6610  145.1770 C   0  0  0  0  0  2  0  0  0  0  0  0
  194.5920  172.1860  145.0050 C   0  0  0  0  0  1  0  0  0  0  0  0
  196.3510  176.5280  141.1550 C   0  0  0  0  0  1  0  0  0  0  0  0
  193.2590  173.3000  143.4140 C   0  0  2  0  0  3  0  0  0  0  0  0
  195.5580  174.5210  142.3710 C   0  0  0  0  0  0  0  0  0  0  0  0
  186.6330  176.8450  146.7980 C   0  0  0  0  0  2  0  0  0  0  0  0
  186.2830  178.2640  147.0930 C   0  0  0  0  0  0  0  0  0  0  0  0
  186.7450  178.8670  148.2550 O   0  0  0  0  0  1  0  0  0  0  0  0
  185.5520  178.9600  146.2340 C   0  0  0  0  0  2  0  0  0  0  0  0
  1 16  1  0  0  0  0
  2 24  1  1  0  0  0
  3 11  1  0  0  0  0
  4  3  2  0  0  0  0
  4 21  1  0  0  0  0
  5 25  1  0  0  0  0
  6 28  1  6  0  0  0
  6  5  1  0  0  0  0
  6 18  1  0  0  0  0
  7 24  1  1  0  0  0
  7 19  1  0  0  0  0
  9 28  1  0  0  0  0
  9 15  2  0  0  0  0
 10 20  1  0  0  0  0
 11 13  2  0  0  0  0
 12  8  1  6  0  0  0
 12  2  1  0  0  0  0
 13 12  1  0  0  0  0
 14 22  1  6  0  0  0
 14 27  1  0  0  0  0
 15 18  1  0  0  0  0
 17  8  1  6  0  0  0
 17 10  1  0  0  0  0
 17  7  1  0  0  0  0
 19 16  1  0  0  0  0
 20 29  1  6  0  0  0
 20  1  1  0  0  0  0
 21 22  2  0  0  0  0
 22 13  1  0  0  0  0
 23 14  1  0  0  0  0
 23 28  2  0  0  0  0
 26  9  1  0  0  0  0
 27  2  1  0  0  0  0
 27  5  1  1  0  0  0
 29 30  1  0  0  0  0
 30 31  1  0  0  0  0
 32 30  2  0  0  0  0
M  END
>  <MODEL>
5

>  <REMARK>
 VINA RESULT:      -7.5      1.974      2.130
  Name = 
  2 active torsions:
  status: ('A' for Active; 'I' for Inactive)
    1  A    between atoms: C_20  and  C_29
    2  A    between atoms: C_29  and  C_30
                            x       y       z     vdW  Elec       q    Type
                         _______ _______ _______ _____ _____    ______ ____

>  <TORSDO>
F 2

$$$$
=
 OpenBabel11112416303D

 32 37  0  0  1  0  0  0  0  0999 V2000
  187.0550  176.6240  146.1460 C   0  0  0  0  0  2  0  0  0  0  0  0
  191.1730  174.9620  143.5410 C   0  0  1  0  0  3  0  0  0  0  0  0
  189.5130  172.3650  139.6410 C   0  0  0  0  0  3  0  0  0  0  0  0
  190.7910  171.8310  139.4680 C   0  0  0  0  0  3  0  0  0  0  0  0
  193.3070  174.3470  144.6460 N   0  0  0  0  0  0  0  0  0  0  0  0
  194.6480  174.4070  144.0370 C   0  0  2  0  0  3  0  0  0  0  0  0
  189.7720  176.7620  144.5520 C   0  0  1  0  0  3  0  0  0  0  0  0
  188.9570  175.5250  142.5220 C   0  0  0  0  0  2  0  0  0  0  0  0
  195.3810  175.8150  142.2620 C   0  0  0  0  0  0  0  0  0  0  0  0
  187.2940  177.5110  143.4700 S   0  0  0  0  0  0  0  0  0  0  0  0
  189.2520  173.2140  140.7190 C   0  0  0  0  0  3  0  0  0  0  0  0
  189.9310  174.3880  142.8420 C   0  0  1  0  0  3  0  0  0  0  0  0
  190.2690  173.5580  141.6240 C   0  0  0  0  0  0  0  0  0  0  0  0
  192.6880  173.3100  142.3920 C   0  0  1  0  0  3  0  0  0  0  0  0
  196.1530  176.3440  143.3240 N   0  0  0  0  0  0  0  0  0  0  0  0
  188.4410  176.8550  146.7630 C   0  0  0  0  0  2  0  0  0  0  0  0
  188.5380  176.2150  143.8160 C   0  0  2  0  0  3  0  0  0  0  0  0
  195.7020  175.6460  144.8840 S   0  0  0  0  0  0  0  0  0  0  0  0
  189.4400  177.5460  145.8260 C   0  0  0  0  0  2  0  0  0  0  0  0
  186.6420  177.7380  145.1790 C   0  0  1  0  0  3  0  0  0  0  0  0
  191.8050  172.1410  140.3750 C   0  0  0  0  0  3  0  0  0  0  0  0
  191.5530  172.9880  141.4620 C   0  0  0  0  0  0  0  0  0  0  0  0
  193.5930  174.2600  141.7640 N   0  0  0  0  0  0  0  0  0  0  0  0
  190.7530  175.6310  144.8510 C   0  0  0  0  0  2  0  0  0  0  0  0
  193.3870  173.4160  145.7590 C   0  0  0  0  0  1  0  0  0  0  0  0
  195.4410  176.3860  140.8880 C   0  0  0  0  0  1  0  0  0  0  0  0
  192.2130  173.8590  143.7650 C   0  0  2  0  0  3  0  0  0  0  0  0
  194.5770  174.8320  142.6130 C   0  0  0  0  0  0  0  0  0  0  0  0
  185.1270  177.8440  145.1160 C   0  0  0  0  0  2  0  0  0  0  0  0
  184.7040  178.9030  144.1540 C   0  0  0  0  0  0  0  0  0  0  0  0
  183.7800  178.6110  143.1600 O   0  0  0  0  0  1  0  0  0  0  0  0
  185.1910  180.1310  144.2630 C   0  0  0  0  0  2  0  0  0  0  0  0
  1 16  1  0  0  0  0
  2 27  1  0  0  0  0
  2 24  1  1  0  0  0
  3 11  1  0  0  0  0
  4  3  2  0  0  0  0
  4 21  1  0  0  0  0
  5 25  1  0  0  0  0
  6 28  1  6  0  0  0
  6  5  1  0  0  0  0
  6 18  1  0  0  0  0
  7 24  1  1  0  0  0
  7 19  1  0  0  0  0
  9 28  1  0  0  0  0
  9 15  2  0  0  0  0
 10 17  1  0  0  0  0
 10 20  1  0  0  0  0
 11 13  2  0  0  0  0
 12  8  1  6  0  0  0
 12  2  1  0  0  0  0
 13 12  1  0  0  0  0
 14 22  1  6  0  0  0
 14 27  1  0  0  0  0
 15 18  1  0  0  0  0
 17  8  1  6  0  0  0
 17  7  1  0  0  0  0
 19 16  1  0  0  0  0
 20 29  1  6  0  0  0
 20  1  1  0  0  0  0
 21 22  2  0  0  0  0
 22 13  1  0  0  0  0
 23 14  1  0  0  0  0
 23 28  2  0  0  0  0
 26  9  1  0  0  0  0
 27  5  1  6  0  0  0
 30 32  2  0  0  0  0
 30 29  1  0  0  0  0
 31 30  1  0  0  0  0
M  END
>  <MODEL>
6

>  <REMARK>
 VINA RESULT:      -7.5      1.564      1.692
  Name = 
  2 active torsions:
  status: ('A' for Active; 'I' for Inactive)
    1  A    between atoms: C_20  and  C_29
    2  A    between atoms: C_29  and  C_30
                            x       y       z     vdW  Elec       q    Type
                         _______ _______ _______ _____ _____    ______ ____

>  <TORSDO>
F 2

$$$$
=
 OpenBabel11112416303D

 32 37  0  0  1  0  0  0  0  0999 V2000
  187.3960  177.0290  145.8760 C   0  0  0  0  0  2  0  0  0  0  0  0
  190.9580  174.7420  142.9450 C   0  0  1  0  0  3  0  0  0  0  0  0
  188.5870  172.5500  139.1660 C   0  0  0  0  0  3  0  0  0  0  0  0
  189.7370  171.8090  138.8900 C   0  0  0  0  0  3  0  0  0  0  0  0
  193.0320  173.7480  143.8760 N   0  0  0  0  0  0  0  0  0  0  0  0
  194.3140  173.5910  143.1650 C   0  0  2  0  0  3  0  0  0  0  0  0
  189.9680  176.7340  144.0760 C   0  0  1  0  0  3  0  0  0  0  0  0
  188.8020  175.6970  142.1060 C   0  0  0  0  0  2  0  0  0  0  0  0
  195.1420  174.8900  141.3490 C   0  0  0  0  0  0  0  0  0  0  0  0
  187.5820  177.9180  143.1960 S   0  0  0  0  0  0  0  0  0  0  0  0
  188.5580  173.4080  140.2680 C   0  0  0  0  0  3  0  0  0  0  0  0
  189.5870  174.4030  142.3410 C   0  0  1  0  0  3  0  0  0  0  0  0
  189.6840  173.5540  141.0940 C   0  0  0  0  0  0  0  0  0  0  0  0
  192.0760  172.8800  141.6690 C   0  0  1  0  0  3  0  0  0  0  0  0
  196.0710  175.2560  142.3520 N   0  0  0  0  0  0  0  0  0  0  0  0
  188.8430  177.0060  146.3850 C   0  0  0  0  0  2  0  0  0  0  0  0
  188.6060  176.4210  143.4340 C   0  0  2  0  0  3  0  0  0  0  0  0
  195.6250  174.6130  143.9370 S   0  0  0  0  0  0  0  0  0  0  0  0
  189.8730  177.5350  145.3780 C   0  0  0  0  0  2  0  0  0  0  0  0
  187.1090  178.2170  144.9520 C   0  0  1  0  0  3  0  0  0  0  0  0
  190.8560  171.9220  139.7180 C   0  0  0  0  0  3  0  0  0  0  0  0
  190.8350  172.7760  140.8270 C   0  0  0  0  0  0  0  0  0  0  0  0
  193.0810  173.6740  140.9800 N   0  0  0  0  0  0  0  0  0  0  0  0
  190.7600  175.4450  144.2890 C   0  0  0  0  0  2  0  0  0  0  0  0
  193.0340  172.7940  144.9720 C   0  0  0  0  0  1  0  0  0  0  0  0
  195.1950  175.4710  139.9790 C   0  0  0  0  0  1  0  0  0  0  0  0
  191.8070  173.4730  143.0800 C   0  0  2  0  0  3  0  0  0  0  0  0
  194.2100  174.0510  141.7540 C   0  0  0  0  0  0  0  0  0  0  0  0
  185.6340  178.5820  145.0080 C   0  0  0  0  0  2  0  0  0  0  0  0
  185.1900  178.8000  146.4150 C   0  0  0  0  0  0  0  0  0  0  0  0
  185.9390  179.6030  147.2640 O   0  0  0  0  0  1  0  0  0  0  0  0
  184.0660  178.2490  146.8490 C   0  0  0  0  0  2  0  0  0  0  0  0
  1 16  1  0  0  0  0
  2 27  1  0  0  0  0
  2 24  1  1  0  0  0
  3 11  1  0  0  0  0
  4  3  2  0  0  0  0
  4 21  1  0  0  0  0
  5 25  1  0  0  0  0
  6 28  1  6  0  0  0
  6  5  1  0  0  0  0
  6 18  1  0  0  0  0
  7 24  1  1  0  0  0
  7 19  1  0  0  0  0
  9 28  1  0  0  0  0
  9 15  2  0  0  0  0
 10 17  1  0  0  0  0
 10 20  1  0  0  0  0
 11 13  2  0  0  0  0
 12  8  1  6  0  0  0
 12  2  1  0  0  0  0
 13 12  1  0  0  0  0
 14 22  1  6  0  0  0
 14 27  1  0  0  0  0
 15 18  1  0  0  0  0
 17  8  1  6  0  0  0
 17  7  1  0  0  0  0
 19 16  1  0  0  0  0
 20 29  1  6  0  0  0
 20  1  1  0  0  0  0
 21 22  2  0  0  0  0
 22 13  1  0  0  0  0
 23 14  1  0  0  0  0
 23 28  2  0  0  0  0
 26  9  1  0  0  0  0
 27  5  1  6  0  0  0
 29 30  1  0  0  0  0
 30 32  2  0  0  0  0
 30 31  1  0  0  0  0
M  END
>  <MODEL>
7

>  <REMARK>
 VINA RESULT:      -7.5      1.802      2.118
  Name = 
  2 active torsions:
  status: ('A' for Active; 'I' for Inactive)
    1  A    between atoms: C_20  and  C_29
    2  A    between atoms: C_29  and  C_30
                            x       y       z     vdW  Elec       q    Type
                         _______ _______ _______ _____ _____    ______ ____

>  <TORSDO>
F 2

$$$$
=
 OpenBabel11112416303D

 32 37  0  0  1  0  0  0  0  0999 V2000
  187.8670  177.5760  143.1350 C   0  0  0  0  0  2  0  0  0  0  0  0
  191.5790  174.0150  142.9240 C   0  0  1  0  0  3  0  0  0  0  0  0
  195.1430  175.3960  146.1010 C   0  0  0  0  0  3  0  0  0  0  0  0
  196.0150  174.4870  145.5000 C   0  0  0  0  0  3  0  0  0  0  0  0
  192.1520  172.7880  140.8450 N   0  0  0  0  0  0  0  0  0  0  0  0
  192.7420  171.4400  140.7680 C   0  0  2  0  0  3  0  0  0  0  0  0
  189.2150  174.7300  143.2840 C   0  0  1  0  0  3  0  0  0  0  0  0
  190.9870  175.3580  144.9520 C   0  0  0  0  0  2  0  0  0  0  0  0
  192.5750  169.6820  142.3650 C   0  0  0  0  0  0  0  0  0  0  0  0
  188.4270  176.1970  145.5420 S   0  0  0  0  0  0  0  0  0  0  0  0
  193.8560  175.5710  145.5890 C   0  0  0  0  0  3  0  0  0  0  0  0
  192.0580  175.1140  143.8850 C   0  0  1  0  0  3  0  0  0  0  0  0
  193.4150  174.8240  144.4850 C   0  0  0  0  0  0  0  0  0  0  0  0
  193.9110  173.0970  142.6750 C   0  0  1  0  0  3  0  0  0  0  0  0
  191.8390  169.1110  141.2990 N   0  0  0  0  0  2  0  0  0  0  0  0
  187.7540  176.4790  142.0690 C   0  0  0  0  0  2  0  0  0  0  0  0
  189.6910  175.8000  144.2810 C   0  0  2  0  0  3  0  0  0  0  0  0
  191.5820  170.2580  139.9800 S   0  0  0  0  0  0  0  0  0  0  0  0
  187.8730  175.0520  142.6200 C   0  0  0  0  0  2  0  0  0  0  0  0
  187.2670  177.1610  144.4820 C   0  0  1  0  0  3  0  0  0  0  0  0
  195.6010  173.7570  144.3850 C   0  0  0  0  0  3  0  0  0  0  0  0
  194.3140  173.9280  143.8610 C   0  0  0  0  0  0  0  0  0  0  0  0
  193.6420  171.7300  143.0930 N   0  0  0  0  0  2  0  0  0  0  0  0
  190.2920  174.4710  142.2330 C   0  0  0  0  0  2  0  0  0  0  0  0
  192.4420  173.4520  139.5850 C   0  0  0  0  0  1  0  0  0  0  0  0
  192.7480  168.9780  143.6660 C   0  0  0  0  0  1  0  0  0  0  0  0
  192.6820  173.6710  141.9180 C   0  0  2  0  0  3  0  0  0  0  0  0
  193.0270  170.8960  142.1230 C   0  0  0  0  0  0  0  0  0  0  0  0
  186.8030  178.3870  145.2520 C   0  0  0  0  0  2  0  0  0  0  0  0
  185.8920  178.0040  146.3690 C   0  0  0  0  0  0  0  0  0  0  0  0
  184.8410  177.1260  146.1410 O   0  0  0  0  0  1  0  0  0  0  0  0
  186.1000  178.4810  147.5880 C   0  0  0  0  0  2  0  0  0  0  0  0
  1 20  1  0  0  0  0
  2 24  1  6  0  0  0
  2 12  1  0  0  0  0
  4  3  2  0  0  0  0
  6 18  1  1  0  0  0
  6  5  1  0  0  0  0
  6 28  1  0  0  0  0
  7 24  1  6  0  0  0
  7 17  1  0  0  0  0
  9 26  1  0  0  0  0
 11  3  1  0  0  0  0
 12 13  1  0  0  0  0
 12  8  1  1  0  0  0
 13 11  2  0  0  0  0
 14 23  1  1  0  0  0
 14 22  1  0  0  0  0
 15  9  1  0  0  0  0
 16 19  1  0  0  0  0
 16  1  1  0  0  0  0
 17  8  1  1  0  0  0
 17 10  1  0  0  0  0
 18 15  1  0  0  0  0
 19  7  1  0  0  0  0
 20 29  1  1  0  0  0
 20 10  1  0  0  0  0
 21  4  1  0  0  0  0
 22 21  2  0  0  0  0
 22 13  1  0  0  0  0
 25  5  1  0  0  0  0
 27  5  1  6  0  0  0
 27 14  1  0  0  0  0
 27  2  1  0  0  0  0
 28  9  2  0  0  0  0
 28 23  1  0  0  0  0
 29 30  1  0  0  0  0
 30 32  2  0  0  0  0
 31 30  1  0  0  0  0
M  END
>  <MODEL>
8

>  <REMARK>
 VINA RESULT:      -6.8      2.524      4.615
  Name = 
  2 active torsions:
  status: ('A' for Active; 'I' for Inactive)
    1  A    between atoms: C_20  and  C_29
    2  A    between atoms: C_29  and  C_30
                            x       y       z     vdW  Elec       q    Type
                         _______ _______ _______ _____ _____    ______ ____

>  <TORSDO>
F 2

$$$$
=
 OpenBabel11112416303D

 32 37  0  0  1  0  0  0  0  0999 V2000
  186.5300  178.3130  141.6450 C   0  0  0  0  0  2  0  0  0  0  0  0
  190.5190  175.6040  143.4500 C   0  0  1  0  0  3  0  0  0  0  0  0
  191.1280  176.8590  148.2210 C   0  0  0  0  0  3  0  0  0  0  0  0
  192.3950  176.2750  148.2000 C   0  0  0  0  0  3  0  0  0  0  0  0
  192.4730  174.9900  142.0510 N   0  0  0  0  0  0  0  0  0  0  0  0
  193.3460  173.8180  142.2460 C   0  0  2  0  0  3  0  0  0  0  0  0
  188.2780  175.7910  142.3680 C   0  0  1  0  0  3  0  0  0  0  0  0
  188.5470  176.3390  144.8060 C   0  0  0  0  0  2  0  0  0  0  0  0
  192.7980  171.7500  143.2900 C   0  0  0  0  0  0  0  0  0  0  0  0
  185.9890  176.5580  143.7980 S   0  0  0  0  0  0  0  0  0  0  0  0
  190.3650  176.9120  147.0520 C   0  0  0  0  0  3  0  0  0  0  0  0
  190.0500  176.5310  144.5820 C   0  0  1  0  0  3  0  0  0  0  0  0
  190.8490  176.3610  145.8540 C   0  0  0  0  0  0  0  0  0  0  0  0
  192.7280  175.1930  144.5860 C   0  0  1  0  0  3  0  0  0  0  0  0
  192.9820  171.3070  141.9590 N   0  0  0  0  0  2  0  0  0  0  0  0
  187.3440  177.4770  140.6490 C   0  0  0  0  0  2  0  0  0  0  0  0
  187.7940  176.6810  143.5240 C   0  0  2  0  0  3  0  0  0  0  0  0
  193.2110  172.6540  140.8360 S   0  0  0  0  0  0  0  0  0  0  0  0
  187.5180  176.0080  141.0560 C   0  0  0  0  0  2  0  0  0  0  0  0
  185.4170  177.5110  142.3270 C   0  0  1  0  0  3  0  0  0  0  0  0
  192.9020  175.7480  147.0110 C   0  0  0  0  0  3  0  0  0  0  0  0
  192.1460  175.7990  145.8320 C   0  0  0  0  0  0  0  0  0  0  0  0
  192.6590  173.7420  144.6590 N   0  0  0  0  0  2  0  0  0  0  0  0
  189.7800  175.9660  142.1600 C   0  0  0  0  0  2  0  0  0  0  0  0
  193.2270  175.9560  141.2690 C   0  0  0  0  0  1  0  0  0  0  0  0
  192.3930  170.8180  144.3790 C   0  0  0  0  0  1  0  0  0  0  0  0
  192.0400  175.6930  143.2870 C   0  0  2  0  0  3  0  0  0  0  0  0
  192.9540  173.0480  143.4560 C   0  0  0  0  0  0  0  0  0  0  0  0
  184.2860  178.4340  142.7490 C   0  0  0  0  0  2  0  0  0  0  0  0
  184.6250  179.1530  144.0110 C   0  0  0  0  0  0  0  0  0  0  0  0
  185.5620  180.1770  143.9980 O   0  0  0  0  0  1  0  0  0  0  0  0
  184.0130  178.8320  145.1420 C   0  0  0  0  0  2  0  0  0  0  0  0
  1 20  1  0  0  0  0
  2 24  1  6  0  0  0
  2 12  1  0  0  0  0
  4  3  1  0  0  0  0
  5  6  1  0  0  0  0
  6 18  1  6  0  0  0
  6 28  1  0  0  0  0
  7 19  1  6  0  0  0
  7 17  1  0  0  0  0
  9 28  2  0  0  0  0
  9 26  1  0  0  0  0
 11  3  2  0  0  0  0
 12  8  1  1  0  0  0
 12 13  1  0  0  0  0
 13 11  1  0  0  0  0
 14 23  1  1  0  0  0
 14 22  1  0  0  0  0
 15  9  1  0  0  0  0
 16 19  1  0  0  0  0
 16  1  1  0  0  0  0
 17 10  1  0  0  0  0
 17  8  1  1  0  0  0
 18 15  1  0  0  0  0
 20 29  1  1  0  0  0
 20 10  1  0  0  0  0
 21  4  2  0  0  0  0
 22 13  2  0  0  0  0
 22 21  1  0  0  0  0
 24  7  1  0  0  0  0
 25  5  1  0  0  0  0
 27  5  1  6  0  0  0
 27  2  1  0  0  0  0
 27 14  1  0  0  0  0
 28 23  1  0  0  0  0
 29 30  1  0  0  0  0
 30 32  2  0  0  0  0
 31 30  1  0  0  0  0
M  END
>  <MODEL>
9

>  <REMARK>
 VINA RESULT:      -6.4      2.404      4.705
  Name = 
  2 active torsions:
  status: ('A' for Active; 'I' for Inactive)
    1  A    between atoms: C_20  and  C_29
    2  A    between atoms: C_29  and  C_30
                            x       y       z     vdW  Elec       q    Type
                         _______ _______ _______ _____ _____    ______ ____

>  <TORSDO>
F 2

$$$$
