=
 OpenBabel11112416413D

 32 37  0  0  1  0  0  0  0  0999 V2000
  189.3400  175.1700  145.2380 C   0  0  1  0  0  3  0  0  0  0  0  0
  188.9310  174.2470  141.0780 O   0  0  0  0  0  0  0  0  0  0  0  0
  187.8540  175.1510  141.0180 C   0  0  0  0  0  2  0  0  0  0  0  0
  187.2820  176.3710  146.2320 C   0  0  0  0  0  0  0  0  0  0  0  0
  186.0570  177.0560  145.9300 N   0  0  0  0  0  0  0  0  0  0  0  0
  191.4260  175.1310  146.7360 C   0  0  2  0  0  3  0  0  0  0  0  0
  191.3180  174.3620  144.3970 O   0  0  0  0  0  0  0  0  0  0  0  0
  184.7290  178.6590  144.7900 C   0  0  1  0  0  3  0  0  0  0  0  0
  189.2970  174.1360  142.4310 C   0  0  0  0  0  2  0  0  0  0  0  0
  190.4370  175.3930  144.2820 N   0  0  1  0  0  0  0  0  0  0  0  0
  189.9400  175.4530  142.9020 C   0  0  2  0  0  3  0  0  0  0  0  0
  187.8500  176.5730  143.8050 C   0  0  2  0  0  3  0  0  0  0  0  0
  184.1460  178.4260  146.1820 C   0  0  0  0  0  2  0  0  0  0  0  0
  192.1860  174.7120  145.4540 C   0  0  2  0  0  3  0  0  0  0  0  0
  185.1680  177.5880  146.9410 C   0  0  0  0  0  2  0  0  0  0  0  0
  188.3410  176.5720  141.3270 C   0  0  0  0  0  2  0  0  0  0  0  0
  188.9520  176.6250  142.7330 C   0  0  2  0  0  3  0  0  0  0  0  0
  186.9400  177.7940  143.7450 C   0  0  0  0  0  2  0  0  0  0  0  0
  189.9210  174.8460  146.6280 C   0  0  0  0  0  2  0  0  0  0  0  0
  187.4440  175.8680  147.3780 O   0  0  0  0  0  0  0  0  0  0  0  0
  185.4160  180.0190  144.7800 C   0  0  0  0  0  1  0  0  0  0  0  0
  188.4180  176.4010  145.2260 C   0  0  2  0  0  3  0  0  0  0  0  0
  185.7020  177.4970  144.5930 C   0  0  1  0  0  3  0  0  0  0  0  0
  193.2130  172.6430  144.5470 C   0  0  0  0  0  2  0  0  0  0  0  0
  193.1010  173.5410  145.7630 C   0  0  1  0  0  3  0  0  0  0  0  0
  194.3250  173.6160  144.8730 C   0  0  1  0  0  3  0  0  0  0  0  0
  195.4210  172.9030  145.5090 N   0  0  0  0  0  2  0  0  0  0  0  0
  196.5590  172.4680  144.7680 C   0  0  0  0  0  0  0  0  0  0  0  0
  196.6550  172.7230  143.4050 O   0  0  0  0  0  0  0  0  0  0  0  0
  197.4850  171.8490  145.3530 O   0  0  0  0  0  1  0  0  0  0  0  0
  191.3060  177.1370  148.3080 S   0  0  0  0  0  0  0  0  0  0  0  0
  191.6400  176.5840  147.0270 C   0  0  0  0  0  3  0  0  0  0  0  0
  1 19  1  1  0  0  0
  2  9  1  0  0  0  0
  3  2  1  0  0  0  0
  3 16  1  0  0  0  0
  4 20  2  0  0  0  0
  5  4  1  0  0  0  0
  5 15  1  0  0  0  0
  6 32  1  6  0  0  0
  8 21  1  1  0  0  0
  8 13  1  0  0  0  0
 10  7  1  6  0  0  0
 10  1  1  0  0  0  0
 11  9  1  1  0  0  0
 11 10  1  0  0  0  0
 12 18  1  1  0  0  0
 12 22  1  0  0  0  0
 13 15  1  0  0  0  0
 14  7  1  6  0  0  0
 14 25  1  0  0  0  0
 14  6  1  0  0  0  0
 17 16  1  6  0  0  0
 17 11  1  0  0  0  0
 17 12  1  0  0  0  0
 19  6  1  0  0  0  0
 22  1  1  0  0  0  0
 22  4  1  1  0  0  0
 23 18  1  1  0  0  0
 23  8  1  0  0  0  0
 23  5  1  0  0  0  0
 24 26  1  0  0  0  0
 25 24  1  6  0  0  0
 26 27  1  1  0  0  0
 26 25  1  0  0  0  0
 28 30  1  0  0  0  0
 28 27  1  0  0  0  0
 29 28  2  0  0  0  0
 32 31  2  0  0  0  0
M  END
>  <MODEL>
1

>  <REMARK>
 VINA RESULT:      -8.1      0.000      0.000
  Name = 
  3 active torsions:
  status: ('A' for Active; 'I' for Inactive)
    1  A    between atoms: C_7  and  C_19
    2  A    between atoms: C_10  and  C_17
    3  A    between atoms: C_20  and  N_29
                            x       y       z     vdW  Elec       q    Type
                         _______ _______ _______ _____ _____    ______ ____

>  <TORSDO>
F 3

$$$$
=
 OpenBabel11112416413D

 32 37  0  0  1  0  0  0  0  0999 V2000
  189.8270  174.6430  145.1900 C   0  0  1  0  0  3  0  0  0  0  0  0
  188.7710  172.4180  141.6890 O   0  0  0  0  0  0  0  0  0  0  0  0
  187.6970  173.3050  141.4900 C   0  0  0  0  0  2  0  0  0  0  0  0
  187.9470  176.2080  146.0200 C   0  0  0  0  0  0  0  0  0  0  0  0
  186.6890  176.8150  145.6910 N   0  0  0  0  0  0  0  0  0  0  0  0
  192.1220  174.9960  146.2870 C   0  0  2  0  0  3  0  0  0  0  0  0
  191.6500  173.5030  144.3840 O   0  0  0  0  0  0  0  0  0  0  0  0
  185.1950  178.0160  144.2910 C   0  0  1  0  0  3  0  0  0  0  0  0
  189.3450  172.7420  142.9310 C   0  0  0  0  0  2  0  0  0  0  0  0
  190.7600  174.4820  144.0630 N   0  0  1  0  0  0  0  0  0  0  0  0
  190.0520  174.1070  142.8330 C   0  0  2  0  0  3  0  0  0  0  0  0
  188.1270  175.5660  143.6080 C   0  0  2  0  0  3  0  0  0  0  0  0
  184.8390  178.2870  145.7510 C   0  0  0  0  0  2  0  0  0  0  0  0
  192.6720  174.1390  145.1220 C   0  0  2  0  0  3  0  0  0  0  0  0
  185.9690  177.6960  146.5860 C   0  0  0  0  0  2  0  0  0  0  0  0
  188.2230  174.7210  141.2310 C   0  0  0  0  0  2  0  0  0  0  0  0
  189.0470  175.2050  142.4300 C   0  0  2  0  0  3  0  0  0  0  0  0
  187.2160  176.7430  143.2790 C   0  0  0  0  0  2  0  0  0  0  0  0
  190.6200  174.7680  146.5050 C   0  0  0  0  0  2  0  0  0  0  0  0
  188.2890  176.1050  147.2290 O   0  0  0  0  0  0  0  0  0  0  0  0
  185.8690  179.2600  143.7250 C   0  0  0  0  0  1  0  0  0  0  0  0
  188.9110  175.8460  144.9050 C   0  0  2  0  0  3  0  0  0  0  0  0
  186.1280  176.8070  144.3520 C   0  0  1  0  0  3  0  0  0  0  0  0
  193.5360  171.8310  144.8280 C   0  0  0  0  0  2  0  0  0  0  0  0
  193.6260  173.0910  145.6650 C   0  0  1  0  0  3  0  0  0  0  0  0
  194.6860  172.7930  144.6230 C   0  0  1  0  0  3  0  0  0  0  0  0
  195.8720  172.2760  145.2850 N   0  0  0  0  0  2  0  0  0  0  0  0
  196.7770  171.3980  144.6180 C   0  0  0  0  0  0  0  0  0  0  0  0
  196.5490  171.0150  143.3010 O   0  0  0  0  0  0  0  0  0  0  0  0
  197.7910  170.9670  145.2250 O   0  0  0  0  0  1  0  0  0  0  0  0
  193.4020  176.8760  145.1320 S   0  0  0  0  0  0  0  0  0  0  0  0
  192.3760  176.4510  146.0400 C   0  0  0  0  0  3  0  0  0  0  0  0
  1 19  1  1  0  0  0
  2  9  1  0  0  0  0
  3  2  1  0  0  0  0
  4 20  2  0  0  0  0
  5  4  1  0  0  0  0
  5 15  1  0  0  0  0
  6 32  1  6  0  0  0
  6 19  1  0  0  0  0
  8 21  1  1  0  0  0
  8 23  1  0  0  0  0
  8 13  1  0  0  0  0
 10  7  1  1  0  0  0
 10  1  1  0  0  0  0
 11  9  1  1  0  0  0
 11 10  1  0  0  0  0
 12 18  1  6  0  0  0
 12 22  1  0  0  0  0
 13 15  1  0  0  0  0
 14  7  1  1  0  0  0
 14 25  1  0  0  0  0
 14  6  1  0  0  0  0
 16  3  1  0  0  0  0
 17 16  1  6  0  0  0
 17 11  1  0  0  0  0
 17 12  1  0  0  0  0
 22  1  1  0  0  0  0
 22  4  1  1  0  0  0
 23 18  1  6  0  0  0
 23  5  1  0  0  0  0
 25 24  1  6  0  0  0
 26 24  1  0  0  0  0
 26 27  1  1  0  0  0
 26 25  1  0  0  0  0
 28 30  1  0  0  0  0
 28 27  1  0  0  0  0
 29 28  2  0  0  0  0
 31 32  2  0  0  0  0
M  END
>  <MODEL>
2

>  <REMARK>
 VINA RESULT:      -7.8      1.239      1.313
  Name = 
  3 active torsions:
  status: ('A' for Active; 'I' for Inactive)
    1  A    between atoms: C_7  and  C_19
    2  A    between atoms: C_10  and  C_17
    3  A    between atoms: C_20  and  N_29
                            x       y       z     vdW  Elec       q    Type
                         _______ _______ _______ _____ _____    ______ ____

>  <TORSDO>
F 3

$$$$
=
 OpenBabel11112416413D

 32 37  0  0  1  0  0  0  0  0999 V2000
  189.7150  175.7100  143.4400 C   0  0  1  0  0  3  0  0  0  0  0  0
  191.9510  175.0870  147.0370 O   0  0  0  0  0  0  0  0  0  0  0  0
  190.9120  175.7130  147.7510 C   0  0  0  0  0  2  0  0  0  0  0  0
  187.8100  177.4340  143.6980 C   0  0  0  0  0  0  0  0  0  0  0  0
  187.0230  178.1900  144.6320 N   0  0  0  0  0  0  0  0  0  0  0  0
  189.6810  174.3440  141.2650 C   0  0  2  0  0  3  0  0  0  0  0  0
  191.1920  173.9710  143.1760 O   0  0  0  0  0  0  0  0  0  0  0  0
  185.6810  178.4610  146.5700 C   0  0  1  0  0  3  0  0  0  0  0  0
  191.6480  175.2250  145.6710 C   0  0  0  0  0  2  0  0  0  0  0  0
  190.1010  174.3630  143.8900 N   0  0  1  0  0  0  0  0  0  0  0  0
  190.4300  174.3510  145.3210 C   0  0  2  0  0  3  0  0  0  0  0  0
  188.6240  176.1020  145.6530 C   0  0  2  0  0  3  0  0  0  0  0  0
  185.2630  179.4920  145.5250 C   0  0  0  0  0  2  0  0  0  0  0  0
  190.6900  173.4130  141.9800 C   0  0  2  0  0  3  0  0  0  0  0  0
  185.9800  179.1120  144.2350 C   0  0  0  0  0  2  0  0  0  0  0  0
  189.6220  174.8920  147.6320 C   0  0  0  0  0  2  0  0  0  0  0  0
  189.2070  174.7720  146.1610 C   0  0  2  0  0  3  0  0  0  0  0  0
  187.3350  176.4710  146.3780 C   0  0  0  0  0  2  0  0  0  0  0  0
  189.6410  175.7410  141.9010 C   0  0  0  0  0  2  0  0  0  0  0  0
  187.8910  177.8200  142.5010 O   0  0  0  0  0  0  0  0  0  0  0  0
  184.6060  177.3830  146.6360 C   0  0  0  0  0  1  0  0  0  0  0  0
  188.3980  176.1020  144.1290 C   0  0  2  0  0  3  0  0  0  0  0  0
  187.0230  177.9340  146.0610 C   0  0  1  0  0  3  0  0  0  0  0  0
  192.8400  172.1970  141.7480 C   0  0  0  0  0  2  0  0  0  0  0  0
  191.8460  173.1010  141.0470 C   0  0  1  0  0  3  0  0  0  0  0  0
  191.8610  171.6140  140.7530 C   0  0  1  0  0  3  0  0  0  0  0  0
  192.5360  171.3860  139.4860 N   0  0  0  0  0  2  0  0  0  0  0  0
  191.9400  170.6050  138.4520 C   0  0  0  0  0  0  0  0  0  0  0  0
  190.6810  170.0410  138.6280 O   0  0  0  0  0  1  0  0  0  0  0  0
  192.5570  170.4270  137.3700 O   0  0  0  0  0  0  0  0  0  0  0  0
  188.0600  172.4840  141.9140 S   0  0  0  0  0  0  0  0  0  0  0  0
  188.3080  173.7480  141.2820 C   0  0  0  0  0  3  0  0  0  0  0  0
  1 19  1  6  0  0  0
  1 10  1  0  0  0  0
  1 22  1  0  0  0  0
  2  3  1  0  0  0  0
  4  5  1  0  0  0  0
  5 23  1  0  0  0  0
  6 32  1  1  0  0  0
  6 19  1  0  0  0  0
  6 14  1  0  0  0  0
  8 21  1  6  0  0  0
  9  2  1  0  0  0  0
 10  7  1  6  0  0  0
 10 11  1  0  0  0  0
 11  9  1  6  0  0  0
 11 17  1  0  0  0  0
 12 17  1  0  0  0  0
 12 18  1  1  0  0  0
 13  8  1  0  0  0  0
 14  7  1  1  0  0  0
 15  5  1  0  0  0  0
 15 13  1  0  0  0  0
 16  3  1  0  0  0  0
 17 16  1  1  0  0  0
 20  4  2  0  0  0  0
 22  4  1  6  0  0  0
 22 12  1  0  0  0  0
 23 18  1  6  0  0  0
 23  8  1  0  0  0  0
 25 24  1  1  0  0  0
 25 14  1  0  0  0  0
 26 27  1  6  0  0  0
 26 25  1  0  0  0  0
 26 24  1  0  0  0  0
 28 29  1  0  0  0  0
 28 27  1  0  0  0  0
 30 28  2  0  0  0  0
 32 31  2  0  0  0  0
M  END
>  <MODEL>
3

>  <REMARK>
 VINA RESULT:      -7.6      3.094      5.006
  Name = 
  3 active torsions:
  status: ('A' for Active; 'I' for Inactive)
    1  A    between atoms: C_7  and  C_19
    2  A    between atoms: C_10  and  C_17
    3  A    between atoms: C_20  and  N_29
                            x       y       z     vdW  Elec       q    Type
                         _______ _______ _______ _____ _____    ______ ____

>  <TORSDO>
F 3

$$$$
=
 OpenBabel11112416413D

 32 37  0  0  1  0  0  0  0  0999 V2000
  189.3190  176.4150  143.1980 C   0  0  1  0  0  3  0  0  0  0  0  0
  188.4460  173.6540  140.0450 O   0  0  0  0  0  0  0  0  0  0  0  0
  189.6130  172.9480  140.3860 C   0  0  0  0  0  2  0  0  0  0  0  0
  191.7490  176.2580  144.0590 C   0  0  0  0  0  0  0  0  0  0  0  0
  192.9540  175.4770  144.0500 N   0  0  0  0  0  0  0  0  0  0  0  0
  187.7290  177.8340  144.6310 C   0  0  2  0  0  3  0  0  0  0  0  0
  187.0770  176.4470  142.7020 O   0  0  0  0  0  0  0  0  0  0  0  0
  194.2020  173.4690  144.2560 C   0  0  1  0  0  3  0  0  0  0  0  0
  188.4350  174.8260  140.8220 C   0  0  0  0  0  2  0  0  0  0  0  0
  188.0680  175.6400  143.1700 N   0  0  1  0  0  0  0  0  0  0  0  0
  188.1870  174.4640  142.2990 C   0  0  2  0  0  3  0  0  0  0  0  0
  190.6080  174.2800  143.0360 C   0  0  2  0  0  3  0  0  0  0  0  0
  195.0780  174.6470  144.6740 C   0  0  0  0  0  2  0  0  0  0  0  0
  186.5960  177.1570  143.8240 C   0  0  2  0  0  3  0  0  0  0  0  0
  194.1580  175.8600  144.7560 C   0  0  0  0  0  2  0  0  0  0  0  0
  189.4900  172.3790  141.8050 C   0  0  0  0  0  2  0  0  0  0  0  0
  189.2910  173.5180  142.8120 C   0  0  2  0  0  3  0  0  0  0  0  0
  191.6750  173.3980  143.6720 C   0  0  0  0  0  2  0  0  0  0  0  0
  189.0750  177.7670  143.8960 C   0  0  0  0  0  2  0  0  0  0  0  0
  191.8050  177.4820  144.3560 O   0  0  0  0  0  0  0  0  0  0  0  0
  193.7940  172.7070  145.5110 C   0  0  0  0  0  1  0  0  0  0  0  0
  190.4130  175.5640  143.8650 C   0  0  2  0  0  3  0  0  0  0  0  0
  193.0170  174.1190  143.5410 C   0  0  1  0  0  3  0  0  0  0  0  0
  185.7650  178.4560  141.8800 C   0  0  0  0  0  2  0  0  0  0  0  0
  185.5990  178.2050  143.3650 C   0  0  1  0  0  3  0  0  0  0  0  0
  184.6360  177.5790  142.3760 C   0  0  1  0  0  3  0  0  0  0  0  0
  183.3970  178.3380  142.3730 N   0  0  0  0  0  2  0  0  0  0  0  0
  182.5270  178.3430  141.2430 C   0  0  0  0  0  0  0  0  0  0  0  0
  182.8420  177.6090  140.1050 O   0  0  0  0  0  0  0  0  0  0  0  0
  181.4640  179.0160  141.2760 O   0  0  0  0  0  1  0  0  0  0  0  0
  186.8830  177.4280  147.0040 S   0  0  0  0  0  0  0  0  0  0  0  0
  187.8660  177.2040  145.9830 C   0  0  0  0  0  3  0  0  0  0  0  0
  1 22  1  0  0  0  0
  1 19  1  1  0  0  0
  2  3  1  0  0  0  0
  2  9  1  0  0  0  0
  3 16  1  0  0  0  0
  4 20  2  0  0  0  0
  5  4  1  0  0  0  0
  5 15  1  0  0  0  0
  6 32  1  1  0  0  0
  8 13  1  0  0  0  0
  8 21  1  1  0  0  0
 10  7  1  6  0  0  0
 10  1  1  0  0  0  0
 11  9  1  6  0  0  0
 11 17  1  0  0  0  0
 11 10  1  0  0  0  0
 12 18  1  1  0  0  0
 12 22  1  0  0  0  0
 13 15  1  0  0  0  0
 14  7  1  6  0  0  0
 14  6  1  0  0  0  0
 17 16  1  6  0  0  0
 17 12  1  0  0  0  0
 19  6  1  0  0  0  0
 22  4  1  6  0  0  0
 23 18  1  1  0  0  0
 23  5  1  0  0  0  0
 23  8  1  0  0  0  0
 24 26  1  0  0  0  0
 25 24  1  6  0  0  0
 25 14  1  0  0  0  0
 26 27  1  1  0  0  0
 26 25  1  0  0  0  0
 28 30  1  0  0  0  0
 28 27  1  0  0  0  0
 29 28  2  0  0  0  0
 32 31  2  0  0  0  0
M  END
>  <MODEL>
4

>  <REMARK>
 VINA RESULT:      -7.5      2.983      8.255
  Name = 
  3 active torsions:
  status: ('A' for Active; 'I' for Inactive)
    1  A    between atoms: C_7  and  C_19
    2  A    between atoms: C_10  and  C_17
    3  A    between atoms: C_20  and  N_29
                            x       y       z     vdW  Elec       q    Type
                         _______ _______ _______ _____ _____    ______ ____

>  <TORSDO>
F 3

$$$$
=
 OpenBabel11112416413D

 32 37  0  0  1  0  0  0  0  0999 V2000
  191.6640  175.4700  144.1850 C   0  0  1  0  0  3  0  0  0  0  0  0
  190.7150  173.4750  140.5190 O   0  0  0  0  0  0  0  0  0  0  0  0
  191.7990  172.6080  140.7500 C   0  0  0  0  0  2  0  0  0  0  0  0
  194.0250  174.9190  145.0750 C   0  0  0  0  0  0  0  0  0  0  0  0
  195.1570  174.0440  144.9500 N   0  0  0  0  0  0  0  0  0  0  0  0
  190.1330  176.7260  145.8210 C   0  0  2  0  0  3  0  0  0  0  0  0
  189.4620  175.8100  143.6350 O   0  0  0  0  0  0  0  0  0  0  0  0
  196.2160  171.9260  144.7910 C   0  0  1  0  0  3  0  0  0  0  0  0
  190.7670  174.4680  141.5140 C   0  0  0  0  0  2  0  0  0  0  0  0
  190.3540  174.8370  143.9640 N   0  0  1  0  0  0  0  0  0  0  0  0
  190.4150  173.8490  142.8800 C   0  0  2  0  0  3  0  0  0  0  0  0
  192.7710  173.2960  143.6420 C   0  0  2  0  0  3  0  0  0  0  0  0
  197.1680  172.9110  145.4630 C   0  0  0  0  0  2  0  0  0  0  0  0
  188.9880  176.3300  144.8590 C   0  0  2  0  0  3  0  0  0  0  0  0
  196.3540  174.1660  145.7560 C   0  0  0  0  0  2  0  0  0  0  0  0
  191.5560  171.7870  142.0220 C   0  0  0  0  0  2  0  0  0  0  0  0
  191.4060  172.7210  143.2300 C   0  0  2  0  0  3  0  0  0  0  0  0
  193.7250  172.2100  144.1250 C   0  0  0  0  0  2  0  0  0  0  0  0
  191.5040  176.6760  145.1310 C   0  0  0  0  0  2  0  0  0  0  0  0
  194.1720  176.0500  145.6130 O   0  0  0  0  0  0  0  0  0  0  0  0
  195.6810  170.9750  145.8550 C   0  0  0  0  0  1  0  0  0  0  0  0
  192.6460  174.4060  144.7040 C   0  0  2  0  0  3  0  0  0  0  0  0
  195.1290  172.8120  144.1830 C   0  0  1  0  0  3  0  0  0  0  0  0
  187.5490  177.4570  143.1810 C   0  0  0  0  0  2  0  0  0  0  0  0
  188.1090  177.5370  144.5870 C   0  0  1  0  0  3  0  0  0  0  0  0
  186.6830  177.0750  144.3620 C   0  0  1  0  0  3  0  0  0  0  0  0
  185.7750  178.1680  144.6700 N   0  0  0  0  0  2  0  0  0  0  0  0
  184.8300  178.0760  145.7330 C   0  0  0  0  0  0  0  0  0  0  0  0
  184.7560  176.9300  146.5170 O   0  0  0  0  0  1  0  0  0  0  0  0
  184.0570  179.0410  145.9660 O   0  0  0  0  0  0  0  0  0  0  0  0
  189.0810  174.9030  147.2640 S   0  0  0  0  0  0  0  0  0  0  0  0
  190.1470  175.8330  147.0240 C   0  0  0  0  0  3  0  0  0  0  0  0
  1 22  1  0  0  0  0
  1 19  1  1  0  0  0
  2  3  1  0  0  0  0
  2  9  1  0  0  0  0
  3 16  1  0  0  0  0
  4 20  2  0  0  0  0
  5  4  1  0  0  0  0
  5 15  1  0  0  0  0
  6 32  1  1  0  0  0
  8 13  1  0  0  0  0
  8 21  1  1  0  0  0
 10  7  1  6  0  0  0
 10  1  1  0  0  0  0
 11  9  1  6  0  0  0
 11 17  1  0  0  0  0
 11 10  1  0  0  0  0
 12 18  1  1  0  0  0
 12 22  1  0  0  0  0
 13 15  1  0  0  0  0
 14  7  1  6  0  0  0
 14  6  1  0  0  0  0
 17 16  1  6  0  0  0
 17 12  1  0  0  0  0
 19  6  1  0  0  0  0
 22  4  1  6  0  0  0
 23 18  1  1  0  0  0
 23  8  1  0  0  0  0
 23  5  1  0  0  0  0
 24 26  1  0  0  0  0
 25 24  1  6  0  0  0
 25 14  1  0  0  0  0
 26 25  1  0  0  0  0
 26 27  1  1  0  0  0
 27 28  1  0  0  0  0
 28 30  2  0  0  0  0
 28 29  1  0  0  0  0
 32 31  2  0  0  0  0
M  END
>  <MODEL>
5

>  <REMARK>
 VINA RESULT:      -7.4      2.076      8.184
  Name = 
  3 active torsions:
  status: ('A' for Active; 'I' for Inactive)
    1  A    between atoms: C_7  and  C_19
    2  A    between atoms: C_10  and  C_17
    3  A    between atoms: C_20  and  N_29
                            x       y       z     vdW  Elec       q    Type
                         _______ _______ _______ _____ _____    ______ ____

>  <TORSDO>
F 3

$$$$
=
 OpenBabel11112416413D

 32 37  0  0  1  0  0  0  0  0999 V2000
  190.2110  175.0900  143.4690 C   0  0  1  0  0  3  0  0  0  0  0  0
  192.7150  175.6960  146.8880 O   0  0  0  0  0  0  0  0  0  0  0  0
  191.6640  176.4120  147.4890 C   0  0  0  0  0  2  0  0  0  0  0  0
  188.1590  176.6570  143.4070 C   0  0  0  0  0  0  0  0  0  0  0  0
  187.3580  177.5810  144.1600 N   0  0  0  0  0  0  0  0  0  0  0  0
  190.1820  173.1650  141.7690 C   0  0  2  0  0  3  0  0  0  0  0  0
  191.8380  173.4730  143.5680 O   0  0  0  0  0  0  0  0  0  0  0  0
  186.1180  178.2810  146.0580 C   0  0  1  0  0  3  0  0  0  0  0  0
  192.3170  175.4150  145.5680 C   0  0  0  0  0  2  0  0  0  0  0  0
  190.7590  173.9620  144.2390 N   0  0  1  0  0  0  0  0  0  0  0  0
  191.1740  174.3830  145.5820 C   0  0  2  0  0  3  0  0  0  0  0  0
  189.2230  176.0050  145.5750 C   0  0  2  0  0  3  0  0  0  0  0  0
  185.5330  178.9360  144.8090 C   0  0  0  0  0  2  0  0  0  0  0  0
  191.3230  172.5600  142.6220 C   0  0  2  0  0  3  0  0  0  0  0  0
  186.2030  178.2650  143.6170 C   0  0  0  0  0  2  0  0  0  0  0  0
  190.4600  175.4900  147.7160 C   0  0  0  0  0  2  0  0  0  0  0  0
  189.9700  174.9250  146.3770 C   0  0  2  0  0  3  0  0  0  0  0  0
  187.9500  176.4590  146.2790 C   0  0  0  0  0  2  0  0  0  0  0  0
  190.0390  174.6770  141.9950 C   0  0  0  0  0  2  0  0  0  0  0  0
  188.1260  176.6930  142.1470 O   0  0  0  0  0  0  0  0  0  0  0  0
  185.1640  177.1840  146.5140 C   0  0  0  0  0  1  0  0  0  0  0  0
  188.9050  175.5540  144.1360 C   0  0  2  0  0  3  0  0  0  0  0  0
  187.4720  177.7420  145.5980 C   0  0  1  0  0  3  0  0  0  0  0  0
  193.5020  171.3760  142.5320 C   0  0  0  0  0  2  0  0  0  0  0  0
  192.4450  172.0900  141.7140 C   0  0  1  0  0  3  0  0  0  0  0  0
  192.4990  170.5750  141.7310 C   0  0  1  0  0  3  0  0  0  0  0  0
  193.1220  170.1080  140.5040 N   0  0  0  0  0  2  0  0  0  0  0  0
  192.4140  169.2950  139.5700 C   0  0  0  0  0  0  0  0  0  0  0  0
  191.0940  168.9310  139.8070 O   0  0  0  0  0  1  0  0  0  0  0  0
  192.9900  168.9050  138.5210 O   0  0  0  0  0  0  0  0  0  0  0  0
  187.6370  173.0510  141.6250 S   0  0  0  0  0  0  0  0  0  0  0  0
  188.8800  172.4890  142.0700 C   0  0  0  0  0  3  0  0  0  0  0  0
  1 19  1  6  0  0  0
  1 22  1  0  0  0  0
  1 10  1  0  0  0  0
  2  3  1  0  0  0  0
  3 16  1  0  0  0  0
  4  5  1  0  0  0  0
  5 23  1  0  0  0  0
  6 19  1  0  0  0  0
  6 32  1  1  0  0  0
  6 14  1  0  0  0  0
  8 21  1  6  0  0  0
  9  2  1  0  0  0  0
 10  7  1  6  0  0  0
 10 11  1  0  0  0  0
 11  9  1  6  0  0  0
 11 17  1  0  0  0  0
 12 18  1  1  0  0  0
 12 17  1  0  0  0  0
 13  8  1  0  0  0  0
 14  7  1  1  0  0  0
 15  5  1  0  0  0  0
 15 13  1  0  0  0  0
 17 16  1  1  0  0  0
 20  4  2  0  0  0  0
 22  4  1  6  0  0  0
 22 12  1  0  0  0  0
 23  8  1  0  0  0  0
 23 18  1  1  0  0  0
 25 26  1  0  0  0  0
 25 24  1  1  0  0  0
 25 14  1  0  0  0  0
 26 27  1  6  0  0  0
 26 24  1  0  0  0  0
 28 29  1  0  0  0  0
 28 27  1  0  0  0  0
 30 28  2  0  0  0  0
 31 32  2  0  0  0  0
M  END
>  <MODEL>
6

>  <REMARK>
 VINA RESULT:      -7.2      3.145      4.896
  Name = 
  3 active torsions:
  status: ('A' for Active; 'I' for Inactive)
    1  A    between atoms: C_7  and  C_19
    2  A    between atoms: C_10  and  C_17
    3  A    between atoms: C_20  and  N_29
                            x       y       z     vdW  Elec       q    Type
                         _______ _______ _______ _____ _____    ______ ____

>  <TORSDO>
F 3

$$$$
=
 OpenBabel11112416413D

 32 37  0  0  1  0  0  0  0  0999 V2000
  190.6790  175.0640  143.9920 C   0  0  1  0  0  3  0  0  0  0  0  0
  193.0770  176.3890  147.2820 O   0  0  0  0  0  0  0  0  0  0  0  0
  194.2230  176.1150  146.5120 C   0  0  0  0  0  2  0  0  0  0  0  0
  192.0040  173.7210  142.2280 C   0  0  0  0  0  0  0  0  0  0  0  0
  193.3130  173.3540  141.7660 N   0  0  0  0  0  0  0  0  0  0  0  0
  188.3090  175.7670  143.2940 C   0  0  2  0  0  3  0  0  0  0  0  0
  189.4740  176.4720  145.3480 O   0  0  0  0  0  0  0  0  0  0  0  0
  195.5510  173.7940  141.1130 C   0  0  1  0  0  3  0  0  0  0  0  0
  191.9720  175.9140  146.5520 C   0  0  0  0  0  2  0  0  0  0  0  0
  190.5650  176.4270  144.5360 N   0  0  1  0  0  0  0  0  0  0  0  0
  191.7580  176.7970  145.3080 C   0  0  2  0  0  3  0  0  0  0  0  0
  193.1280  175.4360  143.6620 C   0  0  2  0  0  3  0  0  0  0  0  0
  195.0410  172.5720  140.3550 C   0  0  0  0  0  2  0  0  0  0  0  0
  188.3730  176.7320  144.5020 C   0  0  2  0  0  3  0  0  0  0  0  0
  193.5440  172.4900  140.6270 C   0  0  0  0  0  2  0  0  0  0  0  0
  194.2550  177.0190  145.2740 C   0  0  0  0  0  2  0  0  0  0  0  0
  193.0120  176.7740  144.4110 C   0  0  2  0  0  3  0  0  0  0  0  0
  194.2820  175.4390  142.6660 C   0  0  0  0  0  2  0  0  0  0  0  0
  189.3180  174.6170  143.4250 C   0  0  0  0  0  2  0  0  0  0  0  0
  191.0120  173.0110  141.9100 O   0  0  0  0  0  0  0  0  0  0  0  0
  195.6090  174.9690  140.1430 C   0  0  0  0  0  1  0  0  0  0  0  0
  191.8170  175.0400  142.9570 C   0  0  2  0  0  3  0  0  0  0  0  0
  194.5290  173.9940  142.2320 C   0  0  1  0  0  3  0  0  0  0  0  0
  187.3860  176.8220  146.7770 C   0  0  0  0  0  2  0  0  0  0  0  0
  187.0880  176.6320  145.3030 C   0  0  1  0  0  3  0  0  0  0  0  0
  186.8110  177.9650  145.9690 C   0  0  1  0  0  3  0  0  0  0  0  0
  185.3870  178.0770  146.2360 N   0  0  0  0  0  2  0  0  0  0  0  0
  184.5560  178.9680  145.4940 C   0  0  0  0  0  0  0  0  0  0  0  0
  185.0910  179.7560  144.4810 O   0  0  0  0  0  0  0  0  0  0  0  0
  183.3280  179.0410  145.7570 O   0  0  0  0  0  1  0  0  0  0  0  0
  188.3190  177.9160  141.9190 S   0  0  0  0  0  0  0  0  0  0  0  0
  188.5570  176.5040  142.0140 C   0  0  0  0  0  3  0  0  0  0  0  0
  1 19  1  6  0  0  0
  1 10  1  0  0  0  0
  3  2  1  0  0  0  0
  5  4  1  0  0  0  0
  5 23  1  0  0  0  0
  6 32  1  6  0  0  0
  6 19  1  0  0  0  0
  6 14  1  0  0  0  0
  8 21  1  6  0  0  0
  8 23  1  0  0  0  0
  9  2  1  0  0  0  0
 10 11  1  0  0  0  0
 10  7  1  1  0  0  0
 11  9  1  1  0  0  0
 12 18  1  6  0  0  0
 12 17  1  0  0  0  0
 13 15  1  0  0  0  0
 13  8  1  0  0  0  0
 14 25  1  0  0  0  0
 14  7  1  1  0  0  0
 15  5  1  0  0  0  0
 16  3  1  0  0  0  0
 17 16  1  1  0  0  0
 17 11  1  0  0  0  0
 20  4  2  0  0  0  0
 22  4  1  1  0  0  0
 22 12  1  0  0  0  0
 22  1  1  0  0  0  0
 23 18  1  6  0  0  0
 25 26  1  0  0  0  0
 25 24  1  1  0  0  0
 26 27  1  1  0  0  0
 26 24  1  0  0  0  0
 28 30  1  0  0  0  0
 28 27  1  0  0  0  0
 29 28  2  0  0  0  0
 31 32  2  0  0  0  0
M  END
>  <MODEL>
7

>  <REMARK>
 VINA RESULT:      -7.2      3.098      8.539
  Name = 
  3 active torsions:
  status: ('A' for Active; 'I' for Inactive)
    1  A    between atoms: C_7  and  C_19
    2  A    between atoms: C_10  and  C_17
    3  A    between atoms: C_20  and  N_29
                            x       y       z     vdW  Elec       q    Type
                         _______ _______ _______ _____ _____    ______ ____

>  <TORSDO>
F 3

$$$$
=
 OpenBabel11112416413D

 32 37  0  0  1  0  0  0  0  0999 V2000
  191.2150  175.6530  144.1910 C   0  0  1  0  0  3  0  0  0  0  0  0
  189.8020  173.2260  140.9600 O   0  0  0  0  0  0  0  0  0  0  0  0
  190.9380  172.4110  141.1190 C   0  0  0  0  0  2  0  0  0  0  0  0
  193.7000  175.2510  144.7680 C   0  0  0  0  0  0  0  0  0  0  0  0
  194.8310  174.3890  144.5720 N   0  0  0  0  0  0  0  0  0  0  0  0
  189.9010  177.0630  145.8880 C   0  0  2  0  0  3  0  0  0  0  0  0
  188.9440  175.8860  143.9460 O   0  0  0  0  0  0  0  0  0  0  0  0
  195.9280  172.2860  144.4940 C   0  0  1  0  0  3  0  0  0  0  0  0
  189.9660  174.3290  141.8170 C   0  0  0  0  0  2  0  0  0  0  0  0
  189.9100  174.9750  144.2430 N   0  0  1  0  0  0  0  0  0  0  0  0
  189.8430  173.8680  143.2810 C   0  0  2  0  0  3  0  0  0  0  0  0
  192.3050  173.4500  143.7350 C   0  0  2  0  0  3  0  0  0  0  0  0
  196.9350  173.3600  144.8980 C   0  0  0  0  0  2  0  0  0  0  0  0
  188.6400  176.5370  145.1620 C   0  0  2  0  0  3  0  0  0  0  0  0
  196.1290  174.6250  145.1680 C   0  0  0  0  0  2  0  0  0  0  0  0
  190.9170  171.7410  142.4980 C   0  0  0  0  0  2  0  0  0  0  0  0
  190.9140  172.8060  143.6020 C   0  0  2  0  0  3  0  0  0  0  0  0
  193.3580  172.4450  144.1860 C   0  0  0  0  0  2  0  0  0  0  0  0
  191.1550  176.9580  145.0080 C   0  0  0  0  0  2  0  0  0  0  0  0
  193.8850  176.4400  145.1460 O   0  0  0  0  0  0  0  0  0  0  0  0
  195.5920  171.4560  145.7270 C   0  0  0  0  0  1  0  0  0  0  0  0
  192.3000  174.6740  144.6710 C   0  0  2  0  0  3  0  0  0  0  0  0
  194.7320  173.0750  143.9610 C   0  0  1  0  0  3  0  0  0  0  0  0
  187.4670  177.8310  143.4000 C   0  0  0  0  0  2  0  0  0  0  0  0
  187.6890  177.6880  144.8920 C   0  0  1  0  0  3  0  0  0  0  0  0
  186.4220  177.1500  144.2570 C   0  0  1  0  0  3  0  0  0  0  0  0
  185.3300  178.0740  144.5150 N   0  0  0  0  0  2  0  0  0  0  0  0
  184.3170  178.3240  143.5420 C   0  0  0  0  0  0  0  0  0  0  0  0
  184.3440  177.6780  142.3120 O   0  0  0  0  0  0  0  0  0  0  0  0
  183.3900  179.1350  143.8010 O   0  0  0  0  0  1  0  0  0  0  0  0
  191.3370  176.4850  147.9170 S   0  0  0  0  0  0  0  0  0  0  0  0
  190.1250  176.3170  147.1670 C   0  0  0  0  0  3  0  0  0  0  0  0
  1 10  1  0  0  0  0
  1 22  1  0  0  0  0
  1 19  1  1  0  0  0
  2  3  1  0  0  0  0
  2  9  1  0  0  0  0
  3 16  1  0  0  0  0
  4 20  2  0  0  0  0
  5  4  1  0  0  0  0
  5 15  1  0  0  0  0
  6 32  1  1  0  0  0
  8 13  1  0  0  0  0
  8 21  1  1  0  0  0
 10  7  1  6  0  0  0
 11  9  1  6  0  0  0
 11 17  1  0  0  0  0
 11 10  1  0  0  0  0
 12 18  1  1  0  0  0
 12 22  1  0  0  0  0
 13 15  1  0  0  0  0
 14  7  1  6  0  0  0
 14  6  1  0  0  0  0
 17 16  1  6  0  0  0
 17 12  1  0  0  0  0
 19  6  1  0  0  0  0
 22  4  1  6  0  0  0
 23 18  1  1  0  0  0
 23  8  1  0  0  0  0
 23  5  1  0  0  0  0
 24 26  1  0  0  0  0
 25 24  1  6  0  0  0
 25 14  1  0  0  0  0
 26 27  1  1  0  0  0
 26 25  1  0  0  0  0
 28 30  1  0  0  0  0
 28 27  1  0  0  0  0
 29 28  2  0  0  0  0
 32 31  2  0  0  0  0
M  END
>  <MODEL>
8

>  <REMARK>
 VINA RESULT:      -7.2      2.246      8.129
  Name = 
  3 active torsions:
  status: ('A' for Active; 'I' for Inactive)
    1  A    between atoms: C_7  and  C_19
    2  A    between atoms: C_10  and  C_17
    3  A    between atoms: C_20  and  N_29
                            x       y       z     vdW  Elec       q    Type
                         _______ _______ _______ _____ _____    ______ ____

>  <TORSDO>
F 3

$$$$
=
 OpenBabel11112416413D

 32 37  0  0  1  0  0  0  0  0999 V2000
  190.3170  175.0370  143.3970 C   0  0  1  0  0  3  0  0  0  0  0  0
  192.6470  175.7190  146.9230 O   0  0  0  0  0  0  0  0  0  0  0  0
  191.5650  176.4440  147.4570 C   0  0  0  0  0  2  0  0  0  0  0  0
  188.2670  176.5950  143.2010 C   0  0  0  0  0  0  0  0  0  0  0  0
  187.4280  177.5310  143.8950 N   0  0  0  0  0  0  0  0  0  0  0  0
  190.3780  173.0790  141.7360 C   0  0  2  0  0  3  0  0  0  0  0  0
  191.9410  173.4280  143.6090 O   0  0  0  0  0  0  0  0  0  0  0  0
  186.0920  178.2650  145.7140 C   0  0  1  0  0  3  0  0  0  0  0  0
  192.3150  175.4110  145.5910 C   0  0  0  0  0  2  0  0  0  0  0  0
  190.8290  173.9260  144.2150 N   0  0  1  0  0  0  0  0  0  0  0  0
  191.1760  174.3750  145.5690 C   0  0  2  0  0  3  0  0  0  0  0  0
  189.2240  175.9900  145.4320 C   0  0  2  0  0  3  0  0  0  0  0  0
  185.5690  178.8940  144.4250 C   0  0  0  0  0  2  0  0  0  0  0  0
  191.4760  172.4940  142.6570 C   0  0  2  0  0  3  0  0  0  0  0  0
  186.3000  178.2000  143.2810 C   0  0  0  0  0  2  0  0  0  0  0  0
  190.3530  175.5230  147.6420 C   0  0  0  0  0  2  0  0  0  0  0  0
  189.9320  174.9290  146.2920 C   0  0  2  0  0  3  0  0  0  0  0  0
  187.9160  176.4540  146.0630 C   0  0  0  0  0  2  0  0  0  0  0  0
  190.2200  174.5940  141.9240 C   0  0  0  0  0  2  0  0  0  0  0  0
  188.2970  176.6060  141.9410 O   0  0  0  0  0  0  0  0  0  0  0  0
  185.1190  177.1740  146.1440 C   0  0  0  0  0  1  0  0  0  0  0  0
  188.9780  175.5100  143.9890 C   0  0  2  0  0  3  0  0  0  0  0  0
  187.4690  177.7210  145.3340 C   0  0  1  0  0  3  0  0  0  0  0  0
  193.9340  172.1570  142.5960 C   0  0  0  0  0  2  0  0  0  0  0  0
  192.6430  172.0100  141.8160 C   0  0  1  0  0  3  0  0  0  0  0  0
  193.2700  170.8020  142.4820 C   0  0  1  0  0  3  0  0  0  0  0  0
  193.9590  170.0090  141.4780 N   0  0  0  0  0  2  0  0  0  0  0  0
  194.7200  168.8550  141.8300 C   0  0  0  0  0  0  0  0  0  0  0  0
  194.8160  168.4490  143.1560 O   0  0  0  0  0  1  0  0  0  0  0  0
  195.3070  168.1960  140.9320 O   0  0  0  0  0  0  0  0  0  0  0  0
  187.8500  172.9260  141.4280 S   0  0  0  0  0  0  0  0  0  0  0  0
  189.0640  172.4050  141.9860 C   0  0  0  0  0  3  0  0  0  0  0  0
  1 19  1  6  0  0  0
  1 22  1  0  0  0  0
  1 10  1  0  0  0  0
  2  3  1  0  0  0  0
  3 16  1  0  0  0  0
  4  5  1  0  0  0  0
  5 23  1  0  0  0  0
  6 19  1  0  0  0  0
  6 32  1  1  0  0  0
  6 14  1  0  0  0  0
  8 21  1  6  0  0  0
  9  2  1  0  0  0  0
 10  7  1  6  0  0  0
 10 11  1  0  0  0  0
 11  9  1  6  0  0  0
 11 17  1  0  0  0  0
 12 18  1  1  0  0  0
 12 17  1  0  0  0  0
 13  8  1  0  0  0  0
 14  7  1  1  0  0  0
 15  5  1  0  0  0  0
 15 13  1  0  0  0  0
 17 16  1  1  0  0  0
 20  4  2  0  0  0  0
 22  4  1  6  0  0  0
 22 12  1  0  0  0  0
 23  8  1  0  0  0  0
 23 18  1  1  0  0  0
 25 26  1  0  0  0  0
 25 24  1  1  0  0  0
 25 14  1  0  0  0  0
 26 27  1  6  0  0  0
 26 24  1  0  0  0  0
 27 28  1  0  0  0  0
 28 29  1  0  0  0  0
 30 28  2  0  0  0  0
 31 32  2  0  0  0  0
M  END
>  <MODEL>
9

>  <REMARK>
 VINA RESULT:      -7.1      2.819      4.502
  Name = 
  3 active torsions:
  status: ('A' for Active; 'I' for Inactive)
    1  A    between atoms: C_7  and  C_19
    2  A    between atoms: C_10  and  C_17
    3  A    between atoms: C_20  and  N_29
                            x       y       z     vdW  Elec       q    Type
                         _______ _______ _______ _____ _____    ______ ____

>  <TORSDO>
F 3

$$$$
