=
 OpenBabel11112417233D

 37 42  0  0  1  0  0  0  0  0999 V2000
  185.3720  178.2250  143.4450 C   0  0  0  0  0  0  0  0  0  0  0  0
  188.6160  176.4010  145.3160 C   0  0  0  0  0  0  0  0  0  0  0  0
  191.6900  175.5000  143.1320 C   0  0  0  0  0  2  0  0  0  0  0  0
  186.4770  177.6630  145.6940 C   0  0  2  0  0  3  0  0  0  0  0  0
  189.5030  176.0370  144.2480 N   0  0  0  0  0  0  0  0  0  0  0  0
  187.6340  177.1670  144.8710 C   0  0  0  0  0  0  0  0  0  0  0  0
  190.7210  175.1960  144.3080 C   0  0  2  0  0  3  0  0  0  0  0  0
  186.2770  176.7930  146.9360 C   0  0  0  0  0  2  0  0  0  0  0  0
  187.8200  177.5140  143.4430 C   0  0  2  0  0  3  0  0  0  0  0  0
  185.6760  179.7130  143.5130 C   0  0  0  0  0  1  0  0  0  0  0  0
  189.9270  175.7310  147.3400 C   0  0  0  0  0  2  0  0  0  0  0  0
  187.6150  176.5370  147.6250 C   0  0  0  0  0  2  0  0  0  0  0  0
  186.4810  177.4780  142.6910 C   0  0  0  0  0  2  0  0  0  0  0  0
  190.4940  174.1950  141.7170 C   0  0  1  0  0  3  0  0  0  0  0  0
  191.1130  175.4460  141.8470 O   0  0  0  0  0  0  0  0  0  0  0  0
  188.5640  175.7750  146.6930 C   0  0  1  0  0  3  0  0  0  0  0  0
  188.8910  176.4970  142.9940 C   0  0  2  0  0  3  0  0  0  0  0  0
  185.1910  177.6450  144.8580 C   0  0  0  0  0  2  0  0  0  0  0  0
  191.4750  175.3160  145.6510 C   0  0  1  0  0  3  0  0  0  0  0  0
  184.0750  178.0410  142.6880 C   0  0  0  0  0  1  0  0  0  0  0  0
  188.9970  174.3420  141.6490 C   0  0  0  0  0  3  0  0  0  0  0  0
  188.2950  175.3310  142.2290 C   0  0  0  0  0  3  0  0  0  0  0  0
  190.7140  174.6890  146.7160 N   0  0  0  0  0  2  0  0  0  0  0  0
  193.9680  175.5100  145.7960 C   0  0  0  0  0  3  0  0  0  0  0  0
  192.8440  174.6970  145.6180 C   0  0  0  0  0  0  0  0  0  0  0  0
  193.0080  173.3190  145.4090 C   0  0  0  0  0  3  0  0  0  0  0  0
  194.4620  171.3040  145.1490 C   0  0  0  0  0  1  0  0  0  0  0  0
  195.4110  173.5800  145.5520 C   0  0  0  0  0  3  0  0  0  0  0  0
  194.2910  172.7630  145.3750 C   0  0  0  0  0  0  0  0  0  0  0  0
  195.2500  174.9520  145.7630 C   0  0  0  0  0  3  0  0  0  0  0  0
  191.0120  173.4780  140.5170 C   0  0  0  0  0  0  0  0  0  0  0  0
  190.2130  172.4580  139.9160 N   0  0  0  0  0  2  0  0  0  0  0  0
  192.1480  173.7630  140.0470 O   0  0  0  0  0  0  0  0  0  0  0  0
  189.8530  172.1870  137.5140 C   0  0  0  0  0  1  0  0  0  0  0  0
  190.6340  171.7210  138.7320 C   0  0  2  0  0  3  0  0  0  0  0  0
  189.6910  169.6660  137.9130 O   0  0  0  0  0  1  0  0  0  0  0  0
  190.4420  170.2260  138.9490 C   0  0  0  0  0  2  0  0  0  0  0  0
  1 10  1  0  0  0  0
  1 18  1  0  0  0  0
  2 16  1  0  0  0  0
  4 18  1  6  0  0  0
  4  8  1  0  0  0  0
  5  7  1  0  0  0  0
  5  2  1  0  0  0  0
  6  2  2  0  0  0  0
  6  4  1  0  0  0  0
  7  3  1  6  0  0  0
  7 19  1  0  0  0  0
  8 12  1  0  0  0  0
  9 13  1  6  0  0  0
  9  6  1  0  0  0  0
 13  1  1  0  0  0  0
 14 31  1  6  0  0  0
 14 15  1  0  0  0  0
 15  3  1  0  0  0  0
 16 11  1  1  0  0  0
 16 12  1  0  0  0  0
 17 22  1  1  0  0  0
 17  9  1  0  0  0  0
 17  5  1  0  0  0  0
 19 25  1  6  0  0  0
 19 23  1  0  0  0  0
 20  1  1  0  0  0  0
 21 14  1  0  0  0  0
 21 22  2  0  0  0  0
 23 11  1  0  0  0  0
 25 24  2  0  0  0  0
 26 25  1  0  0  0  0
 27 29  1  0  0  0  0
 28 30  2  0  0  0  0
 29 26  2  0  0  0  0
 29 28  1  0  0  0  0
 30 24  1  0  0  0  0
 32 31  1  0  0  0  0
 33 31  2  0  0  0  0
 35 34  1  6  0  0  0
 35 37  1  0  0  0  0
 35 32  1  0  0  0  0
 36 37  1  0  0  0  0
M  END
>  <MODEL>
1

>  <REMARK>
 VINA RESULT:      -8.8      0.000      0.000
  Name = 
  4 active torsions:
  status: ('A' for Active; 'I' for Inactive)
    1  A    between atoms: CA_4  and  N_12
    2  A    between atoms: CA_4  and  C_37
    3  A    between atoms: C_8  and  C_18
    4  A    between atoms: C_23  and  C_30
                            x       y       z     vdW  Elec       q    Type
                         _______ _______ _______ _____ _____    ______ ____

>  <TORSDO>
F 4

$$$$
=
 OpenBabel11112417233D

 37 42  0  0  1  0  0  0  0  0999 V2000
  186.2150  178.5590  147.1840 C   0  0  0  0  0  0  0  0  0  0  0  0
  187.6100  176.3330  143.9520 C   0  0  0  0  0  0  0  0  0  0  0  0
  190.6490  173.9980  144.5430 C   0  0  0  0  0  2  0  0  0  0  0  0
  185.7030  177.7260  144.8100 C   0  0  2  0  0  3  0  0  0  0  0  0
  188.8190  175.7170  144.4200 N   0  0  0  0  0  0  0  0  0  0  0  0
  186.9610  176.9130  144.9480 C   0  0  0  0  0  0  0  0  0  0  0  0
  189.8320  174.9670  143.6430 C   0  0  2  0  0  3  0  0  0  0  0  0
  185.5360  178.2350  143.3780 C   0  0  0  0  0  2  0  0  0  0  0  0
  187.6120  176.6430  146.2510 C   0  0  2  0  0  3  0  0  0  0  0  0
  185.2030  177.6530  147.8680 C   0  0  0  0  0  1  0  0  0  0  0  0
  187.3830  175.3650  141.6560 C   0  0  0  0  0  2  0  0  0  0  0  0
  185.7990  177.1100  142.3810 C   0  0  0  0  0  2  0  0  0  0  0  0
  187.5980  177.8940  147.1420 C   0  0  0  0  0  2  0  0  0  0  0  0
  191.9960  175.6770  145.2510 C   0  0  1  0  0  3  0  0  0  0  0  0
  191.2330  174.5840  145.6830 O   0  0  0  0  0  0  0  0  0  0  0  0
  187.2400  176.6020  142.5090 C   0  0  1  0  0  3  0  0  0  0  0  0
  188.9990  176.1160  145.8240 C   0  0  2  0  0  3  0  0  0  0  0  0
  185.7440  178.9230  145.7670 C   0  0  0  0  0  2  0  0  0  0  0  0
  189.2300  174.1920  142.4510 C   0  0  1  0  0  3  0  0  0  0  0  0
  186.3260  179.8360  147.9890 C   0  0  0  0  0  1  0  0  0  0  0  0
  191.3900  176.9730  145.7210 C   0  0  0  0  0  3  0  0  0  0  0  0
  190.0800  177.1740  145.9450 C   0  0  0  0  0  3  0  0  0  0  0  0
  188.7880  175.1130  141.4190 N   0  0  0  0  0  2  0  0  0  0  0  0
  191.2340  173.6920  141.0340 C   0  0  0  0  0  3  0  0  0  0  0  0
  190.1910  173.2140  141.8340 C   0  0  0  0  0  0  0  0  0  0  0  0
  190.0540  171.8340  142.0480 C   0  0  0  0  0  3  0  0  0  0  0  0
  190.8030  169.4790  141.6850 C   0  0  0  0  0  1  0  0  0  0  0  0
  191.9930  171.4220  140.6590 C   0  0  0  0  0  3  0  0  0  0  0  0
  190.9530  170.9400  141.4600 C   0  0  0  0  0  0  0  0  0  0  0  0
  192.1340  172.7960  140.4470 C   0  0  0  0  0  3  0  0  0  0  0  0
  193.4050  175.5490  145.7170 C   0  0  0  0  0  0  0  0  0  0  0  0
  194.3790  174.9710  144.8460 N   0  0  0  0  0  2  0  0  0  0  0  0
  193.7300  175.9380  146.8730 O   0  0  0  0  0  0  0  0  0  0  0  0
  196.6750  175.1630  144.0340 C   0  0  0  0  0  1  0  0  0  0  0  0
  195.7800  174.8260  145.2150 C   0  0  2  0  0  3  0  0  0  0  0  0
  197.1830  173.3690  146.5170 O   0  0  0  0  0  1  0  0  0  0  0  0
  196.0500  173.4080  145.7000 C   0  0  0  0  0  2  0  0  0  0  0  0
  1 10  1  0  0  0  0
  1 20  1  0  0  0  0
  2  5  1  0  0  0  0
  2  6  2  0  0  0  0
  3 15  1  0  0  0  0
  4  8  1  6  0  0  0
  4  6  1  0  0  0  0
  4 18  1  0  0  0  0
  5 17  1  0  0  0  0
  6  9  1  0  0  0  0
  7  5  1  0  0  0  0
  7  3  1  1  0  0  0
  9 13  1  1  0  0  0
 12 16  1  0  0  0  0
 12  8  1  0  0  0  0
 13  1  1  0  0  0  0
 14 15  1  0  0  0  0
 14 31  1  1  0  0  0
 14 21  1  0  0  0  0
 16 11  1  6  0  0  0
 16  2  1  0  0  0  0
 17 22  1  6  0  0  0
 17  9  1  0  0  0  0
 18  1  1  0  0  0  0
 19 25  1  6  0  0  0
 19  7  1  0  0  0  0
 21 22  2  0  0  0  0
 23 11  1  0  0  0  0
 23 19  1  0  0  0  0
 24 25  1  0  0  0  0
 25 26  2  0  0  0  0
 28 29  2  0  0  0  0
 29 27  1  0  0  0  0
 29 26  1  0  0  0  0
 30 28  1  0  0  0  0
 30 24  2  0  0  0  0
 31 33  2  0  0  0  0
 32 35  1  0  0  0  0
 32 31  1  0  0  0  0
 35 34  1  6  0  0  0
 35 37  1  0  0  0  0
 37 36  1  0  0  0  0
M  END
>  <MODEL>
2

>  <REMARK>
 VINA RESULT:      -8.6      2.509      5.526
  Name = 
  4 active torsions:
  status: ('A' for Active; 'I' for Inactive)
    1  A    between atoms: CA_4  and  N_12
    2  A    between atoms: CA_4  and  C_37
    3  A    between atoms: C_8  and  C_18
    4  A    between atoms: C_23  and  C_30
                            x       y       z     vdW  Elec       q    Type
                         _______ _______ _______ _____ _____    ______ ____

>  <TORSDO>
F 4

$$$$
=
 OpenBabel11112417233D

 37 42  0  0  1  0  0  0  0  0999 V2000
  185.0560  178.5820  143.7890 C   0  0  0  0  0  0  0  0  0  0  0  0
  188.1850  176.3240  145.3550 C   0  0  0  0  0  0  0  0  0  0  0  0
  190.9560  175.1370  142.9150 C   0  0  0  0  0  2  0  0  0  0  0  0
  186.2490  177.8170  145.9300 C   0  0  2  0  0  3  0  0  0  0  0  0
  188.9400  175.8930  144.2120 N   0  0  0  0  0  0  0  0  0  0  0  0
  187.2730  177.2150  145.0070 C   0  0  0  0  0  0  0  0  0  0  0  0
  190.0480  174.9120  144.1560 C   0  0  2  0  0  3  0  0  0  0  0  0
  186.0400  176.9360  147.1620 C   0  0  0  0  0  2  0  0  0  0  0  0
  187.3920  177.5860  143.5780 C   0  0  2  0  0  3  0  0  0  0  0  0
  185.5420  180.0210  143.8690 C   0  0  0  0  0  1  0  0  0  0  0  0
  189.5540  175.4350  147.2520 C   0  0  0  0  0  2  0  0  0  0  0  0
  187.3840  176.5000  147.7380 C   0  0  0  0  0  2  0  0  0  0  0  0
  186.0060  177.7340  142.9310 C   0  0  0  0  0  2  0  0  0  0  0  0
  189.5080  174.0330  141.5670 C   0  0  1  0  0  3  0  0  0  0  0  0
  190.2820  175.1950  141.6790 O   0  0  0  0  0  0  0  0  0  0  0  0
  188.1610  175.6620  146.7160 C   0  0  1  0  0  3  0  0  0  0  0  0
  188.2960  176.4650  143.0210 C   0  0  2  0  0  3  0  0  0  0  0  0
  184.9120  177.9810  145.1970 C   0  0  0  0  0  2  0  0  0  0  0  0
  190.9090  174.8960  145.4380 C   0  0  1  0  0  3  0  0  0  0  0  0
  183.6920  178.5790  143.1310 C   0  0  0  0  0  1  0  0  0  0  0  0
  188.0390  174.3590  141.6200 C   0  0  0  0  0  3  0  0  0  0  0  0
  187.5070  175.4030  142.2780 C   0  0  0  0  0  3  0  0  0  0  0  0
  190.1590  174.3280  146.5440 N   0  0  0  0  0  2  0  0  0  0  0  0
  192.1380  172.8100  144.7940 C   0  0  0  0  0  3  0  0  0  0  0  0
  192.1870  174.1200  145.2830 C   0  0  0  0  0  0  0  0  0  0  0  0
  193.4230  174.6890  145.6250 C   0  0  0  0  0  3  0  0  0  0  0  0
  195.9070  174.5530  145.8470 C   0  0  0  0  0  1  0  0  0  0  0  0
  194.5460  172.6400  144.9930 C   0  0  0  0  0  3  0  0  0  0  0  0
  194.6000  173.9490  145.4810 C   0  0  0  0  0  0  0  0  0  0  0  0
  193.3170  172.0710  144.6490 C   0  0  0  0  0  3  0  0  0  0  0  0
  189.8440  173.2990  140.3130 C   0  0  0  0  0  0  0  0  0  0  0  0
  190.5130  172.0400  140.3990 N   0  0  0  0  0  2  0  0  0  0  0  0
  189.5490  173.7930  139.1900 O   0  0  0  0  0  0  0  0  0  0  0  0
  190.7430  169.7660  139.5350 C   0  0  0  0  0  1  0  0  0  0  0  0
  190.8610  171.2500  139.2270 C   0  0  2  0  0  3  0  0  0  0  0  0
  192.2460  172.4600  137.6760 O   0  0  0  0  0  1  0  0  0  0  0  0
  192.2730  171.5880  138.7670 C   0  0  0  0  0  2  0  0  0  0  0  0
  1 10  1  0  0  0  0
  1 18  1  0  0  0  0
  2 16  1  0  0  0  0
  4 18  1  6  0  0  0
  4  8  1  0  0  0  0
  5  2  1  0  0  0  0
  6  2  2  0  0  0  0
  6  4  1  0  0  0  0
  7  3  1  6  0  0  0
  7  5  1  0  0  0  0
  7 19  1  0  0  0  0
  8 12  1  0  0  0  0
  9 13  1  6  0  0  0
  9  6  1  0  0  0  0
 13  1  1  0  0  0  0
 14 31  1  6  0  0  0
 14 21  1  0  0  0  0
 14 15  1  0  0  0  0
 15  3  1  0  0  0  0
 16 11  1  1  0  0  0
 16 12  1  0  0  0  0
 17 22  1  1  0  0  0
 17  9  1  0  0  0  0
 17  5  1  0  0  0  0
 19 25  1  6  0  0  0
 19 23  1  0  0  0  0
 20  1  1  0  0  0  0
 21 22  2  0  0  0  0
 23 11  1  0  0  0  0
 24 25  1  0  0  0  0
 25 26  2  0  0  0  0
 28 29  2  0  0  0  0
 29 26  1  0  0  0  0
 29 27  1  0  0  0  0
 30 24  2  0  0  0  0
 30 28  1  0  0  0  0
 31 32  1  0  0  0  0
 33 31  2  0  0  0  0
 35 34  1  1  0  0  0
 35 32  1  0  0  0  0
 36 37  1  0  0  0  0
 37 35  1  0  0  0  0
M  END
>  <MODEL>
3

>  <REMARK>
 VINA RESULT:      -8.6      1.099      1.596
  Name = 
  4 active torsions:
  status: ('A' for Active; 'I' for Inactive)
    1  A    between atoms: CA_4  and  N_12
    2  A    between atoms: CA_4  and  C_37
    3  A    between atoms: C_8  and  C_18
    4  A    between atoms: C_23  and  C_30
                            x       y       z     vdW  Elec       q    Type
                         _______ _______ _______ _____ _____    ______ ____

>  <TORSDO>
F 4

$$$$
=
 OpenBabel11112417233D

 37 42  0  0  1  0  0  0  0  0999 V2000
  186.0290  178.7160  147.1120 C   0  0  0  0  0  0  0  0  0  0  0  0
  187.4770  176.7060  143.7640 C   0  0  0  0  0  0  0  0  0  0  0  0
  190.2310  174.0320  144.3110 C   0  0  0  0  0  2  0  0  0  0  0  0
  185.6400  178.1850  144.6300 C   0  0  2  0  0  3  0  0  0  0  0  0
  188.5820  175.9280  144.2470 N   0  0  0  0  0  0  0  0  0  0  0  0
  186.8030  177.2420  144.7680 C   0  0  0  0  0  0  0  0  0  0  0  0
  189.5820  175.1640  143.4670 C   0  0  2  0  0  3  0  0  0  0  0  0
  185.6390  178.8520  143.2540 C   0  0  0  0  0  2  0  0  0  0  0  0
  187.3180  176.7760  146.0760 C   0  0  2  0  0  3  0  0  0  0  0  0
  184.8860  177.8500  147.6170 C   0  0  0  0  0  1  0  0  0  0  0  0
  187.3510  176.0050  141.3640 C   0  0  0  0  0  2  0  0  0  0  0  0
  185.8790  177.8150  142.1610 C   0  0  0  0  0  2  0  0  0  0  0  0
  187.3450  177.9250  147.0960 C   0  0  0  0  0  2  0  0  0  0  0  0
  191.6620  175.4870  145.2940 C   0  0  1  0  0  3  0  0  0  0  0  0
  190.7700  174.4370  145.5480 O   0  0  0  0  0  0  0  0  0  0  0  0
  187.2520  177.1560  142.3360 C   0  0  1  0  0  3  0  0  0  0  0  0
  188.6820  176.1610  145.6950 C   0  0  2  0  0  3  0  0  0  0  0  0
  185.7110  179.2690  145.7130 C   0  0  0  0  0  2  0  0  0  0  0  0
  189.0120  174.5790  142.1570 C   0  0  1  0  0  3  0  0  0  0  0  0
  186.1900  179.8860  148.0580 C   0  0  0  0  0  1  0  0  0  0  0  0
  191.1410  176.7820  145.8590 C   0  0  0  0  0  3  0  0  0  0  0  0
  189.8410  177.0880  146.0090 C   0  0  0  0  0  3  0  0  0  0  0  0
  188.7420  175.6400  141.2030 N   0  0  0  0  0  2  0  0  0  0  0  0
  189.5810  172.2230  141.5220 C   0  0  0  0  0  3  0  0  0  0  0  0
  189.9270  173.5790  141.5070 C   0  0  0  0  0  0  0  0  0  0  0  0
  191.1210  173.9860  140.8910 C   0  0  0  0  0  3  0  0  0  0  0  0
  193.2280  173.4740  139.6520 C   0  0  0  0  0  1  0  0  0  0  0  0
  191.6140  171.6870  140.3180 C   0  0  0  0  0  3  0  0  0  0  0  0
  191.9620  173.0400  140.2990 C   0  0  0  0  0  0  0  0  0  0  0  0
  190.4240  171.2780  140.9270 C   0  0  0  0  0  3  0  0  0  0  0  0
  193.0110  175.1730  145.8440 C   0  0  0  0  0  0  0  0  0  0  0  0
  193.8290  174.2090  145.1780 N   0  0  0  0  0  2  0  0  0  0  0  0
  193.4200  175.7450  146.8920 O   0  0  0  0  0  0  0  0  0  0  0  0
  196.2040  174.7410  144.9670 C   0  0  0  0  0  1  0  0  0  0  0  0
  195.1650  173.8560  145.6370 C   0  0  2  0  0  3  0  0  0  0  0  0
  196.5730  171.9510  146.0500 O   0  0  0  0  0  1  0  0  0  0  0  0
  195.4490  172.3890  145.3470 C   0  0  0  0  0  2  0  0  0  0  0  0
  1 10  1  0  0  0  0
  1 20  1  0  0  0  0
  2  5  1  0  0  0  0
  2  6  2  0  0  0  0
  3 15  1  0  0  0  0
  4  8  1  6  0  0  0
  4  6  1  0  0  0  0
  4 18  1  0  0  0  0
  5 17  1  0  0  0  0
  6  9  1  0  0  0  0
  7  5  1  0  0  0  0
  7  3  1  1  0  0  0
  9 13  1  1  0  0  0
 12 16  1  0  0  0  0
 12  8  1  0  0  0  0
 13  1  1  0  0  0  0
 14 15  1  0  0  0  0
 14 31  1  1  0  0  0
 14 21  1  0  0  0  0
 16 11  1  6  0  0  0
 16  2  1  0  0  0  0
 17 22  1  6  0  0  0
 17  9  1  0  0  0  0
 18  1  1  0  0  0  0
 19 25  1  6  0  0  0
 19  7  1  0  0  0  0
 21 22  2  0  0  0  0
 23 11  1  0  0  0  0
 23 19  1  0  0  0  0
 25 24  1  0  0  0  0
 26 25  2  0  0  0  0
 27 29  1  0  0  0  0
 28 30  1  0  0  0  0
 29 28  2  0  0  0  0
 29 26  1  0  0  0  0
 30 24  2  0  0  0  0
 31 33  2  0  0  0  0
 32 35  1  0  0  0  0
 32 31  1  0  0  0  0
 35 34  1  6  0  0  0
 37 35  1  0  0  0  0
 37 36  1  0  0  0  0
M  END
>  <MODEL>
4

>  <REMARK>
 VINA RESULT:      -8.6      2.414      5.564
  Name = 
  4 active torsions:
  status: ('A' for Active; 'I' for Inactive)
    1  A    between atoms: CA_4  and  N_12
    2  A    between atoms: CA_4  and  C_37
    3  A    between atoms: C_8  and  C_18
    4  A    between atoms: C_23  and  C_30
                            x       y       z     vdW  Elec       q    Type
                         _______ _______ _______ _____ _____    ______ ____

>  <TORSDO>
F 4

$$$$
=
 OpenBabel11112417233D

 37 42  0  0  1  0  0  0  0  0999 V2000
  195.4640  171.6300  144.5490 C   0  0  0  0  0  0  0  0  0  0  0  0
  192.6630  174.6770  145.0200 C   0  0  0  0  0  0  0  0  0  0  0  0
  189.1130  174.1090  143.5680 C   0  0  0  0  0  2  0  0  0  0  0  0
  194.8970  173.8120  145.7780 C   0  0  2  0  0  3  0  0  0  0  0  0
  191.5290  174.2610  144.2450 N   0  0  0  0  0  0  0  0  0  0  0  0
  193.5520  173.7020  145.1140 C   0  0  0  0  0  0  0  0  0  0  0  0
  190.3160  175.0360  143.8980 C   0  0  2  0  0  3  0  0  0  0  0  0
  195.3370  175.2730  145.8800 C   0  0  0  0  0  2  0  0  0  0  0  0
  193.0510  172.4490  144.5020 C   0  0  2  0  0  3  0  0  0  0  0  0
  195.2670  170.7350  145.7620 C   0  0  0  0  0  1  0  0  0  0  0  0
  191.8360  176.7940  146.0670 C   0  0  0  0  0  2  0  0  0  0  0  0
  194.1900  176.1390  146.3920 C   0  0  0  0  0  2  0  0  0  0  0  0
  194.1680  171.7300  143.7310 C   0  0  0  0  0  2  0  0  0  0  0  0
  189.8650  173.7650  141.4580 C   0  0  1  0  0  3  0  0  0  0  0  0
  189.3640  173.1190  142.5970 O   0  0  0  0  0  0  0  0  0  0  0  0
  193.0070  176.0960  145.4190 C   0  0  1  0  0  3  0  0  0  0  0  0
  191.8490  172.9460  143.6700 C   0  0  2  0  0  3  0  0  0  0  0  0
  195.9430  173.0270  144.9790 C   0  0  0  0  0  2  0  0  0  0  0  0
  189.9100  176.0490  144.9900 C   0  0  1  0  0  3  0  0  0  0  0  0
  196.5320  171.0120  143.6730 C   0  0  0  0  0  1  0  0  0  0  0  0
  191.3090  173.4050  141.2290 C   0  0  0  0  0  3  0  0  0  0  0  0
  192.1820  173.0750  142.1960 C   0  0  0  0  0  3  0  0  0  0  0  0
  190.8670  177.1400  145.0490 N   0  0  0  0  0  2  0  0  0  0  0  0
  188.2850  177.3780  143.6230 C   0  0  0  0  0  3  0  0  0  0  0  0
  188.5410  176.6320  144.7790 C   0  0  0  0  0  0  0  0  0  0  0  0
  187.5210  176.4390  145.7230 C   0  0  0  0  0  3  0  0  0  0  0  0
  185.1790  176.7930  146.5160 C   0  0  0  0  0  1  0  0  0  0  0  0
  186.0050  177.7410  144.3570 C   0  0  0  0  0  3  0  0  0  0  0  0
  186.2560  176.9940  145.5120 C   0  0  0  0  0  0  0  0  0  0  0  0
  187.0180  177.9320  143.4130 C   0  0  0  0  0  3  0  0  0  0  0  0
  189.0380  173.4340  140.2630 C   0  0  0  0  0  0  0  0  0  0  0  0
  189.6050  173.5830  138.9600 N   0  0  0  0  0  2  0  0  0  0  0  0
  187.8480  173.0380  140.4030 O   0  0  0  0  0  0  0  0  0  0  0  0
  189.6880  172.3240  136.8680 C   0  0  0  0  0  1  0  0  0  0  0  0
  188.8740  173.2650  137.7410 C   0  0  2  0  0  3  0  0  0  0  0  0
  187.4480  175.1920  137.5600 O   0  0  0  0  0  1  0  0  0  0  0  0
  188.5400  174.5410  136.9820 C   0  0  0  0  0  2  0  0  0  0  0  0
  1 18  1  0  0  0  0
  1 10  1  0  0  0  0
  2  6  2  0  0  0  0
  2 16  1  0  0  0  0
  4 18  1  6  0  0  0
  4  8  1  0  0  0  0
  5  2  1  0  0  0  0
  6  4  1  0  0  0  0
  7  3  1  1  0  0  0
  7  5  1  0  0  0  0
  7 19  1  0  0  0  0
  8 12  1  0  0  0  0
  9 13  1  6  0  0  0
  9  6  1  0  0  0  0
 13  1  1  0  0  0  0
 14 31  1  6  0  0  0
 14 15  1  0  0  0  0
 15  3  1  0  0  0  0
 16 11  1  1  0  0  0
 16 12  1  0  0  0  0
 17 22  1  6  0  0  0
 17  5  1  0  0  0  0
 17  9  1  0  0  0  0
 19 25  1  6  0  0  0
 19 23  1  0  0  0  0
 20  1  1  0  0  0  0
 21 14  1  0  0  0  0
 21 22  2  0  0  0  0
 23 11  1  0  0  0  0
 24 25  1  0  0  0  0
 25 26  2  0  0  0  0
 28 29  2  0  0  0  0
 29 26  1  0  0  0  0
 29 27  1  0  0  0  0
 30 24  2  0  0  0  0
 30 28  1  0  0  0  0
 31 33  2  0  0  0  0
 32 31  1  0  0  0  0
 35 34  1  6  0  0  0
 35 32  1  0  0  0  0
 37 36  1  0  0  0  0
 37 35  1  0  0  0  0
M  END
>  <MODEL>
5

>  <REMARK>
 VINA RESULT:      -8.3      1.845      6.973
  Name = 
  4 active torsions:
  status: ('A' for Active; 'I' for Inactive)
    1  A    between atoms: CA_4  and  N_12
    2  A    between atoms: CA_4  and  C_37
    3  A    between atoms: C_8  and  C_18
    4  A    between atoms: C_23  and  C_30
                            x       y       z     vdW  Elec       q    Type
                         _______ _______ _______ _____ _____    ______ ____

>  <TORSDO>
F 4

$$$$
=
 OpenBabel11112417233D

 37 42  0  0  1  0  0  0  0  0999 V2000
  185.9440  177.8030  143.2360 C   0  0  0  0  0  0  0  0  0  0  0  0
  189.4040  176.3340  145.0300 C   0  0  0  0  0  0  0  0  0  0  0  0
  191.9050  174.3800  142.8030 C   0  0  0  0  0  2  0  0  0  0  0  0
  187.4600  177.9010  145.3060 C   0  0  2  0  0  3  0  0  0  0  0  0
  190.0300  175.5250  144.0230 N   0  0  0  0  0  0  0  0  0  0  0  0
  188.3930  177.0190  144.5230 C   0  0  0  0  0  0  0  0  0  0  0  0
  191.1870  174.6120  144.1620 C   0  0  2  0  0  3  0  0  0  0  0  0
  187.4770  177.5330  146.7900 C   0  0  0  0  0  2  0  0  0  0  0  0
  188.2970  176.8390  143.0560 C   0  0  2  0  0  3  0  0  0  0  0  0
  186.3340  179.1780  142.7160 C   0  0  0  0  0  1  0  0  0  0  0  0
  191.0690  176.2310  146.8950 C   0  0  0  0  0  2  0  0  0  0  0  0
  188.9130  177.3630  147.2780 C   0  0  0  0  0  2  0  0  0  0  0  0
  186.8310  176.7150  142.6130 C   0  0  0  0  0  2  0  0  0  0  0  0
  190.3740  172.8310  142.1770 C   0  0  1  0  0  3  0  0  0  0  0  0
  191.0720  173.9670  141.7450 O   0  0  0  0  0  0  0  0  0  0  0  0
  189.6060  176.2210  146.5260 C   0  0  1  0  0  3  0  0  0  0  0  0
  189.1960  175.6070  142.8150 C   0  0  2  0  0  3  0  0  0  0  0  0
  186.0300  177.7600  144.7710 C   0  0  0  0  0  2  0  0  0  0  0  0
  192.2080  175.0840  145.2190 C   0  0  1  0  0  3  0  0  0  0  0  0
  184.5100  177.5340  142.8350 C   0  0  0  0  0  1  0  0  0  0  0  0
  188.9060  173.1290  142.3270 C   0  0  0  0  0  3  0  0  0  0  0  0
  188.3920  174.3330  142.6330 C   0  0  0  0  0  3  0  0  0  0  0  0
  191.6530  174.9510  146.5540 N   0  0  0  0  0  2  0  0  0  0  0  0
  194.6830  175.0080  144.8360 C   0  0  0  0  0  3  0  0  0  0  0  0
  193.5060  174.3280  145.1680 C   0  0  0  0  0  0  0  0  0  0  0  0
  193.5520  172.9530  145.4460 C   0  0  0  0  0  3  0  0  0  0  0  0
  194.8120  170.8090  145.6760 C   0  0  0  0  0  1  0  0  0  0  0  0
  195.9400  172.9490  145.0520 C   0  0  0  0  0  3  0  0  0  0  0  0
  194.7680  172.2650  145.3860 C   0  0  0  0  0  0  0  0  0  0  0  0
  195.8990  174.3190  144.7770 C   0  0  0  0  0  3  0  0  0  0  0  0
  190.5930  171.6940  141.2400 C   0  0  0  0  0  0  0  0  0  0  0  0
  190.7740  171.9610  139.8480 N   0  0  0  0  0  2  0  0  0  0  0  0
  190.6070  170.5080  141.6710 O   0  0  0  0  0  0  0  0  0  0  0  0
  192.0360  171.3680  137.8430 C   0  0  0  0  0  1  0  0  0  0  0  0
  191.0110  170.9120  138.8670 C   0  0  2  0  0  3  0  0  0  0  0  0
  189.9200  170.2340  136.8340 O   0  0  0  0  0  1  0  0  0  0  0  0
  189.7060  170.5300  138.1820 C   0  0  0  0  0  2  0  0  0  0  0  0
  1 18  1  0  0  0  0
  2 16  1  0  0  0  0
  4 18  1  6  0  0  0
  4  8  1  0  0  0  0
  5  7  1  0  0  0  0
  5  2  1  0  0  0  0
  6  2  2  0  0  0  0
  6  4  1  0  0  0  0
  7  3  1  6  0  0  0
  7 19  1  0  0  0  0
  8 12  1  0  0  0  0
  9 13  1  1  0  0  0
  9  6  1  0  0  0  0
 10  1  1  0  0  0  0
 13  1  1  0  0  0  0
 14 31  1  6  0  0  0
 14 21  1  0  0  0  0
 15 14  1  0  0  0  0
 15  3  1  0  0  0  0
 16 11  1  6  0  0  0
 16 12  1  0  0  0  0
 17 22  1  1  0  0  0
 17  9  1  0  0  0  0
 17  5  1  0  0  0  0
 19 25  1  1  0  0  0
 19 23  1  0  0  0  0
 20  1  1  0  0  0  0
 21 22  2  0  0  0  0
 23 11  1  0  0  0  0
 24 25  1  0  0  0  0
 25 26  2  0  0  0  0
 28 29  2  0  0  0  0
 29 26  1  0  0  0  0
 29 27  1  0  0  0  0
 30 24  2  0  0  0  0
 30 28  1  0  0  0  0
 31 33  2  0  0  0  0
 32 31  1  0  0  0  0
 35 34  1  6  0  0  0
 35 32  1  0  0  0  0
 36 37  1  0  0  0  0
 37 35  1  0  0  0  0
M  END
>  <MODEL>
6

>  <REMARK>
 VINA RESULT:      -7.9      1.255      1.309
  Name = 
  4 active torsions:
  status: ('A' for Active; 'I' for Inactive)
    1  A    between atoms: CA_4  and  N_12
    2  A    between atoms: CA_4  and  C_37
    3  A    between atoms: C_8  and  C_18
    4  A    between atoms: C_23  and  C_30
                            x       y       z     vdW  Elec       q    Type
                         _______ _______ _______ _____ _____    ______ ____

>  <TORSDO>
F 4

$$$$
=
 OpenBabel11112417233D

 37 42  0  0  1  0  0  0  0  0999 V2000
  186.3260  177.7300  143.3770 C   0  0  0  0  0  0  0  0  0  0  0  0
  189.9880  176.5110  144.9450 C   0  0  0  0  0  0  0  0  0  0  0  0
  192.6100  175.0540  142.4880 C   0  0  0  0  0  2  0  0  0  0  0  0
  187.8930  177.8180  145.4100 C   0  0  2  0  0  3  0  0  0  0  0  0
  190.6630  175.8690  143.8530 N   0  0  0  0  0  0  0  0  0  0  0  0
  188.8900  177.1190  144.5270 C   0  0  0  0  0  0  0  0  0  0  0  0
  191.9190  175.0840  143.8800 C   0  0  2  0  0  3  0  0  0  0  0  0
  188.0030  177.3250  146.8530 C   0  0  0  0  0  2  0  0  0  0  0  0
  188.7630  177.0580  143.0520 C   0  0  2  0  0  3  0  0  0  0  0  0
  186.5430  179.1800  142.9750 C   0  0  0  0  0  1  0  0  0  0  0  0
  191.7180  176.4340  146.7510 C   0  0  0  0  0  2  0  0  0  0  0  0
  189.4650  177.2770  147.2880 C   0  0  0  0  0  2  0  0  0  0  0  0
  187.3050  176.8080  142.6370 C   0  0  0  0  0  2  0  0  0  0  0  0
  191.2390  173.4030  141.7620 C   0  0  1  0  0  3  0  0  0  0  0  0
  191.7920  174.6440  141.4170 O   0  0  0  0  0  0  0  0  0  0  0  0
  190.2530  176.2900  146.4190 C   0  0  1  0  0  3  0  0  0  0  0  0
  189.7840  175.9610  142.6780 C   0  0  2  0  0  3  0  0  0  0  0  0
  186.4700  177.5630  144.8990 C   0  0  0  0  0  2  0  0  0  0  0  0
  192.9180  175.5740  144.9500 C   0  0  1  0  0  3  0  0  0  0  0  0
  184.9170  177.3370  142.9890 C   0  0  0  0  0  1  0  0  0  0  0  0
  189.7530  173.5190  141.9740 C   0  0  0  0  0  3  0  0  0  0  0  0
  189.1210  174.6260  142.4010 C   0  0  0  0  0  3  0  0  0  0  0  0
  192.4270  175.2630  146.2810 N   0  0  0  0  0  2  0  0  0  0  0  0
  194.5570  173.7250  145.3630 C   0  0  0  0  0  3  0  0  0  0  0  0
  194.2890  174.9770  144.7980 C   0  0  0  0  0  0  0  0  0  0  0  0
  195.3000  175.6570  144.1020 C   0  0  0  0  0  3  0  0  0  0  0  0
  197.6410  175.8130  143.2440 C   0  0  0  0  0  1  0  0  0  0  0  0
  196.8340  173.8380  144.5460 C   0  0  0  0  0  3  0  0  0  0  0  0
  196.5710  175.0880  143.9780 C   0  0  0  0  0  0  0  0  0  0  0  0
  195.8290  173.1570  145.2370 C   0  0  0  0  0  3  0  0  0  0  0  0
  191.5490  172.3840  140.7200 C   0  0  0  0  0  0  0  0  0  0  0  0
  190.5650  171.4030  140.3890 N   0  0  0  0  0  2  0  0  0  0  0  0
  192.6730  172.3840  140.1450 O   0  0  0  0  0  0  0  0  0  0  0  0
  189.7120  170.4830  138.2930 C   0  0  0  0  0  1  0  0  0  0  0  0
  190.7780  170.3840  139.3710 C   0  0  2  0  0  3  0  0  0  0  0  0
  190.7200  169.0900  141.3970 O   0  0  0  0  0  1  0  0  0  0  0  0
  190.7690  168.9990  140.0040 C   0  0  0  0  0  2  0  0  0  0  0  0
  1 18  1  0  0  0  0
  2 16  1  0  0  0  0
  4 18  1  6  0  0  0
  4  8  1  0  0  0  0
  5  7  1  0  0  0  0
  5  2  1  0  0  0  0
  6  2  2  0  0  0  0
  6  4  1  0  0  0  0
  7  3  1  6  0  0  0
  7 19  1  0  0  0  0
  8 12  1  0  0  0  0
  9 13  1  1  0  0  0
  9  6  1  0  0  0  0
 10  1  1  0  0  0  0
 13  1  1  0  0  0  0
 14 31  1  6  0  0  0
 14 21  1  0  0  0  0
 15 14  1  0  0  0  0
 15  3  1  0  0  0  0
 16 11  1  6  0  0  0
 16 12  1  0  0  0  0
 17 22  1  1  0  0  0
 17  9  1  0  0  0  0
 17  5  1  0  0  0  0
 19 25  1  6  0  0  0
 19 23  1  0  0  0  0
 20  1  1  0  0  0  0
 21 22  2  0  0  0  0
 23 11  1  0  0  0  0
 25 24  2  0  0  0  0
 26 25  1  0  0  0  0
 27 29  1  0  0  0  0
 28 30  2  0  0  0  0
 29 26  2  0  0  0  0
 29 28  1  0  0  0  0
 30 24  1  0  0  0  0
 32 31  1  0  0  0  0
 33 31  2  0  0  0  0
 35 34  1  6  0  0  0
 35 37  1  0  0  0  0
 35 32  1  0  0  0  0
 37 36  1  0  0  0  0
M  END
>  <MODEL>
7

>  <REMARK>
 VINA RESULT:      -7.8      1.473      1.979
  Name = 
  4 active torsions:
  status: ('A' for Active; 'I' for Inactive)
    1  A    between atoms: CA_4  and  N_12
    2  A    between atoms: CA_4  and  C_37
    3  A    between atoms: C_8  and  C_18
    4  A    between atoms: C_23  and  C_30
                            x       y       z     vdW  Elec       q    Type
                         _______ _______ _______ _____ _____    ______ ____

>  <TORSDO>
F 4

$$$$
=
 OpenBabel11112417233D

 37 42  0  0  1  0  0  0  0  0999 V2000
  186.2580  178.6580  147.3360 C   0  0  0  0  0  0  0  0  0  0  0  0
  186.7910  177.2100  143.4670 C   0  0  0  0  0  0  0  0  0  0  0  0
  189.6110  174.6150  142.8810 C   0  0  0  0  0  2  0  0  0  0  0  0
  185.2360  178.4670  144.9890 C   0  0  2  0  0  3  0  0  0  0  0  0
  187.9900  176.4230  143.5280 N   0  0  0  0  0  0  0  0  0  0  0  0
  186.4010  177.5680  144.6800 C   0  0  0  0  0  0  0  0  0  0  0  0
  188.7560  175.8240  142.4110 C   0  0  2  0  0  3  0  0  0  0  0  0
  184.8690  179.3210  143.7750 C   0  0  0  0  0  2  0  0  0  0  0  0
  187.2440  176.9450  145.7270 C   0  0  2  0  0  3  0  0  0  0  0  0
  185.2940  177.6780  147.9850 C   0  0  0  0  0  1  0  0  0  0  0  0
  186.0460  176.8510  141.1060 C   0  0  0  0  0  2  0  0  0  0  0  0
  184.8210  178.4610  142.5150 C   0  0  0  0  0  2  0  0  0  0  0  0
  187.5290  177.9380  146.8640 C   0  0  0  0  0  2  0  0  0  0  0  0
  191.2400  175.9800  143.6660 C   0  0  1  0  0  3  0  0  0  0  0  0
  190.4530  174.8650  143.9830 O   0  0  0  0  0  0  0  0  0  0  0  0
  186.1970  177.8480  142.2300 C   0  0  1  0  0  3  0  0  0  0  0  0
  188.4640  176.4530  144.9190 C   0  0  2  0  0  3  0  0  0  0  0  0
  185.5810  179.3880  146.1650 C   0  0  0  0  0  2  0  0  0  0  0  0
  187.8660  175.4050  141.2210 C   0  0  1  0  0  3  0  0  0  0  0  0
  186.6530  179.6890  148.3720 C   0  0  0  0  0  1  0  0  0  0  0  0
  190.8760  177.1560  144.5330 C   0  0  0  0  0  3  0  0  0  0  0  0
  189.6590  177.3780  145.0570 C   0  0  0  0  0  3  0  0  0  0  0  0
  187.3490  176.5770  140.5380 N   0  0  0  0  0  2  0  0  0  0  0  0
  188.1960  174.5960  138.8730 C   0  0  0  0  0  3  0  0  0  0  0  0
  188.5860  174.5500  140.2160 C   0  0  0  0  0  0  0  0  0  0  0  0
  189.6380  173.7070  140.6070 C   0  0  0  0  0  3  0  0  0  0  0  0
  191.4010  172.0190  140.0750 C   0  0  0  0  0  1  0  0  0  0  0  0
  189.8960  172.9620  138.3180 C   0  0  0  0  0  3  0  0  0  0  0  0
  190.2910  172.9140  139.6580 C   0  0  0  0  0  0  0  0  0  0  0  0
  188.8510  173.8030  137.9250 C   0  0  0  0  0  3  0  0  0  0  0  0
  192.6880  175.6520  143.7960 C   0  0  0  0  0  0  0  0  0  0  0  0
  193.1240  174.8290  144.8790 N   0  0  0  0  0  2  0  0  0  0  0  0
  193.5200  176.1080  142.9630 O   0  0  0  0  0  0  0  0  0  0  0  0
  194.6140  172.9700  145.4190 C   0  0  0  0  0  1  0  0  0  0  0  0
  194.5150  174.4460  145.0690 C   0  0  2  0  0  3  0  0  0  0  0  0
  194.4320  176.4800  146.3500 O   0  0  0  0  0  1  0  0  0  0  0  0
  195.1490  175.2960  146.1620 C   0  0  0  0  0  2  0  0  0  0  0  0
  1 10  1  0  0  0  0
  1 20  1  0  0  0  0
  2  5  1  0  0  0  0
  2  6  2  0  0  0  0
  3 15  1  0  0  0  0
  4  8  1  6  0  0  0
  4 18  1  0  0  0  0
  5 17  1  0  0  0  0
  6  4  1  0  0  0  0
  6  9  1  0  0  0  0
  7  3  1  1  0  0  0
  7  5  1  0  0  0  0
  9 13  1  1  0  0  0
 12  8  1  0  0  0  0
 13  1  1  0  0  0  0
 14 31  1  1  0  0  0
 14 15  1  0  0  0  0
 14 21  1  0  0  0  0
 16 11  1  6  0  0  0
 16 12  1  0  0  0  0
 16  2  1  0  0  0  0
 17 22  1  6  0  0  0
 17  9  1  0  0  0  0
 18  1  1  0  0  0  0
 19 25  1  6  0  0  0
 19  7  1  0  0  0  0
 21 22  2  0  0  0  0
 23 11  1  0  0  0  0
 23 19  1  0  0  0  0
 24 25  1  0  0  0  0
 25 26  2  0  0  0  0
 28 29  2  0  0  0  0
 29 27  1  0  0  0  0
 29 26  1  0  0  0  0
 30 28  1  0  0  0  0
 30 24  2  0  0  0  0
 31 32  1  0  0  0  0
 32 35  1  0  0  0  0
 33 31  2  0  0  0  0
 35 34  1  1  0  0  0
 35 37  1  0  0  0  0
 37 36  1  0  0  0  0
M  END
>  <MODEL>
8

>  <REMARK>
 VINA RESULT:      -7.5      2.214      5.957
  Name = 
  4 active torsions:
  status: ('A' for Active; 'I' for Inactive)
    1  A    between atoms: CA_4  and  N_12
    2  A    between atoms: CA_4  and  C_37
    3  A    between atoms: C_8  and  C_18
    4  A    between atoms: C_23  and  C_30
                            x       y       z     vdW  Elec       q    Type
                         _______ _______ _______ _____ _____    ______ ____

>  <TORSDO>
F 4

$$$$
=
 OpenBabel11112417233D

 37 42  0  0  1  0  0  0  0  0999 V2000
  187.1180  177.1730  145.2220 C   0  0  0  0  0  0  0  0  0  0  0  0
  191.2230  176.5570  145.5590 C   0  0  0  0  0  0  0  0  0  0  0  0
  193.1610  175.4990  142.3710 C   0  0  0  0  0  2  0  0  0  0  0  0
  189.1980  177.5270  146.6850 C   0  0  2  0  0  3  0  0  0  0  0  0
  191.6230  176.0160  144.2910 N   0  0  0  0  0  0  0  0  0  0  0  0
  189.9720  176.9820  145.5160 C   0  0  0  0  0  0  0  0  0  0  0  0
  192.9310  175.4370  143.9070 C   0  0  2  0  0  3  0  0  0  0  0  0
  189.8160  177.0740  148.0080 C   0  0  0  0  0  2  0  0  0  0  0  0
  189.4120  176.8850  144.1480 C   0  0  2  0  0  3  0  0  0  0  0  0
  186.9790  178.6340  144.8270 C   0  0  0  0  0  1  0  0  0  0  0  0
  193.4130  176.7710  146.7510 C   0  0  0  0  0  2  0  0  0  0  0  0
  191.3310  177.2580  147.9770 C   0  0  0  0  0  2  0  0  0  0  0  0
  187.9520  176.4060  144.1850 C   0  0  0  0  0  2  0  0  0  0  0  0
  191.9000  173.6460  142.0350 C   0  0  1  0  0  3  0  0  0  0  0  0
  192.1260  174.9540  141.5840 O   0  0  0  0  0  0  0  0  0  0  0  0
  191.9560  176.3970  146.8740 C   0  0  1  0  0  3  0  0  0  0  0  0
  190.4240  175.9570  143.4420 C   0  0  2  0  0  3  0  0  0  0  0  0
  187.7430  177.0480  146.6210 C   0  0  0  0  0  2  0  0  0  0  0  0
  194.1220  176.0890  144.6410 C   0  0  1  0  0  3  0  0  0  0  0  0
  185.7350  176.5600  145.2640 C   0  0  0  0  0  1  0  0  0  0  0  0
  190.5510  173.5310  142.6920 C   0  0  0  0  0  3  0  0  0  0  0  0
  189.9180  174.5310  143.3300 C   0  0  0  0  0  3  0  0  0  0  0  0
  194.1140  175.7200  146.0450 N   0  0  0  0  0  2  0  0  0  0  0  0
  196.2350  176.6930  143.4390 C   0  0  0  0  0  3  0  0  0  0  0  0
  195.4550  175.7110  144.0590 C   0  0  0  0  0  0  0  0  0  0  0  0
  195.9240  174.3900  144.1260 C   0  0  0  0  0  3  0  0  0  0  0  0
  197.6550  172.6560  143.6410 C   0  0  0  0  0  1  0  0  0  0  0  0
  197.9380  175.0410  142.9520 C   0  0  0  0  0  3  0  0  0  0  0  0
  197.1630  174.0560  143.5720 C   0  0  0  0  0  0  0  0  0  0  0  0
  197.4760  176.3580  142.8860 C   0  0  0  0  0  3  0  0  0  0  0  0
  192.0290  172.6760  140.9110 C   0  0  0  0  0  0  0  0  0  0  0  0
  190.9130  171.8510  140.5700 N   0  0  0  0  0  2  0  0  0  0  0  0
  193.1150  172.5790  140.2750 O   0  0  0  0  0  0  0  0  0  0  0  0
  189.7780  171.1240  138.5330 C   0  0  0  0  0  1  0  0  0  0  0  0
  190.9470  170.8910  139.4760 C   0  0  2  0  0  3  0  0  0  0  0  0
  190.5780  169.4670  141.3780 O   0  0  0  0  0  1  0  0  0  0  0  0
  190.9150  169.4710  140.0230 C   0  0  0  0  0  2  0  0  0  0  0  0
  1 20  1  0  0  0  0
  1 18  1  0  0  0  0
  2 16  1  0  0  0  0
  4 18  1  6  0  0  0
  4  8  1  0  0  0  0
  5  2  1  0  0  0  0
  6  2  2  0  0  0  0
  6  4  1  0  0  0  0
  7  3  1  6  0  0  0
  7  5  1  0  0  0  0
  7 19  1  0  0  0  0
  9 13  1  1  0  0  0
  9  6  1  0  0  0  0
 10  1  1  0  0  0  0
 12  8  1  0  0  0  0
 13  1  1  0  0  0  0
 14 31  1  6  0  0  0
 14 21  1  0  0  0  0
 15 14  1  0  0  0  0
 15  3  1  0  0  0  0
 16 11  1  6  0  0  0
 16 12  1  0  0  0  0
 17 22  1  1  0  0  0
 17  9  1  0  0  0  0
 17  5  1  0  0  0  0
 19 25  1  6  0  0  0
 19 23  1  0  0  0  0
 21 22  2  0  0  0  0
 23 11  1  0  0  0  0
 24 25  1  0  0  0  0
 25 26  2  0  0  0  0
 28 29  2  0  0  0  0
 29 27  1  0  0  0  0
 29 26  1  0  0  0  0
 30 28  1  0  0  0  0
 30 24  2  0  0  0  0
 32 31  1  0  0  0  0
 33 31  2  0  0  0  0
 35 34  1  6  0  0  0
 35 37  1  0  0  0  0
 35 32  1  0  0  0  0
 37 36  1  0  0  0  0
M  END
>  <MODEL>
9

>  <REMARK>
 VINA RESULT:      -7.3      1.988      2.761
  Name = 
  4 active torsions:
  status: ('A' for Active; 'I' for Inactive)
    1  A    between atoms: CA_4  and  N_12
    2  A    between atoms: CA_4  and  C_37
    3  A    between atoms: C_8  and  C_18
    4  A    between atoms: C_23  and  C_30
                            x       y       z     vdW  Elec       q    Type
                         _______ _______ _______ _____ _____    ______ ____

>  <TORSDO>
F 4

$$$$
