=
 OpenBabel11112417163D

 37 43  0  0  1  0  0  0  0  0999 V2000
  192.5600  173.1530  141.7510 C   0  0  0  0  0  2  0  0  0  0  0  0
  195.7040  176.0770  143.5810 C   0  0  0  0  0  0  0  0  0  0  0  0
  191.9340  175.8550  145.3260 C   0  0  0  0  0  0  0  0  0  0  0  0
  192.5300  172.5740  140.3300 C   0  0  2  0  0  3  0  0  0  0  0  0
  189.0270  174.1510  143.2930 C   0  0  0  0  0  2  0  0  0  0  0  0
  194.1800  176.7060  145.5050 C   0  0  0  0  0  0  0  0  0  0  0  0
  191.1930  175.2330  144.3070 C   0  0  0  0  0  0  0  0  0  0  0  0
  190.0970  171.5890  140.6290 C   0  0  2  0  0  3  0  0  0  0  0  0
  193.1430  176.1630  144.7760 C   0  0  0  0  0  0  0  0  0  0  0  0
  189.8860  174.4850  144.5180 C   0  0  1  0  0  3  0  0  0  0  0  0
  193.9670  176.9880  146.8200 N   0  0  0  0  0  0  0  0  0  0  0  0
  191.1250  172.3200  139.7410 C   0  0  0  0  0  2  0  0  0  0  0  0
  193.2440  175.7710  143.5090 N   0  0  0  0  0  0  0  0  0  0  0  0
  196.1170  174.6910  144.0450 C   0  0  0  0  0  1  0  0  0  0  0  0
  190.3930  175.9660  147.4210 C   0  0  0  0  0  2  0  0  0  0  0  0
  192.7650  176.7150  147.4190 C   0  0  0  0  0  3  0  0  0  0  0  0
  194.4440  175.9650  142.6920 C   0  0  0  0  0  2  0  0  0  0  0  0
  189.1260  172.5380  141.3410 C   0  0  0  0  0  2  0  0  0  0  0  0
  189.8770  173.4970  142.2430 C   0  0  1  0  0  3  0  0  0  0  0  0
  191.7050  176.1180  146.6990 C   0  0  0  0  0  0  0  0  0  0  0  0
  192.0690  175.1900  143.1880 C   0  0  0  0  0  0  0  0  0  0  0  0
  195.4830  176.9910  144.8120 C   0  0  0  0  0  2  0  0  0  0  0  0
  189.0900  175.1200  145.5620 N   0  0  0  0  0  0  0  0  0  0  0  0
  196.8300  176.6530  142.7490 C   0  0  0  0  0  1  0  0  0  0  0  0
  190.5000  174.4900  141.4780 O   0  0  0  0  0  0  0  0  0  0  0  0
  190.7000  170.7100  141.5320 O   0  0  0  0  0  1  0  0  0  0  0  0
  191.8530  174.5190  141.8540 C   0  0  2  0  0  3  0  0  0  0  0  0
  189.5180  174.8300  146.9200 C   0  0  0  0  0  2  0  0  0  0  0  0
  188.5150  177.1850  144.3340 C   0  0  0  0  0  3  0  0  0  0  0  0
  188.1910  176.2180  145.2970 C   0  0  0  0  0  0  0  0  0  0  0  0
  187.0090  176.3180  145.9690 N   0  0  0  0  0  0  0  0  0  0  0  0
  184.6320  177.4060  146.6370 Cl  0  0  0  0  0  0  0  0  0  0  0  0
  186.4270  178.3110  144.7910 C   0  0  0  0  0  3  0  0  0  0  0  0
  186.1320  177.3310  145.7400 C   0  0  0  0  0  0  0  0  0  0  0  0
  187.6280  178.2330  144.0840 C   0  0  0  0  0  3  0  0  0  0  0  0
  194.2560  171.1810  141.4750 C   0  0  0  0  0  1  0  0  0  0  0  0
  193.3740  171.3120  140.2480 C   0  0  0  0  0  2  0  0  0  0  0  0
  2 14  1  0  0  0  0
  2 22  1  0  0  0  0
  3 20  1  0  0  0  0
  4 37  1  1  0  0  0
  4  1  1  0  0  0  0
  6 11  2  0  0  0  0
  7 10  1  0  0  0  0
  7  3  1  0  0  0  0
  8 18  1  0  0  0  0
  8 26  1  1  0  0  0
  9  3  2  0  0  0  0
  9  6  1  0  0  0  0
 10  5  1  6  0  0  0
 10 23  1  0  0  0  0
 11 16  1  0  0  0  0
 12  4  1  0  0  0  0
 12  8  1  0  0  0  0
 13  9  1  0  0  0  0
 17 13  1  0  0  0  0
 17  2  1  0  0  0  0
 19 18  1  6  0  0  0
 19  5  1  0  0  0  0
 20 16  2  0  0  0  0
 20 15  1  0  0  0  0
 21 13  1  0  0  0  0
 21  7  2  0  0  0  0
 22  6  1  0  0  0  0
 23 28  1  0  0  0  0
 24  2  1  0  0  0  0
 25 27  1  0  0  0  0
 25 19  1  0  0  0  0
 27  1  1  1  0  0  0
 27 21  1  0  0  0  0
 28 15  1  0  0  0  0
 29 30  1  0  0  0  0
 30 23  1  0  0  0  0
 30 31  2  0  0  0  0
 33 34  2  0  0  0  0
 34 31  1  0  0  0  0
 34 32  1  0  0  0  0
 35 29  2  0  0  0  0
 35 33  1  0  0  0  0
 37 36  1  0  0  0  0
M  END
>  <MODEL>
1

>  <REMARK>
 VINA RESULT:      -8.7      0.000      0.000
  Name = 
  2 active torsions:
  status: ('A' for Active; 'I' for Inactive)
    1  A    between atoms: C_4  and  C_37
    2  A    between atoms: N_23  and  C_30
                            x       y       z     vdW  Elec       q    Type
                         _______ _______ _______ _____ _____    ______ ____

>  <TORSDO>
F 2

$$$$
=
 OpenBabel11112417163D

 37 43  0  0  1  0  0  0  0  0999 V2000
  193.6490  174.3970  144.2230 C   0  0  0  0  0  2  0  0  0  0  0  0
  191.5130  171.2510  141.5170 C   0  0  0  0  0  0  0  0  0  0  0  0
  189.5880  174.8590  142.2840 C   0  0  0  0  0  0  0  0  0  0  0  0
  194.7620  174.1500  145.2520 C   0  0  2  0  0  3  0  0  0  0  0  0
  190.9010  177.0890  145.2490 C   0  0  0  0  0  2  0  0  0  0  0  0
  189.5900  172.8190  141.0030 C   0  0  0  0  0  0  0  0  0  0  0  0
  190.3050  175.3240  143.4000 C   0  0  0  0  0  0  0  0  0  0  0  0
  194.5870  176.5950  146.2370 C   0  0  2  0  0  3  0  0  0  0  0  0
  190.0070  173.5770  142.0770 C   0  0  0  0  0  0  0  0  0  0  0  0
  190.3670  176.7760  143.8470 C   0  0  1  0  0  3  0  0  0  0  0  0
  188.6840  173.3610  140.1420 N   0  0  0  0  0  0  0  0  0  0  0  0
  194.7510  175.0810  146.4840 C   0  0  0  0  0  2  0  0  0  0  0  0
  190.9410  173.1970  142.9440 N   0  0  0  0  0  0  0  0  0  0  0  0
  192.5800  171.8850  140.6420 C   0  0  0  0  0  1  0  0  0  0  0  0
  188.0050  176.7880  141.5440 C   0  0  0  0  0  2  0  0  0  0  0  0
  188.2170  174.6380  140.3140 C   0  0  0  0  0  3  0  0  0  0  0  0
  191.5720  171.8770  142.9300 C   0  0  0  0  0  2  0  0  0  0  0  0
  193.1480  177.0890  146.4220 C   0  0  0  0  0  2  0  0  0  0  0  0
  192.2110  176.3870  145.4590 C   0  0  1  0  0  3  0  0  0  0  0  0
  188.6660  175.4460  141.3830 C   0  0  0  0  0  0  0  0  0  0  0  0
  191.1550  174.2460  143.7670 C   0  0  0  0  0  0  0  0  0  0  0  0
  190.1250  171.4230  140.8500 C   0  0  0  0  0  2  0  0  0  0  0  0
  189.0940  177.4450  143.6070 N   0  0  0  0  0  0  0  0  0  0  0  0
  191.8110  169.7720  141.6330 C   0  0  0  0  0  1  0  0  0  0  0  0
  191.9630  175.0800  145.8950 O   0  0  0  0  0  0  0  0  0  0  0  0
  195.1050  176.9950  145.0030 O   0  0  0  0  0  1  0  0  0  0  0  0
  192.2380  174.2210  144.8170 C   0  0  2  0  0  3  0  0  0  0  0  0
  188.8610  177.8420  142.2280 C   0  0  0  0  0  2  0  0  0  0  0  0
  188.0160  176.4920  145.6150 C   0  0  0  0  0  3  0  0  0  0  0  0
  188.0030  177.4060  144.5520 C   0  0  0  0  0  0  0  0  0  0  0  0
  186.9550  178.2700  144.4290 N   0  0  0  0  0  0  0  0  0  0  0  0
  184.5970  179.4010  145.0910 Cl  0  0  0  0  0  0  0  0  0  0  0  0
  185.8970  177.3700  146.3710 C   0  0  0  0  0  3  0  0  0  0  0  0
  185.9140  178.2700  145.3040 C   0  0  0  0  0  0  0  0  0  0  0  0
  186.9580  176.4770  146.5240 C   0  0  0  0  0  3  0  0  0  0  0  0
  197.2120  173.7910  145.5690 C   0  0  0  0  0  1  0  0  0  0  0  0
  196.1270  174.1770  144.5820 C   0  0  0  0  0  2  0  0  0  0  0  0
  1  4  1  0  0  0  0
  2 24  1  0  0  0  0
  2 17  1  0  0  0  0
  3  7  1  0  0  0  0
  4 37  1  6  0  0  0
  4 12  1  0  0  0  0
  6  9  2  0  0  0  0
  7 21  2  0  0  0  0
  7 10  1  0  0  0  0
  8 26  1  6  0  0  0
  8 18  1  0  0  0  0
  8 12  1  0  0  0  0
  9  3  1  0  0  0  0
  9 13  1  0  0  0  0
 10  5  1  1  0  0  0
 11 16  2  0  0  0  0
 11  6  1  0  0  0  0
 13 21  1  0  0  0  0
 14  2  1  0  0  0  0
 15 28  1  0  0  0  0
 16 20  1  0  0  0  0
 17 13  1  0  0  0  0
 19  5  1  1  0  0  0
 19 25  1  0  0  0  0
 19 18  1  0  0  0  0
 20 15  1  0  0  0  0
 20  3  2  0  0  0  0
 21 27  1  0  0  0  0
 22  6  1  0  0  0  0
 22  2  1  0  0  0  0
 23 10  1  0  0  0  0
 23 30  1  0  0  0  0
 27  1  1  6  0  0  0
 27 25  1  0  0  0  0
 28 23  1  0  0  0  0
 29 35  1  0  0  0  0
 30 29  2  0  0  0  0
 31 30  1  0  0  0  0
 31 34  2  0  0  0  0
 32 34  1  0  0  0  0
 33 35  2  0  0  0  0
 34 33  1  0  0  0  0
 37 36  1  0  0  0  0
M  END
>  <MODEL>
2

>  <REMARK>
 VINA RESULT:      -8.7      2.344      5.542
  Name = 
  2 active torsions:
  status: ('A' for Active; 'I' for Inactive)
    1  A    between atoms: C_4  and  C_37
    2  A    between atoms: N_23  and  C_30
                            x       y       z     vdW  Elec       q    Type
                         _______ _______ _______ _____ _____    ______ ____

>  <TORSDO>
F 2

$$$$
=
 OpenBabel11112417163D

 37 43  0  0  1  0  0  0  0  0999 V2000
  192.9680  174.3780  144.1200 C   0  0  0  0  0  2  0  0  0  0  0  0
  190.9340  171.6720  140.9070 C   0  0  0  0  0  0  0  0  0  0  0  0
  189.0540  175.2150  142.0110 C   0  0  0  0  0  0  0  0  0  0  0  0
  194.0050  173.9670  145.1750 C   0  0  2  0  0  3  0  0  0  0  0  0
  190.2270  177.0080  145.3120 C   0  0  0  0  0  2  0  0  0  0  0  0
  189.0880  173.3550  140.4810 C   0  0  0  0  0  0  0  0  0  0  0  0
  189.7090  175.5110  143.2180 C   0  0  0  0  0  0  0  0  0  0  0  0
  193.8270  176.2720  146.4530 C   0  0  2  0  0  3  0  0  0  0  0  0
  189.4530  173.9570  141.6670 C   0  0  0  0  0  0  0  0  0  0  0  0
  189.7770  176.8930  143.8510 C   0  0  1  0  0  3  0  0  0  0  0  0
  188.2540  174.0300  139.6430 N   0  0  0  0  0  0  0  0  0  0  0  0
  193.9370  174.7340  146.5130 C   0  0  0  0  0  2  0  0  0  0  0  0
  190.3190  173.4400  142.5340 N   0  0  0  0  0  0  0  0  0  0  0  0
  192.0710  172.3750  140.1870 C   0  0  0  0  0  1  0  0  0  0  0  0
  187.5710  177.2740  141.4280 C   0  0  0  0  0  2  0  0  0  0  0  0
  187.8090  175.2900  139.9480 C   0  0  0  0  0  3  0  0  0  0  0  0
  190.9170  172.1110  142.3890 C   0  0  0  0  0  2  0  0  0  0  0  0
  192.3920  176.7850  146.6110 C   0  0  0  0  0  2  0  0  0  0  0  0
  191.5020  176.2420  145.5100 C   0  0  1  0  0  3  0  0  0  0  0  0
  188.2080  175.9410  141.1370 C   0  0  0  0  0  0  0  0  0  0  0  0
  190.5050  174.3680  143.4960 C   0  0  0  0  0  0  0  0  0  0  0  0
  189.5970  171.9720  140.1840 C   0  0  0  0  0  2  0  0  0  0  0  0
  188.5400  177.6280  143.6210 N   0  0  0  0  0  0  0  0  0  0  0  0
  191.1870  170.1800  140.8500 C   0  0  0  0  0  1  0  0  0  0  0  0
  191.1940  174.9000  145.7580 O   0  0  0  0  0  0  0  0  0  0  0  0
  194.4340  176.8070  145.3140 O   0  0  0  0  0  1  0  0  0  0  0  0
  191.5170  174.1750  144.5980 C   0  0  2  0  0  3  0  0  0  0  0  0
  188.4060  178.2030  142.2930 C   0  0  0  0  0  2  0  0  0  0  0  0
  186.4630  176.4700  144.2920 C   0  0  0  0  0  3  0  0  0  0  0  0
  187.3890  177.5070  144.4840 C   0  0  0  0  0  0  0  0  0  0  0  0
  187.1980  178.3880  145.5060 N   0  0  0  0  0  0  0  0  0  0  0  0
  185.9410  179.4640  147.6380 Cl  0  0  0  0  0  0  0  0  0  0  0  0
  185.1920  177.2820  146.1780 C   0  0  0  0  0  3  0  0  0  0  0  0
  186.1320  178.3000  146.3460 C   0  0  0  0  0  0  0  0  0  0  0  0
  185.3620  176.3620  145.1430 C   0  0  0  0  0  3  0  0  0  0  0  0
  196.4430  173.8120  145.6870 C   0  0  0  0  0  1  0  0  0  0  0  0
  195.4110  174.0320  144.5980 C   0  0  0  0  0  2  0  0  0  0  0  0
  1  4  1  0  0  0  0
  2 17  1  0  0  0  0
  3  7  1  0  0  0  0
  4 37  1  6  0  0  0
  4 12  1  0  0  0  0
  6  9  2  0  0  0  0
  7 21  2  0  0  0  0
  7 10  1  0  0  0  0
  8 26  1  6  0  0  0
  8 12  1  0  0  0  0
  8 18  1  0  0  0  0
  9  3  1  0  0  0  0
  9 13  1  0  0  0  0
 10  5  1  1  0  0  0
 11 16  2  0  0  0  0
 11  6  1  0  0  0  0
 13 21  1  0  0  0  0
 14  2  1  0  0  0  0
 15 28  1  0  0  0  0
 16 20  1  0  0  0  0
 17 13  1  0  0  0  0
 19  5  1  1  0  0  0
 19 25  1  0  0  0  0
 19 18  1  0  0  0  0
 20 15  1  0  0  0  0
 20  3  2  0  0  0  0
 21 27  1  0  0  0  0
 22  6  1  0  0  0  0
 22  2  1  0  0  0  0
 23 10  1  0  0  0  0
 23 30  1  0  0  0  0
 24  2  1  0  0  0  0
 27  1  1  6  0  0  0
 27 25  1  0  0  0  0
 28 23  1  0  0  0  0
 29 30  2  0  0  0  0
 29 35  1  0  0  0  0
 30 31  1  0  0  0  0
 31 34  2  0  0  0  0
 33 34  1  0  0  0  0
 34 32  1  0  0  0  0
 35 33  2  0  0  0  0
 37 36  1  0  0  0  0
M  END
>  <MODEL>
3

>  <REMARK>
 VINA RESULT:      -8.1      2.439      5.600
  Name = 
  2 active torsions:
  status: ('A' for Active; 'I' for Inactive)
    1  A    between atoms: C_4  and  C_37
    2  A    between atoms: N_23  and  C_30
                            x       y       z     vdW  Elec       q    Type
                         _______ _______ _______ _____ _____    ______ ____

>  <TORSDO>
F 2

$$$$
=
 OpenBabel11112417163D

 37 43  0  0  1  0  0  0  0  0999 V2000
  194.4470  174.1850  142.6950 C   0  0  0  0  0  2  0  0  0  0  0  0
  191.7870  171.0400  140.4990 C   0  0  0  0  0  0  0  0  0  0  0  0
  190.0120  174.5420  141.8740 C   0  0  0  0  0  0  0  0  0  0  0  0
  195.7930  173.9520  143.3950 C   0  0  2  0  0  3  0  0  0  0  0  0
  191.9700  176.7320  144.4930 C   0  0  0  0  0  2  0  0  0  0  0  0
  189.7490  172.5450  140.5550 C   0  0  0  0  0  0  0  0  0  0  0  0
  190.9760  175.0020  142.7880 C   0  0  0  0  0  0  0  0  0  0  0  0
  195.8000  176.3560  144.4890 C   0  0  2  0  0  3  0  0  0  0  0  0
  190.4030  173.2850  141.5160 C   0  0  0  0  0  0  0  0  0  0  0  0
  191.1050  176.4410  143.2620 C   0  0  1  0  0  3  0  0  0  0  0  0
  188.6370  173.0750  139.9750 N   0  0  0  0  0  0  0  0  0  0  0  0
  196.0690  174.8430  144.6260 C   0  0  0  0  0  2  0  0  0  0  0  0
  191.5400  172.9170  142.1010 N   0  0  0  0  0  0  0  0  0  0  0  0
  192.5740  171.7420  139.4070 C   0  0  0  0  0  1  0  0  0  0  0  0
  188.2330  176.4280  141.6390 C   0  0  0  0  0  2  0  0  0  0  0  0
  188.1900  174.3260  140.3110 C   0  0  0  0  0  3  0  0  0  0  0  0
  192.1870  171.6240  141.8740 C   0  0  0  0  0  2  0  0  0  0  0  0
  194.4410  176.7860  145.0540 C   0  0  0  0  0  2  0  0  0  0  0  0
  193.3120  176.0760  144.3340 C   0  0  1  0  0  3  0  0  0  0  0  0
  188.8720  175.1190  141.2610 C   0  0  0  0  0  0  0  0  0  0  0  0
  191.9240  173.9480  142.8830 C   0  0  0  0  0  0  0  0  0  0  0  0
  190.2710  171.1760  140.2150 C   0  0  0  0  0  2  0  0  0  0  0  0
  189.7930  177.0650  143.3810 N   0  0  0  0  0  0  0  0  0  0  0  0
  192.1510  169.5710  140.4760 C   0  0  0  0  0  1  0  0  0  0  0  0
  193.2240  174.7490  144.7660 O   0  0  0  0  0  0  0  0  0  0  0  0
  195.9720  176.8150  143.1810 O   0  0  0  0  0  1  0  0  0  0  0  0
  193.2410  173.9350  143.6210 C   0  0  2  0  0  3  0  0  0  0  0  0
  189.2020  177.4940  142.1240 C   0  0  0  0  0  2  0  0  0  0  0  0
  187.9240  177.8470  144.7940 C   0  0  0  0  0  3  0  0  0  0  0  0
  188.9820  176.9540  144.5700 C   0  0  0  0  0  0  0  0  0  0  0  0
  189.2260  175.9680  145.4800 N   0  0  0  0  0  0  0  0  0  0  0  0
  188.8410  174.5410  147.7370 Cl  0  0  0  0  0  0  0  0  0  0  0  0
  187.4200  176.6990  146.8590 C   0  0  0  0  0  3  0  0  0  0  0  0
  188.4770  175.8240  146.6060 C   0  0  0  0  0  0  0  0  0  0  0  0
  187.1440  177.7160  145.9440 C   0  0  0  0  0  3  0  0  0  0  0  0
  196.4120  174.0420  140.9790 C   0  0  0  0  0  1  0  0  0  0  0  0
  196.9390  174.0540  142.4010 C   0  0  0  0  0  2  0  0  0  0  0  0
  1  4  1  0  0  0  0
  2 17  1  0  0  0  0
  3  7  1  0  0  0  0
  4 37  1  6  0  0  0
  4 12  1  0  0  0  0
  6  9  2  0  0  0  0
  7 21  2  0  0  0  0
  7 10  1  0  0  0  0
  8 26  1  6  0  0  0
  8 12  1  0  0  0  0
  8 18  1  0  0  0  0
  9  3  1  0  0  0  0
  9 13  1  0  0  0  0
 10 23  1  0  0  0  0
 10  5  1  1  0  0  0
 11 16  2  0  0  0  0
 11  6  1  0  0  0  0
 13 21  1  0  0  0  0
 14  2  1  0  0  0  0
 15 28  1  0  0  0  0
 16 20  1  0  0  0  0
 17 13  1  0  0  0  0
 19  5  1  1  0  0  0
 19 25  1  0  0  0  0
 19 18  1  0  0  0  0
 20 15  1  0  0  0  0
 20  3  2  0  0  0  0
 21 27  1  0  0  0  0
 22  2  1  0  0  0  0
 22  6  1  0  0  0  0
 23 30  1  0  0  0  0
 24  2  1  0  0  0  0
 27  1  1  6  0  0  0
 27 25  1  0  0  0  0
 28 23  1  0  0  0  0
 29 35  1  0  0  0  0
 30 29  2  0  0  0  0
 30 31  1  0  0  0  0
 31 34  2  0  0  0  0
 34 33  1  0  0  0  0
 34 32  1  0  0  0  0
 35 33  2  0  0  0  0
 36 37  1  0  0  0  0
M  END
>  <MODEL>
4

>  <REMARK>
 VINA RESULT:      -8.0      2.420      5.518
  Name = 
  2 active torsions:
  status: ('A' for Active; 'I' for Inactive)
    1  A    between atoms: C_4  and  C_37
    2  A    between atoms: N_23  and  C_30
                            x       y       z     vdW  Elec       q    Type
                         _______ _______ _______ _____ _____    ______ ____

>  <TORSDO>
F 2

$$$$
=
 OpenBabel11112417163D

 37 43  0  0  1  0  0  0  0  0999 V2000
  189.4520  175.4070  144.5710 C   0  0  0  0  0  2  0  0  0  0  0  0
  189.1940  173.3850  140.3720 C   0  0  0  0  0  0  0  0  0  0  0  0
  192.3940  172.4290  142.8530 C   0  0  0  0  0  0  0  0  0  0  0  0
  188.7890  176.7140  145.0270 C   0  0  2  0  0  3  0  0  0  0  0  0
  193.1380  174.7640  145.9330 C   0  0  0  0  0  2  0  0  0  0  0  0
  191.2070  171.9130  140.8220 C   0  0  0  0  0  0  0  0  0  0  0  0
  192.3510  173.4850  143.7800 C   0  0  0  0  0  0  0  0  0  0  0  0
  190.1570  176.7870  147.2850 C   0  0  2  0  0  3  0  0  0  0  0  0
  191.5090  172.7590  141.8690 C   0  0  0  0  0  0  0  0  0  0  0  0
  192.9700  173.4460  145.1680 C   0  0  1  0  0  3  0  0  0  0  0  0
  191.8570  170.7190  140.7470 N   0  0  0  0  0  0  0  0  0  0  0  0
  189.5790  177.5370  146.0680 C   0  0  0  0  0  2  0  0  0  0  0  0
  190.8930  173.9150  142.1000 N   0  0  0  0  0  0  0  0  0  0  0  0
  188.1730  172.6660  141.2360 C   0  0  0  0  0  1  0  0  0  0  0  0
  194.1570  170.7260  143.7290 C   0  0  0  0  0  2  0  0  0  0  0  0
  192.7680  170.3460  141.7000 C   0  0  0  0  0  3  0  0  0  0  0  0
  189.8830  174.4880  141.2080 C   0  0  0  0  0  2  0  0  0  0  0  0
  191.6370  176.4210  147.1270 C   0  0  0  0  0  2  0  0  0  0  0  0
  191.8430  175.5220  145.9240 C   0  0  1  0  0  3  0  0  0  0  0  0
  193.0590  171.1800  142.8040 C   0  0  0  0  0  0  0  0  0  0  0  0
  191.3790  174.3860  143.2670 C   0  0  0  0  0  0  0  0  0  0  0  0
  190.2020  172.3590  139.7970 C   0  0  0  0  0  2  0  0  0  0  0  0
  194.2110  172.6810  145.1600 N   0  0  0  0  0  0  0  0  0  0  0  0
  188.4630  174.0410  139.2200 C   0  0  0  0  0  1  0  0  0  0  0  0
  191.7610  176.2700  144.7440 O   0  0  0  0  0  0  0  0  0  0  0  0
  189.3940  175.6710  147.6380 O   0  0  0  0  0  1  0  0  0  0  0  0
  190.8260  175.6340  143.9100 C   0  0  2  0  0  3  0  0  0  0  0  0
  194.0410  171.2370  145.1550 C   0  0  0  0  0  2  0  0  0  0  0  0
  196.5500  173.2280  145.7360 C   0  0  0  0  0  3  0  0  0  0  0  0
  195.4860  173.2680  144.8230 C   0  0  0  0  0  0  0  0  0  0  0  0
  195.6750  173.8530  143.6060 N   0  0  0  0  0  0  0  0  0  0  0  0
  197.0430  175.1460  141.6730 Cl  0  0  0  0  0  0  0  0  0  0  0  0
  197.9410  174.3860  144.1360 C   0  0  0  0  0  3  0  0  0  0  0  0
  196.8640  174.4070  143.2480 C   0  0  0  0  0  0  0  0  0  0  0  0
  197.7790  173.7910  145.3880 C   0  0  0  0  0  3  0  0  0  0  0  0
  186.7380  177.7380  146.0170 C   0  0  0  0  0  1  0  0  0  0  0  0
  187.3750  176.4530  145.5220 C   0  0  0  0  0  2  0  0  0  0  0  0
  1  4  1  0  0  0  0
  2 17  1  0  0  0  0
  2 14  1  0  0  0  0
  3  7  1  0  0  0  0
  4 37  1  1  0  0  0
  4 12  1  0  0  0  0
  6  9  1  0  0  0  0
  7 10  1  0  0  0  0
  8 26  1  6  0  0  0
  9 13  1  0  0  0  0
  9  3  2  0  0  0  0
 10  5  1  6  0  0  0
 11  6  2  0  0  0  0
 11 16  1  0  0  0  0
 12  8  1  0  0  0  0
 13 21  1  0  0  0  0
 15 28  1  0  0  0  0
 16 20  2  0  0  0  0
 17 13  1  0  0  0  0
 18  8  1  0  0  0  0
 19  5  1  1  0  0  0
 19 18  1  0  0  0  0
 20  3  1  0  0  0  0
 20 15  1  0  0  0  0
 21  7  2  0  0  0  0
 21 27  1  0  0  0  0
 22  2  1  0  0  0  0
 22  6  1  0  0  0  0
 23 10  1  0  0  0  0
 24  2  1  0  0  0  0
 25 19  1  0  0  0  0
 27  1  1  1  0  0  0
 27 25  1  0  0  0  0
 28 23  1  0  0  0  0
 30 23  1  0  0  0  0
 30 29  2  0  0  0  0
 31 30  1  0  0  0  0
 32 34  1  0  0  0  0
 33 35  2  0  0  0  0
 34 31  2  0  0  0  0
 34 33  1  0  0  0  0
 35 29  1  0  0  0  0
 37 36  1  0  0  0  0
M  END
>  <MODEL>
5

>  <REMARK>
 VINA RESULT:      -8.0      3.301      7.705
  Name = 
  2 active torsions:
  status: ('A' for Active; 'I' for Inactive)
    1  A    between atoms: C_4  and  C_37
    2  A    between atoms: N_23  and  C_30
                            x       y       z     vdW  Elec       q    Type
                         _______ _______ _______ _____ _____    ______ ____

>  <TORSDO>
F 2

$$$$
=
 OpenBabel11112417163D

 37 43  0  0  1  0  0  0  0  0999 V2000
  190.2450  173.8130  142.0570 C   0  0  0  0  0  2  0  0  0  0  0  0
  189.5310  175.9050  146.1680 C   0  0  0  0  0  0  0  0  0  0  0  0
  193.4140  174.8420  145.1180 C   0  0  0  0  0  0  0  0  0  0  0  0
  189.2270  173.0420  141.2050 C   0  0  2  0  0  3  0  0  0  0  0  0
  193.9240  172.2940  142.1630 C   0  0  0  0  0  2  0  0  0  0  0  0
  192.0110  176.0360  146.6700 C   0  0  0  0  0  0  0  0  0  0  0  0
  193.1790  173.9210  144.0830 C   0  0  0  0  0  0  0  0  0  0  0  0
  191.0840  172.1110  139.5740 C   0  0  2  0  0  3  0  0  0  0  0  0
  192.1960  175.0990  145.6750 C   0  0  0  0  0  0  0  0  0  0  0  0
  194.1930  173.5390  143.0160 C   0  0  1  0  0  3  0  0  0  0  0  0
  193.1030  176.6960  147.1470 N   0  0  0  0  0  0  0  0  0  0  0  0
  189.7970  171.8630  140.3870 C   0  0  0  0  0  2  0  0  0  0  0  0
  191.2080  174.4430  145.0720 N   0  0  0  0  0  0  0  0  0  0  0  0
  189.4390  177.0070  145.1280 C   0  0  0  0  0  1  0  0  0  0  0  0
  195.9800  175.2770  145.1760 C   0  0  0  0  0  2  0  0  0  0  0  0
  194.3520  176.4640  146.6350 C   0  0  0  0  0  3  0  0  0  0  0  0
  189.8020  174.5560  145.4620 C   0  0  0  0  0  2  0  0  0  0  0  0
  192.3550  171.6340  140.2860 C   0  0  0  0  0  2  0  0  0  0  0  0
  192.5300  172.3530  141.6090 C   0  0  1  0  0  3  0  0  0  0  0  0
  194.5550  175.5400  145.5850 C   0  0  0  0  0  0  0  0  0  0  0  0
  191.7730  173.7160  144.0850 C   0  0  0  0  0  0  0  0  0  0  0  0
  190.6250  176.2610  147.2060 C   0  0  0  0  0  2  0  0  0  0  0  0
  195.5420  173.5170  143.5690 N   0  0  0  0  0  0  0  0  0  0  0  0
  188.2000  175.8150  146.8830 C   0  0  0  0  0  1  0  0  0  0  0  0
  191.6410  171.8370  142.5590 O   0  0  0  0  0  0  0  0  0  0  0  0
  191.2060  173.4390  139.1560 O   0  0  0  0  0  1  0  0  0  0  0  0
  190.9400  172.9240  143.1070 C   0  0  2  0  0  3  0  0  0  0  0  0
  196.1560  174.8240  143.7370 C   0  0  0  0  0  2  0  0  0  0  0  0
  197.4210  171.9700  143.9900 C   0  0  0  0  0  3  0  0  0  0  0  0
  196.0950  172.3590  144.2300 C   0  0  0  0  0  0  0  0  0  0  0  0
  195.3380  171.6400  145.1060 N   0  0  0  0  0  0  0  0  0  0  0  0
  194.8050  169.6660  146.8670 Cl  0  0  0  0  0  0  0  0  0  0  0  0
  197.1410  170.1350  145.5360 C   0  0  0  0  0  3  0  0  0  0  0  0
  195.8260  170.5490  145.7550 C   0  0  0  0  0  0  0  0  0  0  0  0
  197.9410  170.8540  144.6470 C   0  0  0  0  0  3  0  0  0  0  0  0
  188.1910  175.3050  141.0110 C   0  0  0  0  0  1  0  0  0  0  0  0
  188.4580  173.9920  140.3000 C   0  0  0  0  0  2  0  0  0  0  0  0
  2 24  1  0  0  0  0
  2 22  1  0  0  0  0
  3 20  2  0  0  0  0
  3  9  1  0  0  0  0
  4 37  1  6  0  0  0
  4  1  1  0  0  0  0
  6 11  1  0  0  0  0
  6 22  1  0  0  0  0
  7 21  2  0  0  0  0
  7  3  1  0  0  0  0
  8 26  1  1  0  0  0
  8 18  1  0  0  0  0
  8 12  1  0  0  0  0
  9  6  2  0  0  0  0
 10  5  1  1  0  0  0
 10 23  1  0  0  0  0
 10  7  1  0  0  0  0
 12  4  1  0  0  0  0
 13 17  1  0  0  0  0
 13  9  1  0  0  0  0
 14  2  1  0  0  0  0
 15 20  1  0  0  0  0
 16 11  2  0  0  0  0
 17  2  1  0  0  0  0
 19 18  1  6  0  0  0
 19  5  1  0  0  0  0
 19 25  1  0  0  0  0
 20 16  1  0  0  0  0
 21 13  1  0  0  0  0
 23 28  1  0  0  0  0
 23 30  1  0  0  0  0
 25 27  1  0  0  0  0
 27  1  1  6  0  0  0
 27 21  1  0  0  0  0
 28 15  1  0  0  0  0
 29 30  2  0  0  0  0
 29 35  1  0  0  0  0
 30 31  1  0  0  0  0
 31 34  2  0  0  0  0
 33 34  1  0  0  0  0
 34 32  1  0  0  0  0
 35 33  2  0  0  0  0
 37 36  1  0  0  0  0
M  END
>  <MODEL>
6

>  <REMARK>
 VINA RESULT:      -7.9      3.004      6.500
  Name = 
  2 active torsions:
  status: ('A' for Active; 'I' for Inactive)
    1  A    between atoms: C_4  and  C_37
    2  A    between atoms: N_23  and  C_30
                            x       y       z     vdW  Elec       q    Type
                         _______ _______ _______ _____ _____    ______ ____

>  <TORSDO>
F 2

$$$$
=
 OpenBabel11112417163D

 37 43  0  0  1  0  0  0  0  0999 V2000
  193.2720  171.8650  141.3220 C   0  0  0  0  0  2  0  0  0  0  0  0
  196.5220  175.2020  141.0250 C   0  0  0  0  0  0  0  0  0  0  0  0
  193.6050  175.5150  143.9750 C   0  0  0  0  0  0  0  0  0  0  0  0
  192.8270  170.8860  140.2260 C   0  0  2  0  0  3  0  0  0  0  0  0
  190.3800  173.2810  143.6640 C   0  0  0  0  0  2  0  0  0  0  0  0
  195.6770  176.3800  143.1030 C   0  0  0  0  0  0  0  0  0  0  0  0
  192.6340  174.6160  143.5010 C   0  0  0  0  0  0  0  0  0  0  0  0
  190.7560  170.0370  141.6280 C   0  0  2  0  0  3  0  0  0  0  0  0
  194.5190  175.6440  142.9700 C   0  0  0  0  0  0  0  0  0  0  0  0
  191.5610  173.9670  144.3610 C   0  0  1  0  0  3  0  0  0  0  0  0
  195.8900  177.0440  144.2730 N   0  0  0  0  0  0  0  0  0  0  0  0
  191.3410  170.4670  140.2670 C   0  0  0  0  0  2  0  0  0  0  0  0
  194.2280  174.8890  141.9140 N   0  0  0  0  0  0  0  0  0  0  0  0
  197.2100  174.0190  141.6830 C   0  0  0  0  0  1  0  0  0  0  0  0
  192.8560  176.2510  146.3570 C   0  0  0  0  0  2  0  0  0  0  0  0
  194.9960  176.9630  145.3080 C   0  0  0  0  0  3  0  0  0  0  0  0
  195.0550  174.8280  140.7080 C   0  0  0  0  0  2  0  0  0  0  0  0
  189.9860  171.1560  142.3400 C   0  0  0  0  0  2  0  0  0  0  0  0
  190.8910  172.3420  142.6110 C   0  0  1  0  0  3  0  0  0  0  0  0
  193.8250  176.1790  145.2070 C   0  0  0  0  0  0  0  0  0  0  0  0
  193.0820  174.2390  142.2060 C   0  0  0  0  0  0  0  0  0  0  0  0
  196.6330  176.4440  141.9440 C   0  0  0  0  0  2  0  0  0  0  0  0
  191.1000  174.8860  145.3940 N   0  0  0  0  0  0  0  0  0  0  0  0
  197.2340  175.5010  139.7230 C   0  0  0  0  0  1  0  0  0  0  0  0
  191.1120  173.0590  141.4300 O   0  0  0  0  0  0  0  0  0  0  0  0
  191.7160  169.4690  142.4690 O   0  0  0  0  0  1  0  0  0  0  0  0
  192.5020  173.1990  141.2790 C   0  0  2  0  0  3  0  0  0  0  0  0
  191.9890  175.0170  146.5380 C   0  0  0  0  0  2  0  0  0  0  0  0
  190.1730  176.7990  144.1370 C   0  0  0  0  0  3  0  0  0  0  0  0
  190.0540  175.8540  145.1670 C   0  0  0  0  0  0  0  0  0  0  0  0
  188.9320  175.8500  145.9400 N   0  0  0  0  0  0  0  0  0  0  0  0
  186.5060  176.6840  146.7770 Cl  0  0  0  0  0  0  0  0  0  0  0  0
  188.0110  177.6940  144.7350 C   0  0  0  0  0  3  0  0  0  0  0  0
  187.9210  176.7390  145.7500 C   0  0  0  0  0  0  0  0  0  0  0  0
  189.1460  177.7210  143.9250 C   0  0  0  0  0  3  0  0  0  0  0  0
  194.9620  169.8910  141.0530 C   0  0  0  0  0  1  0  0  0  0  0  0
  193.7230  169.6570  140.2100 C   0  0  0  0  0  2  0  0  0  0  0  0
  2 14  1  0  0  0  0
  2 22  1  0  0  0  0
  3 20  1  0  0  0  0
  4 37  1  1  0  0  0
  4 12  1  0  0  0  0
  4  1  1  0  0  0  0
  6 11  2  0  0  0  0
  7  3  1  0  0  0  0
  7 10  1  0  0  0  0
  8 18  1  0  0  0  0
  8 26  1  1  0  0  0
  9  6  1  0  0  0  0
  9  3  2  0  0  0  0
 10  5  1  6  0  0  0
 10 23  1  0  0  0  0
 11 16  1  0  0  0  0
 12  8  1  0  0  0  0
 13 21  1  0  0  0  0
 13  9  1  0  0  0  0
 15 28  1  0  0  0  0
 17  2  1  0  0  0  0
 17 13  1  0  0  0  0
 19 18  1  6  0  0  0
 19  5  1  0  0  0  0
 20 16  2  0  0  0  0
 20 15  1  0  0  0  0
 21  7  2  0  0  0  0
 22  6  1  0  0  0  0
 23 28  1  0  0  0  0
 24  2  1  0  0  0  0
 25 19  1  0  0  0  0
 27  1  1  1  0  0  0
 27 25  1  0  0  0  0
 27 21  1  0  0  0  0
 29 30  1  0  0  0  0
 30 23  1  0  0  0  0
 30 31  2  0  0  0  0
 33 34  2  0  0  0  0
 34 31  1  0  0  0  0
 34 32  1  0  0  0  0
 35 29  2  0  0  0  0
 35 33  1  0  0  0  0
 37 36  1  0  0  0  0
M  END
>  <MODEL>
7

>  <REMARK>
 VINA RESULT:      -7.8      1.616      2.181
  Name = 
  2 active torsions:
  status: ('A' for Active; 'I' for Inactive)
    1  A    between atoms: C_4  and  C_37
    2  A    between atoms: N_23  and  C_30
                            x       y       z     vdW  Elec       q    Type
                         _______ _______ _______ _____ _____    ______ ____

>  <TORSDO>
F 2

$$$$
=
 OpenBabel11112417163D

 37 43  0  0  1  0  0  0  0  0999 V2000
  194.9600  174.2390  140.6660 C   0  0  0  0  0  2  0  0  0  0  0  0
  191.7740  171.3030  138.9310 C   0  0  0  0  0  0  0  0  0  0  0  0
  190.5330  174.2450  141.6000 C   0  0  0  0  0  0  0  0  0  0  0  0
  196.4780  174.0280  140.7640 C   0  0  2  0  0  3  0  0  0  0  0  0
  193.2610  176.0870  143.7570 C   0  0  0  0  0  2  0  0  0  0  0  0
  189.8580  172.5270  140.0520 C   0  0  0  0  0  0  0  0  0  0  0  0
  191.7550  174.6230  142.1820 C   0  0  0  0  0  0  0  0  0  0  0  0
  196.8180  176.1570  142.2900 C   0  0  2  0  0  3  0  0  0  0  0  0
  190.8020  173.1350  140.8530 C   0  0  0  0  0  0  0  0  0  0  0  0
  192.0060  175.9460  142.8870 C   0  0  1  0  0  3  0  0  0  0  0  0
  188.5940  173.0310  140.0460 N   0  0  0  0  0  0  0  0  0  0  0  0
  197.1670  174.6870  141.9790 C   0  0  0  0  0  2  0  0  0  0  0  0
  192.0860  172.7900  140.8910 N   0  0  0  0  0  0  0  0  0  0  0  0
  192.0690  172.2900  137.8160 C   0  0  0  0  0  1  0  0  0  0  0  0
  188.7370  175.9260  142.4490 C   0  0  0  0  0  2  0  0  0  0  0  0
  188.2650  174.1330  140.7910 C   0  0  0  0  0  3  0  0  0  0  0  0
  192.6420  171.6490  140.1630 C   0  0  0  0  0  2  0  0  0  0  0  0
  195.7590  176.3110  143.3870 C   0  0  0  0  0  2  0  0  0  0  0  0
  194.4640  175.6320  142.9830 C   0  0  1  0  0  3  0  0  0  0  0  0
  189.2290  174.7970  141.5840 C   0  0  0  0  0  0  0  0  0  0  0  0
  192.7030  173.6850  141.6920 C   0  0  0  0  0  0  0  0  0  0  0  0
  190.2580  171.3190  139.2500 C   0  0  0  0  0  2  0  0  0  0  0  0
  190.8160  176.3830  143.6080 N   0  0  0  0  0  0  0  0  0  0  0  0
  192.1490  169.9180  138.4500 C   0  0  0  0  0  1  0  0  0  0  0  0
  194.5890  174.2440  143.1090 O   0  0  0  0  0  0  0  0  0  0  0  0
  196.4700  176.8780  141.1450 O   0  0  0  0  0  1  0  0  0  0  0  0
  194.2000  173.6770  141.8830 C   0  0  2  0  0  3  0  0  0  0  0  0
  189.7820  176.9790  142.7780 C   0  0  0  0  0  2  0  0  0  0  0  0
  189.7760  174.7780  145.1710 C   0  0  0  0  0  3  0  0  0  0  0  0
  190.5160  175.9490  144.9510 C   0  0  0  0  0  0  0  0  0  0  0  0
  190.9620  176.6660  146.0220 N   0  0  0  0  0  0  0  0  0  0  0  0
  191.3060  177.2480  148.6340 Cl  0  0  0  0  0  0  0  0  0  0  0  0
  189.9720  175.1250  147.5530 C   0  0  0  0  0  3  0  0  0  0  0  0
  190.7080  176.2840  147.3020 C   0  0  0  0  0  0  0  0  0  0  0  0
  189.5040  174.3690  146.4780 C   0  0  0  0  0  3  0  0  0  0  0  0
  196.1390  174.6660  138.3740 C   0  0  0  0  0  1  0  0  0  0  0  0
  197.1620  174.4510  139.4730 C   0  0  0  0  0  2  0  0  0  0  0  0
  1  4  1  0  0  0  0
  2 22  1  0  0  0  0
  2 17  1  0  0  0  0
  3  7  1  0  0  0  0
  4 37  1  6  0  0  0
  4 12  1  0  0  0  0
  6  9  1  0  0  0  0
  7 10  1  0  0  0  0
  8 26  1  6  0  0  0
  8 18  1  0  0  0  0
  9 13  1  0  0  0  0
  9  3  2  0  0  0  0
 10 23  1  0  0  0  0
 10  5  1  1  0  0  0
 11  6  2  0  0  0  0
 11 16  1  0  0  0  0
 12  8  1  0  0  0  0
 13 21  1  0  0  0  0
 14  2  1  0  0  0  0
 15 28  1  0  0  0  0
 16 20  2  0  0  0  0
 17 13  1  0  0  0  0
 19 25  1  0  0  0  0
 19 18  1  1  0  0  0
 19  5  1  0  0  0  0
 20  3  1  0  0  0  0
 20 15  1  0  0  0  0
 21 27  1  0  0  0  0
 21  7  2  0  0  0  0
 22  6  1  0  0  0  0
 23 30  1  0  0  0  0
 24  2  1  0  0  0  0
 27  1  1  6  0  0  0
 27 25  1  0  0  0  0
 28 23  1  0  0  0  0
 29 35  1  0  0  0  0
 30 29  2  0  0  0  0
 30 31  1  0  0  0  0
 31 34  2  0  0  0  0
 34 33  1  0  0  0  0
 34 32  1  0  0  0  0
 35 33  2  0  0  0  0
 36 37  1  0  0  0  0
M  END
>  <MODEL>
8

>  <REMARK>
 VINA RESULT:      -7.5      2.740      5.895
  Name = 
  2 active torsions:
  status: ('A' for Active; 'I' for Inactive)
    1  A    between atoms: C_4  and  C_37
    2  A    between atoms: N_23  and  C_30
                            x       y       z     vdW  Elec       q    Type
                         _______ _______ _______ _____ _____    ______ ____

>  <TORSDO>
F 2

$$$$
=
 OpenBabel11112417163D

 37 43  0  0  1  0  0  0  0  0999 V2000
  189.6560  173.5520  139.6330 C   0  0  0  0  0  2  0  0  0  0  0  0
  187.7020  176.3660  142.8030 C   0  0  0  0  0  0  0  0  0  0  0  0
  191.7510  175.4730  143.1540 C   0  0  0  0  0  0  0  0  0  0  0  0
  188.9570  172.5330  138.7230 C   0  0  2  0  0  3  0  0  0  0  0  0
  193.1820  172.4320  141.1060 C   0  0  0  0  0  2  0  0  0  0  0  0
  189.9190  176.8250  143.9410 C   0  0  0  0  0  0  0  0  0  0  0  0
  191.8580  174.3420  142.3260 C   0  0  0  0  0  0  0  0  0  0  0  0
  191.2380  171.4630  137.9300 C   0  0  2  0  0  3  0  0  0  0  0  0
  190.4150  175.7260  143.2730 C   0  0  0  0  0  0  0  0  0  0  0  0
  193.1520  173.8450  141.7010 C   0  0  1  0  0  3  0  0  0  0  0  0
  190.8030  177.6660  144.5470 N   0  0  0  0  0  0  0  0  0  0  0  0
  189.7760  171.2690  138.3820 C   0  0  0  0  0  2  0  0  0  0  0  0
  189.6690  174.8720  142.5770 N   0  0  0  0  0  0  0  0  0  0  0  0
  187.8900  177.2190  141.5610 C   0  0  0  0  0  1  0  0  0  0  0  0
  194.1720  176.1450  143.8340 C   0  0  0  0  0  2  0  0  0  0  0  0
  192.1540  177.4500  144.4730 C   0  0  0  0  0  3  0  0  0  0  0  0
  188.2080  174.9320  142.5200 C   0  0  0  0  0  2  0  0  0  0  0  0
  192.2550  171.2610  139.0590 C   0  0  0  0  0  2  0  0  0  0  0  0
  192.0120  172.2480  140.1840 C   0  0  1  0  0  3  0  0  0  0  0  0
  192.6830  176.3540  143.7560 C   0  0  0  0  0  0  0  0  0  0  0  0
  190.5200  174.0130  141.9780 C   0  0  0  0  0  0  0  0  0  0  0  0
  188.4310  177.0270  144.0000 C   0  0  0  0  0  2  0  0  0  0  0  0
  194.2770  174.0610  142.6020 N   0  0  0  0  0  0  0  0  0  0  0  0
  186.2230  176.3020  143.1160 C   0  0  0  0  0  1  0  0  0  0  0  0
  190.8980  171.8580  140.9340 O   0  0  0  0  0  0  0  0  0  0  0  0
  191.4400  172.6830  137.2790 O   0  0  0  0  0  1  0  0  0  0  0  0
  190.0350  172.9650  141.0070 C   0  0  2  0  0  3  0  0  0  0  0  0
  194.7780  175.4250  142.6410 C   0  0  0  0  0  2  0  0  0  0  0  0
  193.6920  172.6820  144.5660 C   0  0  0  0  0  3  0  0  0  0  0  0
  194.6430  173.1180  143.6320 C   0  0  0  0  0  0  0  0  0  0  0  0
  195.9140  172.6300  143.6980 N   0  0  0  0  0  0  0  0  0  0  0  0
  197.9410  171.1450  144.6820 Cl  0  0  0  0  0  0  0  0  0  0  0  0
  195.3710  171.2820  145.5930 C   0  0  0  0  0  3  0  0  0  0  0  0
  196.2940  171.7330  144.6480 C   0  0  0  0  0  0  0  0  0  0  0  0
  194.0620  171.7620  145.5480 C   0  0  0  0  0  3  0  0  0  0  0  0
  187.8720  174.5650  137.7600 C   0  0  0  0  0  1  0  0  0  0  0  0
  188.4620  173.2020  137.4500 C   0  0  0  0  0  2  0  0  0  0  0  0
  2 24  1  0  0  0  0
  2 22  1  0  0  0  0
  3  9  2  0  0  0  0
  3 20  1  0  0  0  0
  4 37  1  6  0  0  0
  4  1  1  0  0  0  0
  6 22  1  0  0  0  0
  6 11  2  0  0  0  0
  7  3  1  0  0  0  0
  8 26  1  1  0  0  0
  8 12  1  0  0  0  0
  8 18  1  0  0  0  0
  9  6  1  0  0  0  0
 10  5  1  1  0  0  0
 10  7  1  0  0  0  0
 10 23  1  0  0  0  0
 12  4  1  0  0  0  0
 13  9  1  0  0  0  0
 14  2  1  0  0  0  0
 16 11  1  0  0  0  0
 17 13  1  0  0  0  0
 17  2  1  0  0  0  0
 19 18  1  6  0  0  0
 19 25  1  0  0  0  0
 19  5  1  0  0  0  0
 20 15  1  0  0  0  0
 20 16  2  0  0  0  0
 21  7  2  0  0  0  0
 21 13  1  0  0  0  0
 23 28  1  0  0  0  0
 23 30  1  0  0  0  0
 25 27  1  0  0  0  0
 27  1  1  6  0  0  0
 27 21  1  0  0  0  0
 28 15  1  0  0  0  0
 29 35  1  0  0  0  0
 30 31  1  0  0  0  0
 30 29  2  0  0  0  0
 31 34  2  0  0  0  0
 34 32  1  0  0  0  0
 34 33  1  0  0  0  0
 35 33  2  0  0  0  0
 37 36  1  0  0  0  0
M  END
>  <MODEL>
9

>  <REMARK>
 VINA RESULT:      -7.4      3.390      6.524
  Name = 
  2 active torsions:
  status: ('A' for Active; 'I' for Inactive)
    1  A    between atoms: C_4  and  C_37
    2  A    between atoms: N_23  and  C_30
                            x       y       z     vdW  Elec       q    Type
                         _______ _______ _______ _____ _____    ______ ____

>  <TORSDO>
F 2

$$$$
