=
 OpenBabel11112416563D

 31 35  0  0  1  0  0  0  0  0999 V2000
  184.6230  178.0610  146.1470 C   0  0  0  0  0  0  0  0  0  0  0  0
  187.1530  176.7910  143.6590 C   0  0  0  0  0  0  0  0  0  0  0  0
  186.6330  177.0710  142.3610 C   0  0  0  0  0  0  0  0  0  0  0  0
  184.9240  177.9610  140.8570 C   0  0  0  0  0  0  0  0  0  0  0  0
  186.4920  177.1160  144.8860 C   0  0  0  0  0  0  0  0  0  0  0  0
  185.2470  177.7290  147.3490 C   0  0  0  0  0  3  0  0  0  0  0  0
  185.3960  177.7060  142.1470 C   0  0  0  0  0  3  0  0  0  0  0  0
  189.0070  175.8270  144.9630 C   0  0  0  0  0  0  0  0  0  0  0  0
  183.4170  178.6780  146.1580 F   0  0  0  0  0  0  0  0  0  0  0  0
  188.5820  176.0830  141.3790 N   0  0  0  0  0  0  0  0  0  0  0  0
  183.3810  178.7540  140.6320 Cl  0  0  0  0  0  0  0  0  0  0  0  0
  188.3460  176.1540  146.1440 C   0  0  0  0  0  3  0  0  0  0  0  0
  188.4170  176.1420  143.7280 C   0  0  0  0  0  0  0  0  0  0  0  0
  185.2410  177.7570  144.9330 C   0  0  0  0  0  3  0  0  0  0  0  0
  185.6840  177.5840  139.7500 C   0  0  0  0  0  3  0  0  0  0  0  0
  187.1100  176.7870  146.1210 C   0  0  0  0  0  0  0  0  0  0  0  0
  186.4880  177.0930  147.3340 C   0  0  0  0  0  3  0  0  0  0  0  0
  189.0770  175.8160  142.5850 N   0  0  0  0  0  0  0  0  0  0  0  0
  187.3880  176.6960  141.2240 C   0  0  0  0  0  0  0  0  0  0  0  0
  186.9140  176.9520  139.9340 C   0  0  0  0  0  3  0  0  0  0  0  0
  191.6400  176.9880  145.5790 O   0  0  0  0  0  0  0  0  0  0  0  0
  191.5630  175.7660  145.2780 C   0  0  0  0  0  0  0  0  0  0  0  0
  190.2870  175.1720  144.9840 N   0  0  0  0  0  2  0  0  0  0  0  0
  195.0570  173.2350  145.2130 C   0  0  1  0  0  3  0  0  0  0  0  0
  192.6030  173.5160  144.9880 C   0  0  0  0  0  2  0  0  0  0  0  0
  194.2580  176.7560  145.1440 O   0  0  0  0  0  0  0  0  0  0  0  0
  196.0690  172.4300  145.7350 O   0  0  0  0  0  1  0  0  0  0  0  0
  193.7050  172.7090  145.6640 C   0  0  0  0  0  2  0  0  0  0  0  0
  194.0730  175.5230  145.3290 C   0  0  0  0  0  0  0  0  0  0  0  0
  192.7500  174.9510  145.2500 N   0  0  0  0  0  0  0  0  0  0  0  0
  195.2470  174.6660  145.6970 C   0  0  0  0  0  2  0  0  0  0  0  0
  1  9  1  0  0  0  0
  1  6  1  0  0  0  0
  2 13  2  0  0  0  0
  2  5  1  0  0  0  0
  3  2  1  0  0  0  0
  4  7  1  0  0  0  0
  5 14  1  0  0  0  0
  5 16  2  0  0  0  0
  7  3  2  0  0  0  0
  8 23  1  0  0  0  0
  8 12  2  0  0  0  0
 10 18  2  0  0  0  0
 11  4  1  0  0  0  0
 13  8  1  0  0  0  0
 14  1  2  0  0  0  0
 15 20  1  0  0  0  0
 15  4  2  0  0  0  0
 16 12  1  0  0  0  0
 16 17  1  0  0  0  0
 17  6  2  0  0  0  0
 18 13  1  0  0  0  0
 19 10  1  0  0  0  0
 19  3  1  0  0  0  0
 20 19  2  0  0  0  0
 22 21  2  0  0  0  0
 23 22  1  0  0  0  0
 24 28  1  0  0  0  0
 24 31  1  0  0  0  0
 24 27  1  1  0  0  0
 25 30  1  0  0  0  0
 25 28  1  0  0  0  0
 26 29  2  0  0  0  0
 29 31  1  0  0  0  0
 30 22  1  0  0  0  0
 30 29  1  0  0  0  0
M  END
>  <MODEL>
1

>  <REMARK>
 VINA RESULT:      -9.8      0.000      0.000
  Name = 
  1 active torsions:
  status: ('A' for Active; 'I' for Inactive)
    1  A    between atoms: C_10  and  N_16
                            x       y       z     vdW  Elec       q    Type
                         _______ _______ _______ _____ _____    ______ ____

>  <TORSDO>
F 1

$$$$
=
 OpenBabel11112416563D

 31 35  0  0  1  0  0  0  0  0999 V2000
  184.6030  178.3810  146.4570 C   0  0  0  0  0  0  0  0  0  0  0  0
  187.2580  177.6110  143.8950 C   0  0  0  0  0  0  0  0  0  0  0  0
  186.6330  177.6910  142.6150 C   0  0  0  0  0  0  0  0  0  0  0  0
  184.7010  178.0710  141.1680 C   0  0  0  0  0  0  0  0  0  0  0  0
  186.5900  177.8370  145.1400 C   0  0  0  0  0  0  0  0  0  0  0  0
  185.3370  178.2700  147.6380 C   0  0  0  0  0  3  0  0  0  0  0  0
  185.2730  178.0040  142.4400 C   0  0  0  0  0  3  0  0  0  0  0  0
  189.3410  177.1840  145.1380 C   0  0  0  0  0  0  0  0  0  0  0  0
  183.2870  178.6950  146.5060 F   0  0  0  0  0  0  0  0  0  0  0  0
  188.7200  177.1400  141.5750 N   0  0  0  0  0  0  0  0  0  0  0  0
  183.0050  178.4640  140.9910 Cl  0  0  0  0  0  0  0  0  0  0  0  0
  188.6700  177.4080  146.3380 C   0  0  0  0  0  3  0  0  0  0  0  0
  188.6420  177.2850  143.9240 C   0  0  0  0  0  0  0  0  0  0  0  0
  185.2250  178.1660  145.2260 C   0  0  0  0  0  3  0  0  0  0  0  0
  185.4830  177.8250  140.0390 C   0  0  0  0  0  3  0  0  0  0  0  0
  187.3190  177.7300  146.3530 C   0  0  0  0  0  0  0  0  0  0  0  0
  186.6920  177.9460  147.5840 C   0  0  0  0  0  3  0  0  0  0  0  0
  189.3130  177.0620  142.7630 N   0  0  0  0  0  0  0  0  0  0  0  0
  187.4090  177.4440  141.4570 C   0  0  0  0  0  0  0  0  0  0  0  0
  186.8340  177.5120  140.1840 C   0  0  0  0  0  3  0  0  0  0  0  0
  190.5850  174.5390  144.8020 O   0  0  0  0  0  0  0  0  0  0  0  0
  191.3220  175.5480  144.9650 C   0  0  0  0  0  0  0  0  0  0  0  0
  190.7400  176.8520  145.1200 N   0  0  0  0  0  2  0  0  0  0  0  0
  195.6250  175.2190  144.9570 C   0  0  1  0  0  3  0  0  0  0  0  0
  193.5760  176.6140  145.0710 C   0  0  0  0  0  2  0  0  0  0  0  0
  192.7440  173.0810  145.3590 O   0  0  0  0  0  0  0  0  0  0  0  0
  196.9030  175.1150  144.4110 O   0  0  0  0  0  1  0  0  0  0  0  0
  194.9210  176.4340  144.3760 C   0  0  0  0  0  2  0  0  0  0  0  0
  193.3940  174.1090  145.0320 C   0  0  0  0  0  0  0  0  0  0  0  0
  192.7550  175.4030  144.9730 N   0  0  0  0  0  0  0  0  0  0  0  0
  194.8330  173.9580  144.6410 C   0  0  0  0  0  2  0  0  0  0  0  0
  1  9  1  0  0  0  0
  1  6  1  0  0  0  0
  2 13  2  0  0  0  0
  2  5  1  0  0  0  0
  3  2  1  0  0  0  0
  4  7  1  0  0  0  0
  5 14  1  0  0  0  0
  5 16  2  0  0  0  0
  7  3  2  0  0  0  0
  8 12  2  0  0  0  0
 10 18  2  0  0  0  0
 11  4  1  0  0  0  0
 12 16  1  0  0  0  0
 13  8  1  0  0  0  0
 14  1  2  0  0  0  0
 15 20  1  0  0  0  0
 15  4  2  0  0  0  0
 16 17  1  0  0  0  0
 17  6  2  0  0  0  0
 18 13  1  0  0  0  0
 19 10  1  0  0  0  0
 19  3  1  0  0  0  0
 20 19  2  0  0  0  0
 21 22  2  0  0  0  0
 22 30  1  0  0  0  0
 22 23  1  0  0  0  0
 23  8  1  0  0  0  0
 24 27  1  6  0  0  0
 28 24  1  0  0  0  0
 28 25  1  0  0  0  0
 29 26  2  0  0  0  0
 30 29  1  0  0  0  0
 30 25  1  0  0  0  0
 31 24  1  0  0  0  0
 31 29  1  0  0  0  0
M  END
>  <MODEL>
2

>  <REMARK>
 VINA RESULT:      -9.8      1.317      1.679
  Name = 
  1 active torsions:
  status: ('A' for Active; 'I' for Inactive)
    1  A    between atoms: C_10  and  N_16
                            x       y       z     vdW  Elec       q    Type
                         _______ _______ _______ _____ _____    ______ ____

>  <TORSDO>
F 1

$$$$
=
 OpenBabel11112416563D

 31 35  0  0  1  0  0  0  0  0999 V2000
  190.8150  176.7910  147.2700 C   0  0  0  0  0  0  0  0  0  0  0  0
  188.5160  176.3670  144.3130 C   0  0  0  0  0  0  0  0  0  0  0  0
  187.3050  177.0500  144.6300 C   0  0  0  0  0  0  0  0  0  0  0  0
  185.8940  178.3820  146.1140 C   0  0  0  0  0  0  0  0  0  0  0  0
  189.6540  176.2870  145.1780 C   0  0  0  0  0  0  0  0  0  0  0  0
  191.9380  176.0890  146.8330 C   0  0  0  0  0  3  0  0  0  0  0  0
  187.0980  177.7270  145.8450 C   0  0  0  0  0  3  0  0  0  0  0  0
  189.7420  175.0270  142.6480 C   0  0  0  0  0  0  0  0  0  0  0  0
  190.8170  177.3780  148.4900 F   0  0  0  0  0  0  0  0  0  0  0  0
  186.4050  176.4160  142.5010 N   0  0  0  0  0  0  0  0  0  0  0  0
  185.6740  179.2140  147.6380 Cl  0  0  0  0  0  0  0  0  0  0  0  0
  190.8370  174.9640  143.5070 C   0  0  0  0  0  3  0  0  0  0  0  0
  188.5890  175.7240  143.0460 C   0  0  0  0  0  0  0  0  0  0  0  0
  189.6890  176.8870  146.4500 C   0  0  0  0  0  3  0  0  0  0  0  0
  184.8690  178.3740  145.1690 C   0  0  0  0  0  3  0  0  0  0  0  0
  190.8070  175.5780  144.7520 C   0  0  0  0  0  0  0  0  0  0  0  0
  191.9320  175.4850  145.5760 C   0  0  0  0  0  3  0  0  0  0  0  0
  187.5300  175.7750  142.1950 N   0  0  0  0  0  0  0  0  0  0  0  0
  186.2520  177.0530  143.6830 C   0  0  0  0  0  0  0  0  0  0  0  0
  185.0490  177.7100  143.9560 C   0  0  0  0  0  3  0  0  0  0  0  0
  189.7750  172.1510  142.0290 O   0  0  0  0  0  0  0  0  0  0  0  0
  189.7990  172.9830  141.0830 C   0  0  0  0  0  0  0  0  0  0  0  0
  189.7710  174.3930  141.3580 N   0  0  0  0  0  2  0  0  0  0  0  0
  189.8420  171.7070  136.9610 C   0  0  1  0  0  3  0  0  0  0  0  0
  189.7590  173.5250  138.6470 C   0  0  0  0  0  2  0  0  0  0  0  0
  190.5310  170.3380  140.2300 O   0  0  0  0  0  0  0  0  0  0  0  0
  189.3160  171.2480  135.7530 O   0  0  0  0  0  1  0  0  0  0  0  0
  189.0970  172.9590  137.3960 C   0  0  0  0  0  2  0  0  0  0  0  0
  190.0660  171.1420  139.3790 C   0  0  0  0  0  0  0  0  0  0  0  0
  189.8280  172.5250  139.7170 N   0  0  0  0  0  0  0  0  0  0  0  0
  189.7020  170.6230  138.0200 C   0  0  0  0  0  2  0  0  0  0  0  0
  1  9  1  0  0  0  0
  2  3  1  0  0  0  0
  2  5  1  0  0  0  0
  3  7  2  0  0  0  0
  4 11  1  0  0  0  0
  5 14  1  0  0  0  0
  6  1  1  0  0  0  0
  7  4  1  0  0  0  0
  8 13  1  0  0  0  0
  8 12  2  0  0  0  0
 10 19  1  0  0  0  0
 12 16  1  0  0  0  0
 13  2  2  0  0  0  0
 14  1  2  0  0  0  0
 15  4  2  0  0  0  0
 16  5  2  0  0  0  0
 16 17  1  0  0  0  0
 17  6  2  0  0  0  0
 18 10  2  0  0  0  0
 18 13  1  0  0  0  0
 19 20  2  0  0  0  0
 19  3  1  0  0  0  0
 20 15  1  0  0  0  0
 22 23  1  0  0  0  0
 22 21  2  0  0  0  0
 23  8  1  0  0  0  0
 24 27  1  6  0  0  0
 24 28  1  0  0  0  0
 24 31  1  0  0  0  0
 25 30  1  0  0  0  0
 28 25  1  0  0  0  0
 29 30  1  0  0  0  0
 29 26  2  0  0  0  0
 30 22  1  0  0  0  0
 31 29  1  0  0  0  0
M  END
>  <MODEL>
3

>  <REMARK>
 VINA RESULT:      -8.8      4.466      6.218
  Name = 
  1 active torsions:
  status: ('A' for Active; 'I' for Inactive)
    1  A    between atoms: C_10  and  N_16
                            x       y       z     vdW  Elec       q    Type
                         _______ _______ _______ _____ _____    ______ ____

>  <TORSDO>
F 1

$$$$
=
 OpenBabel11112416563D

 31 35  0  0  1  0  0  0  0  0999 V2000
  186.3640  177.9780  147.1710 C   0  0  0  0  0  0  0  0  0  0  0  0
  189.1980  176.3170  145.3220 C   0  0  0  0  0  0  0  0  0  0  0  0
  190.3580  176.4480  146.1400 C   0  0  0  0  0  0  0  0  0  0  0  0
  191.5120  177.2000  148.1590 C   0  0  0  0  0  0  0  0  0  0  0  0
  187.9020  176.8170  145.6650 C   0  0  0  0  0  0  0  0  0  0  0  0
  185.3140  177.7790  146.2750 C   0  0  0  0  0  3  0  0  0  0  0  0
  190.3510  177.0940  147.3900 C   0  0  0  0  0  3  0  0  0  0  0  0
  188.2620  175.4620  143.2090 C   0  0  0  0  0  0  0  0  0  0  0  0
  186.1460  178.6330  148.3350 F   0  0  0  0  0  0  0  0  0  0  0  0
  191.6410  175.2760  144.4890 N   0  0  0  0  0  0  0  0  0  0  0  0
  191.4630  178.0110  149.7080 Cl  0  0  0  0  0  0  0  0  0  0  0  0
  187.0090  175.9580  143.5650 C   0  0  0  0  0  3  0  0  0  0  0  0
  189.3490  175.6380  144.0810 C   0  0  0  0  0  0  0  0  0  0  0  0
  187.6400  177.5010  146.8660 C   0  0  0  0  0  3  0  0  0  0  0  0
  192.7100  176.6590  147.6910 C   0  0  0  0  0  3  0  0  0  0  0  0
  186.8190  176.6250  144.7670 C   0  0  0  0  0  0  0  0  0  0  0  0
  185.5420  177.1040  145.0770 C   0  0  0  0  0  3  0  0  0  0  0  0
  190.5640  175.1480  143.7180 N   0  0  0  0  0  0  0  0  0  0  0  0
  191.5840  175.9060  145.6840 C   0  0  0  0  0  0  0  0  0  0  0  0
  192.7450  176.0140  146.4550 C   0  0  0  0  0  3  0  0  0  0  0  0
  187.6670  176.3970  140.4840 O   0  0  0  0  0  0  0  0  0  0  0  0
  188.1510  175.2450  140.6460 C   0  0  0  0  0  0  0  0  0  0  0  0
  188.4620  174.7690  141.9660 N   0  0  0  0  0  2  0  0  0  0  0  0
  189.0320  172.6790  137.2900 C   0  0  1  0  0  3  0  0  0  0  0  0
  189.0710  173.1120  139.7320 C   0  0  0  0  0  2  0  0  0  0  0  0
  187.0480  175.6070  138.0170 O   0  0  0  0  0  0  0  0  0  0  0  0
  189.7600  172.1850  136.2080 O   0  0  0  0  0  1  0  0  0  0  0  0
  189.9090  172.6910  138.5310 C   0  0  0  0  0  2  0  0  0  0  0  0
  187.9430  174.7370  138.1830 C   0  0  0  0  0  0  0  0  0  0  0  0
  188.4200  174.4070  139.5060 N   0  0  0  0  0  0  0  0  0  0  0  0
  188.5530  174.0910  136.9760 C   0  0  0  0  0  2  0  0  0  0  0  0
  1  9  1  0  0  0  0
  2  5  1  0  0  0  0
  2  3  1  0  0  0  0
  3  7  1  0  0  0  0
  4 11  1  0  0  0  0
  5 14  2  0  0  0  0
  6  1  2  0  0  0  0
  7  4  2  0  0  0  0
  8 12  2  0  0  0  0
  8 13  1  0  0  0  0
 10 19  1  0  0  0  0
 12 16  1  0  0  0  0
 13  2  2  0  0  0  0
 14  1  1  0  0  0  0
 15  4  1  0  0  0  0
 16 17  2  0  0  0  0
 16  5  1  0  0  0  0
 17  6  1  0  0  0  0
 18 13  1  0  0  0  0
 18 10  2  0  0  0  0
 19  3  2  0  0  0  0
 19 20  1  0  0  0  0
 20 15  2  0  0  0  0
 21 22  2  0  0  0  0
 22 23  1  0  0  0  0
 23  8  1  0  0  0  0
 24 27  1  6  0  0  0
 24 28  1  0  0  0  0
 26 29  2  0  0  0  0
 28 25  1  0  0  0  0
 29 30  1  0  0  0  0
 30 25  1  0  0  0  0
 30 22  1  0  0  0  0
 31 24  1  0  0  0  0
 31 29  1  0  0  0  0
M  END
>  <MODEL>
4

>  <REMARK>
 VINA RESULT:      -8.8      4.231      6.786
  Name = 
  1 active torsions:
  status: ('A' for Active; 'I' for Inactive)
    1  A    between atoms: C_10  and  N_16
                            x       y       z     vdW  Elec       q    Type
                         _______ _______ _______ _____ _____    ______ ____

>  <TORSDO>
F 1

$$$$
=
 OpenBabel11112416563D

 31 35  0  0  1  0  0  0  0  0999 V2000
  186.3170  177.8740  146.8190 C   0  0  0  0  0  0  0  0  0  0  0  0
  189.2340  176.3250  145.0020 C   0  0  0  0  0  0  0  0  0  0  0  0
  190.3640  176.4350  145.8640 C   0  0  0  0  0  0  0  0  0  0  0  0
  191.4390  177.1160  147.9510 C   0  0  0  0  0  0  0  0  0  0  0  0
  187.9200  176.7960  145.3200 C   0  0  0  0  0  0  0  0  0  0  0  0
  185.3010  177.7000  145.8800 C   0  0  0  0  0  3  0  0  0  0  0  0
  190.3060  177.0280  147.1390 C   0  0  0  0  0  3  0  0  0  0  0  0
  188.3820  175.5490  142.8240 C   0  0  0  0  0  0  0  0  0  0  0  0
  186.0510  178.4770  148.0010 F   0  0  0  0  0  0  0  0  0  0  0  0
  191.7170  175.3490  144.2110 N   0  0  0  0  0  0  0  0  0  0  0  0
  191.3260  177.8600  149.5300 Cl  0  0  0  0  0  0  0  0  0  0  0  0
  187.1110  176.0150  143.1560 C   0  0  0  0  0  3  0  0  0  0  0  0
  189.4360  175.7010  143.7390 C   0  0  0  0  0  0  0  0  0  0  0  0
  187.6090  177.4260  146.5390 C   0  0  0  0  0  3  0  0  0  0  0  0
  192.6580  176.6090  147.5030 C   0  0  0  0  0  3  0  0  0  0  0  0
  186.8710  176.6290  144.3790 C   0  0  0  0  0  0  0  0  0  0  0  0
  185.5790  177.0790  144.6630 C   0  0  0  0  0  3  0  0  0  0  0  0
  190.6690  175.2410  143.3980 N   0  0  0  0  0  0  0  0  0  0  0  0
  191.6110  175.9270  145.4280 C   0  0  0  0  0  0  0  0  0  0  0  0
  192.7440  176.0160  146.2430 C   0  0  0  0  0  3  0  0  0  0  0  0
  189.0410  172.7290  142.3020 O   0  0  0  0  0  0  0  0  0  0  0  0
  188.9650  173.5320  141.3330 C   0  0  0  0  0  0  0  0  0  0  0  0
  188.6330  174.9110  141.5600 N   0  0  0  0  0  2  0  0  0  0  0  0
  189.5660  172.2190  137.2670 C   0  0  1  0  0  3  0  0  0  0  0  0
  188.9940  174.0110  138.8840 C   0  0  0  0  0  2  0  0  0  0  0  0
  190.2770  171.0770  140.6180 O   0  0  0  0  0  0  0  0  0  0  0  0
  189.2340  171.6410  136.0420 O   0  0  0  0  0  1  0  0  0  0  0  0
  188.5540  173.3000  137.6100 C   0  0  0  0  0  2  0  0  0  0  0  0
  189.7230  171.7540  139.7110 C   0  0  0  0  0  0  0  0  0  0  0  0
  189.1860  173.0660  139.9890 N   0  0  0  0  0  0  0  0  0  0  0  0
  189.5720  171.1470  138.3490 C   0  0  0  0  0  2  0  0  0  0  0  0
  1  9  1  0  0  0  0
  2  5  1  0  0  0  0
  2  3  1  0  0  0  0
  3  7  1  0  0  0  0
  4 11  1  0  0  0  0
  5 14  2  0  0  0  0
  6  1  2  0  0  0  0
  7  4  2  0  0  0  0
  8 12  2  0  0  0  0
  8 13  1  0  0  0  0
 10 19  1  0  0  0  0
 12 16  1  0  0  0  0
 13  2  2  0  0  0  0
 14  1  1  0  0  0  0
 15  4  1  0  0  0  0
 16 17  2  0  0  0  0
 16  5  1  0  0  0  0
 17  6  1  0  0  0  0
 18 13  1  0  0  0  0
 18 10  2  0  0  0  0
 19  3  2  0  0  0  0
 19 20  1  0  0  0  0
 20 15  2  0  0  0  0
 22 23  1  0  0  0  0
 22 21  2  0  0  0  0
 23  8  1  0  0  0  0
 24 27  1  6  0  0  0
 24 28  1  0  0  0  0
 24 31  1  0  0  0  0
 25 30  1  0  0  0  0
 28 25  1  0  0  0  0
 29 30  1  0  0  0  0
 29 26  2  0  0  0  0
 30 22  1  0  0  0  0
 31 29  1  0  0  0  0
M  END
>  <MODEL>
5

>  <REMARK>
 VINA RESULT:      -8.6      4.356      6.591
  Name = 
  1 active torsions:
  status: ('A' for Active; 'I' for Inactive)
    1  A    between atoms: C_10  and  N_16
                            x       y       z     vdW  Elec       q    Type
                         _______ _______ _______ _____ _____    ______ ____

>  <TORSDO>
F 1

$$$$
=
 OpenBabel11112416563D

 31 35  0  0  1  0  0  0  0  0999 V2000
  185.7670  177.6030  141.1140 C   0  0  0  0  0  0  0  0  0  0  0  0
  187.6240  176.6940  144.2650 C   0  0  0  0  0  0  0  0  0  0  0  0
  186.8280  177.1470  145.3590 C   0  0  0  0  0  0  0  0  0  0  0  0
  184.8470  178.2300  146.2950 C   0  0  0  0  0  0  0  0  0  0  0  0
  187.2710  176.8460  142.8870 C   0  0  0  0  0  0  0  0  0  0  0  0
  186.6400  177.1110  140.1430 C   0  0  0  0  0  3  0  0  0  0  0  0
  185.5940  177.8020  145.1950 C   0  0  0  0  0  3  0  0  0  0  0  0
  189.7000  175.5670  143.5660 C   0  0  0  0  0  0  0  0  0  0  0  0
  184.6150  178.2090  140.7420 F   0  0  0  0  0  0  0  0  0  0  0  0
  188.4730  176.3090  146.8880 N   0  0  0  0  0  0  0  0  0  0  0  0
  183.3160  179.0410  146.0500 Cl  0  0  0  0  0  0  0  0  0  0  0  0
  189.3360  175.7270  142.2310 C   0  0  0  0  0  3  0  0  0  0  0  0
  188.8510  176.0460  144.5780 C   0  0  0  0  0  0  0  0  0  0  0  0
  186.0820  177.4700  142.4670 C   0  0  0  0  0  3  0  0  0  0  0  0
  185.3220  178.0100  147.5880 C   0  0  0  0  0  3  0  0  0  0  0  0
  188.1460  176.3530  141.8840 C   0  0  0  0  0  0  0  0  0  0  0  0
  187.8260  176.4880  140.5290 C   0  0  0  0  0  3  0  0  0  0  0  0
  189.2230  175.8820  145.8750 N   0  0  0  0  0  0  0  0  0  0  0  0
  187.2930  176.9340  146.6790 C   0  0  0  0  0  0  0  0  0  0  0  0
  186.5430  177.3630  147.7790 C   0  0  0  0  0  3  0  0  0  0  0  0
  192.2910  176.8010  144.2140 O   0  0  0  0  0  0  0  0  0  0  0  0
  192.1880  175.5450  144.2300 C   0  0  0  0  0  0  0  0  0  0  0  0
  190.9300  174.9180  143.9280 N   0  0  0  0  0  2  0  0  0  0  0  0
  195.5240  173.0220  145.2920 C   0  0  1  0  0  3  0  0  0  0  0  0
  193.1360  173.2790  144.6720 C   0  0  0  0  0  2  0  0  0  0  0  0
  194.9270  176.4160  144.2120 O   0  0  0  0  0  0  0  0  0  0  0  0
  196.4180  172.3640  146.1350 O   0  0  0  0  0  1  0  0  0  0  0  0
  194.0990  172.6570  145.6750 C   0  0  0  0  0  2  0  0  0  0  0  0
  194.6560  175.2780  144.6810 C   0  0  0  0  0  0  0  0  0  0  0  0
  193.3250  174.7300  144.5740 N   0  0  0  0  0  0  0  0  0  0  0  0
  195.7270  174.5270  145.4130 C   0  0  0  0  0  2  0  0  0  0  0  0
  1 14  1  0  0  0  0
  2 13  2  0  0  0  0
  2  3  1  0  0  0  0
  3 19  1  0  0  0  0
  4 15  2  0  0  0  0
  5  2  1  0  0  0  0
  6 17  1  0  0  0  0
  6  1  2  0  0  0  0
  7  3  2  0  0  0  0
  7  4  1  0  0  0  0
  8 23  1  0  0  0  0
  8 13  1  0  0  0  0
  9  1  1  0  0  0  0
 11  4  1  0  0  0  0
 12  8  2  0  0  0  0
 13 18  1  0  0  0  0
 14  5  2  0  0  0  0
 15 20  1  0  0  0  0
 16 12  1  0  0  0  0
 16  5  1  0  0  0  0
 17 16  2  0  0  0  0
 18 10  2  0  0  0  0
 19 10  1  0  0  0  0
 19 20  2  0  0  0  0
 21 22  2  0  0  0  0
 22 30  1  0  0  0  0
 23 22  1  0  0  0  0
 24 31  1  0  0  0  0
 24 28  1  0  0  0  0
 24 27  1  1  0  0  0
 25 28  1  0  0  0  0
 26 29  2  0  0  0  0
 29 31  1  0  0  0  0
 30 25  1  0  0  0  0
 30 29  1  0  0  0  0
M  END
>  <MODEL>
6

>  <REMARK>
 VINA RESULT:      -8.6      1.789      3.992
  Name = 
  1 active torsions:
  status: ('A' for Active; 'I' for Inactive)
    1  A    between atoms: C_10  and  N_16
                            x       y       z     vdW  Elec       q    Type
                         _______ _______ _______ _____ _____    ______ ____

>  <TORSDO>
F 1

$$$$
=
 OpenBabel11112416563D

 31 35  0  0  1  0  0  0  0  0999 V2000
  185.4610  177.9630  141.2540 C   0  0  0  0  0  0  0  0  0  0  0  0
  187.6180  177.5740  144.3200 C   0  0  0  0  0  0  0  0  0  0  0  0
  186.7910  177.8600  145.4460 C   0  0  0  0  0  0  0  0  0  0  0  0
  184.6610  178.4870  146.4660 C   0  0  0  0  0  0  0  0  0  0  0  0
  187.1780  177.6090  142.9590 C   0  0  0  0  0  0  0  0  0  0  0  0
  186.3770  177.6590  140.2470 C   0  0  0  0  0  3  0  0  0  0  0  0
  185.4340  178.2140  145.3360 C   0  0  0  0  0  3  0  0  0  0  0  0
  189.8620  176.9310  143.5320 C   0  0  0  0  0  0  0  0  0  0  0  0
  184.1850  178.2830  140.9330 F   0  0  0  0  0  0  0  0  0  0  0  0
  188.6520  177.4530  146.9010 N   0  0  0  0  0  0  0  0  0  0  0  0
  182.9760  178.9230  146.2880 Cl  0  0  0  0  0  0  0  0  0  0  0  0
  189.4100  176.9720  142.2140 C   0  0  0  0  0  3  0  0  0  0  0  0
  188.9740  177.2290  144.5780 C   0  0  0  0  0  0  0  0  0  0  0  0
  185.8600  177.9370  142.5910 C   0  0  0  0  0  3  0  0  0  0  0  0
  185.2330  178.4110  147.7370 C   0  0  0  0  0  3  0  0  0  0  0  0
  188.0940  177.3030  141.9190 C   0  0  0  0  0  0  0  0  0  0  0  0
  187.6910  177.3310  140.5810 C   0  0  0  0  0  3  0  0  0  0  0  0
  189.4330  177.1840  145.8570 N   0  0  0  0  0  0  0  0  0  0  0  0
  187.3520  177.7890  146.7440 C   0  0  0  0  0  0  0  0  0  0  0  0
  186.5760  178.0630  147.8740 C   0  0  0  0  0  3  0  0  0  0  0  0
  191.0280  174.2550  143.9020 O   0  0  0  0  0  0  0  0  0  0  0  0
  191.7660  175.2690  144.0270 C   0  0  0  0  0  0  0  0  0  0  0  0
  191.2230  176.5870  143.8400 N   0  0  0  0  0  2  0  0  0  0  0  0
  195.9750  174.9000  144.9040 C   0  0  1  0  0  3  0  0  0  0  0  0
  194.0050  176.3140  144.3790 C   0  0  0  0  0  2  0  0  0  0  0  0
  192.9770  172.8970  145.1060 O   0  0  0  0  0  0  0  0  0  0  0  0
  197.3270  174.6860  144.6400 O   0  0  0  0  0  1  0  0  0  0  0  0
  195.4470  175.9990  143.9970 C   0  0  0  0  0  2  0  0  0  0  0  0
  193.7220  173.8440  144.7380 C   0  0  0  0  0  0  0  0  0  0  0  0
  193.1640  175.1130  144.3350 N   0  0  0  0  0  0  0  0  0  0  0  0
  195.2010  173.6100  144.6640 C   0  0  0  0  0  2  0  0  0  0  0  0
  1 14  1  0  0  0  0
  2 13  2  0  0  0  0
  2  3  1  0  0  0  0
  3 19  1  0  0  0  0
  4 15  2  0  0  0  0
  5  2  1  0  0  0  0
  6 17  1  0  0  0  0
  6  1  2  0  0  0  0
  7  3  2  0  0  0  0
  7  4  1  0  0  0  0
  8 23  1  0  0  0  0
  8 13  1  0  0  0  0
  9  1  1  0  0  0  0
 11  4  1  0  0  0  0
 12  8  2  0  0  0  0
 13 18  1  0  0  0  0
 14  5  2  0  0  0  0
 15 20  1  0  0  0  0
 16 12  1  0  0  0  0
 16  5  1  0  0  0  0
 17 16  2  0  0  0  0
 18 10  2  0  0  0  0
 19 10  1  0  0  0  0
 19 20  2  0  0  0  0
 21 22  2  0  0  0  0
 22 30  1  0  0  0  0
 23 22  1  0  0  0  0
 24 27  1  6  0  0  0
 28 25  1  0  0  0  0
 28 24  1  0  0  0  0
 29 26  2  0  0  0  0
 30 25  1  0  0  0  0
 30 29  1  0  0  0  0
 31 29  1  0  0  0  0
 31 24  1  0  0  0  0
M  END
>  <MODEL>
7

>  <REMARK>
 VINA RESULT:      -8.5      2.166      4.303
  Name = 
  1 active torsions:
  status: ('A' for Active; 'I' for Inactive)
    1  A    between atoms: C_10  and  N_16
                            x       y       z     vdW  Elec       q    Type
                         _______ _______ _______ _____ _____    ______ ____

>  <TORSDO>
F 1

$$$$
=
 OpenBabel11112416563D

 31 35  0  0  1  0  0  0  0  0999 V2000
  189.7540  177.2950  146.8600 C   0  0  0  0  0  0  0  0  0  0  0  0
  188.8610  176.1710  143.3750 C   0  0  0  0  0  0  0  0  0  0  0  0
  187.7700  176.9830  142.9460 C   0  0  0  0  0  0  0  0  0  0  0  0
  186.1280  178.7610  143.2830 C   0  0  0  0  0  0  0  0  0  0  0  0
  189.5010  176.2800  144.6500 C   0  0  0  0  0  0  0  0  0  0  0  0
  190.8130  176.4360  147.1500 C   0  0  0  0  0  3  0  0  0  0  0  0
  187.1980  177.9900  143.7440 C   0  0  0  0  0  3  0  0  0  0  0  0
  190.4110  174.3450  142.8000 C   0  0  0  0  0  0  0  0  0  0  0  0
  189.3510  178.2070  147.7770 F   0  0  0  0  0  0  0  0  0  0  0  0
  187.7420  175.8170  140.8520 N   0  0  0  0  0  0  0  0  0  0  0  0
  185.4440  180.0060  144.3060 Cl  0  0  0  0  0  0  0  0  0  0  0  0
  191.0190  174.4690  144.0470 C   0  0  0  0  0  3  0  0  0  0  0  0
  189.3410  175.1890  142.4640 C   0  0  0  0  0  0  0  0  0  0  0  0
  189.1080  177.2150  145.6250 C   0  0  0  0  0  3  0  0  0  0  0  0
  185.6070  178.5400  142.0090 C   0  0  0  0  0  3  0  0  0  0  0  0
  190.5820  175.4150  144.9650 C   0  0  0  0  0  0  0  0  0  0  0  0
  191.2250  175.4990  146.2030 C   0  0  0  0  0  3  0  0  0  0  0  0
  188.7600  175.0540  141.2420 N   0  0  0  0  0  0  0  0  0  0  0  0
  187.2260  176.7730  141.6550 C   0  0  0  0  0  0  0  0  0  0  0  0
  186.1550  177.5470  141.1970 C   0  0  0  0  0  3  0  0  0  0  0  0
  189.7360  171.4850  142.6620 O   0  0  0  0  0  0  0  0  0  0  0  0
  190.5260  171.9710  141.8080 C   0  0  0  0  0  0  0  0  0  0  0  0
  190.8630  173.3680  141.8470 N   0  0  0  0  0  2  0  0  0  0  0  0
  192.1940  169.5550  138.6450 C   0  0  1  0  0  3  0  0  0  0  0  0
  191.9170  171.7610  139.7460 C   0  0  0  0  0  2  0  0  0  0  0  0
  190.6020  169.0980  141.8530 O   0  0  0  0  0  0  0  0  0  0  0  0
  192.2280  168.8900  137.4210 O   0  0  0  0  0  1  0  0  0  0  0  0
  191.8280  171.0140  138.4210 C   0  0  0  0  0  2  0  0  0  0  0  0
  190.9490  169.6970  140.8010 C   0  0  0  0  0  0  0  0  0  0  0  0
  191.0780  171.1350  140.7730 N   0  0  0  0  0  0  0  0  0  0  0  0
  191.1660  168.8940  139.5530 C   0  0  0  0  0  2  0  0  0  0  0  0
  1  6  1  0  0  0  0
  1  9  1  0  0  0  0
  2  5  1  0  0  0  0
  3  2  1  0  0  0  0
  3  7  2  0  0  0  0
  4  7  1  0  0  0  0
  4 11  1  0  0  0  0
  5 16  2  0  0  0  0
  5 14  1  0  0  0  0
  8 12  2  0  0  0  0
 10 18  2  0  0  0  0
 10 19  1  0  0  0  0
 12 16  1  0  0  0  0
 13  8  1  0  0  0  0
 13  2  2  0  0  0  0
 14  1  2  0  0  0  0
 15  4  2  0  0  0  0
 16 17  1  0  0  0  0
 17  6  2  0  0  0  0
 18 13  1  0  0  0  0
 19  3  1  0  0  0  0
 20 19  2  0  0  0  0
 20 15  1  0  0  0  0
 22 23  1  0  0  0  0
 22 21  2  0  0  0  0
 23  8  1  0  0  0  0
 24 27  1  6  0  0  0
 24 31  1  0  0  0  0
 25 30  1  0  0  0  0
 28 24  1  0  0  0  0
 28 25  1  0  0  0  0
 29 26  2  0  0  0  0
 30 29  1  0  0  0  0
 30 22  1  0  0  0  0
 31 29  1  0  0  0  0
M  END
>  <MODEL>
8

>  <REMARK>
 VINA RESULT:      -8.3      4.292      5.233
  Name = 
  1 active torsions:
  status: ('A' for Active; 'I' for Inactive)
    1  A    between atoms: C_10  and  N_16
                            x       y       z     vdW  Elec       q    Type
                         _______ _______ _______ _____ _____    ______ ____

>  <TORSDO>
F 1

$$$$
=
 OpenBabel11112416563D

 31 35  0  0  1  0  0  0  0  0999 V2000
  186.2070  178.2950  145.8490 C   0  0  0  0  0  0  0  0  0  0  0  0
  189.0620  176.0510  144.8390 C   0  0  0  0  0  0  0  0  0  0  0  0
  190.0830  176.2150  145.8210 C   0  0  0  0  0  0  0  0  0  0  0  0
  190.9870  177.2080  147.8630 C   0  0  0  0  0  0  0  0  0  0  0  0
  187.8030  176.7320  144.8560 C   0  0  0  0  0  0  0  0  0  0  0  0
  185.2960  178.0400  144.8250 C   0  0  0  0  0  3  0  0  0  0  0  0
  189.9600  177.0770  146.9250 C   0  0  0  0  0  3  0  0  0  0  0  0
  188.3730  174.9190  142.7620 C   0  0  0  0  0  0  0  0  0  0  0  0
  185.8910  179.1720  146.8320 F   0  0  0  0  0  0  0  0  0  0  0  0
  191.4510  174.6390  144.6430 N   0  0  0  0  0  0  0  0  0  0  0  0
  190.7950  178.2910  149.2240 Cl  0  0  0  0  0  0  0  0  0  0  0  0
  187.1550  175.5940  142.8000 C   0  0  0  0  0  3  0  0  0  0  0  0
  189.3210  175.1450  143.7740 C   0  0  0  0  0  0  0  0  0  0  0  0
  187.4430  177.6480  145.8620 C   0  0  0  0  0  3  0  0  0  0  0  0
  192.1640  176.4750  147.7140 C   0  0  0  0  0  3  0  0  0  0  0  0
  186.8620  176.4860  143.8220 C   0  0  0  0  0  0  0  0  0  0  0  0
  185.6250  177.1370  143.8140 C   0  0  0  0  0  3  0  0  0  0  0  0
  190.5050  174.4780  143.7210 N   0  0  0  0  0  0  0  0  0  0  0  0
  191.2860  175.4800  145.6870 C   0  0  0  0  0  0  0  0  0  0  0  0
  192.3130  175.6130  146.6270 C   0  0  0  0  0  3  0  0  0  0  0  0
  188.1840  175.3410  139.8560 O   0  0  0  0  0  0  0  0  0  0  0  0
  188.5660  174.2210  140.2910 C   0  0  0  0  0  0  0  0  0  0  0  0
  188.6790  173.9940  141.7060 N   0  0  0  0  0  2  0  0  0  0  0  0
  189.6810  171.0260  137.6140 C   0  0  1  0  0  3  0  0  0  0  0  0
  189.4470  171.9160  139.9180 C   0  0  0  0  0  2  0  0  0  0  0  0
  187.8230  174.1200  137.5160 O   0  0  0  0  0  0  0  0  0  0  0  0
  190.5030  170.3030  136.7500 O   0  0  0  0  0  1  0  0  0  0  0  0
  190.3970  171.2380  138.9380 C   0  0  0  0  0  2  0  0  0  0  0  0
  188.6310  173.2600  137.9590 C   0  0  0  0  0  0  0  0  0  0  0  0
  188.9170  173.1700  139.3720 N   0  0  0  0  0  0  0  0  0  0  0  0
  189.3410  172.3700  136.9850 C   0  0  0  0  0  2  0  0  0  0  0  0
  1 14  1  0  0  0  0
  1  9  1  0  0  0  0
  2  5  1  0  0  0  0
  2  3  1  0  0  0  0
  3  7  1  0  0  0  0
  4 11  1  0  0  0  0
  5 14  2  0  0  0  0
  6  1  2  0  0  0  0
  7  4  2  0  0  0  0
  8 12  2  0  0  0  0
  8 13  1  0  0  0  0
 10 19  1  0  0  0  0
 12 16  1  0  0  0  0
 13  2  2  0  0  0  0
 15  4  1  0  0  0  0
 16  5  1  0  0  0  0
 17 16  2  0  0  0  0
 17  6  1  0  0  0  0
 18 13  1  0  0  0  0
 18 10  2  0  0  0  0
 19  3  2  0  0  0  0
 19 20  1  0  0  0  0
 20 15  2  0  0  0  0
 21 22  2  0  0  0  0
 22 23  1  0  0  0  0
 23  8  1  0  0  0  0
 24 27  1  6  0  0  0
 24 28  1  0  0  0  0
 26 29  2  0  0  0  0
 28 25  1  0  0  0  0
 29 30  1  0  0  0  0
 30 25  1  0  0  0  0
 30 22  1  0  0  0  0
 31 24  1  0  0  0  0
 31 29  1  0  0  0  0
M  END
>  <MODEL>
9

>  <REMARK>
 VINA RESULT:      -8.1      4.514      6.634
  Name = 
  1 active torsions:
  status: ('A' for Active; 'I' for Inactive)
    1  A    between atoms: C_10  and  N_16
                            x       y       z     vdW  Elec       q    Type
                         _______ _______ _______ _____ _____    ______ ____

>  <TORSDO>
F 1

$$$$
