=
 OpenBabel11112417393D

 28 32  0  0  1  0  0  0  0  0999 V2000
  191.1450  174.3230  143.0540 C   0  0  0  0  0  0  0  0  0  0  0  0
  187.9630  178.1260  143.9860 F   0  0  0  0  0  0  0  0  0  0  0  0
  193.1230  175.6910  146.9150 O   0  0  0  0  0  0  0  0  0  0  0  0
  190.2500  172.1640  144.5940 C   0  0  0  0  0  3  0  0  0  0  0  0
  190.8160  176.2580  147.3340 C   0  0  2  0  0  3  0  0  0  0  0  0
  191.6190  175.4190  142.3320 O   0  0  0  0  0  0  0  0  0  0  0  0
  186.4810  176.4660  143.2090 C   0  0  0  0  0  1  0  0  0  0  0  0
  187.2590  177.0030  144.3940 C   0  0  1  0  0  0  0  0  0  0  0  0
  187.0570  177.6900  146.7290 C   0  0  1  0  0  3  0  0  0  0  0  0
  188.2080  175.8950  144.9200 C   0  0  2  0  0  3  0  0  0  0  0  0
  193.9490  174.8940  144.2520 O   0  0  0  0  0  1  0  0  0  0  0  0
  190.4120  176.8700  144.9790 C   0  0  1  0  0  3  0  0  0  0  0  0
  187.6000  176.4750  147.1860 O   0  0  0  0  0  0  0  0  0  0  0  0
  186.2750  177.4230  145.4640 C   0  0  0  0  0  2  0  0  0  0  0  0
  193.6620  176.0420  143.5100 C   0  0  2  0  0  3  0  0  0  0  0  0
  190.1030  174.5130  143.9750 C   0  0  0  0  0  0  0  0  0  0  0  0
  192.0100  176.0870  146.4780 C   0  0  0  0  0  0  0  0  0  0  0  0
  186.1300  178.2530  147.7850 C   0  0  0  0  0  1  0  0  0  0  0  0
  192.8620  177.0630  144.3300 C   0  0  0  0  0  2  0  0  0  0  0  0
  189.6700  173.4250  144.7520 C   0  0  0  0  0  3  0  0  0  0  0  0
  191.7280  173.0570  142.9020 C   0  0  0  0  0  3  0  0  0  0  0  0
  191.2770  171.9790  143.6660 C   0  0  0  0  0  3  0  0  0  0  0  0
  193.0070  175.6820  142.1750 C   0  0  0  0  0  2  0  0  0  0  0  0
  189.7940  176.8890  146.3890 C   0  0  1  0  0  3  0  0  0  0  0  0
  191.7990  176.4460  145.1230 N   0  0  0  0  0  0  0  0  0  0  0  0
  188.5960  176.0530  146.3340 N   0  0  2  0  0  0  0  0  0  0  0  0
  191.1000  177.1490  148.3690 O   0  0  0  0  0  1  0  0  0  0  0  0
  189.5290  175.9060  144.1570 C   0  0  1  0  0  3  0  0  0  0  0  0
  1 16  1  0  0  0  0
  2  8  1  0  0  0  0
  4 20  1  0  0  0  0
  5 27  1  1  0  0  0
  6  1  1  0  0  0  0
  8  7  1  6  0  0  0
  8 10  1  0  0  0  0
  8 14  1  0  0  0  0
  9 13  1  0  0  0  0
  9 18  1  1  0  0  0
 10 26  1  0  0  0  0
 12 25  1  0  0  0  0
 12 24  1  0  0  0  0
 14  9  1  0  0  0  0
 15 11  1  0  0  0  0
 15 19  1  0  0  0  0
 16 28  1  0  0  0  0
 16 20  2  0  0  0  0
 17  3  2  0  0  0  0
 17  5  1  0  0  0  0
 19 25  1  0  0  0  0
 21  1  2  0  0  0  0
 21 22  1  0  0  0  0
 22  4  2  0  0  0  0
 23  6  1  0  0  0  0
 23 15  1  0  0  0  0
 24  5  1  0  0  0  0
 25 17  1  0  0  0  0
 26 24  1  0  0  0  0
 26 13  1  0  0  0  0
 28 10  1  0  0  0  0
 28 12  1  0  0  0  0
M  END
>  <MODEL>
1

>  <REMARK>
 VINA RESULT:      -8.4      0.000      0.000
  Name = 
  0 active torsions:
  status: ('A' for Active; 'I' for Inactive)
                            x       y       z     vdW  Elec       q    Type
                         _______ _______ _______ _____ _____    ______ ____

>  <TORSDO>
F 0

$$$$
=
 OpenBabel11112417393D

 28 32  0  0  1  0  0  0  0  0999 V2000
  191.6350  174.2130  143.2110 C   0  0  0  0  0  0  0  0  0  0  0  0
  188.8560  178.3030  142.2130 F   0  0  0  0  0  0  0  0  0  0  0  0
  192.0210  176.0930  147.3350 O   0  0  0  0  0  0  0  0  0  0  0  0
  189.9260  172.4030  144.4910 C   0  0  0  0  0  3  0  0  0  0  0  0
  189.8350  176.8600  146.6630 C   0  0  2  0  0  3  0  0  0  0  0  0
  192.4960  175.1400  142.6230 O   0  0  0  0  0  0  0  0  0  0  0  0
  187.6250  176.6280  141.1030 C   0  0  0  0  0  1  0  0  0  0  0  0
  187.9120  177.3100  142.4260 C   0  0  1  0  0  0  0  0  0  0  0  0
  186.8630  178.3940  144.3480 C   0  0  1  0  0  3  0  0  0  0  0  0
  188.4160  176.2520  143.4420 C   0  0  2  0  0  3  0  0  0  0  0  0
  193.7540  174.8080  145.3980 O   0  0  0  0  0  1  0  0  0  0  0  0
  190.5070  177.0880  144.3010 C   0  0  1  0  0  3  0  0  0  0  0  0
  187.0150  177.2430  145.1430 O   0  0  0  0  0  0  0  0  0  0  0  0
  186.6380  177.9650  142.9170 C   0  0  0  0  0  2  0  0  0  0  0  0
  193.9420  175.8290  144.4640 C   0  0  2  0  0  3  0  0  0  0  0  0
  190.3420  174.6180  143.5720 C   0  0  0  0  0  0  0  0  0  0  0  0
  191.2420  176.4750  146.4220 C   0  0  0  0  0  0  0  0  0  0  0  0
  185.6640  179.1830  144.8310 C   0  0  0  0  0  1  0  0  0  0  0  0
  193.0120  177.0200  144.7300 C   0  0  0  0  0  2  0  0  0  0  0  0
  189.4960  173.7060  144.2260 C   0  0  0  0  0  3  0  0  0  0  0  0
  192.0660  172.9060  143.4840 C   0  0  0  0  0  3  0  0  0  0  0  0
  191.2100  172.0030  144.1170 C   0  0  0  0  0  3  0  0  0  0  0  0
  193.8490  175.2880  143.0350 C   0  0  0  0  0  2  0  0  0  0  0  0
  189.3760  177.3830  145.3020 C   0  0  1  0  0  3  0  0  0  0  0  0
  191.6490  176.6120  145.0710 N   0  0  0  0  0  0  0  0  0  0  0  0
  188.2090  176.6240  144.8540 N   0  0  2  0  0  0  0  0  0  0  0  0
  189.7810  177.8950  147.5970 O   0  0  0  0  0  1  0  0  0  0  0  0
  189.9230  176.0550  143.3140 C   0  0  1  0  0  3  0  0  0  0  0  0
  1 21  2  0  0  0  0
  1 16  1  0  0  0  0
  2  8  1  0  0  0  0
  5 27  1  1  0  0  0
  6 23  1  0  0  0  0
  6  1  1  0  0  0  0
  8  7  1  6  0  0  0
  8 14  1  0  0  0  0
  8 10  1  0  0  0  0
  9 18  1  1  0  0  0
  9 13  1  0  0  0  0
 10 26  1  0  0  0  0
 12 25  1  0  0  0  0
 12 24  1  0  0  0  0
 14  9  1  0  0  0  0
 15 19  1  0  0  0  0
 15 11  1  0  0  0  0
 16 20  2  0  0  0  0
 17  5  1  0  0  0  0
 17  3  2  0  0  0  0
 19 25  1  0  0  0  0
 20  4  1  0  0  0  0
 21 22  1  0  0  0  0
 22  4  2  0  0  0  0
 23 15  1  0  0  0  0
 24  5  1  0  0  0  0
 25 17  1  0  0  0  0
 26 13  1  0  0  0  0
 26 24  1  0  0  0  0
 28 10  1  0  0  0  0
 28 16  1  0  0  0  0
 28 12  1  0  0  0  0
M  END
>  <MODEL>
2

>  <REMARK>
 VINA RESULT:      -8.1      1.357      1.513
  Name = 
  0 active torsions:
  status: ('A' for Active; 'I' for Inactive)
                            x       y       z     vdW  Elec       q    Type
                         _______ _______ _______ _____ _____    ______ ____

>  <TORSDO>
F 0

$$$$
=
 OpenBabel11112417393D

 28 32  0  0  1  0  0  0  0  0999 V2000
  190.1240  175.5290  144.0170 C   0  0  0  0  0  0  0  0  0  0  0  0
  185.4640  176.0550  145.8770 F   0  0  0  0  0  0  0  0  0  0  0  0
  188.0380  176.0010  140.0020 O   0  0  0  0  0  0  0  0  0  0  0  0
  191.0650  178.1190  143.5290 C   0  0  0  0  0  3  0  0  0  0  0  0
  186.6390  177.3510  141.4300 C   0  0  2  0  0  3  0  0  0  0  0  0
  189.6290  174.2380  144.2090 O   0  0  0  0  0  0  0  0  0  0  0  0
  186.7210  177.3230  147.4170 C   0  0  0  0  0  1  0  0  0  0  0  0
  186.0350  177.3050  146.0650 C   0  0  1  0  0  0  0  0  0  0  0  0
  184.4410  178.5030  144.6530 C   0  0  1  0  0  3  0  0  0  0  0  0
  187.0790  177.6270  144.9640 C   0  0  2  0  0  3  0  0  0  0  0  0
  190.0590  174.2850  141.1760 O   0  0  0  0  0  1  0  0  0  0  0  0
  186.9310  175.8380  143.3550 C   0  0  1  0  0  3  0  0  0  0  0  0
  185.4740  179.0810  143.8920 O   0  0  0  0  0  0  0  0  0  0  0  0
  184.9260  178.3350  146.0750 C   0  0  0  0  0  2  0  0  0  0  0  0
  189.2820  173.4120  141.9410 C   0  0  2  0  0  3  0  0  0  0  0  0
  189.2550  176.6200  144.1610 C   0  0  0  0  0  0  0  0  0  0  0  0
  187.5150  176.1980  141.1320 C   0  0  0  0  0  0  0  0  0  0  0  0
  183.2340  179.4160  144.6380 C   0  0  0  0  0  1  0  0  0  0  0  0
  187.8180  173.8700  142.0130 C   0  0  0  0  0  2  0  0  0  0  0  0
  189.7340  177.9160  143.9010 C   0  0  0  0  0  3  0  0  0  0  0  0
  191.4590  175.7360  143.6380 C   0  0  0  0  0  3  0  0  0  0  0  0
  191.9290  177.0290  143.4000 C   0  0  0  0  0  3  0  0  0  0  0  0
  189.9160  173.1730  143.3120 C   0  0  0  0  0  2  0  0  0  0  0  0
  186.1480  177.0620  142.8490 C   0  0  1  0  0  3  0  0  0  0  0  0
  187.6850  175.3110  142.2240 N   0  0  0  0  0  0  0  0  0  0  0  0
  186.4990  178.1780  143.7250 N   0  0  2  0  0  0  0  0  0  0  0  0
  185.5500  177.3570  140.5570 O   0  0  0  0  0  1  0  0  0  0  0  0
  187.8020  176.3600  144.5180 C   0  0  1  0  0  3  0  0  0  0  0  0
  1 16  1  0  0  0  0
  1  6  1  0  0  0  0
  2  8  1  0  0  0  0
  3 17  2  0  0  0  0
  4 20  1  0  0  0  0
  5 27  1  6  0  0  0
  5 24  1  0  0  0  0
  8 14  1  0  0  0  0
  8  7  1  1  0  0  0
  9 18  1  1  0  0  0
  9 14  1  0  0  0  0
 10  8  1  0  0  0  0
 11 15  1  0  0  0  0
 12 28  1  0  0  0  0
 13  9  1  0  0  0  0
 15 19  1  0  0  0  0
 15 23  1  0  0  0  0
 16 28  1  0  0  0  0
 17  5  1  0  0  0  0
 17 25  1  0  0  0  0
 19 25  1  0  0  0  0
 20 16  2  0  0  0  0
 21  1  2  0  0  0  0
 22  4  2  0  0  0  0
 22 21  1  0  0  0  0
 23  6  1  0  0  0  0
 24 12  1  0  0  0  0
 24 26  1  0  0  0  0
 25 12  1  0  0  0  0
 26 13  1  0  0  0  0
 26 10  1  0  0  0  0
 28 10  1  0  0  0  0
M  END
>  <MODEL>
3

>  <REMARK>
 VINA RESULT:      -8.0      2.745      4.907
  Name = 
  0 active torsions:
  status: ('A' for Active; 'I' for Inactive)
                            x       y       z     vdW  Elec       q    Type
                         _______ _______ _______ _____ _____    ______ ____

>  <TORSDO>
F 0

$$$$
=
 OpenBabel11112417393D

 28 32  0  0  1  0  0  0  0  0999 V2000
  190.5470  174.3970  143.6700 C   0  0  0  0  0  0  0  0  0  0  0  0
  186.2640  176.2570  145.5800 F   0  0  0  0  0  0  0  0  0  0  0  0
  188.4040  174.8970  139.6880 O   0  0  0  0  0  0  0  0  0  0  0  0
  192.0500  176.6050  142.8320 C   0  0  0  0  0  3  0  0  0  0  0  0
  187.4540  176.7040  140.9730 C   0  0  2  0  0  3  0  0  0  0  0  0
  189.7700  173.2980  144.0380 O   0  0  0  0  0  0  0  0  0  0  0  0
  187.8740  177.3480  146.9110 C   0  0  0  0  0  1  0  0  0  0  0  0
  187.1270  177.3420  145.5920 C   0  0  1  0  0  0  0  0  0  0  0  0
  185.7860  178.7220  144.0860 C   0  0  1  0  0  3  0  0  0  0  0  0
  188.1510  177.2700  144.4300 C   0  0  2  0  0  3  0  0  0  0  0  0
  190.0210  172.8870  141.0110 O   0  0  0  0  0  1  0  0  0  0  0  0
  187.4880  175.3980  143.0640 C   0  0  1  0  0  3  0  0  0  0  0  0
  186.8810  178.9380  143.2290 O   0  0  0  0  0  0  0  0  0  0  0  0
  186.2980  178.6070  145.5030 C   0  0  0  0  0  2  0  0  0  0  0  0
  189.1040  172.3250  141.9020 C   0  0  2  0  0  3  0  0  0  0  0  0
  189.9730  175.6770  143.6990 C   0  0  0  0  0  0  0  0  0  0  0  0
  188.0110  175.3450  140.7980 C   0  0  0  0  0  0  0  0  0  0  0  0
  184.8340  179.8950  143.9890 C   0  0  0  0  0  1  0  0  0  0  0  0
  187.7990  173.1310  141.9570 C   0  0  0  0  0  2  0  0  0  0  0  0
  190.7320  176.7770  143.2640 C   0  0  0  0  0  3  0  0  0  0  0  0
  191.8680  174.2270  143.2300 C   0  0  0  0  0  3  0  0  0  0  0  0
  192.6190  175.3300  142.8180 C   0  0  0  0  0  3  0  0  0  0  0  0
  189.7420  172.0990  143.2740 C   0  0  0  0  0  2  0  0  0  0  0  0
  186.9910  176.7100  142.4300 C   0  0  1  0  0  3  0  0  0  0  0  0
  188.0260  174.5760  141.9880 N   0  0  0  0  0  0  0  0  0  0  0  0
  187.6490  177.8000  143.1490 N   0  0  2  0  0  0  0  0  0  0  0  0
  186.3500  176.8740  140.1380 O   0  0  0  0  0  1  0  0  0  0  0  0
  188.5240  175.8220  144.1270 C   0  0  1  0  0  3  0  0  0  0  0  0
  1 16  1  0  0  0  0
  1  6  1  0  0  0  0
  2  8  1  0  0  0  0
  3 17  2  0  0  0  0
  4 20  1  0  0  0  0
  5 27  1  6  0  0  0
  5 24  1  0  0  0  0
  8  7  1  1  0  0  0
  9 18  1  1  0  0  0
  9 14  1  0  0  0  0
 10  8  1  0  0  0  0
 11 15  1  0  0  0  0
 12 28  1  0  0  0  0
 13  9  1  0  0  0  0
 14  8  1  0  0  0  0
 15 19  1  0  0  0  0
 15 23  1  0  0  0  0
 16 28  1  0  0  0  0
 17  5  1  0  0  0  0
 17 25  1  0  0  0  0
 19 25  1  0  0  0  0
 20 16  2  0  0  0  0
 21  1  2  0  0  0  0
 22  4  2  0  0  0  0
 22 21  1  0  0  0  0
 23  6  1  0  0  0  0
 24 12  1  0  0  0  0
 24 26  1  0  0  0  0
 25 12  1  0  0  0  0
 26 13  1  0  0  0  0
 26 10  1  0  0  0  0
 28 10  1  0  0  0  0
M  END
>  <MODEL>
4

>  <REMARK>
 VINA RESULT:      -7.9      2.763      4.764
  Name = 
  0 active torsions:
  status: ('A' for Active; 'I' for Inactive)
                            x       y       z     vdW  Elec       q    Type
                         _______ _______ _______ _____ _____    ______ ____

>  <TORSDO>
F 0

$$$$
=
 OpenBabel11112417393D

 28 32  0  0  1  0  0  0  0  0999 V2000
  190.8000  174.8490  142.4750 C   0  0  0  0  0  0  0  0  0  0  0  0
  187.8020  178.8800  142.0130 F   0  0  0  0  0  0  0  0  0  0  0  0
  190.0710  175.4380  146.9260 O   0  0  0  0  0  0  0  0  0  0  0  0
  189.1020  172.6430  142.7620 C   0  0  0  0  0  3  0  0  0  0  0  0
  187.9970  176.2400  145.9920 C   0  0  2  0  0  3  0  0  0  0  0  0
  191.6430  175.9580  142.3880 O   0  0  0  0  0  0  0  0  0  0  0  0
  187.0520  177.5410  140.2250 C   0  0  0  0  0  1  0  0  0  0  0  0
  186.9670  177.8140  141.7130 C   0  0  1  0  0  0  0  0  0  0  0  0
  185.4090  178.2140  143.5520 C   0  0  1  0  0  3  0  0  0  0  0  0
  187.3750  176.5340  142.4870 C   0  0  2  0  0  3  0  0  0  0  0  0
  192.3200  174.8920  145.1800 O   0  0  0  0  0  1  0  0  0  0  0  0
  189.1160  177.1990  144.0150 C   0  0  1  0  0  3  0  0  0  0  0  0
  185.5340  176.8900  144.0110 O   0  0  0  0  0  0  0  0  0  0  0  0
  185.5460  178.2170  142.0470 C   0  0  0  0  0  2  0  0  0  0  0  0
  192.5700  176.1530  144.6360 C   0  0  2  0  0  3  0  0  0  0  0  0
  189.4190  175.0520  142.6160 C   0  0  0  0  0  0  0  0  0  0  0  0
  189.4600  176.0280  145.9960 C   0  0  0  0  0  0  0  0  0  0  0  0
  184.0470  178.7520  143.9340 C   0  0  0  0  0  1  0  0  0  0  0  0
  191.4630  177.1550  144.9910 C   0  0  0  0  0  2  0  0  0  0  0  0
  188.5770  173.9380  142.7720 C   0  0  0  0  0  3  0  0  0  0  0  0
  191.3250  173.5480  142.4710 C   0  0  0  0  0  3  0  0  0  0  0  0
  190.4760  172.4480  142.6090 C   0  0  0  0  0  3  0  0  0  0  0  0
  192.8490  176.0560  143.1340 C   0  0  0  0  0  2  0  0  0  0  0  0
  187.7720  177.1160  144.7590 C   0  0  1  0  0  3  0  0  0  0  0  0
  190.1220  176.5830  144.8720 N   0  0  0  0  0  0  0  0  0  0  0  0
  186.8310  176.4570  143.8550 N   0  0  2  0  0  0  0  0  0  0  0  0
  187.6180  176.9460  147.1340 O   0  0  0  0  0  1  0  0  0  0  0  0
  188.8880  176.4730  142.6720 C   0  0  1  0  0  3  0  0  0  0  0  0
  1 16  1  0  0  0  0
  4 20  1  0  0  0  0
  5 17  1  0  0  0  0
  5 27  1  1  0  0  0
  6  1  1  0  0  0  0
  6 23  1  0  0  0  0
  8  7  1  6  0  0  0
  8  2  1  0  0  0  0
  8 14  1  0  0  0  0
  8 10  1  0  0  0  0
  9 18  1  6  0  0  0
  9 13  1  0  0  0  0
 10 28  1  0  0  0  0
 10 26  1  0  0  0  0
 12 24  1  0  0  0  0
 12 25  1  0  0  0  0
 14  9  1  0  0  0  0
 15 19  1  0  0  0  0
 15 11  1  0  0  0  0
 16 28  1  0  0  0  0
 16 20  2  0  0  0  0
 17  3  2  0  0  0  0
 21  1  2  0  0  0  0
 21 22  1  0  0  0  0
 22  4  2  0  0  0  0
 23 15  1  0  0  0  0
 24  5  1  0  0  0  0
 25 19  1  0  0  0  0
 25 17  1  0  0  0  0
 26 13  1  0  0  0  0
 26 24  1  0  0  0  0
 28 12  1  0  0  0  0
M  END
>  <MODEL>
5

>  <REMARK>
 VINA RESULT:      -7.9      1.904      2.535
  Name = 
  0 active torsions:
  status: ('A' for Active; 'I' for Inactive)
                            x       y       z     vdW  Elec       q    Type
                         _______ _______ _______ _____ _____    ______ ____

>  <TORSDO>
F 0

$$$$
=
 OpenBabel11112417393D

 28 32  0  0  1  0  0  0  0  0999 V2000
  189.3550  176.7590  144.9440 C   0  0  0  0  0  0  0  0  0  0  0  0
  194.2960  176.2190  144.0810 F   0  0  0  0  0  0  0  0  0  0  0  0
  189.0560  172.7320  142.8500 O   0  0  0  0  0  0  0  0  0  0  0  0
  188.8040  175.2910  147.2630 C   0  0  0  0  0  3  0  0  0  0  0  0
  191.2220  172.5650  143.8990 C   0  0  2  0  0  3  0  0  0  0  0  0
  189.6240  177.4420  143.7580 O   0  0  0  0  0  0  0  0  0  0  0  0
  194.3050  177.1230  146.2580 C   0  0  0  0  0  1  0  0  0  0  0  0
  194.1570  175.8720  145.4160 C   0  0  1  0  0  0  0  0  0  0  0  0
  194.9590  173.5800  145.1450 C   0  0  1  0  0  3  0  0  0  0  0  0
  192.7720  175.2330  145.6980 C   0  0  2  0  0  3  0  0  0  0  0  0
  187.6780  175.2820  142.7920 O   0  0  0  0  0  1  0  0  0  0  0  0
  191.7100  174.9570  143.5520 C   0  0  1  0  0  3  0  0  0  0  0  0
  193.8100  173.0520  145.7630 O   0  0  0  0  0  0  0  0  0  0  0  0
  195.2750  174.9160  145.7760 C   0  0  0  0  0  2  0  0  0  0  0  0
  188.5610  176.0660  142.0480 C   0  0  2  0  0  3  0  0  0  0  0  0
  190.3560  175.9550  145.5100 C   0  0  0  0  0  0  0  0  0  0  0  0
  190.1210  173.2890  143.2260 C   0  0  0  0  0  0  0  0  0  0  0  0
  196.1220  172.6350  145.3570 C   0  0  0  0  0  1  0  0  0  0  0  0
  189.8980  175.3490  141.8130 C   0  0  0  0  0  2  0  0  0  0  0  0
  190.0650  175.2120  146.6660 C   0  0  0  0  0  3  0  0  0  0  0  0
  188.0880  176.8310  145.5420 C   0  0  0  0  0  3  0  0  0  0  0  0
  187.8160  176.1030  146.7020 C   0  0  0  0  0  3  0  0  0  0  0  0
  188.7140  177.4570  142.6660 C   0  0  0  0  0  2  0  0  0  0  0  0
  192.3220  173.6210  144.0080 C   0  0  1  0  0  3  0  0  0  0  0  0
  190.3900  174.6630  143.0080 N   0  0  0  0  0  0  0  0  0  0  0  0
  192.7030  173.7880  145.4090 N   0  0  2  0  0  0  0  0  0  0  0  0
  191.6650  171.5190  143.0900 O   0  0  0  0  0  1  0  0  0  0  0  0
  191.6990  175.8540  144.8090 C   0  0  1  0  0  3  0  0  0  0  0  0
  1 16  2  0  0  0  0
  1 21  1  0  0  0  0
  2  8  1  0  0  0  0
  3 17  2  0  0  0  0
  5 27  1  6  0  0  0
  5 24  1  0  0  0  0
  6  1  1  0  0  0  0
  8 10  1  0  0  0  0
  8 14  1  0  0  0  0
  8  7  1  1  0  0  0
  9 18  1  1  0  0  0
  9 13  1  0  0  0  0
  9 14  1  0  0  0  0
 12 24  1  0  0  0  0
 12 28  1  0  0  0  0
 15 23  1  0  0  0  0
 15 11  1  0  0  0  0
 16 20  1  0  0  0  0
 17  5  1  0  0  0  0
 19 15  1  0  0  0  0
 19 25  1  0  0  0  0
 20  4  2  0  0  0  0
 21 22  2  0  0  0  0
 22  4  1  0  0  0  0
 23  6  1  0  0  0  0
 24 26  1  0  0  0  0
 25 17  1  0  0  0  0
 25 12  1  0  0  0  0
 26 10  1  0  0  0  0
 26 13  1  0  0  0  0
 28 16  1  0  0  0  0
 28 10  1  0  0  0  0
M  END
>  <MODEL>
6

>  <REMARK>
 VINA RESULT:      -7.9      2.744      5.970
  Name = 
  0 active torsions:
  status: ('A' for Active; 'I' for Inactive)
                            x       y       z     vdW  Elec       q    Type
                         _______ _______ _______ _____ _____    ______ ____

>  <TORSDO>
F 0

$$$$
=
 OpenBabel11112417393D

 28 32  0  0  1  0  0  0  0  0999 V2000
  190.3020  176.2000  144.9950 C   0  0  0  0  0  0  0  0  0  0  0  0
  185.3520  176.7820  144.2090 F   0  0  0  0  0  0  0  0  0  0  0  0
  190.1660  173.9850  141.0240 O   0  0  0  0  0  0  0  0  0  0  0  0
  191.5660  178.2150  143.5210 C   0  0  0  0  0  3  0  0  0  0  0  0
  188.4070  175.6090  140.7260 C   0  0  2  0  0  3  0  0  0  0  0  0
  189.6690  175.1640  145.6830 O   0  0  0  0  0  0  0  0  0  0  0  0
  185.9320  178.8950  145.0760 C   0  0  0  0  0  1  0  0  0  0  0  0
  185.8880  178.0090  143.8470 C   0  0  1  0  0  0  0  0  0  0  0  0
  185.1480  177.9090  141.5210 C   0  0  1  0  0  3  0  0  0  0  0  0
  187.3220  177.8600  143.2790 C   0  0  2  0  0  3  0  0  0  0  0  0
  191.3500  173.6120  143.6440 O   0  0  0  0  0  1  0  0  0  0  0  0
  187.7300  175.4910  143.0940 C   0  0  1  0  0  3  0  0  0  0  0  0
  186.4490  178.1540  141.0450 O   0  0  0  0  0  0  0  0  0  0  0  0
  184.9670  178.6450  142.8280 C   0  0  0  0  0  2  0  0  0  0  0  0
  190.2540  173.1780  144.3920 C   0  0  2  0  0  3  0  0  0  0  0  0
  189.5450  177.0050  144.1300 C   0  0  0  0  0  0  0  0  0  0  0  0
  189.2310  174.6700  141.5180 C   0  0  0  0  0  0  0  0  0  0  0  0
  184.1400  178.4190  140.5130 C   0  0  0  0  0  1  0  0  0  0  0  0
  188.9410  173.3170  143.6090 C   0  0  0  0  0  2  0  0  0  0  0  0
  190.1920  178.0060  143.3850 C   0  0  0  0  0  3  0  0  0  0  0  0
  191.6820  176.4100  145.1250 C   0  0  0  0  0  3  0  0  0  0  0  0
  192.3110  177.4190  144.3930 C   0  0  0  0  0  3  0  0  0  0  0  0
  190.2230  173.8570  145.7630 C   0  0  0  0  0  2  0  0  0  0  0  0
  187.3380  176.0620  141.7200 C   0  0  1  0  0  3  0  0  0  0  0  0
  188.8480  174.5810  142.8790 N   0  0  0  0  0  0  0  0  0  0  0  0
  187.3710  177.5190  141.8450 N   0  0  2  0  0  0  0  0  0  0  0  0
  187.7980  174.9290  139.6710 O   0  0  0  0  0  1  0  0  0  0  0  0
  188.0630  176.7190  143.9700 C   0  0  1  0  0  3  0  0  0  0  0  0
  1 21  1  0  0  0  0
  1  6  1  0  0  0  0
  3 17  2  0  0  0  0
  4 22  1  0  0  0  0
  5 27  1  6  0  0  0
  5 17  1  0  0  0  0
  5 24  1  0  0  0  0
  6 23  1  0  0  0  0
  8  2  1  0  0  0  0
  8  7  1  1  0  0  0
  9 18  1  6  0  0  0
  9 14  1  0  0  0  0
 10  8  1  0  0  0  0
 10 28  1  0  0  0  0
 11 15  1  0  0  0  0
 12 28  1  0  0  0  0
 13  9  1  0  0  0  0
 13 26  1  0  0  0  0
 14  8  1  0  0  0  0
 15 23  1  0  0  0  0
 16  1  2  0  0  0  0
 17 25  1  0  0  0  0
 19 15  1  0  0  0  0
 20  4  2  0  0  0  0
 20 16  1  0  0  0  0
 22 21  2  0  0  0  0
 24 26  1  0  0  0  0
 24 12  1  0  0  0  0
 25 12  1  0  0  0  0
 25 19  1  0  0  0  0
 26 10  1  0  0  0  0
 28 16  1  0  0  0  0
M  END
>  <MODEL>
7

>  <REMARK>
 VINA RESULT:      -7.8      2.675      4.995
  Name = 
  0 active torsions:
  status: ('A' for Active; 'I' for Inactive)
                            x       y       z     vdW  Elec       q    Type
                         _______ _______ _______ _____ _____    ______ ____

>  <TORSDO>
F 0

$$$$
=
 OpenBabel11112417393D

 28 32  0  0  1  0  0  0  0  0999 V2000
  194.4180  174.0690  145.3590 C   0  0  0  0  0  0  0  0  0  0  0  0
  189.8750  175.0810  147.3050 F   0  0  0  0  0  0  0  0  0  0  0  0
  192.0660  173.3310  141.5360 O   0  0  0  0  0  0  0  0  0  0  0  0
  195.2540  176.4110  144.0740 C   0  0  0  0  0  3  0  0  0  0  0  0
  190.7250  175.0290  142.6020 C   0  0  2  0  0  3  0  0  0  0  0  0
  193.9730  172.8880  145.9530 O   0  0  0  0  0  0  0  0  0  0  0  0
  191.1910  176.7530  148.3170 C   0  0  0  0  0  1  0  0  0  0  0  0
  190.4210  176.3350  147.0800 C   0  0  1  0  0  0  0  0  0  0  0  0
  188.7080  177.0560  145.4950 C   0  0  1  0  0  3  0  0  0  0  0  0
  191.3830  176.3290  145.8640 C   0  0  2  0  0  3  0  0  0  0  0  0
  194.2050  172.0480  143.0150 O   0  0  0  0  0  1  0  0  0  0  0  0
  191.1820  174.1470  144.8590 C   0  0  1  0  0  3  0  0  0  0  0  0
  189.6730  177.3940  144.5290 O   0  0  0  0  0  0  0  0  0  0  0  0
  189.2870  177.3150  146.8660 C   0  0  0  0  0  2  0  0  0  0  0  0
  193.5030  171.4320  144.0530 C   0  0  2  0  0  3  0  0  0  0  0  0
  193.5300  175.1480  145.2390 C   0  0  0  0  0  0  0  0  0  0  0  0
  191.6120  173.8460  142.5930 C   0  0  0  0  0  0  0  0  0  0  0  0
  187.4780  177.9160  145.2980 C   0  0  0  0  0  1  0  0  0  0  0  0
  192.0350  171.8790  144.0910 C   0  0  0  0  0  2  0  0  0  0  0  0
  193.9550  176.3150  144.5800 C   0  0  0  0  0  3  0  0  0  0  0  0
  195.7190  174.1670  144.8450 C   0  0  0  0  0  3  0  0  0  0  0  0
  196.1370  175.3380  144.2080 C   0  0  0  0  0  3  0  0  0  0  0  0
  194.2300  171.6090  145.3880 C   0  0  0  0  0  2  0  0  0  0  0  0
  190.3340  175.1640  144.0740 C   0  0  1  0  0  3  0  0  0  0  0  0
  191.8750  173.3180  143.8810 N   0  0  0  0  0  0  0  0  0  0  0  0
  190.7100  176.4900  144.5610 N   0  0  2  0  0  0  0  0  0  0  0  0
  189.5830  174.7700  141.8440 O   0  0  0  0  0  1  0  0  0  0  0  0
  192.1110  174.9930  145.7560 C   0  0  1  0  0  3  0  0  0  0  0  0
  1  6  1  0  0  0  0
  3 17  2  0  0  0  0
  4 22  2  0  0  0  0
  4 20  1  0  0  0  0
  5 27  1  6  0  0  0
  5 24  1  0  0  0  0
  8  2  1  0  0  0  0
  8  7  1  1  0  0  0
  9 18  1  6  0  0  0
  9 14  1  0  0  0  0
 10  8  1  0  0  0  0
 11 15  1  0  0  0  0
 12 28  1  0  0  0  0
 13 26  1  0  0  0  0
 13  9  1  0  0  0  0
 14  8  1  0  0  0  0
 15 19  1  0  0  0  0
 15 23  1  0  0  0  0
 16  1  1  0  0  0  0
 16 28  1  0  0  0  0
 17  5  1  0  0  0  0
 17 25  1  0  0  0  0
 20 16  2  0  0  0  0
 21  1  2  0  0  0  0
 22 21  1  0  0  0  0
 23  6  1  0  0  0  0
 24 26  1  0  0  0  0
 24 12  1  0  0  0  0
 25 19  1  0  0  0  0
 25 12  1  0  0  0  0
 26 10  1  0  0  0  0
 28 10  1  0  0  0  0
M  END
>  <MODEL>
8

>  <REMARK>
 VINA RESULT:      -7.2      2.226      4.558
  Name = 
  0 active torsions:
  status: ('A' for Active; 'I' for Inactive)
                            x       y       z     vdW  Elec       q    Type
                         _______ _______ _______ _____ _____    ______ ____

>  <TORSDO>
F 0

$$$$
=
 OpenBabel11112417393D

 28 32  0  0  1  0  0  0  0  0999 V2000
  193.2750  175.2080  141.7380 C   0  0  0  0  0  0  0  0  0  0  0  0
  190.2420  178.6650  143.8140 F   0  0  0  0  0  0  0  0  0  0  0  0
  194.1850  174.1330  146.0630 O   0  0  0  0  0  0  0  0  0  0  0  0
  191.8310  172.8110  141.7270 C   0  0  0  0  0  3  0  0  0  0  0  0
  191.9010  174.8890  146.2290 C   0  0  2  0  0  3  0  0  0  0  0  0
  194.0100  176.3930  141.7960 O   0  0  0  0  0  0  0  0  0  0  0  0
  188.9220  177.9180  142.0100 C   0  0  0  0  0  1  0  0  0  0  0  0
  189.3740  177.6540  143.4320 C   0  0  1  0  0  0  0  0  0  0  0  0
  188.5750  177.1690  145.6900 C   0  0  1  0  0  3  0  0  0  0  0  0
  190.0540  176.2620  143.4970 C   0  0  2  0  0  3  0  0  0  0  0  0
  195.6640  174.5530  143.6050 O   0  0  0  0  0  1  0  0  0  0  0  0
  192.2170  176.6170  144.4990 C   0  0  1  0  0  3  0  0  0  0  0  0
  188.8790  175.8010  145.5570 O   0  0  0  0  0  0  0  0  0  0  0  0
  188.1620  177.7040  144.3390 C   0  0  0  0  0  2  0  0  0  0  0  0
  195.6810  175.9470  143.5170 C   0  0  2  0  0  3  0  0  0  0  0  0
  192.0330  175.1450  142.3880 C   0  0  0  0  0  0  0  0  0  0  0  0
  193.2710  174.9070  145.6730 C   0  0  0  0  0  0  0  0  0  0  0  0
  187.4320  177.3360  146.6680 C   0  0  0  0  0  1  0  0  0  0  0  0
  194.7580  176.5920  144.5610 C   0  0  0  0  0  2  0  0  0  0  0  0
  191.3230  173.9320  142.3880 C   0  0  0  0  0  3  0  0  0  0  0  0
  193.7840  174.0790  141.0800 C   0  0  0  0  0  3  0  0  0  0  0  0
  193.0610  172.8850  141.0710 C   0  0  0  0  0  3  0  0  0  0  0  0
  195.4020  176.4090  142.0850 C   0  0  0  0  0  2  0  0  0  0  0  0
  191.2320  176.0880  145.5560 C   0  0  1  0  0  3  0  0  0  0  0  0
  193.4740  175.9030  144.6860 N   0  0  0  0  0  0  0  0  0  0  0  0
  190.0400  175.6440  144.8360 N   0  0  2  0  0  0  0  0  0  0  0  0
  191.9460  175.0990  147.6070 O   0  0  0  0  0  1  0  0  0  0  0  0
  191.5330  176.3660  143.1380 C   0  0  1  0  0  3  0  0  0  0  0  0
  1  6  1  0  0  0  0
  1 16  1  0  0  0  0
  4 20  1  0  0  0  0
  5 27  1  1  0  0  0
  6 23  1  0  0  0  0
  8  7  1  6  0  0  0
  8 10  1  0  0  0  0
  8  2  1  0  0  0  0
  8 14  1  0  0  0  0
  9 18  1  1  0  0  0
 10 26  1  0  0  0  0
 12 25  1  0  0  0  0
 12 24  1  0  0  0  0
 13  9  1  0  0  0  0
 14  9  1  0  0  0  0
 15 11  1  0  0  0  0
 15 19  1  0  0  0  0
 16 28  1  0  0  0  0
 17  3  2  0  0  0  0
 17  5  1  0  0  0  0
 19 25  1  0  0  0  0
 20 16  2  0  0  0  0
 21  1  2  0  0  0  0
 22 21  1  0  0  0  0
 22  4  2  0  0  0  0
 23 15  1  0  0  0  0
 24  5  1  0  0  0  0
 25 17  1  0  0  0  0
 26 24  1  0  0  0  0
 26 13  1  0  0  0  0
 28 10  1  0  0  0  0
 28 12  1  0  0  0  0
M  END
>  <MODEL>
9

>  <REMARK>
 VINA RESULT:      -7.2      1.822      2.380
  Name = 
  0 active torsions:
  status: ('A' for Active; 'I' for Inactive)
                            x       y       z     vdW  Elec       q    Type
                         _______ _______ _______ _____ _____    ______ ____

>  <TORSDO>
F 0

$$$$
