=
 OpenBabel11112417333D

 37 43  0  0  1  0  0  0  0  0999 V2000
  193.1850  172.0830  143.3840 C   0  0  0  0  0  0  0  0  0  0  0  0
  190.4700  173.9410  141.3890 C   0  0  1  0  0  3  0  0  0  0  0  0
  189.8070  177.0820  141.9410 O   0  0  0  0  0  0  0  0  0  0  0  0
  192.3320  172.1860  141.0220 C   0  0  2  0  0  3  0  0  0  0  0  0
  190.3270  174.8220  142.6300 C   0  0  2  0  0  3  0  0  0  0  0  0
  191.9630  173.6390  141.3390 C   0  0  2  0  0  3  0  0  0  0  0  0
  189.2510  175.9120  142.4790 C   0  0  2  0  0  3  0  0  0  0  0  0
  191.3570  171.6150  140.0920 N   0  0  0  0  0  2  0  0  0  0  0  0
  192.5310  174.1830  142.6470 C   0  0  2  0  0  3  0  0  0  0  0  0
  194.4860  172.4270  143.0410 F   0  0  0  0  0  0  0  0  0  0  0  0
  188.1290  173.0140  141.1920 C   0  0  0  0  0  2  0  0  0  0  0  0
  190.0280  171.4850  140.7060 C   0  0  0  0  0  2  0  0  0  0  0  0
  192.4080  173.2210  143.6830 O   0  0  0  0  0  0  0  0  0  0  0  0
  190.1700  177.8930  144.2400 C   0  0  0  0  0  2  0  0  0  0  0  0
  189.5440  178.1190  142.8560 C   0  0  0  0  0  2  0  0  0  0  0  0
  189.5810  172.6980  141.5440 C   0  0  1  0  0  3  0  0  0  0  0  0
  191.6700  175.3410  142.9250 N   0  0  2  0  0  0  0  0  0  0  0  0
  192.5210  171.3020  142.2570 C   0  0  0  0  0  2  0  0  0  0  0  0
  187.9990  175.4700  141.6930 C   0  0  1  0  0  3  0  0  0  0  0  0
  193.2310  171.2750  144.5030 F   0  0  0  0  0  0  0  0  0  0  0  0
  191.6210  177.4600  144.1410 C   0  0  0  0  0  2  0  0  0  0  0  0
  191.7620  175.9430  144.2770 C   0  0  2  0  0  3  0  0  0  0  0  0
  187.5160  174.0780  142.0980 C   0  0  0  0  0  2  0  0  0  0  0  0
  186.5340  177.2870  140.6020 C   0  0  0  0  0  2  0  0  0  0  0  0
  186.8890  176.4710  141.8200 C   0  0  0  0  0  0  0  0  0  0  0  0
  186.2460  176.6280  142.9840 C   0  0  0  0  0  3  0  0  0  0  0  0
  184.5640  177.7610  144.1910 O   0  0  0  0  0  0  0  0  0  0  0  0
  184.8190  178.4130  141.9680 N   0  0  0  0  0  0  0  0  0  0  0  0
  185.1720  177.6140  143.0990 C   0  0  0  0  0  0  0  0  0  0  0  0
  185.4230  178.2850  140.8260 C   0  0  0  0  0  3  0  0  0  0  0  0
  193.1040  175.6790  144.9810 C   0  0  1  0  0  3  0  0  0  0  0  0
  194.2220  176.3260  144.2210 N   0  0  0  0  0  0  0  0  0  0  0  0
  193.6280  176.8550  145.4800 C   0  0  2  0  0  3  0  0  0  0  0  0
  194.5680  176.5620  146.6320 C   0  0  0  0  0  2  0  0  0  0  0  0
  195.1010  175.2830  146.4850 O   0  0  0  0  0  1  0  0  0  0  0  0
  196.4540  176.4200  143.3910 C   0  0  0  0  0  2  0  0  0  0  0  0
  195.1530  176.3950  143.1460 C   0  0  0  0  0  3  0  0  0  0  0  0
  1 13  1  0  0  0  0
  1 20  1  0  0  0  0
  2 16  1  0  0  0  0
  2  5  1  0  0  0  0
  3  7  1  0  0  0  0
  3 15  1  0  0  0  0
  4  6  1  0  0  0  0
  4 18  1  0  0  0  0
  5 17  1  0  0  0  0
  6  2  1  0  0  0  0
  6  9  1  0  0  0  0
  7  5  1  0  0  0  0
  8 12  1  0  0  0  0
  8  4  1  0  0  0  0
  9 17  1  0  0  0  0
  9 13  1  0  0  0  0
 10  1  1  0  0  0  0
 11 16  1  0  0  0  0
 11 23  1  0  0  0  0
 12 16  1  0  0  0  0
 15 14  1  0  0  0  0
 17 22  1  0  0  0  0
 18  1  1  0  0  0  0
 19 25  1  0  0  0  0
 19 23  1  0  0  0  0
 19  7  1  0  0  0  0
 21 14  1  0  0  0  0
 21 22  1  0  0  0  0
 22 31  1  0  0  0  0
 24 30  1  0  0  0  0
 24 25  1  0  0  0  0
 25 26  2  0  0  0  0
 26 29  1  0  0  0  0
 28 29  1  0  0  0  0
 29 27  2  0  0  0  0
 30 28  2  0  0  0  0
 31 33  1  0  0  0  0
 32 31  1  0  0  0  0
 32 33  1  0  0  0  0
 33 34  1  0  0  0  0
 35 34  1  0  0  0  0
 37 36  2  0  0  0  0
 37 32  1  0  0  0  0
M  END
>  <MODEL>
1

>  <REMARK>
 VINA RESULT:      -7.6      0.000      0.000
  Name = 
  4 active torsions:
  status: ('A' for Active; 'I' for Inactive)
    1  A    between atoms: C_1  and  C_27
    2  A    between atoms: N_4  and  C_37
    3  A    between atoms: C_8  and  C_12
    4  A    between atoms: C_23  and  C_30
                            x       y       z     vdW  Elec       q    Type
                         _______ _______ _______ _____ _____    ______ ____

>  <TORSDO>
F 4

$$$$
=
 OpenBabel11112417333D

 37 43  0  0  1  0  0  0  0  0999 V2000
  194.4340  173.9620  143.4730 C   0  0  0  0  0  0  0  0  0  0  0  0
  191.0410  175.1070  144.8800 C   0  0  1  0  0  3  0  0  0  0  0  0
  188.2830  174.7190  143.1910 O   0  0  0  0  0  0  0  0  0  0  0  0
  193.2300  173.9880  145.6790 C   0  0  2  0  0  3  0  0  0  0  0  0
  190.6260  175.2790  143.4190 C   0  0  2  0  0  3  0  0  0  0  0  0
  191.9450  173.8810  144.8500 C   0  0  2  0  0  3  0  0  0  0  0  0
  189.1840  175.7920  143.2550 C   0  0  2  0  0  3  0  0  0  0  0  0
  192.9830  174.7850  146.8810 N   0  0  0  0  0  2  0  0  0  0  0  0
  192.1510  173.5650  143.3700 C   0  0  2  0  0  3  0  0  0  0  0  0
  194.6190  172.5860  143.4700 F   0  0  0  0  0  0  0  0  0  0  0  0
  190.7110  177.4570  145.7450 C   0  0  0  0  0  2  0  0  0  0  0  0
  192.6900  176.1880  146.5550 C   0  0  0  0  0  2  0  0  0  0  0  0
  193.2260  174.3250  142.8420 O   0  0  0  0  0  0  0  0  0  0  0  0
  188.4820  174.7770  140.7350 C   0  0  0  0  0  2  0  0  0  0  0  0
  187.5810  174.8440  141.9770 C   0  0  0  0  0  2  0  0  0  0  0  0
  191.7350  176.3900  145.3640 C   0  0  1  0  0  3  0  0  0  0  0  0
  190.8820  173.9880  142.7630 N   0  0  2  0  0  0  0  0  0  0  0  0
  194.4410  174.5030  144.8970 C   0  0  0  0  0  2  0  0  0  0  0  0
  188.7500  176.8290  144.3110 C   0  0  1  0  0  3  0  0  0  0  0  0
  195.4810  174.5420  142.7840 F   0  0  0  0  0  0  0  0  0  0  0  0
  189.4620  173.6210  140.8080 C   0  0  0  0  0  2  0  0  0  0  0  0
  190.8400  174.0860  141.2840 C   0  0  2  0  0  3  0  0  0  0  0  0
  189.8280  177.8800  144.5760 C   0  0  0  0  0  2  0  0  0  0  0  0
  187.3590  178.1300  142.5750 C   0  0  0  0  0  2  0  0  0  0  0  0
  187.4550  177.4860  143.9360 C   0  0  0  0  0  0  0  0  0  0  0  0
  186.4280  177.4990  144.7950 C   0  0  0  0  0  3  0  0  0  0  0  0
  184.2040  178.1640  145.2260 O   0  0  0  0  0  0  0  0  0  0  0  0
  185.0520  178.7830  143.1460 N   0  0  0  0  0  0  0  0  0  0  0  0
  185.1730  178.1530  144.4230 C   0  0  0  0  0  0  0  0  0  0  0  0
  186.0300  178.7870  142.2920 C   0  0  0  0  0  3  0  0  0  0  0  0
  191.8800  173.2000  140.5770 C   0  0  1  0  0  3  0  0  0  0  0  0
  191.7170  173.2970  139.0900 N   0  0  0  0  0  0  0  0  0  0  0  0
  192.7830  173.9770  139.8780 C   0  0  2  0  0  3  0  0  0  0  0  0
  194.0880  173.2300  139.6950 C   0  0  0  0  0  2  0  0  0  0  0  0
  194.0340  172.0230  140.3880 O   0  0  0  0  0  1  0  0  0  0  0  0
  190.4910  173.9370  137.1510 C   0  0  0  0  0  2  0  0  0  0  0  0
  191.0710  172.9830  137.8610 C   0  0  0  0  0  3  0  0  0  0  0  0
  1 18  1  0  0  0  0
  2 16  1  0  0  0  0
  3  7  1  0  0  0  0
  4  8  1  0  0  0  0
  5  2  1  0  0  0  0
  6  2  1  0  0  0  0
  6  4  1  0  0  0  0
  7  5  1  0  0  0  0
  7 19  1  0  0  0  0
  9  6  1  0  0  0  0
 10  1  1  0  0  0  0
 12  8  1  0  0  0  0
 13  9  1  0  0  0  0
 13  1  1  0  0  0  0
 14 21  1  0  0  0  0
 14 15  1  0  0  0  0
 15  3  1  0  0  0  0
 16 11  1  0  0  0  0
 16 12  1  0  0  0  0
 17  9  1  0  0  0  0
 17  5  1  0  0  0  0
 18  4  1  0  0  0  0
 19 23  1  0  0  0  0
 20  1  1  0  0  0  0
 21 22  1  0  0  0  0
 22 17  1  0  0  0  0
 23 11  1  0  0  0  0
 24 25  1  0  0  0  0
 25 19  1  0  0  0  0
 25 26  2  0  0  0  0
 28 29  1  0  0  0  0
 29 26  1  0  0  0  0
 29 27  2  0  0  0  0
 30 24  1  0  0  0  0
 30 28  2  0  0  0  0
 31 22  1  0  0  0  0
 32 33  1  0  0  0  0
 32 31  1  0  0  0  0
 33 31  1  0  0  0  0
 34 33  1  0  0  0  0
 34 35  1  0  0  0  0
 36 37  2  0  0  0  0
 37 32  1  0  0  0  0
M  END
>  <MODEL>
2

>  <REMARK>
 VINA RESULT:      -7.5      1.953      4.687
  Name = 
  4 active torsions:
  status: ('A' for Active; 'I' for Inactive)
    1  A    between atoms: C_1  and  C_27
    2  A    between atoms: N_4  and  C_37
    3  A    between atoms: C_8  and  C_12
    4  A    between atoms: C_23  and  C_30
                            x       y       z     vdW  Elec       q    Type
                         _______ _______ _______ _____ _____    ______ ____

>  <TORSDO>
F 4

$$$$
=
 OpenBabel11112417333D

 37 43  0  0  1  0  0  0  0  0999 V2000
  194.2970  174.2910  143.3170 C   0  0  0  0  0  0  0  0  0  0  0  0
  190.9430  175.1870  144.9750 C   0  0  1  0  0  3  0  0  0  0  0  0
  188.1210  174.8720  143.3790 O   0  0  0  0  0  0  0  0  0  0  0  0
  193.1970  174.0680  145.5650 C   0  0  2  0  0  3  0  0  0  0  0  0
  190.4550  175.4840  143.5570 C   0  0  2  0  0  3  0  0  0  0  0  0
  191.8790  173.9990  144.7870 C   0  0  2  0  0  3  0  0  0  0  0  0
  188.9940  175.9640  143.5060 C   0  0  2  0  0  3  0  0  0  0  0  0
  192.9840  174.7370  146.8490 N   0  0  0  0  0  2  0  0  0  0  0  0
  192.0240  173.8320  143.2760 C   0  0  2  0  0  3  0  0  0  0  0  0
  194.5200  172.9280  143.1730 F   0  0  0  0  0  0  0  0  0  0  0  0
  190.5890  177.4320  146.0770 C   0  0  0  0  0  2  0  0  0  0  0  0
  192.6380  176.1560  146.6730 C   0  0  0  0  0  2  0  0  0  0  0  0
  193.0510  174.6740  142.7780 O   0  0  0  0  0  0  0  0  0  0  0  0
  188.2040  175.1710  140.9330 C   0  0  0  0  0  2  0  0  0  0  0  0
  187.3600  175.0900  142.2140 C   0  0  0  0  0  2  0  0  0  0  0  0
  191.6230  176.4390  145.5500 C   0  0  1  0  0  3  0  0  0  0  0  0
  190.7170  174.2700  142.7680 N   0  0  2  0  0  0  0  0  0  0  0  0
  194.3560  174.6940  144.7850 C   0  0  0  0  0  2  0  0  0  0  0  0
  188.5810  176.8810  144.6760 C   0  0  1  0  0  3  0  0  0  0  0  0
  195.2950  174.9680  142.6420 F   0  0  0  0  0  0  0  0  0  0  0  0
  189.2180  174.0460  140.8510 C   0  0  0  0  0  2  0  0  0  0  0  0
  190.6040  174.5070  141.3090 C   0  0  2  0  0  3  0  0  0  0  0  0
  189.6400  177.9350  144.9940 C   0  0  0  0  0  2  0  0  0  0  0  0
  187.0640  178.2670  143.1210 C   0  0  0  0  0  2  0  0  0  0  0  0
  187.2520  177.5290  144.4230 C   0  0  0  0  0  0  0  0  0  0  0  0
  186.2750  177.4510  145.3360 C   0  0  0  0  0  3  0  0  0  0  0  0
  184.0650  178.0230  145.9380 O   0  0  0  0  0  0  0  0  0  0  0  0
  184.7790  178.8150  143.8660 N   0  0  0  0  0  0  0  0  0  0  0  0
  184.9870  178.0960  145.0840 C   0  0  0  0  0  0  0  0  0  0  0  0
  185.7060  178.9070  142.9620 C   0  0  0  0  0  3  0  0  0  0  0  0
  191.6340  173.7270  140.4750 C   0  0  1  0  0  3  0  0  0  0  0  0
  191.2350  172.2850  140.3770 N   0  0  0  0  0  0  0  0  0  0  0  0
  191.0700  173.2920  139.2910 C   0  0  2  0  0  3  0  0  0  0  0  0
  192.1460  173.0750  138.2470 C   0  0  0  0  0  2  0  0  0  0  0  0
  192.0870  174.0940  137.2990 O   0  0  0  0  0  1  0  0  0  0  0  0
  190.4520  170.7480  142.0200 C   0  0  0  0  0  2  0  0  0  0  0  0
  191.1120  170.9650  140.8930 C   0  0  0  0  0  3  0  0  0  0  0  0
  1 18  1  0  0  0  0
  2 16  1  0  0  0  0
  3  7  1  0  0  0  0
  4  8  1  0  0  0  0
  5  2  1  0  0  0  0
  6  2  1  0  0  0  0
  6  4  1  0  0  0  0
  7  5  1  0  0  0  0
  7 19  1  0  0  0  0
  9  6  1  0  0  0  0
 10  1  1  0  0  0  0
 12  8  1  0  0  0  0
 13  9  1  0  0  0  0
 13  1  1  0  0  0  0
 14 15  1  0  0  0  0
 15  3  1  0  0  0  0
 16 11  1  0  0  0  0
 16 12  1  0  0  0  0
 17  9  1  0  0  0  0
 17  5  1  0  0  0  0
 18  4  1  0  0  0  0
 19 23  1  0  0  0  0
 20  1  1  0  0  0  0
 21 14  1  0  0  0  0
 21 22  1  0  0  0  0
 22 17  1  0  0  0  0
 23 11  1  0  0  0  0
 24 25  1  0  0  0  0
 25 19  1  0  0  0  0
 25 26  2  0  0  0  0
 28 29  1  0  0  0  0
 29 26  1  0  0  0  0
 29 27  2  0  0  0  0
 30 24  1  0  0  0  0
 30 28  2  0  0  0  0
 31 22  1  0  0  0  0
 32 31  1  0  0  0  0
 32 37  1  0  0  0  0
 33 32  1  0  0  0  0
 33 31  1  0  0  0  0
 34 33  1  0  0  0  0
 35 34  1  0  0  0  0
 37 36  2  0  0  0  0
M  END
>  <MODEL>
3

>  <REMARK>
 VINA RESULT:      -7.5      2.014      4.952
  Name = 
  4 active torsions:
  status: ('A' for Active; 'I' for Inactive)
    1  A    between atoms: C_1  and  C_27
    2  A    between atoms: N_4  and  C_37
    3  A    between atoms: C_8  and  C_12
    4  A    between atoms: C_23  and  C_30
                            x       y       z     vdW  Elec       q    Type
                         _______ _______ _______ _____ _____    ______ ____

>  <TORSDO>
F 4

$$$$
=
 OpenBabel11112417333D

 37 43  0  0  1  0  0  0  0  0999 V2000
  194.7550  173.7770  143.1290 C   0  0  0  0  0  0  0  0  0  0  0  0
  191.4600  175.4680  144.1720 C   0  0  1  0  0  3  0  0  0  0  0  0
  188.5820  174.3920  143.0910 O   0  0  0  0  0  0  0  0  0  0  0  0
  193.7420  174.8020  145.1880 C   0  0  2  0  0  3  0  0  0  0  0  0
  190.9170  174.9700  142.8330 C   0  0  2  0  0  3  0  0  0  0  0  0
  192.3960  174.3480  144.6130 C   0  0  2  0  0  3  0  0  0  0  0  0
  189.4510  175.3710  142.5860 C   0  0  2  0  0  3  0  0  0  0  0  0
  193.5740  176.0560  145.9230 N   0  0  0  0  0  2  0  0  0  0  0  0
  192.4840  173.4000  143.4200 C   0  0  2  0  0  3  0  0  0  0  0  0
  194.9810  172.5440  143.7250 F   0  0  0  0  0  0  0  0  0  0  0  0
  191.1330  177.9600  143.9200 C   0  0  0  0  0  2  0  0  0  0  0  0
  193.2110  177.1680  145.0310 C   0  0  0  0  0  2  0  0  0  0  0  0
  193.4870  173.8310  142.5130 O   0  0  0  0  0  0  0  0  0  0  0  0
  188.5700  173.3410  140.8620 C   0  0  0  0  0  2  0  0  0  0  0  0
  187.7760  173.9670  142.0170 C   0  0  0  0  0  2  0  0  0  0  0  0
  192.1530  176.8230  143.9670 C   0  0  1  0  0  3  0  0  0  0  0  0
  191.1560  173.5200  142.8040 N   0  0  2  0  0  0  0  0  0  0  0  0
  194.8660  174.8990  144.1530 C   0  0  0  0  0  2  0  0  0  0  0  0
  189.0770  176.7760  143.1000 C   0  0  1  0  0  3  0  0  0  0  0  0
  195.7220  173.9750  142.1620 F   0  0  0  0  0  0  0  0  0  0  0  0
  189.5870  172.3300  141.3560 C   0  0  0  0  0  2  0  0  0  0  0  0
  190.9860  172.9440  141.4480 C   0  0  2  0  0  3  0  0  0  0  0  0
  190.1410  177.8220  142.7690 C   0  0  0  0  0  2  0  0  0  0  0  0
  187.5930  177.4600  141.1080 C   0  0  0  0  0  2  0  0  0  0  0  0
  187.7350  177.2090  142.5890 C   0  0  0  0  0  0  0  0  0  0  0  0
  186.7080  177.3700  143.4320 C   0  0  0  0  0  3  0  0  0  0  0  0
  184.4370  177.9520  143.7130 O   0  0  0  0  0  0  0  0  0  0  0  0
  185.2400  178.0620  141.5280 N   0  0  0  0  0  0  0  0  0  0  0  0
  185.4070  177.8030  142.9240 C   0  0  0  0  0  0  0  0  0  0  0  0
  186.2170  177.9150  140.6860 C   0  0  0  0  0  3  0  0  0  0  0  0
  191.9890  171.8240  141.1220 C   0  0  1  0  0  3  0  0  0  0  0  0
  191.6280  171.1680  139.8240 N   0  0  0  0  0  0  0  0  0  0  0  0
  192.7330  172.1500  140.0050 C   0  0  2  0  0  3  0  0  0  0  0  0
  194.0550  171.4110  140.0210 C   0  0  0  0  0  2  0  0  0  0  0  0
  194.1980  170.7380  141.2320 O   0  0  0  0  0  1  0  0  0  0  0  0
  190.0660  170.7630  138.0710 C   0  0  0  0  0  2  0  0  0  0  0  0
  190.8540  170.2830  139.0220 C   0  0  0  0  0  3  0  0  0  0  0  0
  1 10  1  0  0  0  0
  1 18  1  0  0  0  0
  2  6  1  0  0  0  0
  4  8  1  0  0  0  0
  5  2  1  0  0  0  0
  6  4  1  0  0  0  0
  7  5  1  0  0  0  0
  7  3  1  0  0  0  0
  7 19  1  0  0  0  0
  9  6  1  0  0  0  0
 11 16  1  0  0  0  0
 12  8  1  0  0  0  0
 13  1  1  0  0  0  0
 13  9  1  0  0  0  0
 14 21  1  0  0  0  0
 14 15  1  0  0  0  0
 15  3  1  0  0  0  0
 16  2  1  0  0  0  0
 16 12  1  0  0  0  0
 17  5  1  0  0  0  0
 17  9  1  0  0  0  0
 18  4  1  0  0  0  0
 20  1  1  0  0  0  0
 21 22  1  0  0  0  0
 22 17  1  0  0  0  0
 23 19  1  0  0  0  0
 23 11  1  0  0  0  0
 24 25  1  0  0  0  0
 25 19  1  0  0  0  0
 25 26  2  0  0  0  0
 28 29  1  0  0  0  0
 29 26  1  0  0  0  0
 29 27  2  0  0  0  0
 30 24  1  0  0  0  0
 30 28  2  0  0  0  0
 31 22  1  0  0  0  0
 32 33  1  0  0  0  0
 32 31  1  0  0  0  0
 33 34  1  0  0  0  0
 33 31  1  0  0  0  0
 34 35  1  0  0  0  0
 36 37  2  0  0  0  0
 37 32  1  0  0  0  0
M  END
>  <MODEL>
4

>  <REMARK>
 VINA RESULT:      -7.3      1.516      4.872
  Name = 
  4 active torsions:
  status: ('A' for Active; 'I' for Inactive)
    1  A    between atoms: C_1  and  C_27
    2  A    between atoms: N_4  and  C_37
    3  A    between atoms: C_8  and  C_12
    4  A    between atoms: C_23  and  C_30
                            x       y       z     vdW  Elec       q    Type
                         _______ _______ _______ _____ _____    ______ ____

>  <TORSDO>
F 4

$$$$
=
 OpenBabel11112417333D

 37 43  0  0  1  0  0  0  0  0999 V2000
  194.4760  171.9910  141.3190 C   0  0  0  0  0  0  0  0  0  0  0  0
  191.7000  174.6250  141.7140 C   0  0  1  0  0  3  0  0  0  0  0  0
  191.6230  176.6430  144.2690 O   0  0  0  0  0  0  0  0  0  0  0  0
  193.1730  173.5750  139.8670 C   0  0  2  0  0  3  0  0  0  0  0  0
  191.9460  174.4890  143.2160 C   0  0  2  0  0  3  0  0  0  0  0  0
  193.0900  174.4670  141.1100 C   0  0  2  0  0  3  0  0  0  0  0  0
  191.0300  175.3890  144.0650 C   0  0  2  0  0  3  0  0  0  0  0  0
  191.9540  173.7160  139.0700 N   0  0  0  0  0  2  0  0  0  0  0  0
  193.9900  174.0500  142.2710 C   0  0  2  0  0  3  0  0  0  0  0  0
  195.7120  172.5090  140.9580 F   0  0  0  0  0  0  0  0  0  0  0  0
  189.2610  173.9840  141.5730 C   0  0  0  0  0  2  0  0  0  0  0  0
  190.7770  173.1840  139.7730 C   0  0  0  0  0  2  0  0  0  0  0  0
  193.9500  172.6430  142.4540 O   0  0  0  0  0  0  0  0  0  0  0  0
  192.5700  175.7830  146.3760 C   0  0  0  0  0  2  0  0  0  0  0  0
  191.7080  176.8350  145.6620 C   0  0  0  0  0  2  0  0  0  0  0  0
  190.6940  173.5540  141.2650 C   0  0  1  0  0  3  0  0  0  0  0  0
  193.3820  174.7300  143.4220 N   0  0  2  0  0  0  0  0  0  0  0  0
  193.4860  172.1070  140.1670 C   0  0  0  0  0  2  0  0  0  0  0  0
  189.5920  175.5280  143.5240 C   0  0  1  0  0  3  0  0  0  0  0  0
  194.6370  170.6510  141.6180 F   0  0  0  0  0  0  0  0  0  0  0  0
  193.8910  175.5560  145.6650 C   0  0  0  0  0  2  0  0  0  0  0  0
  193.8390  174.3150  144.7710 C   0  0  2  0  0  3  0  0  0  0  0  0
  189.0090  174.1920  143.0630 C   0  0  0  0  0  2  0  0  0  0  0  0
  188.6210  175.5770  145.9110 C   0  0  0  0  0  2  0  0  0  0  0  0
  188.6880  176.1790  144.5280 C   0  0  0  0  0  0  0  0  0  0  0  0
  187.9650  177.2550  144.1940 C   0  0  0  0  0  3  0  0  0  0  0  0
  186.4000  178.8880  144.8680 O   0  0  0  0  0  0  0  0  0  0  0  0
  186.9810  177.3220  146.4930 N   0  0  0  0  0  0  0  0  0  0  0  0
  187.0780  177.8750  145.1780 C   0  0  0  0  0  0  0  0  0  0  0  0
  187.6690  176.2800  146.8480 C   0  0  0  0  0  3  0  0  0  0  0  0
  195.2450  173.6940  144.7820 C   0  0  1  0  0  3  0  0  0  0  0  0
  196.2760  174.7430  144.4890 N   0  0  0  0  0  0  0  0  0  0  0  0
  195.9840  174.1870  145.8400 C   0  0  2  0  0  3  0  0  0  0  0  0
  197.0760  173.2080  146.2190 C   0  0  0  0  0  2  0  0  0  0  0  0
  196.6000  171.9050  146.0840 O   0  0  0  0  0  1  0  0  0  0  0  0
  196.5220  176.7990  143.3110 C   0  0  0  0  0  2  0  0  0  0  0  0
  196.9990  175.6020  143.6150 C   0  0  0  0  0  3  0  0  0  0  0  0
  1 20  1  0  0  0  0
  1 13  1  0  0  0  0
  2  5  1  0  0  0  0
  3 15  1  0  0  0  0
  4 18  1  0  0  0  0
  4  6  1  0  0  0  0
  5 17  1  0  0  0  0
  5  7  1  0  0  0  0
  6  2  1  0  0  0  0
  6  9  1  0  0  0  0
  7  3  1  0  0  0  0
  8 12  1  0  0  0  0
  8  4  1  0  0  0  0
  9 13  1  0  0  0  0
  9 17  1  0  0  0  0
 10  1  1  0  0  0  0
 11 23  1  0  0  0  0
 12 16  1  0  0  0  0
 15 14  1  0  0  0  0
 16 11  1  0  0  0  0
 16  2  1  0  0  0  0
 17 22  1  0  0  0  0
 18  1  1  0  0  0  0
 19  7  1  0  0  0  0
 19 25  1  0  0  0  0
 21 14  1  0  0  0  0
 22 31  1  0  0  0  0
 22 21  1  0  0  0  0
 23 19  1  0  0  0  0
 24 30  1  0  0  0  0
 25 24  1  0  0  0  0
 26 25  2  0  0  0  0
 26 29  1  0  0  0  0
 27 29  2  0  0  0  0
 28 30  2  0  0  0  0
 29 28  1  0  0  0  0
 31 33  1  0  0  0  0
 32 31  1  0  0  0  0
 32 33  1  0  0  0  0
 33 34  1  0  0  0  0
 35 34  1  0  0  0  0
 36 37  2  0  0  0  0
 37 32  1  0  0  0  0
M  END
>  <MODEL>
5

>  <REMARK>
 VINA RESULT:      -7.3      2.318      3.010
  Name = 
  4 active torsions:
  status: ('A' for Active; 'I' for Inactive)
    1  A    between atoms: C_1  and  C_27
    2  A    between atoms: N_4  and  C_37
    3  A    between atoms: C_8  and  C_12
    4  A    between atoms: C_23  and  C_30
                            x       y       z     vdW  Elec       q    Type
                         _______ _______ _______ _____ _____    ______ ____

>  <TORSDO>
F 4

$$$$
=
 OpenBabel11112417333D

 37 43  0  0  1  0  0  0  0  0999 V2000
  193.4370  174.5780  145.5530 C   0  0  0  0  0  0  0  0  0  0  0  0
  189.7210  175.4990  145.1720 C   0  0  1  0  0  3  0  0  0  0  0  0
  187.9720  174.4860  142.6180 O   0  0  0  0  0  0  0  0  0  0  0  0
  191.4040  174.8170  147.0120 C   0  0  2  0  0  3  0  0  0  0  0  0
  189.9640  175.3700  143.6690 C   0  0  2  0  0  3  0  0  0  0  0  0
  190.6050  174.4100  145.7690 C   0  0  2  0  0  3  0  0  0  0  0  0
  188.7100  175.6610  142.8250 C   0  0  2  0  0  3  0  0  0  0  0  0
  190.6310  175.7640  147.8140 N   0  0  0  0  0  2  0  0  0  0  0  0
  191.4380  173.8810  144.6040 C   0  0  2  0  0  3  0  0  0  0  0  0
  193.6670  173.2550  145.9080 F   0  0  0  0  0  0  0  0  0  0  0  0
  188.9470  177.8980  145.3240 C   0  0  0  0  0  2  0  0  0  0  0  0
  190.4430  177.0450  147.1170 C   0  0  0  0  0  2  0  0  0  0  0  0
  192.6010  174.6740  144.4210 O   0  0  0  0  0  0  0  0  0  0  0  0
  189.2010  174.1590  140.5060 C   0  0  0  0  0  2  0  0  0  0  0  0
  187.8530  174.3160  141.2250 C   0  0  0  0  0  2  0  0  0  0  0  0
  190.0830  176.9220  145.6250 C   0  0  1  0  0  3  0  0  0  0  0  0
  190.5340  174.0320  143.4560 N   0  0  2  0  0  0  0  0  0  0  0  0
  192.8090  175.3450  146.7100 C   0  0  0  0  0  2  0  0  0  0  0  0
  187.8200  176.7950  143.3720 C   0  0  1  0  0  3  0  0  0  0  0  0
  194.6510  175.1640  145.2530 F   0  0  0  0  0  0  0  0  0  0  0  0
  190.1060  173.1660  141.2110 C   0  0  0  0  0  2  0  0  0  0  0  0
  191.1260  173.8760  142.1050 C   0  0  2  0  0  3  0  0  0  0  0  0
  188.6320  178.0040  143.8360 C   0  0  0  0  0  2  0  0  0  0  0  0
  187.2140  177.3790  140.9360 C   0  0  0  0  0  2  0  0  0  0  0  0
  186.7810  177.2100  142.3720 C   0  0  0  0  0  0  0  0  0  0  0  0
  185.5180  177.4270  142.7570 C   0  0  0  0  0  3  0  0  0  0  0  0
  183.3260  178.0430  142.1320 O   0  0  0  0  0  0  0  0  0  0  0  0
  184.8940  178.0230  140.4090 N   0  0  0  0  0  0  0  0  0  0  0  0
  184.5160  177.8420  141.7750 C   0  0  0  0  0  0  0  0  0  0  0  0
  186.1110  177.8210  140.0050 C   0  0  0  0  0  3  0  0  0  0  0  0
  192.4060  173.0250  142.0870 C   0  0  1  0  0  3  0  0  0  0  0  0
  192.0610  171.5710  141.9680 N   0  0  0  0  0  0  0  0  0  0  0  0
  192.5700  172.4210  140.8550 C   0  0  2  0  0  3  0  0  0  0  0  0
  194.0310  172.1020  140.6170 C   0  0  0  0  0  2  0  0  0  0  0  0
  194.1400  170.8620  139.9890 O   0  0  0  0  0  1  0  0  0  0  0  0
  191.0230  169.4430  141.7010 C   0  0  0  0  0  2  0  0  0  0  0  0
  191.6120  170.3270  142.4920 C   0  0  0  0  0  3  0  0  0  0  0  0
  1 10  1  0  0  0  0
  1 18  1  0  0  0  0
  2 16  1  0  0  0  0
  2  6  1  0  0  0  0
  3  7  1  0  0  0  0
  4  8  1  0  0  0  0
  5  2  1  0  0  0  0
  6  4  1  0  0  0  0
  7 19  1  0  0  0  0
  7  5  1  0  0  0  0
  9  6  1  0  0  0  0
 11 16  1  0  0  0  0
 12  8  1  0  0  0  0
 13  9  1  0  0  0  0
 13  1  1  0  0  0  0
 14 21  1  0  0  0  0
 14 15  1  0  0  0  0
 15  3  1  0  0  0  0
 16 12  1  0  0  0  0
 17  5  1  0  0  0  0
 17  9  1  0  0  0  0
 18  4  1  0  0  0  0
 19 23  1  0  0  0  0
 20  1  1  0  0  0  0
 21 22  1  0  0  0  0
 22 17  1  0  0  0  0
 23 11  1  0  0  0  0
 24 25  1  0  0  0  0
 25 26  2  0  0  0  0
 25 19  1  0  0  0  0
 28 29  1  0  0  0  0
 29 27  2  0  0  0  0
 29 26  1  0  0  0  0
 30 28  2  0  0  0  0
 30 24  1  0  0  0  0
 31 22  1  0  0  0  0
 32 31  1  0  0  0  0
 32 37  1  0  0  0  0
 33 32  1  0  0  0  0
 33 31  1  0  0  0  0
 34 33  1  0  0  0  0
 35 34  1  0  0  0  0
 36 37  2  0  0  0  0
M  END
>  <MODEL>
6

>  <REMARK>
 VINA RESULT:      -7.3      2.116      4.860
  Name = 
  4 active torsions:
  status: ('A' for Active; 'I' for Inactive)
    1  A    between atoms: C_1  and  C_27
    2  A    between atoms: N_4  and  C_37
    3  A    between atoms: C_8  and  C_12
    4  A    between atoms: C_23  and  C_30
                            x       y       z     vdW  Elec       q    Type
                         _______ _______ _______ _____ _____    ______ ____

>  <TORSDO>
F 4

$$$$
=
 OpenBabel11112417333D

 37 43  0  0  1  0  0  0  0  0999 V2000
  191.0170  176.4370  147.6020 C   0  0  0  0  0  0  0  0  0  0  0  0
  191.6480  175.7300  143.8730 C   0  0  1  0  0  3  0  0  0  0  0  0
  189.3320  176.2200  141.6360 O   0  0  0  0  0  0  0  0  0  0  0  0
  192.8720  176.7100  145.9280 C   0  0  2  0  0  3  0  0  0  0  0  0
  190.1430  175.4720  143.7890 C   0  0  2  0  0  3  0  0  0  0  0  0
  191.7570  176.8620  144.8880 C   0  0  2  0  0  3  0  0  0  0  0  0
  189.6740  175.0790  142.3760 C   0  0  2  0  0  3  0  0  0  0  0  0
  194.0280  176.0460  145.3270 N   0  0  0  0  0  2  0  0  0  0  0  0
  190.3520  177.0290  145.4610 C   0  0  2  0  0  3  0  0  0  0  0  0
  190.9720  177.7850  147.9310 F   0  0  0  0  0  0  0  0  0  0  0  0
  192.5550  173.5030  143.1010 C   0  0  0  0  0  2  0  0  0  0  0  0
  193.7310  174.6520  144.9660 C   0  0  0  0  0  2  0  0  0  0  0  0
  190.1420  176.1320  146.5400 O   0  0  0  0  0  0  0  0  0  0  0  0
  187.0020  175.9330  142.3870 C   0  0  0  0  0  2  0  0  0  0  0  0
  187.9960  176.0550  141.2230 C   0  0  0  0  0  2  0  0  0  0  0  0
  192.3620  174.4360  144.2950 C   0  0  1  0  0  3  0  0  0  0  0  0
  189.4880  176.6720  144.3270 N   0  0  2  0  0  0  0  0  0  0  0  0
  192.4340  176.0220  147.2230 C   0  0  0  0  0  2  0  0  0  0  0  0
  190.6600  174.1800  141.6020 C   0  0  1  0  0  3  0  0  0  0  0  0
  190.6340  175.7070  148.7110 F   0  0  0  0  0  0  0  0  0  0  0  0
  187.2330  176.9970  143.4430 C   0  0  0  0  0  2  0  0  0  0  0  0
  188.0500  176.4520  144.6160 C   0  0  2  0  0  3  0  0  0  0  0  0
  191.2380  173.0630  142.4700 C   0  0  0  0  0  2  0  0  0  0  0  0
  188.7410  172.8450  140.5170 C   0  0  0  0  0  2  0  0  0  0  0  0
  190.0300  173.6130  140.3640 C   0  0  0  0  0  0  0  0  0  0  0  0
  190.6080  173.7860  139.1690 C   0  0  0  0  0  3  0  0  0  0  0  0
  190.5300  173.3840  136.8440 O   0  0  0  0  0  0  0  0  0  0  0  0
  188.7770  172.4760  138.0810 N   0  0  0  0  0  0  0  0  0  0  0  0
  189.9910  173.2200  137.9700 C   0  0  0  0  0  0  0  0  0  0  0  0
  188.1920  172.2910  139.2250 C   0  0  0  0  0  3  0  0  0  0  0  0
  187.5570  177.1750  145.8810 C   0  0  1  0  0  3  0  0  0  0  0  0
  186.4450  178.1200  145.5360 N   0  0  0  0  0  0  0  0  0  0  0  0
  186.2650  176.7920  146.1860 C   0  0  2  0  0  3  0  0  0  0  0  0
  185.9920  176.9960  147.6620 C   0  0  0  0  0  2  0  0  0  0  0  0
  186.6350  178.1520  148.0990 O   0  0  0  0  0  1  0  0  0  0  0  0
  184.6660  179.4280  144.6400 C   0  0  0  0  0  2  0  0  0  0  0  0
  185.9340  179.3410  145.0130 C   0  0  0  0  0  3  0  0  0  0  0  0
  1 10  1  0  0  0  0
  1 20  1  0  0  0  0
  2 16  1  0  0  0  0
  2  6  1  0  0  0  0
  3  7  1  0  0  0  0
  4 18  1  0  0  0  0
  5  2  1  0  0  0  0
  5 17  1  0  0  0  0
  6  9  1  0  0  0  0
  6  4  1  0  0  0  0
  7  5  1  0  0  0  0
  8  4  1  0  0  0  0
  9 13  1  0  0  0  0
 11 16  1  0  0  0  0
 12  8  1  0  0  0  0
 13  1  1  0  0  0  0
 14 21  1  0  0  0  0
 15  3  1  0  0  0  0
 15 14  1  0  0  0  0
 16 12  1  0  0  0  0
 17 22  1  0  0  0  0
 17  9  1  0  0  0  0
 18  1  1  0  0  0  0
 19  7  1  0  0  0  0
 19 23  1  0  0  0  0
 21 22  1  0  0  0  0
 22 31  1  0  0  0  0
 23 11  1  0  0  0  0
 25 24  1  0  0  0  0
 25 19  1  0  0  0  0
 26 25  2  0  0  0  0
 27 29  2  0  0  0  0
 28 30  2  0  0  0  0
 29 28  1  0  0  0  0
 29 26  1  0  0  0  0
 30 24  1  0  0  0  0
 31 33  1  0  0  0  0
 32 31  1  0  0  0  0
 32 33  1  0  0  0  0
 33 34  1  0  0  0  0
 34 35  1  0  0  0  0
 36 37  2  0  0  0  0
 37 32  1  0  0  0  0
M  END
>  <MODEL>
7

>  <REMARK>
 VINA RESULT:      -7.3      3.026      6.340
  Name = 
  4 active torsions:
  status: ('A' for Active; 'I' for Inactive)
    1  A    between atoms: C_1  and  C_27
    2  A    between atoms: N_4  and  C_37
    3  A    between atoms: C_8  and  C_12
    4  A    between atoms: C_23  and  C_30
                            x       y       z     vdW  Elec       q    Type
                         _______ _______ _______ _____ _____    ______ ____

>  <TORSDO>
F 4

$$$$
=
 OpenBabel11112417333D

 37 43  0  0  1  0  0  0  0  0999 V2000
  194.8240  174.1430  142.5500 C   0  0  0  0  0  0  0  0  0  0  0  0
  191.5450  175.4800  144.0530 C   0  0  1  0  0  3  0  0  0  0  0  0
  188.6460  174.3710  143.0640 O   0  0  0  0  0  0  0  0  0  0  0  0
  193.9350  174.8360  144.7960 C   0  0  2  0  0  3  0  0  0  0  0  0
  190.9180  175.1220  142.7060 C   0  0  2  0  0  3  0  0  0  0  0  0
  192.5710  174.3740  144.2720 C   0  0  2  0  0  3  0  0  0  0  0  0
  189.4180  175.4580  142.6260 C   0  0  2  0  0  3  0  0  0  0  0  0
  193.7640  175.9740  145.6990 N   0  0  0  0  0  2  0  0  0  0  0  0
  192.6090  173.5910  142.9620 C   0  0  2  0  0  3  0  0  0  0  0  0
  195.1640  172.8610  142.9610 F   0  0  0  0  0  0  0  0  0  0  0  0
  191.0680  177.9580  144.1540 C   0  0  0  0  0  2  0  0  0  0  0  0
  193.2710  177.1640  144.9900 C   0  0  0  0  0  2  0  0  0  0  0  0
  193.5080  174.1950  142.0450 O   0  0  0  0  0  0  0  0  0  0  0  0
  188.5030  173.6100  140.7240 C   0  0  0  0  0  2  0  0  0  0  0  0
  187.7760  174.0350  142.0080 C   0  0  0  0  0  2  0  0  0  0  0  0
  192.1470  176.8910  143.9740 C   0  0  1  0  0  3  0  0  0  0  0  0
  191.2300  173.7040  142.4690 N   0  0  2  0  0  0  0  0  0  0  0  0
  194.9620  175.1320  143.7010 C   0  0  0  0  0  2  0  0  0  0  0  0
  189.0160  176.7610  143.3460 C   0  0  1  0  0  3  0  0  0  0  0  0
  195.6950  174.5210  141.5470 F   0  0  0  0  0  0  0  0  0  0  0  0
  189.6090  172.6100  141.0030 C   0  0  0  0  0  2  0  0  0  0  0  0
  190.9770  173.2940  141.0670 C   0  0  2  0  0  3  0  0  0  0  0  0
  189.9920  177.9050  143.0740 C   0  0  0  0  0  2  0  0  0  0  0  0
  186.5790  177.1360  144.0970 C   0  0  0  0  0  2  0  0  0  0  0  0
  187.6150  177.1700  143.0000 C   0  0  0  0  0  0  0  0  0  0  0  0
  187.3070  177.5460  141.7520 C   0  0  0  0  0  3  0  0  0  0  0  0
  185.6430  178.2910  140.2530 O   0  0  0  0  0  0  0  0  0  0  0  0
  184.9270  177.9000  142.4350 N   0  0  0  0  0  0  0  0  0  0  0  0
  185.9350  177.9330  141.4230 C   0  0  0  0  0  0  0  0  0  0  0  0
  185.1940  177.5400  143.6540 C   0  0  0  0  0  3  0  0  0  0  0  0
  192.0060  172.2890  140.5230 C   0  0  1  0  0  3  0  0  0  0  0  0
  191.6000  171.8200  139.1580 N   0  0  0  0  0  0  0  0  0  0  0  0
  192.6710  172.8190  139.4330 C   0  0  2  0  0  3  0  0  0  0  0  0
  194.0220  172.1540  139.2690 C   0  0  0  0  0  2  0  0  0  0  0  0
  194.2620  171.3130  140.3530 O   0  0  0  0  0  1  0  0  0  0  0  0
  189.9900  171.6100  137.4140 C   0  0  0  0  0  2  0  0  0  0  0  0
  190.8190  171.0300  138.2690 C   0  0  0  0  0  3  0  0  0  0  0  0
  1 10  1  0  0  0  0
  1 18  1  0  0  0  0
  2  6  1  0  0  0  0
  4  8  1  0  0  0  0
  5  2  1  0  0  0  0
  6  4  1  0  0  0  0
  7  5  1  0  0  0  0
  7  3  1  0  0  0  0
  7 19  1  0  0  0  0
  9  6  1  0  0  0  0
 12  8  1  0  0  0  0
 13  1  1  0  0  0  0
 13  9  1  0  0  0  0
 14 21  1  0  0  0  0
 14 15  1  0  0  0  0
 15  3  1  0  0  0  0
 16  2  1  0  0  0  0
 16 11  1  0  0  0  0
 16 12  1  0  0  0  0
 17  5  1  0  0  0  0
 17  9  1  0  0  0  0
 18  4  1  0  0  0  0
 20  1  1  0  0  0  0
 21 22  1  0  0  0  0
 22 17  1  0  0  0  0
 23 19  1  0  0  0  0
 23 11  1  0  0  0  0
 25 19  1  0  0  0  0
 25 24  1  0  0  0  0
 26 25  2  0  0  0  0
 27 29  2  0  0  0  0
 28 30  2  0  0  0  0
 29 26  1  0  0  0  0
 29 28  1  0  0  0  0
 30 24  1  0  0  0  0
 31 22  1  0  0  0  0
 32 33  1  0  0  0  0
 32 31  1  0  0  0  0
 33 31  1  0  0  0  0
 34 33  1  0  0  0  0
 34 35  1  0  0  0  0
 36 37  2  0  0  0  0
 37 32  1  0  0  0  0
M  END
>  <MODEL>
8

>  <REMARK>
 VINA RESULT:      -7.3      1.777      5.019
  Name = 
  4 active torsions:
  status: ('A' for Active; 'I' for Inactive)
    1  A    between atoms: C_1  and  C_27
    2  A    between atoms: N_4  and  C_37
    3  A    between atoms: C_8  and  C_12
    4  A    between atoms: C_23  and  C_30
                            x       y       z     vdW  Elec       q    Type
                         _______ _______ _______ _____ _____    ______ ____

>  <TORSDO>
F 4

$$$$
=
 OpenBabel11112417333D

 37 43  0  0  1  0  0  0  0  0999 V2000
  187.7800  175.6710  142.3710 C   0  0  0  0  0  0  0  0  0  0  0  0
  191.1740  176.0290  144.1480 C   0  0  1  0  0  3  0  0  0  0  0  0
  193.9150  174.8680  142.8260 O   0  0  0  0  0  0  0  0  0  0  0  0
  189.0130  177.3860  143.7340 C   0  0  2  0  0  3  0  0  0  0  0  0
  191.5670  174.7560  143.4000 C   0  0  2  0  0  3  0  0  0  0  0  0
  190.2870  176.7670  143.1510 C   0  0  2  0  0  3  0  0  0  0  0  0
  192.9990  174.2860  143.7140 C   0  0  2  0  0  3  0  0  0  0  0  0
  189.2640  177.8540  145.0970 N   0  0  0  0  0  2  0  0  0  0  0  0
  190.0670  175.7860  142.0020 C   0  0  2  0  0  3  0  0  0  0  0  0
  187.6150  176.5060  141.2750 F   0  0  0  0  0  0  0  0  0  0  0  0
  191.4800  175.2870  146.5430 C   0  0  0  0  0  2  0  0  0  0  0  0
  189.5310  176.7390  146.0170 C   0  0  0  0  0  2  0  0  0  0  0  0
  188.9740  174.9260  142.2830 O   0  0  0  0  0  0  0  0  0  0  0  0
  193.6820  172.8840  141.3820 C   0  0  0  0  0  2  0  0  0  0  0  0
  194.5980  173.8130  142.1920 C   0  0  0  0  0  2  0  0  0  0  0  0
  190.4670  175.6510  145.4590 C   0  0  1  0  0  3  0  0  0  0  0  0
  191.3210  175.0210  141.9750 N   0  0  2  0  0  0  0  0  0  0  0  0
  187.7840  176.4760  143.6650 C   0  0  0  0  0  2  0  0  0  0  0  0
  193.4310  174.4880  145.1810 C   0  0  1  0  0  3  0  0  0  0  0  0
  186.7150  174.7920  142.4110 F   0  0  0  0  0  0  0  0  0  0  0  0
  192.7200  173.6610  140.5030 C   0  0  0  0  0  2  0  0  0  0  0  0
  191.3420  173.7850  141.1560 C   0  0  2  0  0  3  0  0  0  0  0  0
  192.3410  174.0830  146.1730 C   0  0  0  0  0  2  0  0  0  0  0  0
  195.9360  174.5980  145.7760 C   0  0  0  0  0  2  0  0  0  0  0  0
  194.7110  173.7670  145.4820 C   0  0  0  0  0  0  0  0  0  0  0  0
  194.7530  172.4290  145.4800 C   0  0  0  0  0  3  0  0  0  0  0  0
  196.0510  170.4780  145.7660 O   0  0  0  0  0  0  0  0  0  0  0  0
  197.1910  172.4930  146.0340 N   0  0  0  0  0  0  0  0  0  0  0  0
  196.0090  171.7360  145.7640 C   0  0  0  0  0  0  0  0  0  0  0  0
  197.1830  173.7910  146.0440 C   0  0  0  0  0  3  0  0  0  0  0  0
  190.3060  173.7810  140.0200 C   0  0  1  0  0  3  0  0  0  0  0  0
  190.5160  172.5910  139.1320 N   0  0  0  0  0  0  0  0  0  0  0  0
  189.4410  172.7120  140.1570 C   0  0  2  0  0  3  0  0  0  0  0  0
  188.1280  173.0070  139.4630 C   0  0  0  0  0  2  0  0  0  0  0  0
  188.1850  174.2690  138.8760 O   0  0  0  0  0  1  0  0  0  0  0  0
  191.8310  170.7540  138.3760 C   0  0  0  0  0  2  0  0  0  0  0  0
  191.1930  171.8810  138.1010 C   0  0  0  0  0  3  0  0  0  0  0  0
  1 20  1  0  0  0  0
  1 18  1  0  0  0  0
  2 16  1  0  0  0  0
  3  7  1  0  0  0  0
  4  8  1  0  0  0  0
  5  7  1  0  0  0  0
  5  2  1  0  0  0  0
  6  4  1  0  0  0  0
  6  2  1  0  0  0  0
  7 19  1  0  0  0  0
  8 12  1  0  0  0  0
  9 13  1  0  0  0  0
  9  6  1  0  0  0  0
 10  1  1  0  0  0  0
 13  1  1  0  0  0  0
 14 15  1  0  0  0  0
 15  3  1  0  0  0  0
 16 12  1  0  0  0  0
 16 11  1  0  0  0  0
 17  9  1  0  0  0  0
 17  5  1  0  0  0  0
 18  4  1  0  0  0  0
 19 25  1  0  0  0  0
 19 23  1  0  0  0  0
 21 22  1  0  0  0  0
 21 14  1  0  0  0  0
 22 17  1  0  0  0  0
 23 11  1  0  0  0  0
 24 30  1  0  0  0  0
 25 24  1  0  0  0  0
 26 25  2  0  0  0  0
 26 29  1  0  0  0  0
 28 30  2  0  0  0  0
 29 27  2  0  0  0  0
 29 28  1  0  0  0  0
 31 33  1  0  0  0  0
 31 22  1  0  0  0  0
 32 31  1  0  0  0  0
 32 33  1  0  0  0  0
 34 33  1  0  0  0  0
 35 34  1  0  0  0  0
 37 36  2  0  0  0  0
 37 32  1  0  0  0  0
M  END
>  <MODEL>
9

>  <REMARK>
 VINA RESULT:      -7.2      3.038      7.913
  Name = 
  4 active torsions:
  status: ('A' for Active; 'I' for Inactive)
    1  A    between atoms: C_1  and  C_27
    2  A    between atoms: N_4  and  C_37
    3  A    between atoms: C_8  and  C_12
    4  A    between atoms: C_23  and  C_30
                            x       y       z     vdW  Elec       q    Type
                         _______ _______ _______ _____ _____    ______ ____

>  <TORSDO>
F 4

$$$$
