=
 OpenBabel11112418033D

 34 40  0  0  1  0  0  0  0  0999 V2000
  192.2480  175.7800  145.4290 C   0  0  1  0  0  3  0  0  0  0  0  0
  190.2690  176.8170  146.3710 C   0  0  0  0  0  2  0  0  0  0  0  0
  195.5200  174.5600  139.7840 C   0  0  0  0  0  0  0  0  0  0  0  0
  194.2780  175.1470  144.0080 C   0  0  0  0  0  0  0  0  0  0  0  0
  193.9560  174.3500  141.7210 C   0  0  0  0  0  0  0  0  0  0  0  0
  193.3080  173.4320  139.4300 C   0  0  0  0  0  1  0  0  0  0  0  0
  195.3000  175.3020  138.7880 O   0  0  0  0  0  0  0  0  0  0  0  0
  197.0100  173.8000  141.6100 C   0  0  0  0  0  2  0  0  0  0  0  0
  190.1210  175.5090  144.5160 C   0  0  2  0  0  3  0  0  0  0  0  0
  187.7650  175.7890  142.3240 C   0  0  0  0  0  2  0  0  0  0  0  0
  192.6190  174.5570  141.8740 N   0  0  0  0  0  0  0  0  0  0  0  0
  196.3590  174.5840  142.7410 C   0  0  0  0  0  2  0  0  0  0  0  0
  190.5690  175.2950  143.0620 C   0  0  1  0  0  3  0  0  0  0  0  0
  188.8000  176.8720  145.9810 C   0  0  0  0  0  2  0  0  0  0  0  0
  194.8370  174.6460  142.8080 C   0  0  0  0  0  0  0  0  0  0  0  0
  196.8210  174.5090  140.3560 N   0  0  0  0  0  2  0  0  0  0  0  0
  188.0430  176.6110  143.5610 C   0  0  0  0  0  0  0  0  0  0  0  0
  192.8840  175.3260  144.1180 C   0  0  0  0  0  0  0  0  0  0  0  0
  194.4300  173.7520  140.4150 C   0  0  1  0  0  3  0  0  0  0  0  0
  192.0590  175.0120  143.0210 C   0  0  0  0  0  0  0  0  0  0  0  0
  194.4890  175.8530  146.4500 C   0  0  0  0  0  2  0  0  0  0  0  0
  188.2450  174.3420  142.4540 C   0  0  0  0  0  2  0  0  0  0  0  0
  195.1930  175.6370  145.1130 C   0  0  0  0  0  2  0  0  0  0  0  0
  189.7690  174.1970  142.3460 C   0  0  0  0  0  2  0  0  0  0  0  0
  188.6850  175.9590  144.7680 C   0  0  1  0  0  3  0  0  0  0  0  0
  193.2130  176.6450  146.2350 C   0  0  0  0  0  2  0  0  0  0  0  0
  190.9930  176.4810  145.1530 N   0  0  2  0  0  0  0  0  0  0  0  0
  187.7530  177.8760  143.5740 N   0  0  0  0  0  0  0  0  0  0  0  0
  187.1720  178.4900  142.4870 O   0  0  0  0  0  0  0  0  0  0  0  0
  184.0450  178.0360  143.4210 O   0  0  0  0  0  0  0  0  0  0  0  0
  185.6580  179.4300  144.0500 C   0  0  0  0  0  3  0  0  0  0  0  0
  185.9220  179.1440  142.6110 C   0  0  2  0  0  3  0  0  0  0  0  0
  184.5870  178.7750  144.4530 C   0  0  0  0  0  3  0  0  0  0  0  0
  184.7950  178.1860  142.2280 C   0  0  0  0  0  2  0  0  0  0  0  0
  1 26  1  6  0  0  0
  3 16  1  0  0  0  0
  3 19  1  0  0  0  0
  4 18  1  0  0  0  0
  4 23  1  0  0  0  0
  5 11  2  0  0  0  0
  5 15  1  0  0  0  0
  6 19  1  0  0  0  0
  7  3  2  0  0  0  0
  8 12  1  0  0  0  0
  9 25  1  0  0  0  0
  9 27  1  0  0  0  0
 10 22  1  0  0  0  0
 10 17  1  0  0  0  0
 11 20  1  0  0  0  0
 12 15  1  0  0  0  0
 13  9  1  0  0  0  0
 14  2  1  0  0  0  0
 15  4  2  0  0  0  0
 16  8  1  0  0  0  0
 17 28  2  0  0  0  0
 17 25  1  0  0  0  0
 18  1  1  0  0  0  0
 19  5  1  0  0  0  0
 20 13  1  0  0  0  0
 20 18  2  0  0  0  0
 23 21  1  0  0  0  0
 24 22  1  0  0  0  0
 24 13  1  0  0  0  0
 25 14  1  0  0  0  0
 26 21  1  0  0  0  0
 27  1  1  0  0  0  0
 27  2  1  0  0  0  0
 29 32  1  0  0  0  0
 29 28  1  0  0  0  0
 30 33  1  0  0  0  0
 31 33  2  0  0  0  0
 32 31  1  0  0  0  0
 34 32  1  0  0  0  0
 34 30  1  0  0  0  0
M  END
>  <MODEL>
1

>  <REMARK>
 VINA RESULT:      -8.3      0.000      0.000
  Name = 
  2 active torsions:
  status: ('A' for Active; 'I' for Inactive)
    1  A    between atoms: N_28  and  O_29
    2  A    between atoms: O_29  and  C_32
                            x       y       z     vdW  Elec       q    Type
                         _______ _______ _______ _____ _____    ______ ____

>  <TORSDO>
F 2

$$$$
=
 OpenBabel11112418033D

 34 40  0  0  1  0  0  0  0  0999 V2000
  190.1190  173.6940  141.6470 C   0  0  1  0  0  3  0  0  0  0  0  0
  187.8660  174.5260  141.9770 C   0  0  0  0  0  2  0  0  0  0  0  0
  195.9700  172.6740  144.6130 C   0  0  0  0  0  0  0  0  0  0  0  0
  192.4440  172.6620  141.9100 C   0  0  0  0  0  0  0  0  0  0  0  0
  194.0930  173.7410  143.3540 C   0  0  0  0  0  0  0  0  0  0  0  0
  195.6390  175.1520  144.8140 C   0  0  0  0  0  1  0  0  0  0  0  0
  195.9990  172.5770  145.8690 O   0  0  0  0  0  0  0  0  0  0  0  0
  196.1550  171.6370  142.3720 C   0  0  0  0  0  2  0  0  0  0  0  0
  189.6570  175.6950  142.7490 C   0  0  2  0  0  3  0  0  0  0  0  0
  189.5010  177.7600  145.2280 C   0  0  0  0  0  2  0  0  0  0  0  0
  193.1500  174.6660  143.6830 N   0  0  0  0  0  0  0  0  0  0  0  0
  194.6650  171.5240  142.0770 C   0  0  0  0  0  2  0  0  0  0  0  0
  190.8890  175.6890  143.6680 C   0  0  1  0  0  3  0  0  0  0  0  0
  187.2610  175.7300  142.6820 C   0  0  0  0  0  2  0  0  0  0  0  0
  193.7570  172.6950  142.4400 C   0  0  0  0  0  0  0  0  0  0  0  0
  196.3720  171.5740  143.8070 N   0  0  0  0  0  2  0  0  0  0  0  0
  188.4330  176.8680  144.6390 C   0  0  0  0  0  0  0  0  0  0  0  0
  191.5110  173.6550  142.2710 C   0  0  0  0  0  0  0  0  0  0  0  0
  195.4800  173.9150  143.9340 C   0  0  1  0  0  3  0  0  0  0  0  0
  191.8950  174.6700  143.1700 C   0  0  0  0  0  0  0  0  0  0  0  0
  190.6970  171.7000  140.3210 C   0  0  0  0  0  2  0  0  0  0  0  0
  190.5440  178.1950  144.1960 C   0  0  0  0  0  2  0  0  0  0  0  0
  192.0000  171.4720  141.0820 C   0  0  0  0  0  2  0  0  0  0  0  0
  191.5270  177.0790  143.8200 C   0  0  0  0  0  2  0  0  0  0  0  0
  188.4570  176.5420  143.1600 C   0  0  1  0  0  3  0  0  0  0  0  0
  189.6570  172.2940  141.2530 C   0  0  0  0  0  2  0  0  0  0  0  0
  189.1810  174.3340  142.5710 N   0  0  2  0  0  0  0  0  0  0  0  0
  187.5180  176.3630  145.4080 N   0  0  0  0  0  0  0  0  0  0  0  0
  187.4790  176.6420  146.7570 O   0  0  0  0  0  0  0  0  0  0  0  0
  185.2070  179.0260  146.8960 O   0  0  0  0  0  0  0  0  0  0  0  0
  185.1440  176.8580  146.4090 C   0  0  0  0  0  3  0  0  0  0  0  0
  186.2620  177.0110  147.3820 C   0  0  2  0  0  3  0  0  0  0  0  0
  184.5870  178.0280  146.1700 C   0  0  0  0  0  3  0  0  0  0  0  0
  186.2670  178.5100  147.6820 C   0  0  0  0  0  2  0  0  0  0  0  0
  1 26  1  1  0  0  0
  1 18  1  0  0  0  0
  1 27  1  0  0  0  0
  2 27  1  0  0  0  0
  2 14  1  0  0  0  0
  3  7  2  0  0  0  0
  4 18  2  0  0  0  0
  4 15  1  0  0  0  0
  5 11  1  0  0  0  0
  5 19  1  0  0  0  0
  8 16  1  0  0  0  0
  9 25  1  0  0  0  0
  9 13  1  0  0  0  0
 12  8  1  0  0  0  0
 12 15  1  0  0  0  0
 13 24  1  0  0  0  0
 14 25  1  0  0  0  0
 15  5  2  0  0  0  0
 16  3  1  0  0  0  0
 17 10  1  0  0  0  0
 17 28  2  0  0  0  0
 18 20  1  0  0  0  0
 19  3  1  0  0  0  0
 19  6  1  0  0  0  0
 20 13  1  0  0  0  0
 20 11  2  0  0  0  0
 21 23  1  0  0  0  0
 21 26  1  0  0  0  0
 22 10  1  0  0  0  0
 23  4  1  0  0  0  0
 24 22  1  0  0  0  0
 25 17  1  0  0  0  0
 27  9  1  0  0  0  0
 28 29  1  0  0  0  0
 29 32  1  0  0  0  0
 30 34  1  0  0  0  0
 31 32  1  0  0  0  0
 32 34  1  0  0  0  0
 33 31  2  0  0  0  0
 33 30  1  0  0  0  0
M  END
>  <MODEL>
2

>  <REMARK>
 VINA RESULT:      -8.1      2.693      4.335
  Name = 
  2 active torsions:
  status: ('A' for Active; 'I' for Inactive)
    1  A    between atoms: N_28  and  O_29
    2  A    between atoms: O_29  and  C_32
                            x       y       z     vdW  Elec       q    Type
                         _______ _______ _______ _____ _____    ______ ____

>  <TORSDO>
F 2

$$$$
=
 OpenBabel11112418033D

 34 40  0  0  1  0  0  0  0  0999 V2000
  192.6200  175.9230  144.5210 C   0  0  1  0  0  3  0  0  0  0  0  0
  190.5240  176.5620  145.5580 C   0  0  0  0  0  2  0  0  0  0  0  0
  195.6490  174.8560  138.7110 C   0  0  0  0  0  0  0  0  0  0  0  0
  194.6290  175.6280  142.9650 C   0  0  0  0  0  0  0  0  0  0  0  0
  194.3390  174.5110  140.8120 C   0  0  0  0  0  0  0  0  0  0  0  0
  193.7660  173.1990  138.6990 C   0  0  0  0  0  1  0  0  0  0  0  0
  195.1760  175.4000  137.6770 O   0  0  0  0  0  0  0  0  0  0  0  0
  197.4160  174.6950  140.4380 C   0  0  0  0  0  2  0  0  0  0  0  0
  190.5630  175.0460  143.8630 C   0  0  2  0  0  3  0  0  0  0  0  0
  188.0500  174.4940  141.9100 C   0  0  0  0  0  2  0  0  0  0  0  0
  193.0090  174.4100  141.0810 N   0  0  0  0  0  0  0  0  0  0  0  0
  196.6810  175.4300  141.5500 C   0  0  0  0  0  2  0  0  0  0  0  0
  190.9370  174.7740  142.3980 C   0  0  1  0  0  3  0  0  0  0  0  0
  189.0610  176.2190  145.3190 C   0  0  0  0  0  2  0  0  0  0  0  0
  195.2000  175.1350  141.7680 C   0  0  0  0  0  0  0  0  0  0  0  0
  196.9610  175.1850  139.1480 N   0  0  0  0  0  2  0  0  0  0  0  0
  188.2090  175.4990  143.0270 C   0  0  0  0  0  0  0  0  0  0  0  0
  193.2460  175.4810  143.2010 C   0  0  0  0  0  0  0  0  0  0  0  0
  194.8450  173.8920  139.5270 C   0  0  1  0  0  3  0  0  0  0  0  0
  192.4430  174.8510  142.2310 C   0  0  0  0  0  0  0  0  0  0  0  0
  194.8440  176.6490  145.2920 C   0  0  0  0  0  2  0  0  0  0  0  0
  188.8830  173.2290  142.1290 C   0  0  0  0  0  2  0  0  0  0  0  0
  195.4750  176.4500  143.9170 C   0  0  0  0  0  2  0  0  0  0  0  0
  190.3820  173.4390  141.8780 C   0  0  0  0  0  2  0  0  0  0  0  0
  189.0840  175.1680  144.2180 C   0  0  1  0  0  3  0  0  0  0  0  0
  193.3990  177.0820  145.1350 C   0  0  0  0  0  2  0  0  0  0  0  0
  191.2130  176.2660  144.3100 N   0  0  2  0  0  0  0  0  0  0  0  0
  187.6170  176.6510  142.9480 N   0  0  0  0  0  0  0  0  0  0  0  0
  186.8200  176.9760  141.8720 O   0  0  0  0  0  0  0  0  0  0  0  0
  183.8830  178.2910  141.1600 O   0  0  0  0  0  0  0  0  0  0  0  0
  185.1430  178.2250  142.9900 C   0  0  0  0  0  3  0  0  0  0  0  0
  186.1020  178.1970  141.8490 C   0  0  2  0  0  3  0  0  0  0  0  0
  183.9050  178.2750  142.5410 C   0  0  0  0  0  3  0  0  0  0  0  0
  185.1920  178.2410  140.6220 C   0  0  0  0  0  2  0  0  0  0  0  0
  1 26  1  6  0  0  0
  3 16  1  0  0  0  0
  3 19  1  0  0  0  0
  4 18  1  0  0  0  0
  4 23  1  0  0  0  0
  5 11  2  0  0  0  0
  5 15  1  0  0  0  0
  6 19  1  0  0  0  0
  7  3  2  0  0  0  0
  8 12  1  0  0  0  0
  9 25  1  0  0  0  0
  9 27  1  0  0  0  0
 10 22  1  0  0  0  0
 10 17  1  0  0  0  0
 11 20  1  0  0  0  0
 12 15  1  0  0  0  0
 13  9  1  0  0  0  0
 14  2  1  0  0  0  0
 15  4  2  0  0  0  0
 16  8  1  0  0  0  0
 17 25  1  0  0  0  0
 18  1  1  0  0  0  0
 19  5  1  0  0  0  0
 20 13  1  0  0  0  0
 20 18  2  0  0  0  0
 23 21  1  0  0  0  0
 24 22  1  0  0  0  0
 24 13  1  0  0  0  0
 25 14  1  0  0  0  0
 26 21  1  0  0  0  0
 27  1  1  0  0  0  0
 27  2  1  0  0  0  0
 28 17  2  0  0  0  0
 29 28  1  0  0  0  0
 30 33  1  0  0  0  0
 32 29  1  0  0  0  0
 32 31  1  0  0  0  0
 33 31  2  0  0  0  0
 34 30  1  0  0  0  0
 34 32  1  0  0  0  0
M  END
>  <MODEL>
3

>  <REMARK>
 VINA RESULT:      -7.6      1.186      1.295
  Name = 
  2 active torsions:
  status: ('A' for Active; 'I' for Inactive)
    1  A    between atoms: N_28  and  O_29
    2  A    between atoms: O_29  and  C_32
                            x       y       z     vdW  Elec       q    Type
                         _______ _______ _______ _____ _____    ______ ____

>  <TORSDO>
F 2

$$$$
=
 OpenBabel11112418033D

 34 40  0  0  1  0  0  0  0  0999 V2000
  194.4920  175.6810  143.9300 C   0  0  1  0  0  3  0  0  0  0  0  0
  193.3340  176.3200  145.9610 C   0  0  0  0  0  2  0  0  0  0  0  0
  193.9360  175.2240  137.3310 C   0  0  0  0  0  0  0  0  0  0  0  0
  195.3570  175.4620  141.5330 C   0  0  0  0  0  0  0  0  0  0  0  0
  193.8560  174.6830  139.7700 C   0  0  0  0  0  0  0  0  0  0  0  0
  192.1090  173.7270  138.1750 C   0  0  0  0  0  1  0  0  0  0  0  0
  193.0780  175.9400  136.7480 O   0  0  0  0  0  0  0  0  0  0  0  0
  196.2980  174.6930  137.8520 C   0  0  0  0  0  2  0  0  0  0  0  0
  192.2920  175.0580  144.3820 C   0  0  2  0  0  3  0  0  0  0  0  0
  189.0860  174.9700  144.0030 C   0  0  0  0  0  2  0  0  0  0  0  0
  192.8520  174.6420  140.6880 N   0  0  0  0  0  0  0  0  0  0  0  0
  196.3440  175.3170  139.2400 C   0  0  0  0  0  2  0  0  0  0  0  0
  191.8210  174.9680  142.9220 C   0  0  1  0  0  3  0  0  0  0  0  0
  191.9250  176.1210  146.5000 C   0  0  0  0  0  2  0  0  0  0  0  0
  195.1600  175.1020  140.1780 C   0  0  0  0  0  0  0  0  0  0  0  0
  195.3170  175.3910  137.0380 N   0  0  0  0  0  2  0  0  0  0  0  0
  189.9290  175.7940  144.9470 C   0  0  0  0  0  0  0  0  0  0  0  0
  194.2860  175.3850  142.4470 C   0  0  0  0  0  0  0  0  0  0  0  0
  193.5420  174.2160  138.3660 C   0  0  1  0  0  3  0  0  0  0  0  0
  193.0220  174.9580  141.9960 C   0  0  0  0  0  0  0  0  0  0  0  0
  196.8720  176.1280  143.4740 C   0  0  0  0  0  2  0  0  0  0  0  0
  189.7330  173.6300  143.6470 C   0  0  0  0  0  2  0  0  0  0  0  0
  196.6740  176.0790  141.9610 C   0  0  0  0  0  2  0  0  0  0  0  0
  190.9030  173.7630  142.6640 C   0  0  0  0  0  2  0  0  0  0  0  0
  191.2370  175.2360  145.4700 C   0  0  1  0  0  3  0  0  0  0  0  0
  195.6240  176.6840  144.1350 C   0  0  0  0  0  2  0  0  0  0  0  0
  193.2370  176.1530  144.5190 N   0  0  2  0  0  0  0  0  0  0  0  0
  189.5420  176.9860  145.2860 N   0  0  0  0  0  0  0  0  0  0  0  0
  188.3590  177.5150  144.8200 O   0  0  0  0  0  0  0  0  0  0  0  0
  185.0970  177.7720  145.2130 O   0  0  0  0  0  0  0  0  0  0  0  0
  186.7160  176.7610  146.3530 C   0  0  0  0  0  3  0  0  0  0  0  0
  187.3580  177.9500  145.7240 C   0  0  2  0  0  3  0  0  0  0  0  0
  185.4390  176.7110  146.0280 C   0  0  0  0  0  3  0  0  0  0  0  0
  186.2130  178.6050  144.9540 C   0  0  0  0  0  2  0  0  0  0  0  0
  1 26  1  6  0  0  0
  1 27  1  0  0  0  0
  2 14  1  0  0  0  0
  3 19  1  0  0  0  0
  4 23  1  0  0  0  0
  4 18  1  0  0  0  0
  5 15  1  0  0  0  0
  5 11  2  0  0  0  0
  6 19  1  0  0  0  0
  7  3  2  0  0  0  0
  8 12  1  0  0  0  0
  9 27  1  0  0  0  0
  9 25  1  0  0  0  0
 10 17  1  0  0  0  0
 11 20  1  0  0  0  0
 12 15  1  0  0  0  0
 13  9  1  0  0  0  0
 15  4  2  0  0  0  0
 16  3  1  0  0  0  0
 16  8  1  0  0  0  0
 17 28  2  0  0  0  0
 17 25  1  0  0  0  0
 18  1  1  0  0  0  0
 19  5  1  0  0  0  0
 20 18  2  0  0  0  0
 20 13  1  0  0  0  0
 21 26  1  0  0  0  0
 22 10  1  0  0  0  0
 23 21  1  0  0  0  0
 24 13  1  0  0  0  0
 24 22  1  0  0  0  0
 25 14  1  0  0  0  0
 27  2  1  0  0  0  0
 29 28  1  0  0  0  0
 29 32  1  0  0  0  0
 30 33  1  0  0  0  0
 32 31  1  0  0  0  0
 33 31  2  0  0  0  0
 34 30  1  0  0  0  0
 34 32  1  0  0  0  0
M  END
>  <MODEL>
4

>  <REMARK>
 VINA RESULT:      -7.6      1.814      2.767
  Name = 
  2 active torsions:
  status: ('A' for Active; 'I' for Inactive)
    1  A    between atoms: N_28  and  O_29
    2  A    between atoms: O_29  and  C_32
                            x       y       z     vdW  Elec       q    Type
                         _______ _______ _______ _____ _____    ______ ____

>  <TORSDO>
F 2

$$$$
=
 OpenBabel11112418033D

 34 40  0  0  1  0  0  0  0  0999 V2000
  191.2100  175.8550  144.3940 C   0  0  1  0  0  3  0  0  0  0  0  0
  192.6200  176.3800  146.2940 C   0  0  0  0  0  2  0  0  0  0  0  0
  190.5570  171.9010  139.1020 C   0  0  0  0  0  0  0  0  0  0  0  0
  189.9480  174.7190  142.4820 C   0  0  0  0  0  0  0  0  0  0  0  0
  191.1870  173.8160  140.5800 C   0  0  0  0  0  0  0  0  0  0  0  0
  192.7250  173.0890  138.6780 C   0  0  0  0  0  1  0  0  0  0  0  0
  191.1630  170.7960  139.0980 O   0  0  0  0  0  0  0  0  0  0  0  0
  188.4530  173.1980  139.2440 C   0  0  0  0  0  2  0  0  0  0  0  0
  193.5260  176.0610  144.2330 C   0  0  2  0  0  3  0  0  0  0  0  0
  196.5730  175.1020  143.7560 C   0  0  0  0  0  2  0  0  0  0  0  0
  192.3420  174.1790  141.2030 N   0  0  0  0  0  0  0  0  0  0  0  0
  188.5750  173.6240  140.7010 C   0  0  0  0  0  2  0  0  0  0  0  0
  193.7170  175.0930  143.0550 C   0  0  1  0  0  3  0  0  0  0  0  0
  194.1200  176.5210  146.5100 C   0  0  0  0  0  2  0  0  0  0  0  0
  189.9360  174.0830  141.2170 C   0  0  0  0  0  0  0  0  0  0  0  0
  189.1370  171.9310  139.0490 N   0  0  0  0  0  2  0  0  0  0  0  0
  195.8070  175.2960  145.0440 C   0  0  0  0  0  0  0  0  0  0  0  0
  191.1720  175.0900  143.0740 C   0  0  0  0  0  0  0  0  0  0  0  0
  191.2960  173.1990  139.2030 C   0  0  1  0  0  3  0  0  0  0  0  0
  192.3780  174.8110  142.4010 C   0  0  0  0  0  0  0  0  0  0  0  0
  188.7470  175.8220  144.4430 C   0  0  0  0  0  2  0  0  0  0  0  0
  196.0900  176.0250  142.6350 C   0  0  0  0  0  2  0  0  0  0  0  0
  188.6560  174.8570  143.2640 C   0  0  0  0  0  2  0  0  0  0  0  0
  194.7470  175.5940  142.0310 C   0  0  0  0  0  2  0  0  0  0  0  0
  194.7280  176.3570  145.1250 C   0  0  1  0  0  3  0  0  0  0  0  0
  189.9940  175.5230  145.2540 C   0  0  0  0  0  2  0  0  0  0  0  0
  192.4640  175.5710  145.0940 N   0  0  2  0  0  0  0  0  0  0  0  0
  196.0580  174.5360  146.0650 N   0  0  0  0  0  0  0  0  0  0  0  0
  197.0310  173.5620  146.0130 O   0  0  0  0  0  0  0  0  0  0  0  0
  195.3150  171.3080  144.3310 O   0  0  0  0  0  0  0  0  0  0  0  0
  197.4490  171.5010  144.9200 C   0  0  0  0  0  3  0  0  0  0  0  0
  196.6790  172.1900  145.9940 C   0  0  2  0  0  3  0  0  0  0  0  0
  196.6270  171.0240  144.0070 C   0  0  0  0  0  3  0  0  0  0  0  0
  195.2270  172.0340  145.5440 C   0  0  0  0  0  2  0  0  0  0  0  0
  1 27  1  0  0  0  0
  1 26  1  1  0  0  0
  2 14  1  0  0  0  0
  3 19  1  0  0  0  0
  4 18  1  0  0  0  0
  4 23  1  0  0  0  0
  5 11  2  0  0  0  0
  5 15  1  0  0  0  0
  6 19  1  0  0  0  0
  7  3  2  0  0  0  0
  8 12  1  0  0  0  0
  9 27  1  0  0  0  0
  9 25  1  0  0  0  0
 10 17  1  0  0  0  0
 11 20  1  0  0  0  0
 12 15  1  0  0  0  0
 13  9  1  0  0  0  0
 15  4  2  0  0  0  0
 16  3  1  0  0  0  0
 16  8  1  0  0  0  0
 17 25  1  0  0  0  0
 17 28  2  0  0  0  0
 18  1  1  0  0  0  0
 19  5  1  0  0  0  0
 20 13  1  0  0  0  0
 20 18  2  0  0  0  0
 21 26  1  0  0  0  0
 22 10  1  0  0  0  0
 23 21  1  0  0  0  0
 24 22  1  0  0  0  0
 24 13  1  0  0  0  0
 25 14  1  0  0  0  0
 27  2  1  0  0  0  0
 29 28  1  0  0  0  0
 30 34  1  0  0  0  0
 31 32  1  0  0  0  0
 32 29  1  0  0  0  0
 33 30  1  0  0  0  0
 33 31  2  0  0  0  0
 34 32  1  0  0  0  0
M  END
>  <MODEL>
5

>  <REMARK>
 VINA RESULT:      -7.4      3.605      7.518
  Name = 
  2 active torsions:
  status: ('A' for Active; 'I' for Inactive)
    1  A    between atoms: N_28  and  O_29
    2  A    between atoms: O_29  and  C_32
                            x       y       z     vdW  Elec       q    Type
                         _______ _______ _______ _____ _____    ______ ____

>  <TORSDO>
F 2

$$$$
=
 OpenBabel11112418033D

 34 40  0  0  1  0  0  0  0  0999 V2000
  192.5260  176.4500  146.4320 C   0  0  1  0  0  3  0  0  0  0  0  0
  194.6560  175.2950  146.5130 C   0  0  0  0  0  2  0  0  0  0  0  0
  186.6480  176.6970  143.3590 C   0  0  0  0  0  0  0  0  0  0  0  0
  190.0670  177.1020  146.1650 C   0  0  0  0  0  0  0  0  0  0  0  0
  189.0450  177.0890  143.9460 C   0  0  0  0  0  0  0  0  0  0  0  0
  188.2900  177.1090  141.5090 C   0  0  0  0  0  1  0  0  0  0  0  0
  186.2360  175.6660  142.7630 O   0  0  0  0  0  0  0  0  0  0  0  0
  186.4950  178.2940  145.2450 C   0  0  0  0  0  2  0  0  0  0  0  0
  193.7540  175.9240  144.5230 C   0  0  2  0  0  3  0  0  0  0  0  0
  194.4200  174.4570  141.7230 C   0  0  0  0  0  2  0  0  0  0  0  0
  190.2210  176.6240  143.4440 N   0  0  0  0  0  0  0  0  0  0  0  0
  187.6530  177.7470  146.0680 C   0  0  0  0  0  2  0  0  0  0  0  0
  192.5600  175.8010  143.5630 C   0  0  1  0  0  3  0  0  0  0  0  0
  195.6360  174.7790  145.4700 C   0  0  0  0  0  2  0  0  0  0  0  0
  188.9370  177.3460  145.3490 C   0  0  0  0  0  0  0  0  0  0  0  0
  185.9120  177.2240  144.4560 N   0  0  0  0  0  2  0  0  0  0  0  0
  194.8770  174.1270  143.1240 C   0  0  0  0  0  0  0  0  0  0  0  0
  191.2680  176.6360  145.5900 C   0  0  0  0  0  0  0  0  0  0  0  0
  187.9260  177.3710  142.9680 C   0  0  1  0  0  3  0  0  0  0  0  0
  191.3240  176.4060  144.2010 C   0  0  0  0  0  0  0  0  0  0  0  0
  191.2730  177.2180  148.4100 C   0  0  0  0  0  2  0  0  0  0  0  0
  194.1430  175.9490  141.5260 C   0  0  0  0  0  2  0  0  0  0  0  0
  189.9360  177.1920  147.6730 C   0  0  0  0  0  2  0  0  0  0  0  0
  192.8370  176.4160  142.1830 C   0  0  0  0  0  2  0  0  0  0  0  0
  195.0610  175.2390  144.1370 C   0  0  1  0  0  3  0  0  0  0  0  0
  192.1710  176.1170  147.8790 C   0  0  0  0  0  2  0  0  0  0  0  0
  193.3760  175.4210  145.8320 N   0  0  2  0  0  0  0  0  0  0  0  0
  195.0850  172.8920  143.4620 N   0  0  0  0  0  0  0  0  0  0  0  0
  194.9200  171.8640  142.5590 O   0  0  0  0  0  0  0  0  0  0  0  0
  192.1870  171.1690  144.2630 O   0  0  0  0  0  0  0  0  0  0  0  0
  192.6850  171.2260  142.0970 C   0  0  0  0  0  3  0  0  0  0  0  0
  193.9530  170.8540  142.7850 C   0  0  2  0  0  3  0  0  0  0  0  0
  191.7220  171.3940  142.9820 C   0  0  0  0  0  3  0  0  0  0  0  0
  193.5620  170.8310  144.2610 C   0  0  0  0  0  2  0  0  0  0  0  0
  1 26  1  1  0  0  0
  3 16  1  0  0  0  0
  4 23  1  0  0  0  0
  5 15  1  0  0  0  0
  6 19  1  0  0  0  0
  7  3  2  0  0  0  0
  8 12  1  0  0  0  0
  9 27  1  0  0  0  0
 10 17  1  0  0  0  0
 11  5  2  0  0  0  0
 11 20  1  0  0  0  0
 13 20  1  0  0  0  0
 13  9  1  0  0  0  0
 14  2  1  0  0  0  0
 15 12  1  0  0  0  0
 15  4  2  0  0  0  0
 16  8  1  0  0  0  0
 17 28  2  0  0  0  0
 17 25  1  0  0  0  0
 18  4  1  0  0  0  0
 18  1  1  0  0  0  0
 19  3  1  0  0  0  0
 19  5  1  0  0  0  0
 20 18  2  0  0  0  0
 22 10  1  0  0  0  0
 22 24  1  0  0  0  0
 23 21  1  0  0  0  0
 24 13  1  0  0  0  0
 25  9  1  0  0  0  0
 25 14  1  0  0  0  0
 26 21  1  0  0  0  0
 27  1  1  0  0  0  0
 27  2  1  0  0  0  0
 29 32  1  0  0  0  0
 29 28  1  0  0  0  0
 31 32  1  0  0  0  0
 31 33  2  0  0  0  0
 32 34  1  0  0  0  0
 33 30  1  0  0  0  0
 34 30  1  0  0  0  0
M  END
>  <MODEL>
6

>  <REMARK>
 VINA RESULT:      -7.4      2.505      7.593
  Name = 
  2 active torsions:
  status: ('A' for Active; 'I' for Inactive)
    1  A    between atoms: N_28  and  O_29
    2  A    between atoms: O_29  and  C_32
                            x       y       z     vdW  Elec       q    Type
                         _______ _______ _______ _____ _____    ______ ____

>  <TORSDO>
F 2

$$$$
=
 OpenBabel11112418033D

 34 40  0  0  1  0  0  0  0  0999 V2000
  190.9130  172.6600  142.2330 C   0  0  1  0  0  3  0  0  0  0  0  0
  188.6570  173.5460  142.2150 C   0  0  0  0  0  2  0  0  0  0  0  0
  196.7820  172.9350  145.3230 C   0  0  0  0  0  0  0  0  0  0  0  0
  193.2460  171.8280  142.8730 C   0  0  0  0  0  0  0  0  0  0  0  0
  194.8950  173.4010  143.7530 C   0  0  0  0  0  0  0  0  0  0  0  0
  196.4380  175.2850  144.5170 C   0  0  0  0  0  1  0  0  0  0  0  0
  196.8170  173.3490  146.5130 O   0  0  0  0  0  0  0  0  0  0  0  0
  196.9640  171.0880  143.6840 C   0  0  0  0  0  2  0  0  0  0  0  0
  190.4450  174.9330  142.4440 C   0  0  2  0  0  3  0  0  0  0  0  0
  190.2870  177.8180  143.8890 C   0  0  0  0  0  2  0  0  0  0  0  0
  193.9470  174.3770  143.6900 N   0  0  0  0  0  0  0  0  0  0  0  0
  195.4740  170.8610  143.4680 C   0  0  0  0  0  2  0  0  0  0  0  0
  191.6800  175.3000  143.2800 C   0  0  1  0  0  3  0  0  0  0  0  0
  188.0470  174.9290  142.3830 C   0  0  0  0  0  2  0  0  0  0  0  0
  194.5600  172.0750  143.3370 C   0  0  0  0  0  0  0  0  0  0  0  0
  197.1880  171.6060  145.0220 N   0  0  0  0  0  2  0  0  0  0  0  0
  189.2220  176.7600  143.7140 C   0  0  0  0  0  0  0  0  0  0  0  0
  192.3080  172.8790  142.8120 C   0  0  0  0  0  0  0  0  0  0  0  0
  196.2820  173.7980  144.2070 C   0  0  1  0  0  3  0  0  0  0  0  0
  192.6900  174.1700  143.2260 C   0  0  0  0  0  0  0  0  0  0  0  0
  191.4970  170.3030  141.8140 C   0  0  0  0  0  2  0  0  0  0  0  0
  191.3230  177.8070  142.7630 C   0  0  0  0  0  2  0  0  0  0  0  0
  192.8050  170.4040  142.5940 C   0  0  0  0  0  2  0  0  0  0  0  0
  192.3110  176.6370  142.8590 C   0  0  0  0  0  2  0  0  0  0  0  0
  189.2410  175.8690  142.4880 C   0  0  1  0  0  3  0  0  0  0  0  0
  190.4580  171.2170  142.4350 C   0  0  0  0  0  2  0  0  0  0  0  0
  189.9760  173.6130  142.8290 N   0  0  2  0  0  0  0  0  0  0  0  0
  188.3120  176.6030  144.6260 N   0  0  0  0  0  0  0  0  0  0  0  0
  188.2780  177.3980  145.7500 O   0  0  0  0  0  0  0  0  0  0  0  0
  189.9020  174.9380  147.2220 O   0  0  0  0  0  0  0  0  0  0  0  0
  190.0660  177.1540  147.2860 C   0  0  0  0  0  3  0  0  0  0  0  0
  188.6280  176.8720  147.0170 C   0  0  2  0  0  3  0  0  0  0  0  0
  190.7380  176.0250  147.3890 C   0  0  0  0  0  3  0  0  0  0  0  0
  188.5670  175.3460  146.9800 C   0  0  0  0  0  2  0  0  0  0  0  0
  1 26  1  1  0  0  0
  1 18  1  0  0  0  0
  1 27  1  0  0  0  0
  2 14  1  0  0  0  0
  2 27  1  0  0  0  0
  3  7  2  0  0  0  0
  4 15  1  0  0  0  0
  5 19  1  0  0  0  0
  8 16  1  0  0  0  0
  9 25  1  0  0  0  0
  9 27  1  0  0  0  0
  9 13  1  0  0  0  0
 11  5  1  0  0  0  0
 12  8  1  0  0  0  0
 14 25  1  0  0  0  0
 15 12  1  0  0  0  0
 15  5  2  0  0  0  0
 16  3  1  0  0  0  0
 17 10  1  0  0  0  0
 17 28  2  0  0  0  0
 18  4  2  0  0  0  0
 18 20  1  0  0  0  0
 19  6  1  0  0  0  0
 19  3  1  0  0  0  0
 20 13  1  0  0  0  0
 20 11  2  0  0  0  0
 21 26  1  0  0  0  0
 21 23  1  0  0  0  0
 22 24  1  0  0  0  0
 22 10  1  0  0  0  0
 23  4  1  0  0  0  0
 24 13  1  0  0  0  0
 25 17  1  0  0  0  0
 28 29  1  0  0  0  0
 29 32  1  0  0  0  0
 30 33  1  0  0  0  0
 31 33  2  0  0  0  0
 32 31  1  0  0  0  0
 34 32  1  0  0  0  0
 34 30  1  0  0  0  0
M  END
>  <MODEL>
7

>  <REMARK>
 VINA RESULT:      -7.2      3.070      4.827
  Name = 
  2 active torsions:
  status: ('A' for Active; 'I' for Inactive)
    1  A    between atoms: N_28  and  O_29
    2  A    between atoms: O_29  and  C_32
                            x       y       z     vdW  Elec       q    Type
                         _______ _______ _______ _____ _____    ______ ____

>  <TORSDO>
F 2

$$$$
=
 OpenBabel11112418033D

 34 40  0  0  1  0  0  0  0  0999 V2000
  188.6280  176.4630  146.8810 C   0  0  1  0  0  3  0  0  0  0  0  0
  190.4570  175.2870  147.9530 C   0  0  0  0  0  2  0  0  0  0  0  0
  185.7450  177.7580  141.0440 C   0  0  0  0  0  0  0  0  0  0  0  0
  186.7330  177.2240  145.3420 C   0  0  0  0  0  0  0  0  0  0  0  0
  187.2320  177.8990  143.0470 C   0  0  0  0  0  0  0  0  0  0  0  0
  188.0660  178.6650  140.7610 C   0  0  0  0  0  1  0  0  0  0  0  0
  185.9400  176.9620  140.0860 O   0  0  0  0  0  0  0  0  0  0  0  0
  184.2510  178.7220  142.7670 C   0  0  0  0  0  2  0  0  0  0  0  0
  190.8110  176.5030  146.0650 C   0  0  2  0  0  3  0  0  0  0  0  0
  193.2280  175.9250  144.0010 C   0  0  0  0  0  2  0  0  0  0  0  0
  188.5350  177.5770  143.2720 N   0  0  0  0  0  0  0  0  0  0  0  0
  184.7730  177.9260  143.9560 C   0  0  0  0  0  2  0  0  0  0  0  0
  190.4510  176.7010  144.5840 C   0  0  1  0  0  3  0  0  0  0  0  0
  191.9310  175.0830  147.6390 C   0  0  0  0  0  2  0  0  0  0  0  0
  186.2790  177.7280  144.0990 C   0  0  0  0  0  0  0  0  0  0  0  0
  184.4300  177.9500  141.5500 N   0  0  0  0  0  2  0  0  0  0  0  0
  192.8190  175.1800  145.2510 C   0  0  0  0  0  0  0  0  0  0  0  0
  188.0980  176.9230  145.5260 C   0  0  0  0  0  0  0  0  0  0  0  0
  186.8760  178.4870  141.7000 C   0  0  1  0  0  3  0  0  0  0  0  0
  188.9980  177.1170  144.4600 C   0  0  0  0  0  0  0  0  0  0  0  0
  186.3460  176.6350  147.7930 C   0  0  0  0  0  2  0  0  0  0  0  0
  192.8790  177.4140  144.0580 C   0  0  0  0  0  2  0  0  0  0  0  0
  185.7260  176.8620  146.4170 C   0  0  0  0  0  2  0  0  0  0  0  0
  191.3820  177.6930  143.8700 C   0  0  0  0  0  2  0  0  0  0  0  0
  192.1850  175.9340  146.4020 C   0  0  1  0  0  3  0  0  0  0  0  0
  187.5510  175.7220  147.6670 C   0  0  0  0  0  2  0  0  0  0  0  0
  189.8240  175.6410  146.6910 N   0  0  2  0  0  0  0  0  0  0  0  0
  192.9880  173.8960  145.3210 N   0  0  0  0  0  0  0  0  0  0  0  0
  193.5590  173.1890  144.2850 O   0  0  0  0  0  0  0  0  0  0  0  0
  190.4800  172.4310  143.3850 O   0  0  0  0  0  0  0  0  0  0  0  0
  192.3460  172.8950  142.2700 C   0  0  0  0  0  3  0  0  0  0  0  0
  192.7940  172.2580  143.5400 C   0  0  2  0  0  3  0  0  0  0  0  0
  191.0300  172.9690  142.2380 C   0  0  0  0  0  3  0  0  0  0  0  0
  191.4830  171.9620  144.2680 C   0  0  0  0  0  2  0  0  0  0  0  0
  1 26  1  6  0  0  0
  3 16  1  0  0  0  0
  3 19  1  0  0  0  0
  4 18  1  0  0  0  0
  4 23  1  0  0  0  0
  5 11  2  0  0  0  0
  5 15  1  0  0  0  0
  6 19  1  0  0  0  0
  7  3  2  0  0  0  0
  8 12  1  0  0  0  0
  9 25  1  0  0  0  0
  9 27  1  0  0  0  0
 10 22  1  0  0  0  0
 10 17  1  0  0  0  0
 11 20  1  0  0  0  0
 12 15  1  0  0  0  0
 13  9  1  0  0  0  0
 14  2  1  0  0  0  0
 15  4  2  0  0  0  0
 16  8  1  0  0  0  0
 17 28  2  0  0  0  0
 17 25  1  0  0  0  0
 18  1  1  0  0  0  0
 19  5  1  0  0  0  0
 20 13  1  0  0  0  0
 20 18  2  0  0  0  0
 23 21  1  0  0  0  0
 24 22  1  0  0  0  0
 24 13  1  0  0  0  0
 25 14  1  0  0  0  0
 26 21  1  0  0  0  0
 27  1  1  0  0  0  0
 27  2  1  0  0  0  0
 29 28  1  0  0  0  0
 30 34  1  0  0  0  0
 31 32  1  0  0  0  0
 32 34  1  0  0  0  0
 32 29  1  0  0  0  0
 33 31  2  0  0  0  0
 33 30  1  0  0  0  0
M  END
>  <MODEL>
8

>  <REMARK>
 VINA RESULT:      -7.2      2.752      7.734
  Name = 
  2 active torsions:
  status: ('A' for Active; 'I' for Inactive)
    1  A    between atoms: N_28  and  O_29
    2  A    between atoms: O_29  and  C_32
                            x       y       z     vdW  Elec       q    Type
                         _______ _______ _______ _____ _____    ______ ____

>  <TORSDO>
F 2

$$$$
=
 OpenBabel11112418033D

 34 40  0  0  1  0  0  0  0  0999 V2000
  193.7670  174.4490  142.0680 C   0  0  1  0  0  3  0  0  0  0  0  0
  194.2140  175.1550  144.3440 C   0  0  0  0  0  2  0  0  0  0  0  0
  189.0540  173.9080  137.4240 C   0  0  0  0  0  0  0  0  0  0  0  0
  192.8660  174.1650  139.6910 C   0  0  0  0  0  0  0  0  0  0  0  0
  190.5690  173.4070  139.3480 C   0  0  0  0  0  0  0  0  0  0  0  0
  188.1910  172.4830  139.2990 C   0  0  0  0  0  1  0  0  0  0  0  0
  188.0340  174.6420  137.5140 O   0  0  0  0  0  0  0  0  0  0  0  0
  191.1810  173.3100  136.3060 C   0  0  0  0  0  2  0  0  0  0  0  0
  192.3790  173.9030  143.8580 C   0  0  2  0  0  3  0  0  0  0  0  0
  189.6920  173.9110  145.6520 C   0  0  0  0  0  2  0  0  0  0  0  0
  190.4010  173.4120  140.6990 N   0  0  0  0  0  0  0  0  0  0  0  0
  192.1270  173.9530  137.3120 C   0  0  0  0  0  2  0  0  0  0  0  0
  191.0710  173.8050  143.0560 C   0  0  1  0  0  3  0  0  0  0  0  0
  193.4890  175.0090  145.6730 C   0  0  0  0  0  2  0  0  0  0  0  0
  191.8320  173.7910  138.8000 C   0  0  0  0  0  0  0  0  0  0  0  0
  189.9180  174.0270  136.3010 N   0  0  0  0  0  2  0  0  0  0  0  0
  190.9580  174.7220  145.7970 C   0  0  0  0  0  0  0  0  0  0  0  0
  192.6440  174.1360  141.0830 C   0  0  0  0  0  0  0  0  0  0  0  0
  189.4120  172.9290  138.4990 C   0  0  1  0  0  3  0  0  0  0  0  0
  191.3830  173.7430  141.5730 C   0  0  0  0  0  0  0  0  0  0  0  0
  195.2880  174.8120  140.1640 C   0  0  0  0  0  2  0  0  0  0  0  0
  189.9340  172.5450  145.0050 C   0  0  0  0  0  2  0  0  0  0  0  0
  194.1550  174.7460  139.1430 C   0  0  0  0  0  2  0  0  0  0  0  0
  190.1880  172.6270  143.4940 C   0  0  0  0  0  2  0  0  0  0  0  0
  192.2840  174.1310  145.3640 C   0  0  1  0  0  3  0  0  0  0  0  0
  194.7760  175.4170  141.4570 C   0  0  0  0  0  2  0  0  0  0  0  0
  193.2020  174.9690  143.3140 N   0  0  2  0  0  0  0  0  0  0  0  0
  190.9010  175.9310  146.2660 N   0  0  0  0  0  0  0  0  0  0  0  0
  189.7060  176.4900  146.6620 O   0  0  0  0  0  0  0  0  0  0  0  0
  189.1360  177.5720  143.6020 O   0  0  0  0  0  0  0  0  0  0  0  0
  187.8350  177.1050  145.3430 C   0  0  0  0  0  3  0  0  0  0  0  0
  189.1300  177.5560  145.9270 C   0  0  2  0  0  3  0  0  0  0  0  0
  187.8980  177.1320  144.0270 C   0  0  0  0  0  3  0  0  0  0  0  0
  189.9850  177.8610  144.6990 C   0  0  0  0  0  2  0  0  0  0  0  0
  1 26  1  6  0  0  0
  1 27  1  0  0  0  0
  2 14  1  0  0  0  0
  3  7  2  0  0  0  0
  3 19  1  0  0  0  0
  4 18  1  0  0  0  0
  5 11  2  0  0  0  0
  8 12  1  0  0  0  0
  9 25  1  0  0  0  0
 10 17  1  0  0  0  0
 11 20  1  0  0  0  0
 12 15  1  0  0  0  0
 13 24  1  0  0  0  0
 13  9  1  0  0  0  0
 15  5  1  0  0  0  0
 15  4  2  0  0  0  0
 16  8  1  0  0  0  0
 16  3  1  0  0  0  0
 17 28  2  0  0  0  0
 18 20  2  0  0  0  0
 18  1  1  0  0  0  0
 19  6  1  0  0  0  0
 19  5  1  0  0  0  0
 20 13  1  0  0  0  0
 21 26  1  0  0  0  0
 22 10  1  0  0  0  0
 23  4  1  0  0  0  0
 23 21  1  0  0  0  0
 24 22  1  0  0  0  0
 25 14  1  0  0  0  0
 25 17  1  0  0  0  0
 27  9  1  0  0  0  0
 27  2  1  0  0  0  0
 28 29  1  0  0  0  0
 30 33  1  0  0  0  0
 30 34  1  0  0  0  0
 31 32  1  0  0  0  0
 32 29  1  0  0  0  0
 33 31  2  0  0  0  0
 34 32  1  0  0  0  0
M  END
>  <MODEL>
9

>  <REMARK>
 VINA RESULT:      -7.2      2.733      4.964
  Name = 
  2 active torsions:
  status: ('A' for Active; 'I' for Inactive)
    1  A    between atoms: N_28  and  O_29
    2  A    between atoms: O_29  and  C_32
                            x       y       z     vdW  Elec       q    Type
                         _______ _______ _______ _____ _____    ______ ____

>  <TORSDO>
F 2

$$$$
