=
 OpenBabel11112416483D

 31 35  0  0  1  0  0  0  0  0999 V2000
  189.6910  174.0490  141.0640 C   0  0  0  0  0  0  0  0  0  0  0  0
  190.7930  174.9660  144.2760 C   0  0  2  0  0  3  0  0  0  0  0  0
  191.9630  175.5670  145.0310 C   0  0  0  0  0  0  0  0  0  0  0  0
  194.2150  176.4830  145.0450 C   0  0  0  0  0  0  0  0  0  0  0  0
  190.5920  175.5880  142.8810 C   0  0  1  0  0  3  0  0  0  0  0  0
  188.3500  174.7120  141.0760 C   0  0  0  0  0  2  0  0  0  0  0  0
  193.1040  176.0070  144.3440 C   0  0  0  0  0  3  0  0  0  0  0  0
  188.9490  176.2790  145.2630 C   0  0  2  0  0  3  0  0  0  0  0  0
  189.8920  173.0700  140.2990 O   0  0  0  0  0  0  0  0  0  0  0  0
  190.7750  175.1050  147.2230 C   0  0  0  0  0  2  0  0  0  0  0  0
  195.3320  176.9300  144.3540 O   0  0  0  0  0  1  0  0  0  0  0  0
  188.9780  177.1510  143.9970 C   0  0  0  0  0  2  0  0  0  0  0  0
  189.5440  174.9390  145.0640 N   0  0  2  0  0  0  0  0  0  0  0  0
  190.7700  174.5710  141.8460 N   0  0  0  0  0  2  0  0  0  0  0  0
  194.2030  176.5040  146.4410 C   0  0  0  0  0  3  0  0  0  0  0  0
  189.2660  176.3550  142.7280 C   0  0  2  0  0  3  0  0  0  0  0  0
  188.1060  175.4150  142.4030 C   0  0  0  0  0  2  0  0  0  0  0  0
  189.8030  174.2950  146.3590 C   0  0  0  0  0  2  0  0  0  0  0  0
  191.9720  175.5560  146.4420 C   0  0  0  0  0  0  0  0  0  0  0  0
  193.0830  176.0430  147.1370 C   0  0  0  0  0  3  0  0  0  0  0  0
  187.5700  176.1450  145.7080 N   0  0  0  0  0  2  0  0  0  0  0  0
  188.4760  177.7060  147.1920 O   0  0  0  0  0  1  0  0  0  0  0  0
  187.4750  176.7450  147.0340 C   0  0  1  0  0  3  0  0  0  0  0  0
  185.3190  179.1830  145.1190 C   0  0  0  0  0  0  0  0  0  0  0  0
  185.0830  176.9580  146.1990 C   0  0  0  0  0  2  0  0  0  0  0  0
  186.5510  179.3950  148.4720 O   0  0  0  0  0  0  0  0  0  0  0  0
  184.9720  179.9660  144.1970 O   0  0  0  0  0  0  0  0  0  0  0  0
  185.2860  177.7060  144.8820 C   0  0  0  0  0  2  0  0  0  0  0  0
  186.1530  178.8790  147.3960 C   0  0  0  0  0  0  0  0  0  0  0  0
  186.0990  177.3810  147.2640 C   0  0  2  0  0  3  0  0  0  0  0  0
  185.7790  179.7030  146.3320 O   0  0  0  0  0  0  0  0  0  0  0  0
  1  6  1  0  0  0  0
  1 14  1  0  0  0  0
  2  3  1  1  0  0  0
  2 13  1  0  0  0  0
  3 19  1  0  0  0  0
  4 15  2  0  0  0  0
  5 14  1  6  0  0  0
  5  2  1  0  0  0  0
  6 17  1  0  0  0  0
  7  3  2  0  0  0  0
  7  4  1  0  0  0  0
  8 21  1  6  0  0  0
  9  1  2  0  0  0  0
 11  4  1  0  0  0  0
 12  8  1  0  0  0  0
 13  8  1  0  0  0  0
 13 18  1  1  0  0  0
 15 20  1  0  0  0  0
 16 17  1  1  0  0  0
 16  5  1  0  0  0  0
 16 12  1  0  0  0  0
 18 10  1  0  0  0  0
 19 20  2  0  0  0  0
 19 10  1  0  0  0  0
 21 23  1  0  0  0  0
 23 22  1  6  0  0  0
 24 31  1  0  0  0  0
 25 30  1  0  0  0  0
 27 24  2  0  0  0  0
 28 24  1  0  0  0  0
 28 25  1  0  0  0  0
 29 26  2  0  0  0  0
 30 23  1  6  0  0  0
 30 29  1  0  0  0  0
 31 29  1  0  0  0  0
M  END
>  <MODEL>
1

>  <REMARK>
 VINA RESULT:      -8.8      0.000      0.000
  Name = 
  3 active torsions:
  status: ('A' for Active; 'I' for Inactive)
    1  A    between atoms: C_5  and  N_16
    2  A    between atoms: C_5  and  C_30
    3  A    between atoms: C_10  and  N_16
                            x       y       z     vdW  Elec       q    Type
                         _______ _______ _______ _____ _____    ______ ____

>  <TORSDO>
F 3

$$$$
=
 OpenBabel11112416483D

 31 35  0  0  1  0  0  0  0  0999 V2000
  193.6890  176.4300  145.4810 C   0  0  0  0  0  0  0  0  0  0  0  0
  190.6860  176.2120  143.6610 C   0  0  2  0  0  3  0  0  0  0  0  0
  189.9990  175.4540  142.5420 C   0  0  0  0  0  0  0  0  0  0  0  0
  190.0470  173.7410  140.8170 C   0  0  0  0  0  0  0  0  0  0  0  0
  191.6100  175.3230  144.5150 C   0  0  1  0  0  3  0  0  0  0  0  0
  193.1260  176.4280  146.8670 C   0  0  0  0  0  2  0  0  0  0  0  0
  190.6460  174.3860  141.9030 C   0  0  0  0  0  3  0  0  0  0  0  0
  188.8850  176.1760  145.3490 C   0  0  2  0  0  3  0  0  0  0  0  0
  194.8220  176.9360  145.2730 O   0  0  0  0  0  0  0  0  0  0  0  0
  188.0260  177.0400  142.6910 C   0  0  0  0  0  2  0  0  0  0  0  0
  190.6890  172.6760  140.2030 O   0  0  0  0  0  1  0  0  0  0  0  0
  189.6340  175.0180  146.0290 C   0  0  0  0  0  2  0  0  0  0  0  0
  189.7530  177.0070  144.4850 N   0  0  2  0  0  0  0  0  0  0  0  0
  192.9930  175.7850  144.4100 N   0  0  0  0  0  2  0  0  0  0  0  0
  188.8060  174.1730  140.3470 C   0  0  0  0  0  3  0  0  0  0  0  0
  191.1500  175.1730  145.9760 C   0  0  2  0  0  3  0  0  0  0  0  0
  191.6060  176.3530  146.8340 C   0  0  0  0  0  2  0  0  0  0  0  0
  188.9390  177.8590  143.6090 C   0  0  0  0  0  2  0  0  0  0  0  0
  188.7620  175.9090  142.0390 C   0  0  0  0  0  0  0  0  0  0  0  0
  188.1640  175.2530  140.9580 C   0  0  0  0  0  3  0  0  0  0  0  0
  188.2730  177.0060  146.3760 N   0  0  0  0  0  2  0  0  0  0  0  0
  187.5140  175.6080  148.0860 O   0  0  0  0  0  1  0  0  0  0  0  0
  187.1360  176.2700  146.9170 C   0  0  1  0  0  3  0  0  0  0  0  0
  185.5300  179.1660  145.1010 C   0  0  0  0  0  0  0  0  0  0  0  0
  184.8290  177.0380  146.1750 C   0  0  0  0  0  2  0  0  0  0  0  0
  186.8960  179.0400  148.4070 O   0  0  0  0  0  0  0  0  0  0  0  0
  185.3400  180.0210  144.1980 O   0  0  0  0  0  0  0  0  0  0  0  0
  185.1510  177.7390  144.8560 C   0  0  0  0  0  2  0  0  0  0  0  0
  186.3520  178.6450  147.3430 C   0  0  0  0  0  0  0  0  0  0  0  0
  185.9520  177.2010  147.2030 C   0  0  2  0  0  3  0  0  0  0  0  0
  186.1400  179.5490  146.2990 O   0  0  0  0  0  0  0  0  0  0  0  0
  1  6  1  0  0  0  0
  2  3  1  6  0  0  0
  2 13  1  0  0  0  0
  2  5  1  0  0  0  0
  4  7  1  0  0  0  0
  5 14  1  1  0  0  0
  5 16  1  0  0  0  0
  7  3  2  0  0  0  0
  8 12  1  0  0  0  0
  8 21  1  1  0  0  0
  9  1  2  0  0  0  0
 10 18  1  0  0  0  0
 11  4  1  0  0  0  0
 13 18  1  6  0  0  0
 13  8  1  0  0  0  0
 14  1  1  0  0  0  0
 15  4  2  0  0  0  0
 15 20  1  0  0  0  0
 16 12  1  6  0  0  0
 16 17  1  0  0  0  0
 17  6  1  0  0  0  0
 19  3  1  0  0  0  0
 19 10  1  0  0  0  0
 20 19  2  0  0  0  0
 21 23  1  0  0  0  0
 23 22  1  1  0  0  0
 24 31  1  0  0  0  0
 25 30  1  0  0  0  0
 27 24  2  0  0  0  0
 28 24  1  0  0  0  0
 28 25  1  0  0  0  0
 29 26  2  0  0  0  0
 30 23  1  6  0  0  0
 30 29  1  0  0  0  0
 31 29  1  0  0  0  0
M  END
>  <MODEL>
2

>  <REMARK>
 VINA RESULT:      -8.5      1.146      4.384
  Name = 
  3 active torsions:
  status: ('A' for Active; 'I' for Inactive)
    1  A    between atoms: C_5  and  N_16
    2  A    between atoms: C_5  and  C_30
    3  A    between atoms: C_10  and  N_16
                            x       y       z     vdW  Elec       q    Type
                         _______ _______ _______ _____ _____    ______ ____

>  <TORSDO>
F 3

$$$$
=
 OpenBabel11112416483D

 31 35  0  0  1  0  0  0  0  0999 V2000
  190.3450  171.6850  142.1650 C   0  0  0  0  0  0  0  0  0  0  0  0
  191.0310  174.0300  144.6960 C   0  0  2  0  0  3  0  0  0  0  0  0
  192.1270  174.9070  145.2710 C   0  0  0  0  0  0  0  0  0  0  0  0
  194.4290  175.6880  145.2540 C   0  0  0  0  0  0  0  0  0  0  0  0
  191.1050  173.9000  143.1620 C   0  0  1  0  0  3  0  0  0  0  0  0
  189.0880  172.2870  141.6190 C   0  0  0  0  0  2  0  0  0  0  0  0
  193.3960  174.9450  144.6750 C   0  0  0  0  0  3  0  0  0  0  0  0
  189.1960  175.6780  144.5910 C   0  0  2  0  0  3  0  0  0  0  0  0
  190.5630  170.4560  142.0070 O   0  0  0  0  0  0  0  0  0  0  0  0
  190.5810  175.5790  147.1650 C   0  0  0  0  0  2  0  0  0  0  0  0
  195.6760  175.7300  144.6470 O   0  0  0  0  0  1  0  0  0  0  0  0
  189.5020  175.8280  143.0920 C   0  0  0  0  0  2  0  0  0  0  0  0
  189.6800  174.4030  145.1630 N   0  0  2  0  0  0  0  0  0  0  0  0
  191.3380  172.5070  142.7850 N   0  0  0  0  0  2  0  0  0  0  0  0
  194.2070  176.3820  146.4440 C   0  0  0  0  0  3  0  0  0  0  0  0
  189.8990  174.5130  142.4280 C   0  0  2  0  0  3  0  0  0  0  0  0
  188.7160  173.5480  142.3850 C   0  0  0  0  0  2  0  0  0  0  0  0
  189.6760  174.4630  146.6300 C   0  0  0  0  0  2  0  0  0  0  0  0
  191.9200  175.5810  146.4930 C   0  0  0  0  0  0  0  0  0  0  0  0
  192.9550  176.3300  147.0610 C   0  0  0  0  0  3  0  0  0  0  0  0
  187.7590  175.7940  144.7910 N   0  0  0  0  0  2  0  0  0  0  0  0
  186.0760  176.4920  143.3290 O   0  0  0  0  0  1  0  0  0  0  0  0
  187.2800  176.8680  143.9290 C   0  0  1  0  0  3  0  0  0  0  0  0
  184.5670  178.2570  146.1590 C   0  0  0  0  0  0  0  0  0  0  0  0
  187.0300  177.9340  146.2230 C   0  0  0  0  0  2  0  0  0  0  0  0
  185.9880  179.6470  143.1830 O   0  0  0  0  0  0  0  0  0  0  0  0
  183.4790  178.3040  146.7880 O   0  0  0  0  0  0  0  0  0  0  0  0
  185.6740  177.3860  146.6670 C   0  0  0  0  0  2  0  0  0  0  0  0
  185.9060  178.9760  144.2450 C   0  0  0  0  0  0  0  0  0  0  0  0
  187.0890  178.1720  144.7120 C   0  0  2  0  0  3  0  0  0  0  0  0
  184.7110  178.9750  144.9690 O   0  0  0  0  0  0  0  0  0  0  0  0
  1 14  1  0  0  0  0
  2 13  1  0  0  0  0
  2  3  1  6  0  0  0
  3 19  1  0  0  0  0
  4 15  2  0  0  0  0
  5 14  1  1  0  0  0
  5  2  1  0  0  0  0
  6  1  1  0  0  0  0
  6 17  1  0  0  0  0
  7  4  1  0  0  0  0
  7  3  2  0  0  0  0
  8 21  1  6  0  0  0
  8 13  1  0  0  0  0
  9  1  2  0  0  0  0
 11  4  1  0  0  0  0
 12  8  1  0  0  0  0
 13 18  1  1  0  0  0
 15 20  1  0  0  0  0
 16 17  1  1  0  0  0
 16 12  1  0  0  0  0
 16  5  1  0  0  0  0
 18 10  1  0  0  0  0
 19 20  2  0  0  0  0
 19 10  1  0  0  0  0
 23 22  1  1  0  0  0
 23 21  1  0  0  0  0
 24 28  1  0  0  0  0
 24 27  2  0  0  0  0
 25 28  1  0  0  0  0
 26 29  2  0  0  0  0
 29 30  1  0  0  0  0
 29 31  1  0  0  0  0
 30 23  1  6  0  0  0
 30 25  1  0  0  0  0
 31 24  1  0  0  0  0
M  END
>  <MODEL>
3

>  <REMARK>
 VINA RESULT:      -8.5      1.660      2.241
  Name = 
  3 active torsions:
  status: ('A' for Active; 'I' for Inactive)
    1  A    between atoms: C_5  and  N_16
    2  A    between atoms: C_5  and  C_30
    3  A    between atoms: C_10  and  N_16
                            x       y       z     vdW  Elec       q    Type
                         _______ _______ _______ _____ _____    ______ ____

>  <TORSDO>
F 3

$$$$
=
 OpenBabel11112416483D

 31 35  0  0  1  0  0  0  0  0999 V2000
  192.6870  175.7140  146.7550 C   0  0  0  0  0  0  0  0  0  0  0  0
  190.4950  175.3530  144.0280 C   0  0  2  0  0  3  0  0  0  0  0  0
  189.9100  174.3340  143.0690 C   0  0  0  0  0  0  0  0  0  0  0  0
  189.7580  172.0470  142.2590 C   0  0  0  0  0  0  0  0  0  0  0  0
  190.7060  174.7940  145.4480 C   0  0  1  0  0  3  0  0  0  0  0  0
  191.8030  176.5050  147.6660 C   0  0  0  0  0  2  0  0  0  0  0  0
  190.2300  172.9740  143.1920 C   0  0  0  0  0  3  0  0  0  0  0  0
  188.4310  176.5460  144.6700 C   0  0  2  0  0  3  0  0  0  0  0  0
  193.9360  175.7820  146.8910 O   0  0  0  0  0  0  0  0  0  0  0  0
  188.7770  176.2040  141.7860 C   0  0  0  0  0  2  0  0  0  0  0  0
  190.0690  170.7020  142.4000 O   0  0  0  0  0  1  0  0  0  0  0  0
  188.4320  175.7180  145.9650 C   0  0  0  0  0  2  0  0  0  0  0  0
  189.7630  176.6360  144.0320 N   0  0  2  0  0  0  0  0  0  0  0  0
  192.1260  174.8160  145.7930 N   0  0  0  0  0  2  0  0  0  0  0  0
  188.9800  172.4740  141.1830 C   0  0  0  0  0  3  0  0  0  0  0  0
  189.8320  175.4730  146.5180 C   0  0  2  0  0  3  0  0  0  0  0  0
  190.4560  176.7770  147.0110 C   0  0  0  0  0  2  0  0  0  0  0  0
  189.6400  177.1270  142.6530 C   0  0  0  0  0  2  0  0  0  0  0  0
  189.1540  174.7640  141.9590 C   0  0  0  0  0  0  0  0  0  0  0  0
  188.6770  173.8300  141.0350 C   0  0  0  0  0  3  0  0  0  0  0  0
  187.9370  177.8820  144.9680 N   0  0  0  0  0  2  0  0  0  0  0  0
  185.8560  177.9320  146.0290 O   0  0  0  0  0  1  0  0  0  0  0  0
  186.4900  177.8670  144.7860 C   0  0  1  0  0  3  0  0  0  0  0  0
  183.6070  178.4060  142.4070 C   0  0  0  0  0  0  0  0  0  0  0  0
  184.6590  179.5720  144.3320 C   0  0  0  0  0  2  0  0  0  0  0  0
  187.1250  178.6780  141.8060 O   0  0  0  0  0  0  0  0  0  0  0  0
  182.5630  178.1470  141.7550 O   0  0  0  0  0  0  0  0  0  0  0  0
  183.5120  178.6720  143.8770 C   0  0  0  0  0  2  0  0  0  0  0  0
  186.0340  178.6960  142.4330 C   0  0  0  0  0  0  0  0  0  0  0  0
  186.0240  179.0280  143.9010 C   0  0  2  0  0  3  0  0  0  0  0  0
  184.8470  178.3910  141.7620 O   0  0  0  0  0  0  0  0  0  0  0  0
  1  9  2  0  0  0  0
  1  6  1  0  0  0  0
  2  3  1  6  0  0  0
  2 13  1  0  0  0  0
  2  5  1  0  0  0  0
  3  7  1  0  0  0  0
  4 11  1  0  0  0  0
  4  7  2  0  0  0  0
  5 14  1  1  0  0  0
  5 16  1  0  0  0  0
  8 21  1  1  0  0  0
  8 12  1  0  0  0  0
 10 19  1  0  0  0  0
 10 18  1  0  0  0  0
 13 18  1  6  0  0  0
 13  8  1  0  0  0  0
 14  1  1  0  0  0  0
 15  4  1  0  0  0  0
 16 12  1  6  0  0  0
 16 17  1  0  0  0  0
 17  6  1  0  0  0  0
 19  3  2  0  0  0  0
 20 15  2  0  0  0  0
 20 19  1  0  0  0  0
 23 21  1  0  0  0  0
 23 22  1  1  0  0  0
 24 28  1  0  0  0  0
 26 29  2  0  0  0  0
 27 24  2  0  0  0  0
 28 25  1  0  0  0  0
 29 30  1  0  0  0  0
 30 25  1  0  0  0  0
 30 23  1  1  0  0  0
 31 24  1  0  0  0  0
 31 29  1  0  0  0  0
M  END
>  <MODEL>
4

>  <REMARK>
 VINA RESULT:      -8.2      2.053      5.023
  Name = 
  3 active torsions:
  status: ('A' for Active; 'I' for Inactive)
    1  A    between atoms: C_5  and  N_16
    2  A    between atoms: C_5  and  C_30
    3  A    between atoms: C_10  and  N_16
                            x       y       z     vdW  Elec       q    Type
                         _______ _______ _______ _____ _____    ______ ____

>  <TORSDO>
F 3

$$$$
=
 OpenBabel11112416483D

 31 35  0  0  1  0  0  0  0  0999 V2000
  187.0490  176.4890  139.9900 C   0  0  0  0  0  0  0  0  0  0  0  0
  188.1550  176.8230  143.3130 C   0  0  2  0  0  3  0  0  0  0  0  0
  187.6720  177.0100  144.7390 C   0  0  0  0  0  0  0  0  0  0  0  0
  185.8560  177.3100  146.3260 C   0  0  0  0  0  0  0  0  0  0  0  0
  187.2180  175.9370  142.4700 C   0  0  1  0  0  3  0  0  0  0  0  0
  187.8360  175.2780  139.6000 C   0  0  0  0  0  2  0  0  0  0  0  0
  186.3000  177.0550  145.0260 C   0  0  0  0  0  3  0  0  0  0  0  0
  189.7740  174.9930  143.6630 C   0  0  2  0  0  3  0  0  0  0  0  0
  186.6520  177.2840  139.1000 O   0  0  0  0  0  0  0  0  0  0  0  0
  190.0760  177.2380  145.5130 C   0  0  0  0  0  2  0  0  0  0  0  0
  184.4960  177.3370  146.6020 O   0  0  0  0  0  1  0  0  0  0  0  0
  188.6960  174.0270  143.1460 C   0  0  0  0  0  2  0  0  0  0  0  0
  189.5650  176.3910  143.2270 N   0  0  2  0  0  0  0  0  0  0  0  0
  186.6690  176.7040  141.3530 N   0  0  0  0  0  2  0  0  0  0  0  0
  186.7790  177.5430  147.3460 C   0  0  0  0  0  3  0  0  0  0  0  0
  187.8590  174.6140  142.0140 C   0  0  2  0  0  3  0  0  0  0  0  0
  188.7050  174.8020  140.7550 C   0  0  0  0  0  2  0  0  0  0  0  0
  190.4000  177.3060  144.0170 C   0  0  0  0  0  2  0  0  0  0  0  0
  188.5990  177.2830  145.7660 C   0  0  0  0  0  0  0  0  0  0  0  0
  188.1480  177.5280  147.0670 C   0  0  0  0  0  3  0  0  0  0  0  0
  191.0770  174.5270  143.2130 N   0  0  0  0  0  2  0  0  0  0  0  0
  191.5320  172.7050  144.6020 O   0  0  0  0  0  1  0  0  0  0  0  0
  191.8060  174.0560  144.3850 C   0  0  1  0  0  3  0  0  0  0  0  0
  194.2720  176.6590  145.5720 C   0  0  0  0  0  0  0  0  0  0  0  0
  194.0540  174.1840  145.5660 C   0  0  0  0  0  2  0  0  0  0  0  0
  193.5470  175.5750  142.2380 O   0  0  0  0  0  0  0  0  0  0  0  0
  194.6950  177.6940  146.1490 O   0  0  0  0  0  0  0  0  0  0  0  0
  193.8940  175.4620  146.3870 C   0  0  0  0  0  2  0  0  0  0  0  0
  193.6670  175.5290  143.4900 C   0  0  0  0  0  0  0  0  0  0  0  0
  193.3170  174.2640  144.2260 C   0  0  2  0  0  3  0  0  0  0  0  0
  194.1100  176.6590  144.1830 O   0  0  0  0  0  0  0  0  0  0  0  0
  1 14  1  0  0  0  0
  2  3  1  1  0  0  0
  3  7  2  0  0  0  0
  3 19  1  0  0  0  0
  4 11  1  0  0  0  0
  4 15  2  0  0  0  0
  5 14  1  6  0  0  0
  5  2  1  0  0  0  0
  6  1  1  0  0  0  0
  6 17  1  0  0  0  0
  7  4  1  0  0  0  0
  8 21  1  6  0  0  0
  9  1  2  0  0  0  0
 10 19  1  0  0  0  0
 12  8  1  0  0  0  0
 13  2  1  0  0  0  0
 13  8  1  0  0  0  0
 13 18  1  1  0  0  0
 16 17  1  6  0  0  0
 16  5  1  0  0  0  0
 16 12  1  0  0  0  0
 18 10  1  0  0  0  0
 19 20  2  0  0  0  0
 20 15  1  0  0  0  0
 21 23  1  0  0  0  0
 23 22  1  6  0  0  0
 24 27  2  0  0  0  0
 24 28  1  0  0  0  0
 25 28  1  0  0  0  0
 26 29  2  0  0  0  0
 29 31  1  0  0  0  0
 29 30  1  0  0  0  0
 30 23  1  1  0  0  0
 30 25  1  0  0  0  0
 31 24  1  0  0  0  0
M  END
>  <MODEL>
5

>  <REMARK>
 VINA RESULT:      -8.0      2.145      6.477
  Name = 
  3 active torsions:
  status: ('A' for Active; 'I' for Inactive)
    1  A    between atoms: C_5  and  N_16
    2  A    between atoms: C_5  and  C_30
    3  A    between atoms: C_10  and  N_16
                            x       y       z     vdW  Elec       q    Type
                         _______ _______ _______ _____ _____    ______ ____

>  <TORSDO>
F 3

$$$$
=
 OpenBabel11112416483D

 31 35  0  0  1  0  0  0  0  0999 V2000
  191.6320  170.4430  142.4310 C   0  0  0  0  0  0  0  0  0  0  0  0
  191.5030  173.3030  144.4760 C   0  0  2  0  0  3  0  0  0  0  0  0
  192.3680  174.3410  145.1660 C   0  0  0  0  0  0  0  0  0  0  0  0
  194.5650  175.2250  145.7140 C   0  0  0  0  0  0  0  0  0  0  0  0
  192.0670  172.8570  143.1130 C   0  0  1  0  0  3  0  0  0  0  0  0
  190.6300  170.8460  141.3970 C   0  0  0  0  0  2  0  0  0  0  0  0
  193.7620  174.3220  145.0130 C   0  0  0  0  0  3  0  0  0  0  0  0
  189.8280  174.7890  143.4360 C   0  0  2  0  0  3  0  0  0  0  0  0
  191.8700  169.2220  142.6220 O   0  0  0  0  0  0  0  0  0  0  0  0
  190.3040  175.3110  146.2740 C   0  0  0  0  0  2  0  0  0  0  0  0
  195.9420  175.2070  145.5430 O   0  0  0  0  0  1  0  0  0  0  0  0
  190.6050  174.6360  142.1180 C   0  0  0  0  0  2  0  0  0  0  0  0
  190.0800  173.6910  144.3950 N   0  0  2  0  0  0  0  0  0  0  0  0
  192.3860  171.4310  143.1410 N   0  0  0  0  0  2  0  0  0  0  0  0
  193.9820  176.1410  146.5910 C   0  0  0  0  0  3  0  0  0  0  0  0
  191.1730  173.2350  141.9180 C   0  0  2  0  0  3  0  0  0  0  0  0
  190.0510  172.2180  141.7100 C   0  0  0  0  0  2  0  0  0  0  0  0
  189.6030  174.0600  145.7340 C   0  0  0  0  0  2  0  0  0  0  0  0
  191.7890  175.2440  146.0810 C   0  0  0  0  0  0  0  0  0  0  0  0
  192.5970  176.1510  146.7720 C   0  0  0  0  0  3  0  0  0  0  0  0
  188.4060  174.8650  143.1360 N   0  0  0  0  0  2  0  0  0  0  0  0
  188.1030  176.8210  141.8960 O   0  0  0  0  0  1  0  0  0  0  0  0
  188.0220  176.2710  143.1770 C   0  0  1  0  0  3  0  0  0  0  0  0
  185.8560  179.2430  144.0380 C   0  0  0  0  0  0  0  0  0  0  0  0
  185.6730  177.1370  142.7320 C   0  0  0  0  0  2  0  0  0  0  0  0
  186.8840  176.5100  146.1090 O   0  0  0  0  0  0  0  0  0  0  0  0
  185.5230  180.4480  144.1750 O   0  0  0  0  0  0  0  0  0  0  0  0
  185.9120  178.6450  142.6670 C   0  0  0  0  0  2  0  0  0  0  0  0
  186.5740  177.1450  145.0670 C   0  0  0  0  0  0  0  0  0  0  0  0
  186.6040  176.4490  143.7330 C   0  0  2  0  0  3  0  0  0  0  0  0
  186.2200  178.4930  145.1610 O   0  0  0  0  0  0  0  0  0  0  0  0
  1  9  2  0  0  0  0
  1 14  1  0  0  0  0
  2  3  1  6  0  0  0
  3 19  1  0  0  0  0
  4 15  2  0  0  0  0
  5 14  1  1  0  0  0
  5  2  1  0  0  0  0
  6 17  1  0  0  0  0
  6  1  1  0  0  0  0
  7  3  2  0  0  0  0
  7  4  1  0  0  0  0
  8 21  1  6  0  0  0
  8 13  1  0  0  0  0
 11  4  1  0  0  0  0
 12  8  1  0  0  0  0
 13  2  1  0  0  0  0
 13 18  1  1  0  0  0
 15 20  1  0  0  0  0
 16 17  1  1  0  0  0
 16 12  1  0  0  0  0
 16  5  1  0  0  0  0
 18 10  1  0  0  0  0
 19 10  1  0  0  0  0
 19 20  2  0  0  0  0
 21 23  1  0  0  0  0
 23 22  1  6  0  0  0
 24 27  2  0  0  0  0
 24 31  1  0  0  0  0
 25 30  1  0  0  0  0
 28 25  1  0  0  0  0
 28 24  1  0  0  0  0
 29 31  1  0  0  0  0
 29 26  2  0  0  0  0
 30 23  1  6  0  0  0
 30 29  1  0  0  0  0
M  END
>  <MODEL>
6

>  <REMARK>
 VINA RESULT:      -7.9      2.277      2.939
  Name = 
  3 active torsions:
  status: ('A' for Active; 'I' for Inactive)
    1  A    between atoms: C_5  and  N_16
    2  A    between atoms: C_5  and  C_30
    3  A    between atoms: C_10  and  N_16
                            x       y       z     vdW  Elec       q    Type
                         _______ _______ _______ _____ _____    ______ ____

>  <TORSDO>
F 3

$$$$
=
 OpenBabel11112416483D

 31 35  0  0  1  0  0  0  0  0999 V2000
  186.7190  176.9400  144.8990 C   0  0  0  0  0  0  0  0  0  0  0  0
  188.9210  174.8950  143.0700 C   0  0  2  0  0  3  0  0  0  0  0  0
  189.2010  174.3520  141.6820 C   0  0  0  0  0  0  0  0  0  0  0  0
  188.6060  174.1650  139.3320 C   0  0  0  0  0  0  0  0  0  0  0  0
  188.3670  176.3320  143.0560 C   0  0  1  0  0  3  0  0  0  0  0  0
  187.7230  177.7970  145.6040 C   0  0  0  0  0  2  0  0  0  0  0  0
  188.4000  174.7300  140.5940 C   0  0  0  0  0  3  0  0  0  0  0  0
  191.1920  175.6440  143.6850 C   0  0  2  0  0  3  0  0  0  0  0  0
  185.5720  176.7940  145.3940 O   0  0  0  0  0  0  0  0  0  0  0  0
  191.0680  172.9210  142.6280 C   0  0  0  0  0  2  0  0  0  0  0  0
  187.8170  174.5580  138.2610 O   0  0  0  0  0  1  0  0  0  0  0  0
  190.7490  177.0720  143.3230 C   0  0  0  0  0  2  0  0  0  0  0  0
  190.0620  174.7420  143.9970 N   0  0  2  0  0  0  0  0  0  0  0  0
  187.0210  176.3600  143.6270 N   0  0  0  0  0  2  0  0  0  0  0  0
  189.6000  173.2030  139.1520 C   0  0  0  0  0  3  0  0  0  0  0  0
  189.3020  177.3650  143.7090 C   0  0  2  0  0  3  0  0  0  0  0  0
  189.1400  177.3900  145.2290 C   0  0  0  0  0  2  0  0  0  0  0  0
  190.5060  173.3420  143.9900 C   0  0  0  0  0  2  0  0  0  0  0  0
  190.1800  173.3520  141.5010 C   0  0  0  0  0  0  0  0  0  0  0  0
  190.3870  172.8000  140.2330 C   0  0  0  0  0  3  0  0  0  0  0  0
  192.0990  175.7090  144.8210 N   0  0  0  0  0  2  0  0  0  0  0  0
  193.9640  176.9590  145.4660 O   0  0  0  0  0  1  0  0  0  0  0  0
  193.3170  176.3740  144.3750 C   0  0  1  0  0  3  0  0  0  0  0  0
  196.2670  174.2780  145.4560 C   0  0  0  0  0  0  0  0  0  0  0  0
  194.1360  173.9730  144.2150 C   0  0  0  0  0  2  0  0  0  0  0  0
  196.0680  176.7560  142.8800 O   0  0  0  0  0  0  0  0  0  0  0  0
  197.1380  173.7890  146.2200 O   0  0  0  0  0  0  0  0  0  0  0  0
  194.8500  173.8050  145.5550 C   0  0  0  0  0  2  0  0  0  0  0  0
  195.6980  175.8520  143.6740 C   0  0  0  0  0  0  0  0  0  0  0  0
  194.2640  175.3970  143.6680 C   0  0  2  0  0  3  0  0  0  0  0  0
  196.6210  175.2930  144.5610 O   0  0  0  0  0  0  0  0  0  0  0  0
  1  9  2  0  0  0  0
  1  6  1  0  0  0  0
  2  3  1  6  0  0  0
  2 13  1  0  0  0  0
  4  7  1  0  0  0  0
  5  2  1  0  0  0  0
  5 14  1  1  0  0  0
  5 16  1  0  0  0  0
  7  3  2  0  0  0  0
  8 13  1  0  0  0  0
  8 21  1  1  0  0  0
 10 18  1  0  0  0  0
 11  4  1  0  0  0  0
 12  8  1  0  0  0  0
 13 18  1  6  0  0  0
 14  1  1  0  0  0  0
 15  4  2  0  0  0  0
 15 20  1  0  0  0  0
 16 12  1  1  0  0  0
 16 17  1  0  0  0  0
 17  6  1  0  0  0  0
 19  3  1  0  0  0  0
 19 10  1  0  0  0  0
 20 19  2  0  0  0  0
 23 21  1  0  0  0  0
 23 22  1  1  0  0  0
 24 28  1  0  0  0  0
 24 27  2  0  0  0  0
 25 28  1  0  0  0  0
 26 29  2  0  0  0  0
 29 31  1  0  0  0  0
 30 29  1  0  0  0  0
 30 25  1  0  0  0  0
 30 23  1  1  0  0  0
 31 24  1  0  0  0  0
M  END
>  <MODEL>
7

>  <REMARK>
 VINA RESULT:      -7.9      2.231      7.453
  Name = 
  3 active torsions:
  status: ('A' for Active; 'I' for Inactive)
    1  A    between atoms: C_5  and  N_16
    2  A    between atoms: C_5  and  C_30
    3  A    between atoms: C_10  and  N_16
                            x       y       z     vdW  Elec       q    Type
                         _______ _______ _______ _____ _____    ______ ____

>  <TORSDO>
F 3

$$$$
=
 OpenBabel11112416483D

 31 35  0  0  1  0  0  0  0  0999 V2000
  195.2280  176.2170  144.2520 C   0  0  0  0  0  0  0  0  0  0  0  0
  192.1770  174.7030  143.3710 C   0  0  2  0  0  3  0  0  0  0  0  0
  191.5260  173.3630  143.0870 C   0  0  0  0  0  0  0  0  0  0  0  0
  191.6870  170.9470  142.8600 C   0  0  0  0  0  0  0  0  0  0  0  0
  193.2490  174.6310  144.4750 C   0  0  1  0  0  3  0  0  0  0  0  0
  194.7480  177.0790  145.3770 C   0  0  0  0  0  2  0  0  0  0  0  0
  192.2620  172.1740  143.2020 C   0  0  0  0  0  3  0  0  0  0  0  0
  190.4920  175.6620  144.8990 C   0  0  2  0  0  3  0  0  0  0  0  0
  196.2760  176.5330  143.6320 O   0  0  0  0  0  0  0  0  0  0  0  0
  189.3850  174.5520  142.4310 C   0  0  0  0  0  2  0  0  0  0  0  0
  192.4200  169.7770  142.9930 O   0  0  0  0  0  1  0  0  0  0  0  0
  191.4140  175.2640  146.0630 C   0  0  0  0  0  2  0  0  0  0  0  0
  191.2010  175.7860  143.6070 N   0  0  2  0  0  0  0  0  0  0  0  0
  194.5570  174.9950  143.9320 N   0  0  0  0  0  2  0  0  0  0  0  0
  190.3780  170.9010  142.3790 C   0  0  0  0  0  3  0  0  0  0  0  0
  192.8940  175.4340  145.7390 C   0  0  2  0  0  3  0  0  0  0  0  0
  193.2500  176.9130  145.5850 C   0  0  0  0  0  2  0  0  0  0  0  0
  190.2410  175.8220  142.4960 C   0  0  0  0  0  2  0  0  0  0  0  0
  190.2160  173.3130  142.5650 C   0  0  0  0  0  0  0  0  0  0  0  0
  189.6440  172.0810  142.2340 C   0  0  0  0  0  3  0  0  0  0  0  0
  189.8410  176.9220  145.2270 N   0  0  0  0  0  2  0  0  0  0  0  0
  189.0230  177.8060  147.2290 O   0  0  0  0  0  1  0  0  0  0  0  0
  188.9920  176.6900  146.3900 C   0  0  1  0  0  3  0  0  0  0  0  0
  186.0480  178.7800  145.2820 C   0  0  0  0  0  0  0  0  0  0  0  0
  187.2740  176.7590  144.5170 C   0  0  0  0  0  2  0  0  0  0  0  0
  186.2970  176.4820  148.0150 O   0  0  0  0  0  0  0  0  0  0  0  0
  185.3910  179.8090  144.9800 O   0  0  0  0  0  0  0  0  0  0  0  0
  187.0840  178.2630  144.3340 C   0  0  0  0  0  2  0  0  0  0  0  0
  186.5260  177.0050  146.8930 C   0  0  0  0  0  0  0  0  0  0  0  0
  187.5470  176.3870  145.9770 C   0  0  2  0  0  3  0  0  0  0  0  0
  185.8410  178.1640  146.5200 O   0  0  0  0  0  0  0  0  0  0  0  0
  1  6  1  0  0  0  0
  2  3  1  1  0  0  0
  2 13  1  0  0  0  0
  2  5  1  0  0  0  0
  3  7  1  0  0  0  0
  4 11  1  0  0  0  0
  4  7  2  0  0  0  0
  5 14  1  6  0  0  0
  5 16  1  0  0  0  0
  6 17  1  0  0  0  0
  8 21  1  1  0  0  0
  8 12  1  0  0  0  0
  9  1  2  0  0  0  0
 10 18  1  0  0  0  0
 10 19  1  0  0  0  0
 13 18  1  6  0  0  0
 13  8  1  0  0  0  0
 14  1  1  0  0  0  0
 15  4  1  0  0  0  0
 16 17  1  6  0  0  0
 16 12  1  0  0  0  0
 19  3  2  0  0  0  0
 20 15  2  0  0  0  0
 20 19  1  0  0  0  0
 21 23  1  0  0  0  0
 23 22  1  1  0  0  0
 24 31  1  0  0  0  0
 25 30  1  0  0  0  0
 27 24  2  0  0  0  0
 28 25  1  0  0  0  0
 28 24  1  0  0  0  0
 29 26  2  0  0  0  0
 30 23  1  1  0  0  0
 30 29  1  0  0  0  0
 31 29  1  0  0  0  0
M  END
>  <MODEL>
8

>  <REMARK>
 VINA RESULT:      -7.8      2.141      4.549
  Name = 
  3 active torsions:
  status: ('A' for Active; 'I' for Inactive)
    1  A    between atoms: C_5  and  N_16
    2  A    between atoms: C_5  and  C_30
    3  A    between atoms: C_10  and  N_16
                            x       y       z     vdW  Elec       q    Type
                         _______ _______ _______ _____ _____    ______ ____

>  <TORSDO>
F 3

$$$$
=
 OpenBabel11112416483D

 31 35  0  0  1  0  0  0  0  0999 V2000
  186.7300  177.0270  145.1720 C   0  0  0  0  0  0  0  0  0  0  0  0
  188.7080  174.6210  143.5370 C   0  0  2  0  0  3  0  0  0  0  0  0
  189.0390  174.0470  142.1730 C   0  0  0  0  0  0  0  0  0  0  0  0
  188.6900  173.9950  139.7680 C   0  0  0  0  0  0  0  0  0  0  0  0
  188.4350  176.1370  143.5050 C   0  0  1  0  0  3  0  0  0  0  0  0
  187.7880  177.6750  146.0080 C   0  0  0  0  0  2  0  0  0  0  0  0
  188.4500  174.5770  141.0160 C   0  0  0  0  0  3  0  0  0  0  0  0
  190.9930  174.9260  144.4200 C   0  0  2  0  0  3  0  0  0  0  0  0
  185.5260  177.0940  145.5340 O   0  0  0  0  0  0  0  0  0  0  0  0
  190.4880  172.2830  143.2760 C   0  0  0  0  0  2  0  0  0  0  0  0
  188.1150  174.5380  138.6280 O   0  0  0  0  0  1  0  0  0  0  0  0
  190.8660  176.4150  144.0550 C   0  0  0  0  0  2  0  0  0  0  0  0
  189.6870  174.2490  144.5790 N   0  0  2  0  0  0  0  0  0  0  0  0
  187.0610  176.4110  143.9250 N   0  0  0  0  0  2  0  0  0  0  0  0
  189.5030  172.8650  139.6700 C   0  0  0  0  0  3  0  0  0  0  0  0
  189.4650  176.9700  144.2870 C   0  0  2  0  0  3  0  0  0  0  0  0
  189.1390  177.0120  145.7800 C   0  0  0  0  0  2  0  0  0  0  0  0
  189.8620  172.7910  144.5800 C   0  0  0  0  0  2  0  0  0  0  0  0
  189.8290  172.8830  142.0710 C   0  0  0  0  0  0  0  0  0  0  0  0
  190.0730  172.3120  140.8190 C   0  0  0  0  0  3  0  0  0  0  0  0
  191.7610  174.8100  145.6510 N   0  0  0  0  0  2  0  0  0  0  0  0
  193.2000  174.1000  143.9530 O   0  0  0  0  0  1  0  0  0  0  0  0
  192.9970  174.1020  145.3340 C   0  0  1  0  0  3  0  0  0  0  0  0
  195.7880  176.4120  144.2710 C   0  0  0  0  0  0  0  0  0  0  0  0
  194.1040  176.2620  146.0910 C   0  0  0  0  0  2  0  0  0  0  0  0
  195.9770  173.1570  145.7480 O   0  0  0  0  0  0  0  0  0  0  0  0
  196.4820  177.1390  143.5140 O   0  0  0  0  0  0  0  0  0  0  0  0
  194.4600  176.9060  144.7520 C   0  0  0  0  0  2  0  0  0  0  0  0
  195.5220  174.2960  145.4650 C   0  0  0  0  0  0  0  0  0  0  0  0
  194.2010  174.7350  146.0390 C   0  0  2  0  0  3  0  0  0  0  0  0
  196.2410  175.1340  144.6090 O   0  0  0  0  0  0  0  0  0  0  0  0
  1  9  2  0  0  0  0
  1  6  1  0  0  0  0
  2  3  1  6  0  0  0
  2 13  1  0  0  0  0
  4  7  1  0  0  0  0
  5  2  1  0  0  0  0
  5 14  1  1  0  0  0
  5 16  1  0  0  0  0
  7  3  2  0  0  0  0
  8 13  1  0  0  0  0
  8 21  1  1  0  0  0
 10 18  1  0  0  0  0
 11  4  1  0  0  0  0
 12  8  1  0  0  0  0
 13 18  1  6  0  0  0
 14  1  1  0  0  0  0
 15  4  2  0  0  0  0
 15 20  1  0  0  0  0
 16 12  1  1  0  0  0
 16 17  1  0  0  0  0
 17  6  1  0  0  0  0
 19  3  1  0  0  0  0
 19 10  1  0  0  0  0
 20 19  2  0  0  0  0
 23 22  1  6  0  0  0
 23 21  1  0  0  0  0
 24 31  1  0  0  0  0
 24 28  1  0  0  0  0
 27 24  2  0  0  0  0
 28 25  1  0  0  0  0
 29 26  2  0  0  0  0
 29 30  1  0  0  0  0
 30 23  1  6  0  0  0
 30 25  1  0  0  0  0
 31 29  1  0  0  0  0
M  END
>  <MODEL>
9

>  <REMARK>
 VINA RESULT:      -7.8      2.022      7.164
  Name = 
  3 active torsions:
  status: ('A' for Active; 'I' for Inactive)
    1  A    between atoms: C_5  and  N_16
    2  A    between atoms: C_5  and  C_30
    3  A    between atoms: C_10  and  N_16
                            x       y       z     vdW  Elec       q    Type
                         _______ _______ _______ _____ _____    ______ ____

>  <TORSDO>
F 3

$$$$
