=
 OpenBabel11112416263D

 30 35  0  0  1  0  0  0  0  0999 V2000
  186.5280  177.1310  143.7080 C   0  0  2  0  0  3  0  0  0  0  0  0
  184.7520  178.3860  144.9910 C   0  0  0  0  0  0  0  0  0  0  0  0
  188.7820  176.7730  147.1520 O   0  0  0  0  0  0  0  0  0  0  0  0
  187.9810  176.6520  143.7240 C   0  0  2  0  0  3  0  0  0  0  0  0
  186.3470  177.9210  142.5560 O   0  0  0  0  0  0  0  0  0  0  0  0
  187.7630  175.6450  140.1250 O   0  0  0  0  0  1  0  0  0  0  0  0
  190.7940  176.2250  142.7660 C   0  0  1  0  0  3  0  0  0  0  0  0
  187.7830  176.5290  141.2080 C   0  0  1  0  0  3  0  0  0  0  0  0
  190.7120  176.8480  144.1770 C   0  0  2  0  0  3  0  0  0  0  0  0
  190.0200  176.5440  146.5980 C   0  0  0  0  0  0  0  0  0  0  0  0
  186.3630  177.0610  141.4420 C   0  0  2  0  0  3  0  0  0  0  0  0
  188.2410  175.7920  142.4780 C   0  0  1  0  0  3  0  0  0  0  0  0
  184.1450  178.6070  146.2290 O   0  0  0  0  0  0  0  0  0  0  0  0
  192.1370  177.1660  144.5890 C   0  0  0  0  0  2  0  0  0  0  0  0
  192.4390  175.4520  142.5530 S   0  0  0  0  0  0  0  0  0  0  0  0
  184.0770  178.5450  143.9390 O   0  0  0  0  0  0  0  0  0  0  0  0
  187.7430  176.3140  146.3100 C   0  0  2  0  0  3  0  0  0  0  0  0
  184.9240  178.6740  147.4190 C   0  0  0  0  0  2  0  0  0  0  0  0
  186.2160  177.9920  144.9360 C   0  0  1  0  0  3  0  0  0  0  0  0
  188.4190  175.8920  144.9860 C   0  0  2  0  0  3  0  0  0  0  0  0
  191.0860  176.7400  147.2360 O   0  0  0  0  0  0  0  0  0  0  0  0
  189.9570  175.9750  145.2240 C   0  0  1  0  0  3  0  0  0  0  0  0
  192.9930  175.9910  144.1900 C   0  0  0  0  0  2  0  0  0  0  0  0
  189.9290  174.5610  141.2260 O   0  0  0  0  0  1  0  0  0  0  0  0
  186.0060  177.6350  147.3870 C   0  0  0  0  0  3  0  0  0  0  0  0
  186.6270  177.3200  146.2370 C   0  0  0  0  0  0  0  0  0  0  0  0
  189.6770  175.2210  142.4320 C   0  0  1  0  0  3  0  0  0  0  0  0
  185.8760  177.8210  140.2180 C   0  0  0  0  0  2  0  0  0  0  0  0
  183.6270  177.9020  140.1590 O   0  0  0  0  0  1  0  0  0  0  0  0
  184.7070  178.6110  140.5610 N   0  0  0  0  0  2  0  0  0  0  0  0
  1  5  1  6  0  0  0
  1  4  1  0  0  0  0
  1 19  1  0  0  0  0
  2 13  1  0  0  0  0
  4 20  1  0  0  0  0
  6  8  1  0  0  0  0
  7  9  1  0  0  0  0
  8 11  1  0  0  0  0
  8 12  1  0  0  0  0
  9 14  1  0  0  0  0
  9 22  1  0  0  0  0
 10  3  1  0  0  0  0
 10 21  2  0  0  0  0
 11  5  1  0  0  0  0
 12  4  1  0  0  0  0
 13 18  1  0  0  0  0
 15  7  1  0  0  0  0
 15 23  1  0  0  0  0
 16  2  2  0  0  0  0
 17  3  1  0  0  0  0
 19  2  1  0  0  0  0
 19 26  1  0  0  0  0
 20 22  1  0  0  0  0
 20 17  1  0  0  0  0
 22 10  1  0  0  0  0
 23 14  1  0  0  0  0
 24 27  1  0  0  0  0
 25 18  1  0  0  0  0
 26 17  1  0  0  0  0
 26 25  2  0  0  0  0
 27 12  1  0  0  0  0
 27  7  1  0  0  0  0
 28 30  1  0  0  0  0
 28 11  1  0  0  0  0
 29 30  1  0  0  0  0
M  END
>  <MODEL>
1

>  <REMARK>
 VINA RESULT:      -9.1      0.000      0.000
  Name = 
  2 active torsions:
  status: ('A' for Active; 'I' for Inactive)
    1  A    between atoms: C_11  and  C_28
    2  A    between atoms: C_28  and  N_30
                            x       y       z     vdW  Elec       q    Type
                         _______ _______ _______ _____ _____    ______ ____

>  <TORSDO>
F 2

$$$$
=
 OpenBabel11112416263D

 30 35  0  0  1  0  0  0  0  0999 V2000
  189.5150  175.7580  143.4470 C   0  0  2  0  0  3  0  0  0  0  0  0
  191.4300  174.3970  144.3750 C   0  0  0  0  0  0  0  0  0  0  0  0
  188.9360  177.4930  147.1510 O   0  0  0  0  0  0  0  0  0  0  0  0
  188.2910  176.6030  143.8050 C   0  0  2  0  0  3  0  0  0  0  0  0
  189.0840  174.7050  142.6150 O   0  0  0  0  0  0  0  0  0  0  0  0
  187.1960  176.6590  140.2250 O   0  0  0  0  0  1  0  0  0  0  0  0
  185.4410  177.5460  143.7790 C   0  0  1  0  0  3  0  0  0  0  0  0
  187.4720  176.0870  141.4700 C   0  0  1  0  0  3  0  0  0  0  0  0
  185.9850  177.2640  145.1980 C   0  0  2  0  0  3  0  0  0  0  0  0
  187.6350  177.9170  147.0090 C   0  0  0  0  0  0  0  0  0  0  0  0
  188.7590  175.2580  141.3620 C   0  0  2  0  0  3  0  0  0  0  0  0
  187.6930  177.1910  142.5180 C   0  0  1  0  0  3  0  0  0  0  0  0
  192.4400  174.3100  145.3340 O   0  0  0  0  0  0  0  0  0  0  0  0
  184.8170  177.4490  146.1490 C   0  0  0  0  0  2  0  0  0  0  0  0
  184.0000  178.6660  143.9060 S   0  0  0  0  0  0  0  0  0  0  0  0
  191.5860  173.8240  143.2630 O   0  0  0  0  0  0  0  0  0  0  0  0
  189.6060  177.4480  145.9060 C   0  0  2  0  0  3  0  0  0  0  0  0
  192.2090  174.7320  146.6740 C   0  0  0  0  0  2  0  0  0  0  0  0
  190.1530  175.1500  144.7010 C   0  0  1  0  0  3  0  0  0  0  0  0
  188.5300  177.7220  144.8300 C   0  0  2  0  0  3  0  0  0  0  0  0
  186.9020  178.1690  148.0000 O   0  0  0  0  0  0  0  0  0  0  0  0
  187.2280  178.1170  145.5920 C   0  0  1  0  0  3  0  0  0  0  0  0
  184.0750  178.6870  145.7160 C   0  0  0  0  0  2  0  0  0  0  0  0
  185.8670  178.5130  141.5950 O   0  0  0  0  0  1  0  0  0  0  0  0
  191.3900  175.9890  146.6860 C   0  0  0  0  0  3  0  0  0  0  0  0
  190.4180  176.1880  145.7790 C   0  0  0  0  0  0  0  0  0  0  0  0
  186.4740  178.1050  142.7860 C   0  0  1  0  0  3  0  0  0  0  0  0
  188.5800  174.1350  140.3530 C   0  0  0  0  0  2  0  0  0  0  0  0
  189.6840  172.1900  140.6070 O   0  0  0  0  0  1  0  0  0  0  0  0
  188.5860  172.8530  141.0350 N   0  0  0  0  0  2  0  0  0  0  0  0
  1  5  1  6  0  0  0
  1  4  1  0  0  0  0
  1 19  1  0  0  0  0
  2 19  1  0  0  0  0
  2 13  1  0  0  0  0
  4 20  1  0  0  0  0
  6  8  1  0  0  0  0
  7 15  1  0  0  0  0
  7  9  1  0  0  0  0
  8 12  1  0  0  0  0
  9 22  1  0  0  0  0
  9 14  1  0  0  0  0
 10  3  1  0  0  0  0
 10 21  2  0  0  0  0
 11  8  1  0  0  0  0
 11  5  1  0  0  0  0
 12 27  1  0  0  0  0
 12  4  1  0  0  0  0
 13 18  1  0  0  0  0
 15 23  1  0  0  0  0
 16  2  2  0  0  0  0
 17  3  1  0  0  0  0
 18 25  1  0  0  0  0
 19 26  1  0  0  0  0
 20 22  1  0  0  0  0
 20 17  1  0  0  0  0
 22 10  1  0  0  0  0
 23 14  1  0  0  0  0
 24 27  1  0  0  0  0
 26 17  1  0  0  0  0
 26 25  2  0  0  0  0
 27  7  1  0  0  0  0
 28 30  1  0  0  0  0
 28 11  1  0  0  0  0
 29 30  1  0  0  0  0
M  END
>  <MODEL>
2

>  <REMARK>
 VINA RESULT:      -8.5      2.681      5.577
  Name = 
  2 active torsions:
  status: ('A' for Active; 'I' for Inactive)
    1  A    between atoms: C_11  and  C_28
    2  A    between atoms: C_28  and  N_30
                            x       y       z     vdW  Elec       q    Type
                         _______ _______ _______ _____ _____    ______ ____

>  <TORSDO>
F 2

$$$$
=
 OpenBabel11112416263D

 30 35  0  0  1  0  0  0  0  0999 V2000
  186.6940  177.2170  143.8880 C   0  0  2  0  0  3  0  0  0  0  0  0
  184.5910  178.2430  142.9380 C   0  0  0  0  0  0  0  0  0  0  0  0
  187.6820  175.7530  140.1530 O   0  0  0  0  0  0  0  0  0  0  0  0
  187.8120  176.2000  143.6440 C   0  0  2  0  0  3  0  0  0  0  0  0
  186.0610  176.8790  145.1000 O   0  0  0  0  0  0  0  0  0  0  0  0
  189.0120  176.5680  147.1710 O   0  0  0  0  0  1  0  0  0  0  0  0
  189.6620  173.8980  144.1810 C   0  0  1  0  0  3  0  0  0  0  0  0
  188.1260  176.2090  146.1520 C   0  0  1  0  0  3  0  0  0  0  0  0
  188.9120  173.7850  142.8350 C   0  0  2  0  0  3  0  0  0  0  0  0
  188.5480  174.7480  140.5170 C   0  0  0  0  0  0  0  0  0  0  0  0
  186.9480  177.1920  146.1460 C   0  0  2  0  0  3  0  0  0  0  0  0
  188.8330  176.2910  144.7880 C   0  0  1  0  0  3  0  0  0  0  0  0
  183.9560  178.7670  141.8110 O   0  0  0  0  0  0  0  0  0  0  0  0
  189.2780  172.4330  142.2520 C   0  0  0  0  0  2  0  0  0  0  0  0
  191.1550  172.8410  144.1190 S   0  0  0  0  0  0  0  0  0  0  0  0
  184.2530  178.6530  144.0810 O   0  0  0  0  0  0  0  0  0  0  0  0
  187.6780  176.8040  141.0990 C   0  0  2  0  0  3  0  0  0  0  0  0
  184.1330  178.1670  140.5320 C   0  0  0  0  0  2  0  0  0  0  0  0
  185.6500  177.1680  142.7680 C   0  0  1  0  0  3  0  0  0  0  0  0
  188.5310  176.3110  142.2900 C   0  0  2  0  0  3  0  0  0  0  0  0
  188.8190  173.7870  139.7520 O   0  0  0  0  0  0  0  0  0  0  0  0
  189.1760  174.9620  141.8490 C   0  0  1  0  0  3  0  0  0  0  0  0
  190.7590  172.2400  142.4580 C   0  0  0  0  0  2  0  0  0  0  0  0
  190.8690  175.3330  145.7200 O   0  0  0  0  0  1  0  0  0  0  0  0
  185.5610  177.7440  140.3530 C   0  0  0  0  0  3  0  0  0  0  0  0
  186.2740  177.2620  141.3860 C   0  0  0  0  0  0  0  0  0  0  0  0
  190.0300  175.3300  144.6030 C   0  0  1  0  0  3  0  0  0  0  0  0
  186.2020  177.1270  147.4690 C   0  0  0  0  0  2  0  0  0  0  0  0
  185.8540  179.3520  147.4550 O   0  0  0  0  0  1  0  0  0  0  0  0
  185.1950  178.1720  147.5200 N   0  0  0  0  0  2  0  0  0  0  0  0
  1  5  1  1  0  0  0
  2 16  2  0  0  0  0
  3 10  1  0  0  0  0
  3 17  1  0  0  0  0
  4  1  1  0  0  0  0
  4 12  1  0  0  0  0
  5 11  1  0  0  0  0
  7 27  1  0  0  0  0
  8  6  1  0  0  0  0
  9  7  1  0  0  0  0
 10 22  1  0  0  0  0
 11  8  1  0  0  0  0
 11 28  1  0  0  0  0
 12  8  1  0  0  0  0
 13  2  1  0  0  0  0
 14 23  1  0  0  0  0
 14  9  1  0  0  0  0
 15  7  1  0  0  0  0
 17 26  1  0  0  0  0
 17 20  1  0  0  0  0
 18 13  1  0  0  0  0
 19  2  1  0  0  0  0
 19  1  1  0  0  0  0
 20  4  1  0  0  0  0
 21 10  2  0  0  0  0
 22 20  1  0  0  0  0
 22  9  1  0  0  0  0
 23 15  1  0  0  0  0
 25 18  1  0  0  0  0
 25 26  2  0  0  0  0
 26 19  1  0  0  0  0
 27 12  1  0  0  0  0
 27 24  1  0  0  0  0
 28 30  1  0  0  0  0
 29 30  1  0  0  0  0
M  END
>  <MODEL>
3

>  <REMARK>
 VINA RESULT:      -8.5      2.057      5.022
  Name = 
  2 active torsions:
  status: ('A' for Active; 'I' for Inactive)
    1  A    between atoms: C_11  and  C_28
    2  A    between atoms: C_28  and  N_30
                            x       y       z     vdW  Elec       q    Type
                         _______ _______ _______ _____ _____    ______ ____

>  <TORSDO>
F 2

$$$$
=
 OpenBabel11112416263D

 30 35  0  0  1  0  0  0  0  0999 V2000
  187.2510  176.9890  143.9910 C   0  0  2  0  0  3  0  0  0  0  0  0
  185.8590  178.8100  145.0490 C   0  0  0  0  0  0  0  0  0  0  0  0
  189.0470  176.2280  147.6320 O   0  0  0  0  0  0  0  0  0  0  0  0
  188.4840  176.0980  144.1580 C   0  0  2  0  0  3  0  0  0  0  0  0
  187.3990  177.7090  142.7890 O   0  0  0  0  0  0  0  0  0  0  0  0
  188.2150  174.9400  140.6080 O   0  0  0  0  0  1  0  0  0  0  0  0
  191.0910  174.7770  143.4720 C   0  0  1  0  0  3  0  0  0  0  0  0
  188.4300  175.8540  141.6430 C   0  0  1  0  0  3  0  0  0  0  0  0
  191.1070  175.4990  144.8380 C   0  0  2  0  0  3  0  0  0  0  0  0
  190.1910  175.5970  147.2010 C   0  0  0  0  0  0  0  0  0  0  0  0
  187.2270  176.8040  141.7250 C   0  0  2  0  0  3  0  0  0  0  0  0
  188.5540  175.1100  142.9830 C   0  0  1  0  0  3  0  0  0  0  0  0
  185.2650  179.2950  146.2160 O   0  0  0  0  0  0  0  0  0  0  0  0
  192.5290  175.4040  145.3570 C   0  0  0  0  0  2  0  0  0  0  0  0
  192.4320  173.5320  143.4430 S   0  0  0  0  0  0  0  0  0  0  0  0
  185.3380  179.0860  143.9350 O   0  0  0  0  0  0  0  0  0  0  0  0
  187.9780  176.0400  146.7270 C   0  0  2  0  0  3  0  0  0  0  0  0
  185.9440  179.2120  147.4660 C   0  0  0  0  0  2  0  0  0  0  0  0
  187.1330  177.9920  145.1430 C   0  0  1  0  0  3  0  0  0  0  0  0
  188.5820  175.3380  145.4890 C   0  0  2  0  0  3  0  0  0  0  0  0
  191.2200  175.5110  147.9200 O   0  0  0  0  0  0  0  0  0  0  0  0
  190.0520  174.9720  145.8570 C   0  0  1  0  0  3  0  0  0  0  0  0
  193.0120  174.0000  145.0930 C   0  0  0  0  0  2  0  0  0  0  0  0
  189.8670  173.3390  141.9470 O   0  0  0  0  0  1  0  0  0  0  0  0
  186.6580  177.8980  147.5800 C   0  0  0  0  0  3  0  0  0  0  0  0
  187.2290  177.3260  146.5050 C   0  0  0  0  0  0  0  0  0  0  0  0
  189.7460  174.1320  143.0920 C   0  0  1  0  0  3  0  0  0  0  0  0
  187.0800  177.5810  140.4270 C   0  0  0  0  0  2  0  0  0  0  0  0
  185.0500  178.5320  140.6360 O   0  0  0  0  0  1  0  0  0  0  0  0
  185.6990  177.5410  139.9820 N   0  0  0  0  0  2  0  0  0  0  0  0
  1  5  1  6  0  0  0
  1  4  1  0  0  0  0
  1 19  1  0  0  0  0
  2 19  1  0  0  0  0
  2 13  1  0  0  0  0
  4 20  1  0  0  0  0
  6  8  1  0  0  0  0
  7  9  1  0  0  0  0
  8 11  1  0  0  0  0
  8 12  1  0  0  0  0
  9 14  1  0  0  0  0
  9 22  1  0  0  0  0
 10  3  1  0  0  0  0
 10 21  2  0  0  0  0
 11  5  1  0  0  0  0
 12 27  1  0  0  0  0
 12  4  1  0  0  0  0
 13 18  1  0  0  0  0
 15  7  1  0  0  0  0
 15 23  1  0  0  0  0
 16  2  2  0  0  0  0
 17  3  1  0  0  0  0
 18 25  1  0  0  0  0
 19 26  1  0  0  0  0
 20 22  1  0  0  0  0
 20 17  1  0  0  0  0
 22 10  1  0  0  0  0
 23 14  1  0  0  0  0
 24 27  1  0  0  0  0
 26 17  1  0  0  0  0
 26 25  2  0  0  0  0
 27  7  1  0  0  0  0
 28 11  1  0  0  0  0
 30 28  1  0  0  0  0
 30 29  1  0  0  0  0
M  END
>  <MODEL>
4

>  <REMARK>
 VINA RESULT:      -8.4      1.234      1.281
  Name = 
  2 active torsions:
  status: ('A' for Active; 'I' for Inactive)
    1  A    between atoms: C_11  and  C_28
    2  A    between atoms: C_28  and  N_30
                            x       y       z     vdW  Elec       q    Type
                         _______ _______ _______ _____ _____    ______ ____

>  <TORSDO>
F 2

$$$$
=
 OpenBabel11112416263D

 30 35  0  0  1  0  0  0  0  0999 V2000
  187.7680  175.9160  142.6760 C   0  0  2  0  0  3  0  0  0  0  0  0
  186.1350  177.7800  142.1860 C   0  0  0  0  0  0  0  0  0  0  0  0
  188.5690  177.5720  146.3750 O   0  0  0  0  0  0  0  0  0  0  0  0
  188.9230  175.4670  143.5740 C   0  0  2  0  0  3  0  0  0  0  0  0
  188.2160  175.8690  141.3410 O   0  0  0  0  0  0  0  0  0  0  0  0
  189.5890  172.5210  141.3620 O   0  0  0  0  0  1  0  0  0  0  0  0
  191.6280  174.4060  144.3260 C   0  0  1  0  0  3  0  0  0  0  0  0
  189.5230  173.8740  141.7060 C   0  0  1  0  0  3  0  0  0  0  0  0
  191.2850  175.7530  145.0010 C   0  0  2  0  0  3  0  0  0  0  0  0
  189.7900  176.9930  146.6310 C   0  0  0  0  0  0  0  0  0  0  0  0
  188.3320  174.5140  140.9780 C   0  0  2  0  0  3  0  0  0  0  0  0
  189.3010  174.0210  143.2210 C   0  0  1  0  0  3  0  0  0  0  0  0
  185.2570  178.7280  142.7130 O   0  0  0  0  0  0  0  0  0  0  0  0
  192.5260  176.1800  145.7630 C   0  0  0  0  0  2  0  0  0  0  0  0
  192.9410  173.5750  145.2930 S   0  0  0  0  0  0  0  0  0  0  0  0
  185.9190  177.3120  141.0360 O   0  0  0  0  0  0  0  0  0  0  0  0
  187.7700  176.7550  145.5410 C   0  0  2  0  0  3  0  0  0  0  0  0
  185.5910  179.4530  143.8930 C   0  0  0  0  0  2  0  0  0  0  0  0
  187.3490  177.3550  142.9930 C   0  0  1  0  0  3  0  0  0  0  0  0
  188.6790  175.5910  145.0860 C   0  0  2  0  0  3  0  0  0  0  0  0
  190.5990  177.4760  147.4650 O   0  0  0  0  0  0  0  0  0  0  0  0
  190.0070  175.7200  145.8920 C   0  0  1  0  0  3  0  0  0  0  0  0
  193.0710  174.9570  146.4560 C   0  0  0  0  0  2  0  0  0  0  0  0
  190.8520  172.1990  143.6830 O   0  0  0  0  0  1  0  0  0  0  0  0
  186.2600  178.5470  144.8830 C   0  0  0  0  0  3  0  0  0  0  0  0
  187.0950  177.5740  144.4750 C   0  0  0  0  0  0  0  0  0  0  0  0
  190.4330  173.4620  144.1130 C   0  0  1  0  0  3  0  0  0  0  0  0
  188.5190  174.4150  139.4730 C   0  0  0  0  0  2  0  0  0  0  0  0
  187.5760  174.9420  137.4980 O   0  0  0  0  0  1  0  0  0  0  0  0
  187.5920  175.3080  138.8000 N   0  0  0  0  0  2  0  0  0  0  0  0
  1  5  1  6  0  0  0
  1 19  1  0  0  0  0
  1  4  1  0  0  0  0
  2 13  1  0  0  0  0
  2 19  1  0  0  0  0
  3 10  1  0  0  0  0
  4 20  1  0  0  0  0
  6  8  1  0  0  0  0
  7  9  1  0  0  0  0
  7 15  1  0  0  0  0
  8 12  1  0  0  0  0
  9 14  1  0  0  0  0
  9 22  1  0  0  0  0
 10 21  2  0  0  0  0
 11  5  1  0  0  0  0
 11  8  1  0  0  0  0
 12  4  1  0  0  0  0
 12 27  1  0  0  0  0
 13 18  1  0  0  0  0
 14 23  1  0  0  0  0
 15 23  1  0  0  0  0
 16  2  2  0  0  0  0
 17  3  1  0  0  0  0
 18 25  1  0  0  0  0
 19 26  1  0  0  0  0
 20 17  1  0  0  0  0
 20 22  1  0  0  0  0
 22 10  1  0  0  0  0
 24 27  1  0  0  0  0
 26 25  2  0  0  0  0
 26 17  1  0  0  0  0
 27  7  1  0  0  0  0
 28 11  1  0  0  0  0
 29 30  1  0  0  0  0
 30 28  1  0  0  0  0
M  END
>  <MODEL>
5

>  <REMARK>
 VINA RESULT:      -7.8      1.957      2.869
  Name = 
  2 active torsions:
  status: ('A' for Active; 'I' for Inactive)
    1  A    between atoms: C_11  and  C_28
    2  A    between atoms: C_28  and  N_30
                            x       y       z     vdW  Elec       q    Type
                         _______ _______ _______ _____ _____    ______ ____

>  <TORSDO>
F 2

$$$$
=
 OpenBabel11112416263D

 30 35  0  0  1  0  0  0  0  0999 V2000
  189.9100  176.0350  144.8030 C   0  0  2  0  0  3  0  0  0  0  0  0
  192.3010  175.4170  144.2780 C   0  0  0  0  0  0  0  0  0  0  0  0
  188.8280  175.2210  140.9010 O   0  0  0  0  0  0  0  0  0  0  0  0
  188.5530  176.4110  144.2040 C   0  0  2  0  0  3  0  0  0  0  0  0
  190.3000  177.0740  145.6720 O   0  0  0  0  0  0  0  0  0  0  0  0
  187.2400  177.3440  147.5830 O   0  0  0  0  0  1  0  0  0  0  0  0
  186.0330  177.9800  143.7570 C   0  0  1  0  0  3  0  0  0  0  0  0
  188.0490  177.4560  146.4490 C   0  0  1  0  0  3  0  0  0  0  0  0
  186.8200  177.6950  142.4580 C   0  0  2  0  0  3  0  0  0  0  0  0
  187.6620  175.9470  140.8250 C   0  0  0  0  0  0  0  0  0  0  0  0
  189.4730  177.0120  146.8090 C   0  0  2  0  0  3  0  0  0  0  0  0
  187.5210  176.5370  145.3350 C   0  0  1  0  0  3  0  0  0  0  0  0
  193.1620  174.6660  143.4750 O   0  0  0  0  0  0  0  0  0  0  0  0
  186.0950  178.4320  141.3480 C   0  0  0  0  0  2  0  0  0  0  0  0
  184.2940  178.3540  143.3290 S   0  0  0  0  0  0  0  0  0  0  0  0
  192.6540  175.7080  145.4520 O   0  0  0  0  0  0  0  0  0  0  0  0
  189.0840  174.7850  142.2210 C   0  0  2  0  0  3  0  0  0  0  0  0
  192.9120  174.5200  142.0800 C   0  0  0  0  0  2  0  0  0  0  0  0
  190.9760  175.8930  143.7120 C   0  0  1  0  0  3  0  0  0  0  0  0
  188.0220  175.4700  143.1120 C   0  0  2  0  0  3  0  0  0  0  0  0
  187.1670  176.3070  139.7260 O   0  0  0  0  0  0  0  0  0  0  0  0
  187.0240  176.1810  142.1490 C   0  0  1  0  0  3  0  0  0  0  0  0
  184.6180  178.2160  141.5530 C   0  0  0  0  0  2  0  0  0  0  0  0
  185.2160  177.1130  145.8710 O   0  0  0  0  0  1  0  0  0  0  0  0
  191.4440  174.3350  141.8350 C   0  0  0  0  0  3  0  0  0  0  0  0
  190.5320  174.9820  142.5800 C   0  0  0  0  0  0  0  0  0  0  0  0
  186.1020  176.8680  144.8180 C   0  0  1  0  0  3  0  0  0  0  0  0
  190.0470  177.9100  147.8930 C   0  0  0  0  0  2  0  0  0  0  0  0
  191.5920  178.0490  149.5250 O   0  0  0  0  0  1  0  0  0  0  0  0
  191.2520  177.3130  148.4420 N   0  0  0  0  0  2  0  0  0  0  0  0
  1  5  1  1  0  0  0
  2 16  2  0  0  0  0
  3 17  1  0  0  0  0
  4  1  1  0  0  0  0
  4 12  1  0  0  0  0
  5 11  1  0  0  0  0
  7 27  1  0  0  0  0
  8 11  1  0  0  0  0
  8  6  1  0  0  0  0
  9  7  1  0  0  0  0
 10  3  1  0  0  0  0
 10 22  1  0  0  0  0
 11 28  1  0  0  0  0
 12  8  1  0  0  0  0
 13  2  1  0  0  0  0
 14 23  1  0  0  0  0
 14  9  1  0  0  0  0
 15  7  1  0  0  0  0
 17 26  1  0  0  0  0
 17 20  1  0  0  0  0
 18 13  1  0  0  0  0
 19  2  1  0  0  0  0
 19  1  1  0  0  0  0
 20  4  1  0  0  0  0
 21 10  2  0  0  0  0
 22  9  1  0  0  0  0
 22 20  1  0  0  0  0
 23 15  1  0  0  0  0
 25 18  1  0  0  0  0
 25 26  2  0  0  0  0
 26 19  1  0  0  0  0
 27 12  1  0  0  0  0
 27 24  1  0  0  0  0
 28 30  1  0  0  0  0
 30 29  1  0  0  0  0
M  END
>  <MODEL>
6

>  <REMARK>
 VINA RESULT:      -7.7      2.981      7.133
  Name = 
  2 active torsions:
  status: ('A' for Active; 'I' for Inactive)
    1  A    between atoms: C_11  and  C_28
    2  A    between atoms: C_28  and  N_30
                            x       y       z     vdW  Elec       q    Type
                         _______ _______ _______ _____ _____    ______ ____

>  <TORSDO>
F 2

$$$$
=
 OpenBabel11112416263D

 30 35  0  0  1  0  0  0  0  0999 V2000
  188.9480  177.3980  145.6280 C   0  0  2  0  0  3  0  0  0  0  0  0
  186.7450  178.0630  146.6690 C   0  0  0  0  0  0  0  0  0  0  0  0
  187.0850  176.8950  141.9750 O   0  0  0  0  0  0  0  0  0  0  0  0
  189.6120  176.7280  144.4230 C   0  0  2  0  0  3  0  0  0  0  0  0
  189.3630  176.7110  146.7860 O   0  0  0  0  0  0  0  0  0  0  0  0
  192.9270  176.7260  146.1620 O   0  0  0  0  0  1  0  0  0  0  0  0
  191.3960  174.8570  142.8970 C   0  0  1  0  0  3  0  0  0  0  0  0
  191.5960  176.3590  145.9440 C   0  0  1  0  0  3  0  0  0  0  0  0
  189.9220  174.8170  142.4360 C   0  0  2  0  0  3  0  0  0  0  0  0
  187.9970  176.0690  141.3590 C   0  0  0  0  0  0  0  0  0  0  0  0
  190.7150  177.0290  147.0090 C   0  0  2  0  0  3  0  0  0  0  0  0
  191.1380  176.8460  144.5590 C   0  0  1  0  0  3  0  0  0  0  0  0
  185.4810  178.6190  146.4660 O   0  0  0  0  0  0  0  0  0  0  0  0
  189.8270  173.7130  141.3990 C   0  0  0  0  0  2  0  0  0  0  0  0
  192.4560  174.2030  141.5570 S   0  0  0  0  0  0  0  0  0  0  0  0
  187.2910  178.1720  147.7990 O   0  0  0  0  0  0  0  0  0  0  0  0
  187.7050  177.7300  142.9340 C   0  0  2  0  0  3  0  0  0  0  0  0
  184.7320  178.3150  145.2930 C   0  0  0  0  0  2  0  0  0  0  0  0
  187.4210  177.3100  145.5370 C   0  0  1  0  0  3  0  0  0  0  0  0
  189.1670  177.2420  143.0450 C   0  0  2  0  0  3  0  0  0  0  0  0
  187.6910  175.3500  140.3740 O   0  0  0  0  0  0  0  0  0  0  0  0
  189.3700  176.1810  141.9220 C   0  0  1  0  0  3  0  0  0  0  0  0
  191.0320  173.8340  140.5010 C   0  0  0  0  0  2  0  0  0  0  0  0
  193.2780  176.2330  143.5710 O   0  0  0  0  0  1  0  0  0  0  0  0
  185.6380  178.2730  144.0990 C   0  0  0  0  0  3  0  0  0  0  0  0
  186.8900  177.7920  144.1970 C   0  0  0  0  0  0  0  0  0  0  0  0
  191.8960  176.2370  143.3580 C   0  0  1  0  0  3  0  0  0  0  0  0
  191.1170  176.5570  148.3970 C   0  0  0  0  0  2  0  0  0  0  0  0
  190.6530  178.6420  149.1090 O   0  0  0  0  0  1  0  0  0  0  0  0
  191.6020  177.6800  149.1790 N   0  0  0  0  0  2  0  0  0  0  0  0
  1  5  1  1  0  0  0
  2 16  2  0  0  0  0
  3 17  1  0  0  0  0
  4 12  1  0  0  0  0
  4  1  1  0  0  0  0
  5 11  1  0  0  0  0
  7 27  1  0  0  0  0
  8  6  1  0  0  0  0
  8 11  1  0  0  0  0
  9  7  1  0  0  0  0
 10 22  1  0  0  0  0
 10  3  1  0  0  0  0
 11 28  1  0  0  0  0
 12  8  1  0  0  0  0
 13  2  1  0  0  0  0
 14  9  1  0  0  0  0
 15  7  1  0  0  0  0
 17 20  1  0  0  0  0
 17 26  1  0  0  0  0
 18 13  1  0  0  0  0
 19  1  1  0  0  0  0
 19  2  1  0  0  0  0
 20  4  1  0  0  0  0
 21 10  2  0  0  0  0
 22  9  1  0  0  0  0
 22 20  1  0  0  0  0
 23 14  1  0  0  0  0
 23 15  1  0  0  0  0
 25 26  2  0  0  0  0
 25 18  1  0  0  0  0
 26 19  1  0  0  0  0
 27 24  1  0  0  0  0
 27 12  1  0  0  0  0
 28 30  1  0  0  0  0
 29 30  1  0  0  0  0
M  END
>  <MODEL>
7

>  <REMARK>
 VINA RESULT:      -7.6      2.592      5.333
  Name = 
  2 active torsions:
  status: ('A' for Active; 'I' for Inactive)
    1  A    between atoms: C_11  and  C_28
    2  A    between atoms: C_28  and  N_30
                            x       y       z     vdW  Elec       q    Type
                         _______ _______ _______ _____ _____    ______ ____

>  <TORSDO>
F 2

$$$$
=
 OpenBabel11112416263D

 30 35  0  0  1  0  0  0  0  0999 V2000
  188.7220  175.0880  143.7460 C   0  0  2  0  0  3  0  0  0  0  0  0
  186.6050  176.4630  143.8060 C   0  0  0  0  0  0  0  0  0  0  0  0
  189.8510  176.6430  147.4030 O   0  0  0  0  0  0  0  0  0  0  0  0
  190.1180  174.9120  144.3480 C   0  0  2  0  0  3  0  0  0  0  0  0
  188.8700  175.2560  142.3550 O   0  0  0  0  0  0  0  0  0  0  0  0
  191.0190  172.4190  141.7050 O   0  0  0  0  0  1  0  0  0  0  0  0
  193.1000  174.5820  144.4400 C   0  0  1  0  0  3  0  0  0  0  0  0
  190.6870  173.6750  142.2190 C   0  0  1  0  0  3  0  0  0  0  0  0
  192.5800  175.7350  145.3280 C   0  0  2  0  0  3  0  0  0  0  0  0
  191.2040  176.4040  147.3510 C   0  0  0  0  0  0  0  0  0  0  0  0
  189.2460  174.0130  141.8130 C   0  0  2  0  0  3  0  0  0  0  0  0
  190.7660  173.6510  143.7540 C   0  0  1  0  0  3  0  0  0  0  0  0
  185.6480  177.0970  144.6010 O   0  0  0  0  0  0  0  0  0  0  0  0
  193.8050  176.4310  145.8890 C   0  0  0  0  0  2  0  0  0  0  0  0
  194.7570  174.0780  145.0320 S   0  0  0  0  0  0  0  0  0  0  0  0
  186.2720  176.0340  142.6680 O   0  0  0  0  0  0  0  0  0  0  0  0
  189.1260  175.6980  146.6410 C   0  0  2  0  0  3  0  0  0  0  0  0
  186.0330  177.8020  145.7770 C   0  0  0  0  0  2  0  0  0  0  0  0
  188.0300  176.3320  144.3110 C   0  0  1  0  0  3  0  0  0  0  0  0
  190.1810  174.8600  145.8820 C   0  0  2  0  0  3  0  0  0  0  0  0
  192.0240  177.0320  148.0700 O   0  0  0  0  0  0  0  0  0  0  0  0
  191.5740  175.2920  146.4330 C   0  0  1  0  0  3  0  0  0  0  0  0
  194.7780  175.3600  146.3110 C   0  0  0  0  0  2  0  0  0  0  0  0
  192.7890  172.2960  143.6880 O   0  0  0  0  0  1  0  0  0  0  0  0
  187.1070  177.0480  146.5040 C   0  0  0  0  0  3  0  0  0  0  0  0
  188.0530  176.3720  145.8300 C   0  0  0  0  0  0  0  0  0  0  0  0
  192.1670  173.3630  144.3420 C   0  0  1  0  0  3  0  0  0  0  0  0
  189.1250  174.0720  140.2990 C   0  0  0  0  0  2  0  0  0  0  0  0
  188.2130  173.0950  138.4870 O   0  0  0  0  0  1  0  0  0  0  0  0
  188.1880  173.0620  139.8390 N   0  0  0  0  0  2  0  0  0  0  0  0
  1  5  1  6  0  0  0
  1 19  1  0  0  0  0
  1  4  1  0  0  0  0
  2 19  1  0  0  0  0
  2 13  1  0  0  0  0
  4 20  1  0  0  0  0
  6  8  1  0  0  0  0
  7 15  1  0  0  0  0
  7  9  1  0  0  0  0
  8 12  1  0  0  0  0
  9 14  1  0  0  0  0
  9 22  1  0  0  0  0
 10  3  1  0  0  0  0
 10 21  2  0  0  0  0
 11  8  1  0  0  0  0
 11  5  1  0  0  0  0
 12 27  1  0  0  0  0
 12  4  1  0  0  0  0
 13 18  1  0  0  0  0
 14 23  1  0  0  0  0
 15 23  1  0  0  0  0
 16  2  2  0  0  0  0
 17  3  1  0  0  0  0
 18 25  1  0  0  0  0
 19 26  1  0  0  0  0
 20 22  1  0  0  0  0
 20 17  1  0  0  0  0
 22 10  1  0  0  0  0
 24 27  1  0  0  0  0
 26 25  2  0  0  0  0
 26 17  1  0  0  0  0
 27  7  1  0  0  0  0
 28 11  1  0  0  0  0
 29 30  1  0  0  0  0
 30 28  1  0  0  0  0
M  END
>  <MODEL>
8

>  <REMARK>
 VINA RESULT:      -7.6      2.341      3.439
  Name = 
  2 active torsions:
  status: ('A' for Active; 'I' for Inactive)
    1  A    between atoms: C_11  and  C_28
    2  A    between atoms: C_28  and  N_30
                            x       y       z     vdW  Elec       q    Type
                         _______ _______ _______ _____ _____    ______ ____

>  <TORSDO>
F 2

$$$$
=
 OpenBabel11112416263D

 30 35  0  0  1  0  0  0  0  0999 V2000
  190.3290  174.8280  142.7360 C   0  0  2  0  0  3  0  0  0  0  0  0
  192.1480  173.1750  143.3160 C   0  0  0  0  0  0  0  0  0  0  0  0
  190.9010  176.7470  146.3490 O   0  0  0  0  0  0  0  0  0  0  0  0
  189.3760  175.8890  143.2930 C   0  0  2  0  0  3  0  0  0  0  0  0
  189.5510  173.8450  142.0910 O   0  0  0  0  0  0  0  0  0  0  0  0
  187.5260  176.0340  140.0420 O   0  0  0  0  0  1  0  0  0  0  0  0
  186.7940  177.3240  143.8230 C   0  0  1  0  0  3  0  0  0  0  0  0
  187.9760  175.4590  141.2330 C   0  0  1  0  0  3  0  0  0  0  0  0
  187.5880  176.9910  145.1050 C   0  0  2  0  0  3  0  0  0  0  0  0
  189.6910  177.3910  146.4660 C   0  0  0  0  0  0  0  0  0  0  0  0
  189.0480  174.4100  140.9050 C   0  0  2  0  0  3  0  0  0  0  0  0
  188.6100  176.5360  142.1290 C   0  0  1  0  0  3  0  0  0  0  0  0
  193.3200  172.9370  144.0370 O   0  0  0  0  0  0  0  0  0  0  0  0
  186.7140  177.4090  146.2720 C   0  0  0  0  0  2  0  0  0  0  0  0
  185.6260  178.6860  144.1830 S   0  0  0  0  0  0  0  0  0  0  0  0
  191.9500  172.5510  142.2390 O   0  0  0  0  0  0  0  0  0  0  0  0
  191.2550  176.5460  144.9950 C   0  0  2  0  0  3  0  0  0  0  0  0
  193.4720  173.4330  145.3630 C   0  0  0  0  0  2  0  0  0  0  0  0
  191.1220  174.1540  143.8590 C   0  0  1  0  0  3  0  0  0  0  0  0
  190.0250  176.9760  144.1630 C   0  0  2  0  0  3  0  0  0  0  0  0
  189.2540  177.8000  147.5720 O   0  0  0  0  0  0  0  0  0  0  0  0
  189.0140  177.6190  145.1600 C   0  0  1  0  0  3  0  0  0  0  0  0
  186.1110  178.7470  145.9270 C   0  0  0  0  0  2  0  0  0  0  0  0
  186.8700  178.1350  141.5370 O   0  0  0  0  0  1  0  0  0  0  0  0
  192.8990  174.8150  145.4660 C   0  0  0  0  0  3  0  0  0  0  0  0
  191.7940  175.1580  144.7810 C   0  0  0  0  0  0  0  0  0  0  0  0
  187.6540  177.6590  142.5920 C   0  0  1  0  0  3  0  0  0  0  0  0
  188.4600  173.3090  140.0380 C   0  0  0  0  0  2  0  0  0  0  0  0
  188.1990  173.6380  137.8260 O   0  0  0  0  0  1  0  0  0  0  0  0
  189.1250  173.2870  138.7480 N   0  0  0  0  0  2  0  0  0  0  0  0
  1  5  1  1  0  0  0
  1  4  1  0  0  0  0
  1 19  1  0  0  0  0
  2 19  1  0  0  0  0
  2 13  1  0  0  0  0
  3 10  1  0  0  0  0
  4 20  1  0  0  0  0
  6  8  1  0  0  0  0
  7 15  1  0  0  0  0
  7  9  1  0  0  0  0
  8 12  1  0  0  0  0
  9 22  1  0  0  0  0
  9 14  1  0  0  0  0
 10 21  2  0  0  0  0
 11  8  1  0  0  0  0
 11  5  1  0  0  0  0
 12 27  1  0  0  0  0
 12  4  1  0  0  0  0
 13 18  1  0  0  0  0
 15 23  1  0  0  0  0
 16  2  2  0  0  0  0
 17  3  1  0  0  0  0
 18 25  1  0  0  0  0
 19 26  1  0  0  0  0
 20 17  1  0  0  0  0
 20 22  1  0  0  0  0
 22 10  1  0  0  0  0
 23 14  1  0  0  0  0
 24 27  1  0  0  0  0
 26 17  1  0  0  0  0
 26 25  2  0  0  0  0
 27  7  1  0  0  0  0
 28 11  1  0  0  0  0
 29 30  1  0  0  0  0
 30 28  1  0  0  0  0
M  END
>  <MODEL>
9

>  <REMARK>
 VINA RESULT:      -7.5      2.676      5.709
  Name = 
  2 active torsions:
  status: ('A' for Active; 'I' for Inactive)
    1  A    between atoms: C_11  and  C_28
    2  A    between atoms: C_28  and  N_30
                            x       y       z     vdW  Elec       q    Type
                         _______ _______ _______ _____ _____    ______ ____

>  <TORSDO>
F 2

$$$$
