=
 OpenBabel11112417533D

 34 40  0  0  1  0  0  0  0  0999 V2000
  190.0960  175.3150  142.6650 C   0  0  0  0  0  0  0  0  0  0  0  0
  192.3100  174.2420  141.9340 C   0  0  0  0  0  2  0  0  0  0  0  0
  184.1030  177.9240  146.4650 C   0  0  0  0  0  2  0  0  0  0  0  0
  188.0770  176.3840  143.4590 C   0  0  0  0  0  0  0  0  0  0  0  0
  188.0640  177.4000  145.6650 C   0  0  0  0  0  0  0  0  0  0  0  0
  186.3300  177.4340  147.4610 C   0  0  0  0  0  2  0  0  0  0  0  0
  185.0870  178.3030  147.5610 C   0  0  0  0  0  2  0  0  0  0  0  0
  185.5910  179.1900  144.4160 S   0  0  0  0  0  0  0  0  0  0  0  0
  192.0580  175.2440  144.0710 C   0  0  0  0  0  0  0  0  0  0  0  0
  194.4950  175.6550  146.1710 C   0  0  0  0  0  2  0  0  0  0  0  0
  189.3600  177.0200  145.8360 N   0  0  0  0  0  0  0  0  0  0  0  0
  185.9320  177.4080  144.2470 C   0  0  0  0  0  2  0  0  0  0  0  0
  191.3920  175.9460  145.1040 C   0  0  0  0  0  0  0  0  0  0  0  0
  193.6810  174.3020  142.6090 C   0  0  0  0  0  2  0  0  0  0  0  0
  187.3870  177.0900  144.4580 C   0  0  0  0  0  0  0  0  0  0  0  0
  184.0290  178.9670  145.3480 C   0  0  0  0  0  2  0  0  0  0  0  0
  194.4510  175.7020  144.6360 C   0  0  2  0  0  3  0  0  0  0  0  0
  189.4090  176.0050  143.6730 C   0  0  0  0  0  0  0  0  0  0  0  0
  187.4280  178.2080  146.7550 C   0  0  0  0  0  2  0  0  0  0  0  0
  190.0500  176.3300  144.8880 C   0  0  0  0  0  0  0  0  0  0  0  0
  188.0550  175.4000  141.2710 C   0  0  0  0  0  3  0  0  0  0  0  0
  193.1420  175.4220  146.8460 C   0  0  0  0  0  2  0  0  0  0  0  0
  187.4320  176.0440  142.2160 N   0  0  0  0  0  0  0  0  0  0  0  0
  192.0980  176.4110  146.3520 C   0  0  0  0  0  2  0  0  0  0  0  0
  193.4430  174.6860  144.0800 C   0  0  1  0  0  3  0  0  0  0  0  0
  189.4220  175.0030  141.4410 N   0  0  0  0  0  2  0  0  0  0  0  0
  191.4240  174.9500  142.8850 C   0  0  0  0  0  0  0  0  0  0  0  0
  195.8630  175.4660  144.1090 C   0  0  0  0  0  2  0  0  0  0  0  0
  196.5620  174.5220  144.9640 N   0  0  0  0  0  2  0  0  0  0  0  0
  197.4820  172.1440  143.0720 O   0  0  0  0  0  0  0  0  0  0  0  0
  197.6750  174.4840  142.8220 C   0  0  0  0  0  2  0  0  0  0  0  0
  197.7920  174.1540  144.2820 C   0  0  2  0  0  3  0  0  0  0  0  0
  197.7690  173.1440  142.1340 C   0  0  0  0  0  2  0  0  0  0  0  0
  197.9410  172.6500  144.2970 C   0  0  0  0  0  2  0  0  0  0  0  0
  1 27  2  0  0  0  0
  1 18  1  0  0  0  0
  2 14  1  0  0  0  0
  2 27  1  0  0  0  0
  3  7  1  0  0  0  0
  4 18  2  0  0  0  0
  4 15  1  0  0  0  0
  5 11  1  0  0  0  0
  5 19  1  0  0  0  0
  6  7  1  0  0  0  0
  8 16  1  0  0  0  0
  9 25  1  0  0  0  0
  9 13  2  0  0  0  0
 10 22  1  0  0  0  0
 12  8  1  0  0  0  0
 12 15  1  0  0  0  0
 13 24  1  0  0  0  0
 15  5  2  0  0  0  0
 16  3  1  0  0  0  0
 17 28  1  6  0  0  0
 17 10  1  0  0  0  0
 18 20  1  0  0  0  0
 19  6  1  0  0  0  0
 20 13  1  0  0  0  0
 20 11  2  0  0  0  0
 21 26  1  0  0  0  0
 21 23  2  0  0  0  0
 23  4  1  0  0  0  0
 24 22  1  0  0  0  0
 25 14  1  6  0  0  0
 25 17  1  0  0  0  0
 26  1  1  0  0  0  0
 27  9  1  0  0  0  0
 28 29  1  0  0  0  0
 30 34  1  0  0  0  0
 31 32  1  0  0  0  0
 32 34  1  0  0  0  0
 32 29  1  1  0  0  0
 33 31  1  0  0  0  0
 33 30  1  0  0  0  0
M  END
>  <MODEL>
1

>  <REMARK>
 VINA RESULT:      -8.6      0.000      0.000
  Name = 
  3 active torsions:
  status: ('A' for Active; 'I' for Inactive)
    1  A    between atoms: C_17  and  C_28
    2  A    between atoms: C_28  and  N_29
    3  A    between atoms: N_29  and  C_32
                            x       y       z     vdW  Elec       q    Type
                         _______ _______ _______ _____ _____    ______ ____

>  <TORSDO>
F 3

$$$$
=
 OpenBabel11112417533D

 34 40  0  0  1  0  0  0  0  0999 V2000
  190.2290  173.4960  143.3950 C   0  0  0  0  0  0  0  0  0  0  0  0
  192.3090  172.1180  143.9950 C   0  0  0  0  0  2  0  0  0  0  0  0
  184.3360  178.2320  143.2930 C   0  0  0  0  0  2  0  0  0  0  0  0
  188.3320  174.9060  142.8800 C   0  0  0  0  0  0  0  0  0  0  0  0
  188.2250  177.1400  143.8300 C   0  0  0  0  0  0  0  0  0  0  0  0
  186.3200  178.4430  144.7800 C   0  0  0  0  0  2  0  0  0  0  0  0
  185.2320  179.2060  144.0420 C   0  0  0  0  0  2  0  0  0  0  0  0
  186.2420  177.7310  141.2600 S   0  0  0  0  0  0  0  0  0  0  0  0
  191.9740  174.3050  144.8560 C   0  0  0  0  0  0  0  0  0  0  0  0
  194.1800  175.9150  146.6040 C   0  0  0  0  0  2  0  0  0  0  0  0
  189.4120  176.9170  144.4570 N   0  0  0  0  0  0  0  0  0  0  0  0
  186.3060  176.2830  142.3670 C   0  0  0  0  0  2  0  0  0  0  0  0
  191.3140  175.5460  145.0220 C   0  0  0  0  0  0  0  0  0  0  0  0
  193.5820  172.5570  144.7200 C   0  0  0  0  0  2  0  0  0  0  0  0
  187.6540  176.1280  143.0160 C   0  0  0  0  0  0  0  0  0  0  0  0
  184.5660  178.2580  141.7810 C   0  0  0  0  0  2  0  0  0  0  0  0
  194.3260  174.9210  145.4420 C   0  0  2  0  0  3  0  0  0  0  0  0
  189.5510  174.7130  143.5460 C   0  0  0  0  0  0  0  0  0  0  0  0
  187.6050  178.4960  143.9740 C   0  0  0  0  0  2  0  0  0  0  0  0
  190.0870  175.7420  144.3500 C   0  0  0  0  0  0  0  0  0  0  0  0
  188.4090  172.7110  141.9160 C   0  0  0  0  0  3  0  0  0  0  0  0
  192.7370  176.2530  146.9830 C   0  0  0  0  0  2  0  0  0  0  0  0
  187.7920  173.8480  142.0660 N   0  0  0  0  0  0  0  0  0  0  0  0
  191.9340  176.6980  145.7710 C   0  0  0  0  0  2  0  0  0  0  0  0
  193.2380  173.8390  145.4990 C   0  0  1  0  0  3  0  0  0  0  0  0
  189.6630  172.4730  142.5690 N   0  0  0  0  0  2  0  0  0  0  0  0
  191.4450  173.3180  144.0550 C   0  0  0  0  0  0  0  0  0  0  0  0
  195.7330  174.3330  145.4870 C   0  0  0  0  0  2  0  0  0  0  0  0
  196.5880  175.0180  144.5320 N   0  0  0  0  0  2  0  0  0  0  0  0
  197.1820  176.0820  141.6000 O   0  0  0  0  0  0  0  0  0  0  0  0
  196.1300  174.1030  142.3450 C   0  0  0  0  0  2  0  0  0  0  0  0
  195.8120  175.2030  143.3170 C   0  0  2  0  0  3  0  0  0  0  0  0
  196.7500  174.8200  141.1700 C   0  0  0  0  0  2  0  0  0  0  0  0
  196.2810  176.4530  142.6080 C   0  0  0  0  0  2  0  0  0  0  0  0
  1 18  1  0  0  0  0
  1 27  2  0  0  0  0
  2 27  1  0  0  0  0
  2 14  1  0  0  0  0
  3  7  1  0  0  0  0
  4 15  1  0  0  0  0
  4 18  2  0  0  0  0
  5 19  1  0  0  0  0
  5 11  1  0  0  0  0
  7  6  1  0  0  0  0
  8 16  1  0  0  0  0
  8 12  1  0  0  0  0
  9 13  2  0  0  0  0
  9 25  1  0  0  0  0
 10 22  1  0  0  0  0
 12 15  1  0  0  0  0
 13 24  1  0  0  0  0
 15  5  2  0  0  0  0
 16  3  1  0  0  0  0
 17 28  1  1  0  0  0
 17 25  1  0  0  0  0
 17 10  1  0  0  0  0
 18 20  1  0  0  0  0
 19  6  1  0  0  0  0
 20 11  2  0  0  0  0
 20 13  1  0  0  0  0
 21 23  2  0  0  0  0
 21 26  1  0  0  0  0
 23  4  1  0  0  0  0
 24 22  1  0  0  0  0
 25 14  1  6  0  0  0
 26  1  1  0  0  0  0
 27  9  1  0  0  0  0
 29 28  1  0  0  0  0
 30 34  1  0  0  0  0
 31 32  1  0  0  0  0
 32 29  1  1  0  0  0
 33 30  1  0  0  0  0
 33 31  1  0  0  0  0
 34 32  1  0  0  0  0
M  END
>  <MODEL>
2

>  <REMARK>
 VINA RESULT:      -8.5      1.981      2.369
  Name = 
  3 active torsions:
  status: ('A' for Active; 'I' for Inactive)
    1  A    between atoms: C_17  and  C_28
    2  A    between atoms: C_28  and  N_29
    3  A    between atoms: N_29  and  C_32
                            x       y       z     vdW  Elec       q    Type
                         _______ _______ _______ _____ _____    ______ ____

>  <TORSDO>
F 3

$$$$
=
 OpenBabel11112417533D

 34 40  0  0  1  0  0  0  0  0999 V2000
  190.2690  173.5010  142.5690 C   0  0  0  0  0  0  0  0  0  0  0  0
  187.9340  174.3670  141.9490 C   0  0  0  0  0  2  0  0  0  0  0  0
  197.4420  172.6890  144.8170 C   0  0  0  0  0  2  0  0  0  0  0  0
  192.4620  172.7590  143.2690 C   0  0  0  0  0  0  0  0  0  0  0  0
  193.5590  173.8860  145.1200 C   0  0  0  0  0  0  0  0  0  0  0  0
  195.9370  174.5590  145.4720 C   0  0  0  0  0  2  0  0  0  0  0  0
  197.1110  173.6970  145.9060 C   0  0  0  0  0  2  0  0  0  0  0  0
  195.2100  171.0420  145.3850 S   0  0  0  0  0  0  0  0  0  0  0  0
  189.2080  175.3580  143.6910 C   0  0  0  0  0  0  0  0  0  0  0  0
  188.0760  177.6680  145.6650 C   0  0  0  0  0  2  0  0  0  0  0  0
  192.4860  174.7150  145.2360 N   0  0  0  0  0  0  0  0  0  0  0  0
  194.7610  171.9880  143.8920 C   0  0  0  0  0  2  0  0  0  0  0  0
  190.3100  175.5120  144.5650 C   0  0  0  0  0  0  0  0  0  0  0  0
  187.0510  175.3740  142.6870 C   0  0  0  0  0  2  0  0  0  0  0  0
  193.5690  172.8770  144.1250 C   0  0  0  0  0  0  0  0  0  0  0  0
  197.0170  171.2640  145.1790 C   0  0  0  0  0  2  0  0  0  0  0  0
  187.3880  176.4650  145.0020 C   0  0  2  0  0  3  0  0  0  0  0  0
  191.3770  173.6340  143.4170 C   0  0  0  0  0  0  0  0  0  0  0  0
  194.6660  174.0390  146.1180 C   0  0  0  0  0  2  0  0  0  0  0  0
  191.4030  174.6280  144.4180 C   0  0  0  0  0  0  0  0  0  0  0  0
  191.4060  171.6140  141.4440 C   0  0  0  0  0  3  0  0  0  0  0  0
  189.5770  177.7810  145.3930 C   0  0  0  0  0  2  0  0  0  0  0  0
  192.4270  171.7500  142.2410 N   0  0  0  0  0  0  0  0  0  0  0  0
  190.2990  176.4820  145.7180 C   0  0  0  0  0  2  0  0  0  0  0  0
  187.9720  176.1930  143.6080 C   0  0  1  0  0  3  0  0  0  0  0  0
  190.2690  172.4800  141.5660 N   0  0  0  0  0  2  0  0  0  0  0  0
  189.1910  174.3720  142.7300 C   0  0  0  0  0  0  0  0  0  0  0  0
  185.8880  176.7340  144.9600 C   0  0  0  0  0  2  0  0  0  0  0  0
  185.5990  178.0330  145.5460 N   0  0  0  0  0  2  0  0  0  0  0  0
  186.1040  179.4380  142.7440 O   0  0  0  0  0  0  0  0  0  0  0  0
  184.4660  177.8780  143.4200 C   0  0  0  0  0  2  0  0  0  0  0  0
  184.7850  178.7640  144.5880 C   0  0  2  0  0  3  0  0  0  0  0  0
  185.1310  178.5610  142.2490 C   0  0  0  0  0  2  0  0  0  0  0  0
  185.6070  179.8770  143.9790 C   0  0  0  0  0  2  0  0  0  0  0  0
  1 27  2  0  0  0  0
  1 18  1  0  0  0  0
  2 14  1  0  0  0  0
  2 27  1  0  0  0  0
  3 16  1  0  0  0  0
  3  7  1  0  0  0  0
  4 18  2  0  0  0  0
  4 15  1  0  0  0  0
  5 11  1  0  0  0  0
  5 19  1  0  0  0  0
  6  7  1  0  0  0  0
  6 19  1  0  0  0  0
  9 13  2  0  0  0  0
 12 15  1  0  0  0  0
 12  8  1  0  0  0  0
 13 24  1  0  0  0  0
 15  5  2  0  0  0  0
 16  8  1  0  0  0  0
 17 28  1  6  0  0  0
 17 10  1  0  0  0  0
 18 20  1  0  0  0  0
 20 13  1  0  0  0  0
 20 11  2  0  0  0  0
 21 26  1  0  0  0  0
 21 23  2  0  0  0  0
 22 10  1  0  0  0  0
 22 24  1  0  0  0  0
 23  4  1  0  0  0  0
 25 14  1  6  0  0  0
 25  9  1  0  0  0  0
 25 17  1  0  0  0  0
 26  1  1  0  0  0  0
 27  9  1  0  0  0  0
 28 29  1  0  0  0  0
 30 34  1  0  0  0  0
 31 32  1  0  0  0  0
 32 29  1  1  0  0  0
 33 30  1  0  0  0  0
 33 31  1  0  0  0  0
 34 32  1  0  0  0  0
M  END
>  <MODEL>
3

>  <REMARK>
 VINA RESULT:      -8.2      3.755      8.923
  Name = 
  3 active torsions:
  status: ('A' for Active; 'I' for Inactive)
    1  A    between atoms: C_17  and  C_28
    2  A    between atoms: C_28  and  N_29
    3  A    between atoms: N_29  and  C_32
                            x       y       z     vdW  Elec       q    Type
                         _______ _______ _______ _____ _____    ______ ____

>  <TORSDO>
F 3

$$$$
=
 OpenBabel11112417533D

 34 40  0  0  1  0  0  0  0  0999 V2000
  192.0830  176.4230  146.1820 C   0  0  0  0  0  0  0  0  0  0  0  0
  194.5110  175.6570  146.5110 C   0  0  0  0  0  2  0  0  0  0  0  0
  185.5270  179.1270  143.5610 C   0  0  0  0  0  2  0  0  0  0  0  0
  189.7970  177.0830  145.7500 C   0  0  0  0  0  0  0  0  0  0  0  0
  188.8970  176.8360  143.5070 C   0  0  0  0  0  0  0  0  0  0  0  0
  187.4080  178.3110  142.1510 C   0  0  0  0  0  2  0  0  0  0  0  0
  185.8990  178.4730  142.2400 C   0  0  0  0  0  2  0  0  0  0  0  0
  185.9970  176.7850  145.0800 S   0  0  0  0  0  0  0  0  0  0  0  0
  193.4490  175.5560  144.3890 C   0  0  0  0  0  0  0  0  0  0  0  0
  194.7810  174.1890  141.7670 C   0  0  0  0  0  2  0  0  0  0  0  0
  190.0950  176.3400  143.0930 N   0  0  0  0  0  0  0  0  0  0  0  0
  187.4480  177.8540  145.3570 C   0  0  0  0  0  2  0  0  0  0  0  0
  192.3880  175.6890  143.4630 C   0  0  0  0  0  0  0  0  0  0  0  0
  195.4230  174.9010  145.5440 C   0  0  0  0  0  2  0  0  0  0  0  0
  188.7190  177.2200  144.8610 C   0  0  0  0  0  0  0  0  0  0  0  0
  184.8920  178.1460  144.5490 C   0  0  0  0  0  2  0  0  0  0  0  0
  194.8690  173.8350  143.2590 C   0  0  2  0  0  3  0  0  0  0  0  0
  191.0160  176.5710  145.2860 C   0  0  2  0  0  3  0  0  0  0  0  0
  187.7820  176.8840  142.5080 C   0  0  0  0  0  2  0  0  0  0  0  0
  191.1570  176.2020  143.9310 C   0  0  0  0  0  0  0  0  0  0  0  0
  190.6470  177.3310  147.9790 C   0  0  0  0  0  3  0  0  0  0  0  0
  193.8630  175.3680  141.4400 C   0  0  0  0  0  2  0  0  0  0  0  0
  189.6660  177.4610  147.1340 N   0  0  0  0  0  0  0  0  0  0  0  0
  192.4810  175.1810  142.0470 C   0  0  0  0  0  2  0  0  0  0  0  0
  194.8470  175.0990  144.1310 C   0  0  1  0  0  3  0  0  0  0  0  0
  191.9090  176.8020  147.5510 N   0  0  0  0  0  0  0  0  0  0  0  0
  193.2900  175.9060  145.7110 C   0  0  0  0  0  0  0  0  0  0  0  0
  196.1260  172.9990  143.4800 C   0  0  0  0  0  2  0  0  0  0  0  0
  195.7750  171.5930  143.5920 N   0  0  0  0  0  2  0  0  0  0  0  0
  195.9910  169.1290  145.5820 O   0  0  0  0  0  0  0  0  0  0  0  0
  196.6700  171.3770  145.8230 C   0  0  0  0  0  2  0  0  0  0  0  0
  195.4280  171.3470  144.9820 C   0  0  2  0  0  3  0  0  0  0  0  0
  196.7730  169.9770  146.3770 C   0  0  0  0  0  2  0  0  0  0  0  0
  194.9310  169.9270  145.1290 C   0  0  0  0  0  2  0  0  0  0  0  0
  1 26  2  0  0  0  0
  3 16  1  0  0  0  0
  4 23  1  0  0  0  0
  5 15  1  0  0  0  0
  6  7  1  0  0  0  0
  6 19  1  0  0  0  0
  7  3  1  0  0  0  0
  8 12  1  0  0  0  0
  9 27  2  0  0  0  0
 10 17  1  0  0  0  0
 11  5  2  0  0  0  0
 11 20  1  0  0  0  0
 13 20  2  0  0  0  0
 13  9  1  0  0  0  0
 14  2  1  0  0  0  0
 15 12  1  0  0  0  0
 15  4  2  0  0  0  0
 16  8  1  0  0  0  0
 17 28  1  6  0  0  0
 17 25  1  0  0  0  0
 18 20  1  1  0  0  0
 18  4  1  0  0  0  0
 18  1  1  0  0  0  0
 19  5  1  0  0  0  0
 22 10  1  0  0  0  0
 22 24  1  0  0  0  0
 23 21  2  0  0  0  0
 24 13  1  0  0  0  0
 25  9  1  0  0  0  0
 25 14  1  1  0  0  0
 26 21  1  0  0  0  0
 27  1  1  0  0  0  0
 27  2  1  0  0  0  0
 28 29  1  0  0  0  0
 30 33  1  0  0  0  0
 31 33  1  0  0  0  0
 32 29  1  6  0  0  0
 32 34  1  0  0  0  0
 32 31  1  0  0  0  0
 34 30  1  0  0  0  0
M  END
>  <MODEL>
4

>  <REMARK>
 VINA RESULT:      -8.2      2.045      3.981
  Name = 
  3 active torsions:
  status: ('A' for Active; 'I' for Inactive)
    1  A    between atoms: C_17  and  C_28
    2  A    between atoms: C_28  and  N_29
    3  A    between atoms: N_29  and  C_32
                            x       y       z     vdW  Elec       q    Type
                         _______ _______ _______ _____ _____    ______ ____

>  <TORSDO>
F 3

$$$$
=
 OpenBabel11112417533D

 34 40  0  0  1  0  0  0  0  0999 V2000
  190.1890  173.5290  143.5240 C   0  0  0  0  0  0  0  0  0  0  0  0
  192.2470  172.1590  144.2130 C   0  0  0  0  0  2  0  0  0  0  0  0
  184.3350  178.2990  143.1370 C   0  0  0  0  0  2  0  0  0  0  0  0
  188.3120  174.9310  142.9230 C   0  0  0  0  0  0  0  0  0  0  0  0
  188.2060  177.2000  143.7820 C   0  0  0  0  0  0  0  0  0  0  0  0
  186.2960  178.5540  144.6480 C   0  0  0  0  0  2  0  0  0  0  0  0
  185.2270  179.2950  143.8630 C   0  0  0  0  0  2  0  0  0  0  0  0
  186.2710  177.7050  141.1580 S   0  0  0  0  0  0  0  0  0  0  0  0
  191.9150  174.3810  144.9820 C   0  0  0  0  0  0  0  0  0  0  0  0
  194.1040  176.0420  146.7040 C   0  0  0  0  0  2  0  0  0  0  0  0
  189.3810  176.9940  144.4390 N   0  0  0  0  0  0  0  0  0  0  0  0
  186.3050  176.3010  142.3210 C   0  0  0  0  0  2  0  0  0  0  0  0
  191.2620  175.6320  145.0890 C   0  0  0  0  0  0  0  0  0  0  0  0
  193.5120  172.6180  144.9420 C   0  0  0  0  0  2  0  0  0  0  0  0
  187.6410  176.1620  142.9990 C   0  0  0  0  0  0  0  0  0  0  0  0
  184.5910  178.2640  141.6290 C   0  0  0  0  0  2  0  0  0  0  0  0
  194.2620  175.0030  145.5840 C   0  0  2  0  0  3  0  0  0  0  0  0
  189.5170  174.7550  143.6160 C   0  0  0  0  0  0  0  0  0  0  0  0
  187.5950  178.5650  143.8630 C   0  0  0  0  0  2  0  0  0  0  0  0
  190.0480  175.8100  144.3880 C   0  0  0  0  0  0  0  0  0  0  0  0
  188.3870  172.6990  142.0460 C   0  0  0  0  0  3  0  0  0  0  0  0
  192.6580  176.4050  147.0450 C   0  0  0  0  0  2  0  0  0  0  0  0
  187.7770  173.8450  142.1410 N   0  0  0  0  0  0  0  0  0  0  0  0
  191.8780  176.8080  145.8030 C   0  0  0  0  0  2  0  0  0  0  0  0
  193.1650  173.9310  145.6640 C   0  0  1  0  0  3  0  0  0  0  0  0
  189.6280  172.4780  142.7290 N   0  0  0  0  0  2  0  0  0  0  0  0
  191.3920  173.3670  144.2110 C   0  0  0  0  0  0  0  0  0  0  0  0
  195.6630  174.4070  145.6760 C   0  0  0  0  0  2  0  0  0  0  0  0
  196.3900  174.6530  144.4410 N   0  0  0  0  0  2  0  0  0  0  0  0
  197.0520  171.5510  144.3110 O   0  0  0  0  0  0  0  0  0  0  0  0
  197.9400  173.3760  143.1030 C   0  0  0  0  0  2  0  0  0  0  0  0
  197.5980  173.8460  144.4870 C   0  0  2  0  0  3  0  0  0  0  0  0
  197.8260  171.8730  143.1880 C   0  0  0  0  0  2  0  0  0  0  0  0
  197.3170  172.5660  145.2400 C   0  0  0  0  0  2  0  0  0  0  0  0
  1 18  1  0  0  0  0
  1 27  2  0  0  0  0
  2 14  1  0  0  0  0
  3  7  1  0  0  0  0
  4 15  1  0  0  0  0
  4 18  2  0  0  0  0
  5 19  1  0  0  0  0
  5 11  1  0  0  0  0
  7  6  1  0  0  0  0
  8 16  1  0  0  0  0
  8 12  1  0  0  0  0
  9 13  2  0  0  0  0
  9 25  1  0  0  0  0
 10 22  1  0  0  0  0
 12 15  1  0  0  0  0
 13 24  1  0  0  0  0
 15  5  2  0  0  0  0
 16  3  1  0  0  0  0
 17 25  1  0  0  0  0
 17 28  1  1  0  0  0
 17 10  1  0  0  0  0
 18 20  1  0  0  0  0
 19  6  1  0  0  0  0
 20 11  2  0  0  0  0
 20 13  1  0  0  0  0
 21 23  2  0  0  0  0
 21 26  1  0  0  0  0
 23  4  1  0  0  0  0
 24 22  1  0  0  0  0
 25 14  1  6  0  0  0
 26  1  1  0  0  0  0
 27  2  1  0  0  0  0
 27  9  1  0  0  0  0
 29 28  1  0  0  0  0
 30 34  1  0  0  0  0
 31 33  1  0  0  0  0
 31 32  1  0  0  0  0
 32 29  1  6  0  0  0
 32 34  1  0  0  0  0
 33 30  1  0  0  0  0
M  END
>  <MODEL>
5

>  <REMARK>
 VINA RESULT:      -8.1      1.817      2.149
  Name = 
  3 active torsions:
  status: ('A' for Active; 'I' for Inactive)
    1  A    between atoms: C_17  and  C_28
    2  A    between atoms: C_28  and  N_29
    3  A    between atoms: N_29  and  C_32
                            x       y       z     vdW  Elec       q    Type
                         _______ _______ _______ _____ _____    ______ ____

>  <TORSDO>
F 3

$$$$
=
 OpenBabel11112417533D

 34 40  0  0  1  0  0  0  0  0999 V2000
  192.1630  176.3340  145.4760 C   0  0  0  0  0  0  0  0  0  0  0  0
  190.0670  177.1290  146.7260 C   0  0  0  0  0  2  0  0  0  0  0  0
  197.1550  172.8990  140.9540 C   0  0  0  0  0  2  0  0  0  0  0  0
  194.0650  175.5910  144.1810 C   0  0  0  0  0  0  0  0  0  0  0  0
  193.7350  174.9160  141.8710 C   0  0  0  0  0  0  0  0  0  0  0  0
  194.7050  173.0400  140.5410 C   0  0  0  0  0  2  0  0  0  0  0  0
  196.0740  172.9510  139.8860 C   0  0  0  0  0  2  0  0  0  0  0  0
  196.9390  175.6500  141.5900 S   0  0  0  0  0  0  0  0  0  0  0  0
  189.9640  176.3740  144.4780 C   0  0  0  0  0  0  0  0  0  0  0  0
  187.2960  176.5320  142.6410 C   0  0  0  0  0  2  0  0  0  0  0  0
  192.4060  175.1820  141.9950 N   0  0  0  0  0  0  0  0  0  0  0  0
  196.0650  174.7640  142.9220 C   0  0  0  0  0  2  0  0  0  0  0  0
  190.4700  175.8920  143.2480 C   0  0  0  0  0  0  0  0  0  0  0  0
  188.6660  177.4120  146.1800 C   0  0  0  0  0  2  0  0  0  0  0  0
  194.6040  175.1200  142.9720 C   0  0  0  0  0  0  0  0  0  0  0  0
  197.9410  174.2070  141.0670 C   0  0  0  0  0  2  0  0  0  0  0  0
  187.8380  177.4630  143.7360 C   0  0  2  0  0  3  0  0  0  0  0  0
  192.6910  175.8500  144.2720 C   0  0  2  0  0  3  0  0  0  0  0  0
  194.2340  174.4830  140.5270 C   0  0  0  0  0  2  0  0  0  0  0  0
  191.8560  175.6330  143.1550 C   0  0  0  0  0  0  0  0  0  0  0  0
  194.4330  176.2600  146.4550 C   0  0  0  0  0  3  0  0  0  0  0  0
  188.1920  175.3370  142.3120 C   0  0  0  0  0  2  0  0  0  0  0  0
  194.9070  175.8120  145.3280 N   0  0  0  0  0  0  0  0  0  0  0  0
  189.6160  175.7770  142.0100 C   0  0  0  0  0  2  0  0  0  0  0  0
  188.5450  176.6640  144.8410 C   0  0  1  0  0  3  0  0  0  0  0  0
  193.0350  176.5490  146.5900 N   0  0  0  0  0  0  0  0  0  0  0  0
  190.7940  176.5960  145.5530 C   0  0  0  0  0  0  0  0  0  0  0  0
  186.6790  178.2960  144.2740 C   0  0  0  0  0  2  0  0  0  0  0  0
  185.5350  177.4400  144.5450 N   0  0  0  0  0  2  0  0  0  0  0  0
  185.6830  177.5870  147.7130 O   0  0  0  0  0  0  0  0  0  0  0  0
  185.4900  179.2930  146.0910 C   0  0  0  0  0  2  0  0  0  0  0  0
  184.7580  178.0820  145.5920 C   0  0  2  0  0  3  0  0  0  0  0  0
  185.7860  178.9730  147.5370 C   0  0  0  0  0  2  0  0  0  0  0  0
  184.7010  177.1750  146.8000 C   0  0  0  0  0  2  0  0  0  0  0  0
  1 27  1  0  0  0  0
  1 26  2  0  0  0  0
  3 16  1  0  0  0  0
  4 18  1  0  0  0  0
  4 23  1  0  0  0  0
  5 11  2  0  0  0  0
  5 15  1  0  0  0  0
  7  6  1  0  0  0  0
  7  3  1  0  0  0  0
  8 12  1  0  0  0  0
  9 25  1  0  0  0  0
  9 27  2  0  0  0  0
 10 17  1  0  0  0  0
 11 20  1  0  0  0  0
 12 15  1  0  0  0  0
 13  9  1  0  0  0  0
 14  2  1  0  0  0  0
 15  4  2  0  0  0  0
 16  8  1  0  0  0  0
 17 28  1  1  0  0  0
 17 25  1  0  0  0  0
 18 20  1  6  0  0  0
 18  1  1  0  0  0  0
 19  6  1  0  0  0  0
 19  5  1  0  0  0  0
 20 13  2  0  0  0  0
 21 26  1  0  0  0  0
 22 10  1  0  0  0  0
 23 21  2  0  0  0  0
 24 22  1  0  0  0  0
 24 13  1  0  0  0  0
 25 14  1  1  0  0  0
 27  2  1  0  0  0  0
 28 29  1  0  0  0  0
 31 33  1  0  0  0  0
 32 29  1  6  0  0  0
 32 31  1  0  0  0  0
 32 34  1  0  0  0  0
 33 30  1  0  0  0  0
 34 30  1  0  0  0  0
M  END
>  <MODEL>
6

>  <REMARK>
 VINA RESULT:      -8.1      3.555      9.479
  Name = 
  3 active torsions:
  status: ('A' for Active; 'I' for Inactive)
    1  A    between atoms: C_17  and  C_28
    2  A    between atoms: C_28  and  N_29
    3  A    between atoms: N_29  and  C_32
                            x       y       z     vdW  Elec       q    Type
                         _______ _______ _______ _____ _____    ______ ____

>  <TORSDO>
F 3

$$$$
=
 OpenBabel11112417533D

 34 40  0  0  1  0  0  0  0  0999 V2000
  191.0430  175.7110  145.8970 C   0  0  0  0  0  0  0  0  0  0  0  0
  193.2730  174.4420  145.8400 C   0  0  0  0  0  2  0  0  0  0  0  0
  184.6170  179.3430  144.2610 C   0  0  0  0  0  2  0  0  0  0  0  0
  188.8940  176.8210  145.8550 C   0  0  0  0  0  0  0  0  0  0  0  0
  187.3340  176.3130  144.0640 C   0  0  0  0  0  0  0  0  0  0  0  0
  185.8050  177.7740  142.7380 C   0  0  0  0  0  2  0  0  0  0  0  0
  184.4490  178.3350  143.1350 C   0  0  0  0  0  2  0  0  0  0  0  0
  185.0820  177.3650  146.2320 S   0  0  0  0  0  0  0  0  0  0  0  0
  191.6250  174.1400  144.1580 C   0  0  0  0  0  0  0  0  0  0  0  0
  191.8350  171.9200  141.8030 C   0  0  0  0  0  2  0  0  0  0  0  0
  188.2400  175.4450  143.5360 N   0  0  0  0  0  0  0  0  0  0  0  0
  186.7190  178.0600  145.8320 C   0  0  0  0  0  2  0  0  0  0  0  0
  190.3780  174.3280  143.5160 C   0  0  0  0  0  0  0  0  0  0  0  0
  193.6980  173.2780  144.9440 C   0  0  0  0  0  2  0  0  0  0  0  0
  187.6440  177.0260  145.2500 C   0  0  0  0  0  0  0  0  0  0  0  0
  184.1380  178.8090  145.6120 C   0  0  0  0  0  2  0  0  0  0  0  0
  192.2990  171.9020  143.2670 C   0  0  2  0  0  3  0  0  0  0  0  0
  189.8030  175.9220  145.2800 C   0  0  2  0  0  3  0  0  0  0  0  0
  186.0000  176.4180  143.3910 C   0  0  0  0  0  2  0  0  0  0  0  0
  189.4610  175.2320  144.0970 C   0  0  0  0  0  0  0  0  0  0  0  0
  190.4040  177.3400  147.6460 C   0  0  0  0  0  3  0  0  0  0  0  0
  191.0940  173.1900  141.3800 C   0  0  0  0  0  2  0  0  0  0  0  0
  189.2560  177.5230  147.0600 N   0  0  0  0  0  0  0  0  0  0  0  0
  189.9470  173.5060  142.3280 C   0  0  0  0  0  2  0  0  0  0  0  0
  192.7720  173.2930  143.7150 C   0  0  1  0  0  3  0  0  0  0  0  0
  191.3600  176.4220  147.0990 N   0  0  0  0  0  0  0  0  0  0  0  0
  191.9370  174.8080  145.3210 C   0  0  0  0  0  0  0  0  0  0  0  0
  193.3880  170.8440  143.4120 C   0  0  0  0  0  2  0  0  0  0  0  0
  192.9200  169.7620  144.2620 N   0  0  0  0  0  2  0  0  0  0  0  0
  195.2900  169.9920  146.3630 O   0  0  0  0  0  0  0  0  0  0  0  0
  193.8110  168.2140  145.8860 C   0  0  0  0  0  2  0  0  0  0  0  0
  194.0810  168.9590  144.6110 C   0  0  2  0  0  3  0  0  0  0  0  0
  194.8290  168.7640  146.8550 C   0  0  0  0  0  2  0  0  0  0  0  0
  195.2320  169.8710  144.9670 C   0  0  0  0  0  2  0  0  0  0  0  0
  1 26  2  0  0  0  0
  3 16  1  0  0  0  0
  4 23  1  0  0  0  0
  5 15  1  0  0  0  0
  6  7  1  0  0  0  0
  6 19  1  0  0  0  0
  7  3  1  0  0  0  0
  9 27  2  0  0  0  0
 10 17  1  0  0  0  0
 11  5  2  0  0  0  0
 11 20  1  0  0  0  0
 12  8  1  0  0  0  0
 13 20  2  0  0  0  0
 13  9  1  0  0  0  0
 14  2  1  0  0  0  0
 15 12  1  0  0  0  0
 15  4  2  0  0  0  0
 16  8  1  0  0  0  0
 17 28  1  6  0  0  0
 17 25  1  0  0  0  0
 18 20  1  1  0  0  0
 18  4  1  0  0  0  0
 18  1  1  0  0  0  0
 19  5  1  0  0  0  0
 22 10  1  0  0  0  0
 22 24  1  0  0  0  0
 23 21  2  0  0  0  0
 24 13  1  0  0  0  0
 25  9  1  0  0  0  0
 25 14  1  1  0  0  0
 26 21  1  0  0  0  0
 27  2  1  0  0  0  0
 27  1  1  0  0  0  0
 28 29  1  0  0  0  0
 30 33  1  0  0  0  0
 31 33  1  0  0  0  0
 32 29  1  1  0  0  0
 32 34  1  0  0  0  0
 32 31  1  0  0  0  0
 34 30  1  0  0  0  0
M  END
>  <MODEL>
7

>  <REMARK>
 VINA RESULT:      -8.1      2.733      4.385
  Name = 
  3 active torsions:
  status: ('A' for Active; 'I' for Inactive)
    1  A    between atoms: C_17  and  C_28
    2  A    between atoms: C_28  and  N_29
    3  A    between atoms: N_29  and  C_32
                            x       y       z     vdW  Elec       q    Type
                         _______ _______ _______ _____ _____    ______ ____

>  <TORSDO>
F 3

$$$$
=
 OpenBabel11112417533D

 34 40  0  0  1  0  0  0  0  0999 V2000
  190.9910  176.0090  146.3380 C   0  0  0  0  0  0  0  0  0  0  0  0
  193.2430  174.7900  146.5130 C   0  0  0  0  0  2  0  0  0  0  0  0
  184.6290  179.3890  144.0440 C   0  0  0  0  0  2  0  0  0  0  0  0
  188.8300  177.0640  146.0810 C   0  0  0  0  0  0  0  0  0  0  0  0
  187.4090  176.4150  144.2200 C   0  0  0  0  0  0  0  0  0  0  0  0
  185.9500  177.7600  142.7060 C   0  0  0  0  0  2  0  0  0  0  0  0
  184.5600  178.3120  142.9730 C   0  0  0  0  0  2  0  0  0  0  0  0
  184.9910  177.5430  146.1600 S   0  0  0  0  0  0  0  0  0  0  0  0
  191.7230  174.3510  144.7420 C   0  0  0  0  0  0  0  0  0  0  0  0
  192.1390  172.0010  142.5460 C   0  0  0  0  0  2  0  0  0  0  0  0
  188.3660  175.5390  143.8100 N   0  0  0  0  0  0  0  0  0  0  0  0
  186.6390  178.2500  145.8320 C   0  0  0  0  0  2  0  0  0  0  0  0
  190.5210  174.4710  144.0050 C   0  0  0  0  0  0  0  0  0  0  0  0
  193.7520  173.5850  145.7200 C   0  0  0  0  0  2  0  0  0  0  0  0
  187.6210  177.2040  145.3790 C   0  0  0  0  0  0  0  0  0  0  0  0
  184.0660  178.9250  145.3890 C   0  0  0  0  0  2  0  0  0  0  0  0
  192.5000  172.0800  144.0370 C   0  0  2  0  0  3  0  0  0  0  0  0
  189.7930  176.1540  145.6250 C   0  0  2  0  0  3  0  0  0  0  0  0
  186.1240  176.4500  143.4520 C   0  0  0  0  0  2  0  0  0  0  0  0
  189.5480  175.3870  144.4660 C   0  0  0  0  0  0  0  0  0  0  0  0
  190.2000  177.7230  147.9360 C   0  0  0  0  0  3  0  0  0  0  0  0
  191.4060  173.2250  141.9960 C   0  0  0  0  0  2  0  0  0  0  0  0
  189.0920  177.8440  147.2630 N   0  0  0  0  0  0  0  0  0  0  0  0
  190.1900  173.5710  142.8420 C   0  0  0  0  0  2  0  0  0  0  0  0
  192.9140  173.5050  144.4320 C   0  0  1  0  0  3  0  0  0  0  0  0
  191.2090  176.7960  147.5130 N   0  0  0  0  0  0  0  0  0  0  0  0
  191.9400  175.0940  145.8810 C   0  0  0  0  0  0  0  0  0  0  0  0
  193.5960  171.0580  144.3210 C   0  0  0  0  0  2  0  0  0  0  0  0
  194.6040  171.1070  143.2750 N   0  0  0  0  0  2  0  0  0  0  0  0
  197.1660  172.3020  144.7200 O   0  0  0  0  0  0  0  0  0  0  0  0
  195.7290  170.5310  145.3310 C   0  0  0  0  0  2  0  0  0  0  0  0
  195.8300  170.5620  143.8340 C   0  0  2  0  0  3  0  0  0  0  0  0
  196.8160  171.4710  145.7920 C   0  0  0  0  0  2  0  0  0  0  0  0
  196.9690  171.5200  143.5730 C   0  0  0  0  0  2  0  0  0  0  0  0
  1 26  2  0  0  0  0
  3 16  1  0  0  0  0
  4 23  1  0  0  0  0
  5 15  1  0  0  0  0
  6  7  1  0  0  0  0
  6 19  1  0  0  0  0
  7  3  1  0  0  0  0
  9 27  2  0  0  0  0
 10 17  1  0  0  0  0
 11  5  2  0  0  0  0
 11 20  1  0  0  0  0
 12  8  1  0  0  0  0
 13 20  2  0  0  0  0
 13  9  1  0  0  0  0
 14  2  1  0  0  0  0
 15 12  1  0  0  0  0
 15  4  2  0  0  0  0
 16  8  1  0  0  0  0
 17 28  1  6  0  0  0
 17 25  1  0  0  0  0
 18 20  1  1  0  0  0
 18  4  1  0  0  0  0
 18  1  1  0  0  0  0
 19  5  1  0  0  0  0
 22 10  1  0  0  0  0
 22 24  1  0  0  0  0
 23 21  2  0  0  0  0
 24 13  1  0  0  0  0
 25  9  1  0  0  0  0
 25 14  1  1  0  0  0
 26 21  1  0  0  0  0
 27  1  1  0  0  0  0
 27  2  1  0  0  0  0
 29 28  1  0  0  0  0
 30 33  1  0  0  0  0
 31 33  1  0  0  0  0
 32 29  1  6  0  0  0
 32 31  1  0  0  0  0
 34 32  1  0  0  0  0
 34 30  1  0  0  0  0
M  END
>  <MODEL>
8

>  <REMARK>
 VINA RESULT:      -7.9      1.991      3.868
  Name = 
  3 active torsions:
  status: ('A' for Active; 'I' for Inactive)
    1  A    between atoms: C_17  and  C_28
    2  A    between atoms: C_28  and  N_29
    3  A    between atoms: N_29  and  C_32
                            x       y       z     vdW  Elec       q    Type
                         _______ _______ _______ _____ _____    ______ ____

>  <TORSDO>
F 3

$$$$
=
 OpenBabel11112417533D

 34 40  0  0  1  0  0  0  0  0999 V2000
  192.1890  175.9930  145.1400 C   0  0  0  0  0  0  0  0  0  0  0  0
  190.4100  177.8210  144.8470 C   0  0  0  0  0  2  0  0  0  0  0  0
  196.0070  169.5010  145.8050 C   0  0  0  0  0  2  0  0  0  0  0  0
  193.8080  174.2050  145.3100 C   0  0  0  0  0  0  0  0  0  0  0  0
  193.4310  172.1450  144.0780 C   0  0  0  0  0  0  0  0  0  0  0  0
  193.7900  169.7550  144.7030 C   0  0  0  0  0  2  0  0  0  0  0  0
  195.0880  168.9650  144.7180 C   0  0  0  0  0  2  0  0  0  0  0  0
  196.7030  171.8250  144.3460 S   0  0  0  0  0  0  0  0  0  0  0  0
  190.2140  175.7090  143.7790 C   0  0  0  0  0  0  0  0  0  0  0  0
  187.9000  174.9840  141.6250 C   0  0  0  0  0  2  0  0  0  0  0  0
  192.2680  172.6610  143.5930 N   0  0  0  0  0  0  0  0  0  0  0  0
  195.4860  172.3680  145.5890 C   0  0  0  0  0  2  0  0  0  0  0  0
  190.6100  174.4030  143.4060 C   0  0  0  0  0  0  0  0  0  0  0  0
  189.2340  177.8750  143.8700 C   0  0  0  0  0  2  0  0  0  0  0  0
  194.2360  172.9150  144.9550 C   0  0  0  0  0  0  0  0  0  0  0  0
  197.1830  170.3020  145.2440 C   0  0  0  0  0  2  0  0  0  0  0  0
  188.6490  176.2930  141.9170 C   0  0  2  0  0  3  0  0  0  0  0  0
  192.6030  174.7000  144.7930 C   0  0  0  0  0  0  0  0  0  0  0  0
  193.8450  170.7900  143.5940 C   0  0  0  0  0  2  0  0  0  0  0  0
  191.8260  173.9040  143.9250 C   0  0  0  0  0  0  0  0  0  0  0  0
  194.2190  176.2280  146.5320 C   0  0  0  0  0  3  0  0  0  0  0  0
  188.3530  173.7850  142.4600 C   0  0  0  0  0  2  0  0  0  0  0  0
  194.5910  175.0250  146.1980 N   0  0  0  0  0  0  0  0  0  0  0  0
  189.8590  173.5900  142.3830 C   0  0  0  0  0  2  0  0  0  0  0  0
  188.9590  176.4320  143.4140 C   0  0  1  0  0  3  0  0  0  0  0  0
  193.0000  176.7800  146.0180 N   0  0  0  0  0  0  0  0  0  0  0  0
  190.9910  176.4800  144.6130 C   0  0  1  0  0  3  0  0  0  0  0  0
  187.8120  177.4530  141.3870 C   0  0  0  0  0  2  0  0  0  0  0  0
  186.4000  177.1080  141.4340 N   0  0  0  0  0  2  0  0  0  0  0  0
  183.8700  178.0530  143.1030 O   0  0  0  0  0  0  0  0  0  0  0  0
  186.0240  178.9960  142.8900 C   0  0  0  0  0  2  0  0  0  0  0  0
  185.6600  178.3500  141.5850 C   0  0  2  0  0  3  0  0  0  0  0  0
  184.7320  179.0000  143.6700 C   0  0  0  0  0  2  0  0  0  0  0  0
  184.1890  178.0410  141.7370 C   0  0  0  0  0  2  0  0  0  0  0  0
  1 26  2  0  0  0  0
  4 23  1  0  0  0  0
  5 15  1  0  0  0  0
  6  7  1  0  0  0  0
  7  3  1  0  0  0  0
  8 16  1  0  0  0  0
  8 12  1  0  0  0  0
  9 27  1  0  0  0  0
 10 17  1  0  0  0  0
 10 22  1  0  0  0  0
 11 20  1  0  0  0  0
 11  5  2  0  0  0  0
 13  9  2  0  0  0  0
 13 20  1  0  0  0  0
 14  2  1  0  0  0  0
 15  4  2  0  0  0  0
 15 12  1  0  0  0  0
 16  3  1  0  0  0  0
 17 28  1  1  0  0  0
 17 25  1  0  0  0  0
 18  1  1  0  0  0  0
 18  4  1  0  0  0  0
 19  5  1  0  0  0  0
 19  6  1  0  0  0  0
 20 18  2  0  0  0  0
 23 21  2  0  0  0  0
 24 22  1  0  0  0  0
 24 13  1  0  0  0  0
 25  9  1  0  0  0  0
 25 14  1  6  0  0  0
 26 21  1  0  0  0  0
 27  2  1  6  0  0  0
 27  1  1  0  0  0  0
 28 29  1  0  0  0  0
 30 33  1  0  0  0  0
 31 33  1  0  0  0  0
 32 29  1  1  0  0  0
 32 34  1  0  0  0  0
 32 31  1  0  0  0  0
 34 30  1  0  0  0  0
M  END
>  <MODEL>
9

>  <REMARK>
 VINA RESULT:      -7.8      4.179      9.455
  Name = 
  3 active torsions:
  status: ('A' for Active; 'I' for Inactive)
    1  A    between atoms: C_17  and  C_28
    2  A    between atoms: C_28  and  N_29
    3  A    between atoms: N_29  and  C_32
                            x       y       z     vdW  Elec       q    Type
                         _______ _______ _______ _____ _____    ______ ____

>  <TORSDO>
F 3

$$$$
