=
 OpenBabel11112417353D

 28 32  0  0  1  0  0  0  0  0999 V2000
  186.4940  178.5610  145.3320 C   0  0  0  0  0  0  0  0  0  0  0  0
  190.0600  177.2790  147.8410 O   0  0  0  0  0  0  0  0  0  0  0  0
  187.5370  174.2170  141.3450 O   0  0  0  0  0  1  0  0  0  0  0  0
  186.0650  177.3870  147.8390 C   0  0  0  0  0  3  0  0  0  0  0  0
  189.4880  175.5100  141.9690 C   0  0  1  0  0  3  0  0  0  0  0  0
  186.6570  179.1400  144.0750 O   0  0  0  0  0  0  0  0  0  0  0  0
  189.9190  175.0280  146.8390 O   0  0  0  0  0  0  0  0  0  0  0  0
  190.4010  176.4380  146.6450 S   0  0  0  0  0  0  0  0  0  0  0  0
  192.6750  176.7630  145.2370 C   0  0  0  0  0  0  0  0  0  0  0  0
  189.6990  177.1460  145.1840 C   0  0  1  0  0  3  0  0  0  0  0  0
  183.8870  177.8470  141.9520 C   0  0  0  0  0  1  0  0  0  0  0  0
  188.2360  177.0950  143.3370 C   0  0  1  0  0  3  0  0  0  0  0  0
  191.8780  177.2040  144.0260 C   0  0  0  0  0  2  0  0  0  0  0  0
  192.1200  176.4500  146.3780 N   0  0  0  0  0  0  0  0  0  0  0  0
  185.1950  177.7820  142.7100 C   0  0  1  0  0  3  0  0  0  0  0  0
  187.2510  177.4270  145.7130 C   0  0  0  0  0  0  0  0  0  0  0  0
  188.0360  175.5120  141.5100 C   0  0  2  0  0  3  0  0  0  0  0  0
  194.0940  176.7600  145.1410 N   0  0  0  0  0  1  0  0  0  0  0  0
  186.2630  177.1860  141.8020 C   0  0  0  0  0  2  0  0  0  0  0  0
  187.0160  176.8500  146.9680 C   0  0  0  0  0  3  0  0  0  0  0  0
  185.5370  179.0880  146.2100 C   0  0  0  0  0  3  0  0  0  0  0  0
  185.3270  178.5060  147.4600 C   0  0  0  0  0  3  0  0  0  0  0  0
  185.5800  179.1910  143.1500 C   0  0  0  0  0  2  0  0  0  0  0  0
  189.6320  176.7870  142.8030 C   0  0  1  0  0  3  0  0  0  0  0  0
  187.2280  176.2680  142.5500 C   0  0  2  0  0  3  0  0  0  0  0  0
  190.4910  176.5860  144.0430 C   0  0  2  0  0  3  0  0  0  0  0  0
  189.7540  174.3630  142.7310 O   0  0  0  0  0  1  0  0  0  0  0  0
  188.2820  176.7540  144.8310 C   0  0  2  0  0  3  0  0  0  0  0  0
  1 16  2  0  0  0  0
  1 21  1  0  0  0  0
  3 17  1  0  0  0  0
  5 27  1  1  0  0  0
  5 24  1  0  0  0  0
  6  1  1  0  0  0  0
  8  7  2  0  0  0  0
  8  2  2  0  0  0  0
  9 14  2  0  0  0  0
 10  8  1  1  0  0  0
 11 15  1  0  0  0  0
 12 28  1  0  0  0  0
 13 26  1  0  0  0  0
 13  9  1  0  0  0  0
 14  8  1  0  0  0  0
 15 23  1  0  0  0  0
 16 20  1  0  0  0  0
 17  5  1  0  0  0  0
 17 25  1  0  0  0  0
 18  9  1  0  0  0  0
 19 25  1  0  0  0  0
 19 15  1  0  0  0  0
 20  4  2  0  0  0  0
 21 22  2  0  0  0  0
 22  4  1  0  0  0  0
 23  6  1  0  0  0  0
 24 12  1  0  0  0  0
 24 26  1  0  0  0  0
 25 12  1  0  0  0  0
 26 10  1  0  0  0  0
 28 10  1  0  0  0  0
 28 16  1  0  0  0  0
M  END
>  <MODEL>
1

>  <REMARK>
 VINA RESULT:      -9.4      0.000      0.000
  Name = 
  0 active torsions:
  status: ('A' for Active; 'I' for Inactive)
                            x       y       z     vdW  Elec       q    Type
                         _______ _______ _______ _____ _____    ______ ____

>  <TORSDO>
F 0

$$$$
=
 OpenBabel11112417353D

 28 32  0  0  1  0  0  0  0  0999 V2000
  186.4510  176.7140  143.5400 C   0  0  0  0  0  0  0  0  0  0  0  0
  189.3610  174.3590  140.9620 O   0  0  0  0  0  0  0  0  0  0  0  0
  190.6250  177.5700  147.7470 O   0  0  0  0  0  1  0  0  0  0  0  0
  187.3690  177.8190  141.1350 C   0  0  0  0  0  3  0  0  0  0  0  0
  190.4360  175.2890  146.9560 C   0  0  1  0  0  3  0  0  0  0  0  0
  185.9750  176.2100  144.7490 O   0  0  0  0  0  0  0  0  0  0  0  0
  191.2380  175.4760  142.1120 O   0  0  0  0  0  0  0  0  0  0  0  0
  190.2200  174.3730  142.1940 S   0  0  0  0  0  0  0  0  0  0  0  0
  190.9640  172.1240  143.4760 C   0  0  0  0  0  0  0  0  0  0  0  0
  189.2120  174.5550  143.6370 C   0  0  1  0  0  3  0  0  0  0  0  0
  185.7210  179.1080  147.0720 C   0  0  0  0  0  1  0  0  0  0  0  0
  188.4970  175.7360  145.5460 C   0  0  1  0  0  3  0  0  0  0  0  0
  190.1550  172.5320  144.6900 C   0  0  0  0  0  2  0  0  0  0  0  0
  191.0160  172.8380  142.3830 N   0  0  0  0  0  0  0  0  0  0  0  0
  186.4270  178.0410  146.2620 C   0  0  1  0  0  3  0  0  0  0  0  0
  187.8200  176.6100  143.1990 C   0  0  0  0  0  0  0  0  0  0  0  0
  189.7290  176.5320  147.4770 C   0  0  2  0  0  3  0  0  0  0  0  0
  191.6370  170.8710  143.5090 N   0  0  0  0  0  1  0  0  0  0  0  0
  187.4260  177.3200  147.1580 C   0  0  0  0  0  2  0  0  0  0  0  0
  188.2610  177.1760  141.9950 C   0  0  0  0  0  3  0  0  0  0  0  0
  185.5640  177.3670  142.6740 C   0  0  0  0  0  3  0  0  0  0  0  0
  186.0200  177.9140  141.4740 C   0  0  0  0  0  3  0  0  0  0  0  0
  185.3860  177.0680  145.7160 C   0  0  0  0  0  2  0  0  0  0  0  0
  189.4120  174.6180  146.0360 C   0  0  1  0  0  3  0  0  0  0  0  0
  188.7170  176.9580  146.4280 C   0  0  2  0  0  3  0  0  0  0  0  0
  190.0400  174.0430  144.7740 C   0  0  2  0  0  3  0  0  0  0  0  0
  191.5980  175.6500  146.2580 O   0  0  0  0  0  1  0  0  0  0  0  0
  188.8710  175.9600  144.0760 C   0  0  2  0  0  3  0  0  0  0  0  0
  1  6  1  0  0  0  0
  2  8  2  0  0  0  0
  4 22  2  0  0  0  0
  4 20  1  0  0  0  0
  5 27  1  6  0  0  0
  5 17  1  0  0  0  0
  6 23  1  0  0  0  0
  7  8  2  0  0  0  0
  8 14  1  0  0  0  0
  9 18  1  0  0  0  0
  9 13  1  0  0  0  0
 10  8  1  6  0  0  0
 10 28  1  0  0  0  0
 10 26  1  0  0  0  0
 12 24  1  0  0  0  0
 12 25  1  0  0  0  0
 13 26  1  0  0  0  0
 14  9  2  0  0  0  0
 15 11  1  0  0  0  0
 15 19  1  0  0  0  0
 16  1  1  0  0  0  0
 16 28  1  0  0  0  0
 17  3  1  0  0  0  0
 20 16  2  0  0  0  0
 21  1  2  0  0  0  0
 22 21  1  0  0  0  0
 23 15  1  0  0  0  0
 24  5  1  0  0  0  0
 25 19  1  0  0  0  0
 25 17  1  0  0  0  0
 26 24  1  0  0  0  0
 28 12  1  0  0  0  0
M  END
>  <MODEL>
2

>  <REMARK>
 VINA RESULT:      -8.7      2.650      4.888
  Name = 
  0 active torsions:
  status: ('A' for Active; 'I' for Inactive)
                            x       y       z     vdW  Elec       q    Type
                         _______ _______ _______ _____ _____    ______ ____

>  <TORSDO>
F 0

$$$$
=
 OpenBabel11112417353D

 28 32  0  0  1  0  0  0  0  0999 V2000
  192.2490  175.6990  142.4130 C   0  0  0  0  0  0  0  0  0  0  0  0
  188.0960  175.7080  140.5660 O   0  0  0  0  0  0  0  0  0  0  0  0
  189.9770  174.9790  147.9050 O   0  0  0  0  0  1  0  0  0  0  0  0
  191.4420  173.5380  140.8230 C   0  0  0  0  0  3  0  0  0  0  0  0
  188.9140  176.7110  146.5880 C   0  0  1  0  0  3  0  0  0  0  0  0
  192.6910  176.7460  143.2180 O   0  0  0  0  0  0  0  0  0  0  0  0
  187.2490  174.4860  142.5360 O   0  0  0  0  0  0  0  0  0  0  0  0
  187.6340  175.8330  141.9890 S   0  0  0  0  0  0  0  0  0  0  0  0
  186.2380  177.9540  142.8860 C   0  0  0  0  0  0  0  0  0  0  0  0
  188.9010  176.5730  142.9770 C   0  0  1  0  0  3  0  0  0  0  0  0
  194.7540  175.2080  145.9090 C   0  0  0  0  0  1  0  0  0  0  0  0
  190.4790  176.5210  144.7270 C   0  0  1  0  0  3  0  0  0  0  0  0
  187.3890  178.3450  143.7920 C   0  0  0  0  0  2  0  0  0  0  0  0
  186.2830  176.9240  142.0840 N   0  0  0  0  0  0  0  0  0  0  0  0
  193.4780  175.5680  145.1770 C   0  0  1  0  0  3  0  0  0  0  0  0
  190.9490  175.1620  142.5680 C   0  0  0  0  0  0  0  0  0  0  0  0
  190.2090  176.0960  147.0990 C   0  0  2  0  0  3  0  0  0  0  0  0
  185.0900  178.7930  142.8620 N   0  0  0  0  0  1  0  0  0  0  0  0
  192.4830  176.1470  146.1750 C   0  0  0  0  0  2  0  0  0  0  0  0
  190.5670  174.0760  141.7690 C   0  0  0  0  0  3  0  0  0  0  0  0
  193.1240  175.1470  141.4660 C   0  0  0  0  0  3  0  0  0  0  0  0
  192.7200  174.0740  140.6720 C   0  0  0  0  0  3  0  0  0  0  0  0
  193.8050  176.5810  144.0840 C   0  0  0  0  0  2  0  0  0  0  0  0
  189.2840  177.3240  145.2340 C   0  0  1  0  0  3  0  0  0  0  0  0
  191.0460  175.7180  145.8890 C   0  0  2  0  0  3  0  0  0  0  0  0
  188.2020  177.1240  144.1820 C   0  0  2  0  0  3  0  0  0  0  0  0
  187.9280  175.7230  146.4550 O   0  0  0  0  0  1  0  0  0  0  0  0
  189.9380  175.6550  143.5830 C   0  0  2  0  0  3  0  0  0  0  0  0
  1 16  1  0  0  0  0
  1  6  1  0  0  0  0
  2  8  2  0  0  0  0
  4 20  1  0  0  0  0
  5 27  1  6  0  0  0
  5 17  1  0  0  0  0
  6 23  1  0  0  0  0
  8 14  1  0  0  0  0
  8  7  2  0  0  0  0
  9 13  1  0  0  0  0
 10  8  1  6  0  0  0
 10 28  1  0  0  0  0
 10 26  1  0  0  0  0
 12 24  1  0  0  0  0
 12 25  1  0  0  0  0
 13 26  1  0  0  0  0
 14  9  2  0  0  0  0
 15 11  1  0  0  0  0
 15 19  1  0  0  0  0
 16 28  1  0  0  0  0
 17  3  1  0  0  0  0
 18  9  1  0  0  0  0
 20 16  2  0  0  0  0
 21  1  2  0  0  0  0
 22  4  2  0  0  0  0
 22 21  1  0  0  0  0
 23 15  1  0  0  0  0
 24  5  1  0  0  0  0
 25 19  1  0  0  0  0
 25 17  1  0  0  0  0
 26 24  1  0  0  0  0
 28 12  1  0  0  0  0
M  END
>  <MODEL>
3

>  <REMARK>
 VINA RESULT:      -7.9      3.053      6.930
  Name = 
  0 active torsions:
  status: ('A' for Active; 'I' for Inactive)
                            x       y       z     vdW  Elec       q    Type
                         _______ _______ _______ _____ _____    ______ ____

>  <TORSDO>
F 0

$$$$
=
 OpenBabel11112417353D

 28 32  0  0  1  0  0  0  0  0999 V2000
  188.1010  176.0440  146.1790 C   0  0  0  0  0  0  0  0  0  0  0  0
  186.3670  176.5250  142.0050 O   0  0  0  0  0  0  0  0  0  0  0  0
  193.6890  176.5310  144.0850 O   0  0  0  0  0  1  0  0  0  0  0  0
  186.6980  178.3800  145.5280 C   0  0  0  0  0  3  0  0  0  0  0  0
  192.2750  174.9990  142.8520 C   0  0  1  0  0  3  0  0  0  0  0  0
  188.8140  174.9050  146.5450 O   0  0  0  0  0  0  0  0  0  0  0  0
  188.4440  177.6590  141.3050 O   0  0  0  0  0  0  0  0  0  0  0  0
  187.7890  176.3300  141.5620 S   0  0  0  0  0  0  0  0  0  0  0  0
  188.5620  174.2710  140.0070 C   0  0  0  0  0  0  0  0  0  0  0  0
  188.6860  175.4130  142.7800 C   0  0  1  0  0  3  0  0  0  0  0  0
  191.5560  176.0540  148.7850 C   0  0  0  0  0  1  0  0  0  0  0  0
  190.3920  175.1990  144.3900 C   0  0  1  0  0  3  0  0  0  0  0  0
  189.4060  173.7180  141.1370 C   0  0  0  0  0  2  0  0  0  0  0  0
  187.8380  175.3520  140.1240 N   0  0  0  0  0  0  0  0  0  0  0  0
  190.8340  175.8600  147.4690 C   0  0  1  0  0  3  0  0  0  0  0  0
  188.3300  176.6740  144.9330 C   0  0  0  0  0  0  0  0  0  0  0  0
  192.7960  175.4630  144.2050 C   0  0  2  0  0  3  0  0  0  0  0  0
  188.5060  173.5360  138.7910 N   0  0  0  0  0  1  0  0  0  0  0  0
  191.8110  175.2920  146.4480 C   0  0  0  0  0  2  0  0  0  0  0  0
  187.6230  177.8460  144.6290 C   0  0  0  0  0  3  0  0  0  0  0  0
  187.1750  176.5910  147.0780 C   0  0  0  0  0  3  0  0  0  0  0  0
  186.4730  177.7520  146.7520 C   0  0  0  0  0  3  0  0  0  0  0  0
  189.6610  174.9090  147.6860 C   0  0  0  0  0  2  0  0  0  0  0  0
  190.8690  174.4630  143.1420 C   0  0  1  0  0  3  0  0  0  0  0  0
  191.5960  175.8600  145.0470 C   0  0  2  0  0  3  0  0  0  0  0  0
  189.8640  174.8320  142.0600 C   0  0  2  0  0  3  0  0  0  0  0  0
  192.2420  176.0740  141.9520 O   0  0  0  0  0  1  0  0  0  0  0  0
  189.3310  176.1920  143.9030 C   0  0  2  0  0  3  0  0  0  0  0  0
  1  6  1  0  0  0  0
  1 21  1  0  0  0  0
  3 17  1  0  0  0  0
  4 22  1  0  0  0  0
  5 27  1  6  0  0  0
  5 24  1  0  0  0  0
  5 17  1  0  0  0  0
  6 23  1  0  0  0  0
  7  8  2  0  0  0  0
  8  2  2  0  0  0  0
  9 14  2  0  0  0  0
  9 13  1  0  0  0  0
 10  8  1  6  0  0  0
 10 28  1  0  0  0  0
 12 25  1  0  0  0  0
 13 26  1  0  0  0  0
 14  8  1  0  0  0  0
 15 23  1  0  0  0  0
 15 11  1  0  0  0  0
 16  1  2  0  0  0  0
 17 25  1  0  0  0  0
 18  9  1  0  0  0  0
 19 15  1  0  0  0  0
 20 16  1  0  0  0  0
 20  4  2  0  0  0  0
 22 21  2  0  0  0  0
 24 12  1  0  0  0  0
 25 19  1  0  0  0  0
 26 10  1  0  0  0  0
 26 24  1  0  0  0  0
 28 12  1  0  0  0  0
 28 16  1  0  0  0  0
M  END
>  <MODEL>
4

>  <REMARK>
 VINA RESULT:      -7.9      3.250      5.489
  Name = 
  0 active torsions:
  status: ('A' for Active; 'I' for Inactive)
                            x       y       z     vdW  Elec       q    Type
                         _______ _______ _______ _____ _____    ______ ____

>  <TORSDO>
F 0

$$$$
=
 OpenBabel11112417353D

 28 32  0  0  1  0  0  0  0  0999 V2000
  191.7240  175.1140  144.7830 C   0  0  0  0  0  0  0  0  0  0  0  0
  189.5310  173.9550  140.9740 O   0  0  0  0  0  0  0  0  0  0  0  0
  186.6290  176.9260  147.3530 O   0  0  0  0  0  1  0  0  0  0  0  0
  191.4690  172.4070  144.1070 C   0  0  0  0  0  3  0  0  0  0  0  0
  186.9760  177.7470  145.1010 C   0  0  1  0  0  3  0  0  0  0  0  0
  191.8670  176.4460  145.1650 O   0  0  0  0  0  0  0  0  0  0  0  0
  187.4410  173.7580  142.2730 O   0  0  0  0  0  0  0  0  0  0  0  0
  188.3860  174.7070  141.5900 S   0  0  0  0  0  0  0  0  0  0  0  0
  187.3030  176.8970  140.4560 C   0  0  0  0  0  0  0  0  0  0  0  0
  188.9950  175.9140  142.7310 C   0  0  1  0  0  3  0  0  0  0  0  0
  191.5660  176.5160  148.8750 C   0  0  0  0  0  1  0  0  0  0  0  0
  189.2180  176.8080  144.9000 C   0  0  1  0  0  3  0  0  0  0  0  0
  187.7810  177.7490  141.6140 C   0  0  0  0  0  2  0  0  0  0  0  0
  187.5430  175.6150  140.3700 N   0  0  0  0  0  0  0  0  0  0  0  0
  191.0740  176.3950  147.4490 C   0  0  1  0  0  3  0  0  0  0  0  0
  190.4850  174.6260  144.3040 C   0  0  0  0  0  0  0  0  0  0  0  0
  187.5460  177.5410  146.4980 C   0  0  2  0  0  3  0  0  0  0  0  0
  186.6230  177.5410  139.3860 N   0  0  0  0  0  1  0  0  0  0  0  0
  189.8670  177.3060  147.2640 C   0  0  0  0  0  2  0  0  0  0  0  0
  190.3760  173.2670  143.9780 C   0  0  0  0  0  3  0  0  0  0  0  0
  192.8130  174.2420  144.9160 C   0  0  0  0  0  3  0  0  0  0  0  0
  192.6880  172.8950  144.5760 C   0  0  0  0  0  3  0  0  0  0  0  0
  192.2040  176.7900  146.5020 C   0  0  0  0  0  2  0  0  0  0  0  0
  188.1900  177.6690  144.1710 C   0  0  1  0  0  3  0  0  0  0  0  0
  188.8000  176.6940  146.3600 C   0  0  2  0  0  3  0  0  0  0  0  0
  187.8950  176.9190  142.8800 C   0  0  2  0  0  3  0  0  0  0  0  0
  186.0370  176.7480  144.8090 O   0  0  0  0  0  1  0  0  0  0  0  0
  189.2350  175.4680  144.1560 C   0  0  2  0  0  3  0  0  0  0  0  0
  1 21  1  0  0  0  0
  1  6  1  0  0  0  0
  2  8  2  0  0  0  0
  4 22  1  0  0  0  0
  5 27  1  6  0  0  0
  5 17  1  0  0  0  0
  6 23  1  0  0  0  0
  8  7  2  0  0  0  0
  9 13  1  0  0  0  0
 10  8  1  6  0  0  0
 10 26  1  0  0  0  0
 10 28  1  0  0  0  0
 12 25  1  0  0  0  0
 13 26  1  0  0  0  0
 14  9  2  0  0  0  0
 14  8  1  0  0  0  0
 15 11  1  0  0  0  0
 16  1  2  0  0  0  0
 17  3  1  0  0  0  0
 18  9  1  0  0  0  0
 19 15  1  0  0  0  0
 20  4  2  0  0  0  0
 20 16  1  0  0  0  0
 22 21  2  0  0  0  0
 23 15  1  0  0  0  0
 24 12  1  0  0  0  0
 24  5  1  0  0  0  0
 25 17  1  0  0  0  0
 25 19  1  0  0  0  0
 26 24  1  0  0  0  0
 28 16  1  0  0  0  0
 28 12  1  0  0  0  0
M  END
>  <MODEL>
5

>  <REMARK>
 VINA RESULT:      -7.8      3.291      6.393
  Name = 
  0 active torsions:
  status: ('A' for Active; 'I' for Inactive)
                            x       y       z     vdW  Elec       q    Type
                         _______ _______ _______ _____ _____    ______ ____

>  <TORSDO>
F 0

$$$$
=
 OpenBabel11112417353D

 28 32  0  0  1  0  0  0  0  0999 V2000
  187.1770  176.5090  146.6700 C   0  0  0  0  0  0  0  0  0  0  0  0
  184.3530  178.1880  143.5280 O   0  0  0  0  0  0  0  0  0  0  0  0
  191.9370  178.7640  143.8230 O   0  0  0  0  0  1  0  0  0  0  0  0
  185.4590  178.6170  147.3440 C   0  0  0  0  0  3  0  0  0  0  0  0
  190.3780  177.5730  142.4030 C   0  0  1  0  0  3  0  0  0  0  0  0
  188.0560  175.4680  146.3780 O   0  0  0  0  0  0  0  0  0  0  0  0
  186.0630  179.8630  142.9290 O   0  0  0  0  0  0  0  0  0  0  0  0
  185.6150  178.4390  142.7540 S   0  0  0  0  0  0  0  0  0  0  0  0
  186.1140  177.2910  140.3690 C   0  0  0  0  0  0  0  0  0  0  0  0
  186.8800  177.3150  143.2700 C   0  0  1  0  0  3  0  0  0  0  0  0
  191.1920  176.1800  148.2540 C   0  0  0  0  0  1  0  0  0  0  0  0
  188.9680  176.8320  144.2500 C   0  0  1  0  0  3  0  0  0  0  0  0
  187.2730  176.5210  140.9670 C   0  0  0  0  0  2  0  0  0  0  0  0
  185.3590  178.0970  141.0680 N   0  0  0  0  0  0  0  0  0  0  0  0
  190.1620  176.3630  147.1600 C   0  0  1  0  0  3  0  0  0  0  0  0
  187.0090  177.5900  145.7720 C   0  0  0  0  0  0  0  0  0  0  0  0
  191.2030  177.5840  143.6830 C   0  0  2  0  0  3  0  0  0  0  0  0
  185.7950  177.0680  139.0010 N   0  0  0  0  0  1  0  0  0  0  0  0
  190.8730  176.4090  145.8140 C   0  0  0  0  0  2  0  0  0  0  0  0
  186.1510  178.6380  146.1320 C   0  0  0  0  0  3  0  0  0  0  0  0
  186.4840  176.4990  147.8880 C   0  0  0  0  0  3  0  0  0  0  0  0
  185.6250  177.5470  148.2220 C   0  0  0  0  0  3  0  0  0  0  0  0
  189.1740  175.2010  147.2130 C   0  0  0  0  0  2  0  0  0  0  0  0
  189.1520  176.7180  142.7400 C   0  0  1  0  0  3  0  0  0  0  0  0
  190.2440  177.4090  144.8480 C   0  0  2  0  0  3  0  0  0  0  0  0
  187.8660  177.2730  142.1440 C   0  0  2  0  0  3  0  0  0  0  0  0
  190.0150  178.8810  142.0510 O   0  0  0  0  0  1  0  0  0  0  0  0
  187.7350  177.7210  144.4490 C   0  0  2  0  0  3  0  0  0  0  0  0
  1 21  1  0  0  0  0
  4 22  1  0  0  0  0
  5 27  1  1  0  0  0
  5 24  1  0  0  0  0
  5 17  1  0  0  0  0
  6  1  1  0  0  0  0
  6 23  1  0  0  0  0
  8  7  2  0  0  0  0
  8  2  2  0  0  0  0
  9 13  1  0  0  0  0
  9 14  2  0  0  0  0
 10  8  1  6  0  0  0
 10 28  1  0  0  0  0
 12 28  1  0  0  0  0
 12 25  1  0  0  0  0
 13 26  1  0  0  0  0
 14  8  1  0  0  0  0
 15 23  1  0  0  0  0
 15 11  1  0  0  0  0
 16 20  1  0  0  0  0
 16  1  2  0  0  0  0
 17  3  1  0  0  0  0
 17 25  1  0  0  0  0
 18  9  1  0  0  0  0
 19 15  1  0  0  0  0
 20  4  2  0  0  0  0
 21 22  2  0  0  0  0
 24 12  1  0  0  0  0
 25 19  1  0  0  0  0
 26 24  1  0  0  0  0
 26 10  1  0  0  0  0
 28 16  1  0  0  0  0
M  END
>  <MODEL>
6

>  <REMARK>
 VINA RESULT:      -7.6      3.318      5.456
  Name = 
  0 active torsions:
  status: ('A' for Active; 'I' for Inactive)
                            x       y       z     vdW  Elec       q    Type
                         _______ _______ _______ _____ _____    ______ ____

>  <TORSDO>
F 0

$$$$
=
 OpenBabel11112417353D

 28 32  0  0  1  0  0  0  0  0999 V2000
  190.6030  173.7320  142.9630 C   0  0  0  0  0  0  0  0  0  0  0  0
  190.4560  176.3030  146.7090 O   0  0  0  0  0  0  0  0  0  0  0  0
  187.3000  177.6950  139.9240 O   0  0  0  0  0  1  0  0  0  0  0  0
  192.9330  175.0080  143.8530 C   0  0  0  0  0  3  0  0  0  0  0  0
  186.4380  177.1240  142.1140 C   0  0  1  0  0  3  0  0  0  0  0  0
  189.4680  173.0860  142.4780 O   0  0  0  0  0  0  0  0  0  0  0  0
  189.9950  178.2770  145.3010 O   0  0  0  0  0  0  0  0  0  0  0  0
  189.4000  177.0620  145.9580 S   0  0  0  0  0  0  0  0  0  0  0  0
  186.8590  177.2690  146.8260 C   0  0  0  0  0  0  0  0  0  0  0  0
  188.6340  176.0110  144.7580 C   0  0  1  0  0  3  0  0  0  0  0  0
  189.6790  173.2380  138.7640 C   0  0  0  0  0  1  0  0  0  0  0  0
  188.1190  175.4090  142.5390 C   0  0  1  0  0  3  0  0  0  0  0  0
  186.3730  176.4720  145.6330 C   0  0  0  0  0  2  0  0  0  0  0  0
  188.1220  177.5330  147.0380 N   0  0  0  0  0  0  0  0  0  0  0  0
  189.4570  173.7780  140.1610 C   0  0  1  0  0  3  0  0  0  0  0  0
  190.5420  175.0760  143.4020 C   0  0  0  0  0  0  0  0  0  0  0  0
  186.9860  176.6360  140.7800 C   0  0  2  0  0  3  0  0  0  0  0  0
  185.9010  177.6840  147.7910 N   0  0  0  0  0  1  0  0  0  0  0  0
  188.1480  174.5560  140.1880 C   0  0  0  0  0  2  0  0  0  0  0  0
  191.7200  175.6990  143.8360 C   0  0  0  0  0  3  0  0  0  0  0  0
  191.8270  173.0490  142.9760 C   0  0  0  0  0  3  0  0  0  0  0  0
  192.9860  173.6830  143.4230 C   0  0  0  0  0  3  0  0  0  0  0  0
  189.4170  172.6090  141.1410 C   0  0  0  0  0  2  0  0  0  0  0  0
  186.8660  176.0550  143.1230 C   0  0  1  0  0  3  0  0  0  0  0  0
  188.2200  175.7990  141.0710 C   0  0  2  0  0  3  0  0  0  0  0  0
  187.3120  176.6460  144.4530 C   0  0  2  0  0  3  0  0  0  0  0  0
  186.9780  178.3790  142.4300 O   0  0  0  0  0  1  0  0  0  0  0  0
  189.2830  175.9190  143.3960 C   0  0  2  0  0  3  0  0  0  0  0  0
  1 21  2  0  0  0  0
  1 16  1  0  0  0  0
  3 17  1  0  0  0  0
  5 27  1  1  0  0  0
  5 24  1  0  0  0  0
  6  1  1  0  0  0  0
  7  8  2  0  0  0  0
  8  2  2  0  0  0  0
  8 14  1  0  0  0  0
  9 14  2  0  0  0  0
  9 18  1  0  0  0  0
 10  8  1  1  0  0  0
 11 15  1  0  0  0  0
 12 24  1  0  0  0  0
 12 28  1  0  0  0  0
 13  9  1  0  0  0  0
 15 19  1  0  0  0  0
 15 23  1  0  0  0  0
 16 20  2  0  0  0  0
 17 25  1  0  0  0  0
 17  5  1  0  0  0  0
 19 25  1  0  0  0  0
 20  4  1  0  0  0  0
 21 22  1  0  0  0  0
 22  4  2  0  0  0  0
 23  6  1  0  0  0  0
 24 26  1  0  0  0  0
 25 12  1  0  0  0  0
 26 10  1  0  0  0  0
 26 13  1  0  0  0  0
 28 16  1  0  0  0  0
 28 10  1  0  0  0  0
M  END
>  <MODEL>
7

>  <REMARK>
 VINA RESULT:      -7.4      2.490      5.499
  Name = 
  0 active torsions:
  status: ('A' for Active; 'I' for Inactive)
                            x       y       z     vdW  Elec       q    Type
                         _______ _______ _______ _____ _____    ______ ____

>  <TORSDO>
F 0

$$$$
=
 OpenBabel11112417353D

 28 32  0  0  1  0  0  0  0  0999 V2000
  188.8350  175.4340  146.1790 C   0  0  0  0  0  0  0  0  0  0  0  0
  187.4410  173.8840  142.1400 O   0  0  0  0  0  0  0  0  0  0  0  0
  194.3540  176.4160  144.0760 O   0  0  0  0  0  1  0  0  0  0  0  0
  187.0220  176.9470  144.6710 C   0  0  0  0  0  3  0  0  0  0  0  0
  193.4320  174.2440  143.5280 C   0  0  1  0  0  3  0  0  0  0  0  0
  189.7420  174.7210  146.9600 O   0  0  0  0  0  0  0  0  0  0  0  0
  189.2770  175.1320  141.0610 O   0  0  0  0  0  0  0  0  0  0  0  0
  188.9060  173.8820  141.8110 S   0  0  0  0  0  0  0  0  0  0  0  0
  190.2550  171.6390  141.1770 C   0  0  0  0  0  0  0  0  0  0  0  0
  189.8630  173.7320  143.2910 C   0  0  1  0  0  3  0  0  0  0  0  0
  191.9410  177.2450  148.5880 C   0  0  0  0  0  1  0  0  0  0  0  0
  191.4140  174.5510  144.8640 C   0  0  1  0  0  3  0  0  0  0  0  0
  191.0890  171.7680  142.4360 C   0  0  0  0  0  2  0  0  0  0  0  0
  189.3040  172.4780  140.8640 N   0  0  0  0  0  0  0  0  0  0  0  0
  191.4070  176.4050  147.4480 C   0  0  1  0  0  3  0  0  0  0  0  0
  189.0370  175.5850  144.7870 C   0  0  0  0  0  0  0  0  0  0  0  0
  193.7090  175.2910  144.5980 C   0  0  2  0  0  3  0  0  0  0  0  0
  190.4770  170.5100  140.3400 N   0  0  0  0  0  1  0  0  0  0  0  0
  192.5770  175.7460  146.7290 C   0  0  0  0  0  2  0  0  0  0  0  0
  188.1230  176.3520  144.0520 C   0  0  0  0  0  3  0  0  0  0  0  0
  187.7310  176.0410  146.7940 C   0  0  0  0  0  3  0  0  0  0  0  0
  186.8260  176.7910  146.0430 C   0  0  0  0  0  3  0  0  0  0  0  0
  190.4550  175.3550  148.0130 C   0  0  0  0  0  2  0  0  0  0  0  0
  192.1570  173.5370  143.9990 C   0  0  1  0  0  3  0  0  0  0  0  0
  192.3770  175.6780  145.2170 C   0  0  2  0  0  3  0  0  0  0  0  0
  191.2020  173.2220  142.8560 C   0  0  2  0  0  3  0  0  0  0  0  0
  193.2500  174.8610  142.2820 O   0  0  0  0  0  1  0  0  0  0  0  0
  190.2120  175.0050  144.0270 C   0  0  2  0  0  3  0  0  0  0  0  0
  1 21  1  0  0  0  0
  1  6  1  0  0  0  0
  3 17  1  0  0  0  0
  4 22  1  0  0  0  0
  5 27  1  6  0  0  0
  5 24  1  0  0  0  0
  5 17  1  0  0  0  0
  6 23  1  0  0  0  0
  7  8  2  0  0  0  0
  8  2  2  0  0  0  0
  9 13  1  0  0  0  0
 10  8  1  6  0  0  0
 10 28  1  0  0  0  0
 12 25  1  0  0  0  0
 13 26  1  0  0  0  0
 14  9  2  0  0  0  0
 14  8  1  0  0  0  0
 15 23  1  0  0  0  0
 15 11  1  0  0  0  0
 16  1  2  0  0  0  0
 17 25  1  0  0  0  0
 18  9  1  0  0  0  0
 19 15  1  0  0  0  0
 20  4  2  0  0  0  0
 20 16  1  0  0  0  0
 22 21  2  0  0  0  0
 24 12  1  0  0  0  0
 25 19  1  0  0  0  0
 26 10  1  0  0  0  0
 26 24  1  0  0  0  0
 28 16  1  0  0  0  0
 28 12  1  0  0  0  0
M  END
>  <MODEL>
8

>  <REMARK>
 VINA RESULT:      -7.4      3.436      5.890
  Name = 
  0 active torsions:
  status: ('A' for Active; 'I' for Inactive)
                            x       y       z     vdW  Elec       q    Type
                         _______ _______ _______ _____ _____    ______ ____

>  <TORSDO>
F 0

$$$$
=
 OpenBabel11112417353D

 28 32  0  0  1  0  0  0  0  0999 V2000
  190.3900  177.0170  145.0980 C   0  0  0  0  0  0  0  0  0  0  0  0
  194.6770  176.3420  146.4490 O   0  0  0  0  0  0  0  0  0  0  0  0
  190.6930  172.3990  141.3000 O   0  0  0  0  0  1  0  0  0  0  0  0
  190.8880  176.0750  147.6900 C   0  0  0  0  0  3  0  0  0  0  0  0
  192.5690  173.9260  141.1890 C   0  0  1  0  0  3  0  0  0  0  0  0
  190.0930  177.4750  143.8160 O   0  0  0  0  0  0  0  0  0  0  0  0
  194.5120  173.9960  145.7010 O   0  0  0  0  0  0  0  0  0  0  0  0
  194.7380  175.4170  145.2670 S   0  0  0  0  0  0  0  0  0  0  0  0
  196.4200  175.8050  143.2000 C   0  0  0  0  0  0  0  0  0  0  0  0
  193.5450  175.9000  144.0540 C   0  0  1  0  0  3  0  0  0  0  0  0
  186.9870  175.7140  142.7630 C   0  0  0  0  0  1  0  0  0  0  0  0
  191.6090  175.5200  142.7660 C   0  0  1  0  0  3  0  0  0  0  0  0
  195.2460  176.0410  142.2710 C   0  0  0  0  0  2  0  0  0  0  0  0
  196.2800  175.5620  144.4760 N   0  0  0  0  0  0  0  0  0  0  0  0
  188.4610  175.8510  143.0760 C   0  0  1  0  0  3  0  0  0  0  0  0
  191.3580  176.0050  145.3020 C   0  0  0  0  0  0  0  0  0  0  0  0
  191.0570  173.7440  141.2090 C   0  0  2  0  0  3  0  0  0  0  0  0
  197.7330  175.9250  142.6640 N   0  0  0  0  0  1  0  0  0  0  0  0
  189.2680  175.2660  141.9230 C   0  0  0  0  0  2  0  0  0  0  0  0
  191.5870  175.5420  146.6050 C   0  0  0  0  0  3  0  0  0  0  0  0
  189.6870  177.5410  146.1920 C   0  0  0  0  0  3  0  0  0  0  0  0
  189.9390  177.0750  147.4830 C   0  0  0  0  0  3  0  0  0  0  0  0
  188.7880  177.3280  143.2740 C   0  0  0  0  0  2  0  0  0  0  0  0
  192.8030  175.2910  141.8450 C   0  0  1  0  0  3  0  0  0  0  0  0
  190.5170  174.5260  142.3940 C   0  0  2  0  0  3  0  0  0  0  0  0
  194.0160  175.3010  142.7650 C   0  0  2  0  0  3  0  0  0  0  0  0
  193.1900  172.8950  141.9080 O   0  0  0  0  0  1  0  0  0  0  0  0
  192.1470  175.3430  144.1910 C   0  0  2  0  0  3  0  0  0  0  0  0
  1 16  2  0  0  0  0
  1 21  1  0  0  0  0
  5 17  1  0  0  0  0
  5 24  1  0  0  0  0
  5 27  1  1  0  0  0
  6  1  1  0  0  0  0
  8  7  2  0  0  0  0
  8  2  2  0  0  0  0
  9 14  2  0  0  0  0
 10 28  1  0  0  0  0
 10  8  1  1  0  0  0
 11 15  1  0  0  0  0
 12 28  1  0  0  0  0
 13 26  1  0  0  0  0
 13  9  1  0  0  0  0
 14  8  1  0  0  0  0
 15 23  1  0  0  0  0
 16 20  1  0  0  0  0
 17  3  1  0  0  0  0
 17 25  1  0  0  0  0
 18  9  1  0  0  0  0
 19 25  1  0  0  0  0
 19 15  1  0  0  0  0
 20  4  2  0  0  0  0
 21 22  2  0  0  0  0
 22  4  1  0  0  0  0
 23  6  1  0  0  0  0
 24 26  1  0  0  0  0
 24 12  1  0  0  0  0
 25 12  1  0  0  0  0
 26 10  1  0  0  0  0
 28 16  1  0  0  0  0
M  END
>  <MODEL>
9

>  <REMARK>
 VINA RESULT:      -7.3      3.000      4.178
  Name = 
  0 active torsions:
  status: ('A' for Active; 'I' for Inactive)
                            x       y       z     vdW  Elec       q    Type
                         _______ _______ _______ _____ _____    ______ ____

>  <TORSDO>
F 0

$$$$
