=
 OpenBabel11112416183D

 30 35  0  0  1  0  0  0  0  0999 V2000
  186.1480  177.3660  143.7500 C   0  0  0  0  0  0  0  0  0  0  0  0
  184.4760  178.5690  145.1830 C   0  0  0  0  0  0  0  0  0  0  0  0
  188.2200  176.0820  147.1810 N   0  0  0  0  0  2  0  0  0  0  0  0
  187.3320  176.5710  143.6600 C   0  0  0  0  0  0  0  0  0  0  0  0
  185.4970  177.7400  142.5670 C   0  0  0  0  0  3  0  0  0  0  0  0
  187.6410  176.2620  139.9630 O   0  0  0  0  0  1  0  0  0  0  0  0
  190.3300  176.0860  142.8930 C   0  0  1  0  0  3  0  0  0  0  0  0
  187.1530  176.6120  141.2210 C   0  0  0  0  0  0  0  0  0  0  0  0
  190.4090  175.9070  144.4170 C   0  0  2  0  0  3  0  0  0  0  0  0
  189.2350  175.3080  146.5580 C   0  0  0  0  0  0  0  0  0  0  0  0
  185.9780  177.3620  141.3180 C   0  0  0  0  0  0  0  0  0  0  0  0
  187.8430  176.2150  142.3790 C   0  0  0  0  0  0  0  0  0  0  0  0
  184.0520  178.9180  146.4260 N   0  0  0  0  0  0  0  0  0  0  0  0
  191.6330  175.0430  144.6610 C   0  0  0  0  0  2  0  0  0  0  0  0
  191.6310  175.5570  142.3140 C   0  0  0  0  0  2  0  0  0  0  0  0
  183.7560  179.0030  144.1190 F   0  0  0  0  0  0  0  0  0  0  0  0
  187.4660  176.5840  146.0890 C   0  0  0  0  0  0  0  0  0  0  0  0
  184.7030  178.5320  147.5510 C   0  0  0  0  0  3  0  0  0  0  0  0
  185.6410  177.7720  145.0230 C   0  0  0  0  0  0  0  0  0  0  0  0
  187.9600  176.1870  144.8620 C   0  0  0  0  0  0  0  0  0  0  0  0
  190.0850  174.6570  147.2210 O   0  0  0  0  0  0  0  0  0  0  0  0
  189.1550  175.3010  145.0600 C   0  0  1  0  0  3  0  0  0  0  0  0
  192.5490  175.3100  143.4910 C   0  0  0  0  0  2  0  0  0  0  0  0
  188.9590  173.9470  142.3980 C   0  0  0  0  0  1  0  0  0  0  0  0
  185.8500  177.7510  147.4590 C   0  0  0  0  0  3  0  0  0  0  0  0
  186.3230  177.3700  146.2000 C   0  0  0  0  0  0  0  0  0  0  0  0
  189.1240  175.4490  142.1840 C   0  0  2  0  0  3  0  0  0  0  0  0
  185.2480  177.8080  140.0970 C   0  0  0  0  0  2  0  0  0  0  0  0
  182.9960  177.7990  140.0460 O   0  0  0  0  0  1  0  0  0  0  0  0
  184.0480  178.5320  140.4800 N   0  0  0  0  0  2  0  0  0  0  0  0
  1 19  1  0  0  0  0
  2 13  1  0  0  0  0
  4  1  1  0  0  0  0
  4 20  1  0  0  0  0
  5  1  2  0  0  0  0
  6  8  1  0  0  0  0
  7 15  1  6  0  0  0
  7  9  1  0  0  0  0
  8 11  2  0  0  0  0
  8 12  1  0  0  0  0
  9 14  1  6  0  0  0
  9 22  1  0  0  0  0
 10  3  1  0  0  0  0
 10 21  2  0  0  0  0
 11  5  1  0  0  0  0
 12  4  2  0  0  0  0
 13 18  2  0  0  0  0
 15 23  1  0  0  0  0
 16  2  1  0  0  0  0
 17 26  1  0  0  0  0
 17  3  1  0  0  0  0
 19  2  2  0  0  0  0
 19 26  1  0  0  0  0
 20 17  2  0  0  0  0
 22 20  1  1  0  0  0
 22 10  1  0  0  0  0
 23 14  1  0  0  0  0
 25 18  1  0  0  0  0
 26 25  2  0  0  0  0
 27 12  1  0  0  0  0
 27 24  1  1  0  0  0
 27  7  1  0  0  0  0
 28 30  1  0  0  0  0
 28 11  1  0  0  0  0
 29 30  1  0  0  0  0
M  END
>  <MODEL>
1

>  <REMARK>
 VINA RESULT:      -9.0      0.000      0.000
  Name = 
  2 active torsions:
  status: ('A' for Active; 'I' for Inactive)
    1  A    between atoms: C_11  and  C_28
    2  A    between atoms: C_28  and  N_30
                            x       y       z     vdW  Elec       q    Type
                         _______ _______ _______ _____ _____    ______ ____

>  <TORSDO>
F 2

$$$$
=
 OpenBabel11112416183D

 30 35  0  0  1  0  0  0  0  0999 V2000
  188.3680  177.3330  145.9930 C   0  0  0  0  0  0  0  0  0  0  0  0
  186.3750  178.3890  147.0910 C   0  0  0  0  0  0  0  0  0  0  0  0
  186.2760  177.0930  142.3470 N   0  0  0  0  0  2  0  0  0  0  0  0
  188.9590  176.7640  144.8210 C   0  0  0  0  0  0  0  0  0  0  0  0
  189.1300  177.4010  147.1660 C   0  0  0  0  0  3  0  0  0  0  0  0
  192.3080  175.8390  146.1560 O   0  0  0  0  0  1  0  0  0  0  0  0
  190.1380  174.3950  143.1470 C   0  0  1  0  0  3  0  0  0  0  0  0
  191.0090  176.3370  146.0860 C   0  0  0  0  0  0  0  0  0  0  0  0
  188.9330  174.7700  142.2720 C   0  0  2  0  0  3  0  0  0  0  0  0
  187.2970  176.5310  141.5350 C   0  0  0  0  0  0  0  0  0  0  0  0
  190.4350  176.9250  147.2170 C   0  0  0  0  0  0  0  0  0  0  0  0
  190.2830  176.2450  144.8850 C   0  0  0  0  0  0  0  0  0  0  0  0
  185.0940  178.8330  146.9910 N   0  0  0  0  0  0  0  0  0  0  0  0
  189.2760  174.2800  140.8770 C   0  0  0  0  0  2  0  0  0  0  0  0
  191.0230  173.4780  142.3190 C   0  0  0  0  0  2  0  0  0  0  0  0
  186.9970  178.5080  148.2900 F   0  0  0  0  0  0  0  0  0  0  0  0
  186.8860  177.1970  143.6250 C   0  0  0  0  0  0  0  0  0  0  0  0
  184.3880  178.7590  145.8350 C   0  0  0  0  0  3  0  0  0  0  0  0
  187.0250  177.8210  145.9630 C   0  0  0  0  0  0  0  0  0  0  0  0
  188.1830  176.7250  143.6450 C   0  0  0  0  0  0  0  0  0  0  0  0
  187.1390  176.3290  140.3020 O   0  0  0  0  0  0  0  0  0  0  0  0
  188.5760  176.2610  142.2730 C   0  0  1  0  0  3  0  0  0  0  0  0
  190.2270  173.1250  141.0830 C   0  0  0  0  0  2  0  0  0  0  0  0
  191.5240  176.5350  142.7030 C   0  0  0  0  0  1  0  0  0  0  0  0
  184.9700  178.2120  144.6970 C   0  0  0  0  0  3  0  0  0  0  0  0
  186.2850  177.7420  144.7550 C   0  0  0  0  0  0  0  0  0  0  0  0
  190.9590  175.5570  143.7290 C   0  0  2  0  0  3  0  0  0  0  0  0
  191.1860  177.0100  148.5030 C   0  0  0  0  0  2  0  0  0  0  0  0
  191.5440  178.2630  150.3390 O   0  0  0  0  0  1  0  0  0  0  0  0
  190.9540  178.3030  149.1220 N   0  0  0  0  0  2  0  0  0  0  0  0
  1  5  1  0  0  0  0
  2 16  1  0  0  0  0
  3 17  1  0  0  0  0
  4 12  1  0  0  0  0
  4  1  2  0  0  0  0
  5 11  2  0  0  0  0
  7 15  1  6  0  0  0
  7 27  1  0  0  0  0
  8  6  1  0  0  0  0
  8 11  1  0  0  0  0
  9 14  1  6  0  0  0
  9 22  1  0  0  0  0
  9  7  1  0  0  0  0
 10  3  1  0  0  0  0
 11 28  1  0  0  0  0
 12  8  2  0  0  0  0
 13  2  1  0  0  0  0
 14 23  1  0  0  0  0
 17 20  2  0  0  0  0
 17 26  1  0  0  0  0
 18 13  2  0  0  0  0
 19  1  1  0  0  0  0
 19  2  2  0  0  0  0
 20  4  1  0  0  0  0
 21 10  2  0  0  0  0
 22 10  1  6  0  0  0
 22 20  1  0  0  0  0
 23 15  1  0  0  0  0
 25 26  2  0  0  0  0
 25 18  1  0  0  0  0
 26 19  1  0  0  0  0
 27 24  1  6  0  0  0
 27 12  1  0  0  0  0
 28 30  1  0  0  0  0
 30 29  1  0  0  0  0
M  END
>  <MODEL>
2

>  <REMARK>
 VINA RESULT:      -8.6      2.127      5.426
  Name = 
  2 active torsions:
  status: ('A' for Active; 'I' for Inactive)
    1  A    between atoms: C_11  and  C_28
    2  A    between atoms: C_28  and  N_30
                            x       y       z     vdW  Elec       q    Type
                         _______ _______ _______ _____ _____    ______ ____

>  <TORSDO>
F 2

$$$$
=
 OpenBabel11112416183D

 30 35  0  0  1  0  0  0  0  0999 V2000
  188.3120  175.9530  143.5890 C   0  0  0  0  0  0  0  0  0  0  0  0
  186.0300  176.9590  143.8620 C   0  0  0  0  0  0  0  0  0  0  0  0
  189.4070  177.3070  147.4220 N   0  0  0  0  0  2  0  0  0  0  0  0
  189.6160  175.7190  144.1270 C   0  0  0  0  0  0  0  0  0  0  0  0
  188.0100  175.4550  142.3160 C   0  0  0  0  0  3  0  0  0  0  0  0
  191.1690  173.8590  141.3010 O   0  0  0  0  0  1  0  0  0  0  0  0
  192.7250  176.0960  144.2030 C   0  0  1  0  0  3  0  0  0  0  0  0
  190.2320  174.5440  142.0720 C   0  0  0  0  0  0  0  0  0  0  0  0
  192.3460  176.6950  145.5670 C   0  0  2  0  0  3  0  0  0  0  0  0
  190.7230  176.7760  147.4850 C   0  0  0  0  0  0  0  0  0  0  0  0
  188.9450  174.7490  141.5670 C   0  0  0  0  0  0  0  0  0  0  0  0
  190.5840  175.0270  143.3440 C   0  0  0  0  0  0  0  0  0  0  0  0
  185.1550  177.6610  144.6310 N   0  0  0  0  0  0  0  0  0  0  0  0
  193.5950  176.5770  146.4210 C   0  0  0  0  0  2  0  0  0  0  0  0
  194.2300  175.8900  144.2080 C   0  0  0  0  0  2  0  0  0  0  0  0
  185.6110  176.5400  142.6430 F   0  0  0  0  0  0  0  0  0  0  0  0
  188.9490  176.9150  146.1370 C   0  0  0  0  0  0  0  0  0  0  0  0
  185.4800  178.1220  145.8640 C   0  0  0  0  0  3  0  0  0  0  0  0
  187.3390  176.6840  144.3400 C   0  0  0  0  0  0  0  0  0  0  0  0
  189.8940  176.2100  145.4190 C   0  0  0  0  0  0  0  0  0  0  0  0
  191.4430  176.8840  148.5120 O   0  0  0  0  0  0  0  0  0  0  0  0
  191.1360  176.0400  146.2440 C   0  0  1  0  0  3  0  0  0  0  0  0
  194.7480  176.5870  145.4470 C   0  0  0  0  0  2  0  0  0  0  0  0
  192.1420  173.6390  144.7690 C   0  0  0  0  0  1  0  0  0  0  0  0
  186.7480  177.8840  146.3860 C   0  0  0  0  0  3  0  0  0  0  0  0
  187.6790  177.1680  145.6290 C   0  0  0  0  0  0  0  0  0  0  0  0
  192.0030  174.8020  143.7920 C   0  0  2  0  0  3  0  0  0  0  0  0
  188.5640  174.2620  140.2100 C   0  0  0  0  0  2  0  0  0  0  0  0
  188.1310  172.3970  139.0240 O   0  0  0  0  0  1  0  0  0  0  0  0
  188.1290  172.8790  140.2890 N   0  0  0  0  0  2  0  0  0  0  0  0
  1  4  1  0  0  0  0
  1 19  1  0  0  0  0
  2 19  2  0  0  0  0
  2 13  1  0  0  0  0
  3 10  1  0  0  0  0
  4 20  1  0  0  0  0
  5  1  2  0  0  0  0
  6  8  1  0  0  0  0
  7 15  1  1  0  0  0
  7  9  1  0  0  0  0
  8 12  1  0  0  0  0
  9 22  1  0  0  0  0
  9 14  1  1  0  0  0
 10 21  2  0  0  0  0
 11  8  2  0  0  0  0
 11  5  1  0  0  0  0
 12 27  1  0  0  0  0
 12  4  2  0  0  0  0
 13 18  2  0  0  0  0
 15 23  1  0  0  0  0
 16  2  1  0  0  0  0
 17  3  1  0  0  0  0
 18 25  1  0  0  0  0
 19 26  1  0  0  0  0
 20 17  2  0  0  0  0
 22 20  1  6  0  0  0
 22 10  1  0  0  0  0
 23 14  1  0  0  0  0
 26 17  1  0  0  0  0
 26 25  2  0  0  0  0
 27  7  1  0  0  0  0
 27 24  1  1  0  0  0
 28 30  1  0  0  0  0
 28 11  1  0  0  0  0
 29 30  1  0  0  0  0
M  END
>  <MODEL>
3

>  <REMARK>
 VINA RESULT:      -8.6      2.399      3.413
  Name = 
  2 active torsions:
  status: ('A' for Active; 'I' for Inactive)
    1  A    between atoms: C_11  and  C_28
    2  A    between atoms: C_28  and  N_30
                            x       y       z     vdW  Elec       q    Type
                         _______ _______ _______ _____ _____    ______ ____

>  <TORSDO>
F 2

$$$$
=
 OpenBabel11112416183D

 30 35  0  0  1  0  0  0  0  0999 V2000
  188.2410  175.8500  142.0360 C   0  0  0  0  0  0  0  0  0  0  0  0
  186.6650  176.9560  140.4280 C   0  0  0  0  0  0  0  0  0  0  0  0
  186.6820  178.1480  145.2000 N   0  0  0  0  0  2  0  0  0  0  0  0
  188.7400  175.7310  143.3710 C   0  0  0  0  0  0  0  0  0  0  0  0
  188.7920  175.0380  141.0370 C   0  0  0  0  0  3  0  0  0  0  0  0
  191.3640  173.1400  142.8640 O   0  0  0  0  0  1  0  0  0  0  0  0
  190.9480  176.0270  145.5730 C   0  0  1  0  0  3  0  0  0  0  0  0
  190.3250  174.0320  142.6060 C   0  0  0  0  0  0  0  0  0  0  0  0
  189.8800  176.9800  146.1320 C   0  0  2  0  0  3  0  0  0  0  0  0
  187.4520  177.6170  146.2690 C   0  0  0  0  0  0  0  0  0  0  0  0
  189.8090  174.1310  141.3110 C   0  0  0  0  0  0  0  0  0  0  0  0
  189.8070  174.8280  143.6430 C   0  0  0  0  0  0  0  0  0  0  0  0
  185.6750  177.8620  140.2100 N   0  0  0  0  0  0  0  0  0  0  0  0
  190.1490  177.0590  147.6230 C   0  0  0  0  0  2  0  0  0  0  0  0
  191.9570  175.7880  146.6830 C   0  0  0  0  0  2  0  0  0  0  0  0
  187.1140  176.2380  139.3690 F   0  0  0  0  0  0  0  0  0  0  0  0
  187.1550  177.4400  144.0640 C   0  0  0  0  0  0  0  0  0  0  0  0
  185.1600  178.6270  141.2050 C   0  0  0  0  0  3  0  0  0  0  0  0
  187.2010  176.7820  141.7320 C   0  0  0  0  0  0  0  0  0  0  0  0
  188.1580  176.5420  144.3660 C   0  0  0  0  0  0  0  0  0  0  0  0
  187.2790  177.9760  147.4630 O   0  0  0  0  0  0  0  0  0  0  0  0
  188.4320  176.5640  145.8420 C   0  0  1  0  0  3  0  0  0  0  0  0
  191.6230  176.7750  147.7790 C   0  0  0  0  0  2  0  0  0  0  0  0
  189.6380  173.8280  145.9580 C   0  0  0  0  0  1  0  0  0  0  0  0
  185.6440  178.5020  142.5020 C   0  0  0  0  0  3  0  0  0  0  0  0
  186.6630  177.5840  142.7710 C   0  0  0  0  0  0  0  0  0  0  0  0
  190.4510  174.6910  144.9970 C   0  0  2  0  0  3  0  0  0  0  0  0
  190.3640  173.3090  140.1980 C   0  0  0  0  0  2  0  0  0  0  0  0
  188.8490  172.1170  139.0330 O   0  0  0  0  0  1  0  0  0  0  0  0
  189.6540  172.0450  140.1190 N   0  0  0  0  0  2  0  0  0  0  0  0
  1  4  1  0  0  0  0
  2 19  1  0  0  0  0
  3 10  1  0  0  0  0
  4 12  1  0  0  0  0
  4 20  2  0  0  0  0
  5 11  2  0  0  0  0
  5  1  1  0  0  0  0
  7  9  1  0  0  0  0
  7 15  1  1  0  0  0
  8  6  1  0  0  0  0
  8 12  2  0  0  0  0
  9 14  1  1  0  0  0
 10 21  2  0  0  0  0
 11  8  1  0  0  0  0
 12 27  1  0  0  0  0
 13  2  2  0  0  0  0
 13 18  1  0  0  0  0
 14 23  1  0  0  0  0
 15 23  1  0  0  0  0
 16  2  1  0  0  0  0
 17 20  1  0  0  0  0
 17  3  1  0  0  0  0
 18 25  2  0  0  0  0
 19  1  2  0  0  0  0
 19 26  1  0  0  0  0
 22 20  1  6  0  0  0
 22  9  1  0  0  0  0
 22 10  1  0  0  0  0
 25 26  1  0  0  0  0
 26 17  2  0  0  0  0
 27  7  1  0  0  0  0
 27 24  1  1  0  0  0
 28 11  1  0  0  0  0
 29 30  1  0  0  0  0
 30 28  1  0  0  0  0
M  END
>  <MODEL>
4

>  <REMARK>
 VINA RESULT:      -8.2      2.812      4.642
  Name = 
  2 active torsions:
  status: ('A' for Active; 'I' for Inactive)
    1  A    between atoms: C_11  and  C_28
    2  A    between atoms: C_28  and  N_30
                            x       y       z     vdW  Elec       q    Type
                         _______ _______ _______ _____ _____    ______ ____

>  <TORSDO>
F 2

$$$$
=
 OpenBabel11112416183D

 30 35  0  0  1  0  0  0  0  0999 V2000
  188.0440  176.2390  142.7110 C   0  0  0  0  0  0  0  0  0  0  0  0
  185.9390  177.5870  142.4900 C   0  0  0  0  0  0  0  0  0  0  0  0
  188.7040  177.8370  146.5500 N   0  0  0  0  0  2  0  0  0  0  0  0
  189.1880  175.8810  143.4900 C   0  0  0  0  0  0  0  0  0  0  0  0
  187.8760  175.6520  141.4510 C   0  0  0  0  0  3  0  0  0  0  0  0
  190.8610  173.5160  141.1510 O   0  0  0  0  0  1  0  0  0  0  0  0
  192.2630  175.8140  144.0840 C   0  0  1  0  0  3  0  0  0  0  0  0
  189.9330  174.4100  141.6820 C   0  0  0  0  0  0  0  0  0  0  0  0
  191.7690  176.6070  145.3030 C   0  0  2  0  0  3  0  0  0  0  0  0
  189.8910  177.1330  146.8890 C   0  0  0  0  0  0  0  0  0  0  0  0
  188.7940  174.7410  140.9420 C   0  0  0  0  0  0  0  0  0  0  0  0
  190.1460  174.9740  142.9520 C   0  0  0  0  0  0  0  0  0  0  0  0
  185.0750  178.4880  143.0290 N   0  0  0  0  0  0  0  0  0  0  0  0
  192.8270  176.4060  146.3730 C   0  0  0  0  0  2  0  0  0  0  0  0
  193.6950  175.3950  144.3730 C   0  0  0  0  0  2  0  0  0  0  0  0
  185.6620  177.1000  141.2550 F   0  0  0  0  0  0  0  0  0  0  0  0
  188.4050  177.3750  145.2410 C   0  0  0  0  0  0  0  0  0  0  0  0
  185.2650  179.0300  144.2570 C   0  0  0  0  0  3  0  0  0  0  0  0
  187.0920  177.1810  143.2130 C   0  0  0  0  0  0  0  0  0  0  0  0
  189.3280  176.4660  144.7640 C   0  0  0  0  0  0  0  0  0  0  0  0
  190.4420  177.2490  148.0150 O   0  0  0  0  0  0  0  0  0  0  0  0
  190.3760  176.2120  145.8080 C   0  0  1  0  0  3  0  0  0  0  0  0
  194.1100  176.1420  145.6210 C   0  0  0  0  0  2  0  0  0  0  0  0
  191.2090  173.5430  144.7420 C   0  0  0  0  0  1  0  0  0  0  0  0
  186.3760  178.6720  145.0130 C   0  0  0  0  0  3  0  0  0  0  0  0
  187.2910  177.7500  144.4970 C   0  0  0  0  0  0  0  0  0  0  0  0
  191.4200  174.5990  143.6620 C   0  0  2  0  0  3  0  0  0  0  0  0
  188.5660  174.1660  139.5850 C   0  0  0  0  0  2  0  0  0  0  0  0
  188.8790  172.0280  138.9500 O   0  0  0  0  0  1  0  0  0  0  0  0
  188.0690  172.8070  139.7050 N   0  0  0  0  0  2  0  0  0  0  0  0
  1 19  2  0  0  0  0
  1  4  1  0  0  0  0
  2 13  2  0  0  0  0
  2 19  1  0  0  0  0
  3 10  1  0  0  0  0
  4 20  2  0  0  0  0
  5  1  1  0  0  0  0
  6  8  1  0  0  0  0
  7 15  1  1  0  0  0
  7  9  1  0  0  0  0
  8 12  2  0  0  0  0
  9 22  1  0  0  0  0
  9 14  1  1  0  0  0
 10 21  2  0  0  0  0
 11  5  2  0  0  0  0
 11  8  1  0  0  0  0
 12  4  1  0  0  0  0
 12 27  1  0  0  0  0
 13 18  1  0  0  0  0
 15 23  1  0  0  0  0
 16  2  1  0  0  0  0
 17  3  1  0  0  0  0
 18 25  2  0  0  0  0
 19 26  1  0  0  0  0
 20 17  1  0  0  0  0
 22 20  1  6  0  0  0
 22 10  1  0  0  0  0
 23 14  1  0  0  0  0
 26 25  1  0  0  0  0
 26 17  2  0  0  0  0
 27  7  1  0  0  0  0
 27 24  1  1  0  0  0
 28 30  1  0  0  0  0
 28 11  1  0  0  0  0
 29 30  1  0  0  0  0
M  END
>  <MODEL>
5

>  <REMARK>
 VINA RESULT:      -8.1      2.507      3.450
  Name = 
  2 active torsions:
  status: ('A' for Active; 'I' for Inactive)
    1  A    between atoms: C_11  and  C_28
    2  A    between atoms: C_28  and  N_30
                            x       y       z     vdW  Elec       q    Type
                         _______ _______ _______ _____ _____    ______ ____

>  <TORSDO>
F 2

$$$$
=
 OpenBabel11112416183D

 30 35  0  0  1  0  0  0  0  0999 V2000
  188.1740  175.5160  140.9430 C   0  0  0  0  0  0  0  0  0  0  0  0
  188.1910  174.2230  138.7930 C   0  0  0  0  0  0  0  0  0  0  0  0
  191.1870  173.0260  142.5070 N   0  0  0  0  0  2  0  0  0  0  0  0
  188.6850  175.6930  142.2670 C   0  0  0  0  0  0  0  0  0  0  0  0
  187.1870  176.3960  140.4800 C   0  0  0  0  0  3  0  0  0  0  0  0
  186.6440  178.6000  143.3790 O   0  0  0  0  0  1  0  0  0  0  0  0
  188.4450  175.6730  145.3890 C   0  0  1  0  0  3  0  0  0  0  0  0
  187.1650  177.5830  142.5820 C   0  0  0  0  0  0  0  0  0  0  0  0
  189.5170  174.5910  145.1940 C   0  0  2  0  0  3  0  0  0  0  0  0
  191.3630  173.6480  143.7720 C   0  0  0  0  0  0  0  0  0  0  0  0
  186.6940  177.4240  141.2760 C   0  0  0  0  0  0  0  0  0  0  0  0
  188.1540  176.7240  143.0920 C   0  0  0  0  0  0  0  0  0  0  0  0
  188.7010  173.1990  138.0590 N   0  0  0  0  0  0  0  0  0  0  0  0
  190.2850  174.5410  146.5030 C   0  0  0  0  0  2  0  0  0  0  0  0
  188.4390  176.0360  146.8650 C   0  0  0  0  0  2  0  0  0  0  0  0
  187.2330  174.9970  138.2260 F   0  0  0  0  0  0  0  0  0  0  0  0
  190.1590  173.7930  141.8980 C   0  0  0  0  0  0  0  0  0  0  0  0
  189.6630  172.3710  138.5370 C   0  0  0  0  0  3  0  0  0  0  0  0
  188.6620  174.4600  140.1120 C   0  0  0  0  0  0  0  0  0  0  0  0
  189.6940  174.8110  142.7060 C   0  0  0  0  0  0  0  0  0  0  0  0
  192.2390  173.2660  144.5910 O   0  0  0  0  0  0  0  0  0  0  0  0
  190.4530  174.8190  144.0010 C   0  0  1  0  0  3  0  0  0  0  0  0
  189.3100  175.0100  147.5560 C   0  0  0  0  0  2  0  0  0  0  0  0
  189.8950  177.6860  144.6510 C   0  0  0  0  0  1  0  0  0  0  0  0
  190.1620  172.5530  139.8220 C   0  0  0  0  0  3  0  0  0  0  0  0
  189.6660  173.5920  140.6130 C   0  0  0  0  0  0  0  0  0  0  0  0
  188.5720  176.9370  144.5230 C   0  0  2  0  0  3  0  0  0  0  0  0
  185.6300  178.3140  140.7290 C   0  0  0  0  0  2  0  0  0  0  0  0
  183.4000  178.5480  140.5130 O   0  0  0  0  0  1  0  0  0  0  0  0
  184.3370  177.9160  141.2580 N   0  0  0  0  0  2  0  0  0  0  0  0
  1  4  1  0  0  0  0
  2 19  1  0  0  0  0
  3 10  1  0  0  0  0
  4 20  1  0  0  0  0
  4 12  2  0  0  0  0
  5  1  2  0  0  0  0
  5 11  1  0  0  0  0
  7 15  1  1  0  0  0
  8 12  1  0  0  0  0
  8  6  1  0  0  0  0
  9  7  1  0  0  0  0
  9 14  1  1  0  0  0
 10 22  1  0  0  0  0
 10 21  2  0  0  0  0
 11  8  2  0  0  0  0
 12 27  1  0  0  0  0
 13 18  1  0  0  0  0
 13  2  2  0  0  0  0
 14 23  1  0  0  0  0
 15 23  1  0  0  0  0
 16  2  1  0  0  0  0
 17  3  1  0  0  0  0
 17 20  2  0  0  0  0
 18 25  2  0  0  0  0
 19 26  2  0  0  0  0
 19  1  1  0  0  0  0
 22 20  1  6  0  0  0
 22  9  1  0  0  0  0
 25 26  1  0  0  0  0
 26 17  1  0  0  0  0
 27 24  1  6  0  0  0
 27  7  1  0  0  0  0
 28 30  1  0  0  0  0
 28 11  1  0  0  0  0
 29 30  1  0  0  0  0
M  END
>  <MODEL>
6

>  <REMARK>
 VINA RESULT:      -7.8      2.982      5.422
  Name = 
  2 active torsions:
  status: ('A' for Active; 'I' for Inactive)
    1  A    between atoms: C_11  and  C_28
    2  A    between atoms: C_28  and  N_30
                            x       y       z     vdW  Elec       q    Type
                         _______ _______ _______ _____ _____    ______ ____

>  <TORSDO>
F 2

$$$$
=
 OpenBabel11112416183D

 30 35  0  0  1  0  0  0  0  0999 V2000
  190.2400  174.5970  143.8340 C   0  0  0  0  0  0  0  0  0  0  0  0
  192.3720  173.2890  144.0280 C   0  0  0  0  0  0  0  0  0  0  0  0
  191.1530  176.6800  147.3770 N   0  0  0  0  0  2  0  0  0  0  0  0
  189.3600  175.5870  144.3740 C   0  0  0  0  0  0  0  0  0  0  0  0
  189.8820  173.9590  142.6400 C   0  0  0  0  0  3  0  0  0  0  0  0
  186.6200  175.4780  141.8570 O   0  0  0  0  0  1  0  0  0  0  0  0
  186.6830  176.5360  145.6940 C   0  0  1  0  0  3  0  0  0  0  0  0
  187.8180  175.2030  142.5150 C   0  0  0  0  0  0  0  0  0  0  0  0
  187.6790  176.9190  146.7990 C   0  0  2  0  0  3  0  0  0  0  0  0
  190.0310  177.5490  147.4270 C   0  0  0  0  0  0  0  0  0  0  0  0
  188.6980  174.2610  141.9770 C   0  0  0  0  0  0  0  0  0  0  0  0
  188.1310  175.8690  143.7130 C   0  0  0  0  0  0  0  0  0  0  0  0
  193.5130  173.0260  144.7180 N   0  0  0  0  0  0  0  0  0  0  0  0
  187.0030  178.0240  147.5890 C   0  0  0  0  0  2  0  0  0  0  0  0
  185.3690  177.2260  146.0190 C   0  0  0  0  0  2  0  0  0  0  0  0
  192.1430  172.5930  142.8870 F   0  0  0  0  0  0  0  0  0  0  0  0
  190.9260  175.9080  146.2070 C   0  0  0  0  0  0  0  0  0  0  0  0
  193.8310  173.6690  145.8690 C   0  0  0  0  0  3  0  0  0  0  0  0
  191.4580  174.2670  144.5050 C   0  0  0  0  0  0  0  0  0  0  0  0
  189.7480  176.2330  145.5650 C   0  0  0  0  0  0  0  0  0  0  0  0
  189.9020  178.4290  148.3180 O   0  0  0  0  0  0  0  0  0  0  0  0
  189.0630  177.3500  146.2970 C   0  0  1  0  0  3  0  0  0  0  0  0
  185.5220  177.7920  147.4130 C   0  0  0  0  0  2  0  0  0  0  0  0
  187.4550  178.2910  143.9560 C   0  0  0  0  0  1  0  0  0  0  0  0
  192.9760  174.6370  146.3850 C   0  0  0  0  0  3  0  0  0  0  0  0
  191.7900  174.9380  145.7090 C   0  0  0  0  0  0  0  0  0  0  0  0
  187.1070  176.8350  144.2460 C   0  0  2  0  0  3  0  0  0  0  0  0
  188.3680  173.5310  140.7190 C   0  0  0  0  0  2  0  0  0  0  0  0
  188.1580  173.9920  138.5240 O   0  0  0  0  0  1  0  0  0  0  0  0
  188.9700  174.2110  139.5850 N   0  0  0  0  0  2  0  0  0  0  0  0
  1  4  1  0  0  0  0
  1 19  1  0  0  0  0
  2 19  2  0  0  0  0
  2 13  1  0  0  0  0
  3 10  1  0  0  0  0
  4 20  1  0  0  0  0
  5  1  2  0  0  0  0
  6  8  1  0  0  0  0
  7 15  1  1  0  0  0
  7  9  1  0  0  0  0
  8 12  1  0  0  0  0
  9 14  1  6  0  0  0
 10 21  2  0  0  0  0
 11  8  2  0  0  0  0
 11  5  1  0  0  0  0
 12 27  1  0  0  0  0
 12  4  2  0  0  0  0
 13 18  2  0  0  0  0
 15 23  1  0  0  0  0
 16  2  1  0  0  0  0
 17  3  1  0  0  0  0
 18 25  1  0  0  0  0
 19 26  1  0  0  0  0
 20 17  2  0  0  0  0
 22 20  1  6  0  0  0
 22  9  1  0  0  0  0
 22 10  1  0  0  0  0
 23 14  1  0  0  0  0
 26 17  1  0  0  0  0
 26 25  2  0  0  0  0
 27 24  1  1  0  0  0
 27  7  1  0  0  0  0
 28 11  1  0  0  0  0
 29 30  1  0  0  0  0
 30 28  1  0  0  0  0
M  END
>  <MODEL>
7

>  <REMARK>
 VINA RESULT:      -7.8      3.334      6.003
  Name = 
  2 active torsions:
  status: ('A' for Active; 'I' for Inactive)
    1  A    between atoms: C_11  and  C_28
    2  A    between atoms: C_28  and  N_30
                            x       y       z     vdW  Elec       q    Type
                         _______ _______ _______ _____ _____    ______ ____

>  <TORSDO>
F 2

$$$$
=
 OpenBabel11112416183D

 30 35  0  0  1  0  0  0  0  0999 V2000
  187.2140  177.0510  143.8100 C   0  0  0  0  0  0  0  0  0  0  0  0
  185.3810  178.4130  142.7720 C   0  0  0  0  0  0  0  0  0  0  0  0
  188.0800  175.3080  140.0770 N   0  0  0  0  0  2  0  0  0  0  0  0
  188.2440  176.0710  143.6570 C   0  0  0  0  0  0  0  0  0  0  0  0
  186.9950  177.6040  145.0780 C   0  0  0  0  0  3  0  0  0  0  0  0
  189.4640  175.8430  147.1670 O   0  0  0  0  0  1  0  0  0  0  0  0
  189.5280  173.2550  144.1430 C   0  0  1  0  0  3  0  0  0  0  0  0
  188.7340  176.2400  146.0480 C   0  0  0  0  0  0  0  0  0  0  0  0
  189.3600  173.2160  142.6160 C   0  0  2  0  0  3  0  0  0  0  0  0
  189.1780  174.4900  140.4560 C   0  0  0  0  0  0  0  0  0  0  0  0
  187.7470  177.2210  146.1820 C   0  0  0  0  0  0  0  0  0  0  0  0
  188.9900  175.6530  144.7960 C   0  0  0  0  0  0  0  0  0  0  0  0
  184.6690  178.7480  141.6640 N   0  0  0  0  0  0  0  0  0  0  0  0
  190.3860  172.2130  142.1210 C   0  0  0  0  0  2  0  0  0  0  0  0
  190.4440  172.1040  144.5210 C   0  0  0  0  0  2  0  0  0  0  0  0
  185.0610  179.0210  143.9420 F   0  0  0  0  0  0  0  0  0  0  0  0
  187.6960  175.9340  141.2910 C   0  0  0  0  0  0  0  0  0  0  0  0
  184.9140  178.1970  140.4490 C   0  0  0  0  0  3  0  0  0  0  0  0
  186.4240  177.4530  142.6890 C   0  0  0  0  0  0  0  0  0  0  0  0
  188.4640  175.5410  142.3690 C   0  0  0  0  0  0  0  0  0  0  0  0
  189.8240  173.8030  139.6210 O   0  0  0  0  0  0  0  0  0  0  0  0
  189.5160  174.5720  141.9160 C   0  0  1  0  0  3  0  0  0  0  0  0
  190.6020  171.2620  143.2740 C   0  0  0  0  0  2  0  0  0  0  0  0
  191.3760  175.0660  144.2070 C   0  0  0  0  0  1  0  0  0  0  0  0
  185.9230  177.2500  140.3050 C   0  0  0  0  0  3  0  0  0  0  0  0
  186.6790  176.8750  141.4190 C   0  0  0  0  0  0  0  0  0  0  0  0
  190.0380  174.5730  144.7490 C   0  0  2  0  0  3  0  0  0  0  0  0
  187.4510  177.8360  147.5080 C   0  0  0  0  0  2  0  0  0  0  0  0
  185.8850  179.4440  147.6980 O   0  0  0  0  0  1  0  0  0  0  0  0
  186.0270  178.1000  147.6190 N   0  0  0  0  0  2  0  0  0  0  0  0
  1  5  2  0  0  0  0
  2 16  1  0  0  0  0
  3 10  1  0  0  0  0
  3 17  1  0  0  0  0
  4  1  1  0  0  0  0
  4 12  2  0  0  0  0
  5 11  1  0  0  0  0
  7 15  1  6  0  0  0
  7 27  1  0  0  0  0
  8 11  2  0  0  0  0
  8  6  1  0  0  0  0
  9 14  1  6  0  0  0
  9  7  1  0  0  0  0
 11 28  1  0  0  0  0
 12  8  1  0  0  0  0
 13  2  2  0  0  0  0
 14 23  1  0  0  0  0
 17 26  1  0  0  0  0
 17 20  2  0  0  0  0
 18 13  1  0  0  0  0
 19  2  1  0  0  0  0
 19  1  1  0  0  0  0
 20  4  1  0  0  0  0
 21 10  2  0  0  0  0
 22 10  1  6  0  0  0
 22 20  1  0  0  0  0
 22  9  1  0  0  0  0
 23 15  1  0  0  0  0
 25 18  2  0  0  0  0
 25 26  1  0  0  0  0
 26 19  2  0  0  0  0
 27 24  1  6  0  0  0
 27 12  1  0  0  0  0
 28 30  1  0  0  0  0
 30 29  1  0  0  0  0
M  END
>  <MODEL>
8

>  <REMARK>
 VINA RESULT:      -7.7      2.152      5.024
  Name = 
  2 active torsions:
  status: ('A' for Active; 'I' for Inactive)
    1  A    between atoms: C_11  and  C_28
    2  A    between atoms: C_28  and  N_30
                            x       y       z     vdW  Elec       q    Type
                         _______ _______ _______ _____ _____    ______ ____

>  <TORSDO>
F 2

$$$$
=
 OpenBabel11112416183D

 30 35  0  0  1  0  0  0  0  0999 V2000
  188.2730  175.2530  143.0790 C   0  0  0  0  0  0  0  0  0  0  0  0
  186.3350  176.8400  143.2060 C   0  0  0  0  0  0  0  0  0  0  0  0
  189.5420  176.4400  146.9140 N   0  0  0  0  0  2  0  0  0  0  0  0
  189.4460  174.7050  143.6880 C   0  0  0  0  0  0  0  0  0  0  0  0
  187.8980  174.7960  141.8100 C   0  0  0  0  0  3  0  0  0  0  0  0
  190.5520  172.3730  141.0050 O   0  0  0  0  0  1  0  0  0  0  0  0
  192.5360  174.2460  143.9030 C   0  0  1  0  0  3  0  0  0  0  0  0
  189.8030  173.3170  141.7060 C   0  0  0  0  0  0  0  0  0  0  0  0
  192.2800  174.9850  145.2260 C   0  0  2  0  0  3  0  0  0  0  0  0
  190.6660  175.5820  147.0580 C   0  0  0  0  0  0  0  0  0  0  0  0
  188.6380  173.8340  141.1320 C   0  0  0  0  0  0  0  0  0  0  0  0
  190.2220  173.7460  142.9770 C   0  0  0  0  0  0  0  0  0  0  0  0
  185.6510  177.7830  143.9070 N   0  0  0  0  0  0  0  0  0  0  0  0
  193.4180  174.5780  146.1440 C   0  0  0  0  0  2  0  0  0  0  0  0
  193.9300  173.6480  143.9890 C   0  0  0  0  0  2  0  0  0  0  0  0
  185.8660  176.4930  141.9830 F   0  0  0  0  0  0  0  0  0  0  0  0
  189.0460  176.1260  145.6210 C   0  0  0  0  0  0  0  0  0  0  0  0
  186.0400  178.1970  145.1390 C   0  0  0  0  0  3  0  0  0  0  0  0
  187.5030  176.2490  143.7560 C   0  0  0  0  0  0  0  0  0  0  0  0
  189.7950  175.1630  144.9750 C   0  0  0  0  0  0  0  0  0  0  0  0
  191.3480  175.5420  148.1150 O   0  0  0  0  0  0  0  0  0  0  0  0
  190.9140  174.7070  145.8640 C   0  0  1  0  0  3  0  0  0  0  0  0
  194.5680  174.2370  145.2280 C   0  0  0  0  0  2  0  0  0  0  0  0
  191.2970  172.0600  144.5220 C   0  0  0  0  0  1  0  0  0  0  0  0
  187.1760  177.6550  145.7290 C   0  0  0  0  0  3  0  0  0  0  0  0
  187.9110  176.6840  145.0440 C   0  0  0  0  0  0  0  0  0  0  0  0
  191.5120  173.1730  143.5010 C   0  0  2  0  0  3  0  0  0  0  0  0
  188.1930  173.4040  139.7750 C   0  0  0  0  0  2  0  0  0  0  0  0
  188.2170  174.0380  137.6140 O   0  0  0  0  0  1  0  0  0  0  0  0
  188.2060  174.5410  138.8710 N   0  0  0  0  0  2  0  0  0  0  0  0
  1  4  1  0  0  0  0
  1 19  1  0  0  0  0
  2 19  2  0  0  0  0
  2 13  1  0  0  0  0
  3 10  1  0  0  0  0
  4 20  1  0  0  0  0
  5  1  2  0  0  0  0
  6  8  1  0  0  0  0
  7 15  1  1  0  0  0
  7  9  1  0  0  0  0
  8 12  1  0  0  0  0
  9 22  1  0  0  0  0
  9 14  1  1  0  0  0
 10 21  2  0  0  0  0
 11  8  2  0  0  0  0
 11  5  1  0  0  0  0
 12 27  1  0  0  0  0
 12  4  2  0  0  0  0
 13 18  2  0  0  0  0
 15 23  1  0  0  0  0
 16  2  1  0  0  0  0
 17  3  1  0  0  0  0
 18 25  1  0  0  0  0
 19 26  1  0  0  0  0
 20 17  2  0  0  0  0
 22 20  1  6  0  0  0
 22 10  1  0  0  0  0
 23 14  1  0  0  0  0
 26 17  1  0  0  0  0
 26 25  2  0  0  0  0
 27  7  1  0  0  0  0
 27 24  1  1  0  0  0
 28 11  1  0  0  0  0
 29 30  1  0  0  0  0
 30 28  1  0  0  0  0
M  END
>  <MODEL>
9

>  <REMARK>
 VINA RESULT:      -7.5      2.337      3.479
  Name = 
  2 active torsions:
  status: ('A' for Active; 'I' for Inactive)
    1  A    between atoms: C_11  and  C_28
    2  A    between atoms: C_28  and  N_30
                            x       y       z     vdW  Elec       q    Type
                         _______ _______ _______ _____ _____    ______ ____

>  <TORSDO>
F 2

$$$$
