=
 OpenBabel11112417413D

 28 32  0  0  1  0  0  0  0  0999 V2000
  189.0680  176.9920  144.3260 C   0  0  0  0  0  0  0  0  0  0  0  0
  192.2050  175.4700  147.0100 O   0  0  0  0  0  0  0  0  0  0  0  0
  190.8410  172.2880  140.8080 O   0  0  0  0  0  1  0  0  0  0  0  0
  188.5550  175.8870  146.8530 C   0  0  0  0  0  3  0  0  0  0  0  0
  192.3750  174.0020  141.2140 N   0  0  0  0  0  0  0  0  0  0  0  0
  189.1670  177.5540  142.9380 C   0  0  0  0  0  2  0  0  0  0  0  0
  192.7260  173.4160  145.7630 O   0  0  0  0  0  0  0  0  0  0  0  0
  192.9020  174.9090  145.8040 S   0  0  0  0  0  0  0  0  0  0  0  0
  195.3590  175.0160  144.2120 C   0  0  2  0  0  3  0  0  0  0  0  0
  192.2930  175.6500  144.3560 N   0  0  1  0  0  0  0  0  0  0  0  0
  187.0450  174.9570  142.4990 O   0  0  0  0  0  0  0  0  0  0  0  0
  190.8780  175.3630  142.4930 C   0  0  1  0  0  3  0  0  0  0  0  0
  194.4620  175.7410  143.2170 C   0  0  0  0  0  2  0  0  0  0  0  0
  194.9410  175.4030  145.9520 S   0  0  0  0  0  0  0  0  0  0  0  0
  187.9430  175.6070  141.9030 C   0  0  0  0  0  0  0  0  0  0  0  0
  189.8370  175.8780  144.7770 C   0  0  0  0  0  0  0  0  0  0  0  0
  191.0070  173.6730  140.8210 C   0  0  2  0  0  3  0  0  0  0  0  0
  196.8020  175.3930  143.9530 C   0  0  0  0  0  1  0  0  0  0  0  0
  188.9410  174.9160  141.1510 N   0  0  0  0  0  2  0  0  0  0  0  0
  189.5390  175.3330  146.0340 C   0  0  0  0  0  3  0  0  0  0  0  0
  188.0870  177.5410  145.1610 C   0  0  0  0  0  3  0  0  0  0  0  0
  187.8360  176.9990  146.4210 C   0  0  0  0  0  3  0  0  0  0  0  0
  188.0020  177.0970  142.0500 C   0  0  0  0  0  2  0  0  0  0  0  0
  192.2910  175.2300  141.9950 C   0  0  1  0  0  3  0  0  0  0  0  0
  190.0640  174.2890  141.8320 C   0  0  2  0  0  3  0  0  0  0  0  0
  193.0930  175.0960  143.2720 C   0  0  2  0  0  3  0  0  0  0  0  0
  193.0990  174.3240  139.9960 C   0  0  0  0  0  1  0  0  0  0  0  0
  190.9520  175.1900  144.0000 C   0  0  2  0  0  3  0  0  0  0  0  0
  1 16  2  0  0  0  0
  1 21  1  0  0  0  0
  3 17  1  0  0  0  0
  5 24  1  0  0  0  0
  6  1  1  0  0  0  0
  7  8  2  0  0  0  0
  8 14  1  0  0  0  0
  8  2  2  0  0  0  0
  9 18  1  6  0  0  0
  9 14  1  0  0  0  0
 10  8  1  1  0  0  0
 12 28  1  0  0  0  0
 13 26  1  0  0  0  0
 13  9  1  0  0  0  0
 15 23  1  0  0  0  0
 15 11  2  0  0  0  0
 16 20  1  0  0  0  0
 17  5  1  0  0  0  0
 17 25  1  0  0  0  0
 19 25  1  0  0  0  0
 19 15  1  0  0  0  0
 20  4  2  0  0  0  0
 21 22  2  0  0  0  0
 22  4  1  0  0  0  0
 23  6  1  0  0  0  0
 24 12  1  0  0  0  0
 24 26  1  0  0  0  0
 25 12  1  0  0  0  0
 26 10  1  0  0  0  0
 27  5  1  0  0  0  0
 28 10  1  0  0  0  0
 28 16  1  0  0  0  0
M  END
>  <MODEL>
1

>  <REMARK>
 VINA RESULT:      -7.8      0.000      0.000
  Name = 
  0 active torsions:
  status: ('A' for Active; 'I' for Inactive)
                            x       y       z     vdW  Elec       q    Type
                         _______ _______ _______ _____ _____    ______ ____

>  <TORSDO>
F 0

$$$$
=
 OpenBabel11112417413D

 28 32  0  0  1  0  0  0  0  0999 V2000
  185.4020  177.5260  145.4660 C   0  0  0  0  0  0  0  0  0  0  0  0
  186.0090  178.0080  141.1350 O   0  0  0  0  0  0  0  0  0  0  0  0
  191.5170  177.0370  145.5120 O   0  0  0  0  0  1  0  0  0  0  0  0
  184.8490  179.8960  144.0700 C   0  0  0  0  0  3  0  0  0  0  0  0
  190.2870  175.3950  144.3960 N   0  0  0  0  0  0  0  0  0  0  0  0
  185.6960  176.3600  146.3630 C   0  0  0  0  0  2  0  0  0  0  0  0
  188.4650  178.1140  141.1640 O   0  0  0  0  0  0  0  0  0  0  0  0
  187.2710  177.2060  141.2680 S   0  0  0  0  0  0  0  0  0  0  0  0
  188.6260  174.7480  140.4290 C   0  0  2  0  0  3  0  0  0  0  0  0
  187.2760  176.3350  142.7710 N   0  0  1  0  0  0  0  0  0  0  0  0
  187.5180  178.8280  147.7900 O   0  0  0  0  0  0  0  0  0  0  0  0
  188.1370  176.2810  144.9630 C   0  0  1  0  0  3  0  0  0  0  0  0
  188.3350  174.3200  141.8610 C   0  0  0  0  0  2  0  0  0  0  0  0
  187.2950  175.7840  139.7180 S   0  0  0  0  0  0  0  0  0  0  0  0
  187.5230  177.5840  147.6000 C   0  0  0  0  0  0  0  0  0  0  0  0
  186.2620  177.9360  144.4040 C   0  0  0  0  0  0  0  0  0  0  0  0
  190.4240  176.1790  145.6210 C   0  0  2  0  0  3  0  0  0  0  0  0
  188.8120  173.5180  139.5660 C   0  0  0  0  0  1  0  0  0  0  0  0
  188.7270  176.9310  147.1950 N   0  0  0  0  0  2  0  0  0  0  0  0
  185.9740  179.1380  143.7430 C   0  0  0  0  0  3  0  0  0  0  0  0
  184.2740  178.2960  145.7800 C   0  0  0  0  0  3  0  0  0  0  0  0
  183.9920  179.4690  145.0810 C   0  0  0  0  0  3  0  0  0  0  0  0
  186.2460  176.8090  147.7240 C   0  0  0  0  0  2  0  0  0  0  0  0
  188.8560  175.2150  144.1830 C   0  0  1  0  0  3  0  0  0  0  0  0
  189.1580  176.9890  145.8070 C   0  0  2  0  0  3  0  0  0  0  0  0
  188.4940  175.5360  142.7500 C   0  0  2  0  0  3  0  0  0  0  0  0
  190.8430  174.0810  144.6710 C   0  0  0  0  0  1  0  0  0  0  0  0
  187.5070  177.1960  143.9280 C   0  0  2  0  0  3  0  0  0  0  0  0
  1 21  1  0  0  0  0
  1  6  1  0  0  0  0
  2  8  2  0  0  0  0
  3 17  1  0  0  0  0
  4 22  1  0  0  0  0
  5 27  1  0  0  0  0
  5 17  1  0  0  0  0
  6 23  1  0  0  0  0
  7  8  2  0  0  0  0
  9 18  1  6  0  0  0
  9 13  1  0  0  0  0
 10  8  1  6  0  0  0
 10 28  1  0  0  0  0
 12 25  1  0  0  0  0
 13 26  1  0  0  0  0
 14  9  1  0  0  0  0
 14  8  1  0  0  0  0
 15 23  1  0  0  0  0
 15 11  2  0  0  0  0
 16  1  2  0  0  0  0
 17 25  1  0  0  0  0
 19 15  1  0  0  0  0
 20  4  2  0  0  0  0
 20 16  1  0  0  0  0
 22 21  2  0  0  0  0
 24  5  1  0  0  0  0
 24 12  1  0  0  0  0
 25 19  1  0  0  0  0
 26 10  1  0  0  0  0
 26 24  1  0  0  0  0
 28 16  1  0  0  0  0
 28 12  1  0  0  0  0
M  END
>  <MODEL>
2

>  <REMARK>
 VINA RESULT:      -7.7      3.742      6.105
  Name = 
  0 active torsions:
  status: ('A' for Active; 'I' for Inactive)
                            x       y       z     vdW  Elec       q    Type
                         _______ _______ _______ _____ _____    ______ ____

>  <TORSDO>
F 0

$$$$
=
 OpenBabel11112417413D

 28 32  0  0  1  0  0  0  0  0999 V2000
  187.1640  178.2920  144.3370 C   0  0  0  0  0  0  0  0  0  0  0  0
  189.0700  176.1030  147.6430 O   0  0  0  0  0  0  0  0  0  0  0  0
  188.4280  173.1700  141.2070 O   0  0  0  0  0  1  0  0  0  0  0  0
  185.7990  177.4490  146.6380 C   0  0  0  0  0  3  0  0  0  0  0  0
  190.2140  174.4390  142.0130 N   0  0  0  0  0  0  0  0  0  0  0  0
  187.7310  178.7610  143.0290 C   0  0  0  0  0  2  0  0  0  0  0  0
  189.3160  173.9410  146.4970 O   0  0  0  0  0  0  0  0  0  0  0  0
  189.8600  175.3380  146.6210 S   0  0  0  0  0  0  0  0  0  0  0  0
  192.5640  174.7470  145.6610 C   0  0  2  0  0  3  0  0  0  0  0  0
  189.8250  176.1600  145.0920 N   0  0  1  0  0  0  0  0  0  0  0  0
  185.1710  176.7910  142.0250 O   0  0  0  0  0  0  0  0  0  0  0  0
  188.8660  176.1860  142.9400 C   0  0  1  0  0  3  0  0  0  0  0  0
  192.1480  175.6450  144.5030 C   0  0  0  0  0  2  0  0  0  0  0  0
  191.8630  175.2900  147.2630 S   0  0  0  0  0  0  0  0  0  0  0  0
  186.3210  177.1630  141.6770 C   0  0  0  0  0  0  0  0  0  0  0  0
  187.4870  177.0340  144.9260 C   0  0  0  0  0  0  0  0  0  0  0  0
  188.9410  174.4630  141.2990 C   0  0  2  0  0  3  0  0  0  0  0  0
  194.0740  174.7260  145.7620 C   0  0  0  0  0  1  0  0  0  0  0  0
  187.2540  176.2110  141.1650 N   0  0  0  0  0  2  0  0  0  0  0  0
  186.7690  176.6290  146.0600 C   0  0  0  0  0  3  0  0  0  0  0  0
  186.1910  179.1070  144.9310 C   0  0  0  0  0  3  0  0  0  0  0  0
  185.5180  178.6940  146.0800 C   0  0  0  0  0  3  0  0  0  0  0  0
  186.7310  178.5920  141.8770 C   0  0  0  0  0  2  0  0  0  0  0  0
  190.2720  175.6730  142.7880 C   0  0  1  0  0  3  0  0  0  0  0  0
  187.9800  175.3380  142.0740 C   0  0  2  0  0  3  0  0  0  0  0  0
  190.6860  175.3800  144.2130 C   0  0  2  0  0  3  0  0  0  0  0  0
  191.2640  174.5180  141.0120 C   0  0  0  0  0  1  0  0  0  0  0  0
  188.5350  176.0530  144.4150 C   0  0  2  0  0  3  0  0  0  0  0  0
  1 16  2  0  0  0  0
  1 21  1  0  0  0  0
  3 17  1  0  0  0  0
  5 24  1  0  0  0  0
  6  1  1  0  0  0  0
  7  8  2  0  0  0  0
  8 14  1  0  0  0  0
  8  2  2  0  0  0  0
  9 18  1  1  0  0  0
  9 14  1  0  0  0  0
 10  8  1  1  0  0  0
 12 28  1  0  0  0  0
 13  9  1  0  0  0  0
 15 23  1  0  0  0  0
 15 11  2  0  0  0  0
 16 20  1  0  0  0  0
 17  5  1  0  0  0  0
 17 25  1  0  0  0  0
 19 15  1  0  0  0  0
 19 25  1  0  0  0  0
 20  4  2  0  0  0  0
 21 22  2  0  0  0  0
 22  4  1  0  0  0  0
 23  6  1  0  0  0  0
 24 12  1  0  0  0  0
 24 26  1  0  0  0  0
 25 12  1  0  0  0  0
 26 13  1  0  0  0  0
 26 10  1  0  0  0  0
 27  5  1  0  0  0  0
 28 16  1  0  0  0  0
 28 10  1  0  0  0  0
M  END
>  <MODEL>
3

>  <REMARK>
 VINA RESULT:      -7.6      2.059      2.675
  Name = 
  0 active torsions:
  status: ('A' for Active; 'I' for Inactive)
                            x       y       z     vdW  Elec       q    Type
                         _______ _______ _______ _____ _____    ______ ____

>  <TORSDO>
F 0

$$$$
=
 OpenBabel11112417413D

 28 32  0  0  1  0  0  0  0  0999 V2000
  192.3080  175.7930  142.7960 C   0  0  0  0  0  0  0  0  0  0  0  0
  188.5250  175.3670  140.5910 O   0  0  0  0  0  0  0  0  0  0  0  0
  188.7780  174.4460  147.6290 O   0  0  0  0  0  1  0  0  0  0  0  0
  191.8180  173.7650  140.9200 C   0  0  0  0  0  3  0  0  0  0  0  0
  188.3570  176.4320  146.4740 N   0  0  0  0  0  0  0  0  0  0  0  0
  192.7070  176.7740  143.8590 C   0  0  0  0  0  2  0  0  0  0  0  0
  187.1560  174.5370  142.4580 O   0  0  0  0  0  0  0  0  0  0  0  0
  187.8000  175.7520  141.8490 S   0  0  0  0  0  0  0  0  0  0  0  0
  186.0120  177.7370  143.0510 C   0  0  2  0  0  3  0  0  0  0  0  0
  188.8940  176.5070  142.9670 N   0  0  1  0  0  0  0  0  0  0  0  0
  193.1530  173.8110  145.4280 O   0  0  0  0  0  0  0  0  0  0  0  0
  190.1670  176.1950  144.9250 C   0  0  1  0  0  3  0  0  0  0  0  0
  187.2780  178.1610  143.7830 C   0  0  0  0  0  2  0  0  0  0  0  0
  186.3400  177.1770  141.3390 S   0  0  0  0  0  0  0  0  0  0  0  0
  192.8270  175.0050  145.6530 C   0  0  0  0  0  0  0  0  0  0  0  0
  191.0130  175.2000  142.7210 C   0  0  0  0  0  0  0  0  0  0  0  0
  189.3760  175.5830  147.0860 C   0  0  2  0  0  3  0  0  0  0  0  0
  185.0410  178.8970  143.0160 C   0  0  0  0  0  1  0  0  0  0  0  0
  191.7220  175.2910  146.5120 N   0  0  0  0  0  2  0  0  0  0  0  0
  190.8070  174.1710  141.7910 C   0  0  0  0  0  3  0  0  0  0  0  0
  193.3120  175.3780  141.9110 C   0  0  0  0  0  3  0  0  0  0  0  0
  193.0680  174.3770  140.9720 C   0  0  0  0  0  3  0  0  0  0  0  0
  193.5530  176.1160  144.9570 C   0  0  0  0  0  2  0  0  0  0  0  0
  188.9800  177.0380  145.3030 C   0  0  1  0  0  3  0  0  0  0  0  0
  190.3600  175.1770  146.0110 C   0  0  2  0  0  3  0  0  0  0  0  0
  188.0720  176.9100  144.1000 C   0  0  2  0  0  3  0  0  0  0  0  0
  188.0820  177.5080  147.4120 C   0  0  0  0  0  1  0  0  0  0  0  0
  189.8150  175.5610  143.5920 C   0  0  2  0  0  3  0  0  0  0  0  0
  1  6  1  0  0  0  0
  2  8  2  0  0  0  0
  4 22  2  0  0  0  0
  4 20  1  0  0  0  0
  5 17  1  0  0  0  0
  5 27  1  0  0  0  0
  6 23  1  0  0  0  0
  8  7  2  0  0  0  0
  9 18  1  6  0  0  0
  9 13  1  0  0  0  0
 10  8  1  6  0  0  0
 10 28  1  0  0  0  0
 10 26  1  0  0  0  0
 11 15  2  0  0  0  0
 12 24  1  0  0  0  0
 12 25  1  0  0  0  0
 13 26  1  0  0  0  0
 14  8  1  0  0  0  0
 14  9  1  0  0  0  0
 15 19  1  0  0  0  0
 16  1  1  0  0  0  0
 16 28  1  0  0  0  0
 17  3  1  0  0  0  0
 20 16  2  0  0  0  0
 21  1  2  0  0  0  0
 22 21  1  0  0  0  0
 23 15  1  0  0  0  0
 24  5  1  0  0  0  0
 25 19  1  0  0  0  0
 25 17  1  0  0  0  0
 26 24  1  0  0  0  0
 28 12  1  0  0  0  0
M  END
>  <MODEL>
4

>  <REMARK>
 VINA RESULT:      -7.3      2.735      6.695
  Name = 
  0 active torsions:
  status: ('A' for Active; 'I' for Inactive)
                            x       y       z     vdW  Elec       q    Type
                         _______ _______ _______ _____ _____    ______ ____

>  <TORSDO>
F 0

$$$$
=
 OpenBabel11112417413D

 28 32  0  0  1  0  0  0  0  0999 V2000
  191.9190  175.4960  146.3650 C   0  0  0  0  0  0  0  0  0  0  0  0
  188.2100  176.0620  144.0670 O   0  0  0  0  0  0  0  0  0  0  0  0
  194.5660  176.9760  141.0320 O   0  0  0  0  0  1  0  0  0  0  0  0
  190.0660  177.5410  146.8760 C   0  0  0  0  0  3  0  0  0  0  0  0
  193.3150  175.0060  141.1340 N   0  0  0  0  0  0  0  0  0  0  0  0
  193.0280  174.5020  146.1880 C   0  0  0  0  0  2  0  0  0  0  0  0
  189.2360  176.9430  142.0130 O   0  0  0  0  0  0  0  0  0  0  0  0
  188.9770  175.7050  142.8260 S   0  0  0  0  0  0  0  0  0  0  0  0
  189.1710  173.7890  140.6190 C   0  0  2  0  0  3  0  0  0  0  0  0
  190.4640  174.9100  143.2450 N   0  0  1  0  0  0  0  0  0  0  0  0
  194.6740  177.4470  145.9470 O   0  0  0  0  0  0  0  0  0  0  0  0
  192.7950  175.1750  143.4640 C   0  0  1  0  0  3  0  0  0  0  0  0
  190.4020  173.3180  141.3810 C   0  0  0  0  0  2  0  0  0  0  0  0
  187.8200  174.3350  141.7280 S   0  0  0  0  0  0  0  0  0  0  0  0
  194.7010  176.2660  145.5140 C   0  0  0  0  0  0  0  0  0  0  0  0
  191.2580  176.1370  145.2750 C   0  0  0  0  0  0  0  0  0  0  0  0
  194.3460  175.8170  141.7760 C   0  0  2  0  0  3  0  0  0  0  0  0
  188.6660  172.6660  139.7390 C   0  0  0  0  0  1  0  0  0  0  0  0
  194.9390  176.0210  144.1270 N   0  0  0  0  0  2  0  0  0  0  0  0
  190.3570  177.1720  145.5620 C   0  0  0  0  0  3  0  0  0  0  0  0
  191.6130  175.8740  147.6790 C   0  0  0  0  0  3  0  0  0  0  0  0
  190.6860  176.8830  147.9360 C   0  0  0  0  0  3  0  0  0  0  0  0
  194.4060  175.1280  146.4440 C   0  0  0  0  0  2  0  0  0  0  0  0
  192.5600  174.3770  142.2110 C   0  0  1  0  0  3  0  0  0  0  0  0
  193.8620  176.1860  143.1620 C   0  0  2  0  0  3  0  0  0  0  0  0
  191.0740  174.5380  141.9760 C   0  0  2  0  0  3  0  0  0  0  0  0
  193.9970  173.9420  140.4170 C   0  0  0  0  0  1  0  0  0  0  0  0
  191.4620  175.8220  143.7980 C   0  0  2  0  0  3  0  0  0  0  0  0
  1 21  1  0  0  0  0
  3 17  1  0  0  0  0
  4 22  1  0  0  0  0
  5 17  1  0  0  0  0
  5 24  1  0  0  0  0
  6  1  1  0  0  0  0
  6 23  1  0  0  0  0
  7  8  2  0  0  0  0
  8  2  2  0  0  0  0
  9 18  1  1  0  0  0
  9 13  1  0  0  0  0
  9 14  1  0  0  0  0
 10  8  1  6  0  0  0
 10 28  1  0  0  0  0
 12 28  1  0  0  0  0
 13 26  1  0  0  0  0
 14  8  1  0  0  0  0
 15 11  2  0  0  0  0
 15 23  1  0  0  0  0
 16 20  1  0  0  0  0
 16  1  2  0  0  0  0
 17 25  1  0  0  0  0
 19 15  1  0  0  0  0
 20  4  2  0  0  0  0
 21 22  2  0  0  0  0
 24 12  1  0  0  0  0
 25 12  1  0  0  0  0
 25 19  1  0  0  0  0
 26 24  1  0  0  0  0
 26 10  1  0  0  0  0
 27  5  1  0  0  0  0
 28 16  1  0  0  0  0
M  END
>  <MODEL>
5

>  <REMARK>
 VINA RESULT:      -7.3      2.794      5.208
  Name = 
  0 active torsions:
  status: ('A' for Active; 'I' for Inactive)
                            x       y       z     vdW  Elec       q    Type
                         _______ _______ _______ _____ _____    ______ ____

>  <TORSDO>
F 0

$$$$
=
 OpenBabel11112417413D

 28 32  0  0  1  0  0  0  0  0999 V2000
  185.5120  177.2420  144.3850 C   0  0  0  0  0  0  0  0  0  0  0  0
  188.3830  176.2240  141.2100 O   0  0  0  0  0  0  0  0  0  0  0  0
  190.6080  178.0650  147.6990 O   0  0  0  0  0  1  0  0  0  0  0  0
  185.8730  178.7730  142.0610 C   0  0  0  0  0  3  0  0  0  0  0  0
  190.1330  175.9150  146.9220 N   0  0  0  0  0  0  0  0  0  0  0  0
  185.2390  176.5710  145.6980 C   0  0  0  0  0  2  0  0  0  0  0  0
  190.4330  176.8320  142.4240 O   0  0  0  0  0  0  0  0  0  0  0  0
  189.3480  175.8010  142.2810 S   0  0  0  0  0  0  0  0  0  0  0  0
  190.8690  173.5400  143.3530 C   0  0  2  0  0  3  0  0  0  0  0  0
  188.5130  175.5600  143.7840 N   0  0  1  0  0  0  0  0  0  0  0  0
  186.0660  179.7050  146.6650 O   0  0  0  0  0  0  0  0  0  0  0  0
  188.0450  176.4870  145.8990 C   0  0  1  0  0  3  0  0  0  0  0  0
  189.8370  173.6140  144.4700 C   0  0  0  0  0  2  0  0  0  0  0  0
  190.1670  173.9490  141.7120 S   0  0  0  0  0  0  0  0  0  0  0  0
  186.1380  178.5070  147.0420 C   0  0  0  0  0  0  0  0  0  0  0  0
  186.8220  177.4030  143.8430 C   0  0  0  0  0  0  0  0  0  0  0  0
  189.6060  177.1020  147.5900 C   0  0  2  0  0  3  0  0  0  0  0  0
  191.4580  172.1460  143.3060 C   0  0  0  0  0  1  0  0  0  0  0  0
  187.3500  178.0120  147.6140 N   0  0  0  0  0  2  0  0  0  0  0  0
  186.9720  178.1940  142.6950 C   0  0  0  0  0  3  0  0  0  0  0  0
  184.4160  177.8250  143.7330 C   0  0  0  0  0  3  0  0  0  0  0  0
  184.5920  178.5780  142.5730 C   0  0  0  0  0  3  0  0  0  0  0  0
  184.9760  177.5870  146.8180 C   0  0  0  0  0  2  0  0  0  0  0  0
  189.0410  175.3810  146.1160 C   0  0  1  0  0  3  0  0  0  0  0  0
  188.4660  177.6460  146.7560 C   0  0  2  0  0  3  0  0  0  0  0  0
  189.5230  175.0750  144.7150 C   0  0  2  0  0  3  0  0  0  0  0  0
  190.4130  174.9350  147.9580 C   0  0  0  0  0  1  0  0  0  0  0  0
  188.1030  176.8110  144.4170 C   0  0  2  0  0  3  0  0  0  0  0  0
  1  6  1  0  0  0  0
  2  8  2  0  0  0  0
  4 22  2  0  0  0  0
  4 20  1  0  0  0  0
  5 17  1  0  0  0  0
  5 27  1  0  0  0  0
  6 23  1  0  0  0  0
  8  7  2  0  0  0  0
  9 18  1  6  0  0  0
  9 13  1  0  0  0  0
 10  8  1  6  0  0  0
 10 28  1  0  0  0  0
 10 26  1  0  0  0  0
 11 15  2  0  0  0  0
 12 24  1  0  0  0  0
 12 25  1  0  0  0  0
 13 26  1  0  0  0  0
 14  8  1  0  0  0  0
 14  9  1  0  0  0  0
 15 19  1  0  0  0  0
 16  1  1  0  0  0  0
 16 28  1  0  0  0  0
 17  3  1  0  0  0  0
 20 16  2  0  0  0  0
 21  1  2  0  0  0  0
 22 21  1  0  0  0  0
 23 15  1  0  0  0  0
 24  5  1  0  0  0  0
 25 17  1  0  0  0  0
 25 19  1  0  0  0  0
 26 24  1  0  0  0  0
 28 12  1  0  0  0  0
M  END
>  <MODEL>
6

>  <REMARK>
 VINA RESULT:      -7.3      3.390      5.785
  Name = 
  0 active torsions:
  status: ('A' for Active; 'I' for Inactive)
                            x       y       z     vdW  Elec       q    Type
                         _______ _______ _______ _____ _____    ______ ____

>  <TORSDO>
F 0

$$$$
=
 OpenBabel11112417413D

 28 32  0  0  1  0  0  0  0  0999 V2000
  189.3390  173.0830  143.3890 C   0  0  0  0  0  0  0  0  0  0  0  0
  189.7150  175.8990  146.7490 O   0  0  0  0  0  0  0  0  0  0  0  0
  187.7700  178.1440  140.2970 O   0  0  0  0  0  1  0  0  0  0  0  0
  191.7730  173.6940  144.6440 C   0  0  0  0  0  3  0  0  0  0  0  0
  186.3750  177.4320  142.0300 N   0  0  0  0  0  0  0  0  0  0  0  0
  188.1370  172.6920  142.5800 C   0  0  0  0  0  2  0  0  0  0  0  0
  189.3820  177.9720  145.4690 O   0  0  0  0  0  0  0  0  0  0  0  0
  188.7000  176.7740  146.0700 S   0  0  0  0  0  0  0  0  0  0  0  0
  186.0420  177.9760  146.3330 C   0  0  2  0  0  3  0  0  0  0  0  0
  187.8390  175.8720  144.8610 N   0  0  1  0  0  0  0  0  0  0  0  0
  190.2380  173.8680  140.2030 O   0  0  0  0  0  0  0  0  0  0  0  0
  187.6280  175.4610  142.5500 C   0  0  1  0  0  3  0  0  0  0  0  0
  185.6690  176.9290  145.2920 C   0  0  0  0  0  2  0  0  0  0  0  0
  187.3000  177.3770  147.5200 S   0  0  0  0  0  0  0  0  0  0  0  0
  189.0140  173.7820  140.4800 C   0  0  0  0  0  0  0  0  0  0  0  0
  189.5910  174.4180  143.8250 C   0  0  0  0  0  0  0  0  0  0  0  0
  187.1200  177.0350  140.8380 C   0  0  2  0  0  3  0  0  0  0  0  0
  184.8010  178.3920  147.0930 C   0  0  0  0  0  1  0  0  0  0  0  0
  188.1580  174.9070  140.2780 N   0  0  0  0  0  2  0  0  0  0  0  0
  190.8270  174.6970  144.4250 C   0  0  0  0  0  3  0  0  0  0  0  0
  190.2960  172.0860  143.6200 C   0  0  0  0  0  3  0  0  0  0  0  0
  191.5020  172.3860  144.2520 C   0  0  0  0  0  3  0  0  0  0  0  0
  188.4780  172.5230  141.0930 C   0  0  0  0  0  2  0  0  0  0  0  0
  186.4520  176.3070  142.9540 C   0  0  1  0  0  3  0  0  0  0  0  0
  188.1410  175.9950  141.2440 C   0  0  2  0  0  3  0  0  0  0  0  0
  186.8360  176.7890  144.3360 C   0  0  2  0  0  3  0  0  0  0  0  0
  184.9820  177.5610  141.6360 C   0  0  0  0  0  1  0  0  0  0  0  0
  188.6430  175.6000  143.6710 C   0  0  2  0  0  3  0  0  0  0  0  0
  1 21  2  0  0  0  0
  1 16  1  0  0  0  0
  3 17  1  0  0  0  0
  5 24  1  0  0  0  0
  6  1  1  0  0  0  0
  7  8  2  0  0  0  0
  8  2  2  0  0  0  0
  8 14  1  0  0  0  0
  9 18  1  1  0  0  0
  9 14  1  0  0  0  0
 10  8  1  1  0  0  0
 11 15  2  0  0  0  0
 12 24  1  0  0  0  0
 12 28  1  0  0  0  0
 13  9  1  0  0  0  0
 15 23  1  0  0  0  0
 16 20  2  0  0  0  0
 17 25  1  0  0  0  0
 17  5  1  0  0  0  0
 19 15  1  0  0  0  0
 19 25  1  0  0  0  0
 20  4  1  0  0  0  0
 21 22  1  0  0  0  0
 22  4  2  0  0  0  0
 23  6  1  0  0  0  0
 24 26  1  0  0  0  0
 25 12  1  0  0  0  0
 26 10  1  0  0  0  0
 26 13  1  0  0  0  0
 27  5  1  0  0  0  0
 28 16  1  0  0  0  0
 28 10  1  0  0  0  0
M  END
>  <MODEL>
7

>  <REMARK>
 VINA RESULT:      -7.3      3.152      5.924
  Name = 
  0 active torsions:
  status: ('A' for Active; 'I' for Inactive)
                            x       y       z     vdW  Elec       q    Type
                         _______ _______ _______ _____ _____    ______ ____

>  <TORSDO>
F 0

$$$$
=
 OpenBabel11112417413D

 28 32  0  0  1  0  0  0  0  0999 V2000
  189.0110  175.5380  145.5160 C   0  0  0  0  0  0  0  0  0  0  0  0
  188.9260  174.8140  141.1770 O   0  0  0  0  0  0  0  0  0  0  0  0
  194.9490  174.1350  144.8800 O   0  0  0  0  0  1  0  0  0  0  0  0
  188.5040  177.5360  143.6130 C   0  0  0  0  0  3  0  0  0  0  0  0
  193.3680  172.4750  144.4290 N   0  0  0  0  0  0  0  0  0  0  0  0
  189.3170  174.6050  146.6500 C   0  0  0  0  0  2  0  0  0  0  0  0
  191.3480  174.5410  140.8490 O   0  0  0  0  0  0  0  0  0  0  0  0
  190.0920  173.8850  141.3550 S   0  0  0  0  0  0  0  0  0  0  0  0
  190.9960  171.1150  141.0460 C   0  0  2  0  0  3  0  0  0  0  0  0
  190.2530  173.4310  143.0240 N   0  0  1  0  0  0  0  0  0  0  0  0
  191.6240  177.0390  147.0940 O   0  0  0  0  0  0  0  0  0  0  0  0
  191.4610  173.7980  145.0130 C   0  0  1  0  0  3  0  0  0  0  0  0
  190.9050  171.1120  142.5660 C   0  0  0  0  0  2  0  0  0  0  0  0
  189.6910  172.1320  140.2630 S   0  0  0  0  0  0  0  0  0  0  0  0
  191.4550  175.8020  147.2510 C   0  0  0  0  0  0  0  0  0  0  0  0
  189.7200  175.5280  144.2780 C   0  0  0  0  0  0  0  0  0  0  0  0
  193.7990  173.5120  145.3630 C   0  0  2  0  0  3  0  0  0  0  0  0
  190.8910  169.6950  140.5340 C   0  0  0  0  0  1  0  0  0  0  0  0
  192.4910  174.8890  146.8840 N   0  0  0  0  0  2  0  0  0  0  0  0
  189.4620  176.5550  143.3580 C   0  0  0  0  0  3  0  0  0  0  0  0
  188.0470  176.5270  145.7550 C   0  0  0  0  0  3  0  0  0  0  0  0
  187.7870  177.5150  144.8070 C   0  0  0  0  0  3  0  0  0  0  0  0
  190.1380  175.2910  147.7510 C   0  0  0  0  0  2  0  0  0  0  0  0
  191.9110  172.4710  144.4650 C   0  0  1  0  0  3  0  0  0  0  0  0
  192.6840  174.5280  145.4880 C   0  0  2  0  0  3  0  0  0  0  0  0
  191.3500  172.4730  143.0600 C   0  0  2  0  0  3  0  0  0  0  0  0
  193.8090  171.2030  144.9750 C   0  0  0  0  0  1  0  0  0  0  0  0
  190.7730  174.5090  143.8610 C   0  0  2  0  0  3  0  0  0  0  0  0
  1 21  1  0  0  0  0
  1  6  1  0  0  0  0
  2  8  2  0  0  0  0
  3 17  1  0  0  0  0
  4 22  1  0  0  0  0
  5 24  1  0  0  0  0
  5 27  1  0  0  0  0
  5 17  1  0  0  0  0
  6 23  1  0  0  0  0
  7  8  2  0  0  0  0
  9 18  1  6  0  0  0
  9 13  1  0  0  0  0
 10  8  1  6  0  0  0
 10 26  1  0  0  0  0
 10 28  1  0  0  0  0
 11 15  2  0  0  0  0
 12 25  1  0  0  0  0
 13 26  1  0  0  0  0
 14  9  1  0  0  0  0
 14  8  1  0  0  0  0
 15 23  1  0  0  0  0
 16  1  2  0  0  0  0
 17 25  1  0  0  0  0
 19 15  1  0  0  0  0
 20  4  2  0  0  0  0
 20 16  1  0  0  0  0
 22 21  2  0  0  0  0
 24 12  1  0  0  0  0
 25 19  1  0  0  0  0
 26 24  1  0  0  0  0
 28 16  1  0  0  0  0
 28 12  1  0  0  0  0
M  END
>  <MODEL>
8

>  <REMARK>
 VINA RESULT:      -7.1      2.780      5.120
  Name = 
  0 active torsions:
  status: ('A' for Active; 'I' for Inactive)
                            x       y       z     vdW  Elec       q    Type
                         _______ _______ _______ _____ _____    ______ ____

>  <TORSDO>
F 0

$$$$
=
 OpenBabel11112417413D

 28 32  0  0  1  0  0  0  0  0999 V2000
  191.7380  175.0220  144.8210 C   0  0  0  0  0  0  0  0  0  0  0  0
  189.7000  173.1230  141.4150 O   0  0  0  0  0  0  0  0  0  0  0  0
  186.0120  176.4560  146.4880 O   0  0  0  0  0  1  0  0  0  0  0  0
  191.7160  172.2530  144.3650 C   0  0  0  0  0  3  0  0  0  0  0  0
  186.8470  177.3730  144.5100 N   0  0  0  0  0  0  0  0  0  0  0  0
  191.7990  176.4630  145.2350 C   0  0  0  0  0  2  0  0  0  0  0  0
  187.3930  173.4250  142.2130 O   0  0  0  0  0  0  0  0  0  0  0  0
  188.5810  174.1090  141.5930 S   0  0  0  0  0  0  0  0  0  0  0  0
  187.1010  176.2850  140.3060 C   0  0  2  0  0  3  0  0  0  0  0  0
  189.1070  175.4490  142.5640 N   0  0  1  0  0  0  0  0  0  0  0  0
  190.4850  174.9920  147.9830 O   0  0  0  0  0  0  0  0  0  0  0  0
  189.0340  176.4200  144.7100 C   0  0  1  0  0  3  0  0  0  0  0  0
  187.8680  177.1460  141.3000 C   0  0  0  0  0  2  0  0  0  0  0  0
  188.0830  174.8660  139.6950 S   0  0  0  0  0  0  0  0  0  0  0  0
  190.4550  176.0690  147.3330 C   0  0  0  0  0  0  0  0  0  0  0  0
  190.5590  174.4010  144.3110 C   0  0  0  0  0  0  0  0  0  0  0  0
  187.1050  177.1120  145.9230 C   0  0  2  0  0  3  0  0  0  0  0  0
  186.6750  177.1360  139.1290 C   0  0  0  0  0  1  0  0  0  0  0  0
  189.2060  176.7150  147.0840 N   0  0  0  0  0  2  0  0  0  0  0  0
  190.5720  173.0120  144.1180 C   0  0  0  0  0  3  0  0  0  0  0  0
  192.8820  174.2470  145.0590 C   0  0  0  0  0  3  0  0  0  0  0  0
  192.8760  172.8730  144.8240 C   0  0  0  0  0  3  0  0  0  0  0  0
  191.7240  176.6250  146.7590 C   0  0  0  0  0  2  0  0  0  0  0  0
  188.1290  177.2360  143.8280 C   0  0  1  0  0  3  0  0  0  0  0  0
  188.3330  176.2330  146.0250 C   0  0  2  0  0  3  0  0  0  0  0  0
  187.9790  176.3700  142.5960 C   0  0  2  0  0  3  0  0  0  0  0  0
  186.4570  178.7690  144.4010 C   0  0  0  0  0  1  0  0  0  0  0  0
  189.2520  175.1080  143.9780 C   0  0  2  0  0  3  0  0  0  0  0  0
  1 21  1  0  0  0  0
  1  6  1  0  0  0  0
  2  8  2  0  0  0  0
  4 22  1  0  0  0  0
  5 17  1  0  0  0  0
  6 23  1  0  0  0  0
  8  7  2  0  0  0  0
  9 18  1  6  0  0  0
  9 13  1  0  0  0  0
 10  8  1  6  0  0  0
 10 26  1  0  0  0  0
 10 28  1  0  0  0  0
 12 25  1  0  0  0  0
 13 26  1  0  0  0  0
 14  9  1  0  0  0  0
 14  8  1  0  0  0  0
 15 11  2  0  0  0  0
 16  1  2  0  0  0  0
 17 25  1  0  0  0  0
 17  3  1  0  0  0  0
 19 15  1  0  0  0  0
 20 16  1  0  0  0  0
 20  4  2  0  0  0  0
 22 21  2  0  0  0  0
 23 15  1  0  0  0  0
 24  5  1  0  0  0  0
 24 12  1  0  0  0  0
 25 19  1  0  0  0  0
 26 24  1  0  0  0  0
 27  5  1  0  0  0  0
 28 16  1  0  0  0  0
 28 12  1  0  0  0  0
M  END
>  <MODEL>
9

>  <REMARK>
 VINA RESULT:      -7.1      3.012      6.365
  Name = 
  0 active torsions:
  status: ('A' for Active; 'I' for Inactive)
                            x       y       z     vdW  Elec       q    Type
                         _______ _______ _______ _____ _____    ______ ____

>  <TORSDO>
F 0

$$$$
