=
 OpenBabel11112417403D

 28 32  0  0  1  0  0  0  0  0999 V2000
  191.7370  174.0980  143.2410 C   0  0  0  0  0  0  0  0  0  0  0  0
  188.7040  178.1370  142.0180 C   0  0  0  0  0  1  0  0  0  0  0  0
  192.0880  176.1540  147.3610 O   0  0  0  0  0  0  0  0  0  0  0  0
  190.1330  172.2070  144.5370 C   0  0  0  0  0  3  0  0  0  0  0  0
  189.8070  176.5990  146.7180 C   0  0  1  0  0  3  0  0  0  0  0  0
  192.5410  175.0670  142.6390 O   0  0  0  0  0  0  0  0  0  0  0  0
  187.7520  176.1350  140.9830 C   0  0  0  0  0  1  0  0  0  0  0  0
  187.8230  176.9090  142.2840 C   0  0  0  0  0  0  0  0  0  0  0  0
  186.5170  178.0280  143.8220 C   0  0  1  0  0  3  0  0  0  0  0  0
  188.3990  175.9420  143.3610 C   0  0  2  0  0  3  0  0  0  0  0  0
  193.8190  174.8720  145.4200 O   0  0  0  0  0  1  0  0  0  0  0  0
  190.4150  176.9010  144.3360 C   0  0  1  0  0  3  0  0  0  0  0  0
  186.7530  177.0780  144.9820 C   0  0  0  0  0  2  0  0  0  0  0  0
  186.5020  177.3080  142.6100 O   0  0  0  0  0  0  0  0  0  0  0  0
  193.9380  175.8810  144.4640 C   0  0  2  0  0  3  0  0  0  0  0  0
  190.4220  174.4320  143.5940 C   0  0  0  0  0  0  0  0  0  0  0  0
  191.2450  176.3800  146.4520 C   0  0  0  0  0  0  0  0  0  0  0  0
  185.2940  178.6740  143.9930 O   0  0  0  0  0  1  0  0  0  0  0  0
  192.9300  177.0150  144.7020 C   0  0  0  0  0  2  0  0  0  0  0  0
  189.6280  173.4780  144.2550 C   0  0  0  0  0  3  0  0  0  0  0  0
  192.2430  172.8230  143.5300 C   0  0  0  0  0  3  0  0  0  0  0  0
  191.4400  171.8790  144.1730 C   0  0  0  0  0  3  0  0  0  0  0  0
  193.8820  175.3020  143.0480 C   0  0  0  0  0  2  0  0  0  0  0  0
  189.2800  177.0990  145.3520 C   0  0  1  0  0  3  0  0  0  0  0  0
  191.6070  176.5250  145.0880 N   0  0  0  0  0  0  0  0  0  0  0  0
  188.0740  176.3370  144.8050 C   0  0  2  0  0  3  0  0  0  0  0  0
  189.1780  175.2980  147.2060 C   0  0  0  0  0  1  0  0  0  0  0  0
  189.9260  175.8400  143.3270 C   0  0  1  0  0  3  0  0  0  0  0  0
  1 21  2  0  0  0  0
  1 16  1  0  0  0  0
  2  8  1  0  0  0  0
  5 27  1  6  0  0  0
  6 23  1  0  0  0  0
  6  1  1  0  0  0  0
  7  8  1  0  0  0  0
  8 14  1  0  0  0  0
  9 18  1  1  0  0  0
  9 13  1  0  0  0  0
 10  8  1  6  0  0  0
 10 26  1  0  0  0  0
 12 25  1  1  0  0  0
 12 24  1  0  0  0  0
 14  9  1  0  0  0  0
 15 19  1  0  0  0  0
 15 11  1  1  0  0  0
 16 20  2  0  0  0  0
 17  5  1  0  0  0  0
 17  3  2  0  0  0  0
 19 25  1  0  0  0  0
 20  4  1  0  0  0  0
 21 22  1  0  0  0  0
 22  4  2  0  0  0  0
 23 15  1  0  0  0  0
 24  5  1  0  0  0  0
 25 17  1  0  0  0  0
 26 13  1  0  0  0  0
 26 24  1  0  0  0  0
 28 10  1  0  0  0  0
 28 16  1  0  0  0  0
 28 12  1  0  0  0  0
M  END
>  <MODEL>
1

>  <REMARK>
 VINA RESULT:      -8.4      0.000      0.000
  Name = 
  0 active torsions:
  status: ('A' for Active; 'I' for Inactive)
                            x       y       z     vdW  Elec       q    Type
                         _______ _______ _______ _____ _____    ______ ____

>  <TORSDO>
F 0

$$$$
=
 OpenBabel11112417403D

 28 32  0  0  1  0  0  0  0  0999 V2000
  191.0130  174.2100  143.0200 C   0  0  0  0  0  0  0  0  0  0  0  0
  187.6710  178.1680  143.4300 C   0  0  0  0  0  1  0  0  0  0  0  0
  193.1040  176.1530  146.6500 O   0  0  0  0  0  0  0  0  0  0  0  0
  190.1830  172.2230  144.8070 C   0  0  0  0  0  3  0  0  0  0  0  0
  190.7650  176.5330  147.0950 C   0  0  1  0  0  3  0  0  0  0  0  0
  191.4500  175.2250  142.1670 O   0  0  0  0  0  0  0  0  0  0  0  0
  186.4010  176.1640  142.8350 C   0  0  0  0  0  1  0  0  0  0  0  0
  187.0230  176.9020  144.0050 C   0  0  0  0  0  0  0  0  0  0  0  0
  186.5070  177.9250  146.0060 C   0  0  1  0  0  3  0  0  0  0  0  0
  188.0340  175.9250  144.6750 C   0  0  2  0  0  3  0  0  0  0  0  0
  193.8260  174.9950  144.0910 O   0  0  0  0  0  1  0  0  0  0  0  0
  190.2530  176.9280  144.7040 C   0  0  1  0  0  3  0  0  0  0  0  0
  187.2500  176.9510  146.9030 C   0  0  0  0  0  2  0  0  0  0  0  0
  185.9740  177.2410  144.8950 O   0  0  0  0  0  0  0  0  0  0  0  0
  193.4920  176.0360  143.2250 C   0  0  2  0  0  3  0  0  0  0  0  0
  189.9820  174.4840  143.9290 C   0  0  0  0  0  0  0  0  0  0  0  0
  191.9430  176.3750  146.2140 C   0  0  0  0  0  0  0  0  0  0  0  0
  185.4720  178.5200  146.7250 O   0  0  0  0  0  1  0  0  0  0  0  0
  192.6690  177.1240  143.9300 C   0  0  0  0  0  2  0  0  0  0  0  0
  189.5800  173.4820  144.8310 C   0  0  0  0  0  3  0  0  0  0  0  0
  191.6200  172.9460  143.0020 C   0  0  0  0  0  3  0  0  0  0  0  0
  191.2020  171.9540  143.8910 C   0  0  0  0  0  3  0  0  0  0  0  0
  192.8280  175.4980  141.9540 C   0  0  0  0  0  2  0  0  0  0  0  0
  189.6790  177.0540  146.1230 C   0  0  1  0  0  3  0  0  0  0  0  0
  191.6620  176.5740  144.8380 N   0  0  0  0  0  0  0  0  0  0  0  0
  188.3720  176.2640  146.1310 C   0  0  2  0  0  3  0  0  0  0  0  0
  190.4420  175.1950  147.7540 C   0  0  0  0  0  1  0  0  0  0  0  0
  189.3910  175.8800  143.9690 C   0  0  1  0  0  3  0  0  0  0  0  0
  1 16  1  0  0  0  0
  2  8  1  0  0  0  0
  4 20  1  0  0  0  0
  5 27  1  6  0  0  0
  6  1  1  0  0  0  0
  7  8  1  0  0  0  0
  8 14  1  0  0  0  0
  9 18  1  1  0  0  0
  9 13  1  0  0  0  0
 10  8  1  6  0  0  0
 10 26  1  0  0  0  0
 12 25  1  1  0  0  0
 12 24  1  0  0  0  0
 14  9  1  0  0  0  0
 15 19  1  0  0  0  0
 15 11  1  1  0  0  0
 16 28  1  0  0  0  0
 16 20  2  0  0  0  0
 17  3  2  0  0  0  0
 17  5  1  0  0  0  0
 19 25  1  0  0  0  0
 21  1  2  0  0  0  0
 21 22  1  0  0  0  0
 22  4  2  0  0  0  0
 23  6  1  0  0  0  0
 23 15  1  0  0  0  0
 24 26  1  0  0  0  0
 24  5  1  0  0  0  0
 25 17  1  0  0  0  0
 26 13  1  0  0  0  0
 28 10  1  0  0  0  0
 28 12  1  0  0  0  0
M  END
>  <MODEL>
2

>  <REMARK>
 VINA RESULT:      -8.4      1.186      1.392
  Name = 
  0 active torsions:
  status: ('A' for Active; 'I' for Inactive)
                            x       y       z     vdW  Elec       q    Type
                         _______ _______ _______ _____ _____    ______ ____

>  <TORSDO>
F 0

$$$$
=
 OpenBabel11112417403D

 28 32  0  0  1  0  0  0  0  0999 V2000
  190.3890  175.8260  144.8890 C   0  0  0  0  0  0  0  0  0  0  0  0
  185.3950  176.4400  146.1870 C   0  0  0  0  0  1  0  0  0  0  0  0
  188.7510  175.0630  140.6390 O   0  0  0  0  0  0  0  0  0  0  0  0
  191.3020  178.2740  143.8880 C   0  0  0  0  0  3  0  0  0  0  0  0
  187.2810  176.7720  141.4960 C   0  0  1  0  0  3  0  0  0  0  0  0
  189.9130  174.5950  145.3420 O   0  0  0  0  0  0  0  0  0  0  0  0
  186.7080  178.0830  147.4350 C   0  0  0  0  0  1  0  0  0  0  0  0
  186.0610  177.8180  146.0900 C   0  0  0  0  0  0  0  0  0  0  0  0
  184.4630  178.6260  144.6370 C   0  0  1  0  0  3  0  0  0  0  0  0
  187.1890  177.8990  145.0170 C   0  0  2  0  0  3  0  0  0  0  0  0
  190.6940  173.9100  142.4570 O   0  0  0  0  0  1  0  0  0  0  0  0
  187.2960  175.8060  143.7760 C   0  0  1  0  0  3  0  0  0  0  0  0
  185.4140  179.0070  143.5170 C   0  0  0  0  0  2  0  0  0  0  0  0
  185.0880  178.8270  145.8840 O   0  0  0  0  0  0  0  0  0  0  0  0
  189.8580  173.2150  143.3320 C   0  0  2  0  0  3  0  0  0  0  0  0
  189.4750  176.8640  144.6590 C   0  0  0  0  0  0  0  0  0  0  0  0
  188.1520  175.5830  141.6180 C   0  0  0  0  0  0  0  0  0  0  0  0
  183.3160  179.4160  144.5600 O   0  0  0  0  0  1  0  0  0  0  0  0
  188.3830  173.5960  143.1370 C   0  0  0  0  0  2  0  0  0  0  0  0
  189.9430  178.0870  144.1450 C   0  0  0  0  0  3  0  0  0  0  0  0
  191.7530  176.0160  144.6240 C   0  0  0  0  0  3  0  0  0  0  0  0
  192.2080  177.2390  144.1280 C   0  0  0  0  0  3  0  0  0  0  0  0
  190.3390  173.3610  144.7780 C   0  0  0  0  0  2  0  0  0  0  0  0
  186.5890  176.8310  142.8780 C   0  0  1  0  0  3  0  0  0  0  0  0
  188.1920  175.0310  142.9240 N   0  0  0  0  0  0  0  0  0  0  0  0
  186.6900  178.1760  143.5950 C   0  0  2  0  0  3  0  0  0  0  0  0
  188.1330  177.9910  141.1560 C   0  0  0  0  0  1  0  0  0  0  0  0
  187.9990  176.6070  144.8930 C   0  0  1  0  0  3  0  0  0  0  0  0
  1  6  1  0  0  0  0
  3 17  2  0  0  0  0
  4 22  2  0  0  0  0
  4 20  1  0  0  0  0
  5 27  1  1  0  0  0
  5 17  1  0  0  0  0
  5 24  1  0  0  0  0
  8  2  1  0  0  0  0
  8  7  1  0  0  0  0
  9 18  1  1  0  0  0
  9 14  1  0  0  0  0
 10  8  1  1  0  0  0
 12 25  1  6  0  0  0
 12 28  1  0  0  0  0
 13 26  1  0  0  0  0
 13  9  1  0  0  0  0
 14  8  1  0  0  0  0
 15 11  1  6  0  0  0
 15 23  1  0  0  0  0
 16  1  1  0  0  0  0
 16 28  1  0  0  0  0
 17 25  1  0  0  0  0
 19 15  1  0  0  0  0
 20 16  2  0  0  0  0
 21  1  2  0  0  0  0
 22 21  1  0  0  0  0
 23  6  1  0  0  0  0
 24 26  1  0  0  0  0
 24 12  1  0  0  0  0
 25 19  1  0  0  0  0
 26 10  1  0  0  0  0
 28 10  1  0  0  0  0
M  END
>  <MODEL>
3

>  <REMARK>
 VINA RESULT:      -8.3      2.095      4.601
  Name = 
  0 active torsions:
  status: ('A' for Active; 'I' for Inactive)
                            x       y       z     vdW  Elec       q    Type
                         _______ _______ _______ _____ _____    ______ ____

>  <TORSDO>
F 0

$$$$
=
 OpenBabel11112417403D

 28 32  0  0  1  0  0  0  0  0999 V2000
  188.9030  176.9710  144.4620 C   0  0  0  0  0  0  0  0  0  0  0  0
  193.8910  176.0410  143.3380 C   0  0  0  0  0  1  0  0  0  0  0  0
  188.1340  172.8650  142.4930 O   0  0  0  0  0  0  0  0  0  0  0  0
  188.3390  175.6960  146.8880 C   0  0  0  0  0  3  0  0  0  0  0  0
  190.2360  172.5440  143.6310 C   0  0  1  0  0  3  0  0  0  0  0  0
  189.1780  177.5620  143.2280 O   0  0  0  0  0  0  0  0  0  0  0  0
  193.7990  177.1300  145.5260 C   0  0  0  0  0  1  0  0  0  0  0  0
  193.6580  175.7890  144.8330 C   0  0  0  0  0  0  0  0  0  0  0  0
  194.5650  173.6710  144.7440 C   0  0  1  0  0  3  0  0  0  0  0  0
  192.2350  175.2500  145.1670 C   0  0  2  0  0  3  0  0  0  0  0  0
  187.0090  175.5380  142.4520 O   0  0  0  0  0  1  0  0  0  0  0  0
  191.0050  174.8380  143.1050 C   0  0  1  0  0  3  0  0  0  0  0  0
  193.3500  172.9330  145.2780 C   0  0  0  0  0  2  0  0  0  0  0  0
  194.6620  174.9370  145.3560 O   0  0  0  0  0  0  0  0  0  0  0  0
  187.9280  176.2000  141.6380 C   0  0  2  0  0  3  0  0  0  0  0  0
  189.8550  176.1110  145.0290 C   0  0  0  0  0  0  0  0  0  0  0  0
  189.2310  173.3390  142.8920 C   0  0  0  0  0  0  0  0  0  0  0  0
  195.7150  172.9320  145.0210 O   0  0  0  0  0  1  0  0  0  0  0  0
  189.1900  175.3580  141.3990 C   0  0  0  0  0  2  0  0  0  0  0  0
  189.5560  175.4670  146.2430 C   0  0  0  0  0  3  0  0  0  0  0  0
  187.6800  177.1950  145.1090 C   0  0  0  0  0  3  0  0  0  0  0  0
  187.4010  176.5620  146.3210 C   0  0  0  0  0  3  0  0  0  0  0  0
  188.2240  177.6030  142.1750 C   0  0  0  0  0  2  0  0  0  0  0  0
  191.4710  173.4750  143.6360 C   0  0  1  0  0  3  0  0  0  0  0  0
  189.6460  174.6650  142.6040 N   0  0  0  0  0  0  0  0  0  0  0  0
  192.0800  173.7340  145.0130 C   0  0  2  0  0  3  0  0  0  0  0  0
  189.6910  172.1980  145.0130 C   0  0  0  0  0  1  0  0  0  0  0  0
  191.1400  175.8380  144.2730 C   0  0  1  0  0  3  0  0  0  0  0  0
  1 16  2  0  0  0  0
  1 21  1  0  0  0  0
  2  8  1  0  0  0  0
  3 17  2  0  0  0  0
  5 24  1  0  0  0  0
  5 27  1  1  0  0  0
  6  1  1  0  0  0  0
  8 14  1  0  0  0  0
  8  7  1  0  0  0  0
  9 18  1  1  0  0  0
  9 13  1  0  0  0  0
  9 14  1  0  0  0  0
 10  8  1  6  0  0  0
 12 25  1  1  0  0  0
 12 24  1  0  0  0  0
 12 28  1  0  0  0  0
 15 23  1  0  0  0  0
 15 11  1  1  0  0  0
 16 20  1  0  0  0  0
 17  5  1  0  0  0  0
 19 15  1  0  0  0  0
 19 25  1  0  0  0  0
 20  4  2  0  0  0  0
 21 22  2  0  0  0  0
 22  4  1  0  0  0  0
 23  6  1  0  0  0  0
 24 26  1  0  0  0  0
 25 17  1  0  0  0  0
 26 10  1  0  0  0  0
 26 13  1  0  0  0  0
 28 16  1  0  0  0  0
 28 10  1  0  0  0  0
M  END
>  <MODEL>
4

>  <REMARK>
 VINA RESULT:      -7.9      1.813      6.043
  Name = 
  0 active torsions:
  status: ('A' for Active; 'I' for Inactive)
                            x       y       z     vdW  Elec       q    Type
                         _______ _______ _______ _____ _____    ______ ____

>  <TORSDO>
F 0

$$$$
=
 OpenBabel11112417403D

 28 32  0  0  1  0  0  0  0  0999 V2000
  192.2030  173.9130  143.2990 C   0  0  0  0  0  0  0  0  0  0  0  0
  188.9420  174.7290  147.2620 C   0  0  0  0  0  1  0  0  0  0  0  0
  188.4710  174.5430  140.6530 O   0  0  0  0  0  0  0  0  0  0  0  0
  193.0420  176.4180  142.3750 C   0  0  0  0  0  3  0  0  0  0  0  0
  188.1380  176.1110  142.4540 C   0  0  1  0  0  3  0  0  0  0  0  0
  191.7410  172.6700  143.7330 O   0  0  0  0  0  0  0  0  0  0  0  0
  191.0730  175.8000  147.8030 C   0  0  0  0  0  1  0  0  0  0  0  0
  189.7810  175.9930  147.0340 C   0  0  0  0  0  0  0  0  0  0  0  0
  187.9220  177.3500  146.8900 C   0  0  1  0  0  3  0  0  0  0  0  0
  190.1680  176.2320  145.5440 C   0  0  2  0  0  3  0  0  0  0  0  0
  190.7150  172.7160  140.8440 O   0  0  0  0  0  1  0  0  0  0  0  0
  189.0910  174.5620  144.1350 C   0  0  1  0  0  3  0  0  0  0  0  0
  188.2140  177.9090  145.5080 C   0  0  0  0  0  2  0  0  0  0  0  0
  189.1290  177.1270  147.5810 O   0  0  0  0  0  0  0  0  0  0  0  0
  190.3110  171.9110  141.9100 C   0  0  2  0  0  3  0  0  0  0  0  0
  191.5950  175.0740  143.7980 C   0  0  0  0  0  0  0  0  0  0  0  0
  188.6180  174.8410  141.8680 C   0  0  0  0  0  0  0  0  0  0  0  0
  187.1410  178.2590  147.6010 O   0  0  0  0  0  1  0  0  0  0  0  0
  189.0980  172.5000  142.6440 C   0  0  0  0  0  2  0  0  0  0  0  0
  192.0160  176.3270  143.3180 C   0  0  0  0  0  3  0  0  0  0  0  0
  193.2290  174.0070  142.3480 C   0  0  0  0  0  3  0  0  0  0  0  0
  193.6490  175.2580  141.8910 C   0  0  0  0  0  3  0  0  0  0  0  0
  191.4900  171.5970  142.8350 C   0  0  0  0  0  2  0  0  0  0  0  0
  188.3020  175.8700  143.9740 C   0  0  1  0  0  3  0  0  0  0  0  0
  189.1890  173.9510  142.8140 N   0  0  0  0  0  0  0  0  0  0  0  0
  189.0920  176.9450  144.7180 C   0  0  2  0  0  3  0  0  0  0  0  0
  188.9630  177.2680  141.8990 C   0  0  0  0  0  1  0  0  0  0  0  0
  190.4440  174.9370  144.7760 C   0  0  1  0  0  3  0  0  0  0  0  0
  1  6  1  0  0  0  0
  1 16  1  0  0  0  0
  3 17  2  0  0  0  0
  4 20  1  0  0  0  0
  5 27  1  6  0  0  0
  5 24  1  0  0  0  0
  8  2  1  0  0  0  0
  8 14  1  0  0  0  0
  8  7  1  0  0  0  0
  9 14  1  0  0  0  0
  9 18  1  1  0  0  0
 10  8  1  1  0  0  0
 12 25  1  6  0  0  0
 12 28  1  0  0  0  0
 13  9  1  0  0  0  0
 15 11  1  6  0  0  0
 15 19  1  0  0  0  0
 15 23  1  0  0  0  0
 16 28  1  0  0  0  0
 17  5  1  0  0  0  0
 17 25  1  0  0  0  0
 19 25  1  0  0  0  0
 20 16  2  0  0  0  0
 21  1  2  0  0  0  0
 22 21  1  0  0  0  0
 22  4  2  0  0  0  0
 23  6  1  0  0  0  0
 24 12  1  0  0  0  0
 24 26  1  0  0  0  0
 26 13  1  0  0  0  0
 26 10  1  0  0  0  0
 28 10  1  0  0  0  0
M  END
>  <MODEL>
5

>  <REMARK>
 VINA RESULT:      -7.1      2.090      4.564
  Name = 
  0 active torsions:
  status: ('A' for Active; 'I' for Inactive)
                            x       y       z     vdW  Elec       q    Type
                         _______ _______ _______ _____ _____    ______ ____

>  <TORSDO>
F 0

$$$$
=
 OpenBabel11112417403D

 28 32  0  0  1  0  0  0  0  0999 V2000
  186.3880  176.9150  143.8850 C   0  0  0  0  0  0  0  0  0  0  0  0
  188.9420  172.4130  143.4120 C   0  0  0  0  0  1  0  0  0  0  0  0
  189.9100  178.1390  146.6090 O   0  0  0  0  0  0  0  0  0  0  0  0
  187.4700  178.6920  142.0140 C   0  0  0  0  0  3  0  0  0  0  0  0
  190.9730  176.8110  144.9010 C   0  0  1  0  0  3  0  0  0  0  0  0
  185.8880  176.0390  144.8490 O   0  0  0  0  0  0  0  0  0  0  0  0
  187.9610  172.9580  141.2390 C   0  0  0  0  0  1  0  0  0  0  0  0
  189.1470  173.2430  142.1380 C   0  0  0  0  0  0  0  0  0  0  0  0
  191.4440  173.0700  142.2470 C   0  0  1  0  0  3  0  0  0  0  0  0
  189.1740  174.7810  142.3850 C   0  0  2  0  0  3  0  0  0  0  0  0
  187.0140  178.2850  146.6060 O   0  0  0  0  0  1  0  0  0  0  0  0
  189.0680  175.2330  144.7770 C   0  0  1  0  0  3  0  0  0  0  0  0
  191.7360  174.5600  142.2710 C   0  0  0  0  0  2  0  0  0  0  0  0
  190.3100  172.8170  141.4500 O   0  0  0  0  0  0  0  0  0  0  0  0
  186.6820  176.9750  146.9550 C   0  0  2  0  0  3  0  0  0  0  0  0
  187.5410  176.5540  143.1730 C   0  0  0  0  0  0  0  0  0  0  0  0
  189.8560  177.1760  145.7990 C   0  0  0  0  0  0  0  0  0  0  0  0
  192.5420  172.3910  141.7220 O   0  0  0  0  0  1  0  0  0  0  0  0
  187.8990  176.0410  146.8880 C   0  0  0  0  0  2  0  0  0  0  0  0
  188.0830  177.4590  142.2440 C   0  0  0  0  0  3  0  0  0  0  0  0
  185.7780  178.1560  143.6560 C   0  0  0  0  0  3  0  0  0  0  0  0
  186.3160  179.0410  142.7190 C   0  0  0  0  0  3  0  0  0  0  0  0
  185.4850  176.4790  146.1390 C   0  0  0  0  0  2  0  0  0  0  0  0
  190.5250  175.4400  144.3390 C   0  0  1  0  0  3  0  0  0  0  0  0
  188.7460  176.2960  145.7220 N   0  0  0  0  0  0  0  0  0  0  0  0
  190.5380  175.3300  142.8160 C   0  0  2  0  0  3  0  0  0  0  0  0
  191.1560  177.9010  143.8500 C   0  0  0  0  0  1  0  0  0  0  0  0
  188.2150  175.2330  143.4900 C   0  0  1  0  0  3  0  0  0  0  0  0
  1  6  1  0  0  0  0
  4 20  2  0  0  0  0
  4 22  1  0  0  0  0
  5 27  1  6  0  0  0
  5 17  1  0  0  0  0
  6 23  1  0  0  0  0
  7  8  1  0  0  0  0
  8  2  1  0  0  0  0
  9 18  1  6  0  0  0
  9 13  1  0  0  0  0
 10  8  1  1  0  0  0
 10 26  1  0  0  0  0
 10 28  1  0  0  0  0
 12 25  1  1  0  0  0
 13 26  1  0  0  0  0
 14  8  1  0  0  0  0
 14  9  1  0  0  0  0
 15 11  1  6  0  0  0
 16 28  1  0  0  0  0
 16  1  2  0  0  0  0
 17  3  2  0  0  0  0
 19 15  1  0  0  0  0
 20 16  1  0  0  0  0
 21  1  1  0  0  0  0
 22 21  2  0  0  0  0
 23 15  1  0  0  0  0
 24 12  1  0  0  0  0
 24  5  1  0  0  0  0
 25 17  1  0  0  0  0
 25 19  1  0  0  0  0
 26 24  1  0  0  0  0
 28 12  1  0  0  0  0
M  END
>  <MODEL>
6

>  <REMARK>
 VINA RESULT:      -7.1      2.023      5.725
  Name = 
  0 active torsions:
  status: ('A' for Active; 'I' for Inactive)
                            x       y       z     vdW  Elec       q    Type
                         _______ _______ _______ _____ _____    ______ ____

>  <TORSDO>
F 0

$$$$
=
 OpenBabel11112417403D

 28 32  0  0  1  0  0  0  0  0999 V2000
  194.0410  175.3310  141.3640 C   0  0  0  0  0  0  0  0  0  0  0  0
  191.1540  178.7150  144.0520 C   0  0  0  0  0  1  0  0  0  0  0  0
  196.0430  174.4570  145.4320 O   0  0  0  0  0  0  0  0  0  0  0  0
  192.8470  172.8150  141.6290 C   0  0  0  0  0  3  0  0  0  0  0  0
  193.7350  174.8260  146.0240 C   0  0  1  0  0  3  0  0  0  0  0  0
  194.6580  176.5800  141.2770 O   0  0  0  0  0  0  0  0  0  0  0  0
  189.7140  177.6440  142.3900 C   0  0  0  0  0  1  0  0  0  0  0  0
  190.3200  177.4590  143.7670 C   0  0  0  0  0  0  0  0  0  0  0  0
  189.7660  177.1720  145.9870 C   0  0  1  0  0  3  0  0  0  0  0  0
  191.1550  176.1440  143.7250 C   0  0  2  0  0  3  0  0  0  0  0  0
  196.8300  174.9340  142.6820 O   0  0  0  0  0  1  0  0  0  0  0  0
  193.4660  176.6160  144.3350 C   0  0  1  0  0  3  0  0  0  0  0  0
  190.3190  175.7640  146.1300 C   0  0  0  0  0  2  0  0  0  0  0  0
  189.2490  177.3530  144.6890 O   0  0  0  0  0  0  0  0  0  0  0  0
  196.6880  176.3200  142.6020 C   0  0  2  0  0  3  0  0  0  0  0  0
  192.9780  175.1610  142.2630 C   0  0  0  0  0  0  0  0  0  0  0  0
  194.9540  175.0520  145.2170 C   0  0  0  0  0  0  0  0  0  0  0  0
  188.7520  177.3680  146.9230 O   0  0  0  0  0  1  0  0  0  0  0  0
  195.9430  176.8880  143.8180 C   0  0  0  0  0  2  0  0  0  0  0  0
  192.3930  173.8890  142.3970 C   0  0  0  0  0  3  0  0  0  0  0  0
  194.4980  174.2490  140.5980 C   0  0  0  0  0  3  0  0  0  0  0  0
  193.8980  172.9950  140.7290 C   0  0  0  0  0  3  0  0  0  0  0  0
  196.0710  176.7300  141.2620 C   0  0  0  0  0  2  0  0  0  0  0  0
  192.7980  175.9640  145.5530 C   0  0  1  0  0  3  0  0  0  0  0  0
  194.8090  176.0580  144.2280 N   0  0  0  0  0  0  0  0  0  0  0  0
  191.4120  175.5130  145.0970 C   0  0  2  0  0  3  0  0  0  0  0  0
  193.2090  173.4180  145.7630 C   0  0  0  0  0  1  0  0  0  0  0  0
  192.5500  176.3330  143.1240 C   0  0  1  0  0  3  0  0  0  0  0  0
  1 16  1  0  0  0  0
  4 20  1  0  0  0  0
  5 27  1  6  0  0  0
  6  1  1  0  0  0  0
  7  8  1  0  0  0  0
  8  2  1  0  0  0  0
  8 14  1  0  0  0  0
  9 13  1  0  0  0  0
  9 18  1  1  0  0  0
 10  8  1  1  0  0  0
 10 26  1  0  0  0  0
 12 25  1  6  0  0  0
 12 24  1  0  0  0  0
 14  9  1  0  0  0  0
 15 11  1  1  0  0  0
 15 19  1  0  0  0  0
 16 20  2  0  0  0  0
 16 28  1  0  0  0  0
 17  3  2  0  0  0  0
 17  5  1  0  0  0  0
 19 25  1  0  0  0  0
 21 22  1  0  0  0  0
 21  1  2  0  0  0  0
 22  4  2  0  0  0  0
 23  6  1  0  0  0  0
 23 15  1  0  0  0  0
 24  5  1  0  0  0  0
 25 17  1  0  0  0  0
 26 24  1  0  0  0  0
 26 13  1  0  0  0  0
 28 10  1  0  0  0  0
 28 12  1  0  0  0  0
M  END
>  <MODEL>
7

>  <REMARK>
 VINA RESULT:      -7.0      2.394      3.647
  Name = 
  0 active torsions:
  status: ('A' for Active; 'I' for Inactive)
                            x       y       z     vdW  Elec       q    Type
                         _______ _______ _______ _____ _____    ______ ____

>  <TORSDO>
F 0

$$$$
=
 OpenBabel11112417403D

 28 32  0  0  1  0  0  0  0  0999 V2000
  192.1070  174.6600  146.0430 C   0  0  0  0  0  0  0  0  0  0  0  0
  191.3170  172.5940  141.3400 C   0  0  0  0  0  1  0  0  0  0  0  0
  191.5660  178.7090  143.8880 O   0  0  0  0  0  0  0  0  0  0  0  0
  189.5960  175.1480  147.1760 C   0  0  0  0  0  3  0  0  0  0  0  0
  189.9900  177.2730  142.7630 C   0  0  1  0  0  3  0  0  0  0  0  0
  193.3550  174.4610  145.4510 O   0  0  0  0  0  0  0  0  0  0  0  0
  190.2030  171.1720  142.9880 C   0  0  0  0  0  1  0  0  0  0  0  0
  190.0400  172.4410  142.1770 C   0  0  0  0  0  0  0  0  0  0  0  0
  188.7180  173.4250  140.5630 C   0  0  1  0  0  3  0  0  0  0  0  0
  189.8070  173.6030  143.1880 C   0  0  2  0  0  3  0  0  0  0  0  0
  193.3520  177.5030  145.8290 O   0  0  0  0  0  1  0  0  0  0  0  0
  191.5070  175.3190  142.8790 C   0  0  1  0  0  3  0  0  0  0  0  0
  188.1660  174.5370  141.4380 C   0  0  0  0  0  2  0  0  0  0  0  0
  188.9140  172.2630  141.3350 O   0  0  0  0  0  0  0  0  0  0  0  0
  194.1550  176.7190  145.0010 C   0  0  2  0  0  3  0  0  0  0  0  0
  190.9530  174.5050  145.2610 C   0  0  0  0  0  0  0  0  0  0  0  0
  191.2560  177.5610  143.4700 C   0  0  0  0  0  0  0  0  0  0  0  0
  187.8180  173.1540  139.5350 O   0  0  0  0  0  1  0  0  0  0  0  0
  193.5810  176.6170  143.5800 C   0  0  0  0  0  2  0  0  0  0  0  0
  189.6970  174.7640  145.8380 C   0  0  0  0  0  3  0  0  0  0  0  0
  192.0030  175.0520  147.3850 C   0  0  0  0  0  3  0  0  0  0  0  0
  190.7480  175.2910  147.9500 C   0  0  0  0  0  3  0  0  0  0  0  0
  194.4400  175.3590  145.6430 C   0  0  0  0  0  2  0  0  0  0  0  0
  190.2160  175.8370  142.2300 C   0  0  1  0  0  3  0  0  0  0  0  0
  192.1270  176.4460  143.5670 N   0  0  0  0  0  0  0  0  0  0  0  0
  189.1200  174.8350  142.5890 C   0  0  2  0  0  3  0  0  0  0  0  0
  188.8230  177.4160  143.7350 C   0  0  0  0  0  1  0  0  0  0  0  0
  191.1020  174.1460  143.7960 C   0  0  1  0  0  3  0  0  0  0  0  0
  1 21  1  0  0  0  0
  2  8  1  0  0  0  0
  4 22  1  0  0  0  0
  5 17  1  0  0  0  0
  5 27  1  1  0  0  0
  6 23  1  0  0  0  0
  6  1  1  0  0  0  0
  8  7  1  0  0  0  0
  9 18  1  6  0  0  0
  9 14  1  0  0  0  0
  9 13  1  0  0  0  0
 10  8  1  6  0  0  0
 10 28  1  0  0  0  0
 12 25  1  1  0  0  0
 12 28  1  0  0  0  0
 13 26  1  0  0  0  0
 14  8  1  0  0  0  0
 15 23  1  0  0  0  0
 15 11  1  1  0  0  0
 16 20  1  0  0  0  0
 16  1  2  0  0  0  0
 17 25  1  0  0  0  0
 17  3  2  0  0  0  0
 19 15  1  0  0  0  0
 20  4  2  0  0  0  0
 21 22  2  0  0  0  0
 24 26  1  0  0  0  0
 24  5  1  0  0  0  0
 24 12  1  0  0  0  0
 25 19  1  0  0  0  0
 26 10  1  0  0  0  0
 28 16  1  0  0  0  0
M  END
>  <MODEL>
8

>  <REMARK>
 VINA RESULT:      -6.9      2.242      4.016
  Name = 
  0 active torsions:
  status: ('A' for Active; 'I' for Inactive)
                            x       y       z     vdW  Elec       q    Type
                         _______ _______ _______ _____ _____    ______ ____

>  <TORSDO>
F 0

$$$$
=
 OpenBabel11112417403D

 28 32  0  0  1  0  0  0  0  0999 V2000
  194.4130  172.5210  142.9730 C   0  0  0  0  0  0  0  0  0  0  0  0
  189.6760  174.5390  143.6800 C   0  0  0  0  0  1  0  0  0  0  0  0
  195.9050  176.7960  143.8820 O   0  0  0  0  0  0  0  0  0  0  0  0
  195.4190  171.8420  145.4930 C   0  0  0  0  0  3  0  0  0  0  0  0
  194.0140  176.5490  145.3580 C   0  0  1  0  0  3  0  0  0  0  0  0
  193.9250  172.9090  141.7240 O   0  0  0  0  0  0  0  0  0  0  0  0
  189.6920  172.2910  144.6430 C   0  0  0  0  0  1  0  0  0  0  0  0
  190.0690  173.7320  144.9240 C   0  0  0  0  0  0  0  0  0  0  0  0
  189.6390  175.4900  146.3520 C   0  0  1  0  0  3  0  0  0  0  0  0
  191.5960  173.7530  145.2330 C   0  0  2  0  0  3  0  0  0  0  0  0
  196.4170  174.6780  141.9680 O   0  0  0  0  0  1  0  0  0  0  0  0
  192.7290  175.2530  143.6840 C   0  0  1  0  0  3  0  0  0  0  0  0
  191.0210  175.5570  146.9770 C   0  0  0  0  0  2  0  0  0  0  0  0
  189.3150  174.1530  146.0480 O   0  0  0  0  0  0  0  0  0  0  0  0
  195.3190  174.8160  141.1200 C   0  0  2  0  0  3  0  0  0  0  0  0
  193.7160  172.9130  144.1250 C   0  0  0  0  0  0  0  0  0  0  0  0
  194.7650  176.3100  144.1060 C   0  0  0  0  0  0  0  0  0  0  0  0
  188.7010  176.0030  147.2470 O   0  0  0  0  0  1  0  0  0  0  0  0
  194.2550  175.7540  141.7100 C   0  0  0  0  0  2  0  0  0  0  0  0
  194.2360  172.5760  145.3870 C   0  0  0  0  0  3  0  0  0  0  0  0
  195.6030  171.7890  143.0830 C   0  0  0  0  0  3  0  0  0  0  0  0
  196.1020  171.4470  144.3420 C   0  0  0  0  0  3  0  0  0  0  0  0
  194.7670  173.4480  140.7130 C   0  0  0  0  0  2  0  0  0  0  0  0
  192.6100  175.9900  145.0260 C   0  0  1  0  0  3  0  0  0  0  0  0
  194.0520  175.5480  143.1450 N   0  0  0  0  0  0  0  0  0  0  0  0
  192.0640  174.9760  146.0280 C   0  0  2  0  0  3  0  0  0  0  0  0
  194.7220  175.8490  146.5140 C   0  0  0  0  0  1  0  0  0  0  0  0
  192.4670  173.7600  143.9740 C   0  0  1  0  0  3  0  0  0  0  0  0
  1 21  2  0  0  0  0
  1 16  1  0  0  0  0
  2  8  1  0  0  0  0
  3 17  2  0  0  0  0
  5 27  1  1  0  0  0
  6  1  1  0  0  0  0
  7  8  1  0  0  0  0
  8 14  1  0  0  0  0
  9 13  1  0  0  0  0
  9 18  1  1  0  0  0
 10  8  1  6  0  0  0
 10 26  1  0  0  0  0
 12 25  1  1  0  0  0
 12 28  1  0  0  0  0
 12 24  1  0  0  0  0
 14  9  1  0  0  0  0
 15 19  1  0  0  0  0
 15 11  1  1  0  0  0
 16 20  2  0  0  0  0
 17  5  1  0  0  0  0
 19 25  1  0  0  0  0
 20  4  1  0  0  0  0
 21 22  1  0  0  0  0
 22  4  2  0  0  0  0
 23 15  1  0  0  0  0
 23  6  1  0  0  0  0
 24  5  1  0  0  0  0
 24 26  1  0  0  0  0
 25 17  1  0  0  0  0
 26 13  1  0  0  0  0
 28 16  1  0  0  0  0
 28 10  1  0  0  0  0
M  END
>  <MODEL>
9

>  <REMARK>
 VINA RESULT:      -6.8      2.733      4.333
  Name = 
  0 active torsions:
  status: ('A' for Active; 'I' for Inactive)
                            x       y       z     vdW  Elec       q    Type
                         _______ _______ _______ _____ _____    ______ ____

>  <TORSDO>
F 0

$$$$
