=
 OpenBabel11112416503D

 31 35  0  0  1  0  0  0  0  0999 V2000
  191.1100  171.3020  143.0750 C   0  0  0  0  0  0  0  0  0  0  0  0
  190.9450  174.1490  145.5150 N   0  0  0  0  0  0  0  0  0  0  0  0
  192.2820  174.6460  145.7740 C   0  0  0  0  0  0  0  0  0  0  0  0
  194.6930  174.5530  145.4620 C   0  0  0  0  0  0  0  0  0  0  0  0
  190.6700  173.2660  144.4070 C   0  0  0  0  0  0  0  0  0  0  0  0
  190.0530  171.6140  142.2750 N   0  0  0  0  0  0  0  0  0  0  0  0
  193.4220  174.0110  145.2580 C   0  0  0  0  0  3  0  0  0  0  0  0
  189.1080  175.6190  144.8620 C   0  0  2  0  0  3  0  0  0  0  0  0
  192.0630  169.8720  142.7480 Cl  0  0  0  0  0  0  0  0  0  0  0  0
  191.3210  176.4860  147.0200 O   0  0  0  0  0  0  0  0  0  0  0  0
  196.1020  173.7450  144.8150 Cl  0  0  0  0  0  0  0  0  0  0  0  0
  188.7810  174.6850  143.8270 O   0  0  0  0  0  0  0  0  0  0  0  0
  189.7730  174.8790  146.0260 C   0  0  2  0  0  3  0  0  0  0  0  0
  191.4350  172.1210  144.1590 C   0  0  0  0  0  3  0  0  0  0  0  0
  194.8360  175.7490  146.1700 C   0  0  0  0  0  3  0  0  0  0  0  0
  189.5790  173.5600  143.5700 C   0  0  0  0  0  0  0  0  0  0  0  0
  189.2870  172.7140  142.5000 C   0  0  0  0  0  3  0  0  0  0  0  0
  190.1020  175.7810  147.2200 C   0  0  0  0  0  2  0  0  0  0  0  0
  192.4410  175.8410  146.4990 C   0  0  0  0  0  0  0  0  0  0  0  0
  193.7110  176.3940  146.6860 C   0  0  0  0  0  3  0  0  0  0  0  0
  187.9470  176.2700  145.2910 O   0  0  0  0  0  0  0  0  0  0  0  0
  189.3600  177.8000  144.1200 C   0  0  0  0  0  1  0  0  0  0  0  0
  187.9690  177.5160  144.6560 C   0  0  1  0  0  3  0  0  0  0  0  0
  185.1040  178.0720  141.5160 N   0  0  0  0  0  0  0  0  0  0  0  0
  187.3920  177.6220  142.2930 C   0  0  0  0  0  3  0  0  0  0  0  0
  185.0280  177.4880  145.1400 O   0  0  0  0  0  1  0  0  0  0  0  0
  184.1510  178.4330  140.4850 C   0  0  0  0  0  1  0  0  0  0  0  0
  186.4500  177.6570  141.1200 C   0  0  0  0  0  2  0  0  0  0  0  0
  185.5020  177.6480  143.8430 C   0  0  0  0  0  0  0  0  0  0  0  0
  186.9530  177.5700  143.5550 C   0  0  0  0  0  0  0  0  0  0  0  0
  184.6390  177.9040  142.8600 C   0  0  0  0  0  3  0  0  0  0  0  0
  1 14  1  0  0  0  0
  2  3  1  0  0  0  0
  2 13  1  0  0  0  0
  3 19  1  0  0  0  0
  4 15  2  0  0  0  0
  5  2  1  0  0  0  0
  6 17  1  0  0  0  0
  6  1  2  0  0  0  0
  7  4  1  0  0  0  0
  7  3  2  0  0  0  0
  8 21  1  1  0  0  0
  8 13  1  0  0  0  0
  9  1  1  0  0  0  0
 10 18  1  0  0  0  0
 11  4  1  0  0  0  0
 12  8  1  0  0  0  0
 13 18  1  1  0  0  0
 14  5  2  0  0  0  0
 15 20  1  0  0  0  0
 16 12  1  0  0  0  0
 16  5  1  0  0  0  0
 17 16  2  0  0  0  0
 19 20  2  0  0  0  0
 19 10  1  0  0  0  0
 23 22  1  6  0  0  0
 23 21  1  0  0  0  0
 24 31  1  0  0  0  0
 25 30  2  0  0  0  0
 27 24  1  0  0  0  0
 28 24  1  0  0  0  0
 28 25  1  0  0  0  0
 29 26  1  0  0  0  0
 30 29  1  0  0  0  0
 30 23  1  0  0  0  0
 31 29  2  0  0  0  0
M  END
>  <MODEL>
1

>  <REMARK>
 VINA RESULT:      -8.1      0.000      0.000
  Name = 
  3 active torsions:
  status: ('A' for Active; 'I' for Inactive)
    1  A    between atoms: C_5  and  O_16
    2  A    between atoms: C_5  and  C_30
    3  A    between atoms: C_10  and  O_16
                            x       y       z     vdW  Elec       q    Type
                         _______ _______ _______ _____ _____    ______ ____

>  <TORSDO>
F 3

$$$$
=
 OpenBabel11112416503D

 31 35  0  0  1  0  0  0  0  0999 V2000
  187.3620  176.8030  141.0000 C   0  0  0  0  0  0  0  0  0  0  0  0
  188.5930  177.1090  144.5310 N   0  0  0  0  0  0  0  0  0  0  0  0
  187.5300  177.6160  145.3760 C   0  0  0  0  0  0  0  0  0  0  0  0
  185.2670  178.4530  145.6900 C   0  0  0  0  0  0  0  0  0  0  0  0
  188.3300  176.6120  143.2020 C   0  0  0  0  0  0  0  0  0  0  0  0
  187.8980  175.5970  140.6650 N   0  0  0  0  0  0  0  0  0  0  0  0
  186.3000  178.0380  144.8470 C   0  0  0  0  0  3  0  0  0  0  0  0
  189.8530  175.0920  145.0870 C   0  0  2  0  0  3  0  0  0  0  0  0
  186.4090  177.6910  139.8320 Cl  0  0  0  0  0  0  0  0  0  0  0  0
  188.9180  177.2040  147.3160 O   0  0  0  0  0  0  0  0  0  0  0  0
  183.7430  178.9780  145.0110 Cl  0  0  0  0  0  0  0  0  0  0  0  0
  189.6710  174.6550  143.7360 O   0  0  0  0  0  0  0  0  0  0  0  0
  189.8460  176.6220  145.1330 C   0  0  2  0  0  3  0  0  0  0  0  0
  187.5720  177.3350  142.2740 C   0  0  0  0  0  3  0  0  0  0  0  0
  185.4470  178.4340  147.0750 C   0  0  0  0  0  3  0  0  0  0  0  0
  188.8790  175.3730  142.8280 C   0  0  0  0  0  0  0  0  0  0  0  0
  188.6470  174.8790  141.5440 C   0  0  0  0  0  3  0  0  0  0  0  0
  190.1030  177.1960  146.5300 C   0  0  0  0  0  2  0  0  0  0  0  0
  187.7040  177.6180  146.7720 C   0  0  0  0  0  0  0  0  0  0  0  0
  186.6630  178.0150  147.6160 C   0  0  0  0  0  3  0  0  0  0  0  0
  191.0590  174.5890  145.5850 O   0  0  0  0  0  0  0  0  0  0  0  0
  192.8220  175.2790  144.1250 C   0  0  0  0  0  1  0  0  0  0  0  0
  191.7930  174.2130  144.4540 C   0  0  1  0  0  3  0  0  0  0  0  0
  193.8940  170.4860  144.7280 N   0  0  0  0  0  0  0  0  0  0  0  0
  193.6270  172.8600  145.3100 C   0  0  0  0  0  3  0  0  0  0  0  0
  190.6140  171.6320  143.5440 O   0  0  0  0  0  1  0  0  0  0  0  0
  194.6730  169.2650  144.6620 C   0  0  0  0  0  1  0  0  0  0  0  0
  194.3570  171.5740  145.5910 C   0  0  0  0  0  2  0  0  0  0  0  0
  191.8790  171.6350  144.1180 C   0  0  0  0  0  0  0  0  0  0  0  0
  192.4550  172.8850  144.6680 C   0  0  0  0  0  0  0  0  0  0  0  0
  192.5880  170.5070  144.1410 C   0  0  0  0  0  3  0  0  0  0  0  0
  1 14  1  0  0  0  0
  2 13  1  0  0  0  0
  2  3  1  0  0  0  0
  3 19  1  0  0  0  0
  4 15  2  0  0  0  0
  5  2  1  0  0  0  0
  6  1  2  0  0  0  0
  6 17  1  0  0  0  0
  7  3  2  0  0  0  0
  7  4  1  0  0  0  0
  8 13  1  0  0  0  0
  8 21  1  6  0  0  0
  9  1  1  0  0  0  0
 11  4  1  0  0  0  0
 12  8  1  0  0  0  0
 13 18  1  1  0  0  0
 14  5  2  0  0  0  0
 15 20  1  0  0  0  0
 16  5  1  0  0  0  0
 16 12  1  0  0  0  0
 17 16  2  0  0  0  0
 18 10  1  0  0  0  0
 19 10  1  0  0  0  0
 19 20  2  0  0  0  0
 23 22  1  1  0  0  0
 23 30  1  0  0  0  0
 23 21  1  0  0  0  0
 24 28  1  0  0  0  0
 25 28  1  0  0  0  0
 26 29  1  0  0  0  0
 27 24  1  0  0  0  0
 29 31  2  0  0  0  0
 29 30  1  0  0  0  0
 30 25  2  0  0  0  0
 31 24  1  0  0  0  0
M  END
>  <MODEL>
2

>  <REMARK>
 VINA RESULT:      -7.8      3.714      7.528
  Name = 
  3 active torsions:
  status: ('A' for Active; 'I' for Inactive)
    1  A    between atoms: C_5  and  O_16
    2  A    between atoms: C_5  and  C_30
    3  A    between atoms: C_10  and  O_16
                            x       y       z     vdW  Elec       q    Type
                         _______ _______ _______ _____ _____    ______ ____

>  <TORSDO>
F 3

$$$$
=
 OpenBabel11112416503D

 31 35  0  0  1  0  0  0  0  0999 V2000
  187.2140  177.1930  146.9320 C   0  0  0  0  0  0  0  0  0  0  0  0
  187.6430  176.2830  143.3170 N   0  0  0  0  0  0  0  0  0  0  0  0
  186.5970  176.9050  142.5300 C   0  0  0  0  0  0  0  0  0  0  0  0
  184.5870  178.2630  142.3420 C   0  0  0  0  0  0  0  0  0  0  0  0
  187.9080  176.6880  144.6760 C   0  0  0  0  0  0  0  0  0  0  0  0
  188.5090  177.4440  147.2700 N   0  0  0  0  0  0  0  0  0  0  0  0
  185.5410  177.6100  143.1270 C   0  0  0  0  0  3  0  0  0  0  0  0
  190.0080  176.4910  142.7440 C   0  0  2  0  0  3  0  0  0  0  0  0
  185.9510  177.3540  148.1320 Cl  0  0  0  0  0  0  0  0  0  0  0  0
  187.7200  176.1710  140.5150 O   0  0  0  0  0  0  0  0  0  0  0  0
  183.2760  179.1340  143.1050 Cl  0  0  0  0  0  0  0  0  0  0  0  0
  190.2730  176.7940  144.1180 O   0  0  0  0  0  0  0  0  0  0  0  0
  188.7650  175.6020  142.6490 C   0  0  2  0  0  3  0  0  0  0  0  0
  186.8900  176.8060  145.6290 C   0  0  0  0  0  3  0  0  0  0  0  0
  184.6890  178.2310  140.9500 C   0  0  0  0  0  3  0  0  0  0  0  0
  189.2380  176.9440  145.0530 C   0  0  0  0  0  0  0  0  0  0  0  0
  189.5180  177.3250  146.3660 C   0  0  0  0  0  3  0  0  0  0  0  0
  188.4340  175.1620  141.2190 C   0  0  0  0  0  2  0  0  0  0  0  0
  186.6800  176.8670  141.1260 C   0  0  0  0  0  0  0  0  0  0  0  0
  185.7360  177.5370  140.3420 C   0  0  0  0  0  3  0  0  0  0  0  0
  191.1170  175.8500  142.1830 O   0  0  0  0  0  0  0  0  0  0  0  0
  191.7980  173.8690  143.3340 C   0  0  0  0  0  1  0  0  0  0  0  0
  191.8610  175.3840  143.2730 C   0  0  1  0  0  3  0  0  0  0  0  0
  196.0350  176.3390  143.0650 N   0  0  0  0  0  0  0  0  0  0  0  0
  193.8830  175.8290  141.9920 C   0  0  0  0  0  3  0  0  0  0  0  0
  193.3980  176.3890  145.6200 O   0  0  0  0  0  1  0  0  0  0  0  0
  197.4760  176.4930  143.0330 C   0  0  0  0  0  1  0  0  0  0  0  0
  195.2990  176.3000  141.8010 C   0  0  0  0  0  2  0  0  0  0  0  0
  194.0390  176.2570  144.3940 C   0  0  0  0  0  0  0  0  0  0  0  0
  193.2820  175.8530  143.1860 C   0  0  0  0  0  0  0  0  0  0  0  0
  195.3530  176.4680  144.3180 C   0  0  0  0  0  3  0  0  0  0  0  0
  1  6  1  0  0  0  0
  1  9  1  0  0  0  0
  2  5  1  0  0  0  0
  3  7  1  0  0  0  0
  3  2  1  0  0  0  0
  4 11  1  0  0  0  0
  4  7  2  0  0  0  0
  5 16  2  0  0  0  0
  5 14  1  0  0  0  0
  8 21  1  1  0  0  0
  8 12  1  0  0  0  0
 10 19  1  0  0  0  0
 10 18  1  0  0  0  0
 12 16  1  0  0  0  0
 13 18  1  6  0  0  0
 13  8  1  0  0  0  0
 13  2  1  0  0  0  0
 14  1  2  0  0  0  0
 15  4  1  0  0  0  0
 16 17  1  0  0  0  0
 17  6  2  0  0  0  0
 19  3  2  0  0  0  0
 20 15  2  0  0  0  0
 20 19  1  0  0  0  0
 21 23  1  0  0  0  0
 23 22  1  6  0  0  0
 24 31  1  0  0  0  0
 25 30  2  0  0  0  0
 27 24  1  0  0  0  0
 28 25  1  0  0  0  0
 28 24  1  0  0  0  0
 29 26  1  0  0  0  0
 30 23  1  0  0  0  0
 30 29  1  0  0  0  0
 31 29  2  0  0  0  0
M  END
>  <MODEL>
3

>  <REMARK>
 VINA RESULT:      -7.8      4.024      8.168
  Name = 
  3 active torsions:
  status: ('A' for Active; 'I' for Inactive)
    1  A    between atoms: C_5  and  O_16
    2  A    between atoms: C_5  and  C_30
    3  A    between atoms: C_10  and  O_16
                            x       y       z     vdW  Elec       q    Type
                         _______ _______ _______ _____ _____    ______ ____

>  <TORSDO>
F 3

$$$$
=
 OpenBabel11112416503D

 31 35  0  0  1  0  0  0  0  0999 V2000
  186.1430  177.7820  140.9000 C   0  0  0  0  0  0  0  0  0  0  0  0
  188.3640  177.7040  143.9230 N   0  0  0  0  0  0  0  0  0  0  0  0
  187.5640  177.8630  145.1210 C   0  0  0  0  0  0  0  0  0  0  0  0
  185.4270  178.2150  146.2300 C   0  0  0  0  0  0  0  0  0  0  0  0
  187.7630  177.3990  142.6470 C   0  0  0  0  0  0  0  0  0  0  0  0
  186.6890  176.7660  140.1770 N   0  0  0  0  0  0  0  0  0  0  0  0
  186.1890  178.1400  145.0620 C   0  0  0  0  0  3  0  0  0  0  0  0
  189.9680  175.8810  143.6560 C   0  0  2  0  0  3  0  0  0  0  0  0
  184.7740  178.6680  140.2660 Cl  0  0  0  0  0  0  0  0  0  0  0  0
  189.5250  177.3860  146.4570 O   0  0  0  0  0  0  0  0  0  0  0  0
  183.7160  178.5650  146.1360 Cl  0  0  0  0  0  0  0  0  0  0  0  0
  189.4290  175.6520  142.3500 O   0  0  0  0  0  0  0  0  0  0  0  0
  189.7920  177.3560  144.0290 C   0  0  2  0  0  3  0  0  0  0  0  0
  186.6730  178.1200  142.1470 C   0  0  0  0  0  3  0  0  0  0  0  0
  186.0290  177.9960  147.4710 C   0  0  0  0  0  3  0  0  0  0  0  0
  188.3140  176.3600  141.8770 C   0  0  0  0  0  0  0  0  0  0  0  0
  187.7560  176.0560  140.6350 C   0  0  0  0  0  3  0  0  0  0  0  0
  190.3990  177.7220  145.3870 C   0  0  0  0  0  2  0  0  0  0  0  0
  188.1620  177.6600  146.3780 C   0  0  0  0  0  0  0  0  0  0  0  0
  187.3950  177.7160  147.5450 C   0  0  0  0  0  3  0  0  0  0  0  0
  191.3200  175.5270  143.6750 O   0  0  0  0  0  0  0  0  0  0  0  0
  190.5550  173.6900  144.9990 C   0  0  0  0  0  1  0  0  0  0  0  0
  191.5090  174.8660  144.8940 C   0  0  1  0  0  3  0  0  0  0  0  0
  195.4990  173.5240  145.7020 N   0  0  0  0  0  0  0  0  0  0  0  0
  193.1800  173.0990  145.0070 C   0  0  0  0  0  3  0  0  0  0  0  0
  193.8000  176.7430  145.2230 O   0  0  0  0  0  1  0  0  0  0  0  0
  196.8040  173.0750  146.1460 C   0  0  0  0  0  1  0  0  0  0  0  0
  194.5750  172.5480  145.1220 C   0  0  0  0  0  2  0  0  0  0  0  0
  194.0280  175.3740  145.2930 C   0  0  0  0  0  0  0  0  0  0  0  0
  192.9300  174.4120  145.0390 C   0  0  0  0  0  0  0  0  0  0  0  0
  195.2400  174.9300  145.6240 C   0  0  0  0  0  3  0  0  0  0  0  0
  1 14  1  0  0  0  0
  2 13  1  0  0  0  0
  2  3  1  0  0  0  0
  3 19  1  0  0  0  0
  4 15  2  0  0  0  0
  5  2  1  0  0  0  0
  6 17  1  0  0  0  0
  6  1  2  0  0  0  0
  7  3  2  0  0  0  0
  7  4  1  0  0  0  0
  8 21  1  6  0  0  0
  8 13  1  0  0  0  0
  9  1  1  0  0  0  0
 11  4  1  0  0  0  0
 12  8  1  0  0  0  0
 13 18  1  1  0  0  0
 14  5  2  0  0  0  0
 15 20  1  0  0  0  0
 16 12  1  0  0  0  0
 16  5  1  0  0  0  0
 17 16  2  0  0  0  0
 18 10  1  0  0  0  0
 19 10  1  0  0  0  0
 19 20  2  0  0  0  0
 21 23  1  0  0  0  0
 23 22  1  6  0  0  0
 23 30  1  0  0  0  0
 24 27  1  0  0  0  0
 25 30  2  0  0  0  0
 25 28  1  0  0  0  0
 26 29  1  0  0  0  0
 28 24  1  0  0  0  0
 29 31  2  0  0  0  0
 30 29  1  0  0  0  0
 31 24  1  0  0  0  0
M  END
>  <MODEL>
4

>  <REMARK>
 VINA RESULT:      -7.7      3.925      7.774
  Name = 
  3 active torsions:
  status: ('A' for Active; 'I' for Inactive)
    1  A    between atoms: C_5  and  O_16
    2  A    between atoms: C_5  and  C_30
    3  A    between atoms: C_10  and  O_16
                            x       y       z     vdW  Elec       q    Type
                         _______ _______ _______ _____ _____    ______ ____

>  <TORSDO>
F 3

$$$$
=
 OpenBabel11112416503D

 31 35  0  0  1  0  0  0  0  0999 V2000
  185.3640  177.8890  146.5650 C   0  0  0  0  0  0  0  0  0  0  0  0
  187.5780  176.0210  144.1800 N   0  0  0  0  0  0  0  0  0  0  0  0
  187.2360  176.3760  142.8160 C   0  0  0  0  0  0  0  0  0  0  0  0
  185.8710  177.5810  141.2020 C   0  0  0  0  0  0  0  0  0  0  0  0
  187.1050  176.7930  145.3030 C   0  0  0  0  0  0  0  0  0  0  0  0
  186.2800  178.2530  147.5030 N   0  0  0  0  0  0  0  0  0  0  0  0
  186.1350  177.1940  142.5180 C   0  0  0  0  0  3  0  0  0  0  0  0
  189.8700  176.1170  145.0170 C   0  0  2  0  0  3  0  0  0  0  0  0
  183.6860  178.3470  146.7560 Cl  0  0  0  0  0  0  0  0  0  0  0  0
  189.1660  175.1380  142.0420 O   0  0  0  0  0  0  0  0  0  0  0  0
  184.4930  178.5980  140.8500 Cl  0  0  0  0  0  0  0  0  0  0  0  0
  189.3750  176.7960  146.1770 O   0  0  0  0  0  0  0  0  0  0  0  0
  188.7750  175.2080  144.4530 C   0  0  2  0  0  3  0  0  0  0  0  0
  185.7590  177.1480  145.4480 C   0  0  0  0  0  3  0  0  0  0  0  0
  186.7160  177.1660  140.1700 C   0  0  0  0  0  3  0  0  0  0  0  0
  188.0290  177.1750  146.2910 C   0  0  0  0  0  0  0  0  0  0  0  0
  187.5920  177.9120  147.3920 C   0  0  0  0  0  3  0  0  0  0  0  0
  189.2270  174.3810  143.2440 C   0  0  0  0  0  2  0  0  0  0  0  0
  188.0700  175.9510  141.7660 C   0  0  0  0  0  0  0  0  0  0  0  0
  187.8160  176.3550  140.4520 C   0  0  0  0  0  3  0  0  0  0  0  0
  191.0030  175.3710  145.3580 O   0  0  0  0  0  0  0  0  0  0  0  0
  192.1230  176.4180  147.1910 C   0  0  0  0  0  1  0  0  0  0  0  0
  191.9800  176.3180  145.6840 C   0  0  1  0  0  3  0  0  0  0  0  0
  195.8510  175.6940  143.9520 N   0  0  0  0  0  0  0  0  0  0  0  0
  194.2820  175.5410  145.8380 C   0  0  0  0  0  3  0  0  0  0  0  0
  192.4780  176.5040  142.7510 O   0  0  0  0  0  1  0  0  0  0  0  0
  197.1890  175.6550  143.3940 C   0  0  0  0  0  1  0  0  0  0  0  0
  195.6270  175.1460  145.2900 C   0  0  0  0  0  2  0  0  0  0  0  0
  193.5260  176.1640  143.5980 C   0  0  0  0  0  0  0  0  0  0  0  0
  193.2920  175.9680  145.0480 C   0  0  0  0  0  0  0  0  0  0  0  0
  194.7560  176.0440  143.0990 C   0  0  0  0  0  3  0  0  0  0  0  0
  1  9  1  0  0  0  0
  1  6  1  0  0  0  0
  2 13  1  0  0  0  0
  2  5  1  0  0  0  0
  3  2  1  0  0  0  0
  4  7  2  0  0  0  0
  5 14  1  0  0  0  0
  5 16  2  0  0  0  0
  7  3  1  0  0  0  0
  8 21  1  1  0  0  0
  8 12  1  0  0  0  0
 10 18  1  0  0  0  0
 11  4  1  0  0  0  0
 12 16  1  0  0  0  0
 13 18  1  6  0  0  0
 13  8  1  0  0  0  0
 14  1  2  0  0  0  0
 15 20  2  0  0  0  0
 15  4  1  0  0  0  0
 16 17  1  0  0  0  0
 17  6  2  0  0  0  0
 19 10  1  0  0  0  0
 19  3  2  0  0  0  0
 20 19  1  0  0  0  0
 21 23  1  0  0  0  0
 23 22  1  1  0  0  0
 24 28  1  0  0  0  0
 26 29  1  0  0  0  0
 27 24  1  0  0  0  0
 28 25  1  0  0  0  0
 29 30  1  0  0  0  0
 30 23  1  0  0  0  0
 30 25  2  0  0  0  0
 31 29  2  0  0  0  0
 31 24  1  0  0  0  0
M  END
>  <MODEL>
5

>  <REMARK>
 VINA RESULT:      -7.6      3.926      8.021
  Name = 
  3 active torsions:
  status: ('A' for Active; 'I' for Inactive)
    1  A    between atoms: C_5  and  O_16
    2  A    between atoms: C_5  and  C_30
    3  A    between atoms: C_10  and  O_16
                            x       y       z     vdW  Elec       q    Type
                         _______ _______ _______ _____ _____    ______ ____

>  <TORSDO>
F 3

$$$$
=
 OpenBabel11112416503D

 31 35  0  0  1  0  0  0  0  0999 V2000
  186.0200  178.8400  143.0000 C   0  0  0  0  0  0  0  0  0  0  0  0
  188.8420  176.3840  143.2890 N   0  0  0  0  0  0  0  0  0  0  0  0
  188.9000  175.8640  144.6410 C   0  0  0  0  0  0  0  0  0  0  0  0
  188.1010  175.7950  146.9380 C   0  0  0  0  0  0  0  0  0  0  0  0
  187.6920  177.1100  142.8080 C   0  0  0  0  0  0  0  0  0  0  0  0
  185.5040  178.4690  141.7970 N   0  0  0  0  0  0  0  0  0  0  0  0
  188.0770  176.3630  145.6630 C   0  0  0  0  0  3  0  0  0  0  0  0
  188.8000  174.9260  141.3300 C   0  0  2  0  0  3  0  0  0  0  0  0
  185.2970  180.1610  143.8920 Cl  0  0  0  0  0  0  0  0  0  0  0  0
  190.5750  174.2710  143.9240 O   0  0  0  0  0  0  0  0  0  0  0  0
  187.0700  176.4330  148.1990 Cl  0  0  0  0  0  0  0  0  0  0  0  0
  187.7230  175.7160  140.8150 O   0  0  0  0  0  0  0  0  0  0  0  0
  189.6820  175.7920  142.2340 C   0  0  2  0  0  3  0  0  0  0  0  0
  187.1270  178.1700  143.5260 C   0  0  0  0  0  3  0  0  0  0  0  0
  188.9370  174.7080  147.2020 C   0  0  0  0  0  3  0  0  0  0  0  0
  187.1450  176.7530  141.5630 C   0  0  0  0  0  0  0  0  0  0  0  0
  186.0410  177.4500  141.0730 C   0  0  0  0  0  3  0  0  0  0  0  0
  190.9070  175.0550  142.7850 C   0  0  0  0  0  2  0  0  0  0  0  0
  189.7500  174.7800  144.9240 C   0  0  0  0  0  0  0  0  0  0  0  0
  189.7590  174.1980  146.1950 C   0  0  0  0  0  3  0  0  0  0  0  0
  189.5460  174.4010  140.2710 O   0  0  0  0  0  0  0  0  0  0  0  0
  188.5660  172.9490  138.6450 C   0  0  0  0  0  1  0  0  0  0  0  0
  189.0450  173.1080  140.0750 C   0  0  1  0  0  3  0  0  0  0  0  0
  191.7760  169.8950  140.8450 N   0  0  0  0  0  0  0  0  0  0  0  0
  190.9900  171.7740  139.4690 C   0  0  0  0  0  3  0  0  0  0  0  0
  189.2090  171.7360  142.7160 O   0  0  0  0  0  1  0  0  0  0  0  0
  192.5740  168.7010  141.0440 C   0  0  0  0  0  1  0  0  0  0  0  0
  192.0840  170.7710  139.7140 C   0  0  0  0  0  2  0  0  0  0  0  0
  190.0740  171.3540  141.6970 C   0  0  0  0  0  0  0  0  0  0  0  0
  190.0850  172.0800  140.4050 C   0  0  0  0  0  0  0  0  0  0  0  0
  190.8760  170.3060  141.8800 C   0  0  0  0  0  3  0  0  0  0  0  0
  1 14  1  0  0  0  0
  1  9  1  0  0  0  0
  2  3  1  0  0  0  0
  3 19  2  0  0  0  0
  3  7  1  0  0  0  0
  4 15  1  0  0  0  0
  4 11  1  0  0  0  0
  5  2  1  0  0  0  0
  5 14  2  0  0  0  0
  6  1  2  0  0  0  0
  7  4  2  0  0  0  0
  8 21  1  6  0  0  0
  8 13  1  0  0  0  0
 10 19  1  0  0  0  0
 12  8  1  0  0  0  0
 12 16  1  0  0  0  0
 13 18  1  1  0  0  0
 13  2  1  0  0  0  0
 16  5  1  0  0  0  0
 17 16  2  0  0  0  0
 17  6  1  0  0  0  0
 18 10  1  0  0  0  0
 19 20  1  0  0  0  0
 20 15  2  0  0  0  0
 23 22  1  6  0  0  0
 23 21  1  0  0  0  0
 23 30  1  0  0  0  0
 24 27  1  0  0  0  0
 24 31  1  0  0  0  0
 25 28  1  0  0  0  0
 25 30  2  0  0  0  0
 28 24  1  0  0  0  0
 29 31  2  0  0  0  0
 29 26  1  0  0  0  0
 30 29  1  0  0  0  0
M  END
>  <MODEL>
6

>  <REMARK>
 VINA RESULT:      -7.4      3.694      7.195
  Name = 
  3 active torsions:
  status: ('A' for Active; 'I' for Inactive)
    1  A    between atoms: C_5  and  O_16
    2  A    between atoms: C_5  and  C_30
    3  A    between atoms: C_10  and  O_16
                            x       y       z     vdW  Elec       q    Type
                         _______ _______ _______ _____ _____    ______ ____

>  <TORSDO>
F 3

$$$$
=
 OpenBabel11112416503D

 31 35  0  0  1  0  0  0  0  0999 V2000
  186.1120  177.3880  142.8590 C   0  0  0  0  0  0  0  0  0  0  0  0
  188.5670  174.5600  143.0960 N   0  0  0  0  0  0  0  0  0  0  0  0
  188.9010  174.0910  141.7650 C   0  0  0  0  0  0  0  0  0  0  0  0
  188.6420  174.1660  139.3480 C   0  0  0  0  0  0  0  0  0  0  0  0
  187.8880  175.8150  143.3060 C   0  0  0  0  0  0  0  0  0  0  0  0
  186.6320  178.2320  143.7920 N   0  0  0  0  0  0  0  0  0  0  0  0
  188.2500  174.5810  140.6220 C   0  0  0  0  0  3  0  0  0  0  0  0
  190.2760  175.1560  144.7360 C   0  0  2  0  0  3  0  0  0  0  0  0
  184.6680  177.8380  141.9800 Cl  0  0  0  0  0  0  0  0  0  0  0  0
  190.6120  172.6750  142.7270 O   0  0  0  0  0  0  0  0  0  0  0  0
  187.8170  174.7860  137.9350 Cl  0  0  0  0  0  0  0  0  0  0  0  0
  189.5390  176.3530  145.0090 O   0  0  0  0  0  0  0  0  0  0  0  0
  189.3150  174.0620  144.2630 C   0  0  2  0  0  3  0  0  0  0  0  0
  186.7290  176.1610  142.6020 C   0  0  0  0  0  3  0  0  0  0  0  0
  189.7010  173.2670  139.2010 C   0  0  0  0  0  3  0  0  0  0  0  0
  188.3990  176.7020  144.2700 C   0  0  0  0  0  0  0  0  0  0  0  0
  187.7510  177.9160  144.4980 C   0  0  0  0  0  3  0  0  0  0  0  0
  189.9970  172.7140  144.0090 C   0  0  0  0  0  2  0  0  0  0  0  0
  189.9550  173.1740  141.6050 C   0  0  0  0  0  0  0  0  0  0  0  0
  190.3590  172.7730  140.3280 C   0  0  0  0  0  3  0  0  0  0  0  0
  190.9550  174.7500  145.8890 O   0  0  0  0  0  0  0  0  0  0  0  0
  191.9890  176.2200  147.4640 C   0  0  0  0  0  1  0  0  0  0  0  0
  191.9930  175.6760  146.0480 C   0  0  1  0  0  3  0  0  0  0  0  0
  195.8490  173.8830  145.5110 N   0  0  0  0  0  0  0  0  0  0  0  0
  193.4070  173.7190  145.7350 C   0  0  0  0  0  3  0  0  0  0  0  0
  194.4180  177.2600  145.3450 O   0  0  0  0  0  1  0  0  0  0  0  0
  197.1750  173.2970  145.5030 C   0  0  0  0  0  1  0  0  0  0  0  0
  194.6860  173.0020  145.4000 C   0  0  0  0  0  2  0  0  0  0  0  0
  194.5200  175.8790  145.4680 C   0  0  0  0  0  0  0  0  0  0  0  0
  193.3160  175.0530  145.7210 C   0  0  0  0  0  0  0  0  0  0  0  0
  195.7190  175.3040  145.3880 C   0  0  0  0  0  3  0  0  0  0  0  0
  1  6  1  0  0  0  0
  2  5  1  0  0  0  0
  2 13  1  0  0  0  0
  3  2  1  0  0  0  0
  4  7  1  0  0  0  0
  5 16  2  0  0  0  0
  6 17  2  0  0  0  0
  7  3  2  0  0  0  0
  8 12  1  0  0  0  0
  8 21  1  1  0  0  0
  9  1  1  0  0  0  0
 10 18  1  0  0  0  0
 11  4  1  0  0  0  0
 13 18  1  6  0  0  0
 13  8  1  0  0  0  0
 14  1  2  0  0  0  0
 14  5  1  0  0  0  0
 15  4  2  0  0  0  0
 15 20  1  0  0  0  0
 16 17  1  0  0  0  0
 16 12  1  0  0  0  0
 19  3  1  0  0  0  0
 19 10  1  0  0  0  0
 20 19  2  0  0  0  0
 21 23  1  0  0  0  0
 23 22  1  1  0  0  0
 26 29  1  0  0  0  0
 27 24  1  0  0  0  0
 28 24  1  0  0  0  0
 28 25  1  0  0  0  0
 29 30  1  0  0  0  0
 30 25  2  0  0  0  0
 30 23  1  0  0  0  0
 31 29  2  0  0  0  0
 31 24  1  0  0  0  0
M  END
>  <MODEL>
7

>  <REMARK>
 VINA RESULT:      -7.4      3.242      7.670
  Name = 
  3 active torsions:
  status: ('A' for Active; 'I' for Inactive)
    1  A    between atoms: C_5  and  O_16
    2  A    between atoms: C_5  and  C_30
    3  A    between atoms: C_10  and  O_16
                            x       y       z     vdW  Elec       q    Type
                         _______ _______ _______ _____ _____    ______ ____

>  <TORSDO>
F 3

$$$$
=
 OpenBabel11112416503D

 31 35  0  0  1  0  0  0  0  0999 V2000
  192.0260  171.1440  143.1660 C   0  0  0  0  0  0  0  0  0  0  0  0
  192.9640  174.3380  144.8990 N   0  0  0  0  0  0  0  0  0  0  0  0
  194.2180  174.8330  144.3640 C   0  0  0  0  0  0  0  0  0  0  0  0
  196.1380  174.6260  142.8840 C   0  0  0  0  0  0  0  0  0  0  0  0
  192.2140  173.3030  144.2300 C   0  0  0  0  0  0  0  0  0  0  0  0
  190.6950  171.3570  142.9810 N   0  0  0  0  0  0  0  0  0  0  0  0
  194.9720  174.0940  143.4390 C   0  0  0  0  0  3  0  0  0  0  0  0
  190.9720  175.7400  145.0660 C   0  0  2  0  0  3  0  0  0  0  0  0
  192.7590  169.6550  142.6140 Cl  0  0  0  0  0  0  0  0  0  0  0  0
  193.9220  176.8690  145.6390 O   0  0  0  0  0  0  0  0  0  0  0  0
  197.0660  173.6880  141.7360 Cl  0  0  0  0  0  0  0  0  0  0  0  0
  190.2180  174.6660  144.4930 O   0  0  0  0  0  0  0  0  0  0  0  0
  192.1750  175.1710  145.8220 C   0  0  2  0  0  3  0  0  0  0  0  0
  192.8100  172.1120  143.7990 C   0  0  0  0  0  3  0  0  0  0  0  0
  196.5540  175.9120  143.2360 C   0  0  0  0  0  3  0  0  0  0  0  0
  190.8360  173.4930  144.0330 C   0  0  0  0  0  0  0  0  0  0  0  0
  190.0880  172.5000  143.4000 C   0  0  0  0  0  3  0  0  0  0  0  0
  193.0140  176.2380  146.5330 C   0  0  0  0  0  2  0  0  0  0  0  0
  194.6560  176.1200  144.7220 C   0  0  0  0  0  0  0  0  0  0  0  0
  195.8120  176.6600  144.1520 C   0  0  0  0  0  3  0  0  0  0  0  0
  190.1550  176.4810  145.9260 O   0  0  0  0  0  0  0  0  0  0  0  0
  188.9410  174.9160  147.2640 C   0  0  0  0  0  1  0  0  0  0  0  0
  188.9570  175.7610  146.0040 C   0  0  1  0  0  3  0  0  0  0  0  0
  185.3590  178.0830  145.8160 N   0  0  0  0  0  0  0  0  0  0  0  0
  187.0440  176.8140  147.0790 C   0  0  0  0  0  3  0  0  0  0  0  0
  188.1880  177.3410  143.5970 O   0  0  0  0  0  1  0  0  0  0  0  0
  184.0630  178.7210  145.6960 C   0  0  0  0  0  1  0  0  0  0  0  0
  185.8550  177.7340  147.1480 C   0  0  0  0  0  2  0  0  0  0  0  0
  187.3760  177.3810  144.7240 C   0  0  0  0  0  0  0  0  0  0  0  0
  187.7780  176.6860  145.9690 C   0  0  0  0  0  0  0  0  0  0  0  0
  186.2120  178.0280  144.6670 C   0  0  0  0  0  3  0  0  0  0  0  0
  1 14  1  0  0  0  0
  2 13  1  0  0  0  0
  3 19  1  0  0  0  0
  3  2  1  0  0  0  0
  4 15  2  0  0  0  0
  4  7  1  0  0  0  0
  5  2  1  0  0  0  0
  6  1  2  0  0  0  0
  6 17  1  0  0  0  0
  7  3  2  0  0  0  0
  8 13  1  0  0  0  0
  8 21  1  1  0  0  0
  9  1  1  0  0  0  0
 10 18  1  0  0  0  0
 11  4  1  0  0  0  0
 12  8  1  0  0  0  0
 13 18  1  6  0  0  0
 14  5  2  0  0  0  0
 15 20  1  0  0  0  0
 16  5  1  0  0  0  0
 16 12  1  0  0  0  0
 17 16  2  0  0  0  0
 19 10  1  0  0  0  0
 20 19  2  0  0  0  0
 21 23  1  0  0  0  0
 23 22  1  1  0  0  0
 24 28  1  0  0  0  0
 25 28  1  0  0  0  0
 26 29  1  0  0  0  0
 27 24  1  0  0  0  0
 29 30  1  0  0  0  0
 30 23  1  0  0  0  0
 30 25  2  0  0  0  0
 31 29  2  0  0  0  0
 31 24  1  0  0  0  0
M  END
>  <MODEL>
8

>  <REMARK>
 VINA RESULT:      -7.3      2.038      2.959
  Name = 
  3 active torsions:
  status: ('A' for Active; 'I' for Inactive)
    1  A    between atoms: C_5  and  O_16
    2  A    between atoms: C_5  and  C_30
    3  A    between atoms: C_10  and  O_16
                            x       y       z     vdW  Elec       q    Type
                         _______ _______ _______ _____ _____    ______ ____

>  <TORSDO>
F 3

$$$$
=
 OpenBabel11112416503D

 31 35  0  0  1  0  0  0  0  0999 V2000
  194.5810  175.4310  145.2870 C   0  0  0  0  0  0  0  0  0  0  0  0
  191.4460  176.0800  143.3310 N   0  0  0  0  0  0  0  0  0  0  0  0
  191.1910  174.9680  142.4360 C   0  0  0  0  0  0  0  0  0  0  0  0
  191.8010  172.8190  141.4720 C   0  0  0  0  0  0  0  0  0  0  0  0
  192.4020  175.9800  144.4060 C   0  0  0  0  0  0  0  0  0  0  0  0
  194.1820  175.8480  146.5200 N   0  0  0  0  0  0  0  0  0  0  0  0
  192.1050  173.9140  142.2850 C   0  0  0  0  0  3  0  0  0  0  0  0
  189.7470  176.9430  144.8580 C   0  0  2  0  0  3  0  0  0  0  0  0
  196.2030  174.8180  145.0540 Cl  0  0  0  0  0  0  0  0  0  0  0  0
  189.0420  175.9410  141.8910 O   0  0  0  0  0  0  0  0  0  0  0  0
  192.9540  171.5160  141.2940 Cl  0  0  0  0  0  0  0  0  0  0  0  0
  190.7340  176.9340  145.8960 O   0  0  0  0  0  0  0  0  0  0  0  0
  190.4340  177.1360  143.5030 C   0  0  2  0  0  3  0  0  0  0  0  0
  193.6990  175.4940  144.2060 C   0  0  0  0  0  3  0  0  0  0  0  0
  190.5700  172.7590  140.8150 C   0  0  0  0  0  3  0  0  0  0  0  0
  192.0190  176.4110  145.6880 C   0  0  0  0  0  0  0  0  0  0  0  0
  192.9310  176.3350  146.7400 C   0  0  0  0  0  3  0  0  0  0  0  0
  189.4570  177.2290  142.3270 C   0  0  0  0  0  2  0  0  0  0  0  0
  189.9620  174.9030  141.7550 C   0  0  0  0  0  0  0  0  0  0  0  0
  189.6500  173.7980  140.9570 C   0  0  0  0  0  3  0  0  0  0  0  0
  188.8270  177.9700  145.0940 O   0  0  0  0  0  0  0  0  0  0  0  0
  187.3940  177.4820  146.9430 C   0  0  0  0  0  1  0  0  0  0  0  0
  187.6400  177.3210  145.4550 C   0  0  1  0  0  3  0  0  0  0  0  0
  184.0890  178.6770  143.4740 N   0  0  0  0  0  0  0  0  0  0  0  0
  185.9720  179.0380  145.0110 C   0  0  0  0  0  3  0  0  0  0  0  0
  186.4420  175.8790  143.1380 O   0  0  0  0  0  1  0  0  0  0  0  0
  182.7980  179.0420  142.9240 C   0  0  0  0  0  1  0  0  0  0  0  0
  184.8250  179.6630  144.2650 C   0  0  0  0  0  2  0  0  0  0  0  0
  185.8580  177.0600  143.5790 C   0  0  0  0  0  0  0  0  0  0  0  0
  186.4830  177.8520  144.6640 C   0  0  0  0  0  0  0  0  0  0  0  0
  184.7090  177.4620  143.0360 C   0  0  0  0  0  3  0  0  0  0  0  0
  1  6  1  0  0  0  0
  2 13  1  0  0  0  0
  2  5  1  0  0  0  0
  3  2  1  0  0  0  0
  4  7  2  0  0  0  0
  5 16  2  0  0  0  0
  6 17  2  0  0  0  0
  7  3  1  0  0  0  0
  8 21  1  1  0  0  0
  8 12  1  0  0  0  0
  9  1  1  0  0  0  0
 10 18  1  0  0  0  0
 11  4  1  0  0  0  0
 13 18  1  6  0  0  0
 13  8  1  0  0  0  0
 14  5  1  0  0  0  0
 14  1  2  0  0  0  0
 15 20  2  0  0  0  0
 15  4  1  0  0  0  0
 16 12  1  0  0  0  0
 16 17  1  0  0  0  0
 19 10  1  0  0  0  0
 19  3  2  0  0  0  0
 20 19  1  0  0  0  0
 21 23  1  0  0  0  0
 23 22  1  1  0  0  0
 24 28  1  0  0  0  0
 26 29  1  0  0  0  0
 27 24  1  0  0  0  0
 28 25  1  0  0  0  0
 29 30  1  0  0  0  0
 30 25  2  0  0  0  0
 30 23  1  0  0  0  0
 31 24  1  0  0  0  0
 31 29  2  0  0  0  0
M  END
>  <MODEL>
9

>  <REMARK>
 VINA RESULT:      -7.3      2.115      4.420
  Name = 
  3 active torsions:
  status: ('A' for Active; 'I' for Inactive)
    1  A    between atoms: C_5  and  O_16
    2  A    between atoms: C_5  and  C_30
    3  A    between atoms: C_10  and  O_16
                            x       y       z     vdW  Elec       q    Type
                         _______ _______ _______ _____ _____    ______ ____

>  <TORSDO>
F 3

$$$$
