=
 OpenBabel11112416173D

 30 35  0  0  1  0  0  0  0  0999 V2000
  186.3510  177.0220  143.7940 C   0  0  2  0  0  3  0  0  0  0  0  0
  184.5830  178.3730  145.1700 C   0  0  1  0  0  3  0  0  0  0  0  0
  188.3020  175.9990  147.3300 N   0  0  0  0  0  0  0  0  0  0  0  0
  187.7240  176.3490  143.8520 C   0  0  0  0  0  0  0  0  0  0  0  0
  186.3110  177.8860  142.6860 O   0  0  0  0  0  0  0  0  0  0  0  0
  187.8300  175.7430  140.2030 O   0  0  0  0  0  1  0  0  0  0  0  0
  190.6440  176.6960  143.3530 C   0  0  1  0  0  3  0  0  0  0  0  0
  187.7740  176.5880  141.3130 C   0  0  1  0  0  3  0  0  0  0  0  0
  190.7180  176.3050  144.8370 C   0  0  2  0  0  3  0  0  0  0  0  0
  189.5000  175.4120  146.8260 C   0  0  0  0  0  0  0  0  0  0  0  0
  186.3360  177.0750  141.5420 C   0  0  2  0  0  3  0  0  0  0  0  0
  188.3150  175.8430  142.5420 C   0  0  1  0  0  3  0  0  0  0  0  0
  184.4400  179.1420  146.3460 O   0  0  0  0  0  0  0  0  0  0  0  0
  192.0730  175.6590  145.0200 C   0  0  0  0  0  2  0  0  0  0  0  0
  192.0840  176.7900  142.8720 C   0  0  0  0  0  2  0  0  0  0  0  0
  184.2400  179.2590  143.9850 C   0  0  0  0  0  1  0  0  0  0  0  0
  187.6280  176.3890  146.3030 C   0  0  0  0  0  0  0  0  0  0  0  0
  184.5020  178.2660  147.4460 C   0  0  0  0  0  2  0  0  0  0  0  0
  186.0220  177.8150  145.0900 C   0  0  1  0  0  3  0  0  0  0  0  0
  188.2660  176.0520  145.0440 C   0  0  0  0  0  0  0  0  0  0  0  0
  190.3810  174.9210  147.5810 O   0  0  0  0  0  0  0  0  0  0  0  0
  189.5790  175.4040  145.3290 C   0  0  1  0  0  3  0  0  0  0  0  0
  192.9720  176.3670  144.0300 C   0  0  0  0  0  2  0  0  0  0  0  0
  190.3000  174.2810  142.5240 C   0  0  0  0  0  1  0  0  0  0  0  0
  185.9190  177.7170  147.5980 C   0  0  0  0  0  2  0  0  0  0  0  0
  186.2420  176.9370  146.3310 C   0  0  2  0  0  3  0  0  0  0  0  0
  189.8470  175.7340  142.4490 C   0  0  2  0  0  3  0  0  0  0  0  0
  185.8420  177.8920  140.3580 C   0  0  0  0  0  2  0  0  0  0  0  0
  183.5230  177.6400  139.9060 O   0  0  0  0  0  1  0  0  0  0  0  0
  184.4400  178.4080  140.6210 C   0  0  0  0  0  2  0  0  0  0  0  0
  1  5  1  6  0  0  0
  1  4  1  0  0  0  0
  1 19  1  0  0  0  0
  2 16  1  6  0  0  0
  2 13  1  0  0  0  0
  4 20  2  0  0  0  0
  7 15  1  6  0  0  0
  7  9  1  0  0  0  0
  8  6  1  6  0  0  0
  8 11  1  0  0  0  0
  8 12  1  0  0  0  0
  9 14  1  6  0  0  0
  9 22  1  0  0  0  0
 10  3  1  0  0  0  0
 10 21  2  0  0  0  0
 11 28  1  6  0  0  0
 11  5  1  0  0  0  0
 12  4  1  1  0  0  0
 13 18  1  0  0  0  0
 15 23  1  0  0  0  0
 17 26  1  0  0  0  0
 17  3  2  0  0  0  0
 18 25  1  0  0  0  0
 19  2  1  0  0  0  0
 19 26  1  0  0  0  0
 20 22  1  0  0  0  0
 20 17  1  0  0  0  0
 22 10  1  0  0  0  0
 23 14  1  0  0  0  0
 26 25  1  0  0  0  0
 27 24  1  0  0  0  0
 27 12  1  0  0  0  0
 27  7  1  0  0  0  0
 28 30  1  0  0  0  0
 29 30  1  0  0  0  0
M  END
>  <MODEL>
1

>  <REMARK>
 VINA RESULT:      -9.1      0.000      0.000
  Name = 
  2 active torsions:
  status: ('A' for Active; 'I' for Inactive)
    1  A    between atoms: C_11  and  C_28
    2  A    between atoms: C_28  and  C_30
                            x       y       z     vdW  Elec       q    Type
                         _______ _______ _______ _____ _____    ______ ____

>  <TORSDO>
F 2

$$$$
=
 OpenBabel11112416173D

 30 35  0  0  1  0  0  0  0  0999 V2000
  187.9660  176.6980  145.1340 C   0  0  2  0  0  3  0  0  0  0  0  0
  185.9250  177.7530  146.3860 C   0  0  1  0  0  3  0  0  0  0  0  0
  186.1630  177.5790  141.4830 N   0  0  0  0  0  0  0  0  0  0  0  0
  188.4650  176.1800  143.7840 C   0  0  0  0  0  0  0  0  0  0  0  0
  188.2050  175.7230  146.1170 O   0  0  0  0  0  0  0  0  0  0  0  0
  191.5790  174.7870  145.2180 O   0  0  0  0  0  1  0  0  0  0  0  0
  188.7990  173.7690  142.0590 C   0  0  1  0  0  3  0  0  0  0  0  0
  190.1890  174.8480  145.1110 C   0  0  1  0  0  3  0  0  0  0  0  0
  187.9660  174.6230  141.0900 C   0  0  2  0  0  3  0  0  0  0  0  0
  187.0090  176.8730  140.5780 C   0  0  0  0  0  0  0  0  0  0  0  0
  189.5970  175.6490  146.2800 C   0  0  2  0  0  3  0  0  0  0  0  0
  189.8130  175.4700  143.7590 C   0  0  1  0  0  3  0  0  0  0  0  0
  184.5310  177.9460  146.2750 O   0  0  0  0  0  0  0  0  0  0  0  0
  188.3530  174.1570  139.7040 C   0  0  0  0  0  2  0  0  0  0  0  0
  189.1880  172.5180  141.2870 C   0  0  0  0  0  2  0  0  0  0  0  0
  186.1870  176.9350  147.6390 C   0  0  0  0  0  1  0  0  0  0  0  0
  186.6170  177.3430  142.6660 C   0  0  0  0  0  0  0  0  0  0  0  0
  184.3060  178.9100  145.2740 C   0  0  0  0  0  2  0  0  0  0  0  0
  186.4540  177.0600  145.1110 C   0  0  1  0  0  3  0  0  0  0  0  0
  187.8170  176.5280  142.6600 C   0  0  0  0  0  0  0  0  0  0  0  0
  186.8380  176.9010  139.3310 O   0  0  0  0  0  0  0  0  0  0  0  0
  188.1280  176.1390  141.2550 C   0  0  1  0  0  3  0  0  0  0  0  0
  188.6720  172.6880  139.8680 C   0  0  0  0  0  2  0  0  0  0  0  0
  191.0040  175.0110  141.5780 C   0  0  0  0  0  1  0  0  0  0  0  0
  184.6560  178.3330  143.9040 C   0  0  0  0  0  2  0  0  0  0  0  0
  186.1370  177.9830  143.9240 C   0  0  2  0  0  3  0  0  0  0  0  0
  190.0570  174.4500  142.6330 C   0  0  2  0  0  3  0  0  0  0  0  0
  189.8930  174.9730  147.6090 C   0  0  0  0  0  2  0  0  0  0  0  0
  191.1800  176.9290  148.0210 O   0  0  0  0  0  1  0  0  0  0  0  0
  191.1540  175.5510  148.2250 C   0  0  0  0  0  2  0  0  0  0  0  0
  1  4  1  6  0  0  0
  1  5  1  0  0  0  0
  2 16  1  1  0  0  0
  3 17  2  0  0  0  0
  5 11  1  0  0  0  0
  7 15  1  6  0  0  0
  7 27  1  0  0  0  0
  8  6  1  1  0  0  0
  8 11  1  0  0  0  0
  9 14  1  6  0  0  0
  9 22  1  0  0  0  0
  9  7  1  0  0  0  0
 10 22  1  0  0  0  0
 10  3  1  0  0  0  0
 11 28  1  1  0  0  0
 12  4  1  1  0  0  0
 12  8  1  0  0  0  0
 13  2  1  0  0  0  0
 14 23  1  0  0  0  0
 17 26  1  0  0  0  0
 18 13  1  0  0  0  0
 19  1  1  0  0  0  0
 19  2  1  0  0  0  0
 20 17  1  0  0  0  0
 20  4  2  0  0  0  0
 21 10  2  0  0  0  0
 22 20  1  0  0  0  0
 23 15  1  0  0  0  0
 24 27  1  0  0  0  0
 25 26  1  0  0  0  0
 25 18  1  0  0  0  0
 26 19  1  0  0  0  0
 27 12  1  0  0  0  0
 28 30  1  0  0  0  0
 29 30  1  0  0  0  0
M  END
>  <MODEL>
2

>  <REMARK>
 VINA RESULT:      -8.4      2.069      5.402
  Name = 
  2 active torsions:
  status: ('A' for Active; 'I' for Inactive)
    1  A    between atoms: C_11  and  C_28
    2  A    between atoms: C_28  and  C_30
                            x       y       z     vdW  Elec       q    Type
                         _______ _______ _______ _____ _____    ______ ____

>  <TORSDO>
F 2

$$$$
=
 OpenBabel11112416173D

 30 35  0  0  1  0  0  0  0  0999 V2000
  190.1820  174.9090  143.4760 C   0  0  2  0  0  3  0  0  0  0  0  0
  192.1440  173.2230  143.8670 C   0  0  1  0  0  3  0  0  0  0  0  0
  191.0750  176.7680  147.0960 N   0  0  0  0  0  0  0  0  0  0  0  0
  189.2910  175.9600  144.1430 C   0  0  0  0  0  0  0  0  0  0  0  0
  189.3690  173.9780  142.8060 O   0  0  0  0  0  0  0  0  0  0  0  0
  187.0510  176.2480  141.2120 O   0  0  0  0  0  1  0  0  0  0  0  0
  186.6920  176.4460  145.5230 C   0  0  1  0  0  3  0  0  0  0  0  0
  187.6330  175.5250  142.2550 C   0  0  1  0  0  3  0  0  0  0  0  0
  187.6280  176.9700  146.6220 C   0  0  2  0  0  3  0  0  0  0  0  0
  189.9540  177.6350  147.2470 C   0  0  0  0  0  0  0  0  0  0  0  0
  188.7840  174.6570  141.7260 C   0  0  2  0  0  3  0  0  0  0  0  0
  188.1170  176.5000  143.3370 C   0  0  1  0  0  3  0  0  0  0  0  0
  192.8460  172.5530  144.8910 O   0  0  0  0  0  0  0  0  0  0  0  0
  186.8240  177.9990  147.3840 C   0  0  0  0  0  2  0  0  0  0  0  0
  185.2780  176.7390  146.0010 C   0  0  0  0  0  2  0  0  0  0  0  0
  191.5110  172.1760  142.9680 C   0  0  0  0  0  1  0  0  0  0  0  0
  190.8810  176.1080  146.0060 C   0  0  0  0  0  0  0  0  0  0  0  0
  193.6390  173.5010  145.5650 C   0  0  0  0  0  2  0  0  0  0  0  0
  191.0970  174.1710  144.4930 C   0  0  1  0  0  3  0  0  0  0  0  0
  189.6730  176.5060  145.3090 C   0  0  0  0  0  0  0  0  0  0  0  0
  189.8380  178.4270  148.2190 O   0  0  0  0  0  0  0  0  0  0  0  0
  188.9640  177.5340  146.1250 C   0  0  1  0  0  3  0  0  0  0  0  0
  185.3970  177.5030  147.3080 C   0  0  0  0  0  2  0  0  0  0  0  0
  186.8710  178.5700  144.0760 C   0  0  0  0  0  1  0  0  0  0  0  0
  192.7510  174.4540  146.3620 C   0  0  0  0  0  2  0  0  0  0  0  0
  191.8580  175.1810  145.3670 C   0  0  2  0  0  3  0  0  0  0  0  0
  186.9110  177.0480  144.1200 C   0  0  2  0  0  3  0  0  0  0  0  0
  188.2790  173.6310  140.7260 C   0  0  0  0  0  2  0  0  0  0  0  0
  188.1720  173.4570  138.3580 O   0  0  0  0  0  1  0  0  0  0  0  0
  189.0290  173.7590  139.4140 C   0  0  0  0  0  2  0  0  0  0  0  0
  1  5  1  1  0  0  0
  1  4  1  0  0  0  0
  1 19  1  0  0  0  0
  2 16  1  6  0  0  0
  2 19  1  0  0  0  0
  2 13  1  0  0  0  0
  3 10  1  0  0  0  0
  4 20  2  0  0  0  0
  7 15  1  1  0  0  0
  7  9  1  0  0  0  0
  8  6  1  6  0  0  0
  8 12  1  0  0  0  0
  9 14  1  6  0  0  0
 10 21  2  0  0  0  0
 11 28  1  6  0  0  0
 11  8  1  0  0  0  0
 11  5  1  0  0  0  0
 12 27  1  0  0  0  0
 12  4  1  1  0  0  0
 13 18  1  0  0  0  0
 15 23  1  0  0  0  0
 17  3  2  0  0  0  0
 18 25  1  0  0  0  0
 19 26  1  0  0  0  0
 20 17  1  0  0  0  0
 20 22  1  0  0  0  0
 22  9  1  0  0  0  0
 22 10  1  0  0  0  0
 23 14  1  0  0  0  0
 24 27  1  0  0  0  0
 26 17  1  0  0  0  0
 26 25  1  0  0  0  0
 27  7  1  0  0  0  0
 29 30  1  0  0  0  0
 30 28  1  0  0  0  0
M  END
>  <MODEL>
3

>  <REMARK>
 VINA RESULT:      -8.2      2.304      5.806
  Name = 
  2 active torsions:
  status: ('A' for Active; 'I' for Inactive)
    1  A    between atoms: C_11  and  C_28
    2  A    between atoms: C_28  and  C_30
                            x       y       z     vdW  Elec       q    Type
                         _______ _______ _______ _____ _____    ______ ____

>  <TORSDO>
F 2

$$$$
=
 OpenBabel11112416173D

 30 35  0  0  1  0  0  0  0  0999 V2000
  188.3170  175.6780  143.1450 C   0  0  2  0  0  3  0  0  0  0  0  0
  186.2410  177.2350  142.8170 C   0  0  1  0  0  3  0  0  0  0  0  0
  188.9970  177.3930  146.8800 N   0  0  0  0  0  0  0  0  0  0  0  0
  189.5780  175.4430  143.9800 C   0  0  0  0  0  0  0  0  0  0  0  0
  188.6600  175.6640  141.7820 O   0  0  0  0  0  0  0  0  0  0  0  0
  190.8330  172.7750  141.7430 O   0  0  0  0  0  1  0  0  0  0  0  0
  192.5130  175.9410  144.1740 C   0  0  1  0  0  3  0  0  0  0  0  0
  190.4480  174.0930  141.9990 C   0  0  1  0  0  3  0  0  0  0  0  0
  192.0940  176.5540  145.5190 C   0  0  2  0  0  3  0  0  0  0  0  0
  190.2750  176.8520  147.2060 C   0  0  0  0  0  0  0  0  0  0  0  0
  189.0280  174.3460  141.4720 C   0  0  2  0  0  3  0  0  0  0  0  0
  190.5440  174.3640  143.5070 C   0  0  1  0  0  3  0  0  0  0  0  0
  185.7500  178.5180  143.1440 O   0  0  0  0  0  0  0  0  0  0  0  0
  193.2990  176.4150  146.4220 C   0  0  0  0  0  2  0  0  0  0  0  0
  194.0330  175.9840  144.1490 C   0  0  0  0  0  2  0  0  0  0  0  0
  186.3230  177.1360  141.3040 C   0  0  0  0  0  1  0  0  0  0  0  0
  188.7010  176.9470  145.7080 C   0  0  0  0  0  0  0  0  0  0  0  0
  185.4300  178.5210  144.5150 C   0  0  0  0  0  2  0  0  0  0  0  0
  187.6120  177.0180  143.4950 C   0  0  1  0  0  3  0  0  0  0  0  0
  189.6990  176.0380  145.1780 C   0  0  0  0  0  0  0  0  0  0  0  0
  190.8520  177.0930  148.2990 O   0  0  0  0  0  0  0  0  0  0  0  0
  190.8310  175.9500  146.1440 C   0  0  1  0  0  3  0  0  0  0  0  0
  194.4880  176.5240  145.4940 C   0  0  0  0  0  2  0  0  0  0  0  0
  192.3830  173.5090  145.0130 C   0  0  0  0  0  1  0  0  0  0  0  0
  186.7060  178.4480  145.3510 C   0  0  0  0  0  2  0  0  0  0  0  0
  187.3960  177.1350  145.0120 C   0  0  2  0  0  3  0  0  0  0  0  0
  192.0200  174.5030  143.9160 C   0  0  2  0  0  3  0  0  0  0  0  0
  188.9650  174.1680  139.9640 C   0  0  0  0  0  2  0  0  0  0  0  0
  189.0470  171.9950  139.0030 O   0  0  0  0  0  1  0  0  0  0  0  0
  188.1910  172.9110  139.6130 C   0  0  0  0  0  2  0  0  0  0  0  0
  1  5  1  6  0  0  0
  1 19  1  0  0  0  0
  1  4  1  0  0  0  0
  2 16  1  6  0  0  0
  2 13  1  0  0  0  0
  2 19  1  0  0  0  0
  3 10  1  0  0  0  0
  4 20  2  0  0  0  0
  7 15  1  1  0  0  0
  7  9  1  0  0  0  0
  8  6  1  1  0  0  0
  8 12  1  0  0  0  0
  9 22  1  0  0  0  0
  9 14  1  1  0  0  0
 10 21  2  0  0  0  0
 11 28  1  6  0  0  0
 11  5  1  0  0  0  0
 11  8  1  0  0  0  0
 12 27  1  0  0  0  0
 12  4  1  6  0  0  0
 13 18  1  0  0  0  0
 15 23  1  0  0  0  0
 17  3  2  0  0  0  0
 18 25  1  0  0  0  0
 19 26  1  0  0  0  0
 20 17  1  0  0  0  0
 20 22  1  0  0  0  0
 22 10  1  0  0  0  0
 23 14  1  0  0  0  0
 26 25  1  0  0  0  0
 26 17  1  0  0  0  0
 27  7  1  0  0  0  0
 27 24  1  0  0  0  0
 29 30  1  0  0  0  0
 30 28  1  0  0  0  0
M  END
>  <MODEL>
4

>  <REMARK>
 VINA RESULT:      -8.0      1.911      3.326
  Name = 
  2 active torsions:
  status: ('A' for Active; 'I' for Inactive)
    1  A    between atoms: C_11  and  C_28
    2  A    between atoms: C_28  and  C_30
                            x       y       z     vdW  Elec       q    Type
                         _______ _______ _______ _____ _____    ______ ____

>  <TORSDO>
F 2

$$$$
=
 OpenBabel11112416173D

 30 35  0  0  1  0  0  0  0  0999 V2000
  187.3450  175.8400  142.1210 C   0  0  2  0  0  3  0  0  0  0  0  0
  185.7970  177.2880  140.5860 C   0  0  1  0  0  3  0  0  0  0  0  0
  185.8910  177.8550  145.4650 N   0  0  0  0  0  0  0  0  0  0  0  0
  187.9440  175.7180  143.5230 C   0  0  0  0  0  0  0  0  0  0  0  0
  188.3760  175.7370  141.1710 O   0  0  0  0  0  0  0  0  0  0  0  0
  190.1920  172.9400  142.5630 O   0  0  0  0  0  1  0  0  0  0  0  0
  190.3010  176.3400  145.2420 C   0  0  1  0  0  3  0  0  0  0  0  0
  189.7420  174.2570  142.4560 C   0  0  1  0  0  3  0  0  0  0  0  0
  189.2210  177.0360  146.0840 C   0  0  2  0  0  3  0  0  0  0  0  0
  186.7800  177.3900  146.4770 C   0  0  0  0  0  0  0  0  0  0  0  0
  188.8410  174.4150  141.2230 C   0  0  2  0  0  3  0  0  0  0  0  0
  189.0010  174.6430  143.7440 C   0  0  1  0  0  3  0  0  0  0  0  0
  185.2180  178.5720  140.4850 O   0  0  0  0  0  0  0  0  0  0  0  0
  189.7370  177.0110  147.5060 C   0  0  0  0  0  2  0  0  0  0  0  0
  191.5890  176.4400  146.0440 C   0  0  0  0  0  2  0  0  0  0  0  0
  186.6910  177.0790  139.3760 C   0  0  0  0  0  1  0  0  0  0  0  0
  186.2790  177.3120  144.3620 C   0  0  0  0  0  0  0  0  0  0  0  0
  184.2020  178.6650  141.4540 C   0  0  0  0  0  2  0  0  0  0  0  0
  186.5740  177.1750  141.9160 C   0  0  1  0  0  3  0  0  0  0  0  0
  187.3960  176.4040  144.5390 C   0  0  0  0  0  0  0  0  0  0  0  0
  186.6690  177.7330  147.6840 O   0  0  0  0  0  0  0  0  0  0  0  0
  187.8170  176.4330  145.9690 C   0  0  1  0  0  3  0  0  0  0  0  0
  191.2410  177.0960  147.3690 C   0  0  0  0  0  2  0  0  0  0  0  0
  189.7130  173.9740  146.0740 C   0  0  0  0  0  1  0  0  0  0  0  0
  184.8150  178.7040  142.8520 C   0  0  0  0  0  2  0  0  0  0  0  0
  185.5660  177.3960  143.0550 C   0  0  2  0  0  3  0  0  0  0  0  0
  190.0160  174.8690  144.8780 C   0  0  2  0  0  3  0  0  0  0  0  0
  189.6100  174.1220  139.9440 C   0  0  0  0  0  2  0  0  0  0  0  0
  187.8190  172.6660  139.3780 O   0  0  0  0  0  1  0  0  0  0  0  0
  188.6650  173.6430  138.8580 C   0  0  0  0  0  2  0  0  0  0  0  0
  1  5  1  6  0  0  0
  1  4  1  0  0  0  0
  2 16  1  6  0  0  0
  2 19  1  0  0  0  0
  3 10  1  0  0  0  0
  4 20  2  0  0  0  0
  5 11  1  0  0  0  0
  7 15  1  1  0  0  0
  7  9  1  0  0  0  0
  8  6  1  1  0  0  0
  8 12  1  0  0  0  0
  9 14  1  1  0  0  0
 10 21  2  0  0  0  0
 11 28  1  6  0  0  0
 11  8  1  0  0  0  0
 12  4  1  6  0  0  0
 12 27  1  0  0  0  0
 13  2  1  0  0  0  0
 13 18  1  0  0  0  0
 15 23  1  0  0  0  0
 17 20  1  0  0  0  0
 17  3  2  0  0  0  0
 18 25  1  0  0  0  0
 19  1  1  0  0  0  0
 19 26  1  0  0  0  0
 20 22  1  0  0  0  0
 22  9  1  0  0  0  0
 22 10  1  0  0  0  0
 23 14  1  0  0  0  0
 25 26  1  0  0  0  0
 26 17  1  0  0  0  0
 27  7  1  0  0  0  0
 27 24  1  0  0  0  0
 30 29  1  0  0  0  0
 30 28  1  0  0  0  0
M  END
>  <MODEL>
5

>  <REMARK>
 VINA RESULT:      -7.9      1.951      3.990
  Name = 
  2 active torsions:
  status: ('A' for Active; 'I' for Inactive)
    1  A    between atoms: C_11  and  C_28
    2  A    between atoms: C_28  and  C_30
                            x       y       z     vdW  Elec       q    Type
                         _______ _______ _______ _____ _____    ______ ____

>  <TORSDO>
F 2

$$$$
=
 OpenBabel11112416173D

 30 35  0  0  1  0  0  0  0  0999 V2000
  188.5690  177.5180  145.5610 C   0  0  2  0  0  3  0  0  0  0  0  0
  186.3450  178.4290  146.5960 C   0  0  1  0  0  3  0  0  0  0  0  0
  186.6300  176.9630  141.9150 N   0  0  0  0  0  0  0  0  0  0  0  0
  189.1720  176.7620  144.3750 C   0  0  0  0  0  0  0  0  0  0  0  0
  189.0100  176.9240  146.7560 O   0  0  0  0  0  0  0  0  0  0  0  0
  192.5090  176.4980  145.9540 O   0  0  0  0  0  1  0  0  0  0  0  0
  190.0220  174.0940  143.3490 C   0  0  1  0  0  3  0  0  0  0  0  0
  191.1380  176.2370  145.9130 C   0  0  1  0  0  3  0  0  0  0  0  0
  189.0280  174.4550  142.2340 C   0  0  2  0  0  3  0  0  0  0  0  0
  187.6110  176.2260  141.1890 C   0  0  0  0  0  0  0  0  0  0  0  0
  190.3840  177.1880  146.8540 C   0  0  2  0  0  3  0  0  0  0  0  0
  190.6410  176.3690  144.4660 C   0  0  1  0  0  3  0  0  0  0  0  0
  184.9420  178.2910  146.5150 O   0  0  0  0  0  0  0  0  0  0  0  0
  189.5110  173.7160  141.0060 C   0  0  0  0  0  2  0  0  0  0  0  0
  190.6740  172.7870  142.9230 C   0  0  0  0  0  2  0  0  0  0  0  0
  186.7730  178.0620  148.0050 C   0  0  0  0  0  1  0  0  0  0  0  0
  187.1210  177.1620  143.0910 C   0  0  0  0  0  0  0  0  0  0  0  0
  184.5190  178.8730  145.3050 C   0  0  0  0  0  2  0  0  0  0  0  0
  187.0150  177.5370  145.5270 C   0  0  1  0  0  3  0  0  0  0  0  0
  188.4680  176.6450  143.2380 C   0  0  0  0  0  0  0  0  0  0  0  0
  187.4410  175.8740  139.9920 O   0  0  0  0  0  0  0  0  0  0  0  0
  188.8600  175.9560  141.9740 C   0  0  1  0  0  3  0  0  0  0  0  0
  190.1380  172.4480  141.5430 C   0  0  0  0  0  2  0  0  0  0  0  0
  191.9100  175.5850  142.4280 C   0  0  0  0  0  1  0  0  0  0  0  0
  184.9890  178.0260  144.1240 C   0  0  0  0  0  2  0  0  0  0  0  0
  186.5100  178.0100  144.1540 C   0  0  2  0  0  3  0  0  0  0  0  0
  191.1030  175.1530  143.6460 C   0  0  2  0  0  3  0  0  0  0  0  0
  190.8150  176.9820  148.2970 C   0  0  0  0  0  2  0  0  0  0  0  0
  191.5670  178.2180  150.1830 O   0  0  0  0  0  1  0  0  0  0  0  0
  190.7430  178.2910  149.0610 C   0  0  0  0  0  2  0  0  0  0  0  0
  1  4  1  6  0  0  0
  1  5  1  0  0  0  0
  2 16  1  1  0  0  0
  3 17  2  0  0  0  0
  5 11  1  0  0  0  0
  7 15  1  6  0  0  0
  7 27  1  0  0  0  0
  8  6  1  6  0  0  0
  8 11  1  0  0  0  0
  9 14  1  6  0  0  0
  9  7  1  0  0  0  0
 10  3  1  0  0  0  0
 10 22  1  0  0  0  0
 11 28  1  1  0  0  0
 12  4  1  1  0  0  0
 12  8  1  0  0  0  0
 13  2  1  0  0  0  0
 14 23  1  0  0  0  0
 17 20  1  0  0  0  0
 17 26  1  0  0  0  0
 18 13  1  0  0  0  0
 19  1  1  0  0  0  0
 19  2  1  0  0  0  0
 20  4  2  0  0  0  0
 21 10  2  0  0  0  0
 22  9  1  0  0  0  0
 22 20  1  0  0  0  0
 23 15  1  0  0  0  0
 24 27  1  0  0  0  0
 25 26  1  0  0  0  0
 25 18  1  0  0  0  0
 26 19  1  0  0  0  0
 27 12  1  0  0  0  0
 28 30  1  0  0  0  0
 30 29  1  0  0  0  0
M  END
>  <MODEL>
6

>  <REMARK>
 VINA RESULT:      -7.8      2.075      5.380
  Name = 
  2 active torsions:
  status: ('A' for Active; 'I' for Inactive)
    1  A    between atoms: C_11  and  C_28
    2  A    between atoms: C_28  and  C_30
                            x       y       z     vdW  Elec       q    Type
                         _______ _______ _______ _____ _____    ______ ____

>  <TORSDO>
F 2

$$$$
=
 OpenBabel11112416173D

 30 35  0  0  1  0  0  0  0  0999 V2000
  190.7080  175.8700  145.3450 C   0  0  2  0  0  3  0  0  0  0  0  0
  193.2630  175.3130  145.2650 C   0  0  1  0  0  3  0  0  0  0  0  0
  190.2330  174.1660  141.5720 N   0  0  0  0  0  0  0  0  0  0  0  0
  189.4310  175.9810  144.5080 C   0  0  0  0  0  0  0  0  0  0  0  0
  190.8770  177.0540  146.0820 O   0  0  0  0  0  0  0  0  0  0  0  0
  187.4910  177.5080  147.2650 O   0  0  0  0  0  1  0  0  0  0  0  0
  187.6770  177.8230  142.9500 C   0  0  1  0  0  3  0  0  0  0  0  0
  188.5450  177.5070  146.3500 C   0  0  1  0  0  3  0  0  0  0  0  0
  187.9610  176.7960  141.8430 C   0  0  2  0  0  3  0  0  0  0  0  0
  188.8970  174.5540  141.2590 C   0  0  0  0  0  0  0  0  0  0  0  0
  189.8510  177.0830  147.0390 C   0  0  2  0  0  3  0  0  0  0  0  0
  188.2000  176.5740  145.1810 C   0  0  1  0  0  3  0  0  0  0  0  0
  194.3450  175.1830  144.3680 O   0  0  0  0  0  0  0  0  0  0  0  0
  186.7640  176.8530  140.9200 C   0  0  0  0  0  2  0  0  0  0  0  0
  186.6660  178.7990  142.3680 C   0  0  0  0  0  2  0  0  0  0  0  0
  193.6010  176.4150  146.2530 C   0  0  0  0  0  1  0  0  0  0  0  0
  190.5000  174.6790  142.7240 C   0  0  0  0  0  0  0  0  0  0  0  0
  194.1510  174.0050  143.6230 C   0  0  0  0  0  2  0  0  0  0  0  0
  191.9690  175.6100  144.4740 C   0  0  1  0  0  3  0  0  0  0  0  0
  189.3750  175.3880  143.3050 C   0  0  0  0  0  0  0  0  0  0  0  0
  188.3250  174.2070  140.1920 O   0  0  0  0  0  0  0  0  0  0  0  0
  188.2430  175.3710  142.3340 C   0  0  1  0  0  3  0  0  0  0  0  0
  186.2990  178.2910  140.9840 C   0  0  0  0  0  2  0  0  0  0  0  0
  185.9120  176.3640  144.1300 C   0  0  0  0  0  1  0  0  0  0  0  0
  192.9700  174.1760  142.6710 C   0  0  0  0  0  2  0  0  0  0  0  0
  191.7340  174.4270  143.5220 C   0  0  2  0  0  3  0  0  0  0  0  0
  187.1490  177.2410  144.2770 C   0  0  2  0  0  3  0  0  0  0  0  0
  190.2350  178.0670  148.1320 C   0  0  0  0  0  2  0  0  0  0  0  0
  191.5660  178.2910  150.0880 O   0  0  0  0  0  1  0  0  0  0  0  0
  191.4180  177.5410  148.9230 C   0  0  0  0  0  2  0  0  0  0  0  0
  1  4  1  6  0  0  0
  1  5  1  0  0  0  0
  2 16  1  1  0  0  0
  3 17  2  0  0  0  0
  5 11  1  0  0  0  0
  7 15  1  6  0  0  0
  7 27  1  0  0  0  0
  8 11  1  0  0  0  0
  8  6  1  1  0  0  0
  9 14  1  6  0  0  0
  9 22  1  0  0  0  0
  9  7  1  0  0  0  0
 10  3  1  0  0  0  0
 10 22  1  0  0  0  0
 11 28  1  1  0  0  0
 12  4  1  6  0  0  0
 12  8  1  0  0  0  0
 13  2  1  0  0  0  0
 14 23  1  0  0  0  0
 17 20  1  0  0  0  0
 17 26  1  0  0  0  0
 18 13  1  0  0  0  0
 19  2  1  0  0  0  0
 19  1  1  0  0  0  0
 20  4  2  0  0  0  0
 21 10  2  0  0  0  0
 22 20  1  0  0  0  0
 23 15  1  0  0  0  0
 24 27  1  0  0  0  0
 25 26  1  0  0  0  0
 25 18  1  0  0  0  0
 26 19  1  0  0  0  0
 27 12  1  0  0  0  0
 28 30  1  0  0  0  0
 30 29  1  0  0  0  0
M  END
>  <MODEL>
7

>  <REMARK>
 VINA RESULT:      -7.8      2.536      7.145
  Name = 
  2 active torsions:
  status: ('A' for Active; 'I' for Inactive)
    1  A    between atoms: C_11  and  C_28
    2  A    between atoms: C_28  and  C_30
                            x       y       z     vdW  Elec       q    Type
                         _______ _______ _______ _____ _____    ______ ____

>  <TORSDO>
F 2

$$$$
=
 OpenBabel11112416173D

 30 35  0  0  1  0  0  0  0  0999 V2000
  187.9580  175.3300  142.0040 C   0  0  2  0  0  3  0  0  0  0  0  0
  186.3430  177.2980  141.3970 C   0  0  1  0  0  3  0  0  0  0  0  0
  188.1920  176.7470  145.9150 N   0  0  0  0  0  0  0  0  0  0  0  0
  188.9510  174.8110  143.0460 C   0  0  0  0  0  0  0  0  0  0  0  0
  188.5600  175.2880  140.7350 O   0  0  0  0  0  0  0  0  0  0  0  0
  190.0770  172.0120  140.9040 O   0  0  0  0  0  1  0  0  0  0  0  0
  191.8240  174.6770  143.8360 C   0  0  1  0  0  3  0  0  0  0  0  0
  189.9180  173.3720  141.1760 C   0  0  1  0  0  3  0  0  0  0  0  0
  191.2710  175.3220  145.1160 C   0  0  2  0  0  3  0  0  0  0  0  0
  189.2440  175.9400  146.4400 C   0  0  0  0  0  0  0  0  0  0  0  0
  188.7130  173.9330  140.4070 C   0  0  2  0  0  3  0  0  0  0  0  0
  189.7570  173.5690  142.6900 C   0  0  1  0  0  3  0  0  0  0  0  0
  186.0610  178.6440  141.7170 O   0  0  0  0  0  0  0  0  0  0  0  0
  192.2150  174.9040  146.2210 C   0  0  0  0  0  2  0  0  0  0  0  0
  193.2950  174.4020  144.1070 C   0  0  0  0  0  2  0  0  0  0  0  0
  186.7090  177.2320  139.9250 C   0  0  0  0  0  1  0  0  0  0  0  0
  188.0580  176.4100  144.6780 C   0  0  0  0  0  0  0  0  0  0  0  0
  185.4760  178.6710  142.9970 C   0  0  0  0  0  2  0  0  0  0  0  0
  187.4770  176.7770  142.3090 C   0  0  1  0  0  3  0  0  0  0  0  0
  188.9410  175.3290  144.2850 C   0  0  0  0  0  0  0  0  0  0  0  0
  189.6230  176.0200  147.6380 O   0  0  0  0  0  0  0  0  0  0  0  0
  189.8130  174.9760  145.4420 C   0  0  1  0  0  3  0  0  0  0  0  0
  193.5660  174.7920  145.5500 C   0  0  0  0  0  2  0  0  0  0  0  0
  191.0450  172.3000  144.4550 C   0  0  0  0  0  1  0  0  0  0  0  0
  186.5160  178.3060  144.0550 C   0  0  0  0  0  2  0  0  0  0  0  0
  186.9850  176.8880  143.7600 C   0  0  2  0  0  3  0  0  0  0  0  0
  191.1180  173.3820  143.3850 C   0  0  2  0  0  3  0  0  0  0  0  0
  188.9240  173.8200  138.9050 C   0  0  0  0  0  2  0  0  0  0  0  0
  188.2570  174.8720  136.8810 O   0  0  0  0  0  1  0  0  0  0  0  0
  187.8160  174.5410  138.1610 C   0  0  0  0  0  2  0  0  0  0  0  0
  1  5  1  6  0  0  0
  1 19  1  0  0  0  0
  1  4  1  0  0  0  0
  2 16  1  6  0  0  0
  2 13  1  0  0  0  0
  2 19  1  0  0  0  0
  3 10  1  0  0  0  0
  4 20  2  0  0  0  0
  7 15  1  1  0  0  0
  7  9  1  0  0  0  0
  8  6  1  1  0  0  0
  8 12  1  0  0  0  0
  9 22  1  0  0  0  0
  9 14  1  1  0  0  0
 10 21  2  0  0  0  0
 11 28  1  6  0  0  0
 11  5  1  0  0  0  0
 11  8  1  0  0  0  0
 12  4  1  6  0  0  0
 12 27  1  0  0  0  0
 13 18  1  0  0  0  0
 15 23  1  0  0  0  0
 17  3  2  0  0  0  0
 18 25  1  0  0  0  0
 19 26  1  0  0  0  0
 20 17  1  0  0  0  0
 20 22  1  0  0  0  0
 22 10  1  0  0  0  0
 23 14  1  0  0  0  0
 26 25  1  0  0  0  0
 26 17  1  0  0  0  0
 27  7  1  0  0  0  0
 27 24  1  0  0  0  0
 29 30  1  0  0  0  0
 30 28  1  0  0  0  0
M  END
>  <MODEL>
8

>  <REMARK>
 VINA RESULT:      -7.7      2.001      3.452
  Name = 
  2 active torsions:
  status: ('A' for Active; 'I' for Inactive)
    1  A    between atoms: C_11  and  C_28
    2  A    between atoms: C_28  and  C_30
                            x       y       z     vdW  Elec       q    Type
                         _______ _______ _______ _____ _____    ______ ____

>  <TORSDO>
F 2

$$$$
=
 OpenBabel11112416173D

 30 35  0  0  1  0  0  0  0  0999 V2000
  187.1210  177.5270  143.7030 C   0  0  2  0  0  3  0  0  0  0  0  0
  184.8930  178.6800  142.9580 C   0  0  1  0  0  3  0  0  0  0  0  0
  187.4900  175.8250  139.9180 N   0  0  0  0  0  0  0  0  0  0  0  0
  188.1440  176.4480  143.3440 C   0  0  0  0  0  0  0  0  0  0  0  0
  186.7100  177.3450  145.0340 O   0  0  0  0  0  0  0  0  0  0  0  0
  189.9250  176.7470  146.5740 O   0  0  0  0  0  1  0  0  0  0  0  0
  188.9530  173.6070  143.7560 C   0  0  1  0  0  3  0  0  0  0  0  0
  188.7910  176.4640  145.8110 C   0  0  1  0  0  3  0  0  0  0  0  0
  188.8310  173.5830  142.2250 C   0  0  2  0  0  3  0  0  0  0  0  0
  188.5660  174.9140  140.1280 C   0  0  0  0  0  0  0  0  0  0  0  0
  187.8150  177.6490  145.8430 C   0  0  2  0  0  3  0  0  0  0  0  0
  189.2190  176.1280  144.3760 C   0  0  1  0  0  3  0  0  0  0  0  0
  183.7760  178.5000  142.1140 O   0  0  0  0  0  0  0  0  0  0  0  0
  189.7830  172.5050  141.7590 C   0  0  0  0  0  2  0  0  0  0  0  0
  189.4970  172.2430  144.1550 C   0  0  0  0  0  2  0  0  0  0  0  0
  184.3900  178.7800  144.3870 C   0  0  0  0  0  1  0  0  0  0  0  0
  187.2650  176.3910  141.0550 C   0  0  0  0  0  0  0  0  0  0  0  0
  184.2080  178.6660  140.7840 C   0  0  0  0  0  2  0  0  0  0  0  0
  185.8820  177.5090  142.7640 C   0  0  1  0  0  3  0  0  0  0  0  0
  188.1880  175.9680  142.0910 C   0  0  0  0  0  0  0  0  0  0  0  0
  189.0370  174.2010  139.2030 O   0  0  0  0  0  0  0  0  0  0  0  0
  189.0950  174.9250  141.5310 C   0  0  1  0  0  3  0  0  0  0  0  0
  189.7760  171.4800  142.8710 C   0  0  0  0  0  2  0  0  0  0  0  0
  191.2540  174.7650  143.7580 C   0  0  0  0  0  1  0  0  0  0  0  0
  185.1040  177.4990  140.3750 C   0  0  0  0  0  2  0  0  0  0  0  0
  186.3200  177.5190  141.2910 C   0  0  2  0  0  3  0  0  0  0  0  0
  189.8450  174.7230  144.3360 C   0  0  2  0  0  3  0  0  0  0  0  0
  187.3230  177.9140  147.2570 C   0  0  0  0  0  2  0  0  0  0  0  0
  185.0320  178.2910  147.7620 O   0  0  0  0  0  1  0  0  0  0  0  0
  185.9550  177.2910  147.4640 C   0  0  0  0  0  2  0  0  0  0  0  0
  1  4  1  6  0  0  0
  1  5  1  0  0  0  0
  2 16  1  1  0  0  0
  3 10  1  0  0  0  0
  3 17  2  0  0  0  0
  5 11  1  0  0  0  0
  7 15  1  6  0  0  0
  7 27  1  0  0  0  0
  8 11  1  0  0  0  0
  8  6  1  1  0  0  0
  9 14  1  6  0  0  0
  9  7  1  0  0  0  0
 10 22  1  0  0  0  0
 11 28  1  1  0  0  0
 12  4  1  6  0  0  0
 12  8  1  0  0  0  0
 13  2  1  0  0  0  0
 14 23  1  0  0  0  0
 17 26  1  0  0  0  0
 17 20  1  0  0  0  0
 18 13  1  0  0  0  0
 19  2  1  0  0  0  0
 19  1  1  0  0  0  0
 20  4  2  0  0  0  0
 21 10  2  0  0  0  0
 22 20  1  0  0  0  0
 22  9  1  0  0  0  0
 23 15  1  0  0  0  0
 24 27  1  0  0  0  0
 25 18  1  0  0  0  0
 25 26  1  0  0  0  0
 26 19  1  0  0  0  0
 27 12  1  0  0  0  0
 28 30  1  0  0  0  0
 30 29  1  0  0  0  0
M  END
>  <MODEL>
9

>  <REMARK>
 VINA RESULT:      -7.5      2.085      5.069
  Name = 
  2 active torsions:
  status: ('A' for Active; 'I' for Inactive)
    1  A    between atoms: C_11  and  C_28
    2  A    between atoms: C_28  and  C_30
                            x       y       z     vdW  Elec       q    Type
                         _______ _______ _______ _____ _____    ______ ____

>  <TORSDO>
F 2

$$$$
