=
 OpenBabel11112416543D

 31 35  0  0  1  0  0  0  0  0999 V2000
  184.5450  178.4470  146.2090 C   0  0  0  0  0  0  0  0  0  0  0  0
  187.0950  177.1220  143.7750 C   0  0  0  0  0  0  0  0  0  0  0  0
  186.5720  177.3230  142.4630 C   0  0  0  0  0  0  0  0  0  0  0  0
  190.4780  175.6600  147.5510 O   0  0  0  0  0  0  0  0  0  0  0  0
  190.9590  175.3700  146.4230 C   0  0  0  0  0  0  0  0  0  0  0  0
  184.8480  178.0910  140.9130 C   0  0  0  0  0  0  0  0  0  0  0  0
  186.4290  177.4910  144.9820 C   0  0  0  0  0  0  0  0  0  0  0  0
  185.1850  178.1860  147.4210 C   0  0  0  0  0  3  0  0  0  0  0  0
  185.3210  177.9150  142.2150 C   0  0  0  0  0  3  0  0  0  0  0  0
  188.9490  176.2840  145.1350 C   0  0  0  0  0  0  0  0  0  0  0  0
  183.3250  179.0340  146.2000 F   0  0  0  0  0  0  0  0  0  0  0  0
  188.5510  176.3330  141.5400 N   0  0  0  0  0  0  0  0  0  0  0  0
  183.6090  178.6790  140.6980 O   0  0  0  0  0  1  0  0  0  0  0  0
  188.2860  176.6480  146.2610 N   0  0  0  0  0  0  0  0  0  0  0  0
  188.3720  176.5120  143.8800 C   0  0  0  0  0  0  0  0  0  0  0  0
  190.2400  175.6650  145.2180 N   0  0  0  0  0  2  0  0  0  0  0  0
  185.1620  178.1020  145.0050 C   0  0  0  0  0  3  0  0  0  0  0  0
  185.6210  177.6750  139.8280 C   0  0  0  0  0  3  0  0  0  0  0  0
  187.0640  177.2340  146.2240 C   0  0  0  0  0  0  0  0  0  0  0  0
  186.4430  177.5820  147.4270 C   0  0  0  0  0  3  0  0  0  0  0  0
  189.0470  176.1430  142.7600 N   0  0  0  0  0  0  0  0  0  0  0  0
  187.3420  176.9080  141.3500 C   0  0  0  0  0  0  0  0  0  0  0  0
  186.8650  177.0860  140.0470 C   0  0  0  0  0  3  0  0  0  0  0  0
  193.8870  175.6040  144.0270 C   0  0  1  0  0  3  0  0  0  0  0  0
  193.4460  175.7290  146.4950 C   0  0  0  0  0  2  0  0  0  0  0  0
  191.4310  172.9490  144.9530 O   0  0  0  0  0  1  0  0  0  0  0  0
  194.0500  176.3610  142.8680 O   0  0  0  0  0  1  0  0  0  0  0  0
  193.6410  176.5350  145.2110 C   0  0  0  0  0  2  0  0  0  0  0  0
  192.5050  173.8250  145.1160 C   0  0  2  0  0  3  0  0  0  0  0  0
  192.3070  174.7130  146.3570 C   0  0  2  0  0  3  0  0  0  0  0  0
  192.7070  174.6540  143.8490 C   0  0  0  0  0  2  0  0  0  0  0  0
  1  8  1  0  0  0  0
  2 15  1  0  0  0  0
  2  7  1  0  0  0  0
  3  2  2  0  0  0  0
  5  4  2  0  0  0  0
  6  9  2  0  0  0  0
  7 17  1  0  0  0  0
  7 19  2  0  0  0  0
  8 20  2  0  0  0  0
  9  3  1  0  0  0  0
 10 16  1  0  0  0  0
 10 14  2  0  0  0  0
 11  1  1  0  0  0  0
 12 21  1  0  0  0  0
 13  6  1  0  0  0  0
 15 10  1  0  0  0  0
 16  5  1  0  0  0  0
 17  1  2  0  0  0  0
 18 23  2  0  0  0  0
 18  6  1  0  0  0  0
 19 14  1  0  0  0  0
 19 20  1  0  0  0  0
 21 15  2  0  0  0  0
 22 12  2  0  0  0  0
 22  3  1  0  0  0  0
 23 22  1  0  0  0  0
 24 27  1  6  0  0  0
 24 28  1  0  0  0  0
 28 25  1  0  0  0  0
 29 26  1  6  0  0  0
 29 30  1  0  0  0  0
 30  5  1  6  0  0  0
 30 25  1  0  0  0  0
 31 24  1  0  0  0  0
 31 29  1  0  0  0  0
M  END
>  <MODEL>
1

>  <REMARK>
 VINA RESULT:     -10.0      0.000      0.000
  Name = 
  1 active torsions:
  status: ('A' for Active; 'I' for Inactive)
    1  A    between atoms: C_5  and  C_30
                            x       y       z     vdW  Elec       q    Type
                         _______ _______ _______ _____ _____    ______ ____

>  <TORSDO>
F 1

$$$$
=
 OpenBabel11112416543D

 31 35  0  0  1  0  0  0  0  0999 V2000
  184.9590  178.0460  146.8610 C   0  0  0  0  0  0  0  0  0  0  0  0
  186.8770  177.6490  143.6440 C   0  0  0  0  0  0  0  0  0  0  0  0
  185.9500  177.8220  142.5750 C   0  0  0  0  0  0  0  0  0  0  0  0
  191.4820  176.7850  146.0720 O   0  0  0  0  0  0  0  0  0  0  0  0
  191.6500  176.7310  144.8250 C   0  0  0  0  0  0  0  0  0  0  0  0
  183.7120  178.2510  141.6970 C   0  0  0  0  0  0  0  0  0  0  0  0
  186.5450  177.7240  145.0310 C   0  0  0  0  0  0  0  0  0  0  0  0
  185.9770  177.8540  147.7940 C   0  0  0  0  0  3  0  0  0  0  0  0
  184.5840  178.0890  142.7750 C   0  0  0  0  0  3  0  0  0  0  0  0
  189.1940  177.2030  144.2960 C   0  0  0  0  0  0  0  0  0  0  0  0
  183.6950  178.2950  147.2790 F   0  0  0  0  0  0  0  0  0  0  0  0
  187.7240  177.4650  141.0020 N   0  0  0  0  0  0  0  0  0  0  0  0
  182.3680  178.5140  141.9240 O   0  0  0  0  0  1  0  0  0  0  0  0
  188.8400  177.2810  145.6040 N   0  0  0  0  0  0  0  0  0  0  0  0
  188.2270  177.3830  143.2990 C   0  0  0  0  0  0  0  0  0  0  0  0
  190.5530  176.9350  143.9240 N   0  0  0  0  0  2  0  0  0  0  0  0
  185.2410  177.9810  145.4950 C   0  0  0  0  0  3  0  0  0  0  0  0
  184.1910  178.1480  140.3900 C   0  0  0  0  0  3  0  0  0  0  0  0
  187.5670  177.5310  145.9940 C   0  0  0  0  0  0  0  0  0  0  0  0
  187.2780  177.5980  147.3610 C   0  0  0  0  0  3  0  0  0  0  0  0
  188.5950  177.3020  141.9930 N   0  0  0  0  0  0  0  0  0  0  0  0
  186.4170  177.7210  141.2420 C   0  0  0  0  0  0  0  0  0  0  0  0
  185.5420  177.8840  140.1650 C   0  0  0  0  0  3  0  0  0  0  0  0
  193.9560  173.7240  144.9200 C   0  0  1  0  0  3  0  0  0  0  0  0
  193.0160  175.3360  143.2410 C   0  0  0  0  0  2  0  0  0  0  0  0
  194.0300  177.1620  146.3720 O   0  0  0  0  0  1  0  0  0  0  0  0
  193.7850  172.4690  145.5020 O   0  0  0  0  0  1  0  0  0  0  0  0
  192.8590  173.9590  143.8870 C   0  0  0  0  0  2  0  0  0  0  0  0
  194.0730  176.1800  145.3820 C   0  0  2  0  0  3  0  0  0  0  0  0
  193.0250  176.4540  144.2890 C   0  0  2  0  0  3  0  0  0  0  0  0
  193.9000  174.7960  146.0040 C   0  0  0  0  0  2  0  0  0  0  0  0
  1 11  1  0  0  0  0
  1  8  1  0  0  0  0
  2  7  1  0  0  0  0
  3  9  1  0  0  0  0
  3  2  2  0  0  0  0
  5  4  2  0  0  0  0
  6 13  1  0  0  0  0
  6  9  2  0  0  0  0
  7 17  1  0  0  0  0
  7 19  2  0  0  0  0
 10 14  2  0  0  0  0
 12 22  2  0  0  0  0
 12 21  1  0  0  0  0
 14 19  1  0  0  0  0
 15  2  1  0  0  0  0
 15 10  1  0  0  0  0
 16 10  1  0  0  0  0
 16  5  1  0  0  0  0
 17  1  2  0  0  0  0
 18  6  1  0  0  0  0
 19 20  1  0  0  0  0
 20  8  2  0  0  0  0
 21 15  2  0  0  0  0
 22  3  1  0  0  0  0
 23 18  2  0  0  0  0
 23 22  1  0  0  0  0
 24 27  1  1  0  0  0
 24 31  1  0  0  0  0
 25 28  1  0  0  0  0
 25 30  1  0  0  0  0
 28 24  1  0  0  0  0
 29 31  1  0  0  0  0
 29 26  1  1  0  0  0
 30  5  1  1  0  0  0
 30 29  1  0  0  0  0
M  END
>  <MODEL>
2

>  <REMARK>
 VINA RESULT:      -9.9      1.391      2.081
  Name = 
  1 active torsions:
  status: ('A' for Active; 'I' for Inactive)
    1  A    between atoms: C_5  and  C_30
                            x       y       z     vdW  Elec       q    Type
                         _______ _______ _______ _____ _____    ______ ____

>  <TORSDO>
F 1

$$$$
=
 OpenBabel11112416543D

 31 35  0  0  1  0  0  0  0  0999 V2000
  185.7310  177.6570  141.0310 C   0  0  0  0  0  0  0  0  0  0  0  0
  187.4200  176.9940  144.3320 C   0  0  0  0  0  0  0  0  0  0  0  0
  186.5400  177.4520  145.3560 C   0  0  0  0  0  0  0  0  0  0  0  0
  191.7080  174.8560  142.1230 O   0  0  0  0  0  0  0  0  0  0  0  0
  191.8410  174.8590  143.3750 C   0  0  0  0  0  0  0  0  0  0  0  0
  184.4590  178.4690  146.1290 C   0  0  0  0  0  0  0  0  0  0  0  0
  187.1470  177.0650  142.9320 C   0  0  0  0  0  0  0  0  0  0  0  0
  186.6920  177.1660  140.1470 C   0  0  0  0  0  3  0  0  0  0  0  0
  185.2880  178.0350  145.0930 C   0  0  0  0  0  3  0  0  0  0  0  0
  189.5680  175.9540  143.7890 C   0  0  0  0  0  0  0  0  0  0  0  0
  184.5780  178.1830  140.5550 F   0  0  0  0  0  0  0  0  0  0  0  0
  188.1360  176.7650  147.0090 N   0  0  0  0  0  0  0  0  0  0  0  0
  183.2280  179.0410  145.8390 O   0  0  0  0  0  1  0  0  0  0  0  0
  189.2740  176.0390  142.4670 N   0  0  0  0  0  0  0  0  0  0  0  0
  188.6550  176.4260  144.7400 C   0  0  0  0  0  0  0  0  0  0  0  0
  190.8110  175.3840  144.2240 N   0  0  0  0  0  2  0  0  0  0  0  0
  185.9590  177.6060  142.4080 C   0  0  0  0  0  3  0  0  0  0  0  0
  184.8690  178.3310  147.4550 C   0  0  0  0  0  3  0  0  0  0  0  0
  188.1120  176.5710  142.0180 C   0  0  0  0  0  0  0  0  0  0  0  0
  187.8790  176.6240  140.6400 C   0  0  0  0  0  3  0  0  0  0  0  0
  188.9620  176.3350  146.0600 N   0  0  0  0  0  0  0  0  0  0  0  0
  186.9390  177.3190  146.7090 C   0  0  0  0  0  0  0  0  0  0  0  0
  186.1060  177.7560  147.7440 C   0  0  0  0  0  3  0  0  0  0  0  0
  194.2120  176.0180  146.0970 C   0  0  1  0  0  3  0  0  0  0  0  0
  192.9230  173.9600  145.4590 C   0  0  0  0  0  2  0  0  0  0  0  0
  194.4580  175.5320  142.4030 O   0  0  0  0  0  1  0  0  0  0  0  0
  194.1910  177.1650  146.8880 O   0  0  0  0  0  1  0  0  0  0  0  0
  192.9310  175.2200  146.3250 C   0  0  0  0  0  2  0  0  0  0  0  0
  194.3410  175.1700  143.7460 C   0  0  2  0  0  3  0  0  0  0  0  0
  193.0970  174.2940  143.9740 C   0  0  2  0  0  3  0  0  0  0  0  0
  194.3310  176.4160  144.6290 C   0  0  0  0  0  2  0  0  0  0  0  0
  1 17  1  0  0  0  0
  2 15  2  0  0  0  0
  2  3  1  0  0  0  0
  3 22  1  0  0  0  0
  4  5  2  0  0  0  0
  5 16  1  0  0  0  0
  6 18  2  0  0  0  0
  7  2  1  0  0  0  0
  8 20  1  0  0  0  0
  8  1  2  0  0  0  0
  9  3  2  0  0  0  0
  9  6  1  0  0  0  0
 10 16  1  0  0  0  0
 10 15  1  0  0  0  0
 11  1  1  0  0  0  0
 13  6  1  0  0  0  0
 14 10  2  0  0  0  0
 15 21  1  0  0  0  0
 17  7  2  0  0  0  0
 18 23  1  0  0  0  0
 19 14  1  0  0  0  0
 19  7  1  0  0  0  0
 20 19  2  0  0  0  0
 21 12  2  0  0  0  0
 22 12  1  0  0  0  0
 22 23  2  0  0  0  0
 24 28  1  0  0  0  0
 24 27  1  1  0  0  0
 25 28  1  0  0  0  0
 29 26  1  6  0  0  0
 29 30  1  0  0  0  0
 29 31  1  0  0  0  0
 30  5  1  1  0  0  0
 30 25  1  0  0  0  0
 31 24  1  0  0  0  0
M  END
>  <MODEL>
3

>  <REMARK>
 VINA RESULT:      -9.3      1.862      4.380
  Name = 
  1 active torsions:
  status: ('A' for Active; 'I' for Inactive)
    1  A    between atoms: C_5  and  C_30
                            x       y       z     vdW  Elec       q    Type
                         _______ _______ _______ _____ _____    ______ ____

>  <TORSDO>
F 1

$$$$
=
 OpenBabel11112416543D

 31 35  0  0  1  0  0  0  0  0999 V2000
  190.6630  176.7910  147.2570 C   0  0  0  0  0  0  0  0  0  0  0  0
  187.9410  176.4760  144.6730 C   0  0  0  0  0  0  0  0  0  0  0  0
  186.8830  177.3470  145.0650 C   0  0  0  0  0  0  0  0  0  0  0  0
  190.5970  172.9560  141.7750 O   0  0  0  0  0  0  0  0  0  0  0  0
  189.4800  173.1810  141.2380 C   0  0  0  0  0  0  0  0  0  0  0  0
  185.8680  178.9820  146.5690 C   0  0  0  0  0  0  0  0  0  0  0  0
  189.1630  176.3040  145.3900 C   0  0  0  0  0  0  0  0  0  0  0  0
  191.6070  175.9010  146.7460 C   0  0  0  0  0  3  0  0  0  0  0  0
  186.9290  178.1430  146.2230 C   0  0  0  0  0  3  0  0  0  0  0  0
  188.7590  174.8550  143.0310 C   0  0  0  0  0  0  0  0  0  0  0  0
  190.9170  177.4640  148.4040 F   0  0  0  0  0  0  0  0  0  0  0  0
  185.6340  176.6720  143.1330 N   0  0  0  0  0  0  0  0  0  0  0  0
  185.9410  179.7570  147.7180 O   0  0  0  0  0  1  0  0  0  0  0  0
  189.9070  174.7170  143.7410 N   0  0  0  0  0  0  0  0  0  0  0  0
  187.7620  175.7300  143.4790 C   0  0  0  0  0  0  0  0  0  0  0  0
  188.5560  174.1100  141.8230 N   0  0  0  0  0  2  0  0  0  0  0  0
  189.4550  176.9890  146.5850 C   0  0  0  0  0  3  0  0  0  0  0  0
  184.7330  179.0410  145.7600 C   0  0  0  0  0  3  0  0  0  0  0  0
  190.1350  175.4030  144.8870 C   0  0  0  0  0  0  0  0  0  0  0  0
  191.3430  175.2090  145.5640 C   0  0  0  0  0  3  0  0  0  0  0  0
  186.6160  175.8580  142.7590 N   0  0  0  0  0  0  0  0  0  0  0  0
  185.7230  177.4210  144.2560 C   0  0  0  0  0  0  0  0  0  0  0  0
  184.6620  178.2620  144.6050 C   0  0  0  0  0  3  0  0  0  0  0  0
  191.3150  172.5490  137.9820 C   0  0  1  0  0  3  0  0  0  0  0  0
  190.0390  171.2600  139.7170 C   0  0  0  0  0  2  0  0  0  0  0  0
  188.3060  174.5190  138.9840 O   0  0  0  0  0  1  0  0  0  0  0  0
  192.5890  172.9360  137.5710 O   0  0  0  0  0  1  0  0  0  0  0  0
  191.4260  171.6880  139.2370 C   0  0  0  0  0  2  0  0  0  0  0  0
  189.0790  173.3850  138.7310 C   0  0  2  0  0  3  0  0  0  0  0  0
  189.1290  172.4670  139.9650 C   0  0  2  0  0  3  0  0  0  0  0  0
  190.4760  173.7910  138.2660 C   0  0  0  0  0  2  0  0  0  0  0  0
  1 11  1  0  0  0  0
  2  3  1  0  0  0  0
  2  7  1  0  0  0  0
  3  9  1  0  0  0  0
  5  4  2  0  0  0  0
  5 16  1  0  0  0  0
  6 13  1  0  0  0  0
  7 17  1  0  0  0  0
  8  1  1  0  0  0  0
  9  6  2  0  0  0  0
 10 15  1  0  0  0  0
 10 14  2  0  0  0  0
 12 22  1  0  0  0  0
 14 19  1  0  0  0  0
 15  2  2  0  0  0  0
 16 10  1  0  0  0  0
 17  1  2  0  0  0  0
 18  6  1  0  0  0  0
 19  7  2  0  0  0  0
 19 20  1  0  0  0  0
 20  8  2  0  0  0  0
 21 12  2  0  0  0  0
 21 15  1  0  0  0  0
 22 23  1  0  0  0  0
 22  3  2  0  0  0  0
 23 18  2  0  0  0  0
 24 27  1  1  0  0  0
 24 31  1  0  0  0  0
 24 28  1  0  0  0  0
 25 30  1  0  0  0  0
 28 25  1  0  0  0  0
 29 26  1  1  0  0  0
 29 30  1  0  0  0  0
 30  5  1  1  0  0  0
 31 29  1  0  0  0  0
M  END
>  <MODEL>
4

>  <REMARK>
 VINA RESULT:      -8.6      3.773      5.633
  Name = 
  1 active torsions:
  status: ('A' for Active; 'I' for Inactive)
    1  A    between atoms: C_5  and  C_30
                            x       y       z     vdW  Elec       q    Type
                         _______ _______ _______ _____ _____    ______ ____

>  <TORSDO>
F 1

$$$$
=
 OpenBabel11112416543D

 31 35  0  0  1  0  0  0  0  0999 V2000
  194.2550  175.9380  143.7800 C   0  0  0  0  0  0  0  0  0  0  0  0
  190.6850  175.1310  142.8950 C   0  0  0  0  0  0  0  0  0  0  0  0
  190.7040  174.4300  141.6540 C   0  0  0  0  0  0  0  0  0  0  0  0
  188.7150  177.3990  147.2340 O   0  0  0  0  0  0  0  0  0  0  0  0
  187.7720  176.9390  146.5380 C   0  0  0  0  0  0  0  0  0  0  0  0
  191.8590  173.4460  139.7400 C   0  0  0  0  0  0  0  0  0  0  0  0
  191.8420  175.6150  143.5760 C   0  0  0  0  0  0  0  0  0  0  0  0
  194.0770  176.6070  144.9900 C   0  0  0  0  0  3  0  0  0  0  0  0
  191.8880  174.1360  140.9530 C   0  0  0  0  0  3  0  0  0  0  0  0
  189.3220  176.0420  144.7130 C   0  0  0  0  0  0  0  0  0  0  0  0
  195.5020  175.7620  143.2800 F   0  0  0  0  0  0  0  0  0  0  0  0
  188.3130  174.2670  141.7280 N   0  0  0  0  0  0  0  0  0  0  0  0
  193.0430  173.1700  139.0710 O   0  0  0  0  0  1  0  0  0  0  0  0
  190.4450  176.4880  145.3300 N   0  0  0  0  0  0  0  0  0  0  0  0
  189.4180  175.3610  143.4930 C   0  0  0  0  0  0  0  0  0  0  0  0
  188.0310  176.2640  145.2990 N   0  0  0  0  0  2  0  0  0  0  0  0
  193.1490  175.4480  143.0820 C   0  0  0  0  0  3  0  0  0  0  0  0
  190.6400  173.0370  139.1990 C   0  0  0  0  0  3  0  0  0  0  0  0
  191.6800  176.2990  144.8070 C   0  0  0  0  0  0  0  0  0  0  0  0
  192.7920  176.7860  145.5020 C   0  0  0  0  0  3  0  0  0  0  0  0
  188.2860  174.9200  142.8860 N   0  0  0  0  0  0  0  0  0  0  0  0
  189.4770  174.0060  141.0890 C   0  0  0  0  0  0  0  0  0  0  0  0
  189.4520  173.3160  139.8740 C   0  0  0  0  0  3  0  0  0  0  0  0
  184.7910  178.9630  145.3600 C   0  0  1  0  0  3  0  0  0  0  0  0
  185.3390  176.5990  146.0040 C   0  0  0  0  0  2  0  0  0  0  0  0
  186.9980  179.0100  148.3710 O   0  0  0  0  0  1  0  0  0  0  0  0
  184.6600  179.8410  144.2850 O   0  0  0  0  0  1  0  0  0  0  0  0
  185.1770  177.5810  144.8420 C   0  0  0  0  0  2  0  0  0  0  0  0
  186.0260  178.5290  147.4920 C   0  0  2  0  0  3  0  0  0  0  0  0
  186.3620  177.1010  147.0280 C   0  0  2  0  0  3  0  0  0  0  0  0
  185.8600  179.4870  146.3140 C   0  0  0  0  0  2  0  0  0  0  0  0
  1  8  1  0  0  0  0
  2 15  1  0  0  0  0
  2  7  1  0  0  0  0
  3  2  2  0  0  0  0
  5  4  2  0  0  0  0
  6  9  2  0  0  0  0
  7 19  2  0  0  0  0
  8 20  2  0  0  0  0
  9  3  1  0  0  0  0
 10 16  1  0  0  0  0
 10 14  2  0  0  0  0
 11  1  1  0  0  0  0
 12 21  1  0  0  0  0
 13  6  1  0  0  0  0
 15 10  1  0  0  0  0
 16  5  1  0  0  0  0
 17  7  1  0  0  0  0
 17  1  2  0  0  0  0
 18  6  1  0  0  0  0
 18 23  2  0  0  0  0
 19 14  1  0  0  0  0
 19 20  1  0  0  0  0
 21 15  2  0  0  0  0
 22  3  1  0  0  0  0
 22 12  2  0  0  0  0
 23 22  1  0  0  0  0
 24 27  1  6  0  0  0
 24 31  1  0  0  0  0
 25 30  1  0  0  0  0
 28 24  1  0  0  0  0
 28 25  1  0  0  0  0
 29 26  1  1  0  0  0
 30  5  1  6  0  0  0
 30 29  1  0  0  0  0
 31 29  1  0  0  0  0
M  END
>  <MODEL>
5

>  <REMARK>
 VINA RESULT:      -8.4      3.461      7.071
  Name = 
  1 active torsions:
  status: ('A' for Active; 'I' for Inactive)
    1  A    between atoms: C_5  and  C_30
                            x       y       z     vdW  Elec       q    Type
                         _______ _______ _______ _____ _____    ______ ____

>  <TORSDO>
F 1

$$$$
=
 OpenBabel11112416543D

 31 35  0  0  1  0  0  0  0  0999 V2000
  185.4220  177.9440  140.9830 C   0  0  0  0  0  0  0  0  0  0  0  0
  187.2160  176.8040  144.0920 C   0  0  0  0  0  0  0  0  0  0  0  0
  186.4380  177.2300  145.2090 C   0  0  0  0  0  0  0  0  0  0  0  0
  191.1660  174.5410  141.4240 O   0  0  0  0  0  0  0  0  0  0  0  0
  191.3640  174.4040  142.6600 C   0  0  0  0  0  0  0  0  0  0  0  0
  184.5030  178.3380  146.2050 C   0  0  0  0  0  0  0  0  0  0  0  0
  186.8770  177.0410  142.7260 C   0  0  0  0  0  0  0  0  0  0  0  0
  186.2850  177.4650  139.9970 C   0  0  0  0  0  3  0  0  0  0  0  0
  185.2320  177.9420  145.0820 C   0  0  0  0  0  3  0  0  0  0  0  0
  189.2270  175.6440  143.3190 C   0  0  0  0  0  0  0  0  0  0  0  0
  184.2990  178.6140  140.6330 F   0  0  0  0  0  0  0  0  0  0  0  0
  188.0500  176.2420  146.6860 N   0  0  0  0  0  0  0  0  0  0  0  0
  183.3160  179.0410  146.0490 O   0  0  0  0  0  1  0  0  0  0  0  0
  188.8720  175.8890  142.0320 N   0  0  0  0  0  0  0  0  0  0  0  0
  188.4130  176.0930  144.3660 C   0  0  0  0  0  0  0  0  0  0  0  0
  190.4340  174.9280  143.6180 N   0  0  0  0  0  2  0  0  0  0  0  0
  185.7170  177.7340  142.3320 C   0  0  0  0  0  3  0  0  0  0  0  0
  184.9690  178.0300  147.4840 C   0  0  0  0  0  3  0  0  0  0  0  0
  187.7420  176.5620  141.7100 C   0  0  0  0  0  0  0  0  0  0  0  0
  187.4410  176.7750  140.3610 C   0  0  0  0  0  3  0  0  0  0  0  0
  188.7800  175.8420  145.6500 N   0  0  0  0  0  0  0  0  0  0  0  0
  186.8940  176.9260  146.5150 C   0  0  0  0  0  0  0  0  0  0  0  0
  186.1620  177.3240  147.6370 C   0  0  0  0  0  3  0  0  0  0  0  0
  195.0210  174.5170  141.6670 C   0  0  1  0  0  3  0  0  0  0  0  0
  193.6200  174.6250  143.7470 C   0  0  0  0  0  2  0  0  0  0  0  0
  192.2880  171.9850  141.4180 O   0  0  0  0  0  1  0  0  0  0  0  0
  195.6740  175.2830  140.7030 O   0  0  0  0  0  1  0  0  0  0  0  0
  194.3560  175.4410  142.6830 C   0  0  0  0  0  2  0  0  0  0  0  0
  193.2400  172.7990  142.0350 C   0  0  2  0  0  3  0  0  0  0  0  0
  192.5930  173.6750  143.1220 C   0  0  2  0  0  3  0  0  0  0  0  0
  193.9750  173.6360  140.9910 C   0  0  0  0  0  2  0  0  0  0  0  0
  1 17  1  0  0  0  0
  2 15  2  0  0  0  0
  2  3  1  0  0  0  0
  3 22  1  0  0  0  0
  4  5  2  0  0  0  0
  5 16  1  0  0  0  0
  6 18  2  0  0  0  0
  7  2  1  0  0  0  0
  8 20  1  0  0  0  0
  8  1  2  0  0  0  0
  9  3  2  0  0  0  0
  9  6  1  0  0  0  0
 10 16  1  0  0  0  0
 10 15  1  0  0  0  0
 11  1  1  0  0  0  0
 13  6  1  0  0  0  0
 14 10  2  0  0  0  0
 15 21  1  0  0  0  0
 17  7  2  0  0  0  0
 18 23  1  0  0  0  0
 19 14  1  0  0  0  0
 19  7  1  0  0  0  0
 20 19  2  0  0  0  0
 21 12  2  0  0  0  0
 22 12  1  0  0  0  0
 22 23  2  0  0  0  0
 24 27  1  6  0  0  0
 24 28  1  0  0  0  0
 28 25  1  0  0  0  0
 29 26  1  6  0  0  0
 29 30  1  0  0  0  0
 30  5  1  6  0  0  0
 30 25  1  0  0  0  0
 31 24  1  0  0  0  0
 31 29  1  0  0  0  0
M  END
>  <MODEL>
6

>  <REMARK>
 VINA RESULT:      -8.4      2.350      4.463
  Name = 
  1 active torsions:
  status: ('A' for Active; 'I' for Inactive)
    1  A    between atoms: C_5  and  C_30
                            x       y       z     vdW  Elec       q    Type
                         _______ _______ _______ _____ _____    ______ ____

>  <TORSDO>
F 1

$$$$
=
 OpenBabel11112416543D

 31 35  0  0  1  0  0  0  0  0999 V2000
  190.7190  177.0410  147.4110 C   0  0  0  0  0  0  0  0  0  0  0  0
  188.3000  176.5920  144.5590 C   0  0  0  0  0  0  0  0  0  0  0  0
  187.0980  177.2730  144.9130 C   0  0  0  0  0  0  0  0  0  0  0  0
  191.6690  173.7350  141.6720 O   0  0  0  0  0  0  0  0  0  0  0  0
  190.5810  173.8550  141.0490 C   0  0  0  0  0  0  0  0  0  0  0  0
  185.7360  178.6150  146.4320 C   0  0  0  0  0  0  0  0  0  0  0  0
  189.4680  176.5240  145.3770 C   0  0  0  0  0  0  0  0  0  0  0  0
  191.8210  176.3360  146.9280 C   0  0  0  0  0  3  0  0  0  0  0  0
  186.9320  177.9620  146.1270 C   0  0  0  0  0  3  0  0  0  0  0  0
  189.4780  175.2490  142.8860 C   0  0  0  0  0  0  0  0  0  0  0  0
  190.7750  177.6370  148.6250 F   0  0  0  0  0  0  0  0  0  0  0  0
  186.1280  176.6100  142.8230 N   0  0  0  0  0  0  0  0  0  0  0  0
  185.6000  179.2870  147.6380 O   0  0  0  0  0  1  0  0  0  0  0  0
  190.5690  175.2050  143.6910 N   0  0  0  0  0  0  0  0  0  0  0  0
  188.3310  175.9370  143.3010 C   0  0  0  0  0  0  0  0  0  0  0  0
  189.4870  174.5930  141.6100 N   0  0  0  0  0  2  0  0  0  0  0  0
  189.5560  177.1320  146.6420 C   0  0  0  0  0  3  0  0  0  0  0  0
  184.6770  178.5910  145.5230 C   0  0  0  0  0  3  0  0  0  0  0  0
  190.5980  175.8110  144.9030 C   0  0  0  0  0  0  0  0  0  0  0  0
  191.7600  175.7230  145.6760 C   0  0  0  0  0  3  0  0  0  0  0  0
  187.2450  175.9730  142.4850 N   0  0  0  0  0  0  0  0  0  0  0  0
  186.0130  177.2610  144.0030 C   0  0  0  0  0  0  0  0  0  0  0  0
  184.8170  177.9160  144.3110 C   0  0  0  0  0  3  0  0  0  0  0  0
  191.7450  170.5670  139.5620 C   0  0  1  0  0  3  0  0  0  0  0  0
  189.6360  171.9160  139.7580 C   0  0  0  0  0  2  0  0  0  0  0  0
  192.5520  174.1660  138.9830 O   0  0  0  0  0  1  0  0  0  0  0  0
  192.4770  169.5260  140.1290 O   0  0  0  0  0  1  0  0  0  0  0  0
  190.4550  170.7690  140.3520 C   0  0  0  0  0  2  0  0  0  0  0  0
  191.7860  172.9990  138.9750 C   0  0  2  0  0  3  0  0  0  0  0  0
  190.4450  173.2150  139.6970 C   0  0  2  0  0  3  0  0  0  0  0  0
  192.5800  171.8430  139.5810 C   0  0  0  0  0  2  0  0  0  0  0  0
  1 11  1  0  0  0  0
  2  3  1  0  0  0  0
  2  7  1  0  0  0  0
  3  9  1  0  0  0  0
  5 16  1  0  0  0  0
  5  4  2  0  0  0  0
  6 13  1  0  0  0  0
  7 17  1  0  0  0  0
  8  1  1  0  0  0  0
  9  6  2  0  0  0  0
 10 15  1  0  0  0  0
 10 14  2  0  0  0  0
 12 22  1  0  0  0  0
 14 19  1  0  0  0  0
 15  2  2  0  0  0  0
 16 10  1  0  0  0  0
 17  1  2  0  0  0  0
 18  6  1  0  0  0  0
 19  7  2  0  0  0  0
 19 20  1  0  0  0  0
 20  8  2  0  0  0  0
 21 12  2  0  0  0  0
 21 15  1  0  0  0  0
 22 23  1  0  0  0  0
 22  3  2  0  0  0  0
 23 18  2  0  0  0  0
 24 31  1  0  0  0  0
 24 27  1  1  0  0  0
 24 28  1  0  0  0  0
 25 28  1  0  0  0  0
 29 26  1  1  0  0  0
 29 31  1  0  0  0  0
 29 30  1  0  0  0  0
 30 25  1  0  0  0  0
 30  5  1  1  0  0  0
M  END
>  <MODEL>
7

>  <REMARK>
 VINA RESULT:      -8.3      3.602      5.485
  Name = 
  1 active torsions:
  status: ('A' for Active; 'I' for Inactive)
    1  A    between atoms: C_5  and  C_30
                            x       y       z     vdW  Elec       q    Type
                         _______ _______ _______ _____ _____    ______ ____

>  <TORSDO>
F 1

$$$$
=
 OpenBabel11112416543D

 31 35  0  0  1  0  0  0  0  0999 V2000
  188.1100  174.4750  138.8850 C   0  0  0  0  0  0  0  0  0  0  0  0
  188.3900  176.0360  142.3010 C   0  0  0  0  0  0  0  0  0  0  0  0
  187.3280  176.9800  142.4230 C   0  0  0  0  0  0  0  0  0  0  0  0
  192.6320  173.2020  143.6480 O   0  0  0  0  0  0  0  0  0  0  0  0
  192.3250  173.9720  144.5970 C   0  0  0  0  0  0  0  0  0  0  0  0
  185.3670  178.1570  141.5660 C   0  0  0  0  0  0  0  0  0  0  0  0
  188.6330  175.2290  141.1490 C   0  0  0  0  0  0  0  0  0  0  0  0
  189.1900  173.5940  138.9140 C   0  0  0  0  0  3  0  0  0  0  0  0
  186.3910  177.2220  141.4020 C   0  0  0  0  0  3  0  0  0  0  0  0
  190.3280  174.9840  143.3620 C   0  0  0  0  0  0  0  0  0  0  0  0
  187.3250  174.5490  137.7830 F   0  0  0  0  0  0  0  0  0  0  0  0
  188.0820  177.5160  144.6350 N   0  0  0  0  0  0  0  0  0  0  0  0
  184.4570  178.3760  140.5410 O   0  0  0  0  0  1  0  0  0  0  0  0
  190.5290  174.2340  142.2490 N   0  0  0  0  0  0  0  0  0  0  0  0
  189.2640  175.8920  143.4090 C   0  0  0  0  0  0  0  0  0  0  0  0
  191.2000  174.8560  144.4940 N   0  0  0  0  0  2  0  0  0  0  0  0
  187.8360  175.2830  139.9910 C   0  0  0  0  0  3  0  0  0  0  0  0
  185.2600  178.8730  142.7590 C   0  0  0  0  0  3  0  0  0  0  0  0
  189.7280  174.3280  141.1600 C   0  0  0  0  0  0  0  0  0  0  0  0
  189.9970  173.5210  140.0500 C   0  0  0  0  0  3  0  0  0  0  0  0
  189.0740  176.6380  144.5300 N   0  0  0  0  0  0  0  0  0  0  0  0
  187.2030  177.7160  143.6260 C   0  0  0  0  0  0  0  0  0  0  0  0
  186.1760  178.6510  143.7870 C   0  0  0  0  0  3  0  0  0  0  0  0
  194.5120  176.5210  146.3550 C   0  0  1  0  0  3  0  0  0  0  0  0
  192.6380  174.9400  146.8950 C   0  0  0  0  0  2  0  0  0  0  0  0
  195.1130  173.2840  144.5940 O   0  0  0  0  0  1  0  0  0  0  0  0
  194.8190  177.8370  146.0170 O   0  0  0  0  0  1  0  0  0  0  0  0
  193.0040  176.3810  146.5350 C   0  0  0  0  0  2  0  0  0  0  0  0
  194.6600  174.1400  145.5990 C   0  0  2  0  0  3  0  0  0  0  0  0
  193.1540  173.9480  145.8480 C   0  0  2  0  0  3  0  0  0  0  0  0
  195.0010  175.5880  145.2510 C   0  0  0  0  0  2  0  0  0  0  0  0
  1  8  2  0  0  0  0
  1 17  1  0  0  0  0
  2  3  2  0  0  0  0
  2 15  1  0  0  0  0
  3 22  1  0  0  0  0
  4  5  2  0  0  0  0
  6 18  1  0  0  0  0
  7 19  1  0  0  0  0
  7  2  1  0  0  0  0
  8 20  1  0  0  0  0
  9  6  2  0  0  0  0
  9  3  1  0  0  0  0
 10 15  1  0  0  0  0
 10 16  1  0  0  0  0
 11  1  1  0  0  0  0
 13  6  1  0  0  0  0
 14 10  2  0  0  0  0
 15 21  2  0  0  0  0
 16  5  1  0  0  0  0
 17  7  2  0  0  0  0
 18 23  2  0  0  0  0
 19 14  1  0  0  0  0
 20 19  2  0  0  0  0
 21 12  1  0  0  0  0
 22 23  1  0  0  0  0
 22 12  2  0  0  0  0
 24 27  1  6  0  0  0
 24 28  1  0  0  0  0
 28 25  1  0  0  0  0
 29 26  1  6  0  0  0
 29 30  1  0  0  0  0
 30  5  1  6  0  0  0
 30 25  1  0  0  0  0
 31 29  1  0  0  0  0
 31 24  1  0  0  0  0
M  END
>  <MODEL>
8

>  <REMARK>
 VINA RESULT:      -8.3      2.840      4.638
  Name = 
  1 active torsions:
  status: ('A' for Active; 'I' for Inactive)
    1  A    between atoms: C_5  and  C_30
                            x       y       z     vdW  Elec       q    Type
                         _______ _______ _______ _____ _____    ______ ____

>  <TORSDO>
F 1

$$$$
=
 OpenBabel11112416543D

 31 35  0  0  1  0  0  0  0  0999 V2000
  194.6710  175.6360  145.3910 C   0  0  0  0  0  0  0  0  0  0  0  0
  191.5950  174.9970  143.3140 C   0  0  0  0  0  0  0  0  0  0  0  0
  192.0260  174.4050  142.0910 C   0  0  0  0  0  0  0  0  0  0  0  0
  188.2960  176.9320  146.9490 O   0  0  0  0  0  0  0  0  0  0  0  0
  187.6360  176.5570  145.9430 C   0  0  0  0  0  0  0  0  0  0  0  0
  193.7520  173.5600  140.5830 C   0  0  0  0  0  0  0  0  0  0  0  0
  192.4620  175.3920  144.3780 C   0  0  0  0  0  0  0  0  0  0  0  0
  194.1010  176.2030  146.5290 C   0  0  0  0  0  3  0  0  0  0  0  0
  193.3760  174.1420  141.7950 C   0  0  0  0  0  3  0  0  0  0  0  0
  189.7050  175.7820  144.6570 C   0  0  0  0  0  0  0  0  0  0  0  0
  196.0140  175.4730  145.3140 F   0  0  0  0  0  0  0  0  0  0  0  0
  189.7450  174.2950  141.3600 N   0  0  0  0  0  0  0  0  0  0  0  0
  195.0910  173.3130  140.3180 O   0  0  0  0  0  1  0  0  0  0  0  0
  190.5600  176.1450  145.6460 N   0  0  0  0  0  0  0  0  0  0  0  0
  190.2010  175.2060  143.4810 C   0  0  0  0  0  0  0  0  0  0  0  0
  188.2930  175.9840  144.8040 N   0  0  0  0  0  2  0  0  0  0  0  0
  193.8590  175.2350  144.3270 C   0  0  0  0  0  3  0  0  0  0  0  0
  192.7810  173.2290  139.6370 C   0  0  0  0  0  3  0  0  0  0  0  0
  191.9000  175.9710  145.5430 C   0  0  0  0  0  0  0  0  0  0  0  0
  192.7180  176.3690  146.6050 C   0  0  0  0  0  3  0  0  0  0  0  0
  189.3340  174.8470  142.4980 N   0  0  0  0  0  0  0  0  0  0  0  0
  191.0550  174.0610  141.1190 C   0  0  0  0  0  0  0  0  0  0  0  0
  191.4350  173.4780  139.9060 C   0  0  0  0  0  3  0  0  0  0  0  0
  185.2570  179.2390  144.7120 C   0  0  1  0  0  3  0  0  0  0  0  0
  185.5600  176.7530  144.5390 C   0  0  0  0  0  2  0  0  0  0  0  0
  186.2360  177.9040  148.0580 O   0  0  0  0  0  1  0  0  0  0  0  0
  185.5110  180.4550  144.0810 O   0  0  0  0  0  1  0  0  0  0  0  0
  185.8160  178.1010  143.8630 C   0  0  0  0  0  2  0  0  0  0  0  0
  185.6490  177.9050  146.7920 C   0  0  2  0  0  3  0  0  0  0  0  0
  186.1430  176.7120  145.9560 C   0  0  2  0  0  3  0  0  0  0  0  0
  185.9070  179.2370  146.0920 C   0  0  0  0  0  2  0  0  0  0  0  0
  1  8  1  0  0  0  0
  2 15  1  0  0  0  0
  2  7  1  0  0  0  0
  3  2  2  0  0  0  0
  5  4  2  0  0  0  0
  6  9  2  0  0  0  0
  7 19  2  0  0  0  0
  8 20  2  0  0  0  0
  9  3  1  0  0  0  0
 10 16  1  0  0  0  0
 10 14  2  0  0  0  0
 11  1  1  0  0  0  0
 12 21  1  0  0  0  0
 13  6  1  0  0  0  0
 15 10  1  0  0  0  0
 16  5  1  0  0  0  0
 17  7  1  0  0  0  0
 17  1  2  0  0  0  0
 18 23  2  0  0  0  0
 18  6  1  0  0  0  0
 19 14  1  0  0  0  0
 19 20  1  0  0  0  0
 21 15  2  0  0  0  0
 22 12  2  0  0  0  0
 22  3  1  0  0  0  0
 23 22  1  0  0  0  0
 24 27  1  6  0  0  0
 24 31  1  0  0  0  0
 25 30  1  0  0  0  0
 28 25  1  0  0  0  0
 28 24  1  0  0  0  0
 29 26  1  1  0  0  0
 30  5  1  6  0  0  0
 30 29  1  0  0  0  0
 31 29  1  0  0  0  0
M  END
>  <MODEL>
9

>  <REMARK>
 VINA RESULT:      -8.3      3.335      7.382
  Name = 
  1 active torsions:
  status: ('A' for Active; 'I' for Inactive)
    1  A    between atoms: C_5  and  C_30
                            x       y       z     vdW  Elec       q    Type
                         _______ _______ _______ _____ _____    ______ ____

>  <TORSDO>
F 1

$$$$
