=
 OpenBabel11112417383D

 28 32  0  0  1  0  0  0  0  0999 V2000
  188.4090  176.7360  144.6290 C   0  0  0  0  0  0  0  0  0  0  0  0
  188.8600  173.6320  142.8380 O   0  0  0  0  0  0  0  0  0  0  0  0
  194.5710  176.5230  146.3500 O   0  0  0  0  0  0  0  0  0  0  0  0
  187.9320  178.1670  142.2670 C   0  0  0  0  0  3  0  0  0  0  0  0
  194.1280  176.2850  144.0550 N   0  0  0  0  0  0  0  0  0  0  0  0
  188.6610  176.0400  145.9280 C   0  0  0  0  0  2  0  0  0  0  0  0
  190.1320  173.3400  140.7520 O   0  0  0  0  0  0  0  0  0  0  0  0
  190.2330  173.6200  142.2240 S   0  0  0  0  0  0  0  0  0  0  0  0
  192.4220  172.7630  143.6250 C   0  0  0  0  0  0  0  0  0  0  0  0
  191.0470  175.1790  142.4730 C   0  0  2  0  0  3  0  0  0  0  0  0
  191.3390  176.8720  148.3750 O   0  0  0  0  0  1  0  0  0  0  0  0
  191.8010  176.8200  144.0850 C   0  0  2  0  0  3  0  0  0  0  0  0
  192.9690  173.9350  143.4860 N   0  0  0  0  0  0  0  0  0  0  0  0
  191.2000  172.4150  142.9770 N   0  0  0  0  0  2  0  0  0  0  0  0
  190.6800  176.1040  147.4160 C   0  0  2  0  0  3  0  0  0  0  0  0
  189.3500  176.6910  143.5790 C   0  0  0  0  0  0  0  0  0  0  0  0
  193.7470  176.5130  145.3960 C   0  0  0  0  0  0  0  0  0  0  0  0
  193.0570  171.7770  144.5360 C   0  0  0  0  0  1  0  0  0  0  0  0
  191.6780  175.6060  146.3690 C   0  0  0  0  0  2  0  0  0  0  0  0
  189.1060  177.4210  142.4060 C   0  0  0  0  0  3  0  0  0  0  0  0
  187.2390  177.4900  144.4830 C   0  0  0  0  0  3  0  0  0  0  0  0
  186.9980  178.1990  143.3050 C   0  0  0  0  0  3  0  0  0  0  0  0
  189.5430  176.9140  146.8050 C   0  0  0  0  0  2  0  0  0  0  0  0
  192.9710  176.3800  143.1830 C   0  0  2  0  0  3  0  0  0  0  0  0
  192.2950  176.7500  145.5570 C   0  0  2  0  0  3  0  0  0  0  0  0
  192.5570  175.0290  142.5870 C   0  0  2  0  0  3  0  0  0  0  0  0
  195.4930  176.0970  143.5930 C   0  0  0  0  0  1  0  0  0  0  0  0
  190.6250  175.9060  143.7390 C   0  0  1  0  0  3  0  0  0  0  0  0
  1  6  1  0  0  0  0
  4 20  2  0  0  0  0
  4 22  1  0  0  0  0
  5 17  1  0  0  0  0
  6 23  1  0  0  0  0
  7  8  2  0  0  0  0
  8  2  2  0  0  0  0
  8 14  1  0  0  0  0
  9 18  1  0  0  0  0
 10  8  1  1  0  0  0
 10 26  1  0  0  0  0
 10 28  1  0  0  0  0
 12 25  1  0  0  0  0
 13  9  2  0  0  0  0
 14  9  1  0  0  0  0
 15 11  1  0  0  0  0
 16 28  1  0  0  0  0
 16  1  2  0  0  0  0
 17 25  1  0  0  0  0
 17  3  2  0  0  0  0
 19 15  1  0  0  0  0
 20 16  1  0  0  0  0
 21  1  1  0  0  0  0
 22 21  2  0  0  0  0
 23 15  1  0  0  0  0
 24  5  1  0  0  0  0
 24 12  1  0  0  0  0
 25 19  1  0  0  0  0
 26 24  1  0  0  0  0
 26 13  1  0  0  0  0
 27  5  1  0  0  0  0
 28 12  1  0  0  0  0
M  END
>  <MODEL>
1

>  <REMARK>
 VINA RESULT:      -8.1      0.000      0.000
  Name = 
  0 active torsions:
  status: ('A' for Active; 'I' for Inactive)
                            x       y       z     vdW  Elec       q    Type
                         _______ _______ _______ _____ _____    ______ ____

>  <TORSDO>
F 0

$$$$
=
 OpenBabel11112417383D

 28 32  0  0  1  0  0  0  0  0999 V2000
  188.5700  175.9150  145.5410 C   0  0  0  0  0  0  0  0  0  0  0  0
  189.3550  172.5970  144.3500 O   0  0  0  0  0  0  0  0  0  0  0  0
  194.8370  177.0840  146.1140 O   0  0  0  0  0  0  0  0  0  0  0  0
  187.4880  176.6750  143.0700 C   0  0  0  0  0  3  0  0  0  0  0  0
  194.1230  176.2620  144.0320 N   0  0  0  0  0  0  0  0  0  0  0  0
  189.1370  175.5830  146.8840 C   0  0  0  0  0  2  0  0  0  0  0  0
  190.3450  172.0430  142.1660 O   0  0  0  0  0  0  0  0  0  0  0  0
  190.6000  172.6640  143.5100 S   0  0  0  0  0  0  0  0  0  0  0  0
  193.0930  172.5090  144.6290 C   0  0  0  0  0  0  0  0  0  0  0  0
  191.1220  174.3480  143.2920 C   0  0  2  0  0  3  0  0  0  0  0  0
  191.9250  177.3670  148.5860 O   0  0  0  0  0  1  0  0  0  0  0  0
  191.7660  176.4120  144.3800 C   0  0  2  0  0  3  0  0  0  0  0  0
  193.3750  173.6900  144.1620 N   0  0  0  0  0  0  0  0  0  0  0  0
  191.8830  171.8320  144.2960 N   0  0  0  0  0  2  0  0  0  0  0  0
  191.2980  176.3060  147.9350 C   0  0  2  0  0  3  0  0  0  0  0  0
  189.3410  175.7820  144.3670 C   0  0  0  0  0  0  0  0  0  0  0  0
  193.9030  176.7250  145.3470 C   0  0  0  0  0  0  0  0  0  0  0  0
  194.0330  171.8700  145.5850 C   0  0  0  0  0  1  0  0  0  0  0  0
  192.2120  175.7470  146.8430 C   0  0  0  0  0  2  0  0  0  0  0  0
  188.7920  176.1770  143.1370 C   0  0  0  0  0  3  0  0  0  0  0  0
  187.2670  176.4200  145.4650 C   0  0  0  0  0  3  0  0  0  0  0  0
  186.7250  176.7940  144.2340 C   0  0  0  0  0  3  0  0  0  0  0  0
  189.9490  176.7620  147.3940 C   0  0  0  0  0  2  0  0  0  0  0  0
  192.8570  175.9700  143.3850 C   0  0  2  0  0  3  0  0  0  0  0  0
  192.4710  176.7590  145.7210 C   0  0  2  0  0  3  0  0  0  0  0  0
  192.6330  174.4700  143.1540 C   0  0  2  0  0  3  0  0  0  0  0  0
  195.4180  176.1930  143.3750 C   0  0  0  0  0  1  0  0  0  0  0  0
  190.7530  175.2680  144.4430 C   0  0  1  0  0  3  0  0  0  0  0  0
  1  6  1  0  0  0  0
  4 20  2  0  0  0  0
  4 22  1  0  0  0  0
  5 17  1  0  0  0  0
  6 23  1  0  0  0  0
  7  8  2  0  0  0  0
  8 14  1  0  0  0  0
  8  2  2  0  0  0  0
  9 18  1  0  0  0  0
 10  8  1  1  0  0  0
 10 28  1  0  0  0  0
 12 28  1  0  0  0  0
 12 25  1  0  0  0  0
 13  9  2  0  0  0  0
 14  9  1  0  0  0  0
 15 11  1  0  0  0  0
 16 28  1  0  0  0  0
 16  1  2  0  0  0  0
 17 25  1  0  0  0  0
 17  3  2  0  0  0  0
 19 15  1  0  0  0  0
 20 16  1  0  0  0  0
 21  1  1  0  0  0  0
 22 21  2  0  0  0  0
 23 15  1  0  0  0  0
 24  5  1  0  0  0  0
 24 12  1  0  0  0  0
 25 19  1  0  0  0  0
 26 10  1  0  0  0  0
 26 24  1  0  0  0  0
 26 13  1  0  0  0  0
 27  5  1  0  0  0  0
M  END
>  <MODEL>
2

>  <REMARK>
 VINA RESULT:      -8.0      1.084      1.163
  Name = 
  0 active torsions:
  status: ('A' for Active; 'I' for Inactive)
                            x       y       z     vdW  Elec       q    Type
                         _______ _______ _______ _____ _____    ______ ____

>  <TORSDO>
F 0

$$$$
=
 OpenBabel11112417383D

 28 32  0  0  1  0  0  0  0  0999 V2000
  187.4810  177.1630  144.4600 C   0  0  0  0  0  0  0  0  0  0  0  0
  187.6110  174.0680  142.6040 O   0  0  0  0  0  0  0  0  0  0  0  0
  193.6950  176.4820  145.8400 O   0  0  0  0  0  0  0  0  0  0  0  0
  186.9830  178.6660  142.1480 C   0  0  0  0  0  3  0  0  0  0  0  0
  193.1140  176.3170  143.5690 N   0  0  0  0  0  0  0  0  0  0  0  0
  187.7510  176.4280  145.7330 C   0  0  0  0  0  2  0  0  0  0  0  0
  188.7460  173.7230  140.4470 O   0  0  0  0  0  0  0  0  0  0  0  0
  188.9450  173.9680  141.9160 S   0  0  0  0  0  0  0  0  0  0  0  0
  191.1380  172.9330  143.1830 C   0  0  0  0  0  0  0  0  0  0  0  0
  189.8810  175.4610  142.1420 C   0  0  2  0  0  3  0  0  0  0  0  0
  190.6090  177.0230  148.0430 O   0  0  0  0  0  1  0  0  0  0  0  0
  190.8370  177.0150  143.7340 C   0  0  2  0  0  3  0  0  0  0  0  0
  191.7600  174.0660  143.0310 N   0  0  0  0  0  0  0  0  0  0  0  0
  189.8620  172.6840  142.5970 N   0  0  0  0  0  2  0  0  0  0  0  0
  189.8460  176.3210  147.1100 C   0  0  2  0  0  3  0  0  0  0  0  0
  188.3590  177.0700  143.3600 C   0  0  0  0  0  0  0  0  0  0  0  0
  192.8230  176.5470  144.9320 C   0  0  0  0  0  0  0  0  0  0  0  0
  191.7480  171.8880  144.0440 C   0  0  0  0  0  1  0  0  0  0  0  0
  190.7480  175.7720  146.0030 C   0  0  0  0  0  2  0  0  0  0  0  0
  188.1060  177.8370  142.2120 C   0  0  0  0  0  3  0  0  0  0  0  0
  186.3620  178.0010  144.3890 C   0  0  0  0  0  3  0  0  0  0  0  0
  186.1110  178.7460  143.2350 C   0  0  0  0  0  3  0  0  0  0  0  0
  188.7390  177.2200  146.5730 C   0  0  0  0  0  2  0  0  0  0  0  0
  191.9220  176.5100  142.7630 C   0  0  2  0  0  3  0  0  0  0  0  0
  191.4020  176.8840  145.1750 C   0  0  2  0  0  3  0  0  0  0  0  0
  191.3810  175.2020  142.1710 C   0  0  2  0  0  3  0  0  0  0  0  0
  194.4350  176.0410  143.0310 C   0  0  0  0  0  1  0  0  0  0  0  0
  189.5810  176.1940  143.4390 C   0  0  1  0  0  3  0  0  0  0  0  0
  1  6  1  0  0  0  0
  4 20  2  0  0  0  0
  4 22  1  0  0  0  0
  5 17  1  0  0  0  0
  6 23  1  0  0  0  0
  7  8  2  0  0  0  0
  8 14  1  0  0  0  0
  8  2  2  0  0  0  0
  9 18  1  0  0  0  0
 10  8  1  1  0  0  0
 10 26  1  0  0  0  0
 10 28  1  0  0  0  0
 12 25  1  0  0  0  0
 13  9  2  0  0  0  0
 14  9  1  0  0  0  0
 15 11  1  0  0  0  0
 16 28  1  0  0  0  0
 16  1  2  0  0  0  0
 17 25  1  0  0  0  0
 17  3  2  0  0  0  0
 19 15  1  0  0  0  0
 20 16  1  0  0  0  0
 21  1  1  0  0  0  0
 22 21  2  0  0  0  0
 23 15  1  0  0  0  0
 24  5  1  0  0  0  0
 24 12  1  0  0  0  0
 25 19  1  0  0  0  0
 26 24  1  0  0  0  0
 26 13  1  0  0  0  0
 27  5  1  0  0  0  0
 28 12  1  0  0  0  0
M  END
>  <MODEL>
3

>  <REMARK>
 VINA RESULT:      -7.9      1.068      1.150
  Name = 
  0 active torsions:
  status: ('A' for Active; 'I' for Inactive)
                            x       y       z     vdW  Elec       q    Type
                         _______ _______ _______ _____ _____    ______ ____

>  <TORSDO>
F 0

$$$$
=
 OpenBabel11112417383D

 28 32  0  0  1  0  0  0  0  0999 V2000
  186.3830  178.2450  144.4020 C   0  0  0  0  0  0  0  0  0  0  0  0
  189.6910  178.2910  145.8500 O   0  0  0  0  0  0  0  0  0  0  0  0
  188.4970  174.1610  139.9480 O   0  0  0  0  0  0  0  0  0  0  0  0
  185.2830  177.0030  146.6600 C   0  0  0  0  0  3  0  0  0  0  0  0
  188.9320  173.5750  142.1820 N   0  0  0  0  0  0  0  0  0  0  0  0
  186.9010  178.9010  143.1620 C   0  0  0  0  0  2  0  0  0  0  0  0
  190.7550  176.4440  147.0810 O   0  0  0  0  0  0  0  0  0  0  0  0
  190.2930  176.9180  145.7320 S   0  0  0  0  0  0  0  0  0  0  0  0
  191.6340  176.1290  143.4800 C   0  0  0  0  0  0  0  0  0  0  0  0
  189.1090  175.7670  145.0770 C   0  0  2  0  0  3  0  0  0  0  0  0
  186.6910  177.5310  139.7080 O   0  0  0  0  0  1  0  0  0  0  0  0
  187.6050  175.2460  143.2530 C   0  0  2  0  0  3  0  0  0  0  0  0
  190.7740  175.1690  143.3060 N   0  0  0  0  0  0  0  0  0  0  0  0
  191.6240  176.9520  144.6440 N   0  0  0  0  0  2  0  0  0  0  0  0
  187.3190  177.9270  140.8880 C   0  0  2  0  0  3  0  0  0  0  0  0
  186.9320  177.0340  144.8740 C   0  0  0  0  0  0  0  0  0  0  0  0
  188.3690  174.3960  141.1800 C   0  0  0  0  0  0  0  0  0  0  0  0
  192.6180  176.4160  142.4070 C   0  0  0  0  0  1  0  0  0  0  0  0
  188.3050  176.8500  141.3440 C   0  0  0  0  0  2  0  0  0  0  0  0
  186.3650  176.4160  145.9990 C   0  0  0  0  0  3  0  0  0  0  0  0
  185.2960  178.8230  145.0670 C   0  0  0  0  0  3  0  0  0  0  0  0
  184.7510  178.2070  146.1950 C   0  0  0  0  0  3  0  0  0  0  0  0
  186.2690  178.2470  141.9440 C   0  0  0  0  0  2  0  0  0  0  0  0
  188.5750  174.0730  143.4980 C   0  0  2  0  0  3  0  0  0  0  0  0
  187.6060  175.5400  141.7270 C   0  0  2  0  0  3  0  0  0  0  0  0
  189.7670  174.6650  144.2590 C   0  0  2  0  0  3  0  0  0  0  0  0
  189.6680  172.3460  141.9390 C   0  0  0  0  0  1  0  0  0  0  0  0
  188.0830  176.3910  144.1470 C   0  0  1  0  0  3  0  0  0  0  0  0
  1 16  2  0  0  0  0
  1 21  1  0  0  0  0
  3 17  2  0  0  0  0
  5 24  1  0  0  0  0
  6  1  1  0  0  0  0
  8  2  2  0  0  0  0
  8  7  2  0  0  0  0
  9 14  1  0  0  0  0
 10  8  1  6  0  0  0
 11 15  1  0  0  0  0
 12 24  1  0  0  0  0
 12 28  1  0  0  0  0
 13  9  2  0  0  0  0
 13 26  1  0  0  0  0
 14  8  1  0  0  0  0
 15 19  1  0  0  0  0
 15 23  1  0  0  0  0
 16 20  1  0  0  0  0
 17 25  1  0  0  0  0
 17  5  1  0  0  0  0
 18  9  1  0  0  0  0
 19 25  1  0  0  0  0
 20  4  2  0  0  0  0
 21 22  2  0  0  0  0
 22  4  1  0  0  0  0
 23  6  1  0  0  0  0
 24 26  1  0  0  0  0
 25 12  1  0  0  0  0
 26 10  1  0  0  0  0
 27  5  1  0  0  0  0
 28 16  1  0  0  0  0
 28 10  1  0  0  0  0
M  END
>  <MODEL>
4

>  <REMARK>
 VINA RESULT:      -7.9      2.479      5.472
  Name = 
  0 active torsions:
  status: ('A' for Active; 'I' for Inactive)
                            x       y       z     vdW  Elec       q    Type
                         _______ _______ _______ _____ _____    ______ ____

>  <TORSDO>
F 0

$$$$
=
 OpenBabel11112417383D

 28 32  0  0  1  0  0  0  0  0999 V2000
  186.2430  176.8130  142.9510 C   0  0  0  0  0  0  0  0  0  0  0  0
  187.0660  173.5150  141.7300 O   0  0  0  0  0  0  0  0  0  0  0  0
  191.7770  176.8960  146.1670 O   0  0  0  0  0  0  0  0  0  0  0  0
  186.3970  177.9300  140.3850 C   0  0  0  0  0  3  0  0  0  0  0  0
  191.9150  176.3670  143.8820 N   0  0  0  0  0  0  0  0  0  0  0  0
  186.1510  176.2890  144.3480 C   0  0  0  0  0  2  0  0  0  0  0  0
  188.8120  172.9790  140.0800 O   0  0  0  0  0  0  0  0  0  0  0  0
  188.5480  173.4430  141.4850 S   0  0  0  0  0  0  0  0  0  0  0  0
  190.3030  172.7960  143.4830 C   0  0  0  0  0  0  0  0  0  0  0  0
  189.3040  175.0310  141.7320 C   0  0  2  0  0  3  0  0  0  0  0  0
  188.1500  177.4550  147.2630 O   0  0  0  0  0  1  0  0  0  0  0  0
  189.6650  176.8710  143.2640 C   0  0  2  0  0  3  0  0  0  0  0  0
  190.8890  173.9490  143.3390 N   0  0  0  0  0  0  0  0  0  0  0  0
  189.2750  172.3540  142.5990 N   0  0  0  0  0  2  0  0  0  0  0  0
  187.7360  176.5640  146.2730 C   0  0  2  0  0  3  0  0  0  0  0  0
  187.4150  176.6480  142.1830 C   0  0  0  0  0  0  0  0  0  0  0  0
  191.2170  176.7550  145.0470 C   0  0  0  0  0  0  0  0  0  0  0  0
  190.6720  171.9400  144.6380 C   0  0  0  0  0  1  0  0  0  0  0  0
  188.9540  175.9510  145.5780 C   0  0  0  0  0  2  0  0  0  0  0  0
  187.4840  177.2230  140.9040 C   0  0  0  0  0  3  0  0  0  0  0  0
  185.1610  177.5280  142.4260 C   0  0  0  0  0  3  0  0  0  0  0  0
  185.2350  178.0800  141.1450 C   0  0  0  0  0  3  0  0  0  0  0  0
  186.8030  177.2760  145.3020 C   0  0  0  0  0  2  0  0  0  0  0  0
  191.0140  176.3370  142.7440 C   0  0  2  0  0  3  0  0  0  0  0  0
  189.7760  176.9920  144.8090 C   0  0  2  0  0  3  0  0  0  0  0  0
  190.7360  174.9160  142.2370 C   0  0  2  0  0  3  0  0  0  0  0  0
  193.3480  176.1390  143.8020 C   0  0  0  0  0  1  0  0  0  0  0  0
  188.5940  175.9060  142.7520 C   0  0  1  0  0  3  0  0  0  0  0  0
  1  6  1  0  0  0  0
  4 20  2  0  0  0  0
  4 22  1  0  0  0  0
  5 17  1  0  0  0  0
  6 23  1  0  0  0  0
  7  8  2  0  0  0  0
  8  2  2  0  0  0  0
  8 14  1  0  0  0  0
  9 18  1  0  0  0  0
 10  8  1  1  0  0  0
 10 26  1  0  0  0  0
 10 28  1  0  0  0  0
 12 25  1  0  0  0  0
 13  9  2  0  0  0  0
 14  9  1  0  0  0  0
 15 11  1  0  0  0  0
 16 28  1  0  0  0  0
 16  1  2  0  0  0  0
 17  3  2  0  0  0  0
 19 15  1  0  0  0  0
 20 16  1  0  0  0  0
 21  1  1  0  0  0  0
 22 21  2  0  0  0  0
 23 15  1  0  0  0  0
 24 12  1  0  0  0  0
 24  5  1  0  0  0  0
 25 17  1  0  0  0  0
 25 19  1  0  0  0  0
 26 24  1  0  0  0  0
 26 13  1  0  0  0  0
 27  5  1  0  0  0  0
 28 12  1  0  0  0  0
M  END
>  <MODEL>
5

>  <REMARK>
 VINA RESULT:      -7.9      1.793      2.467
  Name = 
  0 active torsions:
  status: ('A' for Active; 'I' for Inactive)
                            x       y       z     vdW  Elec       q    Type
                         _______ _______ _______ _____ _____    ______ ____

>  <TORSDO>
F 0

$$$$
=
 OpenBabel11112417383D

 28 32  0  0  1  0  0  0  0  0999 V2000
  188.2430  176.1820  144.0430 C   0  0  0  0  0  0  0  0  0  0  0  0
  191.6030  177.4500  144.4190 O   0  0  0  0  0  0  0  0  0  0  0  0
  190.6620  170.7640  141.6410 O   0  0  0  0  0  0  0  0  0  0  0  0
  187.8300  176.1190  146.8140 C   0  0  0  0  0  3  0  0  0  0  0  0
  191.5480  171.4710  143.6990 N   0  0  0  0  0  0  0  0  0  0  0  0
  188.3930  176.1820  142.5550 C   0  0  0  0  0  2  0  0  0  0  0  0
  193.2660  176.6720  146.0570 O   0  0  0  0  0  0  0  0  0  0  0  0
  192.5110  176.3160  144.8080 S   0  0  0  0  0  0  0  0  0  0  0  0
  193.6700  174.6980  142.9300 C   0  0  0  0  0  0  0  0  0  0  0  0
  191.5760  174.8310  145.0870 C   0  0  2  0  0  3  0  0  0  0  0  0
  188.0450  173.2280  140.3180 O   0  0  0  0  0  1  0  0  0  0  0  0
  190.0080  173.2360  144.1610 C   0  0  2  0  0  3  0  0  0  0  0  0
  193.0660  173.6680  143.4460 N   0  0  0  0  0  0  0  0  0  0  0  0
  193.6190  175.9880  143.5350 N   0  0  0  0  0  2  0  0  0  0  0  0
  188.7140  174.2590  140.9760 C   0  0  2  0  0  3  0  0  0  0  0  0
  189.1430  175.4790  144.8700 C   0  0  0  0  0  0  0  0  0  0  0  0
  190.6560  171.5720  142.6080 C   0  0  0  0  0  0  0  0  0  0  0  0
  194.3850  174.5400  141.6380 C   0  0  0  0  0  1  0  0  0  0  0  0
  189.9960  173.7250  141.6180 C   0  0  0  0  0  2  0  0  0  0  0  0
  188.9190  175.4440  146.2550 C   0  0  0  0  0  3  0  0  0  0  0  0
  187.1510  176.8500  144.6100 C   0  0  0  0  0  3  0  0  0  0  0  0
  186.9480  176.8230  145.9910 C   0  0  0  0  0  3  0  0  0  0  0  0
  187.7800  174.9130  141.9860 C   0  0  0  0  0  2  0  0  0  0  0  0
  191.2680  172.5110  144.6720 C   0  0  2  0  0  3  0  0  0  0  0  0
  189.7140  172.7080  142.7290 C   0  0  2  0  0  3  0  0  0  0  0  0
  192.3680  173.5780  144.7420 C   0  0  2  0  0  3  0  0  0  0  0  0
  192.5290  170.4150  143.8820 C   0  0  0  0  0  1  0  0  0  0  0  0
  190.3020  174.7340  144.2650 C   0  0  1  0  0  3  0  0  0  0  0  0
  1 21  2  0  0  0  0
  1 16  1  0  0  0  0
  2  8  2  0  0  0  0
  3 17  2  0  0  0  0
  5 27  1  0  0  0  0
  5 24  1  0  0  0  0
  6  1  1  0  0  0  0
  8  7  2  0  0  0  0
  9 13  2  0  0  0  0
  9 14  1  0  0  0  0
 10  8  1  6  0  0  0
 11 15  1  0  0  0  0
 12 28  1  0  0  0  0
 12 24  1  0  0  0  0
 13 26  1  0  0  0  0
 14  8  1  0  0  0  0
 15 19  1  0  0  0  0
 15 23  1  0  0  0  0
 16 20  2  0  0  0  0
 17 25  1  0  0  0  0
 17  5  1  0  0  0  0
 18  9  1  0  0  0  0
 19 25  1  0  0  0  0
 20  4  1  0  0  0  0
 21 22  1  0  0  0  0
 22  4  2  0  0  0  0
 23  6  1  0  0  0  0
 24 26  1  0  0  0  0
 25 12  1  0  0  0  0
 26 10  1  0  0  0  0
 28 16  1  0  0  0  0
 28 10  1  0  0  0  0
M  END
>  <MODEL>
6

>  <REMARK>
 VINA RESULT:      -7.7      2.035      4.882
  Name = 
  0 active torsions:
  status: ('A' for Active; 'I' for Inactive)
                            x       y       z     vdW  Elec       q    Type
                         _______ _______ _______ _____ _____    ______ ____

>  <TORSDO>
F 0

$$$$
=
 OpenBabel11112417383D

 28 32  0  0  1  0  0  0  0  0999 V2000
  192.2400  174.0990  145.1290 C   0  0  0  0  0  0  0  0  0  0  0  0
  190.3040  175.8490  147.6250 O   0  0  0  0  0  0  0  0  0  0  0  0
  187.8160  175.6340  140.7640 O   0  0  0  0  0  0  0  0  0  0  0  0
  194.3510  175.9340  145.3090 C   0  0  0  0  0  3  0  0  0  0  0  0
  188.6700  177.4110  142.0430 N   0  0  0  0  0  0  0  0  0  0  0  0
  191.1520  173.0860  144.9730 C   0  0  0  0  0  2  0  0  0  0  0  0
  190.0190  178.2880  147.7850 O   0  0  0  0  0  0  0  0  0  0  0  0
  189.6740  177.0590  146.9920 S   0  0  0  0  0  0  0  0  0  0  0  0
  187.2720  176.9090  145.6900 C   0  0  0  0  0  0  0  0  0  0  0  0
  190.2380  177.2590  145.3200 C   0  0  2  0  0  3  0  0  0  0  0  0
  189.3390  172.2830  141.8230 O   0  0  0  0  0  1  0  0  0  0  0  0
  190.4460  176.2440  143.1310 C   0  0  2  0  0  3  0  0  0  0  0  0
  187.8430  177.3120  144.5920 N   0  0  0  0  0  0  0  0  0  0  0  0
  187.9670  176.8690  146.9340 N   0  0  0  0  0  2  0  0  0  0  0  0
  189.4940  172.7860  143.1140 C   0  0  2  0  0  3  0  0  0  0  0  0
  191.9900  175.4760  144.9490 C   0  0  0  0  0  0  0  0  0  0  0  0
  188.6190  176.0590  141.6380 C   0  0  0  0  0  0  0  0  0  0  0  0
  185.8710  176.4200  145.6330 C   0  0  0  0  0  1  0  0  0  0  0  0
  188.8790  174.1840  143.2090 C   0  0  0  0  0  2  0  0  0  0  0  0
  193.0580  176.3840  145.0300 C   0  0  0  0  0  3  0  0  0  0  0  0
  193.5400  173.6570  145.4020 C   0  0  0  0  0  3  0  0  0  0  0  0
  194.5910  174.5710  145.4970 C   0  0  0  0  0  3  0  0  0  0  0  0
  190.9680  172.7660  143.4990 C   0  0  0  0  0  2  0  0  0  0  0  0
  189.7230  177.6010  143.0240 C   0  0  2  0  0  3  0  0  0  0  0  0
  189.6100  175.2060  142.3320 C   0  0  2  0  0  3  0  0  0  0  0  0
  189.1850  177.9030  144.4290 C   0  0  2  0  0  3  0  0  0  0  0  0
  187.8670  178.4830  141.4800 C   0  0  0  0  0  1  0  0  0  0  0  0
  190.6010  175.9570  144.6260 C   0  0  1  0  0  3  0  0  0  0  0  0
  1 21  1  0  0  0  0
  3 17  2  0  0  0  0
  4 22  1  0  0  0  0
  5 24  1  0  0  0  0
  6  1  1  0  0  0  0
  8  2  2  0  0  0  0
  8  7  2  0  0  0  0
  9 14  1  0  0  0  0
 10  8  1  1  0  0  0
 11 15  1  0  0  0  0
 12 28  1  0  0  0  0
 13  9  2  0  0  0  0
 14  8  1  0  0  0  0
 15 19  1  0  0  0  0
 15 23  1  0  0  0  0
 16 20  1  0  0  0  0
 16  1  2  0  0  0  0
 17  5  1  0  0  0  0
 17 25  1  0  0  0  0
 18  9  1  0  0  0  0
 20  4  2  0  0  0  0
 21 22  2  0  0  0  0
 23  6  1  0  0  0  0
 24 12  1  0  0  0  0
 24 26  1  0  0  0  0
 25 12  1  0  0  0  0
 25 19  1  0  0  0  0
 26 13  1  0  0  0  0
 26 10  1  0  0  0  0
 27  5  1  0  0  0  0
 28 16  1  0  0  0  0
 28 10  1  0  0  0  0
M  END
>  <MODEL>
7

>  <REMARK>
 VINA RESULT:      -7.6      2.835      6.114
  Name = 
  0 active torsions:
  status: ('A' for Active; 'I' for Inactive)
                            x       y       z     vdW  Elec       q    Type
                         _______ _______ _______ _____ _____    ______ ____

>  <TORSDO>
F 0

$$$$
=
 OpenBabel11112417383D

 28 32  0  0  1  0  0  0  0  0999 V2000
  189.6790  175.7040  146.2080 C   0  0  0  0  0  0  0  0  0  0  0  0
  189.5740  172.2840  145.0530 O   0  0  0  0  0  0  0  0  0  0  0  0
  195.3630  176.3920  143.3440 O   0  0  0  0  0  0  0  0  0  0  0  0
  187.4980  176.4360  144.6070 C   0  0  0  0  0  3  0  0  0  0  0  0
  193.6280  175.5370  142.0100 N   0  0  0  0  0  0  0  0  0  0  0  0
  190.8510  175.3880  147.0810 C   0  0  0  0  0  2  0  0  0  0  0  0
  189.2480  171.5540  142.7250 O   0  0  0  0  0  0  0  0  0  0  0  0
  190.1970  172.2120  143.6860 S   0  0  0  0  0  0  0  0  0  0  0  0
  192.8970  171.9080  143.3540 C   0  0  0  0  0  0  0  0  0  0  0  0
  190.6020  173.8370  143.0940 C   0  0  2  0  0  3  0  0  0  0  0  0
  194.1940  177.0170  146.9380 O   0  0  0  0  0  1  0  0  0  0  0  0
  191.8120  175.8900  143.5200 C   0  0  2  0  0  3  0  0  0  0  0  0
  192.9450  173.0410  142.7160 N   0  0  0  0  0  0  0  0  0  0  0  0
  191.6630  171.3170  143.7550 N   0  0  0  0  0  2  0  0  0  0  0  0
  193.2720  175.9820  146.7950 C   0  0  2  0  0  3  0  0  0  0  0  0
  189.7140  175.4570  144.8190 C   0  0  0  0  0  0  0  0  0  0  0  0
  194.1510  176.0750  143.2070 C   0  0  0  0  0  0  0  0  0  0  0  0
  194.1680  171.2400  143.7310 C   0  0  0  0  0  1  0  0  0  0  0  0
  193.4520  175.3030  145.4360 C   0  0  0  0  0  2  0  0  0  0  0  0
  188.6210  175.8390  144.0270 C   0  0  0  0  0  3  0  0  0  0  0  0
  188.5540  176.3080  146.7800 C   0  0  0  0  0  3  0  0  0  0  0  0
  187.4650  176.6670  145.9840 C   0  0  0  0  0  3  0  0  0  0  0  0
  191.8610  176.5200  146.9990 C   0  0  0  0  0  2  0  0  0  0  0  0
  192.1990  175.3180  142.1420 C   0  0  2  0  0  3  0  0  0  0  0  0
  193.1300  176.2400  144.2660 C   0  0  2  0  0  3  0  0  0  0  0  0
  191.8200  173.8320  142.1820 C   0  0  2  0  0  3  0  0  0  0  0  0
  194.3820  175.3350  140.7840 C   0  0  0  0  0  1  0  0  0  0  0  0
  190.9320  174.8350  144.1910 C   0  0  1  0  0  3  0  0  0  0  0  0
  1 21  1  0  0  0  0
  1  6  1  0  0  0  0
  4 22  1  0  0  0  0
  5 24  1  0  0  0  0
  5 17  1  0  0  0  0
  7  8  2  0  0  0  0
  8 14  1  0  0  0  0
  8  2  2  0  0  0  0
  9 18  1  0  0  0  0
  9 14  1  0  0  0  0
 10  8  1  1  0  0  0
 10 28  1  0  0  0  0
 12 28  1  0  0  0  0
 12 25  1  0  0  0  0
 13  9  2  0  0  0  0
 15 11  1  0  0  0  0
 15 23  1  0  0  0  0
 16  1  2  0  0  0  0
 17  3  2  0  0  0  0
 17 25  1  0  0  0  0
 19 15  1  0  0  0  0
 20  4  2  0  0  0  0
 20 16  1  0  0  0  0
 22 21  2  0  0  0  0
 23  6  1  0  0  0  0
 24 26  1  0  0  0  0
 24 12  1  0  0  0  0
 25 19  1  0  0  0  0
 26 13  1  0  0  0  0
 26 10  1  0  0  0  0
 27  5  1  0  0  0  0
 28 16  1  0  0  0  0
M  END
>  <MODEL>
8

>  <REMARK>
 VINA RESULT:      -7.6      1.654      2.252
  Name = 
  0 active torsions:
  status: ('A' for Active; 'I' for Inactive)
                            x       y       z     vdW  Elec       q    Type
                         _______ _______ _______ _____ _____    ______ ____

>  <TORSDO>
F 0

$$$$
=
 OpenBabel11112417383D

 28 32  0  0  1  0  0  0  0  0999 V2000
  187.2990  177.7600  144.6630 C   0  0  0  0  0  0  0  0  0  0  0  0
  190.7920  177.9550  145.5610 O   0  0  0  0  0  0  0  0  0  0  0  0
  188.7440  173.1660  140.4440 O   0  0  0  0  0  0  0  0  0  0  0  0
  186.5790  176.7990  147.1950 C   0  0  0  0  0  3  0  0  0  0  0  0
  189.5290  172.8450  142.6360 N   0  0  0  0  0  0  0  0  0  0  0  0
  187.6100  178.2610  143.2890 C   0  0  0  0  0  2  0  0  0  0  0  0
  192.0570  176.2600  146.8190 O   0  0  0  0  0  0  0  0  0  0  0  0
  191.3850  176.5740  145.5130 S   0  0  0  0  0  0  0  0  0  0  0  0
  192.3680  175.5170  143.1880 C   0  0  0  0  0  0  0  0  0  0  0  0
  190.1270  175.3610  145.1910 C   0  0  2  0  0  3  0  0  0  0  0  0
  186.8820  176.4950  140.0950 O   0  0  0  0  0  1  0  0  0  0  0  0
  188.3650  174.6380  143.6970 C   0  0  2  0  0  3  0  0  0  0  0  0
  191.5030  174.5480  143.2640 N   0  0  0  0  0  0  0  0  0  0  0  0
  192.5290  176.4720  144.2350 N   0  0  0  0  0  2  0  0  0  0  0  0
  187.6810  177.0240  141.1070 C   0  0  2  0  0  3  0  0  0  0  0  0
  187.9300  176.6100  145.1820 C   0  0  0  0  0  0  0  0  0  0  0  0
  188.8060  173.5450  141.6450 C   0  0  0  0  0  0  0  0  0  0  0  0
  193.1700  175.6690  141.9480 C   0  0  0  0  0  1  0  0  0  0  0  0
  188.7390  176.0020  141.5270 C   0  0  0  0  0  2  0  0  0  0  0  0
  187.5520  176.1310  146.4460 C   0  0  0  0  0  3  0  0  0  0  0  0
  186.3210  178.4190  145.4170 C   0  0  0  0  0  3  0  0  0  0  0  0
  185.9670  177.9440  146.6810 C   0  0  0  0  0  3  0  0  0  0  0  0
  186.8040  177.4730  142.2700 C   0  0  0  0  0  2  0  0  0  0  0  0
  189.3740  173.4960  143.9240 C   0  0  2  0  0  3  0  0  0  0  0  0
  188.1240  174.7510  142.1660 C   0  0  2  0  0  3  0  0  0  0  0  0
  190.6640  174.1670  144.4150 C   0  0  2  0  0  3  0  0  0  0  0  0
  190.2330  171.5910  142.4270 C   0  0  0  0  0  1  0  0  0  0  0  0
  188.9610  175.8780  144.3650 C   0  0  1  0  0  3  0  0  0  0  0  0
  1 16  2  0  0  0  0
  1 21  1  0  0  0  0
  3 17  2  0  0  0  0
  5 24  1  0  0  0  0
  6  1  1  0  0  0  0
  8  2  2  0  0  0  0
  8  7  2  0  0  0  0
  9 13  2  0  0  0  0
  9 14  1  0  0  0  0
 10  8  1  6  0  0  0
 11 15  1  0  0  0  0
 12 24  1  0  0  0  0
 12 28  1  0  0  0  0
 13 26  1  0  0  0  0
 14  8  1  0  0  0  0
 15 19  1  0  0  0  0
 15 23  1  0  0  0  0
 16 20  1  0  0  0  0
 17 25  1  0  0  0  0
 17  5  1  0  0  0  0
 18  9  1  0  0  0  0
 19 25  1  0  0  0  0
 20  4  2  0  0  0  0
 21 22  2  0  0  0  0
 22  4  1  0  0  0  0
 23  6  1  0  0  0  0
 24 26  1  0  0  0  0
 25 12  1  0  0  0  0
 26 10  1  0  0  0  0
 27  5  1  0  0  0  0
 28 16  1  0  0  0  0
 28 10  1  0  0  0  0
M  END
>  <MODEL>
9

>  <REMARK>
 VINA RESULT:      -7.4      2.188      5.128
  Name = 
  0 active torsions:
  status: ('A' for Active; 'I' for Inactive)
                            x       y       z     vdW  Elec       q    Type
                         _______ _______ _______ _____ _____    ______ ____

>  <TORSDO>
F 0

$$$$
