=
 OpenBabel11112417533D

 34 41  0  0  1  0  0  0  0  0999 V2000
  189.5630  174.7940  142.8770 C   0  0  0  0  0  0  0  0  0  0  0  0
  191.9470  173.9180  142.8430 C   0  0  0  0  0  2  0  0  0  0  0  0
  184.6860  178.0770  145.6340 C   0  0  1  0  0  3  0  0  0  0  0  0
  187.5040  176.1060  142.9620 C   0  0  0  0  0  0  0  0  0  0  0  0
  186.9130  177.3830  144.9710 C   0  0  2  0  0  3  0  0  0  0  0  0
  186.0830  178.5520  147.1650 C   0  0  0  0  0  2  0  0  0  0  0  0
  184.5570  178.4910  147.0830 C   0  0  0  0  0  2  0  0  0  0  0  0
  184.6650  178.7640  143.3340 C   0  0  0  0  0  2  0  0  0  0  0  0
  190.9040  174.3830  144.9810 C   0  0  2  0  0  3  0  0  0  0  0  0
  192.8880  175.5470  147.1060 C   0  0  0  0  0  2  0  0  0  0  0  0
  188.1450  176.9400  145.5530 N   0  0  0  0  0  2  0  0  0  0  0  0
  185.2340  177.3480  143.0450 C   0  0  0  0  0  2  0  0  0  0  0  0
  190.2680  175.6800  145.5170 C   0  0  1  0  0  3  0  0  0  0  0  0
  192.9800  173.6530  143.9220 C   0  0  0  0  0  2  0  0  0  0  0  0
  186.5720  176.9910  143.7100 C   0  0  2  0  0  3  0  0  0  0  0  0
  183.9890  178.8920  144.6470 N   0  0  0  0  0  2  0  0  0  0  0  0
  193.0670  175.4440  145.6600 N   0  0  0  0  0  0  0  0  0  0  0  0
  188.6310  175.5560  143.6060 C   0  0  0  0  0  0  0  0  0  0  0  0
  186.1390  178.4620  145.6530 C   0  0  2  0  0  3  0  0  0  0  0  0
  188.7940  175.7160  145.0980 C   0  0  2  0  0  3  0  0  0  0  0  0
  188.2370  175.1030  140.8710 C   0  0  0  0  0  3  0  0  0  0  0  0
  191.6870  176.4210  147.4350 C   0  0  0  0  0  2  0  0  0  0  0  0
  187.3160  175.8670  141.5920 C   0  0  0  0  0  3  0  0  0  0  0  0
  190.3860  175.7420  147.0350 C   0  0  0  0  0  2  0  0  0  0  0  0
  192.4090  174.1950  145.2410 C   0  0  1  0  0  3  0  0  0  0  0  0
  189.3610  174.5760  141.5080 C   0  0  0  0  0  3  0  0  0  0  0  0
  190.7360  174.2970  143.5400 N   0  0  0  0  0  0  0  0  0  0  0  0
  194.4050  175.3230  145.4620 O   0  0  0  0  0  0  0  0  0  0  0  0
  194.8160  176.5800  145.0040 C   0  0  0  0  0  2  0  0  0  0  0  0
  197.0960  174.8530  142.9530 C   0  0  0  0  0  2  0  0  0  0  0  0
  195.1970  176.2010  142.6270 N   0  0  0  0  0  2  0  0  0  0  0  0
  195.8530  176.4200  143.9060 C   0  0  2  0  0  3  0  0  0  0  0  0
  196.0350  175.2340  141.9590 C   0  0  0  0  0  2  0  0  0  0  0  0
  196.6870  175.3320  144.2000 O   0  0  0  0  0  0  0  0  0  0  0  0
  1 27  1  0  0  0  0
  1 18  1  0  0  0  0
  2 27  1  0  0  0  0
  2 14  1  0  0  0  0
  3 19  1  0  0  0  0
  3  7  1  1  0  0  0
  4 18  2  0  0  0  0
  4 15  1  0  0  0  0
  5 11  1  6  0  0  0
  5 19  1  0  0  0  0
  7  6  1  0  0  0  0
  8 16  1  0  0  0  0
  9 27  1  6  0  0  0
  9 25  1  0  0  0  0
  9 13  1  0  0  0  0
 10 22  1  0  0  0  0
 12  8  1  0  0  0  0
 13 24  1  1  0  0  0
 15 12  1  1  0  0  0
 15  5  1  0  0  0  0
 16  3  1  0  0  0  0
 17 10  1  0  0  0  0
 19  6  1  1  0  0  0
 20 18  1  6  0  0  0
 20 13  1  0  0  0  0
 20 11  1  0  0  0  0
 21 26  1  0  0  0  0
 21 23  2  0  0  0  0
 23  4  1  0  0  0  0
 24 22  1  0  0  0  0
 25 14  1  6  0  0  0
 25 17  1  0  0  0  0
 26  1  2  0  0  0  0
 28 17  1  0  0  0  0
 29 28  1  0  0  0  0
 30 34  1  0  0  0  0
 31 32  1  0  0  0  0
 32 34  1  0  0  0  0
 32 29  1  1  0  0  0
 33 31  1  0  0  0  0
 33 30  1  0  0  0  0
M  END
>  <MODEL>
1

>  <REMARK>
 VINA RESULT:      -8.9      0.000      0.000
  Name = 
  3 active torsions:
  status: ('A' for Active; 'I' for Inactive)
    1  A    between atoms: N_17  and  O_28
    2  A    between atoms: O_28  and  C_29
    3  A    between atoms: C_29  and  C_32
                            x       y       z     vdW  Elec       q    Type
                         _______ _______ _______ _____ _____    ______ ____

>  <TORSDO>
F 3

$$$$
=
 OpenBabel11112417533D

 34 41  0  0  1  0  0  0  0  0999 V2000
  190.5110  174.3610  142.6540 C   0  0  0  0  0  0  0  0  0  0  0  0
  192.9560  173.7510  142.3380 C   0  0  0  0  0  2  0  0  0  0  0  0
  185.6740  177.2020  145.9250 C   0  0  1  0  0  3  0  0  0  0  0  0
  188.3420  175.4420  142.9670 C   0  0  0  0  0  0  0  0  0  0  0  0
  187.8650  176.7290  145.0000 C   0  0  0  0  0  0  0  0  0  0  0  0
  187.1880  177.8900  147.2500 C   0  0  0  0  0  2  0  0  0  0  0  0
  185.6800  177.6580  147.3660 C   0  0  0  0  0  2  0  0  0  0  0  0
  185.2890  177.7870  143.6290 C   0  0  0  0  0  2  0  0  0  0  0  0
  192.1420  174.1860  144.5790 C   0  0  2  0  0  3  0  0  0  0  0  0
  194.2290  175.6470  146.3990 C   0  0  0  0  0  2  0  0  0  0  0  0
  189.2020  176.4470  145.4310 N   0  0  0  0  0  2  0  0  0  0  0  0
  185.9740  176.4310  143.3070 C   0  0  0  0  0  2  0  0  0  0  0  0
  191.4340  175.4270  145.1570 C   0  0  1  0  0  3  0  0  0  0  0  0
  194.1390  173.6440  143.2820 C   0  0  0  0  0  2  0  0  0  0  0  0
  187.4160  176.2500  143.8050 C   0  0  0  0  0  0  0  0  0  0  0  0
  184.7710  177.8930  145.0140 N   0  0  0  0  0  2  0  0  0  0  0  0
  194.2370  175.5050  144.9460 N   0  0  0  0  0  0  0  0  0  0  0  0
  189.5960  175.0450  143.4760 C   0  0  0  0  0  0  0  0  0  0  0  0
  187.0640  177.7430  145.7470 C   0  0  2  0  0  3  0  0  0  0  0  0
  189.9250  175.2840  144.9290 C   0  0  2  0  0  3  0  0  0  0  0  0
  188.9180  174.4400  140.8270 C   0  0  0  0  0  3  0  0  0  0  0  0
  192.9870  176.3970  146.8560 C   0  0  0  0  0  2  0  0  0  0  0  0
  188.0140  175.1270  141.6400 C   0  0  0  0  0  3  0  0  0  0  0  0
  191.7320  175.5640  146.6450 C   0  0  0  0  0  2  0  0  0  0  0  0
  193.6790  174.1750  144.6480 C   0  0  1  0  0  3  0  0  0  0  0  0
  190.1670  174.0650  141.3290 C   0  0  0  0  0  3  0  0  0  0  0  0
  191.8060  174.0230  143.1740 N   0  0  0  0  0  0  0  0  0  0  0  0
  195.5450  175.5230  144.5810 O   0  0  0  0  0  0  0  0  0  0  0  0
  195.7470  176.7920  144.0270 C   0  0  0  0  0  2  0  0  0  0  0  0
  197.8210  175.2060  141.6670 C   0  0  0  0  0  2  0  0  0  0  0  0
  196.0740  176.7800  141.6120 N   0  0  0  0  0  2  0  0  0  0  0  0
  196.7560  176.7120  142.8950 C   0  0  2  0  0  3  0  0  0  0  0  0
  196.8020  175.8560  140.7740 C   0  0  0  0  0  2  0  0  0  0  0  0
  197.4710  175.5090  142.9850 O   0  0  0  0  0  0  0  0  0  0  0  0
  1 27  1  0  0  0  0
  1 18  1  0  0  0  0
  2 27  1  0  0  0  0
  2 14  1  0  0  0  0
  3  7  1  1  0  0  0
  4 18  2  0  0  0  0
  4 15  1  0  0  0  0
  5 11  1  0  0  0  0
  5 19  1  0  0  0  0
  6  7  1  0  0  0  0
  8 16  1  0  0  0  0
  9 27  1  6  0  0  0
  9 25  1  0  0  0  0
  9 13  1  0  0  0  0
 10 22  1  0  0  0  0
 12  8  1  0  0  0  0
 12 15  1  0  0  0  0
 13 24  1  1  0  0  0
 15  5  2  0  0  0  0
 16  3  1  0  0  0  0
 17 10  1  0  0  0  0
 19  3  1  0  0  0  0
 19  6  1  1  0  0  0
 20 18  1  6  0  0  0
 20 13  1  0  0  0  0
 20 11  1  0  0  0  0
 21 26  1  0  0  0  0
 21 23  2  0  0  0  0
 23  4  1  0  0  0  0
 24 22  1  0  0  0  0
 25 14  1  6  0  0  0
 25 17  1  0  0  0  0
 26  1  2  0  0  0  0
 28 17  1  0  0  0  0
 29 28  1  0  0  0  0
 30 34  1  0  0  0  0
 31 32  1  0  0  0  0
 32 34  1  0  0  0  0
 32 29  1  1  0  0  0
 33 31  1  0  0  0  0
 33 30  1  0  0  0  0
M  END
>  <MODEL>
2

>  <REMARK>
 VINA RESULT:      -8.8      1.130      1.285
  Name = 
  3 active torsions:
  status: ('A' for Active; 'I' for Inactive)
    1  A    between atoms: N_17  and  O_28
    2  A    between atoms: O_28  and  C_29
    3  A    between atoms: C_29  and  C_32
                            x       y       z     vdW  Elec       q    Type
                         _______ _______ _______ _____ _____    ______ ____

>  <TORSDO>
F 3

$$$$
=
 OpenBabel11112417533D

 34 41  0  0  1  0  0  0  0  0999 V2000
  190.7080  173.9180  142.4460 C   0  0  0  0  0  0  0  0  0  0  0  0
  193.1270  173.1910  142.1830 C   0  0  0  0  0  2  0  0  0  0  0  0
  185.9680  177.1040  145.5370 C   0  0  1  0  0  3  0  0  0  0  0  0
  188.5850  175.1040  142.6880 C   0  0  0  0  0  0  0  0  0  0  0  0
  188.1450  176.4980  144.6580 C   0  0  0  0  0  0  0  0  0  0  0  0
  187.4990  177.7840  146.8480 C   0  0  0  0  0  2  0  0  0  0  0  0
  185.9820  177.6230  146.9580 C   0  0  0  0  0  2  0  0  0  0  0  0
  185.6290  177.6040  143.2150 C   0  0  0  0  0  2  0  0  0  0  0  0
  192.3120  173.7590  144.3940 C   0  0  2  0  0  3  0  0  0  0  0  0
  194.4450  175.2080  146.1710 C   0  0  0  0  0  2  0  0  0  0  0  0
  189.4650  176.1790  145.1150 N   0  0  0  0  0  2  0  0  0  0  0  0
  186.2580  176.2070  142.9600 C   0  0  0  0  0  2  0  0  0  0  0  0
  191.6540  175.0530  144.9100 C   0  0  1  0  0  3  0  0  0  0  0  0
  194.2950  173.0760  143.1440 C   0  0  0  0  0  2  0  0  0  0  0  0
  187.6870  175.9870  143.4800 C   0  0  0  0  0  0  0  0  0  0  0  0
  185.1040  177.7930  144.5880 N   0  0  0  0  0  2  0  0  0  0  0  0
  194.4590  175.0010  144.7250 N   0  0  0  0  0  0  0  0  0  0  0  0
  189.8160  174.6770  143.2270 C   0  0  0  0  0  0  0  0  0  0  0  0
  187.3830  177.5770  145.3510 C   0  0  2  0  0  3  0  0  0  0  0  0
  190.1420  174.9650  144.6720 C   0  0  2  0  0  3  0  0  0  0  0  0
  189.1360  173.9850  140.6000 C   0  0  0  0  0  3  0  0  0  0  0  0
  193.2310  176.0290  146.5810 C   0  0  0  0  0  2  0  0  0  0  0  0
  188.2550  174.7450  141.3720 C   0  0  0  0  0  3  0  0  0  0  0  0
  191.9440  175.2430  146.3940 C   0  0  0  0  0  2  0  0  0  0  0  0
  193.8470  173.6850  144.4800 C   0  0  1  0  0  3  0  0  0  0  0  0
  190.3630  173.5800  141.1310 C   0  0  0  0  0  3  0  0  0  0  0  0
  191.9820  173.5480  142.9940 N   0  0  0  0  0  0  0  0  0  0  0  0
  195.7700  174.9480  144.3750 O   0  0  0  0  0  0  0  0  0  0  0  0
  196.4360  174.5360  145.5340 C   0  0  0  0  0  2  0  0  0  0  0  0
  197.6660  171.3510  144.6820 C   0  0  0  0  0  2  0  0  0  0  0  0
  197.7520  173.5120  143.7570 N   0  0  0  0  0  2  0  0  0  0  0  0
  197.4920  173.5010  145.1880 C   0  0  2  0  0  3  0  0  0  0  0  0
  197.9410  172.1200  143.4200 C   0  0  0  0  0  2  0  0  0  0  0  0
  197.0490  172.2280  145.5770 O   0  0  0  0  0  0  0  0  0  0  0  0
  1 27  1  0  0  0  0
  1 18  1  0  0  0  0
  2 27  1  0  0  0  0
  2 14  1  0  0  0  0
  3  7  1  1  0  0  0
  4 18  2  0  0  0  0
  4 15  1  0  0  0  0
  5 11  1  0  0  0  0
  5 19  1  0  0  0  0
  6  7  1  0  0  0  0
  8 16  1  0  0  0  0
  9 27  1  6  0  0  0
  9 25  1  0  0  0  0
  9 13  1  0  0  0  0
 10 22  1  0  0  0  0
 12  8  1  0  0  0  0
 12 15  1  0  0  0  0
 13 24  1  1  0  0  0
 15  5  2  0  0  0  0
 16  3  1  0  0  0  0
 17 10  1  0  0  0  0
 19  3  1  0  0  0  0
 19  6  1  1  0  0  0
 20 18  1  6  0  0  0
 20 13  1  0  0  0  0
 20 11  1  0  0  0  0
 21 26  1  0  0  0  0
 21 23  2  0  0  0  0
 23  4  1  0  0  0  0
 24 22  1  0  0  0  0
 25 14  1  6  0  0  0
 25 17  1  0  0  0  0
 26  1  2  0  0  0  0
 28 17  1  0  0  0  0
 28 29  1  0  0  0  0
 30 34  1  0  0  0  0
 31 32  1  0  0  0  0
 32 29  1  6  0  0  0
 32 34  1  0  0  0  0
 33 31  1  0  0  0  0
 33 30  1  0  0  0  0
M  END
>  <MODEL>
3

>  <REMARK>
 VINA RESULT:      -8.0      1.757      2.101
  Name = 
  3 active torsions:
  status: ('A' for Active; 'I' for Inactive)
    1  A    between atoms: N_17  and  O_28
    2  A    between atoms: O_28  and  C_29
    3  A    between atoms: C_29  and  C_32
                            x       y       z     vdW  Elec       q    Type
                         _______ _______ _______ _____ _____    ______ ____

>  <TORSDO>
F 3

$$$$
=
 OpenBabel11112417533D

 34 41  0  0  1  0  0  0  0  0999 V2000
  192.0870  175.7660  145.5760 C   0  0  0  0  0  0  0  0  0  0  0  0
  190.3740  177.5710  145.0690 C   0  0  0  0  0  2  0  0  0  0  0  0
  194.5760  169.8210  144.7850 C   0  0  1  0  0  3  0  0  0  0  0  0
  193.8180  174.0410  145.5440 C   0  0  0  0  0  0  0  0  0  0  0  0
  193.4600  171.9290  144.3500 C   0  0  0  0  0  0  0  0  0  0  0  0
  193.0510  169.5500  143.3270 C   0  0  0  0  0  2  0  0  0  0  0  0
  193.8950  168.6090  144.1880 C   0  0  0  0  0  2  0  0  0  0  0  0
  196.4730  171.2910  144.7400 C   0  0  0  0  0  2  0  0  0  0  0  0
  189.7530  175.2500  144.7510 C   0  0  2  0  0  3  0  0  0  0  0  0
  187.8740  174.7900  142.2890 C   0  0  0  0  0  2  0  0  0  0  0  0
  192.1800  172.4320  143.9460 N   0  0  0  0  0  2  0  0  0  0  0  0
  195.6270  172.1940  145.6780 C   0  0  0  0  0  2  0  0  0  0  0  0
  190.4090  174.1530  143.8920 C   0  0  1  0  0  3  0  0  0  0  0  0
  188.9630  177.5480  144.5130 C   0  0  0  0  0  2  0  0  0  0  0  0
  194.2790  172.6890  145.1310 C   0  0  0  0  0  0  0  0  0  0  0  0
  196.0290  169.8770  144.6940 N   0  0  0  0  0  2  0  0  0  0  0  0
  188.6870  175.9630  142.6030 N   0  0  0  0  0  0  0  0  0  0  0  0
  192.4980  174.4550  145.2690 C   0  0  0  0  0  0  0  0  0  0  0  0
  193.9810  170.6850  143.7090 C   0  0  2  0  0  3  0  0  0  0  0  0
  191.5000  173.4640  144.7210 C   0  0  2  0  0  3  0  0  0  0  0  0
  194.2960  176.2450  146.4560 C   0  0  0  0  0  3  0  0  0  0  0  0
  188.7540  173.5610  142.1180 C   0  0  0  0  0  2  0  0  0  0  0  0
  194.7060  174.9470  146.1430 C   0  0  0  0  0  3  0  0  0  0  0  0
  189.3690  173.1340  143.4420 C   0  0  0  0  0  2  0  0  0  0  0  0
  188.6730  176.1070  144.0680 C   0  0  1  0  0  3  0  0  0  0  0  0
  192.9930  176.6560  146.1650 C   0  0  0  0  0  3  0  0  0  0  0  0
  190.7580  176.1850  145.2310 N   0  0  0  0  0  0  0  0  0  0  0  0
  188.0360  177.0200  142.0510 O   0  0  0  0  0  0  0  0  0  0  0  0
  186.7460  176.5480  141.7830 C   0  0  0  0  0  2  0  0  0  0  0  0
  184.8940  178.2830  144.2210 C   0  0  0  0  0  2  0  0  0  0  0  0
  186.3010  178.8560  142.4250 N   0  0  0  0  0  2  0  0  0  0  0  0
  185.7130  177.5310  142.3040 C   0  0  2  0  0  3  0  0  0  0  0  0
  185.7210  179.3930  143.6340 C   0  0  0  0  0  2  0  0  0  0  0  0
  185.2480  177.1060  143.5570 O   0  0  0  0  0  0  0  0  0  0  0  0
  1 26  1  0  0  0  0
  2 27  1  0  0  0  0
  3  7  1  6  0  0  0
  4 23  2  0  0  0  0
  5 15  2  0  0  0  0
  6  7  1  0  0  0  0
  8 12  1  0  0  0  0
  9 27  1  6  0  0  0
 10 17  1  0  0  0  0
 11  5  1  0  0  0  0
 13 24  1  1  0  0  0
 13 20  1  0  0  0  0
 13  9  1  0  0  0  0
 14  2  1  0  0  0  0
 15  4  1  0  0  0  0
 15 12  1  0  0  0  0
 16  8  1  0  0  0  0
 16  3  1  0  0  0  0
 17 25  1  0  0  0  0
 18  4  1  0  0  0  0
 18  1  2  0  0  0  0
 19  6  1  1  0  0  0
 19  5  1  0  0  0  0
 19  3  1  0  0  0  0
 20 11  1  6  0  0  0
 20 18  1  0  0  0  0
 22 10  1  0  0  0  0
 22 24  1  0  0  0  0
 23 21  1  0  0  0  0
 25 14  1  6  0  0  0
 25  9  1  0  0  0  0
 26 21  2  0  0  0  0
 27  1  1  0  0  0  0
 28 17  1  0  0  0  0
 29 28  1  0  0  0  0
 31 33  1  0  0  0  0
 32 29  1  1  0  0  0
 32 31  1  0  0  0  0
 32 34  1  0  0  0  0
 33 30  1  0  0  0  0
 34 30  1  0  0  0  0
M  END
>  <MODEL>
4

>  <REMARK>
 VINA RESULT:      -8.0      3.254      8.818
  Name = 
  3 active torsions:
  status: ('A' for Active; 'I' for Inactive)
    1  A    between atoms: N_17  and  O_28
    2  A    between atoms: O_28  and  C_29
    3  A    between atoms: C_29  and  C_32
                            x       y       z     vdW  Elec       q    Type
                         _______ _______ _______ _____ _____    ______ ____

>  <TORSDO>
F 3

$$$$
=
 OpenBabel11112417533D

 34 41  0  0  1  0  0  0  0  0999 V2000
  191.8090  176.0540  145.8300 C   0  0  0  0  0  0  0  0  0  0  0  0
  189.5090  176.4770  146.8190 C   0  0  0  0  0  2  0  0  0  0  0  0
  195.7790  174.7990  140.8460 C   0  0  1  0  0  3  0  0  0  0  0  0
  193.9030  176.0570  144.5690 C   0  0  0  0  0  0  0  0  0  0  0  0
  193.9130  175.6260  142.1550 C   0  0  0  0  0  0  0  0  0  0  0  0
  194.0350  174.9130  139.6350 C   0  0  0  0  0  2  0  0  0  0  0  0
  195.4060  174.2520  139.4870 C   0  0  0  0  0  2  0  0  0  0  0  0
  196.8810  176.5340  142.0860 C   0  0  0  0  0  2  0  0  0  0  0  0
  189.6800  175.1960  144.7690 C   0  0  2  0  0  3  0  0  0  0  0  0
  187.3360  175.7370  142.7640 C   0  0  0  0  0  2  0  0  0  0  0  0
  192.4850  175.5250  142.2180 N   0  0  0  0  0  2  0  0  0  0  0  0
  196.1670  175.9210  143.3210 C   0  0  0  0  0  2  0  0  0  0  0  0
  190.3270  175.5610  143.4190 C   0  0  1  0  0  3  0  0  0  0  0  0
  188.0990  176.1470  146.3680 C   0  0  0  0  0  2  0  0  0  0  0  0
  194.6320  175.8820  143.2850 C   0  0  0  0  0  0  0  0  0  0  0  0
  196.9820  175.6180  140.9250 N   0  0  0  0  0  2  0  0  0  0  0  0
  187.7350  176.5270  143.9260 N   0  0  0  0  0  0  0  0  0  0  0  0
  192.5180  175.8010  144.6400 C   0  0  0  0  0  0  0  0  0  0  0  0
  194.5730  175.6950  140.8180 C   0  0  2  0  0  3  0  0  0  0  0  0
  191.8100  175.1750  143.4630 C   0  0  2  0  0  3  0  0  0  0  0  0
  193.8630  176.7920  146.8880 C   0  0  0  0  0  3  0  0  0  0  0  0
  188.4700  175.6650  141.7520 C   0  0  0  0  0  2  0  0  0  0  0  0
  194.5640  176.5490  145.7050 C   0  0  0  0  0  3  0  0  0  0  0  0
  189.6270  174.8310  142.2790 C   0  0  0  0  0  2  0  0  0  0  0  0
  188.1990  175.5720  144.9470 C   0  0  1  0  0  3  0  0  0  0  0  0
  192.4880  176.5540  146.9480 C   0  0  0  0  0  3  0  0  0  0  0  0
  190.3890  175.8450  145.8600 N   0  0  0  0  0  0  0  0  0  0  0  0
  186.6010  177.1280  144.3700 O   0  0  0  0  0  0  0  0  0  0  0  0
  186.7570  178.4790  144.0400 C   0  0  0  0  0  2  0  0  0  0  0  0
  184.9060  178.3970  141.0480 C   0  0  0  0  0  2  0  0  0  0  0  0
  184.4400  178.1930  143.3450 N   0  0  0  0  0  2  0  0  0  0  0  0
  185.6760  178.9050  143.0630 C   0  0  2  0  0  3  0  0  0  0  0  0
  183.8840  177.9170  142.0410 C   0  0  0  0  0  2  0  0  0  0  0  0
  186.0910  178.6290  141.7520 O   0  0  0  0  0  0  0  0  0  0  0  0
  1 27  1  0  0  0  0
  1 26  1  0  0  0  0
  3  7  1  6  0  0  0
  3 16  1  0  0  0  0
  4 18  1  0  0  0  0
  4 23  2  0  0  0  0
  5 11  1  0  0  0  0
  5 15  2  0  0  0  0
  7  6  1  0  0  0  0
  8 12  1  0  0  0  0
  9 25  1  0  0  0  0
  9 27  1  1  0  0  0
 10 17  1  0  0  0  0
 13 24  1  6  0  0  0
 13 20  1  0  0  0  0
 13  9  1  0  0  0  0
 14  2  1  0  0  0  0
 15 12  1  0  0  0  0
 15  4  1  0  0  0  0
 16  8  1  0  0  0  0
 17 28  1  0  0  0  0
 17 25  1  0  0  0  0
 18  1  2  0  0  0  0
 19  6  1  6  0  0  0
 19  3  1  0  0  0  0
 19  5  1  0  0  0  0
 20 11  1  6  0  0  0
 20 18  1  0  0  0  0
 21 26  2  0  0  0  0
 22 24  1  0  0  0  0
 22 10  1  0  0  0  0
 23 21  1  0  0  0  0
 25 14  1  1  0  0  0
 27  2  1  0  0  0  0
 29 28  1  0  0  0  0
 30 34  1  0  0  0  0
 30 33  1  0  0  0  0
 32 31  1  0  0  0  0
 32 29  1  1  0  0  0
 33 31  1  0  0  0  0
 34 32  1  0  0  0  0
M  END
>  <MODEL>
5

>  <REMARK>
 VINA RESULT:      -8.0      2.792      8.657
  Name = 
  3 active torsions:
  status: ('A' for Active; 'I' for Inactive)
    1  A    between atoms: N_17  and  O_28
    2  A    between atoms: O_28  and  C_29
    3  A    between atoms: C_29  and  C_32
                            x       y       z     vdW  Elec       q    Type
                         _______ _______ _______ _____ _____    ______ ____

>  <TORSDO>
F 3

$$$$
=
 OpenBabel11112417533D

 34 41  0  0  1  0  0  0  0  0999 V2000
  191.1980  176.0630  145.1500 C   0  0  0  0  0  0  0  0  0  0  0  0
  192.8490  174.5650  143.9340 C   0  0  0  0  0  2  0  0  0  0  0  0
  185.3660  178.8400  145.8150 C   0  0  1  0  0  3  0  0  0  0  0  0
  189.3120  177.0710  146.3310 C   0  0  0  0  0  0  0  0  0  0  0  0
  187.1140  177.2540  145.2580 C   0  0  0  0  0  0  0  0  0  0  0  0
  184.8160  177.7260  144.0890 C   0  0  0  0  0  2  0  0  0  0  0  0
  184.2960  178.9990  144.7580 C   0  0  0  0  0  2  0  0  0  0  0  0
  185.9250  178.0530  148.0120 C   0  0  0  0  0  2  0  0  0  0  0  0
  191.0440  175.5780  142.6730 C   0  0  2  0  0  3  0  0  0  0  0  0
  189.9040  173.7250  140.4220 C   0  0  0  0  0  2  0  0  0  0  0  0
  187.6710  176.5880  144.1190 N   0  0  0  0  0  2  0  0  0  0  0  0
  187.3970  178.2890  147.5770 C   0  0  0  0  0  2  0  0  0  0  0  0
  189.5190  175.5090  142.8860 C   0  0  1  0  0  3  0  0  0  0  0  0
  192.9490  174.0610  142.5060 C   0  0  0  0  0  2  0  0  0  0  0  0
  187.8900  177.5060  146.3510 C   0  0  0  0  0  0  0  0  0  0  0  0
  184.9260  178.7910  147.2030 N   0  0  0  0  0  2  0  0  0  0  0  0
  190.7500  173.3590  141.5540 N   0  0  0  0  0  0  0  0  0  0  0  0
  189.8820  176.5600  145.1470 C   0  0  0  0  0  0  0  0  0  0  0  0
  185.6350  177.4420  145.3320 C   0  0  2  0  0  3  0  0  0  0  0  0
  189.1050  176.6230  143.8540 C   0  0  2  0  0  3  0  0  0  0  0  0
  191.3920  176.6100  147.5050 C   0  0  0  0  0  3  0  0  0  0  0  0
  188.5850  174.3080  140.9060 C   0  0  0  0  0  2  0  0  0  0  0  0
  190.0820  177.0940  147.5040 C   0  0  0  0  0  3  0  0  0  0  0  0
  188.7880  175.6660  141.5580 C   0  0  0  0  0  2  0  0  0  0  0  0
  191.6650  174.4900  141.7800 C   0  0  1  0  0  3  0  0  0  0  0  0
  191.9460  176.0870  146.3340 C   0  0  0  0  0  3  0  0  0  0  0  0
  191.7360  175.4900  143.9490 N   0  0  0  0  0  0  0  0  0  0  0  0
  191.4720  172.2850  141.1430 O   0  0  0  0  0  0  0  0  0  0  0  0
  190.8570  171.1840  141.7490 C   0  0  0  0  0  2  0  0  0  0  0  0
  194.0440  170.3860  143.0110 C   0  0  0  0  0  2  0  0  0  0  0  0
  191.9280  170.8730  143.9150 N   0  0  0  0  0  2  0  0  0  0  0  0
  191.8770  170.3900  142.5450 C   0  0  2  0  0  3  0  0  0  0  0  0
  193.3280  170.8090  144.2640 C   0  0  0  0  0  2  0  0  0  0  0  0
  193.1420  170.5200  141.9520 O   0  0  0  0  0  0  0  0  0  0  0  0
  1 26  1  0  0  0  0
  2 27  1  0  0  0  0
  3  7  1  6  0  0  0
  3 16  1  0  0  0  0
  4 15  1  0  0  0  0
  4 23  2  0  0  0  0
  5 19  1  0  0  0  0
  5 15  2  0  0  0  0
  6  7  1  0  0  0  0
  9 13  1  0  0  0  0
  9 27  1  1  0  0  0
 10 22  1  0  0  0  0
 10 17  1  0  0  0  0
 11  5  1  0  0  0  0
 12  8  1  0  0  0  0
 13 24  1  6  0  0  0
 13 20  1  0  0  0  0
 14  2  1  0  0  0  0
 15 12  1  0  0  0  0
 16  8  1  0  0  0  0
 17 25  1  0  0  0  0
 18  1  2  0  0  0  0
 18  4  1  0  0  0  0
 19  6  1  6  0  0  0
 19  3  1  0  0  0  0
 20 11  1  1  0  0  0
 20 18  1  0  0  0  0
 22 24  1  0  0  0  0
 23 21  1  0  0  0  0
 25 14  1  1  0  0  0
 25  9  1  0  0  0  0
 26 21  2  0  0  0  0
 27  1  1  0  0  0  0
 28 17  1  0  0  0  0
 28 29  1  0  0  0  0
 30 33  1  0  0  0  0
 31 33  1  0  0  0  0
 32 29  1  6  0  0  0
 32 31  1  0  0  0  0
 34 32  1  0  0  0  0
 34 30  1  0  0  0  0
M  END
>  <MODEL>
6

>  <REMARK>
 VINA RESULT:      -8.0      2.388      4.696
  Name = 
  3 active torsions:
  status: ('A' for Active; 'I' for Inactive)
    1  A    between atoms: N_17  and  O_28
    2  A    between atoms: O_28  and  C_29
    3  A    between atoms: C_29  and  C_32
                            x       y       z     vdW  Elec       q    Type
                         _______ _______ _______ _____ _____    ______ ____

>  <TORSDO>
F 3

$$$$
=
 OpenBabel11112417533D

 34 41  0  0  1  0  0  0  0  0999 V2000
  191.1540  175.9800  145.2100 C   0  0  0  0  0  0  0  0  0  0  0  0
  192.7930  174.4610  144.0050 C   0  0  0  0  0  2  0  0  0  0  0  0
  185.3630  178.8550  145.8160 C   0  0  1  0  0  3  0  0  0  0  0  0
  189.2690  177.0130  146.3730 C   0  0  0  0  0  0  0  0  0  0  0  0
  187.0890  177.2430  145.2710 C   0  0  0  0  0  0  0  0  0  0  0  0
  184.8170  177.7630  144.0740 C   0  0  0  0  0  2  0  0  0  0  0  0
  184.3100  179.0410  144.7460 C   0  0  0  0  0  2  0  0  0  0  0  0
  185.8770  178.0430  148.0150 C   0  0  0  0  0  2  0  0  0  0  0  0
  191.0240  175.5160  142.7280 C   0  0  2  0  0  3  0  0  0  0  0  0
  189.8830  173.6990  140.4470 C   0  0  0  0  0  2  0  0  0  0  0  0
  187.6510  176.5750  144.1350 N   0  0  0  0  0  2  0  0  0  0  0  0
  187.3590  178.2560  147.6010 C   0  0  0  0  0  2  0  0  0  0  0  0
  189.4960  175.4720  142.9190 C   0  0  1  0  0  3  0  0  0  0  0  0
  192.9050  173.9660  142.5750 C   0  0  0  0  0  2  0  0  0  0  0  0
  187.8550  177.4730  146.3760 C   0  0  0  0  0  0  0  0  0  0  0  0
  184.9030  178.8040  147.1970 N   0  0  0  0  0  2  0  0  0  0  0  0
  190.7060  173.3100  141.5880 N   0  0  0  0  0  0  0  0  0  0  0  0
  189.8460  176.5010  145.1930 C   0  0  0  0  0  0  0  0  0  0  0  0
  185.6130  177.4560  145.3270 C   0  0  2  0  0  3  0  0  0  0  0  0
  189.0890  176.5860  143.8900 C   0  0  2  0  0  3  0  0  0  0  0  0
  191.3240  176.5060  147.5710 C   0  0  0  0  0  3  0  0  0  0  0  0
  188.5670  174.3020  140.9170 C   0  0  0  0  0  2  0  0  0  0  0  0
  190.0230  177.0140  147.5560 C   0  0  0  0  0  3  0  0  0  0  0  0
  188.7860  175.6520  141.5830 C   0  0  0  0  0  2  0  0  0  0  0  0
  191.6390  174.4230  141.8350 C   0  0  1  0  0  3  0  0  0  0  0  0
  191.8850  175.9820  146.4040 C   0  0  0  0  0  3  0  0  0  0  0  0
  191.6970  175.4060  144.0120 N   0  0  0  0  0  0  0  0  0  0  0  0
  191.4150  172.2260  141.1790 O   0  0  0  0  0  0  0  0  0  0  0  0
  190.5080  171.1630  141.2300 C   0  0  0  0  0  2  0  0  0  0  0  0
  190.8500  169.9300  137.9520 C   0  0  0  0  0  2  0  0  0  0  0  0
  192.2530  170.2160  139.8180 N   0  0  0  0  0  2  0  0  0  0  0  0
  190.8410  170.1410  140.1580 C   0  0  2  0  0  3  0  0  0  0  0  0
  192.2870  170.0070  138.3890 C   0  0  0  0  0  2  0  0  0  0  0  0
  190.0670  170.3880  139.0140 O   0  0  0  0  0  0  0  0  0  0  0  0
  1 26  1  0  0  0  0
  2 27  1  0  0  0  0
  3  7  1  6  0  0  0
  3 16  1  0  0  0  0
  4 15  1  0  0  0  0
  4 23  2  0  0  0  0
  5 19  1  0  0  0  0
  5 15  2  0  0  0  0
  6  7  1  0  0  0  0
  9 13  1  0  0  0  0
  9 27  1  1  0  0  0
 10 22  1  0  0  0  0
 10 17  1  0  0  0  0
 11  5  1  0  0  0  0
 12  8  1  0  0  0  0
 13 24  1  6  0  0  0
 13 20  1  0  0  0  0
 14  2  1  0  0  0  0
 15 12  1  0  0  0  0
 16  8  1  0  0  0  0
 17 25  1  0  0  0  0
 18  1  2  0  0  0  0
 18  4  1  0  0  0  0
 19  6  1  6  0  0  0
 19  3  1  0  0  0  0
 20 11  1  1  0  0  0
 20 18  1  0  0  0  0
 22 24  1  0  0  0  0
 23 21  1  0  0  0  0
 25 14  1  1  0  0  0
 25  9  1  0  0  0  0
 26 21  2  0  0  0  0
 27  1  1  0  0  0  0
 28 29  1  0  0  0  0
 28 17  1  0  0  0  0
 30 33  1  0  0  0  0
 30 34  1  0  0  0  0
 31 32  1  0  0  0  0
 32 29  1  1  0  0  0
 33 31  1  0  0  0  0
 34 32  1  0  0  0  0
M  END
>  <MODEL>
7

>  <REMARK>
 VINA RESULT:      -7.8      3.018      5.221
  Name = 
  3 active torsions:
  status: ('A' for Active; 'I' for Inactive)
    1  A    between atoms: N_17  and  O_28
    2  A    between atoms: O_28  and  C_29
    3  A    between atoms: C_29  and  C_32
                            x       y       z     vdW  Elec       q    Type
                         _______ _______ _______ _____ _____    ______ ____

>  <TORSDO>
F 3

$$$$
=
 OpenBabel11112417533D

 34 41  0  0  1  0  0  0  0  0999 V2000
  189.9500  174.5210  142.1000 C   0  0  0  0  0  0  0  0  0  0  0  0
  187.5970  175.4140  142.4450 C   0  0  0  0  0  2  0  0  0  0  0  0
  196.0710  173.5550  144.0410 C   0  0  1  0  0  3  0  0  0  0  0  0
  192.1190  173.4030  142.2180 C   0  0  0  0  0  0  0  0  0  0  0  0
  193.6650  173.8560  144.0670 C   0  0  0  0  0  0  0  0  0  0  0  0
  195.4730  174.4860  145.8570 C   0  0  0  0  0  2  0  0  0  0  0  0
  196.8110  174.2740  145.1460 C   0  0  0  0  0  2  0  0  0  0  0  0
  195.3800  171.4490  143.1170 C   0  0  0  0  0  2  0  0  0  0  0  0
  189.4300  176.4660  143.6310 C   0  0  2  0  0  3  0  0  0  0  0  0
  188.6660  177.4120  146.5160 C   0  0  0  0  0  2  0  0  0  0  0  0
  192.6740  174.7350  144.6130 N   0  0  0  0  0  2  0  0  0  0  0  0
  194.4630  172.3040  142.2010 C   0  0  0  0  0  2  0  0  0  0  0  0
  190.4750  175.8600  144.5870 C   0  0  1  0  0  3  0  0  0  0  0  0
  187.0070  176.4940  143.3320 C   0  0  0  0  0  2  0  0  0  0  0  0
  193.4250  173.1950  142.8990 C   0  0  0  0  0  0  0  0  0  0  0  0
  196.5060  172.2010  143.7220 N   0  0  0  0  0  2  0  0  0  0  0  0
  187.9470  176.4860  145.6460 N   0  0  0  0  0  0  0  0  0  0  0  0
  191.2230  174.3860  142.6850 C   0  0  0  0  0  0  0  0  0  0  0  0
  194.8430  173.4880  144.9050 C   0  0  2  0  0  3  0  0  0  0  0  0
  191.6620  175.3490  143.7610 C   0  0  2  0  0  3  0  0  0  0  0  0
  190.4710  172.7180  140.5640 C   0  0  0  0  0  3  0  0  0  0  0  0
  190.0580  176.8820  146.8270 C   0  0  0  0  0  2  0  0  0  0  0  0
  191.7310  172.5780  141.1510 C   0  0  0  0  0  3  0  0  0  0  0  0
  190.9450  176.9040  145.5930 C   0  0  0  0  0  2  0  0  0  0  0  0
  188.1260  176.9750  144.2680 C   0  0  1  0  0  3  0  0  0  0  0  0
  189.5790  173.6810  141.0430 C   0  0  0  0  0  3  0  0  0  0  0  0
  189.0310  175.4870  142.6340 N   0  0  0  0  0  0  0  0  0  0  0  0
  186.6370  176.6030  145.9860 O   0  0  0  0  0  0  0  0  0  0  0  0
  186.5620  177.7860  146.7290 C   0  0  0  0  0  2  0  0  0  0  0  0
  185.0810  179.8290  144.2750 C   0  0  0  0  0  2  0  0  0  0  0  0
  184.4590  177.9230  145.5060 N   0  0  0  0  0  2  0  0  0  0  0  0
  185.5090  178.7070  146.1370 C   0  0  2  0  0  3  0  0  0  0  0  0
  184.1140  178.6780  144.3240 C   0  0  0  0  0  2  0  0  0  0  0  0
  186.1020  179.5530  145.1880 O   0  0  0  0  0  0  0  0  0  0  0  0
  1 27  1  0  0  0  0
  1 18  1  0  0  0  0
  2 27  1  0  0  0  0
  2 14  1  0  0  0  0
  3 19  1  0  0  0  0
  3  7  1  1  0  0  0
  4 18  2  0  0  0  0
  4 15  1  0  0  0  0
  5 11  1  0  0  0  0
  5 19  1  0  0  0  0
  7  6  1  0  0  0  0
  8 16  1  0  0  0  0
  9 27  1  6  0  0  0
  9 25  1  0  0  0  0
  9 13  1  0  0  0  0
 10 22  1  0  0  0  0
 12 15  1  0  0  0  0
 12  8  1  0  0  0  0
 13 24  1  1  0  0  0
 15  5  2  0  0  0  0
 16  3  1  0  0  0  0
 17 28  1  0  0  0  0
 17 10  1  0  0  0  0
 19  6  1  1  0  0  0
 20 18  1  6  0  0  0
 20 13  1  0  0  0  0
 20 11  1  0  0  0  0
 21 26  1  0  0  0  0
 21 23  2  0  0  0  0
 23  4  1  0  0  0  0
 24 22  1  0  0  0  0
 25 14  1  6  0  0  0
 25 17  1  0  0  0  0
 26  1  2  0  0  0  0
 28 29  1  0  0  0  0
 30 33  1  0  0  0  0
 30 34  1  0  0  0  0
 31 32  1  0  0  0  0
 32 29  1  6  0  0  0
 33 31  1  0  0  0  0
 34 32  1  0  0  0  0
M  END
>  <MODEL>
8

>  <REMARK>
 VINA RESULT:      -7.7      2.747      8.144
  Name = 
  3 active torsions:
  status: ('A' for Active; 'I' for Inactive)
    1  A    between atoms: N_17  and  O_28
    2  A    between atoms: O_28  and  C_29
    3  A    between atoms: C_29  and  C_32
                            x       y       z     vdW  Elec       q    Type
                         _______ _______ _______ _____ _____    ______ ____

>  <TORSDO>
F 3

$$$$
=
 OpenBabel11112417533D

 34 41  0  0  1  0  0  0  0  0999 V2000
  192.2260  176.1480  145.5730 C   0  0  0  0  0  0  0  0  0  0  0  0
  190.1250  177.0810  146.6530 C   0  0  0  0  0  2  0  0  0  0  0  0
  195.5690  173.9560  140.4560 C   0  0  1  0  0  3  0  0  0  0  0  0
  194.2030  175.6700  144.2190 C   0  0  0  0  0  0  0  0  0  0  0  0
  193.9950  175.1960  141.8210 C   0  0  0  0  0  0  0  0  0  0  0  0
  193.8310  174.4200  139.3230 C   0  0  0  0  0  2  0  0  0  0  0  0
  195.0170  173.4740  139.1330 C   0  0  0  0  0  2  0  0  0  0  0  0
  197.0820  175.4360  141.5880 C   0  0  0  0  0  2  0  0  0  0  0  0
  189.9100  175.7500  144.6380 C   0  0  2  0  0  3  0  0  0  0  0  0
  187.6380  176.7450  142.7270 C   0  0  0  0  0  2  0  0  0  0  0  0
  192.5840  175.4090  141.9530 N   0  0  0  0  0  2  0  0  0  0  0  0
  196.3170  175.0180  142.8740 C   0  0  0  0  0  2  0  0  0  0  0  0
  190.5500  175.9370  143.2500 C   0  0  1  0  0  3  0  0  0  0  0  0
  188.6550  177.0550  146.2770 C   0  0  0  0  0  2  0  0  0  0  0  0
  194.8100  175.3130  142.9090 C   0  0  0  0  0  0  0  0  0  0  0  0
  196.9230  174.4960  140.4530 N   0  0  0  0  0  2  0  0  0  0  0  0
  188.2570  177.4530  143.8440 N   0  0  0  0  0  0  0  0  0  0  0  0
  192.8010  175.7210  144.3610 C   0  0  0  0  0  0  0  0  0  0  0  0
  194.5850  175.0910  140.4540 C   0  0  2  0  0  3  0  0  0  0  0  0
  191.9150  175.2400  143.2380 C   0  0  2  0  0  3  0  0  0  0  0  0
  194.4420  176.4440  146.5120 C   0  0  0  0  0  3  0  0  0  0  0  0
  188.6760  176.4070  141.6670 C   0  0  0  0  0  2  0  0  0  0  0  0
  195.0130  176.0300  145.3070 C   0  0  0  0  0  3  0  0  0  0  0  0
  189.6510  175.3520  142.1660 C   0  0  0  0  0  2  0  0  0  0  0  0
  188.5560  176.4420  144.8720 C   0  0  1  0  0  3  0  0  0  0  0  0
  193.0530  176.5120  146.6430 C   0  0  0  0  0  3  0  0  0  0  0  0
  190.7980  176.2520  145.6740 N   0  0  0  0  0  0  0  0  0  0  0  0
  187.3040  178.2960  144.3190 O   0  0  0  0  0  0  0  0  0  0  0  0
  186.0960  177.7840  143.8320 C   0  0  0  0  0  2  0  0  0  0  0  0
  184.7100  177.1630  147.0070 C   0  0  0  0  0  2  0  0  0  0  0  0
  185.1580  179.0570  145.6860 N   0  0  0  0  0  2  0  0  0  0  0  0
  185.0360  177.8280  144.9180 C   0  0  2  0  0  3  0  0  0  0  0  0
  184.8760  178.6570  147.0450 C   0  0  0  0  0  2  0  0  0  0  0  0
  185.1870  176.7230  145.7690 O   0  0  0  0  0  0  0  0  0  0  0  0
  1 27  1  0  0  0  0
  1 26  1  0  0  0  0
  3  7  1  6  0  0  0
  4 18  1  0  0  0  0
  4 23  2  0  0  0  0
  5 11  1  0  0  0  0
  5 15  2  0  0  0  0
  7  6  1  0  0  0  0
  8 12  1  0  0  0  0
  9 25  1  0  0  0  0
  9 27  1  1  0  0  0
 10 17  1  0  0  0  0
 12 15  1  0  0  0  0
 13 24  1  6  0  0  0
 13  9  1  0  0  0  0
 14  2  1  0  0  0  0
 15  4  1  0  0  0  0
 16  3  1  0  0  0  0
 16  8  1  0  0  0  0
 17 28  1  0  0  0  0
 17 25  1  0  0  0  0
 18  1  2  0  0  0  0
 19  6  1  6  0  0  0
 19  3  1  0  0  0  0
 19  5  1  0  0  0  0
 20 11  1  6  0  0  0
 20 13  1  0  0  0  0
 20 18  1  0  0  0  0
 21 26  2  0  0  0  0
 22 24  1  0  0  0  0
 22 10  1  0  0  0  0
 23 21  1  0  0  0  0
 25 14  1  1  0  0  0
 27  2  1  0  0  0  0
 29 28  1  0  0  0  0
 30 33  1  0  0  0  0
 31 33  1  0  0  0  0
 32 29  1  6  0  0  0
 32 31  1  0  0  0  0
 32 34  1  0  0  0  0
 34 30  1  0  0  0  0
M  END
>  <MODEL>
9

>  <REMARK>
 VINA RESULT:      -7.7      2.705      8.847
  Name = 
  3 active torsions:
  status: ('A' for Active; 'I' for Inactive)
    1  A    between atoms: N_17  and  O_28
    2  A    between atoms: O_28  and  C_29
    3  A    between atoms: C_29  and  C_32
                            x       y       z     vdW  Elec       q    Type
                         _______ _______ _______ _____ _____    ______ ____

>  <TORSDO>
F 3

$$$$
