=
 OpenBabel11112416443D

 32 36  0  0  1  0  0  0  0  0999 V2000
  190.2300  175.5860  144.5770 C   0  0  1  0  0  3  0  0  0  0  0  0
  191.3710  177.5060  148.9510 C   0  0  0  0  0  3  0  0  0  0  0  0
  190.3290  178.4220  148.8060 C   0  0  0  0  0  3  0  0  0  0  0  0
  187.9940  176.1080  143.4340 C   0  0  2  0  0  3  0  0  0  0  0  0
  186.5310  176.4960  143.6950 C   0  0  2  0  0  3  0  0  0  0  0  0
  191.8370  174.4870  143.4400 C   0  0  2  0  0  3  0  0  0  0  0  0
  192.1200  174.6740  145.9070 O   0  0  0  0  0  0  0  0  0  0  0  0
  185.9680  178.7410  144.0610 C   0  0  0  0  0  0  0  0  0  0  0  0
  191.5390  176.4860  148.0120 C   0  0  0  0  0  3  0  0  0  0  0  0
  190.8130  175.2410  145.9460 C   0  0  1  0  0  3  0  0  0  0  0  0
  190.6720  176.3810  146.9160 C   0  0  0  0  0  0  0  0  0  0  0  0
  188.6750  177.2410  145.5770 C   0  0  2  0  0  3  0  0  0  0  0  0
  185.5820  178.5380  142.6520 C   0  0  0  0  0  3  0  0  0  0  0  0
  192.7570  174.8390  144.6460 C   0  0  2  0  0  3  0  0  0  0  0  0
  185.8990  177.0590  142.4100 C   0  0  0  0  0  3  0  0  0  0  0  0
  189.4460  178.3150  147.7290 C   0  0  0  0  0  3  0  0  0  0  0  0
  189.5850  177.2790  146.7920 C   0  0  0  0  0  0  0  0  0  0  0  0
  187.2190  177.5430  145.9140 C   0  0  0  0  0  2  0  0  0  0  0  0
  190.4560  174.4850  143.7470 O   0  0  0  0  0  0  0  0  0  0  0  0
  188.0170  174.9220  142.6960 O   0  0  0  0  0  1  0  0  0  0  0  0
  185.8890  179.8470  144.6570 O   0  0  0  0  0  0  0  0  0  0  0  0
  188.7540  175.9290  144.7630 C   0  0  2  0  0  3  0  0  0  0  0  0
  186.4600  177.5690  144.6710 N   0  0  0  0  0  0  0  0  0  0  0  0
  194.3340  176.4940  145.6550 C   0  0  0  0  0  1  0  0  0  0  0  0
  193.3580  176.2430  144.5190 C   0  0  1  0  0  3  0  0  0  0  0  0
  194.0250  176.3830  143.2980 O   0  0  0  0  0  0  0  0  0  0  0  0
  195.3100  175.8850  143.5290 C   0  0  0  0  0  2  0  0  0  0  0  0
  196.2960  176.6110  142.6810 C   0  0  0  0  0  0  0  0  0  0  0  0
  197.3990  176.9760  143.1670 O   0  0  0  0  0  1  0  0  0  0  0  0
  196.0120  176.8570  141.3440 O   0  0  0  0  0  0  0  0  0  0  0  0
  193.5020  172.7850  143.3480 O   0  0  0  0  0  1  0  0  0  0  0  0
  192.2370  173.1360  142.8790 C   0  0  0  0  0  2  0  0  0  0  0  0
  1 19  1  6  0  0  0
  1 22  1  0  0  0  0
  1 10  1  0  0  0  0
  3  2  1  0  0  0  0
  4 20  1  1  0  0  0
  4  5  1  0  0  0  0
  4 22  1  0  0  0  0
  5 15  1  6  0  0  0
  5 23  1  0  0  0  0
  6 32  1  1  0  0  0
  6 19  1  0  0  0  0
  6 14  1  0  0  0  0
  8 21  2  0  0  0  0
  8 23  1  0  0  0  0
  9  2  2  0  0  0  0
 10  7  1  6  0  0  0
 10 11  1  0  0  0  0
 11  9  1  0  0  0  0
 12 18  1  1  0  0  0
 12 17  1  0  0  0  0
 13  8  1  0  0  0  0
 14 25  1  6  0  0  0
 14  7  1  0  0  0  0
 15 13  2  0  0  0  0
 16  3  2  0  0  0  0
 17 11  2  0  0  0  0
 17 16  1  0  0  0  0
 22 12  1  0  0  0  0
 23 18  1  0  0  0  0
 25 24  1  0  0  0  0
 26 27  1  0  0  0  0
 26 25  1  0  0  0  0
 28 29  1  0  0  0  0
 28 27  1  0  0  0  0
 30 28  2  0  0  0  0
 32 31  1  0  0  0  0
M  END
>  <MODEL>
1

>  <REMARK>
 VINA RESULT:      -7.4      0.000      0.000
  Name = 
  5 active torsions:
  status: ('A' for Active; 'I' for Inactive)
    1  A    between atoms: C_7  and  C_19
    2  A    between atoms: C_10  and  C_17
    3  A    between atoms: C_10  and  O_20
    4  A    between atoms: O_20  and  C_29
    5  A    between atoms: C_29  and  C_30
                            x       y       z     vdW  Elec       q    Type
                         _______ _______ _______ _____ _____    ______ ____

>  <TORSDO>
F 5

$$$$
=
 OpenBabel11112416443D

 32 36  0  0  1  0  0  0  0  0999 V2000
  189.5990  175.8090  144.0380 C   0  0  1  0  0  3  0  0  0  0  0  0
  190.2290  173.4980  139.7510 C   0  0  0  0  0  3  0  0  0  0  0  0
  191.6060  173.6970  139.8610 C   0  0  0  0  0  3  0  0  0  0  0  0
  191.5690  176.2450  145.6200 C   0  0  2  0  0  3  0  0  0  0  0  0
  192.9480  175.7250  146.0530 C   0  0  2  0  0  3  0  0  0  0  0  0
  187.5990  176.7650  144.4540 C   0  0  2  0  0  3  0  0  0  0  0  0
  187.6500  174.9230  142.7770 O   0  0  0  0  0  0  0  0  0  0  0  0
  194.8500  176.2840  144.8030 C   0  0  0  0  0  0  0  0  0  0  0  0
  189.3860  173.8480  140.8080 C   0  0  0  0  0  3  0  0  0  0  0  0
  189.0130  174.7200  143.1420 C   0  0  1  0  0  3  0  0  0  0  0  0
  189.9140  174.4090  141.9790 C   0  0  0  0  0  0  0  0  0  0  0  0
  191.9100  175.2440  143.3360 C   0  0  2  0  0  3  0  0  0  0  0  0
  194.9290  177.2150  145.9430 C   0  0  0  0  0  3  0  0  0  0  0  0
  187.1980  176.2460  143.0410 C   0  0  2  0  0  3  0  0  0  0  0  0
  193.7170  176.8300  146.7970 C   0  0  0  0  0  3  0  0  0  0  0  0
  192.1440  174.2360  141.0310 C   0  0  0  0  0  3  0  0  0  0  0  0
  191.3140  174.5670  142.1130 C   0  0  0  0  0  0  0  0  0  0  0  0
  193.2330  174.6230  143.7730 C   0  0  0  0  0  2  0  0  0  0  0  0
  188.6660  176.0520  145.0500 O   0  0  0  0  0  0  0  0  0  0  0  0
  190.7410  176.3050  146.7440 O   0  0  0  0  0  1  0  0  0  0  0  0
  195.6610  176.2840  143.8390 O   0  0  0  0  0  0  0  0  0  0  0  0
  190.9540  175.3250  144.5470 C   0  0  2  0  0  3  0  0  0  0  0  0
  193.7540  175.4010  144.8890 N   0  0  0  0  0  0  0  0  0  0  0  0
  187.1160  176.7230  140.5900 C   0  0  0  0  0  1  0  0  0  0  0  0
  187.6410  177.2050  141.9300 C   0  0  1  0  0  3  0  0  0  0  0  0
  187.1640  178.4960  142.1760 O   0  0  0  0  0  0  0  0  0  0  0  0
  185.8100  178.4520  141.8310 C   0  0  0  0  0  2  0  0  0  0  0  0
  184.9820  178.9510  142.9640 C   0  0  0  0  0  0  0  0  0  0  0  0
  183.8390  178.4660  143.1720 O   0  0  0  0  0  0  0  0  0  0  0  0
  185.4830  179.9310  143.8100 O   0  0  0  0  0  1  0  0  0  0  0  0
  186.4330  177.8020  146.2550 O   0  0  0  0  0  1  0  0  0  0  0  0
  186.3880  176.7280  145.3660 C   0  0  0  0  0  2  0  0  0  0  0  0
  1 22  1  0  0  0  0
  1 19  1  1  0  0  0
  2  3  2  0  0  0  0
  2  9  1  0  0  0  0
  3 16  1  0  0  0  0
  4  5  1  0  0  0  0
  4 20  1  1  0  0  0
  5 15  1  6  0  0  0
  6 19  1  0  0  0  0
  6 32  1  1  0  0  0
  7 14  1  0  0  0  0
  7 10  1  0  0  0  0
  8 23  1  0  0  0  0
  8 13  1  0  0  0  0
  9 11  2  0  0  0  0
 10 11  1  6  0  0  0
 10  1  1  0  0  0  0
 11 17  1  0  0  0  0
 12 18  1  1  0  0  0
 12 22  1  0  0  0  0
 13 15  2  0  0  0  0
 14 25  1  6  0  0  0
 14  6  1  0  0  0  0
 16 17  2  0  0  0  0
 17 12  1  0  0  0  0
 18 23  1  0  0  0  0
 21  8  2  0  0  0  0
 22  4  1  0  0  0  0
 23  5  1  0  0  0  0
 24 25  1  0  0  0  0
 25 26  1  0  0  0  0
 27 26  1  0  0  0  0
 27 28  1  0  0  0  0
 28 29  2  0  0  0  0
 28 30  1  0  0  0  0
 32 31  1  0  0  0  0
M  END
>  <MODEL>
2

>  <REMARK>
 VINA RESULT:      -7.2      2.431      7.824
  Name = 
  5 active torsions:
  status: ('A' for Active; 'I' for Inactive)
    1  A    between atoms: C_7  and  C_19
    2  A    between atoms: C_10  and  C_17
    3  A    between atoms: C_10  and  O_20
    4  A    between atoms: O_20  and  C_29
    5  A    between atoms: C_29  and  C_30
                            x       y       z     vdW  Elec       q    Type
                         _______ _______ _______ _____ _____    ______ ____

>  <TORSDO>
F 5

$$$$
=
 OpenBabel11112416443D

 32 36  0  0  1  0  0  0  0  0999 V2000
  190.0190  175.4570  143.5520 C   0  0  1  0  0  3  0  0  0  0  0  0
  191.6990  176.5310  148.0390 C   0  0  0  0  0  3  0  0  0  0  0  0
  190.6770  177.4700  148.1830 C   0  0  0  0  0  3  0  0  0  0  0  0
  187.6880  176.2030  142.7870 C   0  0  2  0  0  3  0  0  0  0  0  0
  186.2760  176.5530  143.2800 C   0  0  2  0  0  3  0  0  0  0  0  0
  191.4540  174.5670  142.0580 C   0  0  2  0  0  3  0  0  0  0  0  0
  192.0150  174.2960  144.4690 O   0  0  0  0  0  0  0  0  0  0  0  0
  185.8290  178.7000  144.1070 C   0  0  0  0  0  0  0  0  0  0  0  0
  191.7300  175.6980  146.9200 C   0  0  0  0  0  3  0  0  0  0  0  0
  190.7390  174.8600  144.7600 C   0  0  1  0  0  3  0  0  0  0  0  0
  190.7430  175.8050  145.9290 C   0  0  0  0  0  0  0  0  0  0  0  0
  188.6380  176.9180  145.0060 C   0  0  2  0  0  3  0  0  0  0  0  0
  185.2820  178.7620  142.7390 C   0  0  0  0  0  3  0  0  0  0  0  0
  192.5130  174.6820  143.1940 C   0  0  2  0  0  3  0  0  0  0  0  0
  185.5240  177.3480  142.1990 C   0  0  0  0  0  3  0  0  0  0  0  0
  189.6770  177.5710  147.2130 C   0  0  0  0  0  3  0  0  0  0  0  0
  189.6780  176.7230  146.0960 C   0  0  0  0  0  0  0  0  0  0  0  0
  187.2390  177.1690  145.5570 C   0  0  0  0  0  2  0  0  0  0  0  0
  190.1170  174.5240  142.5170 O   0  0  0  0  0  0  0  0  0  0  0  0
  187.5920  175.1720  141.8490 O   0  0  0  0  0  1  0  0  0  0  0  0
  185.8510  179.6790  144.8980 O   0  0  0  0  0  0  0  0  0  0  0  0
  188.5850  175.7760  143.9660 C   0  0  2  0  0  3  0  0  0  0  0  0
  186.3480  177.4300  144.4350 N   0  0  0  0  0  0  0  0  0  0  0  0
  194.2950  176.0870  144.2410 C   0  0  0  0  0  1  0  0  0  0  0  0
  193.1410  176.0790  143.2540 C   0  0  1  0  0  3  0  0  0  0  0  0
  193.6100  176.4620  141.9930 O   0  0  0  0  0  0  0  0  0  0  0  0
  194.9050  175.9420  141.9160 C   0  0  0  0  0  2  0  0  0  0  0  0
  195.2740  175.7110  140.4920 C   0  0  0  0  0  0  0  0  0  0  0  0
  194.3880  175.4080  139.6510 O   0  0  0  0  0  0  0  0  0  0  0  0
  196.5930  175.8630  140.0850 O   0  0  0  0  0  1  0  0  0  0  0  0
  193.0480  172.8990  141.4620 O   0  0  0  0  0  1  0  0  0  0  0  0
  191.7460  173.3370  141.2200 C   0  0  0  0  0  2  0  0  0  0  0  0
  1 19  1  6  0  0  0
  1 22  1  0  0  0  0
  1 10  1  0  0  0  0
  2  3  1  0  0  0  0
  4 20  1  6  0  0  0
  4  5  1  0  0  0  0
  4 22  1  0  0  0  0
  5 15  1  6  0  0  0
  5 23  1  0  0  0  0
  6 32  1  1  0  0  0
  6 19  1  0  0  0  0
  6 14  1  0  0  0  0
  8 23  1  0  0  0  0
  8 21  2  0  0  0  0
  9  2  2  0  0  0  0
 10  7  1  6  0  0  0
 10 11  1  0  0  0  0
 11 17  2  0  0  0  0
 11  9  1  0  0  0  0
 12 18  1  1  0  0  0
 12 17  1  0  0  0  0
 13  8  1  0  0  0  0
 14 25  1  1  0  0  0
 14  7  1  0  0  0  0
 15 13  2  0  0  0  0
 16  3  2  0  0  0  0
 17 16  1  0  0  0  0
 22 12  1  0  0  0  0
 23 18  1  0  0  0  0
 25 24  1  0  0  0  0
 26 25  1  0  0  0  0
 27 26  1  0  0  0  0
 28 27  1  0  0  0  0
 29 28  2  0  0  0  0
 30 28  1  0  0  0  0
 32 31  1  0  0  0  0
M  END
>  <MODEL>
3

>  <REMARK>
 VINA RESULT:      -7.2      1.218      1.494
  Name = 
  5 active torsions:
  status: ('A' for Active; 'I' for Inactive)
    1  A    between atoms: C_7  and  C_19
    2  A    between atoms: C_10  and  C_17
    3  A    between atoms: C_10  and  O_20
    4  A    between atoms: O_20  and  C_29
    5  A    between atoms: C_29  and  C_30
                            x       y       z     vdW  Elec       q    Type
                         _______ _______ _______ _____ _____    ______ ____

>  <TORSDO>
F 5

$$$$
=
 OpenBabel11112416443D

 32 36  0  0  1  0  0  0  0  0999 V2000
  188.4700  176.4550  143.8070 C   0  0  1  0  0  3  0  0  0  0  0  0
  186.2910  177.4250  139.5150 C   0  0  0  0  0  3  0  0  0  0  0  0
  185.1800  177.9150  140.2040 C   0  0  0  0  0  3  0  0  0  0  0  0
  187.5920  177.4490  146.0030 C   0  0  2  0  0  3  0  0  0  0  0  0
  186.8330  178.6390  146.6070 C   0  0  2  0  0  3  0  0  0  0  0  0
  190.0680  174.8660  143.8600 C   0  0  2  0  0  3  0  0  0  0  0  0
  189.6140  175.9450  141.6620 O   0  0  0  0  0  0  0  0  0  0  0  0
  184.4890  178.6650  146.5750 C   0  0  0  0  0  0  0  0  0  0  0  0
  187.4420  177.0590  140.2150 C   0  0  0  0  0  3  0  0  0  0  0  0
  188.7510  176.8420  142.3560 C   0  0  1  0  0  3  0  0  0  0  0  0
  187.4870  177.1700  141.6120 C   0  0  0  0  0  0  0  0  0  0  0  0
  186.3680  177.7740  143.8270 C   0  0  2  0  0  3  0  0  0  0  0  0
  184.7880  178.2530  147.9590 C   0  0  0  0  0  3  0  0  0  0  0  0
  189.7820  174.7050  142.3370 C   0  0  2  0  0  3  0  0  0  0  0  0
  186.3190  178.2770  148.0110 C   0  0  0  0  0  3  0  0  0  0  0  0
  185.2220  178.0500  141.5930 C   0  0  0  0  0  3  0  0  0  0  0  0
  186.3810  177.7130  142.3090 C   0  0  0  0  0  0  0  0  0  0  0  0
  185.6830  179.0250  144.3660 C   0  0  0  0  0  2  0  0  0  0  0  0
  189.6970  176.1250  144.3870 O   0  0  0  0  0  0  0  0  0  0  0  0
  188.8400  177.3520  146.6240 O   0  0  0  0  0  1  0  0  0  0  0  0
  183.3250  178.7500  146.1050 O   0  0  0  0  0  0  0  0  0  0  0  0
  187.7610  177.6270  144.4810 C   0  0  2  0  0  3  0  0  0  0  0  0
  185.6490  178.9350  145.8190 N   0  0  0  0  0  0  0  0  0  0  0  0
  188.3530  173.6540  140.5770 C   0  0  0  0  0  1  0  0  0  0  0  0
  188.5950  173.7730  142.0720 C   0  0  1  0  0  3  0  0  0  0  0  0
  188.8390  172.5020  142.6020 O   0  0  0  0  0  0  0  0  0  0  0  0
  189.6970  171.8880  141.6870 C   0  0  0  0  0  2  0  0  0  0  0  0
  190.5680  170.9050  142.3890 C   0  0  0  0  0  0  0  0  0  0  0  0
  190.7670  169.7670  141.8880 O   0  0  0  0  0  0  0  0  0  0  0  0
  191.1870  171.2550  143.5810 O   0  0  0  0  0  1  0  0  0  0  0  0
  192.2100  174.4090  142.9200 O   0  0  0  0  0  1  0  0  0  0  0  0
  191.5400  174.6150  144.1260 C   0  0  0  0  0  2  0  0  0  0  0  0
  1 19  1  1  0  0  0
  1 22  1  0  0  0  0
  2  3  2  0  0  0  0
  2  9  1  0  0  0  0
  3 16  1  0  0  0  0
  4  5  1  0  0  0  0
  4 20  1  1  0  0  0
  5 15  1  1  0  0  0
  6 32  1  6  0  0  0
  6 19  1  0  0  0  0
  7 14  1  0  0  0  0
  7 10  1  0  0  0  0
  8 13  1  0  0  0  0
  9 11  2  0  0  0  0
 10 11  1  6  0  0  0
 10  1  1  0  0  0  0
 11 17  1  0  0  0  0
 12 18  1  6  0  0  0
 12 22  1  0  0  0  0
 13 15  2  0  0  0  0
 14 25  1  1  0  0  0
 14  6  1  0  0  0  0
 16 17  2  0  0  0  0
 17 12  1  0  0  0  0
 18 23  1  0  0  0  0
 21  8  2  0  0  0  0
 22  4  1  0  0  0  0
 23  8  1  0  0  0  0
 23  5  1  0  0  0  0
 24 25  1  0  0  0  0
 25 26  1  0  0  0  0
 27 28  1  0  0  0  0
 27 26  1  0  0  0  0
 28 30  1  0  0  0  0
 29 28  2  0  0  0  0
 31 32  1  0  0  0  0
M  END
>  <MODEL>
4

>  <REMARK>
 VINA RESULT:      -6.8      2.875      5.773
  Name = 
  5 active torsions:
  status: ('A' for Active; 'I' for Inactive)
    1  A    between atoms: C_7  and  C_19
    2  A    between atoms: C_10  and  C_17
    3  A    between atoms: C_10  and  O_20
    4  A    between atoms: O_20  and  C_29
    5  A    between atoms: C_29  and  C_30
                            x       y       z     vdW  Elec       q    Type
                         _______ _______ _______ _____ _____    ______ ____

>  <TORSDO>
F 5

$$$$
=
 OpenBabel11112416443D

 32 36  0  0  1  0  0  0  0  0999 V2000
  190.4250  175.4720  143.2770 C   0  0  1  0  0  3  0  0  0  0  0  0
  194.1710  176.2840  146.3460 C   0  0  0  0  0  3  0  0  0  0  0  0
  194.5940  174.9680  146.1580 C   0  0  0  0  0  3  0  0  0  0  0  0
  190.3810  173.4190  141.7410 C   0  0  2  0  0  3  0  0  0  0  0  0
  191.2680  172.4120  140.9950 C   0  0  2  0  0  3  0  0  0  0  0  0
  188.5880  176.7670  143.4640 C   0  0  2  0  0  3  0  0  0  0  0  0
  190.7240  177.6920  144.3510 O   0  0  0  0  0  0  0  0  0  0  0  0
  192.1420  170.5590  142.1350 C   0  0  0  0  0  0  0  0  0  0  0  0
  193.1130  176.7940  145.5900 C   0  0  0  0  0  3  0  0  0  0  0  0
  191.3730  176.5570  143.7840 C   0  0  1  0  0  3  0  0  0  0  0  0
  192.4640  175.9860  144.6460 C   0  0  0  0  0  0  0  0  0  0  0  0
  192.1930  173.7410  143.4590 C   0  0  2  0  0  3  0  0  0  0  0  0
  191.0010  169.9780  141.4040 C   0  0  0  0  0  3  0  0  0  0  0  0
  189.3500  177.4600  144.6330 C   0  0  2  0  0  3  0  0  0  0  0  0
  190.4460  171.1680  140.6140 C   0  0  0  0  0  3  0  0  0  0  0  0
  193.9690  174.1610  145.2050 C   0  0  0  0  0  3  0  0  0  0  0  0
  192.9230  174.6660  144.4170 C   0  0  0  0  0  0  0  0  0  0  0  0
  193.1340  172.8290  142.6790 C   0  0  0  0  0  2  0  0  0  0  0  0
  189.4300  176.1130  142.5340 O   0  0  0  0  0  0  0  0  0  0  0  0
  189.5400  174.0440  140.8170 O   0  0  0  0  0  1  0  0  0  0  0  0
  192.8660  169.9100  142.9340 O   0  0  0  0  0  0  0  0  0  0  0  0
  191.2440  174.4630  142.4760 C   0  0  2  0  0  3  0  0  0  0  0  0
  192.3280  171.9310  141.8650 N   0  0  0  0  0  0  0  0  0  0  0  0
  189.7140  177.5420  147.1040 C   0  0  0  0  0  1  0  0  0  0  0  0
  189.1850  176.7020  145.9550 C   0  0  1  0  0  3  0  0  0  0  0  0
  187.8390  176.4010  146.1850 O   0  0  0  0  0  0  0  0  0  0  0  0
  187.3350  177.5050  146.8780 C   0  0  0  0  0  2  0  0  0  0  0  0
  186.0260  177.9140  146.2990 C   0  0  0  0  0  0  0  0  0  0  0  0
  185.9430  178.9620  145.6050 O   0  0  0  0  0  0  0  0  0  0  0  0
  184.9030  177.1230  146.4960 O   0  0  0  0  0  1  0  0  0  0  0  0
  188.4180  178.2900  141.6400 O   0  0  0  0  0  1  0  0  0  0  0  0
  187.7300  177.7900  142.7450 C   0  0  0  0  0  2  0  0  0  0  0  0
  1 19  1  6  0  0  0
  1 10  1  0  0  0  0
  3  2  1  0  0  0  0
  4 20  1  6  0  0  0
  4 22  1  0  0  0  0
  5 15  1  1  0  0  0
  5  4  1  0  0  0  0
  5 23  1  0  0  0  0
  6 32  1  6  0  0  0
  6 14  1  0  0  0  0
  7 14  1  0  0  0  0
  8 21  2  0  0  0  0
  9  2  2  0  0  0  0
 10  7  1  1  0  0  0
 10 11  1  0  0  0  0
 11  9  1  0  0  0  0
 12 18  1  6  0  0  0
 12 17  1  0  0  0  0
 13  8  1  0  0  0  0
 14 25  1  1  0  0  0
 15 13  2  0  0  0  0
 16  3  2  0  0  0  0
 17 11  2  0  0  0  0
 17 16  1  0  0  0  0
 19  6  1  0  0  0  0
 22  1  1  0  0  0  0
 22 12  1  0  0  0  0
 23  8  1  0  0  0  0
 23 18  1  0  0  0  0
 25 26  1  0  0  0  0
 25 24  1  0  0  0  0
 26 27  1  0  0  0  0
 28 30  1  0  0  0  0
 28 27  1  0  0  0  0
 29 28  2  0  0  0  0
 31 32  1  0  0  0  0
M  END
>  <MODEL>
5

>  <REMARK>
 VINA RESULT:      -6.8      2.968      6.971
  Name = 
  5 active torsions:
  status: ('A' for Active; 'I' for Inactive)
    1  A    between atoms: C_7  and  C_19
    2  A    between atoms: C_10  and  C_17
    3  A    between atoms: C_10  and  O_20
    4  A    between atoms: O_20  and  C_29
    5  A    between atoms: C_29  and  C_30
                            x       y       z     vdW  Elec       q    Type
                         _______ _______ _______ _____ _____    ______ ____

>  <TORSDO>
F 5

$$$$
=
 OpenBabel11112416443D

 32 36  0  0  1  0  0  0  0  0999 V2000
  191.2790  173.9240  144.0920 C   0  0  1  0  0  3  0  0  0  0  0  0
  188.5120  177.3670  146.2380 C   0  0  0  0  0  3  0  0  0  0  0  0
  187.8170  177.5380  145.0400 C   0  0  0  0  0  3  0  0  0  0  0  0
  190.5990  172.8710  141.8550 C   0  0  2  0  0  3  0  0  0  0  0  0
  189.3970  172.5230  140.9650 C   0  0  2  0  0  3  0  0  0  0  0  0
  193.3220  173.5070  144.9480 C   0  0  2  0  0  3  0  0  0  0  0  0
  191.6440  174.5430  146.4700 O   0  0  0  0  0  0  0  0  0  0  0  0
  188.4590  174.1630  139.5780 C   0  0  0  0  0  0  0  0  0  0  0  0
  189.4570  176.3460  146.3590 C   0  0  0  0  0  3  0  0  0  0  0  0
  190.6850  174.3510  145.4340 C   0  0  1  0  0  3  0  0  0  0  0  0
  189.7200  175.4930  145.2780 C   0  0  0  0  0  0  0  0  0  0  0  0
  189.2980  174.7760  142.8640 C   0  0  2  0  0  3  0  0  0  0  0  0
  189.2830  173.3810  138.6380 C   0  0  0  0  0  3  0  0  0  0  0  0
  192.9780  174.6200  145.9830 C   0  0  2  0  0  3  0  0  0  0  0  0
  189.8670  172.2720  139.5210 C   0  0  0  0  0  3  0  0  0  0  0  0
  188.0570  176.6810  143.9640 C   0  0  0  0  0  3  0  0  0  0  0  0
  188.9820  175.6320  144.0780 C   0  0  0  0  0  0  0  0  0  0  0  0
  188.0550  174.3840  142.0720 C   0  0  0  0  0  2  0  0  0  0  0  0
  192.1910  172.8990  144.3560 O   0  0  0  0  0  0  0  0  0  0  0  0
  191.3210  171.7030  142.1080 O   0  0  0  0  0  1  0  0  0  0  0  0
  187.8160  175.1960  139.2540 O   0  0  0  0  0  0  0  0  0  0  0  0
  190.1290  173.5110  143.1760 C   0  0  2  0  0  3  0  0  0  0  0  0
  188.4810  173.6480  140.8910 N   0  0  0  0  0  0  0  0  0  0  0  0
  194.0580  176.8200  146.4720 C   0  0  0  0  0  1  0  0  0  0  0  0
  193.2800  176.0210  145.4400 C   0  0  1  0  0  3  0  0  0  0  0  0
  194.0260  175.9410  144.2600 O   0  0  0  0  0  0  0  0  0  0  0  0
  195.2500  176.5440  144.5650 C   0  0  0  0  0  2  0  0  0  0  0  0
  196.2560  176.2070  143.5200 C   0  0  0  0  0  0  0  0  0  0  0  0
  196.2280  175.0820  142.9560 O   0  0  0  0  0  0  0  0  0  0  0  0
  197.2050  177.1470  143.1430 O   0  0  0  0  0  1  0  0  0  0  0  0
  195.5240  172.8180  145.5470 O   0  0  0  0  0  1  0  0  0  0  0  0
  194.1810  172.4490  145.6140 C   0  0  0  0  0  2  0  0  0  0  0  0
  1 19  1  1  0  0  0
  1 10  1  0  0  0  0
  2  9  1  0  0  0  0
  3  2  2  0  0  0  0
  4 20  1  1  0  0  0
  4 22  1  0  0  0  0
  5 15  1  6  0  0  0
  5  4  1  0  0  0  0
  6 32  1  1  0  0  0
  6 14  1  0  0  0  0
  8 23  1  0  0  0  0
 10 11  1  6  0  0  0
 10  7  1  0  0  0  0
 11  9  2  0  0  0  0
 12 18  1  1  0  0  0
 12 22  1  0  0  0  0
 12 17  1  0  0  0  0
 13 15  2  0  0  0  0
 13  8  1  0  0  0  0
 14 25  1  6  0  0  0
 14  7  1  0  0  0  0
 16 17  2  0  0  0  0
 16  3  1  0  0  0  0
 17 11  1  0  0  0  0
 19  6  1  0  0  0  0
 21  8  2  0  0  0  0
 22  1  1  0  0  0  0
 23  5  1  0  0  0  0
 23 18  1  0  0  0  0
 25 24  1  0  0  0  0
 26 27  1  0  0  0  0
 26 25  1  0  0  0  0
 28 27  1  0  0  0  0
 29 28  2  0  0  0  0
 30 28  1  0  0  0  0
 31 32  1  0  0  0  0
M  END
>  <MODEL>
6

>  <REMARK>
 VINA RESULT:      -6.8      2.456      3.927
  Name = 
  5 active torsions:
  status: ('A' for Active; 'I' for Inactive)
    1  A    between atoms: C_7  and  C_19
    2  A    between atoms: C_10  and  C_17
    3  A    between atoms: C_10  and  O_20
    4  A    between atoms: O_20  and  C_29
    5  A    between atoms: C_29  and  C_30
                            x       y       z     vdW  Elec       q    Type
                         _______ _______ _______ _____ _____    ______ ____

>  <TORSDO>
F 5

$$$$
=
 OpenBabel11112416443D

 32 36  0  0  1  0  0  0  0  0999 V2000
  191.2340  175.7390  144.3940 C   0  0  1  0  0  3  0  0  0  0  0  0
  189.3160  172.2910  141.4720 C   0  0  0  0  0  3  0  0  0  0  0  0
  190.4940  172.2890  140.7230 C   0  0  0  0  0  3  0  0  0  0  0  0
  193.7450  176.2630  144.3700 C   0  0  2  0  0  3  0  0  0  0  0  0
  195.1310  175.6640  144.0920 C   0  0  2  0  0  3  0  0  0  0  0  0
  189.8250  177.0790  145.5350 C   0  0  2  0  0  3  0  0  0  0  0  0
  188.9410  174.8710  144.7950 O   0  0  0  0  0  0  0  0  0  0  0  0
  195.9340  175.5550  141.8920 C   0  0  0  0  0  0  0  0  0  0  0  0
  189.2360  173.0420  142.6460 C   0  0  0  0  0  3  0  0  0  0  0  0
  190.2660  174.5580  144.3740 C   0  0  1  0  0  3  0  0  0  0  0  0
  190.3310  173.8060  143.0740 C   0  0  0  0  0  0  0  0  0  0  0  0
  192.7200  174.6430  142.7370 C   0  0  2  0  0  3  0  0  0  0  0  0
  196.6360  176.7330  142.4320 C   0  0  0  0  0  3  0  0  0  0  0  0
  188.6910  176.2710  144.8380 C   0  0  2  0  0  3  0  0  0  0  0  0
  196.1590  176.7920  143.8870 C   0  0  0  0  0  3  0  0  0  0  0  0
  191.5970  173.0290  141.1510 C   0  0  0  0  0  3  0  0  0  0  0  0
  191.5430  173.7680  142.3440 C   0  0  0  0  0  0  0  0  0  0  0  0
  194.0670  173.9600  142.5260 C   0  0  0  0  0  2  0  0  0  0  0  0
  191.0580  176.3910  145.6180 O   0  0  0  0  0  0  0  0  0  0  0  0
  193.7240  176.7550  145.6770 O   0  0  0  0  0  1  0  0  0  0  0  0
  196.0330  175.1660  140.6990 O   0  0  0  0  0  0  0  0  0  0  0  0
  192.6460  175.2000  144.1770 C   0  0  2  0  0  3  0  0  0  0  0  0
  195.1170  174.9150  142.8480 N   0  0  0  0  0  0  0  0  0  0  0  0
  187.2770  175.9850  142.7970 C   0  0  0  0  0  1  0  0  0  0  0  0
  188.3780  176.8120  143.4380 C   0  0  1  0  0  3  0  0  0  0  0  0
  187.9720  178.1480  143.5070 O   0  0  0  0  0  0  0  0  0  0  0  0
  186.6240  178.1350  143.1350 C   0  0  0  0  0  2  0  0  0  0  0  0
  185.8020  178.7990  144.1840 C   0  0  0  0  0  0  0  0  0  0  0  0
  185.3450  178.1280  145.1460 O   0  0  0  0  0  1  0  0  0  0  0  0
  185.5670  180.1660  144.1180 O   0  0  0  0  0  0  0  0  0  0  0  0
  187.9800  177.5410  146.9720 O   0  0  0  0  0  1  0  0  0  0  0  0
  189.3720  177.4840  146.9250 C   0  0  0  0  0  2  0  0  0  0  0  0
  1 19  1  1  0  0  0
  2  9  1  0  0  0  0
  3 16  1  0  0  0  0
  3  2  2  0  0  0  0
  4 20  1  1  0  0  0
  5 15  1  6  0  0  0
  5  4  1  0  0  0  0
  6 19  1  0  0  0  0
  6 32  1  1  0  0  0
  7 14  1  0  0  0  0
  8 13  1  0  0  0  0
  8 23  1  0  0  0  0
  9 11  2  0  0  0  0
 10 11  1  6  0  0  0
 10  1  1  0  0  0  0
 10  7  1  0  0  0  0
 12 18  1  1  0  0  0
 12 22  1  0  0  0  0
 13 15  2  0  0  0  0
 14 25  1  6  0  0  0
 14  6  1  0  0  0  0
 16 17  2  0  0  0  0
 17 12  1  0  0  0  0
 17 11  1  0  0  0  0
 18 23  1  0  0  0  0
 21  8  2  0  0  0  0
 22  4  1  0  0  0  0
 22  1  1  0  0  0  0
 23  5  1  0  0  0  0
 24 25  1  0  0  0  0
 25 26  1  0  0  0  0
 27 26  1  0  0  0  0
 27 28  1  0  0  0  0
 28 29  1  0  0  0  0
 30 28  2  0  0  0  0
 32 31  1  0  0  0  0
M  END
>  <MODEL>
7

>  <REMARK>
 VINA RESULT:      -6.5      2.404      7.869
  Name = 
  5 active torsions:
  status: ('A' for Active; 'I' for Inactive)
    1  A    between atoms: C_7  and  C_19
    2  A    between atoms: C_10  and  C_17
    3  A    between atoms: C_10  and  O_20
    4  A    between atoms: O_20  and  C_29
    5  A    between atoms: C_29  and  C_30
                            x       y       z     vdW  Elec       q    Type
                         _______ _______ _______ _____ _____    ______ ____

>  <TORSDO>
F 5

$$$$
=
 OpenBabel11112416443D

 32 36  0  0  1  0  0  0  0  0999 V2000
  192.0550  175.4970  145.3960 C   0  0  1  0  0  3  0  0  0  0  0  0
  189.3480  171.8970  143.4410 C   0  0  0  0  0  3  0  0  0  0  0  0
  190.1440  171.9380  142.2960 C   0  0  0  0  0  3  0  0  0  0  0  0
  194.3300  176.1440  144.4050 C   0  0  2  0  0  3  0  0  0  0  0  0
  195.5320  175.6090  143.6140 C   0  0  2  0  0  3  0  0  0  0  0  0
  191.1240  176.7890  146.9930 C   0  0  2  0  0  3  0  0  0  0  0  0
  190.1430  174.5250  146.6510 O   0  0  0  0  0  0  0  0  0  0  0  0
  195.4310  175.4940  141.2750 C   0  0  0  0  0  0  0  0  0  0  0  0
  189.6860  172.6680  144.5550 C   0  0  0  0  0  3  0  0  0  0  0  0
  191.2190  174.2690  145.7520 C   0  0  1  0  0  3  0  0  0  0  0  0
  190.8180  173.4940  144.5270 C   0  0  0  0  0  0  0  0  0  0  0  0
  192.8450  174.4410  143.2940 C   0  0  2  0  0  3  0  0  0  0  0  0
  196.2220  176.7160  141.5020 C   0  0  0  0  0  3  0  0  0  0  0  0
  189.8540  175.9110  146.7870 C   0  0  2  0  0  3  0  0  0  0  0  0
  196.3400  176.7820  143.0280 C   0  0  0  0  0  3  0  0  0  0  0  0
  191.2860  172.7410  142.2650 C   0  0  0  0  0  3  0  0  0  0  0  0
  191.6550  173.5010  143.3860 C   0  0  0  0  0  0  0  0  0  0  0  0
  194.0400  173.8210  142.5800 C   0  0  0  0  0  2  0  0  0  0  0  0
  192.3290  176.1650  146.5930 O   0  0  0  0  0  0  0  0  0  0  0  0
  194.7880  176.6620  145.6190 O   0  0  0  0  0  1  0  0  0  0  0  0
  195.0830  175.0850  140.1360 O   0  0  0  0  0  0  0  0  0  0  0  0
  193.3010  175.0240  144.6520 C   0  0  2  0  0  3  0  0  0  0  0  0
  195.0810  174.8340  142.4710 N   0  0  0  0  0  0  0  0  0  0  0  0
  187.6060  176.7640  146.1070 C   0  0  0  0  0  1  0  0  0  0  0  0
  188.9980  176.4060  145.6160 C   0  0  1  0  0  3  0  0  0  0  0  0
  189.5800  177.5300  145.0210 O   0  0  0  0  0  0  0  0  0  0  0  0
  188.6780  177.9210  144.0280 C   0  0  0  0  0  2  0  0  0  0  0  0
  189.2240  177.5820  142.6850 C   0  0  0  0  0  0  0  0  0  0  0  0
  188.9370  178.2960  141.6880 O   0  0  0  0  0  0  0  0  0  0  0  0
  190.0780  176.4970  142.5370 O   0  0  0  0  0  1  0  0  0  0  0  0
  190.4260  178.3220  148.6790 O   0  0  0  0  0  1  0  0  0  0  0  0
  191.2210  177.2000  148.4500 C   0  0  0  0  0  2  0  0  0  0  0  0
  1 10  1  0  0  0  0
  1 19  1  1  0  0  0
  2  9  1  0  0  0  0
  3  2  2  0  0  0  0
  4 22  1  0  0  0  0
  4 20  1  1  0  0  0
  5 15  1  6  0  0  0
  5  4  1  0  0  0  0
  6 32  1  1  0  0  0
  7 14  1  0  0  0  0
  8 13  1  0  0  0  0
  8 23  1  0  0  0  0
 10 11  1  6  0  0  0
 10  7  1  0  0  0  0
 11  9  2  0  0  0  0
 12 18  1  1  0  0  0
 12 17  1  0  0  0  0
 12 22  1  0  0  0  0
 13 15  2  0  0  0  0
 14 25  1  6  0  0  0
 14  6  1  0  0  0  0
 16  3  1  0  0  0  0
 16 17  2  0  0  0  0
 17 11  1  0  0  0  0
 19  6  1  0  0  0  0
 21  8  2  0  0  0  0
 22  1  1  0  0  0  0
 23 18  1  0  0  0  0
 23  5  1  0  0  0  0
 25 24  1  0  0  0  0
 26 25  1  0  0  0  0
 27 26  1  0  0  0  0
 28 27  1  0  0  0  0
 29 28  2  0  0  0  0
 30 28  1  0  0  0  0
 32 31  1  0  0  0  0
M  END
>  <MODEL>
8

>  <REMARK>
 VINA RESULT:      -6.4      2.670      7.109
  Name = 
  5 active torsions:
  status: ('A' for Active; 'I' for Inactive)
    1  A    between atoms: C_7  and  C_19
    2  A    between atoms: C_10  and  C_17
    3  A    between atoms: C_10  and  O_20
    4  A    between atoms: O_20  and  C_29
    5  A    between atoms: C_29  and  C_30
                            x       y       z     vdW  Elec       q    Type
                         _______ _______ _______ _____ _____    ______ ____

>  <TORSDO>
F 5

$$$$
=
 OpenBabel11112416443D

 32 36  0  0  1  0  0  0  0  0999 V2000
  188.9660  175.8190  143.9270 C   0  0  1  0  0  3  0  0  0  0  0  0
  192.1280  175.8640  147.6840 C   0  0  0  0  0  3  0  0  0  0  0  0
  191.3170  176.7930  148.3380 C   0  0  0  0  0  3  0  0  0  0  0  0
  186.6080  176.8020  144.1570 C   0  0  2  0  0  3  0  0  0  0  0  0
  185.4830  177.0980  145.1580 C   0  0  2  0  0  3  0  0  0  0  0  0
  189.7270  175.2040  141.8960 C   0  0  2  0  0  3  0  0  0  0  0  0
  191.0140  174.4130  143.8770 O   0  0  0  0  0  0  0  0  0  0  0  0
  185.5660  179.0410  146.4670 C   0  0  0  0  0  0  0  0  0  0  0  0
  191.7000  175.2830  146.4890 C   0  0  0  0  0  3  0  0  0  0  0  0
  189.9720  174.9550  144.6850 C   0  0  1  0  0  3  0  0  0  0  0  0
  190.4610  175.6340  145.9340 C   0  0  0  0  0  0  0  0  0  0  0  0
  188.3040  176.9990  146.0070 C   0  0  2  0  0  3  0  0  0  0  0  0
  184.6120  179.4090  145.4040 C   0  0  0  0  0  3  0  0  0  0  0  0
  191.1060  175.0370  142.6020 C   0  0  2  0  0  3  0  0  0  0  0  0
  184.5090  178.1310  144.5650 C   0  0  0  0  0  3  0  0  0  0  0  0
  190.0730  177.1340  147.8050 C   0  0  0  0  0  3  0  0  0  0  0  0
  189.6160  176.5390  146.6200 C   0  0  0  0  0  0  0  0  0  0  0  0
  187.1980  177.1850  147.0400 C   0  0  0  0  0  2  0  0  0  0  0  0
  188.6170  175.1200  142.7690 O   0  0  0  0  0  0  0  0  0  0  0  0
  186.0990  175.9940  143.1370 O   0  0  0  0  0  1  0  0  0  0  0  0
  185.9520  179.8310  147.3670 O   0  0  0  0  0  0  0  0  0  0  0  0
  187.7890  176.1030  144.8580 C   0  0  2  0  0  3  0  0  0  0  0  0
  186.0230  177.7110  146.3590 N   0  0  0  0  0  0  0  0  0  0  0  0
  190.8870  177.5130  142.8570 C   0  0  0  0  0  1  0  0  0  0  0  0
  191.8660  176.3640  142.6970 C   0  0  1  0  0  3  0  0  0  0  0  0
  192.7440  176.3510  143.7860 O   0  0  0  0  0  0  0  0  0  0  0  0
  193.9920  176.0400  143.2400 C   0  0  0  0  0  2  0  0  0  0  0  0
  195.0620  176.2870  144.2460 C   0  0  0  0  0  0  0  0  0  0  0  0
  196.2400  175.9050  144.0220 O   0  0  0  0  0  0  0  0  0  0  0  0
  194.7660  176.9690  145.4190 O   0  0  0  0  0  1  0  0  0  0  0  0
  189.0860  172.9800  141.3290 O   0  0  0  0  0  1  0  0  0  0  0  0
  189.5940  174.1660  140.7990 C   0  0  0  0  0  2  0  0  0  0  0  0
  1 19  1  6  0  0  0
  1 10  1  0  0  0  0
  1 22  1  0  0  0  0
  2  3  1  0  0  0  0
  4 20  1  6  0  0  0
  4 22  1  0  0  0  0
  4  5  1  0  0  0  0
  5 15  1  6  0  0  0
  5 23  1  0  0  0  0
  6 32  1  6  0  0  0
  6 14  1  0  0  0  0
  6 19  1  0  0  0  0
  8 21  2  0  0  0  0
  9  2  2  0  0  0  0
 10  7  1  6  0  0  0
 10 11  1  0  0  0  0
 11  9  1  0  0  0  0
 11 17  2  0  0  0  0
 12 17  1  0  0  0  0
 12 18  1  1  0  0  0
 13  8  1  0  0  0  0
 14 25  1  1  0  0  0
 14  7  1  0  0  0  0
 15 13  2  0  0  0  0
 16  3  2  0  0  0  0
 17 16  1  0  0  0  0
 22 12  1  0  0  0  0
 23  8  1  0  0  0  0
 23 18  1  0  0  0  0
 25 24  1  0  0  0  0
 25 26  1  0  0  0  0
 27 26  1  0  0  0  0
 27 28  1  0  0  0  0
 28 30  1  0  0  0  0
 29 28  2  0  0  0  0
 32 31  1  0  0  0  0
M  END
>  <MODEL>
9

>  <REMARK>
 VINA RESULT:      -6.4      1.690      2.402
  Name = 
  5 active torsions:
  status: ('A' for Active; 'I' for Inactive)
    1  A    between atoms: C_7  and  C_19
    2  A    between atoms: C_10  and  C_17
    3  A    between atoms: C_10  and  O_20
    4  A    between atoms: O_20  and  C_29
    5  A    between atoms: C_29  and  C_30
                            x       y       z     vdW  Elec       q    Type
                         _______ _______ _______ _____ _____    ______ ____

>  <TORSDO>
F 5

$$$$
