=
 OpenBabel11112416583D

 31 35  0  0  0  0  0  0  0  0999 V2000
  184.9400  178.0190  146.4340 C   0  0  0  0  0  0  0  0  0  0  0  0
  187.4430  176.9800  143.8190 C   0  0  0  0  0  0  0  0  0  0  0  0
  186.8360  177.1990  142.5440 C   0  0  0  0  0  0  0  0  0  0  0  0
  191.0860  175.5910  147.3590 O   0  0  0  0  0  0  0  0  0  0  0  0
  191.5470  175.3880  146.2040 C   0  0  0  0  0  0  0  0  0  0  0  0
  184.9730  177.9160  141.1320 C   0  0  0  0  0  0  0  0  0  0  0  0
  186.8170  177.2500  145.0740 C   0  0  0  0  0  0  0  0  0  0  0  0
  185.6570  177.7530  147.5990 C   0  0  0  0  0  3  0  0  0  0  0  0
  185.5340  177.7140  142.3940 C   0  0  0  0  0  3  0  0  0  0  0  0
  189.4190  176.2140  145.0510 C   0  0  0  0  0  0  0  0  0  0  0  0
  183.3160  178.6660  146.5320 Cl  0  0  0  0  0  0  0  0  0  0  0  0
  188.8470  176.3810  141.4580 C   0  0  0  0  0  3  0  0  0  0  0  0
  183.3510  178.5590  140.9900 Cl  0  0  0  0  0  0  0  0  0  0  0  0
  188.7900  176.4850  146.2210 N   0  0  0  0  0  0  0  0  0  0  0  0
  188.7660  176.4540  143.8340 C   0  0  0  0  0  0  0  0  0  0  0  0
  190.7530  175.6840  145.0460 N   0  0  0  0  0  2  0  0  0  0  0  0
  185.5150  177.7700  145.1870 C   0  0  0  0  0  3  0  0  0  0  0  0
  185.7040  177.6070  139.9860 C   0  0  0  0  0  3  0  0  0  0  0  0
  187.5320  176.9850  146.2700 C   0  0  0  0  0  0  0  0  0  0  0  0
  186.9510  177.2380  147.5170 C   0  0  0  0  0  3  0  0  0  0  0  0
  189.4120  176.1770  142.6700 N   0  0  0  0  0  0  0  0  0  0  0  0
  187.5600  176.8920  141.3650 C   0  0  0  0  0  0  0  0  0  0  0  0
  186.9960  177.0950  140.1030 C   0  0  0  0  0  3  0  0  0  0  0  0
  195.4720  173.7350  145.6750 C   0  0  0  0  0  0  0  0  0  0  0  0
  193.0660  173.5270  145.5660 C   0  0  0  0  0  3  0  0  0  0  0  0
  193.9780  176.8780  146.7700 F   0  0  0  0  0  0  0  0  0  0  0  0
  196.7370  173.1880  145.4990 O   0  0  0  0  0  1  0  0  0  0  0  0
  194.3380  172.9750  145.3880 C   0  0  0  0  0  3  0  0  0  0  0  0
  194.0670  175.6030  146.3180 C   0  0  0  0  0  0  0  0  0  0  0  0
  192.9130  174.8430  146.0300 C   0  0  0  0  0  0  0  0  0  0  0  0
  195.3370  175.0450  146.1380 C   0  0  0  0  0  3  0  0  0  0  0  0
  1 11  1  0  0  0  0
  1  8  1  0  0  0  0
  2 15  1  0  0  0  0
  2  7  1  0  0  0  0
  3  2  2  0  0  0  0
  5  4  2  0  0  0  0
  6  9  2  0  0  0  0
  7 17  1  0  0  0  0
  7 19  2  0  0  0  0
  9  3  1  0  0  0  0
 10 14  2  0  0  0  0
 12 21  1  0  0  0  0
 13  6  1  0  0  0  0
 14 19  1  0  0  0  0
 15 10  1  0  0  0  0
 16 10  1  0  0  0  0
 16  5  1  0  0  0  0
 17  1  2  0  0  0  0
 18 23  2  0  0  0  0
 18  6  1  0  0  0  0
 19 20  1  0  0  0  0
 20  8  2  0  0  0  0
 21 15  2  0  0  0  0
 22 12  2  0  0  0  0
 22  3  1  0  0  0  0
 23 22  1  0  0  0  0
 24 31  1  0  0  0  0
 25 30  2  0  0  0  0
 27 24  1  0  0  0  0
 28 25  1  0  0  0  0
 28 24  2  0  0  0  0
 29 26  1  0  0  0  0
 30  5  1  0  0  0  0
 30 29  1  0  0  0  0
 31 29  2  0  0  0  0
M  END
>  <MODEL>
1

>  <REMARK>
 VINA RESULT:      -9.0      0.000      0.000
  Name = 
  1 active torsions:
  status: ('A' for Active; 'I' for Inactive)
    1  A    between atoms: C_5  and  C_30
                            x       y       z     vdW  Elec       q    Type
                         _______ _______ _______ _____ _____    ______ ____

>  <TORSDO>
F 1

$$$$
=
 OpenBabel11112416583D

 31 35  0  0  0  0  0  0  0  0999 V2000
  190.9100  176.7780  147.1990 C   0  0  0  0  0  0  0  0  0  0  0  0
  188.3460  176.4120  144.4640 C   0  0  0  0  0  0  0  0  0  0  0  0
  187.2010  177.1730  144.8550 C   0  0  0  0  0  0  0  0  0  0  0  0
  191.4110  173.2900  141.5320 O   0  0  0  0  0  0  0  0  0  0  0  0
  190.3150  173.4610  140.9310 C   0  0  0  0  0  0  0  0  0  0  0  0
  186.0030  178.6290  146.4110 C   0  0  0  0  0  0  0  0  0  0  0  0
  189.5430  176.2920  145.2330 C   0  0  0  0  0  0  0  0  0  0  0  0
  191.9450  175.9970  146.6890 C   0  0  0  0  0  3  0  0  0  0  0  0
  187.1380  177.8960  146.0610 C   0  0  0  0  0  3  0  0  0  0  0  0
  189.3710  174.9610  142.7750 C   0  0  0  0  0  0  0  0  0  0  0  0
  191.0940  177.5770  148.7450 Cl  0  0  0  0  0  0  0  0  0  0  0  0
  186.0810  176.5220  142.8020 C   0  0  0  0  0  3  0  0  0  0  0  0
  185.9650  179.5130  147.9210 Cl  0  0  0  0  0  0  0  0  0  0  0  0
  190.4900  174.8730  143.5360 N   0  0  0  0  0  0  0  0  0  0  0  0
  188.2840  175.7260  143.2180 C   0  0  0  0  0  0  0  0  0  0  0  0
  189.2900  174.2770  141.5160 N   0  0  0  0  0  2  0  0  0  0  0  0
  189.7230  176.9220  146.4780 C   0  0  0  0  0  3  0  0  0  0  0  0
  184.9010  178.6580  145.5580 C   0  0  0  0  0  3  0  0  0  0  0  0
  190.6080  175.5020  144.7300 C   0  0  0  0  0  0  0  0  0  0  0  0
  191.7950  175.3620  145.4560 C   0  0  0  0  0  3  0  0  0  0  0  0
  187.1700  175.8040  142.4420 N   0  0  0  0  0  0  0  0  0  0  0  0
  186.0700  177.2170  144.0030 C   0  0  0  0  0  0  0  0  0  0  0  0
  184.9340  177.9520  144.3550 C   0  0  0  0  0  3  0  0  0  0  0  0
  189.6070  171.6780  137.0920 C   0  0  0  0  0  0  0  0  0  0  0  0
  189.7770  173.6290  138.5100 C   0  0  0  0  0  3  0  0  0  0  0  0
  190.4200  170.5920  140.4790 F   0  0  0  0  0  0  0  0  0  0  0  0
  189.3770  171.1150  135.8440 O   0  0  0  0  0  1  0  0  0  0  0  0
  189.5450  173.0630  137.2540 C   0  0  0  0  0  3  0  0  0  0  0  0
  190.1370  171.4200  139.4440 C   0  0  0  0  0  0  0  0  0  0  0  0
  190.0760  172.8200  139.6180 C   0  0  0  0  0  0  0  0  0  0  0  0
  189.9030  170.8600  138.1840 C   0  0  0  0  0  3  0  0  0  0  0  0
  1 11  1  0  0  0  0
  2  3  1  0  0  0  0
  2  7  1  0  0  0  0
  3  9  1  0  0  0  0
  5 16  1  0  0  0  0
  5  4  2  0  0  0  0
  6 13  1  0  0  0  0
  7 17  1  0  0  0  0
  8  1  1  0  0  0  0
  9  6  2  0  0  0  0
 10 15  1  0  0  0  0
 10 14  2  0  0  0  0
 12 22  1  0  0  0  0
 14 19  1  0  0  0  0
 15  2  2  0  0  0  0
 16 10  1  0  0  0  0
 17  1  2  0  0  0  0
 18  6  1  0  0  0  0
 19  7  2  0  0  0  0
 19 20  1  0  0  0  0
 20  8  2  0  0  0  0
 21 12  2  0  0  0  0
 21 15  1  0  0  0  0
 22 23  1  0  0  0  0
 22  3  2  0  0  0  0
 23 18  2  0  0  0  0
 24 28  2  0  0  0  0
 24 31  1  0  0  0  0
 25 30  2  0  0  0  0
 27 24  1  0  0  0  0
 28 25  1  0  0  0  0
 29 30  1  0  0  0  0
 29 26  1  0  0  0  0
 30  5  1  0  0  0  0
 31 29  2  0  0  0  0
M  END
>  <MODEL>
2

>  <REMARK>
 VINA RESULT:      -8.8      4.341      6.397
  Name = 
  1 active torsions:
  status: ('A' for Active; 'I' for Inactive)
    1  A    between atoms: C_5  and  C_30
                            x       y       z     vdW  Elec       q    Type
                         _______ _______ _______ _____ _____    ______ ____

>  <TORSDO>
F 1

$$$$
=
 OpenBabel11112416583D

 31 35  0  0  0  0  0  0  0  0999 V2000
  185.2650  177.9850  146.8550 C   0  0  0  0  0  0  0  0  0  0  0  0
  187.0640  177.6580  143.5630 C   0  0  0  0  0  0  0  0  0  0  0  0
  186.0930  177.8500  142.5310 C   0  0  0  0  0  0  0  0  0  0  0  0
  191.7390  176.7490  145.8110 O   0  0  0  0  0  0  0  0  0  0  0  0
  191.8820  176.7290  144.5590 C   0  0  0  0  0  0  0  0  0  0  0  0
  183.8150  178.2910  141.7640 C   0  0  0  0  0  0  0  0  0  0  0  0
  186.7830  177.7050  144.9620 C   0  0  0  0  0  0  0  0  0  0  0  0
  186.3160  177.7780  147.7460 C   0  0  0  0  0  3  0  0  0  0  0  0
  184.7360  178.1090  142.7970 C   0  0  0  0  0  3  0  0  0  0  0  0
  189.4070  177.2050  144.1220 C   0  0  0  0  0  0  0  0  0  0  0  0
  183.6510  178.2910  147.4590 Cl  0  0  0  0  0  0  0  0  0  0  0  0
  187.8230  177.5270  140.8590 C   0  0  0  0  0  3  0  0  0  0  0  0
  182.1350  178.6110  142.1370 Cl  0  0  0  0  0  0  0  0  0  0  0  0
  189.0980  177.2580  145.4420 N   0  0  0  0  0  0  0  0  0  0  0  0
  188.4060  177.4030  143.1620 C   0  0  0  0  0  0  0  0  0  0  0  0
  190.7540  176.9490  143.6990 N   0  0  0  0  0  2  0  0  0  0  0  0
  185.4980  177.9480  145.4790 C   0  0  0  0  0  3  0  0  0  0  0  0
  184.2330  178.2190  140.4360 C   0  0  0  0  0  3  0  0  0  0  0  0
  187.8400  177.4960  145.8830 C   0  0  0  0  0  0  0  0  0  0  0  0
  187.6010  177.5350  147.2610 C   0  0  0  0  0  3  0  0  0  0  0  0
  188.7340  177.3470  141.8430 N   0  0  0  0  0  0  0  0  0  0  0  0
  186.4960  177.7810  141.1740 C   0  0  0  0  0  0  0  0  0  0  0  0
  185.5720  177.9630  140.1410 C   0  0  0  0  0  3  0  0  0  0  0  0
  195.7060  175.9760  142.7620 C   0  0  0  0  0  0  0  0  0  0  0  0
  193.2930  176.0420  142.6310 C   0  0  0  0  0  3  0  0  0  0  0  0
  194.3910  177.0760  145.9830 F   0  0  0  0  0  0  0  0  0  0  0  0
  196.9370  175.7300  142.1680 O   0  0  0  0  0  1  0  0  0  0  0  0
  194.5300  175.7930  142.0320 C   0  0  0  0  0  3  0  0  0  0  0  0
  194.4090  176.6590  144.6930 C   0  0  0  0  0  0  0  0  0  0  0  0
  193.2140  176.4770  143.9630 C   0  0  0  0  0  0  0  0  0  0  0  0
  195.6440  176.4080  144.0880 C   0  0  0  0  0  3  0  0  0  0  0  0
  1 11  1  0  0  0  0
  1  8  1  0  0  0  0
  2  7  1  0  0  0  0
  3  9  1  0  0  0  0
  3  2  2  0  0  0  0
  5  4  2  0  0  0  0
  6 13  1  0  0  0  0
  6  9  2  0  0  0  0
  7 17  1  0  0  0  0
  7 19  2  0  0  0  0
 10 14  2  0  0  0  0
 12 22  2  0  0  0  0
 12 21  1  0  0  0  0
 14 19  1  0  0  0  0
 15  2  1  0  0  0  0
 15 10  1  0  0  0  0
 16 10  1  0  0  0  0
 16  5  1  0  0  0  0
 17  1  2  0  0  0  0
 18  6  1  0  0  0  0
 19 20  1  0  0  0  0
 20  8  2  0  0  0  0
 21 15  2  0  0  0  0
 22  3  1  0  0  0  0
 23 18  2  0  0  0  0
 23 22  1  0  0  0  0
 24 31  1  0  0  0  0
 25 30  2  0  0  0  0
 27 24  1  0  0  0  0
 28 25  1  0  0  0  0
 28 24  2  0  0  0  0
 29 26  1  0  0  0  0
 30  5  1  0  0  0  0
 30 29  1  0  0  0  0
 31 29  2  0  0  0  0
M  END
>  <MODEL>
3

>  <REMARK>
 VINA RESULT:      -8.8      1.896      1.995
  Name = 
  1 active torsions:
  status: ('A' for Active; 'I' for Inactive)
    1  A    between atoms: C_5  and  C_30
                            x       y       z     vdW  Elec       q    Type
                         _______ _______ _______ _____ _____    ______ ____

>  <TORSDO>
F 1

$$$$
=
 OpenBabel11112416583D

 31 35  0  0  0  0  0  0  0  0999 V2000
  195.2770  174.0220  145.5380 C   0  0  0  0  0  0  0  0  0  0  0  0
  191.8310  173.2490  144.2280 C   0  0  0  0  0  0  0  0  0  0  0  0
  191.9250  172.0280  143.4900 C   0  0  0  0  0  0  0  0  0  0  0  0
  189.6710  177.5450  146.3770 O   0  0  0  0  0  0  0  0  0  0  0  0
  188.7750  176.9050  145.7630 C   0  0  0  0  0  0  0  0  0  0  0  0
  193.1840  170.1260  142.6120 C   0  0  0  0  0  0  0  0  0  0  0  0
  192.9260  173.8860  144.8870 C   0  0  0  0  0  0  0  0  0  0  0  0
  195.0330  175.2130  146.2190 C   0  0  0  0  0  3  0  0  0  0  0  0
  193.1290  171.3160  143.3390 C   0  0  0  0  0  3  0  0  0  0  0  0
  190.3920  175.0710  145.0120 C   0  0  0  0  0  0  0  0  0  0  0  0
  196.8900  173.3440  145.5050 Cl  0  0  0  0  0  0  0  0  0  0  0  0
  189.5510  172.1560  142.9980 C   0  0  0  0  0  3  0  0  0  0  0  0
  194.7020  169.2710  142.4470 Cl  0  0  0  0  0  0  0  0  0  0  0  0
  191.4580  175.6440  145.6260 N   0  0  0  0  0  0  0  0  0  0  0  0
  190.5540  173.8710  144.3060 C   0  0  0  0  0  0  0  0  0  0  0  0
  189.0960  175.6840  145.0810 N   0  0  0  0  0  2  0  0  0  0  0  0
  194.2330  173.3670  144.8800 C   0  0  0  0  0  3  0  0  0  0  0  0
  192.0290  169.6180  142.0180 C   0  0  0  0  0  3  0  0  0  0  0  0
  192.6970  175.0990  145.5850 C   0  0  0  0  0  0  0  0  0  0  0  0
  193.7460  175.7490  146.2430 C   0  0  0  0  0  3  0  0  0  0  0  0
  189.4740  173.3120  143.6980 N   0  0  0  0  0  0  0  0  0  0  0  0
  190.7640  171.4930  142.8790 C   0  0  0  0  0  0  0  0  0  0  0  0
  190.8210  170.3000  142.1510 C   0  0  0  0  0  3  0  0  0  0  0  0
  184.7570  178.4080  145.6290 C   0  0  0  0  0  0  0  0  0  0  0  0
  186.9980  178.3030  144.7300 C   0  0  0  0  0  3  0  0  0  0  0  0
  186.7430  176.1550  147.7010 F   0  0  0  0  0  0  0  0  0  0  0  0
  183.4600  178.9000  145.5740 O   0  0  0  0  0  1  0  0  0  0  0  0
  185.6940  178.8000  144.6730 C   0  0  0  0  0  3  0  0  0  0  0  0
  186.4270  177.0160  146.7030 C   0  0  0  0  0  0  0  0  0  0  0  0
  187.3820  177.4080  145.7400 C   0  0  0  0  0  0  0  0  0  0  0  0
  185.1230  177.5170  146.6410 C   0  0  0  0  0  3  0  0  0  0  0  0
  1  8  1  0  0  0  0
  2 15  1  0  0  0  0
  2  7  1  0  0  0  0
  3  2  2  0  0  0  0
  5  4  2  0  0  0  0
  6  9  2  0  0  0  0
  7 19  2  0  0  0  0
  8 20  2  0  0  0  0
  9  3  1  0  0  0  0
 10 16  1  0  0  0  0
 10 14  2  0  0  0  0
 11  1  1  0  0  0  0
 12 21  1  0  0  0  0
 13  6  1  0  0  0  0
 15 10  1  0  0  0  0
 16  5  1  0  0  0  0
 17  7  1  0  0  0  0
 17  1  2  0  0  0  0
 18 23  2  0  0  0  0
 18  6  1  0  0  0  0
 19 14  1  0  0  0  0
 19 20  1  0  0  0  0
 21 15  2  0  0  0  0
 22 12  2  0  0  0  0
 22  3  1  0  0  0  0
 23 22  1  0  0  0  0
 24 31  1  0  0  0  0
 25 30  2  0  0  0  0
 27 24  1  0  0  0  0
 28 25  1  0  0  0  0
 28 24  2  0  0  0  0
 29 26  1  0  0  0  0
 30  5  1  0  0  0  0
 30 29  1  0  0  0  0
 31 29  2  0  0  0  0
M  END
>  <MODEL>
4

>  <REMARK>
 VINA RESULT:      -8.6      4.824      8.528
  Name = 
  1 active torsions:
  status: ('A' for Active; 'I' for Inactive)
    1  A    between atoms: C_5  and  C_30
                            x       y       z     vdW  Elec       q    Type
                         _______ _______ _______ _____ _____    ______ ____

>  <TORSDO>
F 1

$$$$
=
 OpenBabel11112416583D

 31 35  0  0  0  0  0  0  0  0999 V2000
  186.1460  177.2210  141.1660 C   0  0  0  0  0  0  0  0  0  0  0  0
  187.6680  176.4160  144.5150 C   0  0  0  0  0  0  0  0  0  0  0  0
  186.8040  176.9630  145.5140 C   0  0  0  0  0  0  0  0  0  0  0  0
  191.7900  173.8900  142.4250 O   0  0  0  0  0  0  0  0  0  0  0  0
  191.8950  173.8660  143.6810 C   0  0  0  0  0  0  0  0  0  0  0  0
  184.8000  178.1810  146.2050 C   0  0  0  0  0  0  0  0  0  0  0  0
  187.4440  176.5060  143.1080 C   0  0  0  0  0  0  0  0  0  0  0  0
  187.0790  176.6390  140.3110 C   0  0  0  0  0  3  0  0  0  0  0  0
  185.6210  177.6600  145.2040 C   0  0  0  0  0  3  0  0  0  0  0  0
  189.7250  175.1730  144.0340 C   0  0  0  0  0  0  0  0  0  0  0  0
  184.7450  178.0380  140.5090 Cl  0  0  0  0  0  0  0  0  0  0  0  0
  188.2910  176.1280  147.2420 C   0  0  0  0  0  3  0  0  0  0  0  0
  183.3370  179.0410  145.7760 Cl  0  0  0  0  0  0  0  0  0  0  0  0
  189.4750  175.2810  142.7060 N   0  0  0  0  0  0  0  0  0  0  0  0
  188.8350  175.7330  144.9610 C   0  0  0  0  0  0  0  0  0  0  0  0
  190.8970  174.4880  144.5020 N   0  0  0  0  0  2  0  0  0  0  0  0
  186.3280  177.1550  142.5490 C   0  0  0  0  0  3  0  0  0  0  0  0
  185.1450  178.0150  147.5460 C   0  0  0  0  0  3  0  0  0  0  0  0
  188.3830  175.9190  142.2230 C   0  0  0  0  0  0  0  0  0  0  0  0
  188.1950  175.9880  140.8390 C   0  0  0  0  0  3  0  0  0  0  0  0
  189.1020  175.6150  146.2890 N   0  0  0  0  0  0  0  0  0  0  0  0
  187.1340  176.8070  146.8830 C   0  0  0  0  0  0  0  0  0  0  0  0
  186.3110  177.3300  147.8840 C   0  0  0  0  0  3  0  0  0  0  0  0
  195.2830  171.9960  145.5380 C   0  0  0  0  0  0  0  0  0  0  0  0
  194.1630  173.9660  144.6940 C   0  0  0  0  0  3  0  0  0  0  0  0
  192.0240  171.0130  144.2220 F   0  0  0  0  0  0  0  0  0  0  0  0
  196.3850  171.4040  146.1400 O   0  0  0  0  0  1  0  0  0  0  0  0
  195.2720  173.3710  145.3010 C   0  0  0  0  0  3  0  0  0  0  0  0
  193.0700  171.8050  144.5640 C   0  0  0  0  0  0  0  0  0  0  0  0
  193.0510  173.1960  144.3200 C   0  0  0  0  0  0  0  0  0  0  0  0
  194.1840  171.2160  145.1710 C   0  0  0  0  0  3  0  0  0  0  0  0
  1 17  1  0  0  0  0
  2 15  2  0  0  0  0
  2  3  1  0  0  0  0
  3 22  1  0  0  0  0
  4  5  2  0  0  0  0
  5 30  1  0  0  0  0
  5 16  1  0  0  0  0
  6 18  2  0  0  0  0
  7  2  1  0  0  0  0
  8 20  1  0  0  0  0
  8  1  2  0  0  0  0
  9  3  2  0  0  0  0
  9  6  1  0  0  0  0
 10 16  1  0  0  0  0
 10 15  1  0  0  0  0
 11  1  1  0  0  0  0
 13  6  1  0  0  0  0
 14 10  2  0  0  0  0
 15 21  1  0  0  0  0
 17  7  2  0  0  0  0
 18 23  1  0  0  0  0
 19 14  1  0  0  0  0
 19  7  1  0  0  0  0
 20 19  2  0  0  0  0
 21 12  2  0  0  0  0
 22 12  1  0  0  0  0
 22 23  2  0  0  0  0
 24 27  1  0  0  0  0
 25 28  2  0  0  0  0
 26 29  1  0  0  0  0
 28 24  1  0  0  0  0
 29 31  1  0  0  0  0
 30 29  2  0  0  0  0
 30 25  1  0  0  0  0
 31 24  2  0  0  0  0
M  END
>  <MODEL>
5

>  <REMARK>
 VINA RESULT:      -8.3      1.960      4.470
  Name = 
  1 active torsions:
  status: ('A' for Active; 'I' for Inactive)
    1  A    between atoms: C_5  and  C_30
                            x       y       z     vdW  Elec       q    Type
                         _______ _______ _______ _____ _____    ______ ____

>  <TORSDO>
F 1

$$$$
=
 OpenBabel11112416583D

 31 35  0  0  0  0  0  0  0  0999 V2000
  186.2300  178.7010  143.3410 C   0  0  0  0  0  0  0  0  0  0  0  0
  188.9380  176.0840  143.4050 C   0  0  0  0  0  0  0  0  0  0  0  0
  189.5870  176.1800  144.6750 C   0  0  0  0  0  0  0  0  0  0  0  0
  187.8580  174.3480  138.5520 O   0  0  0  0  0  0  0  0  0  0  0  0
  188.8170  173.6750  139.0180 C   0  0  0  0  0  0  0  0  0  0  0  0
  189.8670  177.1800  146.8880 C   0  0  0  0  0  0  0  0  0  0  0  0
  187.8500  176.9070  142.9840 C   0  0  0  0  0  0  0  0  0  0  0  0
  185.6980  178.4910  142.0700 C   0  0  0  0  0  3  0  0  0  0  0  0
  189.2110  177.1150  145.6580 C   0  0  0  0  0  3  0  0  0  0  0  0
  188.8230  174.9480  141.2360 C   0  0  0  0  0  0  0  0  0  0  0  0
  185.5660  179.9470  144.3750 Cl  0  0  0  0  0  0  0  0  0  0  0  0
  191.0680  174.3640  144.0430 C   0  0  0  0  0  3  0  0  0  0  0  0
  189.3680  178.3570  148.0830 Cl  0  0  0  0  0  0  0  0  0  0  0  0
  187.7910  175.7510  140.8750 N   0  0  0  0  0  0  0  0  0  0  0  0
  189.4140  175.0950  142.4980 C   0  0  0  0  0  0  0  0  0  0  0  0
  189.3160  173.9460  140.3350 N   0  0  0  0  0  2  0  0  0  0  0  0
  187.2940  177.9170  143.7910 C   0  0  0  0  0  3  0  0  0  0  0  0
  190.9190  176.3080  147.1650 C   0  0  0  0  0  3  0  0  0  0  0  0
  187.2960  176.7080  141.6940 C   0  0  0  0  0  0  0  0  0  0  0  0
  186.2290  177.4960  141.2490 C   0  0  0  0  0  3  0  0  0  0  0  0
  190.4480  174.2820  142.8440 N   0  0  0  0  0  0  0  0  0  0  0  0
  190.6580  175.3040  144.9780 C   0  0  0  0  0  0  0  0  0  0  0  0
  191.3140  175.3710  146.2110 C   0  0  0  0  0  3  0  0  0  0  0  0
  190.5890  170.5060  136.7300 C   0  0  0  0  0  0  0  0  0  0  0  0
  189.3160  171.2700  138.6380 C   0  0  0  0  0  3  0  0  0  0  0  0
  190.2990  174.1390  136.5610 F   0  0  0  0  0  0  0  0  0  0  0  0
  191.1570  169.4710  135.9980 O   0  0  0  0  0  1  0  0  0  0  0  0
  189.8870  170.2280  137.9030 C   0  0  0  0  0  3  0  0  0  0  0  0
  190.1500  172.8730  137.0200 C   0  0  0  0  0  0  0  0  0  0  0  0
  189.4380  172.6010  138.2090 C   0  0  0  0  0  0  0  0  0  0  0  0
  190.7190  171.8250  136.2900 C   0  0  0  0  0  3  0  0  0  0  0  0
  1 17  1  0  0  0  0
  1 11  1  0  0  0  0
  2  3  1  0  0  0  0
  3 22  2  0  0  0  0
  3  9  1  0  0  0  0
  4  5  2  0  0  0  0
  5 16  1  0  0  0  0
  6 18  1  0  0  0  0
  6 13  1  0  0  0  0
  7  2  1  0  0  0  0
  7 17  2  0  0  0  0
  8  1  2  0  0  0  0
  9  6  2  0  0  0  0
 10 15  1  0  0  0  0
 12 22  1  0  0  0  0
 14 10  2  0  0  0  0
 14 19  1  0  0  0  0
 15 21  1  0  0  0  0
 15  2  2  0  0  0  0
 16 10  1  0  0  0  0
 19  7  1  0  0  0  0
 20 19  2  0  0  0  0
 20  8  1  0  0  0  0
 21 12  2  0  0  0  0
 22 23  1  0  0  0  0
 23 18  2  0  0  0  0
 24 28  1  0  0  0  0
 26 29  1  0  0  0  0
 27 24  1  0  0  0  0
 28 25  2  0  0  0  0
 29 30  2  0  0  0  0
 30 25  1  0  0  0  0
 30  5  1  0  0  0  0
 31 24  2  0  0  0  0
 31 29  1  0  0  0  0
M  END
>  <MODEL>
6

>  <REMARK>
 VINA RESULT:      -8.3      4.817      7.109
  Name = 
  1 active torsions:
  status: ('A' for Active; 'I' for Inactive)
    1  A    between atoms: C_5  and  C_30
                            x       y       z     vdW  Elec       q    Type
                         _______ _______ _______ _____ _____    ______ ____

>  <TORSDO>
F 1

$$$$
=
 OpenBabel11112416583D

 31 35  0  0  0  0  0  0  0  0999 V2000
  195.5680  174.4960  145.0510 C   0  0  0  0  0  0  0  0  0  0  0  0
  192.3810  174.4070  143.0470 C   0  0  0  0  0  0  0  0  0  0  0  0
  192.6490  173.6540  141.8620 C   0  0  0  0  0  0  0  0  0  0  0  0
  189.6830  177.2580  146.5580 O   0  0  0  0  0  0  0  0  0  0  0  0
  188.9180  176.9680  145.5990 C   0  0  0  0  0  0  0  0  0  0  0  0
  194.1340  172.3580  140.4150 C   0  0  0  0  0  0  0  0  0  0  0  0
  193.3360  174.6730  144.0740 C   0  0  0  0  0  0  0  0  0  0  0  0
  195.1610  175.2480  146.1520 C   0  0  0  0  0  3  0  0  0  0  0  0
  193.9070  173.0880  141.5830 C   0  0  0  0  0  3  0  0  0  0  0  0
  190.7360  175.6750  144.3480 C   0  0  0  0  0  0  0  0  0  0  0  0
  197.2130  173.9070  144.9530 Cl  0  0  0  0  0  0  0  0  0  0  0  0
  190.3560  173.9940  141.1400 C   0  0  0  0  0  3  0  0  0  0  0  0
  195.7140  171.6700  140.1070 Cl  0  0  0  0  0  0  0  0  0  0  0  0
  191.6730  175.9050  145.3010 N   0  0  0  0  0  0  0  0  0  0  0  0
  191.0660  174.9270  143.2100 C   0  0  0  0  0  0  0  0  0  0  0  0
  189.4040  176.1910  144.4960 N   0  0  0  0  0  2  0  0  0  0  0  0
  194.6650  174.2130  144.0250 C   0  0  0  0  0  3  0  0  0  0  0  0
  193.1020  172.1760  139.4960 C   0  0  0  0  0  3  0  0  0  0  0  0
  192.9390  175.4370  145.2010 C   0  0  0  0  0  0  0  0  0  0  0  0
  193.8490  175.7160  146.2260 C   0  0  0  0  0  3  0  0  0  0  0  0
  190.1140  174.7060  142.2650 N   0  0  0  0  0  0  0  0  0  0  0  0
  191.6160  173.4560  140.9130 C   0  0  0  0  0  0  0  0  0  0  0  0
  191.8450  172.7250  139.7440 C   0  0  0  0  0  3  0  0  0  0  0  0
  184.8530  178.3450  145.5390 C   0  0  0  0  0  0  0  0  0  0  0  0
  187.0750  178.2950  144.5880 C   0  0  0  0  0  3  0  0  0  0  0  0
  186.9560  176.1860  147.5960 F   0  0  0  0  0  0  0  0  0  0  0  0
  183.5410  178.7970  145.5070 O   0  0  0  0  0  1  0  0  0  0  0  0
  185.7550  178.7510  144.5540 C   0  0  0  0  0  3  0  0  0  0  0  0
  186.5900  177.0220  146.5930 C   0  0  0  0  0  0  0  0  0  0  0  0
  187.5100  177.4280  145.6020 C   0  0  0  0  0  0  0  0  0  0  0  0
  185.2700  177.4820  146.5540 C   0  0  0  0  0  3  0  0  0  0  0  0
  1  8  1  0  0  0  0
  2 15  1  0  0  0  0
  2  7  1  0  0  0  0
  3  2  2  0  0  0  0
  5 30  1  0  0  0  0
  5  4  2  0  0  0  0
  6  9  2  0  0  0  0
  7 19  2  0  0  0  0
  8 20  2  0  0  0  0
  9  3  1  0  0  0  0
 10 16  1  0  0  0  0
 10 14  2  0  0  0  0
 11  1  1  0  0  0  0
 12 21  1  0  0  0  0
 13  6  1  0  0  0  0
 15 10  1  0  0  0  0
 16  5  1  0  0  0  0
 17  7  1  0  0  0  0
 17  1  2  0  0  0  0
 18 23  2  0  0  0  0
 18  6  1  0  0  0  0
 19 14  1  0  0  0  0
 19 20  1  0  0  0  0
 21 15  2  0  0  0  0
 22 12  2  0  0  0  0
 22  3  1  0  0  0  0
 23 22  1  0  0  0  0
 24 31  1  0  0  0  0
 25 30  2  0  0  0  0
 27 24  1  0  0  0  0
 28 25  1  0  0  0  0
 28 24  2  0  0  0  0
 29 26  1  0  0  0  0
 30 29  1  0  0  0  0
 31 29  2  0  0  0  0
M  END
>  <MODEL>
7

>  <REMARK>
 VINA RESULT:      -8.1      4.841      8.282
  Name = 
  1 active torsions:
  status: ('A' for Active; 'I' for Inactive)
    1  A    between atoms: C_5  and  C_30
                            x       y       z     vdW  Elec       q    Type
                         _______ _______ _______ _____ _____    ______ ____

>  <TORSDO>
F 1

$$$$
=
 OpenBabel11112416583D

 31 35  0  0  0  0  0  0  0  0999 V2000
  185.3670  177.8100  146.8000 C   0  0  0  0  0  0  0  0  0  0  0  0
  186.7920  177.3410  143.3450 C   0  0  0  0  0  0  0  0  0  0  0  0
  185.7570  177.6650  142.4140 C   0  0  0  0  0  0  0  0  0  0  0  0
  191.5200  175.8460  145.1210 O   0  0  0  0  0  0  0  0  0  0  0  0
  191.5390  175.8340  143.8600 C   0  0  0  0  0  0  0  0  0  0  0  0
  183.4840  178.3850  141.8760 C   0  0  0  0  0  0  0  0  0  0  0  0
  186.6530  177.3920  144.7650 C   0  0  0  0  0  0  0  0  0  0  0  0
  186.4670  177.4640  147.5820 C   0  0  0  0  0  3  0  0  0  0  0  0
  184.4710  178.0760  142.8130 C   0  0  0  0  0  3  0  0  0  0  0  0
  189.1080  176.6050  143.6700 C   0  0  0  0  0  0  0  0  0  0  0  0
  183.8660  178.2910  147.5600 Cl  0  0  0  0  0  0  0  0  0  0  0  0
  187.2690  177.1750  140.5790 C   0  0  0  0  0  3  0  0  0  0  0  0
  181.8970  178.8920  142.4130 Cl  0  0  0  0  0  0  0  0  0  0  0  0
  188.9340  176.6670  145.0140 N   0  0  0  0  0  0  0  0  0  0  0  0
  188.0490  176.9380  142.8130 C   0  0  0  0  0  0  0  0  0  0  0  0
  190.3680  176.2020  143.1160 N   0  0  0  0  0  2  0  0  0  0  0  0
  185.4610  177.7740  145.4070 C   0  0  0  0  0  3  0  0  0  0  0  0
  183.7620  178.2910  140.5130 C   0  0  0  0  0  3  0  0  0  0  0  0
  187.7620  177.0420  145.5780 C   0  0  0  0  0  0  0  0  0  0  0  0
  187.6620  177.0820  146.9720 C   0  0  0  0  0  3  0  0  0  0  0  0
  188.2410  176.8700  141.4690 N   0  0  0  0  0  0  0  0  0  0  0  0
  186.0170  177.5760  141.0240 C   0  0  0  0  0  0  0  0  0  0  0  0
  185.0270  177.8860  140.0870 C   0  0  0  0  0  3  0  0  0  0  0  0
  195.1100  174.7680  141.7320 C   0  0  0  0  0  0  0  0  0  0  0  0
  193.4570  176.4060  142.3870 C   0  0  0  0  0  3  0  0  0  0  0  0
  192.6450  173.1460  143.8780 F   0  0  0  0  0  0  0  0  0  0  0  0
  196.2680  174.4370  141.0400 O   0  0  0  0  0  1  0  0  0  0  0  0
  194.6220  176.0740  141.6900 C   0  0  0  0  0  3  0  0  0  0  0  0
  193.2710  174.1200  143.1730 C   0  0  0  0  0  0  0  0  0  0  0  0
  192.7690  175.4390  143.1360 C   0  0  0  0  0  0  0  0  0  0  0  0
  194.4370  173.7950  142.4720 C   0  0  0  0  0  3  0  0  0  0  0  0
  1 11  1  0  0  0  0
  1  8  1  0  0  0  0
  2  7  1  0  0  0  0
  3  9  1  0  0  0  0
  3  2  2  0  0  0  0
  5  4  2  0  0  0  0
  6 13  1  0  0  0  0
  6  9  2  0  0  0  0
  7 17  1  0  0  0  0
  7 19  2  0  0  0  0
 10 14  2  0  0  0  0
 12 22  2  0  0  0  0
 12 21  1  0  0  0  0
 14 19  1  0  0  0  0
 15  2  1  0  0  0  0
 15 10  1  0  0  0  0
 16 10  1  0  0  0  0
 16  5  1  0  0  0  0
 17  1  2  0  0  0  0
 18  6  1  0  0  0  0
 19 20  1  0  0  0  0
 20  8  2  0  0  0  0
 21 15  2  0  0  0  0
 22  3  1  0  0  0  0
 23 18  2  0  0  0  0
 23 22  1  0  0  0  0
 24 31  1  0  0  0  0
 25 30  2  0  0  0  0
 27 24  1  0  0  0  0
 28 24  2  0  0  0  0
 28 25  1  0  0  0  0
 29 26  1  0  0  0  0
 30 29  1  0  0  0  0
 30  5  1  0  0  0  0
 31 29  2  0  0  0  0
M  END
>  <MODEL>
8

>  <REMARK>
 VINA RESULT:      -8.1      2.266      2.517
  Name = 
  1 active torsions:
  status: ('A' for Active; 'I' for Inactive)
    1  A    between atoms: C_5  and  C_30
                            x       y       z     vdW  Elec       q    Type
                         _______ _______ _______ _____ _____    ______ ____

>  <TORSDO>
F 1

$$$$
=
 OpenBabel11112416583D

 31 35  0  0  0  0  0  0  0  0999 V2000
  192.4470  169.9960  142.5610 C   0  0  0  0  0  0  0  0  0  0  0  0
  192.5710  173.4120  144.1430 C   0  0  0  0  0  0  0  0  0  0  0  0
  193.8560  173.5470  144.7540 C   0  0  0  0  0  0  0  0  0  0  0  0
  187.6910  174.6770  142.6180 O   0  0  0  0  0  0  0  0  0  0  0  0
  188.1780  175.6460  143.2610 C   0  0  0  0  0  0  0  0  0  0  0  0
  196.0760  172.6990  145.3260 C   0  0  0  0  0  0  0  0  0  0  0  0
  192.1250  172.2550  143.4340 C   0  0  0  0  0  0  0  0  0  0  0  0
  191.1630  170.0090  142.0180 C   0  0  0  0  0  3  0  0  0  0  0  0
  194.8310  172.5330  144.7180 C   0  0  0  0  0  3  0  0  0  0  0  0
  190.3980  174.4460  143.6750 C   0  0  0  0  0  0  0  0  0  0  0  0
  193.4660  168.5870  142.3690 Cl  0  0  0  0  0  0  0  0  0  0  0  0
  193.2550  175.7800  145.4950 C   0  0  0  0  0  3  0  0  0  0  0  0
  197.2610  171.4130  145.2580 Cl  0  0  0  0  0  0  0  0  0  0  0  0
  190.0140  173.3280  143.0100 N   0  0  0  0  0  0  0  0  0  0  0  0
  191.6740  174.5120  144.2510 C   0  0  0  0  0  0  0  0  0  0  0  0
  189.5070  175.5650  143.7940 N   0  0  0  0  0  2  0  0  0  0  0  0
  192.9200  171.1080  143.2610 C   0  0  0  0  0  3  0  0  0  0  0  0
  196.3760  173.8900  145.9860 C   0  0  0  0  0  3  0  0  0  0  0  0
  190.8220  172.2500  142.8750 C   0  0  0  0  0  0  0  0  0  0  0  0
  190.3540  171.1340  142.1740 C   0  0  0  0  0  3  0  0  0  0  0  0
  192.0420  175.6410  144.9140 N   0  0  0  0  0  0  0  0  0  0  0  0
  194.1820  174.7480  145.4310 C   0  0  0  0  0  0  0  0  0  0  0  0
  195.4300  174.9130  146.0390 C   0  0  0  0  0  3  0  0  0  0  0  0
  185.8710  179.1990  143.9510 C   0  0  0  0  0  0  0  0  0  0  0  0
  186.9890  177.2200  144.7740 C   0  0  0  0  0  3  0  0  0  0  0  0
  187.3580  177.4370  141.1230 F   0  0  0  0  0  0  0  0  0  0  0  0
  185.1250  180.3460  144.1880 O   0  0  0  0  0  1  0  0  0  0  0  0
  186.2390  178.3740  145.0140 C   0  0  0  0  0  3  0  0  0  0  0  0
  187.0060  177.7190  142.4010 C   0  0  0  0  0  0  0  0  0  0  0  0
  187.3830  176.8780  143.4710 C   0  0  0  0  0  0  0  0  0  0  0  0
  186.2540  178.8720  142.6490 C   0  0  0  0  0  3  0  0  0  0  0  0
  1 17  1  0  0  0  0
  2 15  2  0  0  0  0
  2  3  1  0  0  0  0
  3 22  1  0  0  0  0
  4  5  2  0  0  0  0
  5 30  1  0  0  0  0
  5 16  1  0  0  0  0
  6 18  2  0  0  0  0
  7  2  1  0  0  0  0
  8 20  1  0  0  0  0
  8  1  2  0  0  0  0
  9  3  2  0  0  0  0
  9  6  1  0  0  0  0
 10 16  1  0  0  0  0
 10 15  1  0  0  0  0
 11  1  1  0  0  0  0
 13  6  1  0  0  0  0
 14 10  2  0  0  0  0
 15 21  1  0  0  0  0
 17  7  2  0  0  0  0
 18 23  1  0  0  0  0
 19 14  1  0  0  0  0
 19  7  1  0  0  0  0
 20 19  2  0  0  0  0
 21 12  2  0  0  0  0
 22 12  1  0  0  0  0
 22 23  2  0  0  0  0
 24 27  1  0  0  0  0
 24 28  1  0  0  0  0
 25 28  2  0  0  0  0
 26 29  1  0  0  0  0
 29 31  1  0  0  0  0
 29 30  2  0  0  0  0
 30 25  1  0  0  0  0
 31 24  2  0  0  0  0
M  END
>  <MODEL>
9

>  <REMARK>
 VINA RESULT:      -8.0      5.004      9.259
  Name = 
  1 active torsions:
  status: ('A' for Active; 'I' for Inactive)
    1  A    between atoms: C_5  and  C_30
                            x       y       z     vdW  Elec       q    Type
                         _______ _______ _______ _____ _____    ______ ____

>  <TORSDO>
F 1

$$$$
