=
 OpenBabel11112416563D

 31 35  0  0  1  0  0  0  0  0999 V2000
  184.4590  178.5180  146.3130 C   0  0  0  0  0  0  0  0  0  0  0  0
  187.1990  177.7770  143.7220 C   0  0  1  0  0  3  0  0  0  0  0  0
  186.4720  177.6980  142.3910 C   0  0  0  0  0  0  0  0  0  0  0  0
  190.8400  176.5690  147.3350 O   0  0  0  0  0  0  0  0  0  0  0  0
  191.2240  176.1160  146.2230 C   0  0  0  0  0  0  0  0  0  0  0  0
  184.5890  178.1520  140.9230 C   0  0  0  0  0  0  0  0  0  0  0  0
  186.4000  177.8430  145.0120 C   0  0  0  0  0  0  0  0  0  0  0  0
  185.1200  178.1650  147.4920 C   0  0  0  0  0  3  0  0  0  0  0  0
  185.1610  178.1560  142.1980 C   0  0  0  0  0  3  0  0  0  0  0  0
  189.0080  176.6680  145.0720 C   0  0  0  0  0  0  0  0  0  0  0  0
  183.2010  179.0140  146.3630 F   0  0  0  0  0  0  0  0  0  0  0  0
  188.5840  176.8620  141.4460 N   0  0  0  0  0  0  0  0  0  0  0  0
  182.9440  178.7080  140.7030 Cl  0  0  0  0  0  0  0  0  0  0  0  0
  188.4200  177.0250  146.1780 N   0  0  0  0  0  0  0  0  0  0  0  0
  188.2130  176.6250  143.7940 C   0  0  2  0  0  3  0  0  0  0  0  0
  190.3510  176.1640  145.0860 N   0  0  0  0  0  2  0  0  0  0  0  0
  185.1040  178.3740  145.0810 C   0  0  0  0  0  3  0  0  0  0  0  0
  185.3330  177.7200  139.8230 C   0  0  0  0  0  3  0  0  0  0  0  0
  187.0670  177.5090  146.2110 C   0  0  0  0  0  0  0  0  0  0  0  0
  186.4240  177.6690  147.4420 C   0  0  0  0  0  3  0  0  0  0  0  0
  189.0630  176.6100  142.6030 N   0  0  0  0  0  0  0  0  0  0  0  0
  187.2200  177.2760  141.2720 C   0  0  0  0  0  0  0  0  0  0  0  0
  186.6510  177.2890  139.9960 C   0  0  0  0  0  3  0  0  0  0  0  0
  195.1890  174.5680  145.9120 C   0  0  0  0  0  0  0  0  0  0  0  0
  193.6930  176.3290  146.4500 C   0  0  0  0  0  3  0  0  0  0  0  0
  191.7960  173.4100  145.2900 F   0  0  0  0  0  0  0  0  0  0  0  0
  196.5830  174.0620  145.8160 C   0  0  0  0  0  1  0  0  0  0  0  0
  194.9540  175.8330  146.3490 N   0  0  0  0  0  0  0  0  0  0  0  0
  192.8160  174.2290  145.6450 C   0  0  0  0  0  0  0  0  0  0  0  0
  192.5850  175.5430  146.1010 C   0  0  0  0  0  0  0  0  0  0  0  0
  194.1230  173.7450  145.5520 C   0  0  0  0  0  3  0  0  0  0  0  0
  1 11  1  0  0  0  0
  1  8  1  0  0  0  0
  2  3  1  6  0  0  0
  2 15  1  0  0  0  0
  2  7  1  0  0  0  0
  5  4  2  0  0  0  0
  6  9  2  0  0  0  0
  7 17  1  0  0  0  0
  7 19  2  0  0  0  0
  9  3  1  0  0  0  0
 10 16  1  0  0  0  0
 10 14  2  0  0  0  0
 12 21  2  0  0  0  0
 13  6  1  0  0  0  0
 14 19  1  0  0  0  0
 15 21  1  6  0  0  0
 15 10  1  0  0  0  0
 16  5  1  0  0  0  0
 17  1  2  0  0  0  0
 18 23  2  0  0  0  0
 18  6  1  0  0  0  0
 19 20  1  0  0  0  0
 20  8  2  0  0  0  0
 22 12  1  0  0  0  0
 22  3  2  0  0  0  0
 23 22  1  0  0  0  0
 24 28  1  0  0  0  0
 26 29  1  0  0  0  0
 27 24  1  0  0  0  0
 28 25  2  0  0  0  0
 29 30  2  0  0  0  0
 30  5  1  0  0  0  0
 30 25  1  0  0  0  0
 31 29  1  0  0  0  0
 31 24  2  0  0  0  0
M  END
>  <MODEL>
1

>  <REMARK>
 VINA RESULT:     -10.0      0.000      0.000
  Name = 
  1 active torsions:
  status: ('A' for Active; 'I' for Inactive)
    1  A    between atoms: C_5  and  C_30
                            x       y       z     vdW  Elec       q    Type
                         _______ _______ _______ _____ _____    ______ ____

>  <TORSDO>
F 1

$$$$
=
 OpenBabel11112416563D

 31 35  0  0  1  0  0  0  0  0999 V2000
  184.9440  178.0200  146.9110 C   0  0  0  0  0  0  0  0  0  0  0  0
  186.9650  178.0520  143.6420 C   0  0  1  0  0  3  0  0  0  0  0  0
  185.9260  178.0070  142.5360 C   0  0  0  0  0  0  0  0  0  0  0  0
  191.5640  177.0550  146.0150 O   0  0  0  0  0  0  0  0  0  0  0  0
  191.6930  176.8040  144.7860 C   0  0  0  0  0  0  0  0  0  0  0  0
  183.6770  178.3100  141.6670 C   0  0  0  0  0  0  0  0  0  0  0  0
  186.5380  177.8330  145.0840 C   0  0  0  0  0  0  0  0  0  0  0  0
  185.9360  177.6470  147.8220 C   0  0  0  0  0  3  0  0  0  0  0  0
  184.5630  178.2610  142.7450 C   0  0  0  0  0  3  0  0  0  0  0  0
  189.1980  177.1090  144.3160 C   0  0  0  0  0  0  0  0  0  0  0  0
  183.6910  178.2910  147.3470 F   0  0  0  0  0  0  0  0  0  0  0  0
  187.7990  177.6510  140.9820 N   0  0  0  0  0  0  0  0  0  0  0  0
  181.9750  178.6070  141.9480 Cl  0  0  0  0  0  0  0  0  0  0  0  0
  188.8840  177.2330  145.5750 N   0  0  0  0  0  0  0  0  0  0  0  0
  188.1030  177.0840  143.2830 C   0  0  2  0  0  3  0  0  0  0  0  0
  190.5490  176.8370  143.9210 N   0  0  0  0  0  2  0  0  0  0  0  0
  185.2490  178.1300  145.5520 C   0  0  0  0  0  3  0  0  0  0  0  0
  184.1500  178.1390  140.3630 C   0  0  0  0  0  3  0  0  0  0  0  0
  187.5390  177.4780  146.0150 C   0  0  0  0  0  0  0  0  0  0  0  0
  187.2320  177.3840  147.3750 C   0  0  0  0  0  3  0  0  0  0  0  0
  188.5980  177.3480  141.9320 N   0  0  0  0  0  0  0  0  0  0  0  0
  186.3960  177.8500  141.2160 C   0  0  0  0  0  0  0  0  0  0  0  0
  185.5100  177.9160  140.1380 C   0  0  0  0  0  3  0  0  0  0  0  0
  195.5060  175.8510  143.1230 C   0  0  0  0  0  0  0  0  0  0  0  0
  193.1510  176.0410  142.9190 C   0  0  0  0  0  3  0  0  0  0  0  0
  194.1790  177.0250  146.3010 F   0  0  0  0  0  0  0  0  0  0  0  0
  196.8170  175.5110  142.5120 C   0  0  0  0  0  1  0  0  0  0  0  0
  194.3660  175.7380  142.3930 N   0  0  0  0  0  0  0  0  0  0  0  0
  194.2100  176.6040  145.0130 C   0  0  0  0  0  0  0  0  0  0  0  0
  193.0340  176.4830  144.2450 C   0  0  0  0  0  0  0  0  0  0  0  0
  195.4470  176.2860  144.4460 C   0  0  0  0  0  3  0  0  0  0  0  0
  1 11  1  0  0  0  0
  1  8  1  0  0  0  0
  2  3  1  6  0  0  0
  2  7  1  0  0  0  0
  3  9  1  0  0  0  0
  5  4  2  0  0  0  0
  6 13  1  0  0  0  0
  6  9  2  0  0  0  0
  7 17  1  0  0  0  0
  7 19  2  0  0  0  0
 10 14  2  0  0  0  0
 12 22  1  0  0  0  0
 12 21  2  0  0  0  0
 14 19  1  0  0  0  0
 15 21  1  6  0  0  0
 15  2  1  0  0  0  0
 15 10  1  0  0  0  0
 16 10  1  0  0  0  0
 16  5  1  0  0  0  0
 17  1  2  0  0  0  0
 18  6  1  0  0  0  0
 19 20  1  0  0  0  0
 20  8  2  0  0  0  0
 22  3  2  0  0  0  0
 23 18  2  0  0  0  0
 23 22  1  0  0  0  0
 24 31  1  0  0  0  0
 25 30  2  0  0  0  0
 27 24  1  0  0  0  0
 28 25  1  0  0  0  0
 28 24  2  0  0  0  0
 29 26  1  0  0  0  0
 30  5  1  0  0  0  0
 30 29  1  0  0  0  0
 31 29  2  0  0  0  0
M  END
>  <MODEL>
2

>  <REMARK>
 VINA RESULT:      -9.8      1.821      1.964
  Name = 
  1 active torsions:
  status: ('A' for Active; 'I' for Inactive)
    1  A    between atoms: C_5  and  C_30
                            x       y       z     vdW  Elec       q    Type
                         _______ _______ _______ _____ _____    ______ ____

>  <TORSDO>
F 1

$$$$
=
 OpenBabel11112416563D

 31 35  0  0  1  0  0  0  0  0999 V2000
  190.7830  176.4350  147.1180 C   0  0  0  0  0  0  0  0  0  0  0  0
  188.4990  176.6740  144.0370 C   0  0  1  0  0  3  0  0  0  0  0  0
  187.2190  177.3150  144.5440 C   0  0  0  0  0  0  0  0  0  0  0  0
  191.4850  173.4870  141.0870 O   0  0  0  0  0  0  0  0  0  0  0  0
  190.3460  173.5670  140.5520 C   0  0  0  0  0  0  0  0  0  0  0  0
  185.9420  178.6270  146.1420 C   0  0  0  0  0  0  0  0  0  0  0  0
  189.5570  176.2220  145.0290 C   0  0  0  0  0  0  0  0  0  0  0  0
  191.7160  175.4940  146.6740 C   0  0  0  0  0  3  0  0  0  0  0  0
  187.1180  177.9640  145.7830 C   0  0  0  0  0  3  0  0  0  0  0  0
  189.3510  174.8530  142.5250 C   0  0  0  0  0  0  0  0  0  0  0  0
  190.9180  176.9960  148.3430 F   0  0  0  0  0  0  0  0  0  0  0  0
  186.2450  176.7750  142.3510 N   0  0  0  0  0  0  0  0  0  0  0  0
  185.8250  179.4130  147.7010 Cl  0  0  0  0  0  0  0  0  0  0  0  0
  190.4140  174.7180  143.2650 N   0  0  0  0  0  0  0  0  0  0  0  0
  188.1270  175.5100  143.1060 C   0  0  2  0  0  3  0  0  0  0  0  0
  189.2790  174.2450  141.2280 N   0  0  0  0  0  2  0  0  0  0  0  0
  189.7200  176.8090  146.2920 C   0  0  0  0  0  3  0  0  0  0  0  0
  184.8660  178.6760  145.2530 C   0  0  0  0  0  3  0  0  0  0  0  0
  190.5170  175.2880  144.5800 C   0  0  0  0  0  0  0  0  0  0  0  0
  191.5860  174.9280  145.4040 C   0  0  0  0  0  3  0  0  0  0  0  0
  187.1850  175.9540  142.0770 N   0  0  0  0  0  0  0  0  0  0  0  0
  186.1330  177.3820  143.6470 C   0  0  0  0  0  0  0  0  0  0  0  0
  184.9640  178.0600  144.0030 C   0  0  0  0  0  3  0  0  0  0  0  0
  189.6910  171.9270  136.6660 C   0  0  0  0  0  0  0  0  0  0  0  0
  189.8420  173.7910  138.1250 C   0  0  0  0  0  3  0  0  0  0  0  0
  190.4530  170.7000  140.0060 F   0  0  0  0  0  0  0  0  0  0  0  0
  189.4570  171.3910  135.3010 C   0  0  0  0  0  1  0  0  0  0  0  0
  189.6340  173.2660  136.8900 N   0  0  0  0  0  0  0  0  0  0  0  0
  190.1850  171.5680  138.9990 C   0  0  0  0  0  0  0  0  0  0  0  0
  190.1250  172.9590  139.2190 C   0  0  0  0  0  0  0  0  0  0  0  0
  189.9670  171.0550  137.7180 C   0  0  0  0  0  3  0  0  0  0  0  0
  1 11  1  0  0  0  0
  2  3  1  1  0  0  0
  2  7  1  0  0  0  0
  3  9  1  0  0  0  0
  5  4  2  0  0  0  0
  5 16  1  0  0  0  0
  6 13  1  0  0  0  0
  7 17  1  0  0  0  0
  8  1  1  0  0  0  0
  9  6  2  0  0  0  0
 10 15  1  0  0  0  0
 10 14  2  0  0  0  0
 12 22  1  0  0  0  0
 14 19  1  0  0  0  0
 15 21  1  6  0  0  0
 15  2  1  0  0  0  0
 16 10  1  0  0  0  0
 17  1  2  0  0  0  0
 18  6  1  0  0  0  0
 19  7  2  0  0  0  0
 19 20  1  0  0  0  0
 20  8  2  0  0  0  0
 21 12  2  0  0  0  0
 22 23  1  0  0  0  0
 22  3  2  0  0  0  0
 23 18  2  0  0  0  0
 24 28  2  0  0  0  0
 24 31  1  0  0  0  0
 25 30  2  0  0  0  0
 27 24  1  0  0  0  0
 28 25  1  0  0  0  0
 29 30  1  0  0  0  0
 29 26  1  0  0  0  0
 30  5  1  0  0  0  0
 31 29  2  0  0  0  0
M  END
>  <MODEL>
3

>  <REMARK>
 VINA RESULT:      -8.8      4.190      6.535
  Name = 
  1 active torsions:
  status: ('A' for Active; 'I' for Inactive)
    1  A    between atoms: C_5  and  C_30
                            x       y       z     vdW  Elec       q    Type
                         _______ _______ _______ _____ _____    ______ ____

>  <TORSDO>
F 1

$$$$
=
 OpenBabel11112416563D

 31 35  0  0  1  0  0  0  0  0999 V2000
  190.7620  176.7960  147.1870 C   0  0  0  0  0  0  0  0  0  0  0  0
  188.5150  176.8070  144.0690 C   0  0  1  0  0  3  0  0  0  0  0  0
  187.1840  177.3620  144.5440 C   0  0  0  0  0  0  0  0  0  0  0  0
  191.7730  173.7940  141.2270 O   0  0  0  0  0  0  0  0  0  0  0  0
  190.6410  173.7790  140.6740 C   0  0  0  0  0  0  0  0  0  0  0  0
  185.7890  178.6050  146.0980 C   0  0  0  0  0  0  0  0  0  0  0  0
  189.5880  176.4530  145.0850 C   0  0  0  0  0  0  0  0  0  0  0  0
  191.7680  175.9180  146.7750 C   0  0  0  0  0  3  0  0  0  0  0  0
  187.0160  178.0250  145.7680 C   0  0  0  0  0  3  0  0  0  0  0  0
  189.5220  175.0260  142.6060 C   0  0  0  0  0  0  0  0  0  0  0  0
  190.8350  177.3890  148.4020 F   0  0  0  0  0  0  0  0  0  0  0  0
  186.2870  176.7090  142.3490 N   0  0  0  0  0  0  0  0  0  0  0  0
  185.5890  179.4100  147.6380 Cl  0  0  0  0  0  0  0  0  0  0  0  0
  190.5810  174.9840  143.3640 N   0  0  0  0  0  0  0  0  0  0  0  0
  188.2440  175.6020  143.1560 C   0  0  2  0  0  3  0  0  0  0  0  0
  189.5160  174.3890  141.3210 N   0  0  0  0  0  2  0  0  0  0  0  0
  189.6880  177.0750  146.3380 C   0  0  0  0  0  3  0  0  0  0  0  0
  184.7260  178.5580  145.1920 C   0  0  0  0  0  3  0  0  0  0  0  0
  190.6210  175.5840  144.6690 C   0  0  0  0  0  0  0  0  0  0  0  0
  191.7010  175.3200  145.5150 C   0  0  0  0  0  3  0  0  0  0  0  0
  187.2890  175.9550  142.1050 N   0  0  0  0  0  0  0  0  0  0  0  0
  186.1100  177.3310  143.6310 C   0  0  0  0  0  0  0  0  0  0  0  0
  184.8890  177.9270  143.9560 C   0  0  0  0  0  3  0  0  0  0  0  0
  190.1040  171.8480  136.9050 C   0  0  0  0  0  0  0  0  0  0  0  0
  189.4940  172.1540  139.1770 C   0  0  0  0  0  3  0  0  0  0  0  0
  192.2770  174.3930  138.3350 F   0  0  0  0  0  0  0  0  0  0  0  0
  189.8890  171.1560  135.6090 C   0  0  0  0  0  1  0  0  0  0  0  0
  189.3270  171.5410  137.9760 N   0  0  0  0  0  0  0  0  0  0  0  0
  191.2980  173.4580  138.2460 C   0  0  0  0  0  0  0  0  0  0  0  0
  190.4850  173.1310  139.3500 C   0  0  0  0  0  0  0  0  0  0  0  0
  191.1030  172.8130  137.0230 C   0  0  0  0  0  3  0  0  0  0  0  0
  1 11  1  0  0  0  0
  2  3  1  1  0  0  0
  2  7  1  0  0  0  0
  3  9  1  0  0  0  0
  5  4  2  0  0  0  0
  5 16  1  0  0  0  0
  6 13  1  0  0  0  0
  7 17  1  0  0  0  0
  8  1  1  0  0  0  0
  9  6  2  0  0  0  0
 10 15  1  0  0  0  0
 10 14  2  0  0  0  0
 12 22  1  0  0  0  0
 14 19  1  0  0  0  0
 15 21  1  6  0  0  0
 15  2  1  0  0  0  0
 16 10  1  0  0  0  0
 17  1  2  0  0  0  0
 18  6  1  0  0  0  0
 19  7  2  0  0  0  0
 19 20  1  0  0  0  0
 20  8  2  0  0  0  0
 21 12  2  0  0  0  0
 22 23  1  0  0  0  0
 22  3  2  0  0  0  0
 23 18  2  0  0  0  0
 24 31  2  0  0  0  0
 24 28  1  0  0  0  0
 25 30  1  0  0  0  0
 27 24  1  0  0  0  0
 28 25  2  0  0  0  0
 29 26  1  0  0  0  0
 29 30  2  0  0  0  0
 30  5  1  0  0  0  0
 31 29  1  0  0  0  0
M  END
>  <MODEL>
4

>  <REMARK>
 VINA RESULT:      -8.6      4.242      6.421
  Name = 
  1 active torsions:
  status: ('A' for Active; 'I' for Inactive)
    1  A    between atoms: C_5  and  C_30
                            x       y       z     vdW  Elec       q    Type
                         _______ _______ _______ _____ _____    ______ ____

>  <TORSDO>
F 1

$$$$
=
 OpenBabel11112416563D

 31 35  0  0  1  0  0  0  0  0999 V2000
  195.4700  173.6370  145.5670 C   0  0  0  0  0  0  0  0  0  0  0  0
  191.8810  172.7770  144.4950 C   0  0  1  0  0  3  0  0  0  0  0  0
  192.0300  171.6500  143.4890 C   0  0  0  0  0  0  0  0  0  0  0  0
  189.7800  177.1000  146.6560 O   0  0  0  0  0  0  0  0  0  0  0  0
  188.9480  176.6270  145.8340 C   0  0  0  0  0  0  0  0  0  0  0  0
  193.2500  169.8220  142.4520 C   0  0  0  0  0  0  0  0  0  0  0  0
  193.1140  173.5240  144.9750 C   0  0  0  0  0  0  0  0  0  0  0  0
  195.2730  174.8990  146.1340 C   0  0  0  0  0  3  0  0  0  0  0  0
  193.2120  170.9160  143.3200 C   0  0  0  0  0  3  0  0  0  0  0  0
  190.6060  174.9010  144.9340 C   0  0  0  0  0  0  0  0  0  0  0  0
  196.7020  173.0760  145.5740 F   0  0  0  0  0  0  0  0  0  0  0  0
  189.6340  171.9430  143.0160 N   0  0  0  0  0  0  0  0  0  0  0  0
  194.7400  168.9290  142.2370 Cl  0  0  0  0  0  0  0  0  0  0  0  0
  191.6100  175.3790  145.6120 N   0  0  0  0  0  0  0  0  0  0  0  0
  190.8420  173.7750  143.9620 C   0  0  2  0  0  3  0  0  0  0  0  0
  189.3210  175.5350  144.9830 N   0  0  0  0  0  2  0  0  0  0  0  0
  194.3920  172.9470  145.0080 C   0  0  0  0  0  3  0  0  0  0  0  0
  192.0960  169.4290  141.7690 C   0  0  0  0  0  3  0  0  0  0  0  0
  192.9210  174.7900  145.5700 C   0  0  0  0  0  0  0  0  0  0  0  0
  193.9990  175.4710  146.1420 C   0  0  0  0  0  3  0  0  0  0  0  0
  189.6060  173.0840  143.5910 N   0  0  0  0  0  0  0  0  0  0  0  0
  190.8660  171.2380  142.8050 C   0  0  0  0  0  0  0  0  0  0  0  0
  190.9030  170.1330  141.9510 C   0  0  0  0  0  3  0  0  0  0  0  0
  185.0560  178.3490  145.5250 C   0  0  0  0  0  0  0  0  0  0  0  0
  187.2580  178.0550  144.6950 C   0  0  0  0  0  3  0  0  0  0  0  0
  186.8380  176.1260  147.7880 F   0  0  0  0  0  0  0  0  0  0  0  0
  183.7120  178.9660  145.3860 C   0  0  0  0  0  1  0  0  0  0  0  0
  186.0180  178.6020  144.6000 N   0  0  0  0  0  0  0  0  0  0  0  0
  186.5960  176.9360  146.7290 C   0  0  0  0  0  0  0  0  0  0  0  0
  187.5870  177.2050  145.7620 C   0  0  0  0  0  0  0  0  0  0  0  0
  185.3290  177.5120  146.6060 C   0  0  0  0  0  3  0  0  0  0  0  0
  1 11  1  0  0  0  0
  1  8  1  0  0  0  0
  2  3  1  6  0  0  0
  2  7  1  0  0  0  0
  5  4  2  0  0  0  0
  6  9  2  0  0  0  0
  7 17  1  0  0  0  0
  7 19  2  0  0  0  0
  8 20  2  0  0  0  0
  9  3  1  0  0  0  0
 10 16  1  0  0  0  0
 10 14  2  0  0  0  0
 12 21  2  0  0  0  0
 13  6  1  0  0  0  0
 15 21  1  1  0  0  0
 15  2  1  0  0  0  0
 15 10  1  0  0  0  0
 16  5  1  0  0  0  0
 17  1  2  0  0  0  0
 18 23  2  0  0  0  0
 18  6  1  0  0  0  0
 19 14  1  0  0  0  0
 19 20  1  0  0  0  0
 22 12  1  0  0  0  0
 22  3  2  0  0  0  0
 23 22  1  0  0  0  0
 24 31  1  0  0  0  0
 25 30  2  0  0  0  0
 27 24  1  0  0  0  0
 28 25  1  0  0  0  0
 28 24  2  0  0  0  0
 29 26  1  0  0  0  0
 30  5  1  0  0  0  0
 30 29  1  0  0  0  0
 31 29  2  0  0  0  0
M  END
>  <MODEL>
5

>  <REMARK>
 VINA RESULT:      -8.2      4.035      8.729
  Name = 
  1 active torsions:
  status: ('A' for Active; 'I' for Inactive)
    1  A    between atoms: C_5  and  C_30
                            x       y       z     vdW  Elec       q    Type
                         _______ _______ _______ _____ _____    ______ ____

>  <TORSDO>
F 1

$$$$
=
 OpenBabel11112416563D

 31 35  0  0  1  0  0  0  0  0999 V2000
  186.4530  178.8020  143.5700 C   0  0  0  0  0  0  0  0  0  0  0  0
  188.8560  175.8220  143.9130 C   0  0  1  0  0  3  0  0  0  0  0  0
  189.6930  176.1310  145.1420 C   0  0  0  0  0  0  0  0  0  0  0  0
  187.8160  173.9240  139.1080 O   0  0  0  0  0  0  0  0  0  0  0  0
  188.8920  173.4050  139.5120 C   0  0  0  0  0  0  0  0  0  0  0  0
  190.1120  177.2800  147.2420 C   0  0  0  0  0  0  0  0  0  0  0  0
  187.9380  176.8900  143.3420 C   0  0  0  0  0  0  0  0  0  0  0  0
  186.0410  178.6470  142.2440 C   0  0  0  0  0  3  0  0  0  0  0  0
  189.3570  177.1200  146.0780 C   0  0  0  0  0  3  0  0  0  0  0  0
  189.0130  174.9140  141.5730 C   0  0  0  0  0  0  0  0  0  0  0  0
  185.9390  179.8000  144.3270 F   0  0  0  0  0  0  0  0  0  0  0  0
  191.0940  174.2150  144.4960 N   0  0  0  0  0  0  0  0  0  0  0  0
  189.6910  178.5330  148.3890 Cl  0  0  0  0  0  0  0  0  0  0  0  0
  188.0000  175.6470  141.2070 N   0  0  0  0  0  0  0  0  0  0  0  0
  189.7830  175.2880  142.8110 C   0  0  2  0  0  3  0  0  0  0  0  0
  189.4990  173.8610  140.7290 N   0  0  0  0  0  2  0  0  0  0  0  0
  187.3820  177.9160  144.1200 C   0  0  0  0  0  3  0  0  0  0  0  0
  191.1920  176.4320  147.4990 C   0  0  0  0  0  3  0  0  0  0  0  0
  187.4990  176.7290  142.0090 C   0  0  0  0  0  0  0  0  0  0  0  0
  186.5580  177.6080  141.4670 C   0  0  0  0  0  3  0  0  0  0  0  0
  190.6040  174.1870  143.3170 N   0  0  0  0  0  0  0  0  0  0  0  0
  190.7770  175.2710  145.4160 C   0  0  0  0  0  0  0  0  0  0  0  0
  191.5200  175.4230  146.5900 C   0  0  0  0  0  3  0  0  0  0  0  0
  190.7200  170.2180  137.3390 C   0  0  0  0  0  0  0  0  0  0  0  0
  190.0660  171.2140  139.3910 C   0  0  0  0  0  3  0  0  0  0  0  0
  189.0800  173.3810  136.5980 F   0  0  0  0  0  0  0  0  0  0  0  0
  191.3630  169.0920  136.6160 C   0  0  0  0  0  1  0  0  0  0  0  0
  190.6480  170.2020  138.6960 N   0  0  0  0  0  0  0  0  0  0  0  0
  189.5870  172.3480  137.3150 C   0  0  0  0  0  0  0  0  0  0  0  0
  189.5180  172.3190  138.7230 C   0  0  0  0  0  0  0  0  0  0  0  0
  190.1910  171.2930  136.6260 C   0  0  0  0  0  3  0  0  0  0  0  0
  1 17  1  0  0  0  0
  1 11  1  0  0  0  0
  2  7  1  6  0  0  0
  2  3  1  0  0  0  0
  3 22  2  0  0  0  0
  3  9  1  0  0  0  0
  4  5  2  0  0  0  0
  5 16  1  0  0  0  0
  6 18  1  0  0  0  0
  6 13  1  0  0  0  0
  7 17  2  0  0  0  0
  8  1  2  0  0  0  0
  9  6  2  0  0  0  0
 12 22  1  0  0  0  0
 14 10  2  0  0  0  0
 14 19  1  0  0  0  0
 15 10  1  6  0  0  0
 15 21  1  0  0  0  0
 15  2  1  0  0  0  0
 16 10  1  0  0  0  0
 19  7  1  0  0  0  0
 20 19  2  0  0  0  0
 20  8  1  0  0  0  0
 21 12  2  0  0  0  0
 22 23  1  0  0  0  0
 23 18  2  0  0  0  0
 24 28  1  0  0  0  0
 26 29  1  0  0  0  0
 27 24  1  0  0  0  0
 28 25  2  0  0  0  0
 29 30  2  0  0  0  0
 30 25  1  0  0  0  0
 30  5  1  0  0  0  0
 31 29  1  0  0  0  0
 31 24  2  0  0  0  0
M  END
>  <MODEL>
6

>  <REMARK>
 VINA RESULT:      -8.2      4.987      7.159
  Name = 
  1 active torsions:
  status: ('A' for Active; 'I' for Inactive)
    1  A    between atoms: C_5  and  C_30
                            x       y       z     vdW  Elec       q    Type
                         _______ _______ _______ _____ _____    ______ ____

>  <TORSDO>
F 1

$$$$
=
 OpenBabel11112416563D

 31 35  0  0  1  0  0  0  0  0999 V2000
  194.6970  175.0570  146.0630 C   0  0  0  0  0  0  0  0  0  0  0  0
  191.6900  173.4290  144.3080 C   0  0  1  0  0  3  0  0  0  0  0  0
  192.1980  172.0820  143.8260 C   0  0  0  0  0  0  0  0  0  0  0  0
  188.8610  177.8730  144.1750 O   0  0  0  0  0  0  0  0  0  0  0  0
  188.3620  177.0640  143.3460 C   0  0  0  0  0  0  0  0  0  0  0  0
  193.7480  170.2100  143.8730 C   0  0  0  0  0  0  0  0  0  0  0  0
  192.6720  174.4480  144.8610 C   0  0  0  0  0  0  0  0  0  0  0  0
  194.2850  176.3920  146.0930 C   0  0  0  0  0  3  0  0  0  0  0  0
  193.3920  171.5000  144.2750 C   0  0  0  0  0  3  0  0  0  0  0  0
  190.2770  175.3900  143.6130 C   0  0  0  0  0  0  0  0  0  0  0  0
  195.8750  174.6990  146.6270 F   0  0  0  0  0  0  0  0  0  0  0  0
  190.0830  171.8870  142.5850 N   0  0  0  0  0  0  0  0  0  0  0  0
  195.2520  169.5070  144.4250 Cl  0  0  0  0  0  0  0  0  0  0  0  0
  190.9860  176.1840  144.3630 N   0  0  0  0  0  0  0  0  0  0  0  0
  190.8550  174.0660  143.1880 C   0  0  2  0  0  3  0  0  0  0  0  0
  189.0280  175.8270  143.0590 N   0  0  0  0  0  2  0  0  0  0  0  0
  193.8860  174.0890  145.4670 C   0  0  0  0  0  3  0  0  0  0  0  0
  192.8960  169.4750  143.0440 C   0  0  0  0  0  3  0  0  0  0  0  0
  192.2540  175.7960  144.9150 C   0  0  0  0  0  0  0  0  0  0  0  0
  193.0620  176.7590  145.5260 C   0  0  0  0  0  3  0  0  0  0  0  0
  189.8330  173.1330  142.7120 N   0  0  0  0  0  0  0  0  0  0  0  0
  191.3380  171.3270  143.0010 C   0  0  0  0  0  0  0  0  0  0  0  0
  191.6880  170.0310  142.6150 C   0  0  0  0  0  3  0  0  0  0  0  0
  184.7370  178.0570  141.3250 C   0  0  0  0  0  0  0  0  0  0  0  0
  187.0950  177.7980  141.3340 C   0  0  0  0  0  3  0  0  0  0  0  0
  185.7490  176.9640  144.6450 F   0  0  0  0  0  0  0  0  0  0  0  0
  183.4950  178.4110  140.5900 C   0  0  0  0  0  1  0  0  0  0  0  0
  185.9390  178.1140  140.6940 N   0  0  0  0  0  0  0  0  0  0  0  0
  185.8410  177.3390  143.3450 C   0  0  0  0  0  0  0  0  0  0  0  0
  187.0830  177.4010  142.6800 C   0  0  0  0  0  0  0  0  0  0  0  0
  184.6680  177.6690  142.6620 C   0  0  0  0  0  3  0  0  0  0  0  0
  1  8  1  0  0  0  0
  1 11  1  0  0  0  0
  2  3  1  6  0  0  0
  2  7  1  0  0  0  0
  3  9  1  0  0  0  0
  5  4  2  0  0  0  0
  6  9  2  0  0  0  0
  6 13  1  0  0  0  0
  7 19  2  0  0  0  0
  7 17  1  0  0  0  0
 10 14  2  0  0  0  0
 12 21  2  0  0  0  0
 12 22  1  0  0  0  0
 14 19  1  0  0  0  0
 15 21  1  1  0  0  0
 15 10  1  0  0  0  0
 15  2  1  0  0  0  0
 16  5  1  0  0  0  0
 16 10  1  0  0  0  0
 17  1  2  0  0  0  0
 18  6  1  0  0  0  0
 19 20  1  0  0  0  0
 20  8  2  0  0  0  0
 22  3  2  0  0  0  0
 23 22  1  0  0  0  0
 23 18  2  0  0  0  0
 24 31  1  0  0  0  0
 25 30  2  0  0  0  0
 27 24  1  0  0  0  0
 28 24  2  0  0  0  0
 28 25  1  0  0  0  0
 29 26  1  0  0  0  0
 30 29  1  0  0  0  0
 30  5  1  0  0  0  0
 31 29  2  0  0  0  0
M  END
>  <MODEL>
7

>  <REMARK>
 VINA RESULT:      -8.0      3.926      8.885
  Name = 
  1 active torsions:
  status: ('A' for Active; 'I' for Inactive)
    1  A    between atoms: C_5  and  C_30
                            x       y       z     vdW  Elec       q    Type
                         _______ _______ _______ _____ _____    ______ ____

>  <TORSDO>
F 1

$$$$
=
 OpenBabel11112416563D

 31 35  0  0  1  0  0  0  0  0999 V2000
  185.5840  177.6660  141.0720 C   0  0  0  0  0  0  0  0  0  0  0  0
  187.3400  176.7900  144.3760 C   0  0  1  0  0  3  0  0  0  0  0  0
  186.4970  177.4440  145.4560 C   0  0  0  0  0  0  0  0  0  0  0  0
  191.7380  175.0690  142.0370 O   0  0  0  0  0  0  0  0  0  0  0  0
  192.0000  175.2930  143.2500 C   0  0  0  0  0  0  0  0  0  0  0  0
  184.4380  178.4240  146.2980 C   0  0  0  0  0  0  0  0  0  0  0  0
  187.0680  177.1070  142.9150 C   0  0  0  0  0  0  0  0  0  0  0  0
  186.6080  177.4040  140.1590 C   0  0  0  0  0  3  0  0  0  0  0  0
  185.2010  177.9300  145.2360 C   0  0  0  0  0  3  0  0  0  0  0  0
  189.7240  176.3740  143.6880 C   0  0  0  0  0  0  0  0  0  0  0  0
  184.3680  178.0660  140.6290 F   0  0  0  0  0  0  0  0  0  0  0  0
  188.3040  176.8640  147.0220 N   0  0  0  0  0  0  0  0  0  0  0  0
  182.8300  179.0470  146.0020 Cl  0  0  0  0  0  0  0  0  0  0  0  0
  189.3720  176.3530  142.4340 N   0  0  0  0  0  0  0  0  0  0  0  0
  188.8220  177.0370  144.6950 C   0  0  2  0  0  3  0  0  0  0  0  0
  191.0230  175.9210  144.0920 N   0  0  0  0  0  2  0  0  0  0  0  0
  185.8080  177.5010  142.4410 C   0  0  0  0  0  3  0  0  0  0  0  0
  184.9520  178.4050  147.5970 C   0  0  0  0  0  3  0  0  0  0  0  0
  188.0910  176.8220  141.9830 C   0  0  0  0  0  0  0  0  0  0  0  0
  187.8570  176.9750  140.6140 C   0  0  0  0  0  3  0  0  0  0  0  0
  189.1270  176.6400  146.0710 N   0  0  0  0  0  0  0  0  0  0  0  0
  187.0020  177.4160  146.7730 C   0  0  0  0  0  0  0  0  0  0  0  0
  186.2310  177.8950  147.8350 C   0  0  0  0  0  3  0  0  0  0  0  0
  195.8500  174.2370  144.7590 C   0  0  0  0  0  0  0  0  0  0  0  0
  194.4660  175.5960  143.3940 C   0  0  0  0  0  3  0  0  0  0  0  0
  192.4110  173.1130  145.1480 F   0  0  0  0  0  0  0  0  0  0  0  0
  197.2050  173.8970  145.2630 C   0  0  0  0  0  1  0  0  0  0  0  0
  195.6900  175.2560  143.8750 N   0  0  0  0  0  0  0  0  0  0  0  0
  193.4720  173.8360  144.7120 C   0  0  0  0  0  0  0  0  0  0  0  0
  193.3180  174.8960  143.7960 C   0  0  0  0  0  0  0  0  0  0  0  0
  194.7430  173.5090  145.1920 C   0  0  0  0  0  3  0  0  0  0  0  0
  1 17  1  0  0  0  0
  2  7  1  6  0  0  0
  2 15  1  0  0  0  0
  2  3  1  0  0  0  0
  3 22  1  0  0  0  0
  4  5  2  0  0  0  0
  5 30  1  0  0  0  0
  5 16  1  0  0  0  0
  6 18  2  0  0  0  0
  8 20  1  0  0  0  0
  8  1  2  0  0  0  0
  9  3  2  0  0  0  0
  9  6  1  0  0  0  0
 10 16  1  0  0  0  0
 11  1  1  0  0  0  0
 13  6  1  0  0  0  0
 14 10  2  0  0  0  0
 15 10  1  6  0  0  0
 15 21  1  0  0  0  0
 17  7  2  0  0  0  0
 18 23  1  0  0  0  0
 19 14  1  0  0  0  0
 19  7  1  0  0  0  0
 20 19  2  0  0  0  0
 21 12  2  0  0  0  0
 22 12  1  0  0  0  0
 22 23  2  0  0  0  0
 24 31  1  0  0  0  0
 24 27  1  0  0  0  0
 25 30  2  0  0  0  0
 25 28  1  0  0  0  0
 28 24  2  0  0  0  0
 29 26  1  0  0  0  0
 29 31  2  0  0  0  0
 30 29  1  0  0  0  0
M  END
>  <MODEL>
8

>  <REMARK>
 VINA RESULT:      -8.0      2.151      4.281
  Name = 
  1 active torsions:
  status: ('A' for Active; 'I' for Inactive)
    1  A    between atoms: C_5  and  C_30
                            x       y       z     vdW  Elec       q    Type
                         _______ _______ _______ _____ _____    ______ ____

>  <TORSDO>
F 1

$$$$
=
 OpenBabel11112416563D

 31 35  0  0  1  0  0  0  0  0999 V2000
  189.6710  177.1140  146.7340 C   0  0  0  0  0  0  0  0  0  0  0  0
  188.9470  176.2850  143.0520 C   0  0  1  0  0  3  0  0  0  0  0  0
  187.6920  177.0690  142.7110 C   0  0  0  0  0  0  0  0  0  0  0  0
  192.3430  172.2600  142.8810 O   0  0  0  0  0  0  0  0  0  0  0  0
  191.5600  172.1550  141.8980 C   0  0  0  0  0  0  0  0  0  0  0  0
  186.0910  178.8590  143.0830 C   0  0  0  0  0  0  0  0  0  0  0  0
  189.4100  176.1990  144.4960 C   0  0  0  0  0  0  0  0  0  0  0  0
  190.5420  176.0730  147.0650 C   0  0  0  0  0  3  0  0  0  0  0  0
  187.1880  178.1070  143.5080 C   0  0  0  0  0  3  0  0  0  0  0  0
  190.0510  174.0500  142.7190 C   0  0  0  0  0  0  0  0  0  0  0  0
  189.3710  178.0630  147.6510 F   0  0  0  0  0  0  0  0  0  0  0  0
  187.6470  175.8090  140.5990 N   0  0  0  0  0  0  0  0  0  0  0  0
  185.4610  180.1360  144.1000 Cl  0  0  0  0  0  0  0  0  0  0  0  0
  190.6730  174.1730  143.8570 N   0  0  0  0  0  0  0  0  0  0  0  0
  188.8170  174.8740  142.4600 C   0  0  2  0  0  3  0  0  0  0  0  0
  190.4300  173.0310  141.7830 N   0  0  0  0  0  2  0  0  0  0  0  0
  189.1230  177.1860  145.4510 C   0  0  0  0  0  3  0  0  0  0  0  0
  185.5050  178.6030  141.8400 C   0  0  0  0  0  3  0  0  0  0  0  0
  190.3080  175.1620  144.8330 C   0  0  0  0  0  0  0  0  0  0  0  0
  190.8650  175.1030  146.1130 C   0  0  0  0  0  3  0  0  0  0  0  0
  188.4730  174.9390  141.0390 N   0  0  0  0  0  0  0  0  0  0  0  0
  187.1030  176.8280  141.4520 C   0  0  0  0  0  0  0  0  0  0  0  0
  186.0160  177.5930  141.0220 C   0  0  0  0  0  3  0  0  0  0  0  0
  192.3740  169.2690  138.8610 C   0  0  0  0  0  0  0  0  0  0  0  0
  192.6050  171.4560  139.7510 C   0  0  0  0  0  3  0  0  0  0  0  0
  190.5420  169.4200  142.0010 F   0  0  0  0  0  0  0  0  0  0  0  0
  192.6780  168.2910  137.7850 C   0  0  0  0  0  1  0  0  0  0  0  0
  192.8610  170.5350  138.7850 N   0  0  0  0  0  0  0  0  0  0  0  0
  191.3080  169.8150  140.9550 C   0  0  0  0  0  0  0  0  0  0  0  0
  191.8200  171.1260  140.8660 C   0  0  0  0  0  0  0  0  0  0  0  0
  191.5890  168.8880  139.9480 C   0  0  0  0  0  3  0  0  0  0  0  0
  1  8  1  0  0  0  0
  1 11  1  0  0  0  0
  2  3  1  1  0  0  0
  2  7  1  0  0  0  0
  3  9  1  0  0  0  0
  5  4  2  0  0  0  0
  6  9  2  0  0  0  0
  6 13  1  0  0  0  0
  7 19  2  0  0  0  0
  7 17  1  0  0  0  0
 10 14  2  0  0  0  0
 12 21  2  0  0  0  0
 12 22  1  0  0  0  0
 14 19  1  0  0  0  0
 15 21  1  6  0  0  0
 15 10  1  0  0  0  0
 15  2  1  0  0  0  0
 16  5  1  0  0  0  0
 16 10  1  0  0  0  0
 17  1  2  0  0  0  0
 18  6  1  0  0  0  0
 19 20  1  0  0  0  0
 20  8  2  0  0  0  0
 22  3  2  0  0  0  0
 23 22  1  0  0  0  0
 23 18  2  0  0  0  0
 24 31  1  0  0  0  0
 25 30  2  0  0  0  0
 27 24  1  0  0  0  0
 28 24  2  0  0  0  0
 28 25  1  0  0  0  0
 29 26  1  0  0  0  0
 30 29  1  0  0  0  0
 30  5  1  0  0  0  0
 31 29  2  0  0  0  0
M  END
>  <MODEL>
9

>  <REMARK>
 VINA RESULT:      -7.8      4.432      5.412
  Name = 
  1 active torsions:
  status: ('A' for Active; 'I' for Inactive)
    1  A    between atoms: C_5  and  C_30
                            x       y       z     vdW  Elec       q    Type
                         _______ _______ _______ _____ _____    ______ ____

>  <TORSDO>
F 1

$$$$
