=
 OpenBabel11112417453D

 34 42  0  0  1  0  0  0  0  0999 V2000
  192.1160  175.6500  145.5810 C   0  0  1  0  0  3  0  0  0  0  0  0
  189.6510  175.9130  146.4200 C   0  0  0  0  0  3  0  0  0  0  0  0
  196.3440  175.6400  140.2680 C   0  0  2  0  0  0  0  0  0  0  0  0
  194.2860  175.9970  144.4630 N   0  0  0  0  0  0  0  0  0  0  0  0
  194.3880  175.9120  141.9490 C   0  0  0  0  0  0  0  0  0  0  0  0
  195.0200  175.1650  139.6940 C   0  0  2  0  0  3  0  0  0  0  0  0
  196.2790  175.0950  138.8600 C   0  0  0  0  0  2  0  0  0  0  0  0
  197.3970  175.4060  142.3050 C   0  0  0  0  0  2  0  0  0  0  0  0
  190.0440  175.6770  144.1430 C   0  0  0  0  0  0  0  0  0  0  0  0
  187.8890  175.2040  142.0220 C   0  0  0  0  0  3  0  0  0  0  0  0
  193.0960  175.7540  141.9230 N   0  0  0  0  0  0  0  0  0  0  0  0
  196.4090  175.6130  143.4070 C   0  0  0  0  0  3  0  0  0  0  0  0
  190.8130  175.6290  142.8490 C   0  0  1  0  0  3  0  0  0  0  0  0
  188.4030  175.9450  145.6630 N   0  0  0  0  0  0  0  0  0  0  0  0
  195.0950  175.8660  143.2720 C   0  0  0  0  0  0  0  0  0  0  0  0
  196.8020  174.6450  141.2210 N   0  0  0  0  0  2  0  0  0  0  0  0
  187.7330  175.8430  143.1890 C   0  0  0  0  0  0  0  0  0  0  0  0
  192.8310  176.1540  144.3260 C   0  0  1  0  0  3  0  0  0  0  0  0
  195.0460  176.3400  140.6600 C   0  0  2  0  0  3  0  0  0  0  0  0
  192.3140  175.3900  143.1020 C   0  0  2  0  0  3  0  0  0  0  0  0
  194.1390  176.2970  146.8650 C   0  0  0  0  0  3  0  0  0  0  0  0
  189.0370  174.3910  141.5800 C   0  0  0  0  0  3  0  0  0  0  0  0
  194.8870  176.1180  145.7700 C   0  0  0  0  0  3  0  0  0  0  0  0
  190.3060  174.5380  141.9590 C   0  0  0  0  0  3  0  0  0  0  0  0
  188.7350  175.7880  144.2850 C   0  0  0  0  0  0  0  0  0  0  0  0
  192.6450  176.4340  146.7800 C   0  0  0  0  0  2  0  0  0  0  0  0
  190.6820  175.8320  145.3980 N   0  0  0  0  0  0  0  0  0  0  0  0
  186.5060  176.5600  143.3680 N   0  0  0  0  0  2  0  0  0  0  0  0
  186.3560  177.8710  143.0500 O   0  0  0  0  0  0  0  0  0  0  0  0
  184.1720  179.6750  144.3610 O   0  0  0  0  0  0  0  0  0  0  0  0
  185.3030  177.7640  145.1690 C   0  0  0  0  0  2  0  0  0  0  0  0
  186.2400  178.5300  144.2790 C   0  0  2  0  0  3  0  0  0  0  0  0
  184.1330  178.6990  145.3660 C   0  0  0  0  0  2  0  0  0  0  0  0
  185.5340  179.8510  144.0770 C   0  0  0  0  0  2  0  0  0  0  0  0
  1 26  1  1  0  0  0
  3  7  1  6  0  0  0
  3 19  1  0  0  0  0
  3 16  1  0  0  0  0
  4 23  1  0  0  0  0
  5 15  1  0  0  0  0
  6  7  1  6  0  0  0
  6  3  1  0  0  0  0
  6 19  1  0  0  0  0
  8 12  1  0  0  0  0
  9 25  2  0  0  0  0
  9 27  1  0  0  0  0
 10 17  2  0  0  0  0
 11  5  2  0  0  0  0
 13 24  1  6  0  0  0
 13 20  1  0  0  0  0
 13  9  1  0  0  0  0
 14  2  2  0  0  0  0
 15 12  2  0  0  0  0
 15  4  1  0  0  0  0
 16  8  1  0  0  0  0
 17 28  1  0  0  0  0
 17 25  1  0  0  0  0
 18  4  1  1  0  0  0
 18  1  1  0  0  0  0
 19  5  1  1  0  0  0
 20 11  1  6  0  0  0
 20 18  1  0  0  0  0
 22 24  2  0  0  0  0
 22 10  1  0  0  0  0
 23 21  2  0  0  0  0
 25 14  1  0  0  0  0
 26 21  1  0  0  0  0
 27  1  1  0  0  0  0
 27  2  1  0  0  0  0
 29 28  1  0  0  0  0
 30 33  1  0  0  0  0
 31 33  1  0  0  0  0
 32 29  1  6  0  0  0
 32 31  1  0  0  0  0
 34 32  1  0  0  0  0
 34 30  1  0  0  0  0
M  END
>  <MODEL>
1

>  <REMARK>
 VINA RESULT:      -8.3      0.000      0.000
  Name = 
  3 active torsions:
  status: ('A' for Active; 'I' for Inactive)
    1  A    between atoms: C_17  and  N_28
    2  A    between atoms: N_28  and  O_29
    3  A    between atoms: O_29  and  C_32
                            x       y       z     vdW  Elec       q    Type
                         _______ _______ _______ _____ _____    ______ ____

>  <TORSDO>
F 3

$$$$
=
 OpenBabel11112417453D

 34 42  0  0  1  0  0  0  0  0999 V2000
  190.9940  175.7100  144.9260 C   0  0  1  0  0  3  0  0  0  0  0  0
  192.3210  174.1170  143.3290 C   0  0  0  0  0  3  0  0  0  0  0  0
  184.9440  178.2300  146.7050 C   0  0  2  0  0  0  0  0  0  0  0  0
  189.3490  176.6430  146.5080 N   0  0  0  0  0  0  0  0  0  0  0  0
  186.9510  176.8710  145.7800 C   0  0  0  0  0  0  0  0  0  0  0  0
  184.8040  177.9320  145.2210 C   0  0  2  0  0  3  0  0  0  0  0  0
  183.7280  178.7080  145.9450 C   0  0  0  0  0  2  0  0  0  0  0  0
  186.6810  178.9160  148.0560 C   0  0  0  0  0  2  0  0  0  0  0  0
  190.1080  174.6200  142.8300 C   0  0  0  0  0  0  0  0  0  0  0  0
  188.6930  173.9310  140.2060 C   0  0  0  0  0  2  0  0  0  0  0  0
  187.2620  176.3020  144.6510 N   0  0  0  0  0  0  0  0  0  0  0  0
  187.9210  178.1610  147.7010 C   0  0  0  0  0  3  0  0  0  0  0  0
  188.7050  175.1300  143.0300 C   0  0  1  0  0  3  0  0  0  0  0  0
  191.8880  173.4420  142.1090 N   0  0  0  0  0  0  0  0  0  0  0  0
  188.0520  177.2410  146.7300 C   0  0  0  0  0  0  0  0  0  0  0  0
  185.9400  179.2740  146.8600 N   0  0  0  0  0  2  0  0  0  0  0  0
  189.7120  173.2630  140.7610 C   0  0  0  0  0  0  0  0  0  0  0  0
  189.5310  175.7270  145.3740 C   0  0  1  0  0  3  0  0  0  0  0  0
  185.4840  176.9220  146.1330 C   0  0  2  0  0  3  0  0  0  0  0  0
  188.6400  176.1360  144.1950 C   0  0  2  0  0  3  0  0  0  0  0  0
  191.6090  176.2160  147.2760 C   0  0  0  0  0  3  0  0  0  0  0  0
  188.1620  175.2540  140.5830 C   0  0  0  0  0  3  0  0  0  0  0  0
  190.4270  176.8160  147.4540 C   0  0  0  0  0  3  0  0  0  0  0  0
  188.1950  175.8050  141.7970 C   0  0  0  0  0  3  0  0  0  0  0  0
  190.5300  173.8100  141.8750 C   0  0  0  0  0  0  0  0  0  0  0  0
  191.8530  175.2920  146.1150 C   0  0  0  0  0  2  0  0  0  0  0  0
  191.1210  174.7860  143.8070 N   0  0  0  0  0  0  0  0  0  0  0  0
  190.0290  171.9880  140.1910 N   0  0  0  0  0  0  0  0  0  0  0  0
  189.5010  171.5420  139.0230 O   0  0  0  0  0  0  0  0  0  0  0  0
  190.6490  168.6570  139.3380 O   0  0  0  0  0  0  0  0  0  0  0  0
  189.9510  169.8540  137.4240 C   0  0  0  0  0  2  0  0  0  0  0  0
  190.5340  170.8280  138.4070 C   0  0  2  0  0  3  0  0  0  0  0  0
  190.3120  168.5000  137.9870 C   0  0  0  0  0  2  0  0  0  0  0  0
  191.2090  169.9390  139.4270 C   0  0  0  0  0  2  0  0  0  0  0  0
  1 18  1  0  0  0  0
  1 26  1  1  0  0  0
  2 27  1  0  0  0  0
  3  7  1  1  0  0  0
  3 16  1  0  0  0  0
  4 15  1  0  0  0  0
  4 23  1  0  0  0  0
  5 15  1  0  0  0  0
  6  7  1  1  0  0  0
  6 19  1  0  0  0  0
  6  3  1  0  0  0  0
  9 13  1  0  0  0  0
  9 27  1  0  0  0  0
 10 22  1  0  0  0  0
 10 17  1  0  0  0  0
 11  5  2  0  0  0  0
 12  8  1  0  0  0  0
 13 24  1  6  0  0  0
 13 20  1  0  0  0  0
 14  2  2  0  0  0  0
 15 12  2  0  0  0  0
 16  8  1  0  0  0  0
 17 25  1  0  0  0  0
 18  4  1  1  0  0  0
 19  5  1  6  0  0  0
 19  3  1  0  0  0  0
 20 11  1  1  0  0  0
 20 18  1  0  0  0  0
 21 23  2  0  0  0  0
 22 24  2  0  0  0  0
 25 14  1  0  0  0  0
 25  9  2  0  0  0  0
 26 21  1  0  0  0  0
 27  1  1  0  0  0  0
 28 17  2  0  0  0  0
 29 28  1  0  0  0  0
 30 34  1  0  0  0  0
 31 33  1  0  0  0  0
 31 32  1  0  0  0  0
 32 29  1  1  0  0  0
 32 34  1  0  0  0  0
 33 30  1  0  0  0  0
M  END
>  <MODEL>
2

>  <REMARK>
 VINA RESULT:      -8.0      3.671      8.344
  Name = 
  3 active torsions:
  status: ('A' for Active; 'I' for Inactive)
    1  A    between atoms: C_17  and  N_28
    2  A    between atoms: N_28  and  O_29
    3  A    between atoms: O_29  and  C_32
                            x       y       z     vdW  Elec       q    Type
                         _______ _______ _______ _____ _____    ______ ____

>  <TORSDO>
F 3

$$$$
=
 OpenBabel11112417453D

 34 42  0  0  1  0  0  0  0  0999 V2000
  190.1830  176.1720  146.1000 C   0  0  1  0  0  3  0  0  0  0  0  0
  187.6750  176.8440  146.4250 C   0  0  0  0  0  3  0  0  0  0  0  0
  195.3710  175.4780  141.7740 C   0  0  2  0  0  0  0  0  0  0  0  0
  192.5650  176.1520  145.4670 N   0  0  0  0  0  0  0  0  0  0  0  0
  193.1780  176.0680  143.0270 C   0  0  0  0  0  0  0  0  0  0  0  0
  194.1360  175.2400  140.9200 C   0  0  2  0  0  3  0  0  0  0  0  0
  195.5130  174.9620  140.3610 C   0  0  0  0  0  2  0  0  0  0  0  0
  195.9190  175.0550  143.9730 C   0  0  0  0  0  2  0  0  0  0  0  0
  188.4920  176.5600  144.2690 C   0  0  0  0  0  0  0  0  0  0  0  0
  186.7820  176.4750  141.7330 C   0  0  0  0  0  3  0  0  0  0  0  0
  191.9110  176.1320  142.7290 N   0  0  0  0  0  0  0  0  0  0  0  0
  194.7690  175.4200  144.8550 C   0  0  0  0  0  3  0  0  0  0  0  0
  189.4970  176.3910  143.1600 C   0  0  1  0  0  3  0  0  0  0  0  0
  186.6360  177.0940  145.4290 N   0  0  0  0  0  0  0  0  0  0  0  0
  193.5730  175.8930  144.4640 C   0  0  0  0  0  0  0  0  0  0  0  0
  195.4470  174.4140  142.7580 N   0  0  0  0  0  2  0  0  0  0  0  0
  186.4920  177.1240  142.8680 C   0  0  0  0  0  0  0  0  0  0  0  0
  191.2180  176.5550  145.0410 C   0  0  1  0  0  3  0  0  0  0  0  0
  194.1520  176.3860  141.9200 C   0  0  2  0  0  3  0  0  0  0  0  0
  190.8500  175.8980  143.7060 C   0  0  2  0  0  3  0  0  0  0  0  0
  191.9700  176.4560  147.7980 C   0  0  0  0  0  3  0  0  0  0  0  0
  187.8460  175.4810  141.5020 C   0  0  0  0  0  3  0  0  0  0  0  0
  192.8910  176.1600  146.8740 C   0  0  0  0  0  3  0  0  0  0  0  0
  189.0150  175.4080  142.1400 C   0  0  0  0  0  3  0  0  0  0  0  0
  187.2190  176.8910  144.1430 C   0  0  0  0  0  0  0  0  0  0  0  0
  190.5700  176.8460  147.4140 C   0  0  0  0  0  2  0  0  0  0  0  0
  188.8690  176.5960  145.6340 N   0  0  0  0  0  0  0  0  0  0  0  0
  185.3910  178.0380  142.8210 N   0  0  0  0  0  2  0  0  0  0  0  0
  184.1010  177.6440  142.6610 O   0  0  0  0  0  0  0  0  0  0  0  0
  182.6720  177.5930  139.8870 O   0  0  0  0  0  0  0  0  0  0  0  0
  182.0280  178.5430  141.9520 C   0  0  0  0  0  2  0  0  0  0  0  0
  183.5240  178.6180  141.8400 C   0  0  2  0  0  3  0  0  0  0  0  0
  181.5750  178.1310  140.5720 C   0  0  0  0  0  2  0  0  0  0  0  0
  183.7880  178.2760  140.3920 C   0  0  0  0  0  2  0  0  0  0  0  0
  1 26  1  1  0  0  0
  3  7  1  6  0  0  0
  3 19  1  0  0  0  0
  3 16  1  0  0  0  0
  4 23  1  0  0  0  0
  5 15  1  0  0  0  0
  6  7  1  6  0  0  0
  6  3  1  0  0  0  0
  6 19  1  0  0  0  0
  8 12  1  0  0  0  0
  9 27  1  0  0  0  0
 10 17  2  0  0  0  0
 11  5  2  0  0  0  0
 13 24  1  6  0  0  0
 13 20  1  0  0  0  0
 13  9  1  0  0  0  0
 14  2  2  0  0  0  0
 15 12  2  0  0  0  0
 15  4  1  0  0  0  0
 16  8  1  0  0  0  0
 17 25  1  0  0  0  0
 18  4  1  1  0  0  0
 18  1  1  0  0  0  0
 19  5  1  1  0  0  0
 20 11  1  6  0  0  0
 20 18  1  0  0  0  0
 22 10  1  0  0  0  0
 22 24  2  0  0  0  0
 23 21  2  0  0  0  0
 25  9  2  0  0  0  0
 25 14  1  0  0  0  0
 26 21  1  0  0  0  0
 27  1  1  0  0  0  0
 27  2  1  0  0  0  0
 28 17  1  0  0  0  0
 29 28  1  0  0  0  0
 30 34  1  0  0  0  0
 30 33  1  0  0  0  0
 32 31  1  0  0  0  0
 32 29  1  1  0  0  0
 33 31  1  0  0  0  0
 34 32  1  0  0  0  0
M  END
>  <MODEL>
3

>  <REMARK>
 VINA RESULT:      -7.8      2.144      2.525
  Name = 
  3 active torsions:
  status: ('A' for Active; 'I' for Inactive)
    1  A    between atoms: C_17  and  N_28
    2  A    between atoms: N_28  and  O_29
    3  A    between atoms: O_29  and  C_32
                            x       y       z     vdW  Elec       q    Type
                         _______ _______ _______ _____ _____    ______ ____

>  <TORSDO>
F 3

$$$$
=
 OpenBabel11112417453D

 34 42  0  0  1  0  0  0  0  0999 V2000
  193.6920  176.1430  143.0790 C   0  0  1  0  0  3  0  0  0  0  0  0
  191.5940  177.7010  143.2160 C   0  0  0  0  0  3  0  0  0  0  0  0
  196.6630  170.4080  145.1730 C   0  0  2  0  0  0  0  0  0  0  0  0
  195.1800  174.1920  142.8400 N   0  0  0  0  0  0  0  0  0  0  0  0
  195.0630  172.3540  144.5560 C   0  0  0  0  0  0  0  0  0  0  0  0
  195.7770  170.8180  146.3380 C   0  0  2  0  0  3  0  0  0  0  0  0
  196.7730  169.6920  146.5000 C   0  0  0  0  0  2  0  0  0  0  0  0
  197.8630  171.5580  143.5760 C   0  0  0  0  0  2  0  0  0  0  0  0
  191.8240  175.9870  144.7680 C   0  0  0  0  0  0  0  0  0  0  0  0
  190.0980  175.6300  147.2690 C   0  0  0  0  0  3  0  0  0  0  0  0
  194.0810  172.9840  145.1340 N   0  0  0  0  0  0  0  0  0  0  0  0
  197.0410  172.6890  143.0480 C   0  0  0  0  0  3  0  0  0  0  0  0
  192.3580  174.7280  145.3990 C   0  0  1  0  0  3  0  0  0  0  0  0
  190.4710  177.6780  144.1490 N   0  0  0  0  0  0  0  0  0  0  0  0
  195.8030  173.0350  143.4420 C   0  0  0  0  0  0  0  0  0  0  0  0
  197.6880  171.4240  145.0110 N   0  0  0  0  0  2  0  0  0  0  0  0
  189.7300  176.2180  146.1230 C   0  0  0  0  0  0  0  0  0  0  0  0
  193.8790  174.6480  143.3470 C   0  0  1  0  0  3  0  0  0  0  0  0
  195.2410  170.8990  144.9160 C   0  0  2  0  0  3  0  0  0  0  0  0
  193.7550  174.3800  144.8510 C   0  0  2  0  0  3  0  0  0  0  0  0
  195.1300  175.8550  141.0770 C   0  0  0  0  0  3  0  0  0  0  0  0
  191.4540  175.2270  147.6870 C   0  0  0  0  0  3  0  0  0  0  0  0
  195.7380  174.8200  141.6660 C   0  0  0  0  0  3  0  0  0  0  0  0
  192.4580  174.8710  146.8850 C   0  0  0  0  0  3  0  0  0  0  0  0
  190.6950  176.6080  145.0640 C   0  0  0  0  0  0  0  0  0  0  0  0
  193.8110  176.3780  141.5750 C   0  0  0  0  0  2  0  0  0  0  0  0
  192.3890  176.5440  143.5930 N   0  0  0  0  0  0  0  0  0  0  0  0
  188.3360  176.5120  145.9740 N   0  0  0  0  0  2  0  0  0  0  0  0
  187.7750  177.6830  146.3700 O   0  0  0  0  0  0  0  0  0  0  0  0
  184.9780  178.9770  146.8620 O   0  0  0  0  0  0  0  0  0  0  0  0
  185.5860  176.8050  146.1580 C   0  0  0  0  0  2  0  0  0  0  0  0
  186.6410  177.3120  147.1000 C   0  0  2  0  0  3  0  0  0  0  0  0
  184.4640  177.8080  146.2860 C   0  0  0  0  0  2  0  0  0  0  0  0
  186.0090  178.5430  147.7080 C   0  0  0  0  0  2  0  0  0  0  0  0
  1 26  1  6  0  0  0
  1 18  1  0  0  0  0
  1 27  1  0  0  0  0
  2 27  1  0  0  0  0
  2 14  2  0  0  0  0
  3  6  1  0  0  0  0
  3  7  1  6  0  0  0
  4 15  1  0  0  0  0
  5 11  2  0  0  0  0
  6  7  1  1  0  0  0
  8 16  1  0  0  0  0
  9 25  2  0  0  0  0
  9 13  1  0  0  0  0
 10 22  1  0  0  0  0
 12 15  2  0  0  0  0
 12  8  1  0  0  0  0
 13 24  1  1  0  0  0
 14 25  1  0  0  0  0
 15  5  1  0  0  0  0
 16  3  1  0  0  0  0
 17 10  2  0  0  0  0
 18  4  1  1  0  0  0
 18 20  1  0  0  0  0
 19  5  1  6  0  0  0
 19  3  1  0  0  0  0
 19  6  1  0  0  0  0
 20 11  1  6  0  0  0
 20 13  1  0  0  0  0
 21 26  1  0  0  0  0
 21 23  2  0  0  0  0
 23  4  1  0  0  0  0
 24 22  2  0  0  0  0
 25 17  1  0  0  0  0
 27  9  1  0  0  0  0
 28 17  1  0  0  0  0
 28 29  1  0  0  0  0
 30 34  1  0  0  0  0
 31 33  1  0  0  0  0
 31 32  1  0  0  0  0
 32 29  1  6  0  0  0
 32 34  1  0  0  0  0
 33 30  1  0  0  0  0
M  END
>  <MODEL>
4

>  <REMARK>
 VINA RESULT:      -7.7      2.933      4.495
  Name = 
  3 active torsions:
  status: ('A' for Active; 'I' for Inactive)
    1  A    between atoms: C_17  and  N_28
    2  A    between atoms: N_28  and  O_29
    3  A    between atoms: O_29  and  C_32
                            x       y       z     vdW  Elec       q    Type
                         _______ _______ _______ _____ _____    ______ ____

>  <TORSDO>
F 3

$$$$
=
 OpenBabel11112417453D

 34 42  0  0  1  0  0  0  0  0999 V2000
  187.8140  176.2160  141.0920 C   0  0  1  0  0  3  0  0  0  0  0  0
  185.6710  177.2260  139.9810 C   0  0  0  0  0  3  0  0  0  0  0  0
  191.0150  174.6230  146.8650 C   0  0  2  0  0  0  0  0  0  0  0  0
  189.3580  174.8970  142.4900 N   0  0  0  0  0  0  0  0  0  0  0  0
  189.3390  175.2390  144.9830 C   0  0  0  0  0  0  0  0  0  0  0  0
  190.1420  175.8100  147.2360 C   0  0  2  0  0  3  0  0  0  0  0  0
  191.1770  175.2940  148.2090 C   0  0  0  0  0  2  0  0  0  0  0  0
  192.1410  173.9800  144.9590 C   0  0  0  0  0  2  0  0  0  0  0  0
  185.9910  177.5060  142.2650 C   0  0  0  0  0  0  0  0  0  0  0  0
  184.3340  179.3440  144.0650 C   0  0  0  0  0  2  0  0  0  0  0  0
  188.3510  176.0750  144.8400 N   0  0  0  0  0  0  0  0  0  0  0  0
  191.2710  174.2010  143.7640 C   0  0  0  0  0  3  0  0  0  0  0  0
  186.5790  177.2970  143.6360 C   0  0  1  0  0  3  0  0  0  0  0  0
  184.5700  177.9750  140.5810 N   0  0  0  0  0  0  0  0  0  0  0  0
  190.0310  174.7220  143.7560 C   0  0  0  0  0  0  0  0  0  0  0  0
  192.0020  175.0760  145.9020 N   0  0  0  0  0  2  0  0  0  0  0  0
  183.9210  178.7470  142.9400 C   0  0  0  0  0  0  0  0  0  0  0  0
  188.0550  175.5740  142.4600 C   0  0  1  0  0  3  0  0  0  0  0  0
  189.5720  174.6960  146.3720 C   0  0  2  0  0  3  0  0  0  0  0  0
  187.9730  176.6480  143.5500 C   0  0  2  0  0  3  0  0  0  0  0  0
  189.2150  174.4140  140.1170 C   0  0  0  0  0  3  0  0  0  0  0  0
  185.7110  179.4540  144.5810 C   0  0  0  0  0  3  0  0  0  0  0  0
  189.8690  174.2990  141.2780 C   0  0  0  0  0  3  0  0  0  0  0  0
  186.7070  178.5940  144.3710 C   0  0  0  0  0  3  0  0  0  0  0  0
  184.8500  178.1060  141.9730 C   0  0  0  0  0  0  0  0  0  0  0  0
  187.8920  175.1230  140.0300 C   0  0  0  0  0  2  0  0  0  0  0  0
  186.5110  176.8670  141.1120 N   0  0  0  0  0  0  0  0  0  0  0  0
  182.5160  178.7950  142.6680 N   0  0  0  0  0  0  0  0  0  0  0  0
  181.9370  178.1530  141.6210 O   0  0  0  0  0  0  0  0  0  0  0  0
  178.9430  177.6070  140.9300 O   0  0  0  0  0  0  0  0  0  0  0  0
  179.9390  179.1310  142.4350 C   0  0  0  0  0  2  0  0  0  0  0  0
  180.8540  178.9600  141.2560 C   0  0  2  0  0  3  0  0  0  0  0  0
  178.6580  178.4520  142.0100 C   0  0  0  0  0  2  0  0  0  0  0  0
  179.9980  178.2290  140.2480 C   0  0  0  0  0  2  0  0  0  0  0  0
  1 26  1  6  0  0  0
  1 27  1  0  0  0  0
  1 18  1  0  0  0  0
  2 14  2  0  0  0  0
  2 27  1  0  0  0  0
  3  6  1  0  0  0  0
  3  7  1  1  0  0  0
  4 15  1  0  0  0  0
  6  7  1  1  0  0  0
  8 16  1  0  0  0  0
  9 13  1  0  0  0  0
 10 22  1  0  0  0  0
 11  5  2  0  0  0  0
 12  8  1  0  0  0  0
 13 24  1  6  0  0  0
 14 25  1  0  0  0  0
 15 12  2  0  0  0  0
 15  5  1  0  0  0  0
 16  3  1  0  0  0  0
 17 10  1  0  0  0  0
 18  4  1  6  0  0  0
 18 20  1  0  0  0  0
 19  5  1  6  0  0  0
 19  3  1  0  0  0  0
 19  6  1  0  0  0  0
 20 13  1  0  0  0  0
 20 11  1  1  0  0  0
 21 23  2  0  0  0  0
 23  4  1  0  0  0  0
 24 22  2  0  0  0  0
 25  9  2  0  0  0  0
 25 17  1  0  0  0  0
 26 21  1  0  0  0  0
 27  9  1  0  0  0  0
 28 17  2  0  0  0  0
 29 28  1  0  0  0  0
 30 33  1  0  0  0  0
 32 29  1  1  0  0  0
 32 31  1  0  0  0  0
 33 31  1  0  0  0  0
 34 30  1  0  0  0  0
 34 32  1  0  0  0  0
M  END
>  <MODEL>
5

>  <REMARK>
 VINA RESULT:      -7.7      3.455      6.519
  Name = 
  3 active torsions:
  status: ('A' for Active; 'I' for Inactive)
    1  A    between atoms: C_17  and  N_28
    2  A    between atoms: N_28  and  O_29
    3  A    between atoms: O_29  and  C_32
                            x       y       z     vdW  Elec       q    Type
                         _______ _______ _______ _____ _____    ______ ____

>  <TORSDO>
F 3

$$$$
=
 OpenBabel11112417453D

 34 42  0  0  1  0  0  0  0  0999 V2000
  192.5660  175.6610  145.6170 C   0  0  1  0  0  3  0  0  0  0  0  0
  190.6160  176.7500  146.9810 C   0  0  0  0  0  3  0  0  0  0  0  0
  195.0440  174.1070  139.4880 C   0  0  2  0  0  0  0  0  0  0  0  0
  194.3660  175.2390  143.9850 N   0  0  0  0  0  0  0  0  0  0  0  0
  193.7800  175.0580  141.5440 C   0  0  0  0  0  0  0  0  0  0  0  0
  193.5370  174.0840  139.3000 C   0  0  2  0  0  3  0  0  0  0  0  0
  194.4480  173.5780  138.2050 C   0  0  0  0  0  2  0  0  0  0  0  0
  196.4610  173.5920  141.2320 C   0  0  0  0  0  2  0  0  0  0  0  0
  190.3090  176.3360  144.7150 C   0  0  0  0  0  0  0  0  0  0  0  0
  187.6420  176.5500  143.2300 C   0  0  0  0  0  3  0  0  0  0  0  0
  192.5440  175.3380  141.8420 N   0  0  0  0  0  0  0  0  0  0  0  0
  195.9100  174.1440  142.5070 C   0  0  0  0  0  3  0  0  0  0  0  0
  190.6600  176.0020  143.2890 C   0  0  1  0  0  3  0  0  0  0  0  0
  189.2900  177.1750  146.5410 N   0  0  0  0  0  0  0  0  0  0  0  0
  194.7540  174.8150  142.6590 C   0  0  0  0  0  0  0  0  0  0  0  0
  195.3970  173.0430  140.4100 N   0  0  0  0  0  2  0  0  0  0  0  0
  188.0030  177.2350  144.3230 C   0  0  0  0  0  0  0  0  0  0  0  0
  193.0520  175.8650  144.1800 C   0  0  1  0  0  3  0  0  0  0  0  0
  194.1800  175.2090  140.0970 C   0  0  2  0  0  3  0  0  0  0  0  0
  192.0210  175.2840  143.2050 C   0  0  2  0  0  3  0  0  0  0  0  0
  194.9500  175.6340  146.3060 C   0  0  0  0  0  3  0  0  0  0  0  0
  188.3190  175.3900  142.6210 C   0  0  0  0  0  3  0  0  0  0  0  0
  195.2930  175.1880  145.0920 C   0  0  0  0  0  3  0  0  0  0  0  0
  189.6240  175.1180  142.6710 C   0  0  0  0  0  3  0  0  0  0  0  0
  189.1850  176.8800  145.1500 C   0  0  0  0  0  0  0  0  0  0  0  0
  193.6070  176.2560  146.5620 C   0  0  0  0  0  2  0  0  0  0  0  0
  191.2670  176.3040  145.7590 N   0  0  0  0  0  0  0  0  0  0  0  0
  187.1550  178.3230  144.7060 N   0  0  0  0  0  2  0  0  0  0  0  0
  185.9240  178.5330  144.1720 O   0  0  0  0  0  0  0  0  0  0  0  0
  184.0090  177.9170  146.5580 O   0  0  0  0  0  0  0  0  0  0  0  0
  185.9640  179.2380  146.4330 C   0  0  0  0  0  2  0  0  0  0  0  0
  185.2500  179.3180  145.1140 C   0  0  2  0  0  3  0  0  0  0  0  0
  184.9730  178.5580  147.3480 C   0  0  0  0  0  2  0  0  0  0  0  0
  183.9000  178.7070  145.4050 C   0  0  0  0  0  2  0  0  0  0  0  0
  1 27  1  0  0  0  0
  1 26  1  1  0  0  0
  3  7  1  6  0  0  0
  3 19  1  0  0  0  0
  3 16  1  0  0  0  0
  4 23  1  0  0  0  0
  5 11  2  0  0  0  0
  5 15  1  0  0  0  0
  6  7  1  6  0  0  0
  6  3  1  0  0  0  0
  6 19  1  0  0  0  0
  8 12  1  0  0  0  0
  9 25  2  0  0  0  0
  9 27  1  0  0  0  0
 10 17  2  0  0  0  0
 12 15  2  0  0  0  0
 13 24  1  1  0  0  0
 13  9  1  0  0  0  0
 14  2  2  0  0  0  0
 15  4  1  0  0  0  0
 16  8  1  0  0  0  0
 17 28  1  0  0  0  0
 17 25  1  0  0  0  0
 18  4  1  1  0  0  0
 18  1  1  0  0  0  0
 19  5  1  1  0  0  0
 20 11  1  6  0  0  0
 20 13  1  0  0  0  0
 20 18  1  0  0  0  0
 21 26  1  0  0  0  0
 22 24  2  0  0  0  0
 22 10  1  0  0  0  0
 23 21  2  0  0  0  0
 25 14  1  0  0  0  0
 27  2  1  0  0  0  0
 29 28  1  0  0  0  0
 30 33  1  0  0  0  0
 31 33  1  0  0  0  0
 32 29  1  6  0  0  0
 32 34  1  0  0  0  0
 32 31  1  0  0  0  0
 34 30  1  0  0  0  0
M  END
>  <MODEL>
6

>  <REMARK>
 VINA RESULT:      -7.7      1.443      1.631
  Name = 
  3 active torsions:
  status: ('A' for Active; 'I' for Inactive)
    1  A    between atoms: C_17  and  N_28
    2  A    between atoms: N_28  and  O_29
    3  A    between atoms: O_29  and  C_32
                            x       y       z     vdW  Elec       q    Type
                         _______ _______ _______ _____ _____    ______ ____

>  <TORSDO>
F 3

$$$$
=
 OpenBabel11112417453D

 34 42  0  0  1  0  0  0  0  0999 V2000
  190.7280  173.5240  141.2100 C   0  0  1  0  0  3  0  0  0  0  0  0
  188.4050  174.6880  140.9040 C   0  0  0  0  0  3  0  0  0  0  0  0
  196.1250  172.5640  145.2180 C   0  0  2  0  0  0  0  0  0  0  0  0
  192.6340  172.2430  142.1070 N   0  0  0  0  0  0  0  0  0  0  0  0
  193.8180  173.0970  144.1580 C   0  0  0  0  0  0  0  0  0  0  0  0
  195.6290  173.9530  145.5830 C   0  0  2  0  0  3  0  0  0  0  0  0
  196.9550  173.4550  146.1140 C   0  0  0  0  0  2  0  0  0  0  0  0
  196.1660  171.3240  143.2750 C   0  0  0  0  0  2  0  0  0  0  0  0
  189.7830  175.3700  142.6460 C   0  0  0  0  0  0  0  0  0  0  0  0
  189.3230  177.8380  144.3950 C   0  0  0  0  0  3  0  0  0  0  0  0
  192.9500  174.0650  144.2300 N   0  0  0  0  0  0  0  0  0  0  0  0
  194.8580  171.4600  142.5660 C   0  0  0  0  0  3  0  0  0  0  0  0
  190.9270  175.3380  143.6250 C   0  0  1  0  0  3  0  0  0  0  0  0
  187.7800  175.7520  141.6860 N   0  0  0  0  0  0  0  0  0  0  0  0
  193.8080  172.2060  142.9510 C   0  0  0  0  0  0  0  0  0  0  0  0
  196.5770  172.5980  143.8390 N   0  0  0  0  0  2  0  0  0  0  0  0
  188.3820  177.1140  143.7750 C   0  0  0  0  0  0  0  0  0  0  0  0
  191.5300  173.1470  142.4570 C   0  0  1  0  0  3  0  0  0  0  0  0
  194.6310  172.8210  145.3990 C   0  0  2  0  0  3  0  0  0  0  0  0
  192.0590  174.4200  143.1280 C   0  0  2  0  0  3  0  0  0  0  0  0
  191.3540  171.3140  140.2690 C   0  0  0  0  0  3  0  0  0  0  0  0
  190.7850  177.7750  144.2110 C   0  0  0  0  0  3  0  0  0  0  0  0
  192.4660  171.3160  141.0130 C   0  0  0  0  0  3  0  0  0  0  0  0
  191.4910  176.7070  143.8390 C   0  0  0  0  0  3  0  0  0  0  0  0
  188.6920  176.1120  142.7230 C   0  0  0  0  0  0  0  0  0  0  0  0
  190.2080  172.2400  140.5700 C   0  0  0  0  0  2  0  0  0  0  0  0
  189.6450  174.4130  141.6100 N   0  0  0  0  0  0  0  0  0  0  0  0
  187.0230  177.3850  144.1370 N   0  0  0  0  0  2  0  0  0  0  0  0
  186.6100  178.5740  144.6450 O   0  0  0  0  0  0  0  0  0  0  0  0
  186.2610  176.7750  147.1720 O   0  0  0  0  0  0  0  0  0  0  0  0
  185.6540  179.0220  146.7650 C   0  0  0  0  0  2  0  0  0  0  0  0
  185.5320  178.2560  145.4780 C   0  0  2  0  0  3  0  0  0  0  0  0
  185.8570  177.9530  147.8130 C   0  0  0  0  0  2  0  0  0  0  0  0
  185.6410  176.8140  145.9140 C   0  0  0  0  0  2  0  0  0  0  0  0
  1 26  1  1  0  0  0
  1 27  1  0  0  0  0
  1 18  1  0  0  0  0
  2 27  1  0  0  0  0
  2 14  2  0  0  0  0
  3 19  1  0  0  0  0
  3  6  1  0  0  0  0
  3  7  1  1  0  0  0
  4 15  1  0  0  0  0
  5 11  2  0  0  0  0
  6  7  1  1  0  0  0
  8 16  1  0  0  0  0
  9 25  2  0  0  0  0
  9 13  1  0  0  0  0
 12 15  2  0  0  0  0
 12  8  1  0  0  0  0
 13 24  1  6  0  0  0
 14 25  1  0  0  0  0
 15  5  1  0  0  0  0
 16  3  1  0  0  0  0
 17 28  1  0  0  0  0
 17 10  2  0  0  0  0
 18  4  1  6  0  0  0
 18 20  1  0  0  0  0
 19  5  1  6  0  0  0
 19  6  1  0  0  0  0
 20 13  1  0  0  0  0
 20 11  1  1  0  0  0
 21 26  1  0  0  0  0
 21 23  2  0  0  0  0
 22 10  1  0  0  0  0
 23  4  1  0  0  0  0
 24 22  2  0  0  0  0
 25 17  1  0  0  0  0
 27  9  1  0  0  0  0
 28 29  1  0  0  0  0
 30 33  1  0  0  0  0
 31 33  1  0  0  0  0
 32 29  1  6  0  0  0
 32 34  1  0  0  0  0
 32 31  1  0  0  0  0
 34 30  1  0  0  0  0
M  END
>  <MODEL>
7

>  <REMARK>
 VINA RESULT:      -7.6      2.698      4.459
  Name = 
  3 active torsions:
  status: ('A' for Active; 'I' for Inactive)
    1  A    between atoms: C_17  and  N_28
    2  A    between atoms: N_28  and  O_29
    3  A    between atoms: O_29  and  C_32
                            x       y       z     vdW  Elec       q    Type
                         _______ _______ _______ _____ _____    ______ ____

>  <TORSDO>
F 3

$$$$
=
 OpenBabel11112417453D

 34 42  0  0  1  0  0  0  0  0999 V2000
  189.7380  174.1240  142.1100 C   0  0  1  0  0  3  0  0  0  0  0  0
  192.0050  172.9490  142.6860 C   0  0  0  0  0  3  0  0  0  0  0  0
  185.4530  179.2040  143.5020 C   0  0  2  0  0  0  0  0  0  0  0  0
  188.0120  175.7940  141.5560 N   0  0  0  0  0  0  0  0  0  0  0  0
  187.4580  177.5800  143.2410 C   0  0  0  0  0  0  0  0  0  0  0  0
  186.1440  178.9240  144.8260 C   0  0  2  0  0  3  0  0  0  0  0  0
  184.9550  179.8560  144.7710 C   0  0  0  0  0  2  0  0  0  0  0  0
  184.8180  177.9050  141.7060 C   0  0  0  0  0  2  0  0  0  0  0  0
  191.1720  174.5570  144.1410 C   0  0  0  0  0  0  0  0  0  0  0  0
  192.2700  175.1430  146.9360 C   0  0  0  0  0  3  0  0  0  0  0  0
  188.3990  177.1140  144.0120 N   0  0  0  0  0  0  0  0  0  0  0  0
  185.9130  176.9470  141.3680 C   0  0  0  0  0  3  0  0  0  0  0  0
  190.3110  175.6880  144.6380 C   0  0  1  0  0  3  0  0  0  0  0  0
  192.8960  173.1410  143.8260 N   0  0  0  0  0  0  0  0  0  0  0  0
  187.0880  176.8100  142.0070 C   0  0  0  0  0  0  0  0  0  0  0  0
  184.6750  178.0310  143.1460 N   0  0  0  0  0  2  0  0  0  0  0  0
  192.9580  174.6570  145.8940 C   0  0  0  0  0  0  0  0  0  0  0  0
  189.2440  175.5560  142.3200 C   0  0  1  0  0  3  0  0  0  0  0  0
  186.9610  178.9720  143.5430 C   0  0  2  0  0  3  0  0  0  0  0  0
  189.0140  175.8040  143.8150 C   0  0  2  0  0  3  0  0  0  0  0  0
  188.7050  174.2100  139.8560 C   0  0  0  0  0  3  0  0  0  0  0  0
  190.8090  175.2940  147.0670 C   0  0  0  0  0  3  0  0  0  0  0  0
  187.8190  175.1090  140.2990 C   0  0  0  0  0  3  0  0  0  0  0  0
  189.9410  175.4930  146.0750 C   0  0  0  0  0  3  0  0  0  0  0  0
  192.3080  174.1330  144.6660 C   0  0  0  0  0  0  0  0  0  0  0  0
  189.9660  173.9100  140.6170 C   0  0  0  0  0  2  0  0  0  0  0  0
  190.9610  173.9410  142.8820 N   0  0  0  0  0  0  0  0  0  0  0  0
  194.3830  174.6120  146.0330 N   0  0  0  0  0  2  0  0  0  0  0  0
  195.2070  175.5950  145.5880 O   0  0  0  0  0  0  0  0  0  0  0  0
  197.3040  176.5970  143.5050 O   0  0  0  0  0  0  0  0  0  0  0  0
  196.8230  174.4280  144.3090 C   0  0  0  0  0  2  0  0  0  0  0  0
  195.5470  175.2200  144.2840 C   0  0  2  0  0  3  0  0  0  0  0  0
  197.8070  175.2910  143.5550 C   0  0  0  0  0  2  0  0  0  0  0  0
  195.9090  176.4500  143.4850 C   0  0  0  0  0  2  0  0  0  0  0  0
  1 26  1  6  0  0  0
  1 18  1  0  0  0  0
  1 27  1  0  0  0  0
  2 27  1  0  0  0  0
  2 14  2  0  0  0  0
  3 19  1  0  0  0  0
  3  7  1  6  0  0  0
  3  6  1  0  0  0  0
  4 15  1  0  0  0  0
  5 11  2  0  0  0  0
  6  7  1  1  0  0  0
  8 16  1  0  0  0  0
  9 13  1  0  0  0  0
  9 25  2  0  0  0  0
 10 22  1  0  0  0  0
 12  8  1  0  0  0  0
 12 15  2  0  0  0  0
 13 24  1  1  0  0  0
 14 25  1  0  0  0  0
 15  5  1  0  0  0  0
 16  3  1  0  0  0  0
 17 28  1  0  0  0  0
 17 10  2  0  0  0  0
 18  4  1  6  0  0  0
 18 20  1  0  0  0  0
 19  5  1  6  0  0  0
 19  6  1  0  0  0  0
 20 11  1  6  0  0  0
 20 13  1  0  0  0  0
 21 23  2  0  0  0  0
 21 26  1  0  0  0  0
 23  4  1  0  0  0  0
 24 22  2  0  0  0  0
 25 17  1  0  0  0  0
 27  9  1  0  0  0  0
 29 28  1  0  0  0  0
 30 33  1  0  0  0  0
 32 31  1  0  0  0  0
 32 29  1  1  0  0  0
 33 31  1  0  0  0  0
 34 30  1  0  0  0  0
 34 32  1  0  0  0  0
M  END
>  <MODEL>
8

>  <REMARK>
 VINA RESULT:      -7.6      3.377      8.681
  Name = 
  3 active torsions:
  status: ('A' for Active; 'I' for Inactive)
    1  A    between atoms: C_17  and  N_28
    2  A    between atoms: N_28  and  O_29
    3  A    between atoms: O_29  and  C_32
                            x       y       z     vdW  Elec       q    Type
                         _______ _______ _______ _____ _____    ______ ____

>  <TORSDO>
F 3

$$$$
=
 OpenBabel11112417453D

 34 42  0  0  1  0  0  0  0  0999 V2000
  190.4240  174.4670  142.4660 C   0  0  1  0  0  3  0  0  0  0  0  0
  192.9200  173.8320  142.0010 C   0  0  0  0  0  3  0  0  0  0  0  0
  186.0890  178.1570  146.1690 C   0  0  2  0  0  0  0  0  0  0  0  0
  188.3320  175.7110  142.8600 N   0  0  0  0  0  0  0  0  0  0  0  0
  188.1210  177.1150  144.9380 C   0  0  0  0  0  0  0  0  0  0  0  0
  187.2670  177.9160  147.1000 C   0  0  2  0  0  3  0  0  0  0  0  0
  185.9900  178.5260  147.6310 C   0  0  0  0  0  2  0  0  0  0  0  0
  185.0880  176.9420  144.4860 C   0  0  0  0  0  2  0  0  0  0  0  0
  192.4030  175.0210  143.9300 C   0  0  0  0  0  0  0  0  0  0  0  0
  194.3360  175.5570  146.2410 C   0  0  0  0  0  3  0  0  0  0  0  0
  189.3520  176.8150  145.2400 N   0  0  0  0  0  0  0  0  0  0  0  0
  186.1380  176.3250  143.6200 C   0  0  0  0  0  3  0  0  0  0  0  0
  191.5930  175.8450  144.8960 C   0  0  1  0  0  3  0  0  0  0  0  0
  194.1190  174.1150  142.7850 N   0  0  0  0  0  0  0  0  0  0  0  0
  187.4700  176.4140  143.7830 C   0  0  0  0  0  0  0  0  0  0  0  0
  185.4740  176.8730  145.8840 N   0  0  0  0  0  2  0  0  0  0  0  0
  194.6620  175.3700  144.9560 C   0  0  0  0  0  0  0  0  0  0  0  0
  189.7810  175.7030  143.0990 C   0  0  1  0  0  3  0  0  0  0  0  0
  187.5180  178.3010  145.6500 C   0  0  2  0  0  3  0  0  0  0  0  0
  190.0860  175.7250  144.6010 C   0  0  2  0  0  3  0  0  0  0  0  0
  188.6250  174.5370  140.7580 C   0  0  0  0  0  3  0  0  0  0  0  0
  193.0300  175.3290  146.8880 C   0  0  0  0  0  3  0  0  0  0  0  0
  187.8160  175.1370  141.6380 C   0  0  0  0  0  3  0  0  0  0  0  0
  191.8330  175.4120  146.3080 C   0  0  0  0  0  3  0  0  0  0  0  0
  193.7120  174.8370  143.9460 C   0  0  0  0  0  0  0  0  0  0  0  0
  190.1120  174.4780  140.9720 C   0  0  0  0  0  2  0  0  0  0  0  0
  191.8570  174.5100  142.7260 N   0  0  0  0  0  0  0  0  0  0  0  0
  196.0160  175.6620  144.5900 N   0  0  0  0  0  2  0  0  0  0  0  0
  196.3520  176.3670  143.4790 O   0  0  0  0  0  0  0  0  0  0  0  0
  197.5640  173.5810  142.7630 O   0  0  0  0  0  0  0  0  0  0  0  0
  197.6930  175.6660  141.6580 C   0  0  0  0  0  2  0  0  0  0  0  0
  197.6310  175.9150  143.1380 C   0  0  2  0  0  3  0  0  0  0  0  0
  197.9140  174.1760  141.5440 C   0  0  0  0  0  2  0  0  0  0  0  0
  197.8590  174.5470  143.7370 C   0  0  0  0  0  2  0  0  0  0  0  0
  1 26  1  6  0  0  0
  1 27  1  0  0  0  0
  1 18  1  0  0  0  0
  2 27  1  0  0  0  0
  2 14  2  0  0  0  0
  3  6  1  0  0  0  0
  3  7  1  1  0  0  0
  4 15  1  0  0  0  0
  5 11  2  0  0  0  0
  6  7  1  1  0  0  0
  8 16  1  0  0  0  0
  9 25  2  0  0  0  0
  9 13  1  0  0  0  0
 10 22  1  0  0  0  0
 12 15  2  0  0  0  0
 12  8  1  0  0  0  0
 13 24  1  1  0  0  0
 14 25  1  0  0  0  0
 15  5  1  0  0  0  0
 16  3  1  0  0  0  0
 17 10  2  0  0  0  0
 18  4  1  1  0  0  0
 18 20  1  0  0  0  0
 19  5  1  6  0  0  0
 19  3  1  0  0  0  0
 19  6  1  0  0  0  0
 20 13  1  0  0  0  0
 20 11  1  1  0  0  0
 21 26  1  0  0  0  0
 21 23  2  0  0  0  0
 23  4  1  0  0  0  0
 24 22  2  0  0  0  0
 25 17  1  0  0  0  0
 27  9  1  0  0  0  0
 28 17  1  0  0  0  0
 29 28  1  0  0  0  0
 30 34  1  0  0  0  0
 31 32  1  0  0  0  0
 32 29  1  6  0  0  0
 32 34  1  0  0  0  0
 33 31  1  0  0  0  0
 33 30  1  0  0  0  0
M  END
>  <MODEL>
9

>  <REMARK>
 VINA RESULT:      -7.4      3.277      9.054
  Name = 
  3 active torsions:
  status: ('A' for Active; 'I' for Inactive)
    1  A    between atoms: C_17  and  N_28
    2  A    between atoms: N_28  and  O_29
    3  A    between atoms: O_29  and  C_32
                            x       y       z     vdW  Elec       q    Type
                         _______ _______ _______ _____ _____    ______ ____

>  <TORSDO>
F 3

$$$$
