=
 OpenBabel11112416153D

 30 35  0  0  1  0  0  0  0  0999 V2000
  187.2210  176.8710  143.5190 C   0  0  1  0  0  3  0  0  0  0  0  0
  185.0920  177.9140  144.4770 C   0  0  0  0  0  0  0  0  0  0  0  0
  188.7630  176.5800  147.3560 C   0  0  0  0  0  2  0  0  0  0  0  0
  188.3250  175.9360  144.0320 C   0  0  1  0  0  3  0  0  0  0  0  0
  186.4010  176.1660  142.6140 O   0  0  0  0  0  0  0  0  0  0  0  0
  188.9900  174.7800  140.6090 O   0  0  0  0  0  0  0  0  0  0  0  0
  191.4510  175.1680  143.5190 C   0  0  1  0  0  3  0  0  0  0  0  0
  188.4230  175.3310  141.5910 C   0  0  0  0  0  0  0  0  0  0  0  0
  191.5320  175.5590  144.9840 C   0  0  2  0  0  3  0  0  0  0  0  0
  189.9250  175.7640  146.9670 C   0  0  0  0  0  0  0  0  0  0  0  0
  187.1020  176.0160  141.3940 C   0  0  2  0  0  3  0  0  0  0  0  0
  189.0360  175.3170  142.8940 N   0  0  0  0  0  0  0  0  0  0  0  0
  184.4110  178.5390  145.5250 C   0  0  0  0  0  3  0  0  0  0  0  0
  192.2670  174.4000  145.6210 C   0  0  0  0  0  2  0  0  0  0  0  0
  192.6620  174.2800  143.3090 C   0  0  0  0  0  2  0  0  0  0  0  0
  184.4290  177.7470  143.2670 O   0  0  0  0  0  1  0  0  0  0  0  0
  188.5330  177.4240  146.1050 C   0  0  1  0  0  3  0  0  0  0  0  0
  185.0480  178.7730  146.7400 C   0  0  0  0  0  3  0  0  0  0  0  0
  186.4270  177.4790  144.6540 C   0  0  0  0  0  0  0  0  0  0  0  0
  189.2760  176.7240  144.9380 C   0  0  1  0  0  3  0  0  0  0  0  0
  190.5930  175.0870  147.7940 O   0  0  0  0  0  0  0  0  0  0  0  0
  190.2150  175.8120  145.5760 N   0  0  0  0  0  0  0  0  0  0  0  0
  193.1510  173.8320  144.6110 N   0  0  0  0  0  2  0  0  0  0  0  0
  189.7990  173.2190  143.9650 C   0  0  0  0  0  1  0  0  0  0  0  0
  186.3770  178.3910  146.9110 C   0  0  0  0  0  3  0  0  0  0  0  0
  187.0760  177.7470  145.8820 C   0  0  0  0  0  0  0  0  0  0  0  0
  190.1740  174.4170  143.0970 C   0  0  2  0  0  3  0  0  0  0  0  0
  187.2610  177.3370  140.6430 C   0  0  0  0  0  2  0  0  0  0  0  0
  185.3040  178.6390  140.3700 F   0  0  0  0  0  0  0  0  0  0  0  0
  186.0310  177.6110  139.8010 C   0  0  0  0  0  2  0  0  0  0  0  0
  1  5  1  6  0  0  0
  1  4  1  0  0  0  0
  1 19  1  0  0  0  0
  2 19  2  0  0  0  0
  2 13  1  0  0  0  0
  4 12  1  6  0  0  0
  4 20  1  0  0  0  0
  6  8  2  0  0  0  0
  7 15  1  1  0  0  0
  7  9  1  0  0  0  0
  8 12  1  0  0  0  0
  9 22  1  0  0  0  0
  9 14  1  1  0  0  0
 10  3  1  0  0  0  0
 10 21  2  0  0  0  0
 11 28  1  1  0  0  0
 11  8  1  0  0  0  0
 11  5  1  0  0  0  0
 12 27  1  0  0  0  0
 13 18  2  0  0  0  0
 15 23  1  0  0  0  0
 16  2  1  0  0  0  0
 17  3  1  1  0  0  0
 18 25  1  0  0  0  0
 19 26  1  0  0  0  0
 20 22  1  1  0  0  0
 20 17  1  0  0  0  0
 22 10  1  0  0  0  0
 23 14  1  0  0  0  0
 26 17  1  0  0  0  0
 26 25  2  0  0  0  0
 27  7  1  0  0  0  0
 27 24  1  1  0  0  0
 30 29  1  0  0  0  0
 30 28  1  0  0  0  0
M  END
>  <MODEL>
1

>  <REMARK>
 VINA RESULT:      -8.4      0.000      0.000
  Name = 
  2 active torsions:
  status: ('A' for Active; 'I' for Inactive)
    1  A    between atoms: C_11  and  C_28
    2  A    between atoms: C_28  and  C_30
                            x       y       z     vdW  Elec       q    Type
                         _______ _______ _______ _____ _____    ______ ____

>  <TORSDO>
F 2

$$$$
=
 OpenBabel11112416153D

 30 35  0  0  1  0  0  0  0  0999 V2000
  189.2600  175.5420  143.8830 C   0  0  1  0  0  3  0  0  0  0  0  0
  191.3760  174.9310  145.1830 C   0  0  0  0  0  0  0  0  0  0  0  0
  187.8390  177.5600  147.2130 C   0  0  0  0  0  2  0  0  0  0  0  0
  188.2060  176.6570  143.9410 C   0  0  1  0  0  3  0  0  0  0  0  0
  190.0800  175.7400  142.7520 O   0  0  0  0  0  0  0  0  0  0  0  0
  187.4880  176.2190  140.3650 O   0  0  0  0  0  0  0  0  0  0  0  0
  185.0970  177.2610  143.1720 C   0  0  1  0  0  3  0  0  0  0  0  0
  188.0610  176.1310  141.4850 C   0  0  0  0  0  0  0  0  0  0  0  0
  185.0440  177.5580  144.6600 C   0  0  2  0  0  3  0  0  0  0  0  0
  186.6980  178.1740  146.5160 C   0  0  0  0  0  0  0  0  0  0  0  0
  189.3510  175.3700  141.5970 C   0  0  2  0  0  3  0  0  0  0  0  0
  187.4870  176.7430  142.6540 N   0  0  0  0  0  0  0  0  0  0  0  0
  192.0630  174.8000  146.3910 C   0  0  0  0  0  3  0  0  0  0  0  0
  184.3690  178.9110  144.7280 C   0  0  0  0  0  2  0  0  0  0  0  0
  183.9140  178.0210  142.6030 C   0  0  0  0  0  2  0  0  0  0  0  0
  192.0100  174.5190  144.0170 O   0  0  0  0  0  1  0  0  0  0  0  0
  188.0020  176.2420  146.4600 C   0  0  1  0  0  3  0  0  0  0  0  0
  191.4520  175.1530  147.5910 C   0  0  0  0  0  3  0  0  0  0  0  0
  190.0630  175.4600  145.1620 C   0  0  0  0  0  0  0  0  0  0  0  0
  187.2530  176.3910  145.1110 C   0  0  1  0  0  3  0  0  0  0  0  0
  186.0790  179.1750  146.9660 O   0  0  0  0  0  0  0  0  0  0  0  0
  186.3670  177.5320  145.2900 N   0  0  0  0  0  0  0  0  0  0  0  0
  183.4790  179.0170  143.5790 N   0  0  0  0  0  2  0  0  0  0  0  0
  186.8320  179.1310  142.6990 C   0  0  0  0  0  1  0  0  0  0  0  0
  190.1440  175.6320  147.5900 C   0  0  0  0  0  3  0  0  0  0  0  0
  189.4400  175.7880  146.3880 C   0  0  0  0  0  0  0  0  0  0  0  0
  186.3890  177.6920  142.4500 C   0  0  2  0  0  3  0  0  0  0  0  0
  189.1220  173.8620  141.5060 C   0  0  0  0  0  2  0  0  0  0  0  0
  190.0990  172.1370  140.2130 F   0  0  0  0  0  0  0  0  0  0  0  0
  190.4000  173.1630  141.0880 C   0  0  0  0  0  2  0  0  0  0  0  0
  1  5  1  6  0  0  0
  1  4  1  0  0  0  0
  1 19  1  0  0  0  0
  2 13  1  0  0  0  0
  4 12  1  6  0  0  0
  4 20  1  0  0  0  0
  6  8  2  0  0  0  0
  7 15  1  6  0  0  0
  7  9  1  0  0  0  0
  8 11  1  0  0  0  0
  8 12  1  0  0  0  0
  9 14  1  6  0  0  0
  9 22  1  0  0  0  0
 10 21  2  0  0  0  0
 10  3  1  0  0  0  0
 11 28  1  1  0  0  0
 11  5  1  0  0  0  0
 13 18  2  0  0  0  0
 15 23  1  0  0  0  0
 16  2  1  0  0  0  0
 17  3  1  6  0  0  0
 19  2  2  0  0  0  0
 19 26  1  0  0  0  0
 20 22  1  1  0  0  0
 20 17  1  0  0  0  0
 22 10  1  0  0  0  0
 23 14  1  0  0  0  0
 25 18  1  0  0  0  0
 26 17  1  0  0  0  0
 26 25  2  0  0  0  0
 27 12  1  0  0  0  0
 27 24  1  1  0  0  0
 27  7  1  0  0  0  0
 29 30  1  0  0  0  0
 30 28  1  0  0  0  0
M  END
>  <MODEL>
2

>  <REMARK>
 VINA RESULT:      -7.8      2.714      5.746
  Name = 
  2 active torsions:
  status: ('A' for Active; 'I' for Inactive)
    1  A    between atoms: C_11  and  C_28
    2  A    between atoms: C_28  and  C_30
                            x       y       z     vdW  Elec       q    Type
                         _______ _______ _______ _____ _____    ______ ____

>  <TORSDO>
F 2

$$$$
=
 OpenBabel11112416153D

 30 35  0  0  1  0  0  0  0  0999 V2000
  189.8490  175.0760  143.9740 C   0  0  1  0  0  3  0  0  0  0  0  0
  192.3190  174.4620  143.7300 C   0  0  0  0  0  0  0  0  0  0  0  0
  190.7250  177.0570  147.5080 C   0  0  0  0  0  2  0  0  0  0  0  0
  189.0450  176.1850  144.6660 C   0  0  1  0  0  3  0  0  0  0  0  0
  189.8220  175.2880  142.5800 O   0  0  0  0  0  0  0  0  0  0  0  0
  186.3160  175.7770  142.2410 O   0  0  0  0  0  0  0  0  0  0  0  0
  186.1010  176.7830  145.9310 C   0  0  1  0  0  3  0  0  0  0  0  0
  187.4490  175.6820  142.7880 C   0  0  0  0  0  0  0  0  0  0  0  0
  186.9560  177.0660  147.1540 C   0  0  2  0  0  3  0  0  0  0  0  0
  189.3950  177.6720  147.6450 C   0  0  0  0  0  0  0  0  0  0  0  0
  188.5440  174.9250  142.0930 C   0  0  2  0  0  3  0  0  0  0  0  0
  187.6950  176.2810  144.0730 N   0  0  0  0  0  0  0  0  0  0  0  0
  193.5960  174.3230  144.2800 C   0  0  0  0  0  3  0  0  0  0  0  0
  186.4610  178.4160  147.6290 C   0  0  0  0  0  2  0  0  0  0  0  0
  184.8160  177.5430  146.1970 C   0  0  0  0  0  2  0  0  0  0  0  0
  192.1220  174.0630  142.4140 O   0  0  0  0  0  1  0  0  0  0  0  0
  190.3990  175.7470  146.7950 C   0  0  1  0  0  3  0  0  0  0  0  0
  193.8320  174.6630  145.6090 C   0  0  0  0  0  3  0  0  0  0  0  0
  191.2600  174.9850  144.5100 C   0  0  0  0  0  0  0  0  0  0  0  0
  188.9890  175.9040  146.1720 C   0  0  1  0  0  3  0  0  0  0  0  0
  189.1740  178.6660  148.3870 O   0  0  0  0  0  0  0  0  0  0  0  0
  188.3910  177.0400  146.8600 N   0  0  0  0  0  0  0  0  0  0  0  0
  185.0590  178.5280  147.2490 N   0  0  0  0  0  2  0  0  0  0  0  0
  187.2050  178.6650  144.5280 C   0  0  0  0  0  1  0  0  0  0  0  0
  192.7880  175.1350  146.4010 C   0  0  0  0  0  3  0  0  0  0  0  0
  191.5020  175.3000  145.8670 C   0  0  0  0  0  0  0  0  0  0  0  0
  186.6980  177.2260  144.5820 C   0  0  2  0  0  3  0  0  0  0  0  0
  188.3030  173.4170  142.1430 C   0  0  0  0  0  2  0  0  0  0  0  0
  188.2880  173.7470  139.8000 F   0  0  0  0  0  0  0  0  0  0  0  0
  188.5400  172.8040  140.7770 C   0  0  0  0  0  2  0  0  0  0  0  0
  1  5  1  6  0  0  0
  1 19  1  0  0  0  0
  1  4  1  0  0  0  0
  2 13  2  0  0  0  0
  2 19  1  0  0  0  0
  3 10  1  0  0  0  0
  4 12  1  6  0  0  0
  4 20  1  0  0  0  0
  6  8  2  0  0  0  0
  7 15  1  1  0  0  0
  7  9  1  0  0  0  0
  8 12  1  0  0  0  0
  9 14  1  6  0  0  0
 10 21  2  0  0  0  0
 11 28  1  1  0  0  0
 11  5  1  0  0  0  0
 11  8  1  0  0  0  0
 12 27  1  0  0  0  0
 13 18  1  0  0  0  0
 15 23  1  0  0  0  0
 16  2  1  0  0  0  0
 17  3  1  6  0  0  0
 18 25  2  0  0  0  0
 19 26  2  0  0  0  0
 20 17  1  0  0  0  0
 20 22  1  1  0  0  0
 22  9  1  0  0  0  0
 22 10  1  0  0  0  0
 23 14  1  0  0  0  0
 26 25  1  0  0  0  0
 26 17  1  0  0  0  0
 27 24  1  1  0  0  0
 27  7  1  0  0  0  0
 29 30  1  0  0  0  0
 30 28  1  0  0  0  0
M  END
>  <MODEL>
3

>  <REMARK>
 VINA RESULT:      -7.3      2.294      5.667
  Name = 
  2 active torsions:
  status: ('A' for Active; 'I' for Inactive)
    1  A    between atoms: C_11  and  C_28
    2  A    between atoms: C_28  and  C_30
                            x       y       z     vdW  Elec       q    Type
                         _______ _______ _______ _____ _____    ______ ____

>  <TORSDO>
F 2

$$$$
=
 OpenBabel11112416153D

 30 35  0  0  1  0  0  0  0  0999 V2000
  186.8270  177.3620  143.9740 C   0  0  1  0  0  3  0  0  0  0  0  0
  185.7500  178.0100  141.7460 C   0  0  0  0  0  0  0  0  0  0  0  0
  189.9560  175.5950  141.9080 C   0  0  0  0  0  2  0  0  0  0  0  0
  188.2470  177.0630  144.4730 C   0  0  1  0  0  3  0  0  0  0  0  0
  186.4160  178.6160  144.4720 O   0  0  0  0  0  0  0  0  0  0  0  0
  187.3090  178.0890  147.8740 O   0  0  0  0  0  0  0  0  0  0  0  0
  189.8330  175.4150  146.7960 C   0  0  1  0  0  3  0  0  0  0  0  0
  187.2650  177.9240  146.6240 C   0  0  0  0  0  0  0  0  0  0  0  0
  190.4640  174.7800  145.5700 C   0  0  2  0  0  3  0  0  0  0  0  0
  190.7900  175.3740  143.1000 C   0  0  0  0  0  0  0  0  0  0  0  0
  186.1060  178.4750  145.8450 C   0  0  2  0  0  3  0  0  0  0  0  0
  188.3080  177.2030  145.9420 N   0  0  0  0  0  0  0  0  0  0  0  0
  185.6440  177.8650  140.3610 C   0  0  0  0  0  3  0  0  0  0  0  0
  191.9490  174.8660  145.8490 C   0  0  0  0  0  2  0  0  0  0  0  0
  190.8420  175.1670  147.9000 C   0  0  0  0  0  2  0  0  0  0  0  0
  184.8620  178.8650  142.3880 O   0  0  0  0  0  1  0  0  0  0  0  0
  188.5450  175.4840  142.4800 C   0  0  1  0  0  3  0  0  0  0  0  0
  186.4780  176.9830  139.6790 C   0  0  0  0  0  3  0  0  0  0  0  0
  186.7340  177.2900  142.4660 C   0  0  0  0  0  0  0  0  0  0  0  0
  188.6590  175.6600  144.0150 C   0  0  1  0  0  3  0  0  0  0  0  0
  192.0280  175.1520  143.0370 O   0  0  0  0  0  0  0  0  0  0  0  0
  190.0650  175.4380  144.3220 N   0  0  0  0  0  0  0  0  0  0  0  0
  192.1270  174.8200  147.2950 N   0  0  0  0  0  2  0  0  0  0  0  0
  190.7000  177.7890  146.2090 C   0  0  0  0  0  1  0  0  0  0  0  0
  187.4200  176.2340  140.3810 C   0  0  0  0  0  3  0  0  0  0  0  0
  187.5570  176.3760  141.7680 C   0  0  0  0  0  0  0  0  0  0  0  0
  189.5380  176.9240  146.6890 C   0  0  2  0  0  3  0  0  0  0  0  0
  184.8350  177.6600  146.0790 C   0  0  0  0  0  2  0  0  0  0  0  0
  183.2950  179.1110  145.0180 F   0  0  0  0  0  0  0  0  0  0  0  0
  183.6450  178.5830  146.2460 C   0  0  0  0  0  2  0  0  0  0  0  0
  1 19  1  6  0  0  0
  1  5  1  0  0  0  0
  1  4  1  0  0  0  0
  2 16  1  0  0  0  0
  2 19  1  0  0  0  0
  3 10  1  0  0  0  0
  4 12  1  1  0  0  0
  5 11  1  0  0  0  0
  7 15  1  1  0  0  0
  8  6  2  0  0  0  0
  9 14  1  1  0  0  0
  9  7  1  0  0  0  0
 10 22  1  0  0  0  0
 11 28  1  6  0  0  0
 11  8  1  0  0  0  0
 12  8  1  0  0  0  0
 12 27  1  0  0  0  0
 13  2  2  0  0  0  0
 14 23  1  0  0  0  0
 17  3  1  6  0  0  0
 17 20  1  0  0  0  0
 18 13  1  0  0  0  0
 18 25  2  0  0  0  0
 20 22  1  6  0  0  0
 20  4  1  0  0  0  0
 21 10  2  0  0  0  0
 22  9  1  0  0  0  0
 23 15  1  0  0  0  0
 25 26  1  0  0  0  0
 26 19  2  0  0  0  0
 26 17  1  0  0  0  0
 27 24  1  6  0  0  0
 27  7  1  0  0  0  0
 28 30  1  0  0  0  0
 29 30  1  0  0  0  0
M  END
>  <MODEL>
4

>  <REMARK>
 VINA RESULT:      -7.3      1.972      4.538
  Name = 
  2 active torsions:
  status: ('A' for Active; 'I' for Inactive)
    1  A    between atoms: C_11  and  C_28
    2  A    between atoms: C_28  and  C_30
                            x       y       z     vdW  Elec       q    Type
                         _______ _______ _______ _____ _____    ______ ____

>  <TORSDO>
F 2

$$$$
=
 OpenBabel11112416153D

 30 35  0  0  1  0  0  0  0  0999 V2000
  187.3600  176.3580  141.6540 C   0  0  1  0  0  3  0  0  0  0  0  0
  187.0690  176.0950  139.1270 C   0  0  0  0  0  0  0  0  0  0  0  0
  190.6620  173.8570  141.4990 C   0  0  0  0  0  2  0  0  0  0  0  0
  188.5200  176.2510  142.6530 C   0  0  1  0  0  3  0  0  0  0  0  0
  187.0070  177.7140  141.4970 O   0  0  0  0  0  0  0  0  0  0  0  0
  186.8070  178.5550  144.9460 O   0  0  0  0  0  0  0  0  0  0  0  0
  189.1230  175.6230  145.7950 C   0  0  1  0  0  3  0  0  0  0  0  0
  187.0980  177.9100  143.9020 C   0  0  0  0  0  0  0  0  0  0  0  0
  189.9800  174.5430  145.1590 C   0  0  2  0  0  3  0  0  0  0  0  0
  191.0800  174.1070  142.8870 C   0  0  0  0  0  0  0  0  0  0  0  0
  186.3010  178.1320  142.6490 C   0  0  2  0  0  3  0  0  0  0  0  0
  188.1780  176.9590  143.9050 N   0  0  0  0  0  0  0  0  0  0  0  0
  187.3430  175.4180  137.9370 C   0  0  0  0  0  3  0  0  0  0  0  0
  191.3200  174.7020  145.8450 C   0  0  0  0  0  2  0  0  0  0  0  0
  189.7290  175.8100  147.1720 C   0  0  0  0  0  2  0  0  0  0  0  0
  186.1660  177.1520  139.0900 O   0  0  0  0  0  1  0  0  0  0  0  0
  189.1450  174.0080  141.5890 C   0  0  1  0  0  3  0  0  0  0  0  0
  188.2020  174.3220  137.9310 C   0  0  0  0  0  3  0  0  0  0  0  0
  187.6920  175.6980  140.3340 C   0  0  0  0  0  0  0  0  0  0  0  0
  188.8400  174.7740  142.9020 C   0  0  1  0  0  3  0  0  0  0  0  0
  192.2390  173.8540  143.3090 O   0  0  0  0  0  0  0  0  0  0  0  0
  190.0520  174.6630  143.7000 N   0  0  0  0  0  0  0  0  0  0  0  0
  191.0690  175.2270  147.1810 N   0  0  0  0  0  2  0  0  0  0  0  0
  190.4520  177.5540  144.6840 C   0  0  0  0  0  1  0  0  0  0  0  0
  188.7860  173.8920  139.1210 C   0  0  0  0  0  3  0  0  0  0  0  0
  188.5400  174.5670  140.3240 C   0  0  0  0  0  0  0  0  0  0  0  0
  189.0900  176.9720  145.0520 C   0  0  2  0  0  3  0  0  0  0  0  0
  184.9130  177.5010  142.7480 C   0  0  0  0  0  2  0  0  0  0  0  0
  183.7520  178.8200  144.3340 F   0  0  0  0  0  0  0  0  0  0  0  0
  183.8670  178.5730  142.9790 C   0  0  0  0  0  2  0  0  0  0  0  0
  1 19  1  6  0  0  0
  1  4  1  0  0  0  0
  2 19  1  0  0  0  0
  3 10  1  0  0  0  0
  4 20  1  0  0  0  0
  4 12  1  1  0  0  0
  5  1  1  0  0  0  0
  5 11  1  0  0  0  0
  7 15  1  1  0  0  0
  8 12  1  0  0  0  0
  8  6  2  0  0  0  0
  9  7  1  0  0  0  0
  9 14  1  1  0  0  0
 10 21  2  0  0  0  0
 10 22  1  0  0  0  0
 11 28  1  1  0  0  0
 11  8  1  0  0  0  0
 12 27  1  0  0  0  0
 13  2  2  0  0  0  0
 14 23  1  0  0  0  0
 15 23  1  0  0  0  0
 16  2  1  0  0  0  0
 17  3  1  6  0  0  0
 17 20  1  0  0  0  0
 18 13  1  0  0  0  0
 18 25  2  0  0  0  0
 20 22  1  1  0  0  0
 22  9  1  0  0  0  0
 25 26  1  0  0  0  0
 26 19  2  0  0  0  0
 26 17  1  0  0  0  0
 27 24  1  6  0  0  0
 27  7  1  0  0  0  0
 28 30  1  0  0  0  0
 30 29  1  0  0  0  0
M  END
>  <MODEL>
5

>  <REMARK>
 VINA RESULT:      -7.2      2.233      4.936
  Name = 
  2 active torsions:
  status: ('A' for Active; 'I' for Inactive)
    1  A    between atoms: C_11  and  C_28
    2  A    between atoms: C_28  and  C_30
                            x       y       z     vdW  Elec       q    Type
                         _______ _______ _______ _____ _____    ______ ____

>  <TORSDO>
F 2

$$$$
=
 OpenBabel11112416153D

 30 35  0  0  1  0  0  0  0  0999 V2000
  187.6580  176.6100  144.3980 C   0  0  1  0  0  3  0  0  0  0  0  0
  186.1870  178.4780  143.4540 C   0  0  0  0  0  0  0  0  0  0  0  0
  188.3330  175.2410  140.5440 C   0  0  0  0  0  2  0  0  0  0  0  0
  188.8190  175.7470  143.8850 C   0  0  1  0  0  3  0  0  0  0  0  0
  188.1530  177.5480  145.3270 O   0  0  0  0  0  0  0  0  0  0  0  0
  190.0440  175.2870  147.3180 O   0  0  0  0  0  0  0  0  0  0  0  0
  190.2440  172.8550  144.3650 C   0  0  1  0  0  3  0  0  0  0  0  0
  189.3960  175.7380  146.3340 C   0  0  0  0  0  0  0  0  0  0  0  0
  189.9010  172.7190  142.8920 C   0  0  2  0  0  3  0  0  0  0  0  0
  189.3780  174.2790  140.9290 C   0  0  0  0  0  0  0  0  0  0  0  0
  188.4360  176.8740  146.5390 C   0  0  2  0  0  3  0  0  0  0  0  0
  189.5620  175.1680  145.0230 N   0  0  0  0  0  0  0  0  0  0  0  0
  185.4440  179.0260  142.4060 C   0  0  0  0  0  3  0  0  0  0  0  0
  191.2020  172.2660  142.2640 C   0  0  0  0  0  2  0  0  0  0  0  0
  191.3730  171.8640  144.5720 C   0  0  0  0  0  2  0  0  0  0  0  0
  186.1880  179.1390  144.6760 O   0  0  0  0  0  1  0  0  0  0  0  0
  187.4410  175.2580  141.7830 C   0  0  1  0  0  3  0  0  0  0  0  0
  185.3720  178.3750  141.1770 C   0  0  0  0  0  3  0  0  0  0  0  0
  186.9070  177.2730  143.2640 C   0  0  0  0  0  0  0  0  0  0  0  0
  188.2700  174.6640  142.9500 C   0  0  1  0  0  3  0  0  0  0  0  0
  190.1960  173.7910  140.1050 O   0  0  0  0  0  0  0  0  0  0  0  0
  189.3750  173.9600  142.3160 N   0  0  0  0  0  0  0  0  0  0  0  0
  191.9350  171.5090  143.2700 N   0  0  0  0  0  2  0  0  0  0  0  0
  191.7910  174.9020  143.9780 C   0  0  0  0  0  1  0  0  0  0  0  0
  186.0380  177.1660  140.9920 C   0  0  0  0  0  3  0  0  0  0  0  0
  186.8040  176.6050  142.0230 C   0  0  0  0  0  0  0  0  0  0  0  0
  190.6920  174.2580  144.8190 C   0  0  2  0  0  3  0  0  0  0  0  0
  187.1720  176.4160  147.2640 C   0  0  0  0  0  2  0  0  0  0  0  0
  185.0820  177.5030  147.0340 F   0  0  0  0  0  0  0  0  0  0  0  0
  186.3200  177.6130  147.6380 C   0  0  0  0  0  2  0  0  0  0  0  0
  1 19  1  6  0  0  0
  1  5  1  0  0  0  0
  2 16  1  0  0  0  0
  3 10  1  0  0  0  0
  4  1  1  0  0  0  0
  4 12  1  1  0  0  0
  5 11  1  0  0  0  0
  7 15  1  6  0  0  0
  7 27  1  0  0  0  0
  8 11  1  0  0  0  0
  8  6  2  0  0  0  0
  9 14  1  6  0  0  0
  9  7  1  0  0  0  0
 10 22  1  0  0  0  0
 11 28  1  6  0  0  0
 12  8  1  0  0  0  0
 13  2  2  0  0  0  0
 14 23  1  0  0  0  0
 17  3  1  6  0  0  0
 17 26  1  0  0  0  0
 17 20  1  0  0  0  0
 18 13  1  0  0  0  0
 19  2  1  0  0  0  0
 20 22  1  6  0  0  0
 20  4  1  0  0  0  0
 21 10  2  0  0  0  0
 22  9  1  0  0  0  0
 23 15  1  0  0  0  0
 25 18  2  0  0  0  0
 25 26  1  0  0  0  0
 26 19  2  0  0  0  0
 27 24  1  6  0  0  0
 27 12  1  0  0  0  0
 28 30  1  0  0  0  0
 29 30  1  0  0  0  0
M  END
>  <MODEL>
6

>  <REMARK>
 VINA RESULT:      -7.1      2.020      4.621
  Name = 
  2 active torsions:
  status: ('A' for Active; 'I' for Inactive)
    1  A    between atoms: C_11  and  C_28
    2  A    between atoms: C_28  and  C_30
                            x       y       z     vdW  Elec       q    Type
                         _______ _______ _______ _____ _____    ______ ____

>  <TORSDO>
F 2

$$$$
=
 OpenBabel11112416153D

 30 35  0  0  1  0  0  0  0  0999 V2000
  189.9560  175.9500  144.4270 C   0  0  1  0  0  3  0  0  0  0  0  0
  191.3830  176.4280  146.4950 C   0  0  0  0  0  0  0  0  0  0  0  0
  192.9600  173.4960  142.9640 C   0  0  0  0  0  2  0  0  0  0  0  0
  189.8420  174.8180  143.3960 C   0  0  1  0  0  3  0  0  0  0  0  0
  188.8340  175.9140  145.2800 O   0  0  0  0  0  0  0  0  0  0  0  0
  186.3320  175.6980  142.7610 O   0  0  0  0  0  0  0  0  0  0  0  0
  188.9130  174.2610  140.3220 C   0  0  1  0  0  3  0  0  0  0  0  0
  187.4690  175.6520  143.3040 C   0  0  0  0  0  0  0  0  0  0  0  0
  190.3490  173.7740  140.2370 C   0  0  2  0  0  3  0  0  0  0  0  0
  192.1570  172.9560  141.8550 C   0  0  0  0  0  0  0  0  0  0  0  0
  187.7150  176.4160  144.5730 C   0  0  2  0  0  3  0  0  0  0  0  0
  188.5340  174.8840  142.7120 N   0  0  0  0  0  0  0  0  0  0  0  0
  192.6180  176.4150  147.1470 C   0  0  0  0  0  3  0  0  0  0  0  0
  190.2250  172.4110  139.5900 C   0  0  0  0  0  2  0  0  0  0  0  0
  188.2180  173.5590  139.1710 C   0  0  0  0  0  2  0  0  0  0  0  0
  190.2980  176.9980  147.1500 O   0  0  0  0  0  1  0  0  0  0  0  0
  192.3860  174.9020  143.1180 C   0  0  1  0  0  3  0  0  0  0  0  0
  193.7450  175.9000  146.5130 C   0  0  0  0  0  3  0  0  0  0  0  0
  191.2580  175.8820  145.1940 C   0  0  0  0  0  0  0  0  0  0  0  0
  191.0090  174.9140  142.4080 C   0  0  1  0  0  3  0  0  0  0  0  0
  192.4580  171.8950  141.2460 O   0  0  0  0  0  0  0  0  0  0  0  0
  191.0150  173.7440  141.5420 N   0  0  0  0  0  0  0  0  0  0  0  0
  189.0470  172.4380  138.7320 N   0  0  0  0  0  2  0  0  0  0  0  0
  188.2550  172.4990  142.1090 C   0  0  0  0  0  1  0  0  0  0  0  0
  193.6450  175.4020  145.2160 C   0  0  0  0  0  3  0  0  0  0  0  0
  192.4140  175.3880  144.5470 C   0  0  0  0  0  0  0  0  0  0  0  0
  188.1800  173.9500  141.6410 C   0  0  2  0  0  3  0  0  0  0  0  0
  187.8110  177.9180  144.3140 C   0  0  0  0  0  2  0  0  0  0  0  0
  186.0450  179.2480  143.4670 F   0  0  0  0  0  0  0  0  0  0  0  0
  186.4790  178.5840  144.5990 C   0  0  0  0  0  2  0  0  0  0  0  0
  1 19  1  1  0  0  0
  1  5  1  0  0  0  0
  2 13  1  0  0  0  0
  2 16  1  0  0  0  0
  4 12  1  6  0  0  0
  4  1  1  0  0  0  0
  6  8  2  0  0  0  0
  7 15  1  6  0  0  0
  7 27  1  0  0  0  0
  8 11  1  0  0  0  0
  9 14  1  1  0  0  0
  9  7  1  0  0  0  0
  9 22  1  0  0  0  0
 10  3  1  0  0  0  0
 11 28  1  6  0  0  0
 11  5  1  0  0  0  0
 12  8  1  0  0  0  0
 17  3  1  1  0  0  0
 17 26  1  0  0  0  0
 18 13  2  0  0  0  0
 19  2  2  0  0  0  0
 20 22  1  6  0  0  0
 20 17  1  0  0  0  0
 20  4  1  0  0  0  0
 21 10  2  0  0  0  0
 22 10  1  0  0  0  0
 23 15  1  0  0  0  0
 23 14  1  0  0  0  0
 25 18  1  0  0  0  0
 26 19  1  0  0  0  0
 26 25  2  0  0  0  0
 27 24  1  1  0  0  0
 27 12  1  0  0  0  0
 28 30  1  0  0  0  0
 29 30  1  0  0  0  0
M  END
>  <MODEL>
7

>  <REMARK>
 VINA RESULT:      -7.1      2.288      5.422
  Name = 
  2 active torsions:
  status: ('A' for Active; 'I' for Inactive)
    1  A    between atoms: C_11  and  C_28
    2  A    between atoms: C_28  and  C_30
                            x       y       z     vdW  Elec       q    Type
                         _______ _______ _______ _____ _____    ______ ____

>  <TORSDO>
F 2

$$$$
=
 OpenBabel11112416153D

 30 35  0  0  1  0  0  0  0  0999 V2000
  189.5600  176.0620  143.7230 C   0  0  1  0  0  3  0  0  0  0  0  0
  189.0960  177.1850  145.9740 C   0  0  0  0  0  0  0  0  0  0  0  0
  192.7440  174.0320  145.4320 C   0  0  0  0  0  2  0  0  0  0  0  0
  190.2230  174.7620  143.2490 C   0  0  1  0  0  3  0  0  0  0  0  0
  188.1640  175.9600  143.5510 O   0  0  0  0  0  0  0  0  0  0  0  0
  188.1860  174.7930  140.1910 O   0  0  0  0  0  0  0  0  0  0  0  0
  191.7520  173.4790  140.6720 C   0  0  1  0  0  3  0  0  0  0  0  0
  188.6040  175.0750  141.3470 C   0  0  0  0  0  0  0  0  0  0  0  0
  192.8310  173.2820  141.7220 C   0  0  2  0  0  3  0  0  0  0  0  0
  192.9700  173.1490  144.2760 C   0  0  0  0  0  0  0  0  0  0  0  0
  187.8700  176.0910  142.1730 C   0  0  2  0  0  3  0  0  0  0  0  0
  189.7840  174.4400  141.8750 N   0  0  0  0  0  0  0  0  0  0  0  0
  189.5040  177.5370  147.2620 C   0  0  0  0  0  3  0  0  0  0  0  0
  193.2180  171.8270  141.5650 C   0  0  0  0  0  2  0  0  0  0  0  0
  192.0860  172.4550  139.6050 C   0  0  0  0  0  2  0  0  0  0  0  0
  187.8590  177.6370  145.5290 O   0  0  0  0  0  1  0  0  0  0  0  0
  192.2130  175.3000  144.7670 C   0  0  1  0  0  3  0  0  0  0  0  0
  190.7550  177.1510  147.7360 C   0  0  0  0  0  3  0  0  0  0  0  0
  189.9350  176.3970  145.1500 C   0  0  0  0  0  0  0  0  0  0  0  0
  191.7450  174.9070  143.3430 C   0  0  1  0  0  3  0  0  0  0  0  0
  193.6260  172.0770  144.3520 O   0  0  0  0  0  0  0  0  0  0  0  0
  192.3770  173.6230  143.0730 N   0  0  0  0  0  0  0  0  0  0  0  0
  192.9950  171.4600  140.1720 N   0  0  0  0  0  2  0  0  0  0  0  0
  190.0430  171.9770  141.9180 C   0  0  0  0  0  1  0  0  0  0  0  0
  191.6090  176.4150  146.9180 C   0  0  0  0  0  3  0  0  0  0  0  0
  191.2150  176.0340  145.6280 C   0  0  0  0  0  0  0  0  0  0  0  0
  190.3040  173.2740  141.1560 C   0  0  2  0  0  3  0  0  0  0  0  0
  188.1030  177.5090  141.6550 C   0  0  0  0  0  2  0  0  0  0  0  0
  186.6920  178.9790  142.8600 F   0  0  0  0  0  0  0  0  0  0  0  0
  186.8040  178.2910  141.6670 C   0  0  0  0  0  2  0  0  0  0  0  0
  1  5  1  1  0  0  0
  1 19  1  0  0  0  0
  2 13  1  0  0  0  0
  4 12  1  6  0  0  0
  4 20  1  0  0  0  0
  4  1  1  0  0  0  0
  6  8  2  0  0  0  0
  7 15  1  6  0  0  0
  7 27  1  0  0  0  0
  7  9  1  0  0  0  0
  8 12  1  0  0  0  0
  8 11  1  0  0  0  0
  9 14  1  1  0  0  0
  9 22  1  0  0  0  0
 10 21  2  0  0  0  0
 10  3  1  0  0  0  0
 11 28  1  6  0  0  0
 11  5  1  0  0  0  0
 13 18  2  0  0  0  0
 15 23  1  0  0  0  0
 16  2  1  0  0  0  0
 17  3  1  1  0  0  0
 17 26  1  0  0  0  0
 19 26  1  0  0  0  0
 19  2  2  0  0  0  0
 20 22  1  1  0  0  0
 20 17  1  0  0  0  0
 22 10  1  0  0  0  0
 23 14  1  0  0  0  0
 25 18  1  0  0  0  0
 26 25  2  0  0  0  0
 27 12  1  0  0  0  0
 27 24  1  1  0  0  0
 28 30  1  0  0  0  0
 30 29  1  0  0  0  0
M  END
>  <MODEL>
8

>  <REMARK>
 VINA RESULT:      -6.7      2.365      3.808
  Name = 
  2 active torsions:
  status: ('A' for Active; 'I' for Inactive)
    1  A    between atoms: C_11  and  C_28
    2  A    between atoms: C_28  and  C_30
                            x       y       z     vdW  Elec       q    Type
                         _______ _______ _______ _____ _____    ______ ____

>  <TORSDO>
F 2

$$$$
=
 OpenBabel11112416153D

 30 35  0  0  1  0  0  0  0  0999 V2000
  189.9660  175.7490  144.4130 C   0  0  1  0  0  3  0  0  0  0  0  0
  188.0320  177.3460  144.9120 C   0  0  0  0  0  0  0  0  0  0  0  0
  188.1910  174.7850  140.7930 C   0  0  0  0  0  2  0  0  0  0  0  0
  190.6260  175.1650  143.1550 C   0  0  1  0  0  3  0  0  0  0  0  0
  190.8290  176.7050  144.9860 O   0  0  0  0  0  0  0  0  0  0  0  0
  193.7930  174.7390  144.9670 O   0  0  0  0  0  0  0  0  0  0  0  0
  192.3460  172.5850  142.1490 C   0  0  1  0  0  3  0  0  0  0  0  0
  192.6230  175.1150  144.6860 C   0  0  0  0  0  0  0  0  0  0  0  0
  191.1640  172.4770  141.2020 C   0  0  2  0  0  3  0  0  0  0  0  0
  189.3420  174.0250  140.2820 C   0  0  0  0  0  0  0  0  0  0  0  0
  191.8910  176.0250  145.6300 C   0  0  2  0  0  3  0  0  0  0  0  0
  191.9810  174.6720  143.4760 N   0  0  0  0  0  0  0  0  0  0  0  0
  186.7370  177.8020  144.6560 C   0  0  0  0  0  3  0  0  0  0  0  0
  191.8110  172.3300  139.8420 C   0  0  0  0  0  2  0  0  0  0  0  0
  193.4520  171.8250  141.4440 C   0  0  0  0  0  2  0  0  0  0  0  0
  188.7350  177.9160  145.9670 O   0  0  0  0  0  1  0  0  0  0  0  0
  188.2940  174.5480  142.2980 C   0  0  1  0  0  3  0  0  0  0  0  0
  185.9760  177.2290  143.6410 C   0  0  0  0  0  3  0  0  0  0  0  0
  188.5980  176.3210  144.1160 C   0  0  0  0  0  0  0  0  0  0  0  0
  189.7350  174.0560  142.5850 C   0  0  1  0  0  3  0  0  0  0  0  0
  189.5000  173.7600  139.0610 O   0  0  0  0  0  0  0  0  0  0  0  0
  190.2560  173.6240  141.2960 N   0  0  0  0  0  0  0  0  0  0  0  0
  193.0960  171.6700  140.0350 N   0  0  0  0  0  2  0  0  0  0  0  0
  193.0520  174.9160  141.2560 C   0  0  0  0  0  1  0  0  0  0  0  0
  186.5030  176.1880  142.8810 C   0  0  0  0  0  3  0  0  0  0  0  0
  187.8070  175.7250  143.1070 C   0  0  0  0  0  0  0  0  0  0  0  0
  192.8180  174.0170  142.4670 C   0  0  2  0  0  3  0  0  0  0  0  0
  191.4360  175.2820  146.8850 C   0  0  0  0  0  2  0  0  0  0  0  0
  192.2360  177.1660  148.0740 F   0  0  0  0  0  0  0  0  0  0  0  0
  191.1910  176.2640  148.0140 C   0  0  0  0  0  2  0  0  0  0  0  0
  1 19  1  6  0  0  0
  1  5  1  0  0  0  0
  2 16  1  0  0  0  0
  4 12  1  1  0  0  0
  4  1  1  0  0  0  0
  5 11  1  0  0  0  0
  7 15  1  6  0  0  0
  7 27  1  0  0  0  0
  8  6  2  0  0  0  0
  8 11  1  0  0  0  0
  9 14  1  6  0  0  0
  9 22  1  0  0  0  0
  9  7  1  0  0  0  0
 10  3  1  0  0  0  0
 10 22  1  0  0  0  0
 11 28  1  1  0  0  0
 12  8  1  0  0  0  0
 13  2  1  0  0  0  0
 14 23  1  0  0  0  0
 17  3  1  6  0  0  0
 17 20  1  0  0  0  0
 17 26  1  0  0  0  0
 18 13  2  0  0  0  0
 19  2  2  0  0  0  0
 20 22  1  6  0  0  0
 20  4  1  0  0  0  0
 21 10  2  0  0  0  0
 23 15  1  0  0  0  0
 25 26  2  0  0  0  0
 25 18  1  0  0  0  0
 26 19  1  0  0  0  0
 27 24  1  6  0  0  0
 27 12  1  0  0  0  0
 28 30  1  0  0  0  0
 30 29  1  0  0  0  0
M  END
>  <MODEL>
9

>  <REMARK>
 VINA RESULT:      -6.7      2.949      5.446
  Name = 
  2 active torsions:
  status: ('A' for Active; 'I' for Inactive)
    1  A    between atoms: C_11  and  C_28
    2  A    between atoms: C_28  and  C_30
                            x       y       z     vdW  Elec       q    Type
                         _______ _______ _______ _____ _____    ______ ____

>  <TORSDO>
F 2

$$$$
