=
 OpenBabel11112417403D

 28 32  0  0  1  0  0  0  0  0999 V2000
  190.3630  174.8490  144.9280 C   0  0  0  0  0  0  0  0  0  0  0  0
  185.8130  176.7190  146.0530 C   0  0  0  0  0  1  0  0  0  0  0  0
  188.8660  174.8730  140.0730 O   0  0  0  0  0  0  0  0  0  0  0  0
  191.9290  177.1420  144.2180 C   0  0  0  0  0  2  0  0  0  0  0  0
  187.3210  176.3540  141.1460 C   0  0  0  0  0  0  0  0  0  0  0  0
  189.6840  173.5970  145.0210 N   0  0  0  0  0  2  0  0  0  0  0  0
  187.8400  177.8870  146.8380 C   0  0  0  0  0  1  0  0  0  0  0  0
  186.8480  177.7780  145.6950 C   0  0  0  0  0  0  0  0  0  0  0  0
  185.5330  179.3200  144.3500 C   0  0  0  0  0  0  0  0  0  0  0  0
  187.6020  177.4260  144.3870 C   0  0  2  0  0  3  0  0  0  0  0  0
  190.6260  172.6430  141.9250 O   0  0  0  0  0  0  0  0  0  0  0  0
  187.3850  175.2800  143.2800 C   0  0  1  0  0  3  0  0  0  0  0  0
  185.5370  178.2920  143.2700 C   0  0  0  0  0  2  0  0  0  0  0  0
  186.2010  179.0360  145.5360 O   0  0  0  0  0  0  0  0  0  0  0  0
  189.7520  172.7180  142.7730 C   0  0  0  0  0  0  0  0  0  0  0  0
  189.7180  175.9840  144.1590 C   0  0  2  0  0  3  0  0  0  0  0  0
  188.2180  175.2370  141.0900 C   0  0  0  0  0  0  0  0  0  0  0  0
  184.9160  180.4070  144.2060 O   0  0  0  0  0  0  0  0  0  0  0  0
  188.3610  173.0980  142.3800 C   0  0  0  0  0  2  0  0  0  0  0  0
  190.4300  177.3280  144.3880 C   0  0  0  0  0  2  0  0  0  0  0  0
  191.6310  174.9290  145.3560 C   0  0  0  0  0  3  0  0  0  0  0  0
  192.4330  176.1980  145.3030 C   0  0  0  0  0  2  0  0  0  0  0  0
  190.0830  172.4580  144.2080 C   0  0  0  0  0  2  0  0  0  0  0  0
  186.6560  176.3830  142.4780 C   0  0  1  0  0  3  0  0  0  0  0  0
  188.2280  174.5480  142.3250 N   0  0  0  0  0  0  0  0  0  0  0  0
  186.8650  177.6750  143.1230 N   0  0  2  0  0  0  0  0  0  0  0  0
  187.0900  177.1500  140.1980 O   0  0  0  0  0  0  0  0  0  0  0  0
  188.1840  176.0140  144.3650 C   0  0  1  0  0  3  0  0  0  0  0  0
  1  6  1  0  0  0  0
  1 21  2  0  0  0  0
  3 17  2  0  0  0  0
  4 20  1  0  0  0  0
  4 22  1  0  0  0  0
  8  2  1  0  0  0  0
  8  7  1  0  0  0  0
  9 14  1  0  0  0  0
 10  8  1  1  0  0  0
 11 15  2  0  0  0  0
 12 25  1  6  0  0  0
 12 28  1  0  0  0  0
 13  9  1  0  0  0  0
 14  8  1  0  0  0  0
 15 23  1  0  0  0  0
 16 28  1  0  0  0  0
 16 20  1  1  0  0  0
 16  1  1  0  0  0  0
 17  5  1  0  0  0  0
 17 25  1  0  0  0  0
 18  9  2  0  0  0  0
 19 15  1  0  0  0  0
 22 21  1  0  0  0  0
 23  6  1  0  0  0  0
 24  5  1  6  0  0  0
 24 26  1  0  0  0  0
 24 12  1  0  0  0  0
 25 19  1  0  0  0  0
 26 13  1  1  0  0  0
 26 10  1  0  0  0  0
 27  5  2  0  0  0  0
 28 10  1  0  0  0  0
M  END
>  <MODEL>
1

>  <REMARK>
 VINA RESULT:      -8.0      0.000      0.000
  Name = 
  0 active torsions:
  status: ('A' for Active; 'I' for Inactive)
                            x       y       z     vdW  Elec       q    Type
                         _______ _______ _______ _____ _____    ______ ____

>  <TORSDO>
F 0

$$$$
=
 OpenBabel11112417403D

 28 32  0  0  1  0  0  0  0  0999 V2000
  191.0400  174.2800  142.7300 C   0  0  0  0  0  0  0  0  0  0  0  0
  188.1130  178.2660  141.7260 C   0  0  0  0  0  1  0  0  0  0  0  0
  189.9580  175.0700  147.6310 O   0  0  0  0  0  0  0  0  0  0  0  0
  189.2170  172.0770  142.9190 C   0  0  0  0  0  2  0  0  0  0  0  0
  188.2510  176.2860  146.4740 C   0  0  0  0  0  0  0  0  0  0  0  0
  192.0470  175.2770  142.9020 N   0  0  0  0  0  2  0  0  0  0  0  0
  187.6840  176.1200  140.5870 C   0  0  0  0  0  1  0  0  0  0  0  0
  187.3560  176.9470  141.8150 C   0  0  0  0  0  0  0  0  0  0  0  0
  185.3410  177.6130  143.0040 C   0  0  0  0  0  0  0  0  0  0  0  0
  187.7350  176.1520  143.0910 C   0  0  2  0  0  3  0  0  0  0  0  0
  192.8180  174.2310  146.0150 O   0  0  0  0  0  0  0  0  0  0  0  0
  189.5660  176.7920  144.5440 C   0  0  1  0  0  3  0  0  0  0  0  0
  186.1780  177.7440  144.2320 C   0  0  0  0  0  2  0  0  0  0  0  0
  185.9560  177.2060  141.8260 O   0  0  0  0  0  0  0  0  0  0  0  0
  192.6090  175.1550  145.2460 C   0  0  0  0  0  0  0  0  0  0  0  0
  189.6780  174.4900  143.3600 C   0  0  2  0  0  3  0  0  0  0  0  0
  189.5600  175.7230  146.6310 C   0  0  0  0  0  0  0  0  0  0  0  0
  184.1150  177.8910  143.0260 O   0  0  0  0  0  0  0  0  0  0  0  0
  191.8000  176.3290  145.6950 C   0  0  0  0  0  2  0  0  0  0  0  0
  188.6350  173.4800  142.8550 C   0  0  0  0  0  2  0  0  0  0  0  0
  191.3810  173.1040  142.1840 C   0  0  0  0  0  3  0  0  0  0  0  0
  190.3980  171.9910  141.9600 C   0  0  0  0  0  2  0  0  0  0  0  0
  193.1370  175.0960  143.8490 C   0  0  0  0  0  2  0  0  0  0  0  0
  188.2070  177.0860  145.2190 C   0  0  1  0  0  3  0  0  0  0  0  0
  190.3780  176.0590  145.5260 N   0  0  0  0  0  0  0  0  0  0  0  0
  187.1230  176.6240  144.3580 N   0  0  2  0  0  0  0  0  0  0  0  0
  187.3060  176.1690  147.2990 O   0  0  0  0  0  0  0  0  0  0  0  0
  189.2380  175.9730  143.2890 C   0  0  1  0  0  3  0  0  0  0  0  0
  1  6  1  0  0  0  0
  1 16  1  0  0  0  0
  2  8  1  0  0  0  0
  5 17  1  0  0  0  0
  5 27  2  0  0  0  0
  6 23  1  0  0  0  0
  7  8  1  0  0  0  0
  8 14  1  0  0  0  0
  9 18  2  0  0  0  0
  9 13  1  0  0  0  0
 10  8  1  6  0  0  0
 10 28  1  0  0  0  0
 10 26  1  0  0  0  0
 12 24  1  0  0  0  0
 12 25  1  1  0  0  0
 14  9  1  0  0  0  0
 15 19  1  0  0  0  0
 15 11  2  0  0  0  0
 16 20  1  6  0  0  0
 17  3  2  0  0  0  0
 20  4  1  0  0  0  0
 21  1  2  0  0  0  0
 22 21  1  0  0  0  0
 22  4  1  0  0  0  0
 23 15  1  0  0  0  0
 24  5  1  1  0  0  0
 25 19  1  0  0  0  0
 25 17  1  0  0  0  0
 26 13  1  6  0  0  0
 26 24  1  0  0  0  0
 28 16  1  0  0  0  0
 28 12  1  0  0  0  0
M  END
>  <MODEL>
2

>  <REMARK>
 VINA RESULT:      -7.9      2.260      4.431
  Name = 
  0 active torsions:
  status: ('A' for Active; 'I' for Inactive)
                            x       y       z     vdW  Elec       q    Type
                         _______ _______ _______ _____ _____    ______ ____

>  <TORSDO>
F 0

$$$$
=
 OpenBabel11112417403D

 28 32  0  0  1  0  0  0  0  0999 V2000
  188.7600  177.2860  144.6370 C   0  0  0  0  0  0  0  0  0  0  0  0
  193.5670  175.8380  144.1250 C   0  0  0  0  0  1  0  0  0  0  0  0
  187.5150  173.1170  142.0130 O   0  0  0  0  0  0  0  0  0  0  0  0
  187.8140  175.8470  146.9290 C   0  0  0  0  0  2  0  0  0  0  0  0
  189.7490  172.6730  142.7500 C   0  0  0  0  0  0  0  0  0  0  0  0
  188.9840  177.8910  143.3640 N   0  0  0  0  0  2  0  0  0  0  0  0
  192.6720  176.3250  146.3730 C   0  0  0  0  0  1  0  0  0  0  0  0
  192.8620  175.2350  145.3350 C   0  0  0  0  0  0  0  0  0  0  0  0
  193.7030  172.9530  145.3100 C   0  0  0  0  0  0  0  0  0  0  0  0
  191.4850  174.6340  144.9560 C   0  0  2  0  0  3  0  0  0  0  0  0
  186.3690  176.3070  141.9390 O   0  0  0  0  0  0  0  0  0  0  0  0
  190.4610  174.9540  142.7830 C   0  0  1  0  0  3  0  0  0  0  0  0
  192.8460  172.7120  144.1140 C   0  0  0  0  0  2  0  0  0  0  0  0
  193.6800  174.2140  145.8960 O   0  0  0  0  0  0  0  0  0  0  0  0
  187.5270  176.6800  141.8670 C   0  0  0  0  0  0  0  0  0  0  0  0
  189.2290  175.8640  144.8720 C   0  0  2  0  0  3  0  0  0  0  0  0
  188.6630  173.5150  142.3430 C   0  0  0  0  0  0  0  0  0  0  0  0
  194.4510  172.0490  145.7620 O   0  0  0  0  0  0  0  0  0  0  0  0
  188.5660  175.7790  141.2810 C   0  0  0  0  0  2  0  0  0  0  0  0
  189.1680  175.4630  146.3550 C   0  0  0  0  0  2  0  0  0  0  0  0
  187.9750  177.9160  145.5220 C   0  0  0  0  0  3  0  0  0  0  0  0
  187.6760  177.3640  146.8880 C   0  0  0  0  0  2  0  0  0  0  0  0
  187.9100  178.0270  142.3910 C   0  0  0  0  0  2  0  0  0  0  0  0
  190.9710  173.5020  142.9370 C   0  0  1  0  0  3  0  0  0  0  0  0
  189.0770  174.8680  142.2970 N   0  0  0  0  0  0  0  0  0  0  0  0
  191.5140  173.3150  144.2790 N   0  0  2  0  0  0  0  0  0  0  0  0
  189.6920  171.4200  142.8730 O   0  0  0  0  0  0  0  0  0  0  0  0
  190.5830  175.5870  144.1750 C   0  0  1  0  0  3  0  0  0  0  0  0
  1 16  1  0  0  0  0
  1 21  2  0  0  0  0
  2  8  1  0  0  0  0
  3 17  2  0  0  0  0
  5 27  2  0  0  0  0
  6  1  1  0  0  0  0
  8 14  1  0  0  0  0
  8  7  1  0  0  0  0
  9 18  2  0  0  0  0
  9 14  1  0  0  0  0
 10  8  1  6  0  0  0
 12 25  1  1  0  0  0
 12 24  1  0  0  0  0
 12 28  1  0  0  0  0
 13  9  1  0  0  0  0
 15 11  2  0  0  0  0
 15 23  1  0  0  0  0
 16 20  1  1  0  0  0
 17  5  1  0  0  0  0
 19 15  1  0  0  0  0
 19 25  1  0  0  0  0
 20  4  1  0  0  0  0
 21 22  1  0  0  0  0
 22  4  1  0  0  0  0
 23  6  1  0  0  0  0
 24  5  1  1  0  0  0
 24 26  1  0  0  0  0
 25 17  1  0  0  0  0
 26 13  1  6  0  0  0
 26 10  1  0  0  0  0
 28 16  1  0  0  0  0
 28 10  1  0  0  0  0
M  END
>  <MODEL>
3

>  <REMARK>
 VINA RESULT:      -7.7      2.140      5.903
  Name = 
  0 active torsions:
  status: ('A' for Active; 'I' for Inactive)
                            x       y       z     vdW  Elec       q    Type
                         _______ _______ _______ _____ _____    ______ ____

>  <TORSDO>
F 0

$$$$
=
 OpenBabel11112417403D

 28 32  0  0  1  0  0  0  0  0999 V2000
  188.8230  175.6230  145.5960 C   0  0  0  0  0  0  0  0  0  0  0  0
  189.7360  171.9630  142.2440 C   0  0  0  0  0  1  0  0  0  0  0  0
  193.6430  177.0770  144.9050 O   0  0  0  0  0  0  0  0  0  0  0  0
  188.1460  177.9070  144.0020 C   0  0  0  0  0  2  0  0  0  0  0  0
  193.1880  175.7040  142.9960 C   0  0  0  0  0  0  0  0  0  0  0  0
  189.3540  174.6750  146.5220 N   0  0  0  0  0  2  0  0  0  0  0  0
  187.8160  173.4770  141.9050 C   0  0  0  0  0  1  0  0  0  0  0  0
  189.2930  173.2810  141.6190 C   0  0  0  0  0  0  0  0  0  0  0  0
  190.7440  173.4160  139.6720 C   0  0  0  0  0  0  0  0  0  0  0  0
  190.0940  174.4810  142.1840 C   0  0  2  0  0  3  0  0  0  0  0  0
  191.6930  176.8180  147.6670 O   0  0  0  0  0  0  0  0  0  0  0  0
  191.5950  174.2890  144.0770 C   0  0  1  0  0  3  0  0  0  0  0  0
  191.8710  173.7070  140.6030 C   0  0  0  0  0  2  0  0  0  0  0  0
  189.4770  173.2190  140.2090 O   0  0  0  0  0  0  0  0  0  0  0  0
  191.3980  175.6910  147.3060 C   0  0  0  0  0  0  0  0  0  0  0  0
  189.5450  175.8590  144.2840 C   0  0  2  0  0  3  0  0  0  0  0  0
  193.0320  176.1200  144.3590 C   0  0  0  0  0  0  0  0  0  0  0  0
  190.9370  173.3220  138.4320 O   0  0  0  0  0  0  0  0  0  0  0  0
  192.3380  174.9160  146.4400 C   0  0  0  0  0  2  0  0  0  0  0  0
  188.7090  176.6850  143.2940 C   0  0  0  0  0  2  0  0  0  0  0  0
  187.8160  176.4160  145.9890 C   0  0  0  0  0  3  0  0  0  0  0  0
  187.1880  177.4450  145.0930 C   0  0  0  0  0  2  0  0  0  0  0  0
  190.0840  175.1010  147.7060 C   0  0  0  0  0  2  0  0  0  0  0  0
  192.3930  174.4670  142.7650 C   0  0  1  0  0  3  0  0  0  0  0  0
  192.1370  175.2600  145.0390 N   0  0  0  0  0  0  0  0  0  0  0  0
  191.4680  174.6560  141.6530 N   0  0  2  0  0  0  0  0  0  0  0  0
  193.9280  176.2660  142.1450 O   0  0  0  0  0  0  0  0  0  0  0  0
  190.1280  174.5450  143.7100 C   0  0  1  0  0  3  0  0  0  0  0  0
  1 21  2  0  0  0  0
  1  6  1  0  0  0  0
  4 22  1  0  0  0  0
  5 17  1  0  0  0  0
  6 23  1  0  0  0  0
  8  7  1  0  0  0  0
  8  2  1  0  0  0  0
  9 14  1  0  0  0  0
  9 13  1  0  0  0  0
 10  8  1  1  0  0  0
 10 28  1  0  0  0  0
 12 25  1  1  0  0  0
 14  8  1  0  0  0  0
 15 11  2  0  0  0  0
 15 23  1  0  0  0  0
 16 20  1  6  0  0  0
 16  1  1  0  0  0  0
 17  3  2  0  0  0  0
 17 25  1  0  0  0  0
 18  9  2  0  0  0  0
 19 15  1  0  0  0  0
 20  4  1  0  0  0  0
 22 21  1  0  0  0  0
 24  5  1  1  0  0  0
 24 12  1  0  0  0  0
 25 19  1  0  0  0  0
 26 13  1  6  0  0  0
 26 10  1  0  0  0  0
 26 24  1  0  0  0  0
 27  5  2  0  0  0  0
 28 12  1  0  0  0  0
 28 16  1  0  0  0  0
M  END
>  <MODEL>
4

>  <REMARK>
 VINA RESULT:      -7.5      2.917      6.001
  Name = 
  0 active torsions:
  status: ('A' for Active; 'I' for Inactive)
                            x       y       z     vdW  Elec       q    Type
                         _______ _______ _______ _____ _____    ______ ____

>  <TORSDO>
F 0

$$$$
=
 OpenBabel11112417403D

 28 32  0  0  1  0  0  0  0  0999 V2000
  189.7950  176.2420  144.6320 C   0  0  0  0  0  0  0  0  0  0  0  0
  194.8180  176.2570  144.1500 C   0  0  0  0  0  1  0  0  0  0  0  0
  189.9020  171.5400  142.7100 O   0  0  0  0  0  0  0  0  0  0  0  0
  189.3170  174.9560  147.1480 C   0  0  0  0  0  2  0  0  0  0  0  0
  192.1600  171.9130  143.4150 C   0  0  0  0  0  0  0  0  0  0  0  0
  189.8340  176.6830  143.2750 N   0  0  0  0  0  2  0  0  0  0  0  0
  193.8010  176.7910  146.3350 C   0  0  0  0  0  1  0  0  0  0  0  0
  194.3230  175.6630  145.4640 C   0  0  0  0  0  0  0  0  0  0  0  0
  195.8200  173.7680  145.7450 C   0  0  0  0  0  0  0  0  0  0  0  0
  193.1970  174.6220  145.2340 C   0  0  2  0  0  3  0  0  0  0  0  0
  187.8380  174.1830  142.2080 O   0  0  0  0  0  0  0  0  0  0  0  0
  192.1410  174.2780  143.0800 C   0  0  1  0  0  3  0  0  0  0  0  0
  195.0870  173.0970  144.6340 C   0  0  0  0  0  2  0  0  0  0  0  0
  195.4080  175.0360  146.1380 O   0  0  0  0  0  0  0  0  0  0  0  0
  188.8270  174.8740  142.0340 C   0  0  0  0  0  0  0  0  0  0  0  0
  190.6740  175.0830  145.0570 C   0  0  2  0  0  3  0  0  0  0  0  0
  190.8720  172.3140  142.9300 C   0  0  0  0  0  0  0  0  0  0  0  0
  196.8050  173.2130  146.2970 O   0  0  0  0  0  0  0  0  0  0  0  0
  190.0960  174.2500  141.5480 C   0  0  0  0  0  2  0  0  0  0  0  0
  190.7280  174.9160  146.5840 C   0  0  0  0  0  2  0  0  0  0  0  0
  188.8490  176.7330  145.4440 C   0  0  0  0  0  3  0  0  0  0  0  0
  188.7220  176.3350  146.8880 C   0  0  0  0  0  2  0  0  0  0  0  0
  188.7770  176.3370  142.3370 C   0  0  0  0  0  2  0  0  0  0  0  0
  193.0690  173.0920  143.4270 C   0  0  1  0  0  3  0  0  0  0  0  0
  190.8530  173.7040  142.6670 N   0  0  0  0  0  0  0  0  0  0  0  0
  193.6330  173.2860  144.7590 N   0  0  2  0  0  0  0  0  0  0  0  0
  192.4860  170.7360  143.7250 O   0  0  0  0  0  0  0  0  0  0  0  0
  192.0540  175.1250  144.3560 C   0  0  1  0  0  3  0  0  0  0  0  0
  1 16  1  0  0  0  0
  1 21  2  0  0  0  0
  2  8  1  0  0  0  0
  3 17  2  0  0  0  0
  5 27  2  0  0  0  0
  6  1  1  0  0  0  0
  8 14  1  0  0  0  0
  8  7  1  0  0  0  0
  9 14  1  0  0  0  0
  9 18  2  0  0  0  0
 10  8  1  6  0  0  0
 12 25  1  1  0  0  0
 12 24  1  0  0  0  0
 12 28  1  0  0  0  0
 13  9  1  0  0  0  0
 15 11  2  0  0  0  0
 15 23  1  0  0  0  0
 16 20  1  1  0  0  0
 17  5  1  0  0  0  0
 19 15  1  0  0  0  0
 19 25  1  0  0  0  0
 20  4  1  0  0  0  0
 21 22  1  0  0  0  0
 22  4  1  0  0  0  0
 23  6  1  0  0  0  0
 24  5  1  1  0  0  0
 24 26  1  0  0  0  0
 25 17  1  0  0  0  0
 26 13  1  6  0  0  0
 26 10  1  0  0  0  0
 28 16  1  0  0  0  0
 28 10  1  0  0  0  0
M  END
>  <MODEL>
5

>  <REMARK>
 VINA RESULT:      -7.4      2.983      6.637
  Name = 
  0 active torsions:
  status: ('A' for Active; 'I' for Inactive)
                            x       y       z     vdW  Elec       q    Type
                         _______ _______ _______ _____ _____    ______ ____

>  <TORSDO>
F 0

$$$$
=
 OpenBabel11112417403D

 28 32  0  0  1  0  0  0  0  0999 V2000
  191.1700  174.1480  142.2400 C   0  0  0  0  0  0  0  0  0  0  0  0
  187.9030  177.8420  143.3120 C   0  0  0  0  0  1  0  0  0  0  0  0
  193.3600  175.1650  146.7110 O   0  0  0  0  0  0  0  0  0  0  0  0
  190.0980  171.8360  143.5510 C   0  0  0  0  0  2  0  0  0  0  0  0
  191.1990  176.1800  146.8980 C   0  0  0  0  0  0  0  0  0  0  0  0
  191.9570  175.2240  141.7300 N   0  0  0  0  0  2  0  0  0  0  0  0
  187.0580  175.6020  142.7110 C   0  0  0  0  0  1  0  0  0  0  0  0
  187.5030  176.4790  143.8660 C   0  0  0  0  0  0  0  0  0  0  0  0
  186.6420  177.0720  146.0620 C   0  0  0  0  0  0  0  0  0  0  0  0
  188.6770  175.7960  144.6130 C   0  0  2  0  0  3  0  0  0  0  0  0
  194.6180  174.4350  143.6470 O   0  0  0  0  0  0  0  0  0  0  0  0
  190.9430  176.6560  144.5700 C   0  0  1  0  0  3  0  0  0  0  0  0
  188.0480  177.3400  146.4780 C   0  0  0  0  0  2  0  0  0  0  0  0
  186.4080  176.6370  144.7630 O   0  0  0  0  0  0  0  0  0  0  0  0
  193.8830  175.2910  143.1840 C   0  0  0  0  0  0  0  0  0  0  0  0
  190.5000  174.2990  143.5910 C   0  0  2  0  0  3  0  0  0  0  0  0
  192.3590  175.7240  146.1880 C   0  0  0  0  0  0  0  0  0  0  0  0
  185.6860  177.2610  146.8570 O   0  0  0  0  0  0  0  0  0  0  0  0
  193.4320  176.4300  144.0420 C   0  0  0  0  0  2  0  0  0  0  0  0
  189.4760  173.1860  143.8660 C   0  0  0  0  0  2  0  0  0  0  0  0
  191.2000  172.9680  141.6050 C   0  0  0  0  0  3  0  0  0  0  0  0
  190.4090  171.7740  142.0600 C   0  0  0  0  0  2  0  0  0  0  0  0
  193.4110  175.1820  141.7700 C   0  0  0  0  0  2  0  0  0  0  0  0
  190.2960  176.8940  145.9540 C   0  0  1  0  0  3  0  0  0  0  0  0
  192.2580  176.0480  144.8150 N   0  0  0  0  0  0  0  0  0  0  0  0
  188.9620  176.3010  145.9780 N   0  0  2  0  0  0  0  0  0  0  0  0
  191.0050  176.0470  148.1350 O   0  0  0  0  0  0  0  0  0  0  0  0
  189.9760  175.7390  143.8110 C   0  0  1  0  0  3  0  0  0  0  0  0
  1 16  1  0  0  0  0
  2  8  1  0  0  0  0
  4 20  1  0  0  0  0
  5 27  2  0  0  0  0
  6 23  1  0  0  0  0
  6  1  1  0  0  0  0
  7  8  1  0  0  0  0
  8 14  1  0  0  0  0
  9 13  1  0  0  0  0
  9 18  2  0  0  0  0
 10  8  1  6  0  0  0
 10 26  1  0  0  0  0
 12 25  1  1  0  0  0
 12 24  1  0  0  0  0
 14  9  1  0  0  0  0
 15 11  2  0  0  0  0
 15 19  1  0  0  0  0
 16 28  1  0  0  0  0
 16 20  1  6  0  0  0
 17  3  2  0  0  0  0
 17  5  1  0  0  0  0
 19 25  1  0  0  0  0
 21 22  1  0  0  0  0
 21  1  2  0  0  0  0
 22  4  1  0  0  0  0
 23 15  1  0  0  0  0
 24 26  1  0  0  0  0
 24  5  1  1  0  0  0
 25 17  1  0  0  0  0
 26 13  1  6  0  0  0
 28 12  1  0  0  0  0
 28 10  1  0  0  0  0
M  END
>  <MODEL>
6

>  <REMARK>
 VINA RESULT:      -7.3      2.633      4.852
  Name = 
  0 active torsions:
  status: ('A' for Active; 'I' for Inactive)
                            x       y       z     vdW  Elec       q    Type
                         _______ _______ _______ _____ _____    ______ ____

>  <TORSDO>
F 0

$$$$
=
 OpenBabel11112417403D

 28 32  0  0  1  0  0  0  0  0999 V2000
  187.1660  176.6170  143.5590 C   0  0  0  0  0  0  0  0  0  0  0  0
  189.6840  172.2800  144.1220 C   0  0  0  0  0  1  0  0  0  0  0  0
  189.6910  178.2920  147.6380 O   0  0  0  0  0  0  0  0  0  0  0  0
  188.9420  178.2920  142.0570 C   0  0  0  0  0  2  0  0  0  0  0  0
  190.9770  176.4060  146.9130 C   0  0  0  0  0  0  0  0  0  0  0  0
  186.2670  176.0190  144.4930 N   0  0  0  0  0  2  0  0  0  0  0  0
  189.7280  173.4440  141.9460 C   0  0  0  0  0  1  0  0  0  0  0  0
  190.4220  173.3230  143.2900 C   0  0  0  0  0  0  0  0  0  0  0  0
  192.7070  173.0560  144.0770 C   0  0  0  0  0  0  0  0  0  0  0  0
  190.4400  174.7060  143.9890 C   0  0  2  0  0  3  0  0  0  0  0  0
  186.4680  178.6170  146.6360 O   0  0  0  0  0  0  0  0  0  0  0  0
  189.1420  175.1950  145.9760 C   0  0  1  0  0  3  0  0  0  0  0  0
  192.2840  173.7030  145.3510 C   0  0  0  0  0  2  0  0  0  0  0  0
  191.7610  172.8910  143.0720 O   0  0  0  0  0  0  0  0  0  0  0  0
  186.4420  177.4100  146.4580 C   0  0  0  0  0  0  0  0  0  0  0  0
  188.6570  176.5500  143.8220 C   0  0  2  0  0  3  0  0  0  0  0  0
  189.7720  177.1650  147.0800 C   0  0  0  0  0  0  0  0  0  0  0  0
  193.8850  172.6420  143.9220 O   0  0  0  0  0  0  0  0  0  0  0  0
  187.3590  176.5220  147.2370 C   0  0  0  0  0  2  0  0  0  0  0  0
  189.4880  176.9830  142.6040 C   0  0  0  0  0  2  0  0  0  0  0  0
  186.6650  177.3840  142.5810 C   0  0  0  0  0  3  0  0  0  0  0  0
  187.5240  178.0570  141.5480 C   0  0  0  0  0  2  0  0  0  0  0  0
  185.5150  176.8270  145.4410 C   0  0  0  0  0  2  0  0  0  0  0  0
  190.6450  175.0810  146.3220 C   0  0  1  0  0  3  0  0  0  0  0  0
  188.6600  176.4430  146.5860 N   0  0  0  0  0  0  0  0  0  0  0  0
  191.4120  174.8620  145.1000 N   0  0  2  0  0  0  0  0  0  0  0  0
  192.1270  176.7800  147.2670 O   0  0  0  0  0  0  0  0  0  0  0  0
  189.0660  175.1930  144.4440 C   0  0  1  0  0  3  0  0  0  0  0  0
  1 16  1  0  0  0  0
  1  6  1  0  0  0  0
  4 20  1  0  0  0  0
  5 17  1  0  0  0  0
  5 27  2  0  0  0  0
  6 23  1  0  0  0  0
  7  8  1  0  0  0  0
  8  2  1  0  0  0  0
  9 13  1  0  0  0  0
 10  8  1  1  0  0  0
 10 28  1  0  0  0  0
 10 26  1  0  0  0  0
 12 24  1  0  0  0  0
 12 25  1  6  0  0  0
 14  8  1  0  0  0  0
 14  9  1  0  0  0  0
 15 11  2  0  0  0  0
 15 19  1  0  0  0  0
 16 20  1  6  0  0  0
 16 28  1  0  0  0  0
 17  3  2  0  0  0  0
 18  9  2  0  0  0  0
 21  1  2  0  0  0  0
 22  4  1  0  0  0  0
 22 21  1  0  0  0  0
 23 15  1  0  0  0  0
 24  5  1  6  0  0  0
 25 17  1  0  0  0  0
 25 19  1  0  0  0  0
 26 13  1  1  0  0  0
 26 24  1  0  0  0  0
 28 12  1  0  0  0  0
M  END
>  <MODEL>
7

>  <REMARK>
 VINA RESULT:      -7.2      2.344      6.499
  Name = 
  0 active torsions:
  status: ('A' for Active; 'I' for Inactive)
                            x       y       z     vdW  Elec       q    Type
                         _______ _______ _______ _____ _____    ______ ____

>  <TORSDO>
F 0

$$$$
=
 OpenBabel11112417403D

 28 32  0  0  1  0  0  0  0  0999 V2000
  190.5390  175.3540  143.4800 C   0  0  0  0  0  0  0  0  0  0  0  0
  187.3040  175.9670  147.3040 C   0  0  0  0  0  1  0  0  0  0  0  0
  186.7840  176.8900  140.4210 O   0  0  0  0  0  0  0  0  0  0  0  0
  191.6480  177.9610  143.0490 C   0  0  0  0  0  2  0  0  0  0  0  0
  186.0830  177.6280  142.5890 C   0  0  0  0  0  0  0  0  0  0  0  0
  189.9340  174.0630  143.3980 N   0  0  0  0  0  2  0  0  0  0  0  0
  189.5090  177.0740  147.3810 C   0  0  0  0  0  1  0  0  0  0  0  0
  188.0690  177.2310  146.9290 C   0  0  0  0  0  0  0  0  0  0  0  0
  186.3390  178.9300  147.1170 C   0  0  0  0  0  0  0  0  0  0  0  0
  188.0310  177.4930  145.4020 C   0  0  2  0  0  3  0  0  0  0  0  0
  189.1160  174.4440  140.1480 O   0  0  0  0  0  0  0  0  0  0  0  0
  187.1650  175.8830  143.8110 C   0  0  1  0  0  3  0  0  0  0  0  0
  185.7370  178.3730  145.8710 C   0  0  0  0  0  2  0  0  0  0  0  0
  187.5000  178.3460  147.6080 O   0  0  0  0  0  0  0  0  0  0  0  0
  188.8010  174.0730  141.2660 C   0  0  0  0  0  0  0  0  0  0  0  0
  189.6550  176.5750  143.6330 C   0  0  2  0  0  3  0  0  0  0  0  0
  186.7640  176.7590  141.6740 C   0  0  0  0  0  0  0  0  0  0  0  0
  185.7940  179.8870  147.7260 O   0  0  0  0  0  0  0  0  0  0  0  0
  187.4260  174.3490  141.7850 C   0  0  0  0  0  2  0  0  0  0  0  0
  190.4560  177.8390  143.9850 C   0  0  0  0  0  2  0  0  0  0  0  0
  191.8500  175.4690  143.2270 C   0  0  0  0  0  3  0  0  0  0  0  0
  192.5820  176.7810  143.2860 C   0  0  0  0  0  2  0  0  0  0  0  0
  189.8020  173.3690  142.1270 C   0  0  0  0  0  2  0  0  0  0  0  0
  186.1910  177.0730  143.9660 C   0  0  1  0  0  3  0  0  0  0  0  0
  187.3640  175.6820  142.3690 N   0  0  0  0  0  0  0  0  0  0  0  0
  186.7690  178.0630  144.8700 N   0  0  2  0  0  0  0  0  0  0  0  0
  185.4450  178.6660  142.2680 O   0  0  0  0  0  0  0  0  0  0  0  0
  188.4430  176.2920  144.5540 C   0  0  1  0  0  3  0  0  0  0  0  0
  1 16  1  0  0  0  0
  3 17  2  0  0  0  0
  4 22  1  0  0  0  0
  4 20  1  0  0  0  0
  6  1  1  0  0  0  0
  8  2  1  0  0  0  0
  8  7  1  0  0  0  0
  8 14  1  0  0  0  0
  9 14  1  0  0  0  0
  9 18  2  0  0  0  0
 10  8  1  1  0  0  0
 11 15  2  0  0  0  0
 12 25  1  6  0  0  0
 12 24  1  0  0  0  0
 12 28  1  0  0  0  0
 13  9  1  0  0  0  0
 15 19  1  0  0  0  0
 15 23  1  0  0  0  0
 16 20  1  1  0  0  0
 16 28  1  0  0  0  0
 17 25  1  0  0  0  0
 17  5  1  0  0  0  0
 19 25  1  0  0  0  0
 21 22  1  0  0  0  0
 21  1  2  0  0  0  0
 23  6  1  0  0  0  0
 24  5  1  6  0  0  0
 24 26  1  0  0  0  0
 26 10  1  0  0  0  0
 26 13  1  1  0  0  0
 27  5  2  0  0  0  0
 28 10  1  0  0  0  0
M  END
>  <MODEL>
8

>  <REMARK>
 VINA RESULT:      -7.2      1.549      2.106
  Name = 
  0 active torsions:
  status: ('A' for Active; 'I' for Inactive)
                            x       y       z     vdW  Elec       q    Type
                         _______ _______ _______ _____ _____    ______ ____

>  <TORSDO>
F 0

$$$$
=
 OpenBabel11112417403D

 28 32  0  0  1  0  0  0  0  0999 V2000
  192.1990  174.1130  144.0810 C   0  0  0  0  0  0  0  0  0  0  0  0
  187.7070  176.1300  145.1840 C   0  0  0  0  0  1  0  0  0  0  0  0
  190.0970  172.4880  139.7500 O   0  0  0  0  0  0  0  0  0  0  0  0
  193.4920  176.0810  142.4480 C   0  0  0  0  0  2  0  0  0  0  0  0
  188.5980  174.2000  140.4970 C   0  0  0  0  0  0  0  0  0  0  0  0
  191.6300  172.9440  144.6720 N   0  0  0  0  0  2  0  0  0  0  0  0
  189.7280  177.5450  145.2460 C   0  0  0  0  0  1  0  0  0  0  0  0
  188.6090  177.0380  144.3560 C   0  0  0  0  0  0  0  0  0  0  0  0
  187.0240  178.0120  142.7890 C   0  0  0  0  0  0  0  0  0  0  0  0
  189.2120  176.2920  143.1390 C   0  0  2  0  0  3  0  0  0  0  0  0
  192.2350  171.0450  141.9510 O   0  0  0  0  0  0  0  0  0  0  0  0
  189.0120  173.8960  142.8310 C   0  0  1  0  0  3  0  0  0  0  0  0
  186.9650  176.6850  142.1120 C   0  0  0  0  0  2  0  0  0  0  0  0
  187.8570  178.1550  143.8930 O   0  0  0  0  0  0  0  0  0  0  0  0
  191.4740  171.3730  142.8460 C   0  0  0  0  0  0  0  0  0  0  0  0
  191.3810  174.9120  143.0870 C   0  0  2  0  0  3  0  0  0  0  0  0
  189.5590  173.1510  140.6770 C   0  0  0  0  0  0  0  0  0  0  0  0
  186.3170  178.9740  142.3910 O   0  0  0  0  0  0  0  0  0  0  0  0
  190.0200  171.5650  142.5560 C   0  0  0  0  0  2  0  0  0  0  0  0
  192.0170  176.2730  142.7630 C   0  0  0  0  0  2  0  0  0  0  0  0
  193.5020  174.3630  144.2720 C   0  0  0  0  0  3  0  0  0  0  0  0
  194.1970  175.5640  143.6950 C   0  0  0  0  0  2  0  0  0  0  0  0
  192.0030  171.6120  144.2230 C   0  0  0  0  0  2  0  0  0  0  0  0
  188.1090  174.6510  141.8290 C   0  0  1  0  0  3  0  0  0  0  0  0
  189.7770  172.9110  142.0540 N   0  0  0  0  0  0  0  0  0  0  0  0
  188.3040  176.0900  141.9830 N   0  0  2  0  0  0  0  0  0  0  0  0
  188.1910  174.6310  139.3850 O   0  0  0  0  0  0  0  0  0  0  0  0
  189.8870  174.9680  143.4920 C   0  0  1  0  0  3  0  0  0  0  0  0
  1 21  2  0  0  0  0
  1  6  1  0  0  0  0
  3 17  2  0  0  0  0
  4 20  1  0  0  0  0
  4 22  1  0  0  0  0
  5 17  1  0  0  0  0
  8  2  1  0  0  0  0
  8  7  1  0  0  0  0
  9 14  1  0  0  0  0
 10 28  1  0  0  0  0
 10  8  1  1  0  0  0
 11 15  2  0  0  0  0
 12 25  1  6  0  0  0
 12 28  1  0  0  0  0
 13  9  1  0  0  0  0
 14  8  1  0  0  0  0
 15 23  1  0  0  0  0
 16 20  1  1  0  0  0
 16 28  1  0  0  0  0
 16  1  1  0  0  0  0
 17 25  1  0  0  0  0
 18  9  2  0  0  0  0
 19 15  1  0  0  0  0
 22 21  1  0  0  0  0
 23  6  1  0  0  0  0
 24  5  1  6  0  0  0
 24 26  1  0  0  0  0
 24 12  1  0  0  0  0
 25 19  1  0  0  0  0
 26 13  1  1  0  0  0
 26 10  1  0  0  0  0
 27  5  2  0  0  0  0
M  END
>  <MODEL>
9

>  <REMARK>
 VINA RESULT:      -7.2      1.827      2.389
  Name = 
  0 active torsions:
  status: ('A' for Active; 'I' for Inactive)
                            x       y       z     vdW  Elec       q    Type
                         _______ _______ _______ _____ _____    ______ ____

>  <TORSDO>
F 0

$$$$
