=
 OpenBabel11112416403D

 32 37  0  0  1  0  0  0  0  0999 V2000
  186.7590  177.2330  143.0520 C   0  0  0  0  0  0  0  0  0  0  0  0
  184.4500  178.6030  147.2480 C   0  0  0  0  0  3  0  0  0  0  0  0
  185.4890  178.1090  147.9160 C   0  0  0  0  0  3  0  0  0  0  0  0
  189.0810  176.1690  143.2680 C   0  0  0  0  0  0  0  0  0  0  0  0
  190.1020  175.5030  144.1500 C   0  0  1  0  0  3  0  0  0  0  0  0
  185.7140  177.6750  140.9020 N   0  0  0  0  0  0  0  0  0  0  0  0
  184.5070  178.3160  142.8660 C   0  0  0  0  0  3  0  0  0  0  0  0
  190.9450  175.5500  146.2050 N   0  0  0  0  0  0  0  0  0  0  0  0
  184.3710  178.5480  145.7480 C   0  0  0  0  0  2  0  0  0  0  0  0
  185.6350  177.8170  143.6860 C   0  0  0  0  0  0  0  0  0  0  0  0
  185.5800  177.9120  145.0880 C   0  0  0  0  0  0  0  0  0  0  0  0
  187.7480  176.8000  145.2330 C   0  0  0  0  0  0  0  0  0  0  0  0
  191.8930  176.1560  145.3840 N   0  0  0  0  0  2  0  0  0  0  0  0
  184.5590  178.2630  141.5330 C   0  0  0  0  0  0  0  0  0  0  0  0
  191.4300  176.1900  144.1860 C   0  0  0  0  0  2  0  0  0  0  0  0
  186.6140  177.4900  147.2020 C   0  0  0  0  0  3  0  0  0  0  0  0
  186.6480  177.4050  145.8640 C   0  0  0  0  0  0  0  0  0  0  0  0
  188.8360  176.2950  146.0140 N   0  0  0  0  0  2  0  0  0  0  0  0
  186.7840  177.1560  141.7120 C   0  0  0  0  0  3  0  0  0  0  0  0
  189.3190  176.2300  142.0320 O   0  0  0  0  0  0  0  0  0  0  0  0
  191.1660  175.3230  147.6220 C   0  0  0  0  0  1  0  0  0  0  0  0
  187.8290  176.7320  143.8380 C   0  0  0  0  0  0  0  0  0  0  0  0
  189.7230  175.2940  145.5640 N   0  0  1  0  0  0  0  0  0  0  0  0
  182.6990  177.5430  140.1090 C   0  0  0  0  0  2  0  0  0  0  0  0
  183.3670  178.6910  140.7250 C   0  0  1  0  0  3  0  0  0  0  0  0
  182.1340  178.1470  141.3220 N   0  0  0  0  0  0  0  0  0  0  0  0
  181.0490  179.0080  140.8870 C   0  0  0  0  0  2  0  0  0  0  0  0
  179.7800  178.2320  140.8400 C   0  0  0  0  0  0  0  0  0  0  0  0
  179.1070  178.1880  139.7780 O   0  0  0  0  0  0  0  0  0  0  0  0
  179.3580  177.5230  141.9570 O   0  0  0  0  0  1  0  0  0  0  0  0
  186.9440  176.7940  139.3080 C   0  0  0  0  0  1  0  0  0  0  0  0
  185.7550  177.4900  139.5570 O   0  0  0  0  0  0  0  0  0  0  0  0
  1 10  1  0  0  0  0
  1 22  1  0  0  0  0
  2  3  2  0  0  0  0
  4 22  1  0  0  0  0
  4  5  1  0  0  0  0
  5 15  1  1  0  0  0
  5 23  1  0  0  0  0
  6 14  1  0  0  0  0
  6 19  1  0  0  0  0
  7 10  1  0  0  0  0
  8 21  1  0  0  0  0
  9  2  1  0  0  0  0
 10 11  2  0  0  0  0
 11  9  1  0  0  0  0
 11 17  1  0  0  0  0
 12 17  1  0  0  0  0
 12 18  1  0  0  0  0
 13  8  1  0  0  0  0
 14  7  2  0  0  0  0
 15 13  1  0  0  0  0
 16  3  1  0  0  0  0
 17 16  2  0  0  0  0
 19  1  2  0  0  0  0
 20  4  2  0  0  0  0
 22 12  2  0  0  0  0
 23 18  1  1  0  0  0
 23  8  1  0  0  0  0
 24 25  1  0  0  0  0
 24 26  1  0  0  0  0
 25 26  1  0  0  0  0
 25 14  1  1  0  0  0
 27 26  1  0  0  0  0
 28 27  1  0  0  0  0
 28 30  1  0  0  0  0
 29 28  2  0  0  0  0
 31 32  1  0  0  0  0
 32  6  1  0  0  0  0
M  END
>  <MODEL>
1

>  <REMARK>
 VINA RESULT:      -8.8      0.000      0.000
  Name = 
  4 active torsions:
  status: ('A' for Active; 'I' for Inactive)
    1  A    between atoms: N_7  and  O_19
    2  A    between atoms: C_10  and  C_17
    3  A    between atoms: N_20  and  C_29
    4  A    between atoms: C_29  and  C_30
                            x       y       z     vdW  Elec       q    Type
                         _______ _______ _______ _____ _____    ______ ____

>  <TORSDO>
F 4

$$$$
=
 OpenBabel11112416403D

 32 37  0  0  1  0  0  0  0  0999 V2000
  187.8110  177.5250  143.3160 C   0  0  0  0  0  0  0  0  0  0  0  0
  185.3150  178.1170  147.5860 C   0  0  0  0  0  3  0  0  0  0  0  0
  184.2370  178.3850  146.8550 C   0  0  0  0  0  3  0  0  0  0  0  0
  186.4960  177.7660  141.1280 C   0  0  0  0  0  0  0  0  0  0  0  0
  185.2530  178.2510  140.4340 C   0  0  1  0  0  3  0  0  0  0  0  0
  190.1680  176.9310  143.3700 N   0  0  0  0  0  0  0  0  0  0  0  0
  189.0640  177.2510  145.4690 C   0  0  0  0  0  3  0  0  0  0  0  0
  183.0560  178.4440  140.7020 N   0  0  0  0  0  0  0  0  0  0  0  0
  186.6460  177.8140  146.9570 C   0  0  0  0  0  3  0  0  0  0  0  0
  187.8110  177.5320  144.7320 C   0  0  0  0  0  0  0  0  0  0  0  0
  186.6290  177.8190  145.4400 C   0  0  0  0  0  0  0  0  0  0  0  0
  185.4570  178.1370  143.3230 C   0  0  0  0  0  0  0  0  0  0  0  0
  183.2460  177.3690  139.8380 N   0  0  0  0  0  2  0  0  0  0  0  0
  190.1850  176.9440  144.8110 C   0  0  0  0  0  0  0  0  0  0  0  0
  184.5100  177.1910  139.6850 C   0  0  0  0  0  2  0  0  0  0  0  0
  184.3080  178.3880  145.3870 C   0  0  0  0  0  3  0  0  0  0  0  0
  185.4450  178.1160  144.7290 C   0  0  2  0  0  3  0  0  0  0  0  0
  184.2570  178.4270  142.5980 N   0  0  0  0  0  2  0  0  0  0  0  0
  188.9540  177.2480  142.6670 C   0  0  0  0  0  3  0  0  0  0  0  0
  187.4340  177.3180  140.4140 O   0  0  0  0  0  0  0  0  0  0  0  0
  181.7370  178.9350  141.0640 C   0  0  0  0  0  1  0  0  0  0  0  0
  186.6170  177.8190  142.6090 C   0  0  0  0  0  0  0  0  0  0  0  0
  184.2410  178.9250  141.2780 N   0  0  1  0  0  0  0  0  0  0  0  0
  191.2100  176.2780  146.9360 C   0  0  0  0  0  2  0  0  0  0  0  0
  191.4650  176.7520  145.5740 C   0  0  1  0  0  3  0  0  0  0  0  0
  191.6430  175.3270  145.9060 N   0  0  0  0  0  0  0  0  0  0  0  0
  193.0670  175.1230  146.1050 C   0  0  0  0  0  2  0  0  0  0  0  0
  193.4670  173.8000  145.5550 C   0  0  0  0  0  0  0  0  0  0  0  0
  192.6170  173.0760  144.9740 O   0  0  0  0  0  0  0  0  0  0  0  0
  194.7870  173.3810  145.6460 O   0  0  0  0  0  1  0  0  0  0  0  0
  191.3170  175.3930  142.3010 C   0  0  0  0  0  1  0  0  0  0  0  0
  191.3120  176.7460  142.6610 O   0  0  0  0  0  0  0  0  0  0  0  0
  1 10  1  0  0  0  0
  3  2  1  0  0  0  0
  4 22  1  0  0  0  0
  5 15  1  1  0  0  0
  5  4  1  0  0  0  0
  5 23  1  0  0  0  0
  6 14  1  0  0  0  0
  8 21  1  0  0  0  0
  8 23  1  0  0  0  0
  9  2  2  0  0  0  0
 10 11  2  0  0  0  0
 10  7  1  0  0  0  0
 11  9  1  0  0  0  0
 12 17  1  0  0  0  0
 13  8  1  0  0  0  0
 14  7  2  0  0  0  0
 15 13  1  0  0  0  0
 16  3  2  0  0  0  0
 17 16  1  1  0  0  0
 17 11  1  0  0  0  0
 18 12  1  0  0  0  0
 19  1  2  0  0  0  0
 19  6  1  0  0  0  0
 20  4  2  0  0  0  0
 22  1  1  0  0  0  0
 22 12  2  0  0  0  0
 23 18  1  1  0  0  0
 25 14  1  6  0  0  0
 25 26  1  0  0  0  0
 25 24  1  0  0  0  0
 26 27  1  0  0  0  0
 26 24  1  0  0  0  0
 28 30  1  0  0  0  0
 28 27  1  0  0  0  0
 29 28  2  0  0  0  0
 31 32  1  0  0  0  0
 32  6  1  0  0  0  0
M  END
>  <MODEL>
2

>  <REMARK>
 VINA RESULT:      -8.1      2.479      8.030
  Name = 
  4 active torsions:
  status: ('A' for Active; 'I' for Inactive)
    1  A    between atoms: N_7  and  O_19
    2  A    between atoms: C_10  and  C_17
    3  A    between atoms: N_20  and  C_29
    4  A    between atoms: C_29  and  C_30
                            x       y       z     vdW  Elec       q    Type
                         _______ _______ _______ _____ _____    ______ ____

>  <TORSDO>
F 4

$$$$
=
 OpenBabel11112416403D

 32 37  0  0  1  0  0  0  0  0999 V2000
  189.2440  176.0850  145.1940 C   0  0  0  0  0  0  0  0  0  0  0  0
  189.4720  174.2020  140.5880 C   0  0  0  0  0  3  0  0  0  0  0  0
  188.2850  174.7570  140.3610 C   0  0  0  0  0  3  0  0  0  0  0  0
  187.2050  177.5210  145.7900 C   0  0  0  0  0  0  0  0  0  0  0  0
  185.8020  177.9450  145.4540 C   0  0  1  0  0  3  0  0  0  0  0  0
  191.0770  175.7030  146.7450 N   0  0  0  0  0  0  0  0  0  0  0  0
  191.2470  174.7140  144.5730 C   0  0  0  0  0  3  0  0  0  0  0  0
  184.4720  178.4080  143.7360 N   0  0  0  0  0  0  0  0  0  0  0  0
  190.1600  174.3150  141.9200 C   0  0  0  0  0  2  0  0  0  0  0  0
  189.9410  175.3210  144.2260 C   0  0  0  0  0  0  0  0  0  0  0  0
  189.3940  175.1280  142.9460 C   0  0  0  0  0  0  0  0  0  0  0  0
  187.4300  176.4180  143.6070 C   0  0  0  0  0  0  0  0  0  0  0  0
  184.8230  179.6350  144.2940 N   0  0  0  0  0  2  0  0  0  0  0  0
  191.7940  174.9160  145.7730 C   0  0  0  0  0  0  0  0  0  0  0  0
  185.6290  179.4200  145.2720 C   0  0  0  0  0  2  0  0  0  0  0  0
  187.5980  175.5150  141.4170 C   0  0  0  0  0  3  0  0  0  0  0  0
  188.1330  175.6860  142.6340 C   0  0  0  0  0  0  0  0  0  0  0  0
  186.1580  176.9940  143.2920 N   0  0  0  0  0  2  0  0  0  0  0  0
  189.7910  176.2530  146.4100 C   0  0  0  0  0  3  0  0  0  0  0  0
  187.7000  177.9260  146.8770 O   0  0  0  0  0  0  0  0  0  0  0  0
  183.5440  178.2900  142.6250 C   0  0  0  0  0  1  0  0  0  0  0  0
  187.9810  176.6460  144.8720 C   0  0  0  0  0  0  0  0  0  0  0  0
  185.1870  177.3220  144.2620 N   0  0  1  0  0  0  0  0  0  0  0  0
  193.6170  173.4740  144.9940 C   0  0  0  0  0  2  0  0  0  0  0  0
  193.0750  174.2160  146.1340 C   0  0  1  0  0  3  0  0  0  0  0  0
  194.1910  174.7770  145.3520 N   0  0  0  0  0  0  0  0  0  0  0  0
  195.4020  174.5010  146.1040 C   0  0  0  0  0  2  0  0  0  0  0  0
  196.5790  174.5400  145.1930 C   0  0  0  0  0  0  0  0  0  0  0  0
  197.5220  173.7230  145.3490 O   0  0  0  0  0  1  0  0  0  0  0  0
  196.6170  175.4520  144.1480 O   0  0  0  0  0  0  0  0  0  0  0  0
  191.3050  177.1670  148.3680 C   0  0  0  0  0  1  0  0  0  0  0  0
  191.5390  175.8320  148.0150 O   0  0  0  0  0  0  0  0  0  0  0  0
  1 19  2  0  0  0  0
  2  9  1  0  0  0  0
  3  2  2  0  0  0  0
  3 16  1  0  0  0  0
  4 20  2  0  0  0  0
  5 15  1  6  0  0  0
  5  4  1  0  0  0  0
  6 32  1  0  0  0  0
  7 14  2  0  0  0  0
  8 23  1  0  0  0  0
  8 13  1  0  0  0  0
  9 11  1  0  0  0  0
 10  7  1  0  0  0  0
 10  1  1  0  0  0  0
 11 10  2  0  0  0  0
 12 22  2  0  0  0  0
 13 15  1  0  0  0  0
 14  6  1  0  0  0  0
 16 17  2  0  0  0  0
 17 11  1  0  0  0  0
 17 12  1  0  0  0  0
 18 12  1  0  0  0  0
 19  6  1  0  0  0  0
 21  8  1  0  0  0  0
 22  1  1  0  0  0  0
 22  4  1  0  0  0  0
 23 18  1  6  0  0  0
 23  5  1  0  0  0  0
 24 26  1  0  0  0  0
 24 25  1  0  0  0  0
 25 14  1  6  0  0  0
 26 27  1  0  0  0  0
 26 25  1  0  0  0  0
 28 29  1  0  0  0  0
 28 27  1  0  0  0  0
 30 28  2  0  0  0  0
 32 31  1  0  0  0  0
M  END
>  <MODEL>
3

>  <REMARK>
 VINA RESULT:      -8.0      3.607      9.536
  Name = 
  4 active torsions:
  status: ('A' for Active; 'I' for Inactive)
    1  A    between atoms: N_7  and  O_19
    2  A    between atoms: C_10  and  C_17
    3  A    between atoms: N_20  and  C_29
    4  A    between atoms: C_29  and  C_30
                            x       y       z     vdW  Elec       q    Type
                         _______ _______ _______ _____ _____    ______ ____

>  <TORSDO>
F 4

$$$$
=
 OpenBabel11112416403D

 32 37  0  0  1  0  0  0  0  0999 V2000
  188.7460  174.9630  141.8010 C   0  0  0  0  0  0  0  0  0  0  0  0
  189.7730  174.4670  146.6500 C   0  0  0  0  0  3  0  0  0  0  0  0
  188.9950  175.5240  146.8670 C   0  0  0  0  0  3  0  0  0  0  0  0
  187.1200  176.8240  141.1160 C   0  0  0  0  0  0  0  0  0  0  0  0
  186.4120  178.0990  141.4840 C   0  0  1  0  0  3  0  0  0  0  0  0
  189.7040  173.4050  140.2000 N   0  0  0  0  0  0  0  0  0  0  0  0
  190.2980  173.1250  142.5010 C   0  0  0  0  0  3  0  0  0  0  0  0
  185.4290  179.1300  143.1890 N   0  0  0  0  0  0  0  0  0  0  0  0
  190.0210  173.9340  145.2660 C   0  0  0  0  0  3  0  0  0  0  0  0
  189.4280  174.2750  142.8350 C   0  0  0  0  0  0  0  0  0  0  0  0
  189.2910  174.6890  144.1720 C   0  0  0  0  0  0  0  0  0  0  0  0
  187.8300  176.5050  143.4450 C   0  0  0  0  0  0  0  0  0  0  0  0
  184.4010  178.6720  142.3690 N   0  0  0  0  0  2  0  0  0  0  0  0
  190.4110  172.7010  141.2400 C   0  0  0  0  0  0  0  0  0  0  0  0
  184.9220  178.0280  141.3860 C   0  0  0  0  0  2  0  0  0  0  0  0
  188.3370  176.2120  145.7480 C   0  0  0  0  0  3  0  0  0  0  0  0
  188.4810  175.8070  144.4780 C   0  0  2  0  0  3  0  0  0  0  0  0
  187.0020  177.6310  143.7510 N   0  0  0  0  0  2  0  0  0  0  0  0
  188.8950  174.5460  140.5330 C   0  0  0  0  0  3  0  0  0  0  0  0
  187.0080  176.4080  139.9310 O   0  0  0  0  0  0  0  0  0  0  0  0
  185.1860  179.9270  144.3790 C   0  0  0  0  0  1  0  0  0  0  0  0
  187.9310  176.0810  142.1160 C   0  0  0  0  0  0  0  0  0  0  0  0
  186.6970  178.6520  142.8270 N   0  0  1  0  0  0  0  0  0  0  0  0
  191.3080  170.5200  141.9100 C   0  0  0  0  0  2  0  0  0  0  0  0
  191.3700  171.5900  140.9130 C   0  0  1  0  0  3  0  0  0  0  0  0
  190.6250  170.3530  140.6210 N   0  0  0  0  0  0  0  0  0  0  0  0
  191.4930  169.5320  139.7970 C   0  0  0  0  0  2  0  0  0  0  0  0
  190.7760  169.1280  138.5570 C   0  0  0  0  0  0  0  0  0  0  0  0
  189.6910  169.6860  138.2470 O   0  0  0  0  0  1  0  0  0  0  0  0
  191.3230  168.1660  137.7210 O   0  0  0  0  0  0  0  0  0  0  0  0
  188.6110  173.0990  138.3190 C   0  0  0  0  0  1  0  0  0  0  0  0
  189.8880  173.0840  138.8930 O   0  0  0  0  0  0  0  0  0  0  0  0
  1 22  1  0  0  0  0
  1 10  1  0  0  0  0
  2  3  1  0  0  0  0
  4  5  1  0  0  0  0
  4 22  1  0  0  0  0
  5 15  1  1  0  0  0
  5 23  1  0  0  0  0
  6 19  1  0  0  0  0
  6 14  1  0  0  0  0
  7 10  1  0  0  0  0
  8 21  1  0  0  0  0
  9  2  2  0  0  0  0
 10 11  2  0  0  0  0
 11 17  1  0  0  0  0
 11  9  1  0  0  0  0
 12 18  1  0  0  0  0
 12 17  1  0  0  0  0
 13  8  1  0  0  0  0
 14  7  2  0  0  0  0
 15 13  1  0  0  0  0
 16  3  2  0  0  0  0
 17 16  1  6  0  0  0
 19  1  2  0  0  0  0
 20  4  2  0  0  0  0
 22 12  2  0  0  0  0
 23  8  1  0  0  0  0
 23 18  1  1  0  0  0
 25 14  1  1  0  0  0
 25 24  1  0  0  0  0
 26 25  1  0  0  0  0
 26 24  1  0  0  0  0
 27 26  1  0  0  0  0
 28 27  1  0  0  0  0
 29 28  1  0  0  0  0
 30 28  2  0  0  0  0
 31 32  1  0  0  0  0
 32  6  1  0  0  0  0
M  END
>  <MODEL>
4

>  <REMARK>
 VINA RESULT:      -7.8      4.148      7.865
  Name = 
  4 active torsions:
  status: ('A' for Active; 'I' for Inactive)
    1  A    between atoms: N_7  and  O_19
    2  A    between atoms: C_10  and  C_17
    3  A    between atoms: N_20  and  C_29
    4  A    between atoms: C_29  and  C_30
                            x       y       z     vdW  Elec       q    Type
                         _______ _______ _______ _____ _____    ______ ____

>  <TORSDO>
F 4

$$$$
=
 OpenBabel11112416403D

 32 37  0  0  1  0  0  0  0  0999 V2000
  190.5760  175.5540  143.4040 C   0  0  0  0  0  0  0  0  0  0  0  0
  190.8110  177.1620  148.1130 C   0  0  0  0  0  3  0  0  0  0  0  0
  192.0990  176.8320  148.1040 C   0  0  0  0  0  3  0  0  0  0  0  0
  192.7470  174.7190  142.3250 C   0  0  0  0  0  0  0  0  0  0  0  0
  194.1600  174.2390  142.5090 C   0  0  1  0  0  3  0  0  0  0  0  0
  188.4720  175.6750  142.1920 N   0  0  0  0  0  0  0  0  0  0  0  0
  188.4770  176.4170  144.4670 C   0  0  0  0  0  3  0  0  0  0  0  0
  195.9820  174.5750  143.7350 N   0  0  0  0  0  0  0  0  0  0  0  0
  189.9260  176.9420  146.9180 C   0  0  0  0  0  3  0  0  0  0  0  0
  189.9240  176.1050  144.5340 C   0  0  0  0  0  0  0  0  0  0  0  0
  190.6400  176.3440  145.7210 C   0  0  0  0  0  0  0  0  0  0  0  0
  192.6500  175.4400  144.6710 C   0  0  0  0  0  0  0  0  0  0  0  0
  196.2330  175.1690  142.5010 N   0  0  0  0  0  2  0  0  0  0  0  0
  187.7930  176.2270  143.3380 C   0  0  0  0  0  0  0  0  0  0  0  0
  195.1860  175.0360  141.7670 C   0  0  0  0  0  2  0  0  0  0  0  0
  192.7120  176.2380  146.9080 C   0  0  0  0  0  3  0  0  0  0  0  0
  192.0130  176.0140  145.7850 C   0  0  2  0  0  3  0  0  0  0  0  0
  194.0430  175.1150  144.7280 N   0  0  0  0  0  2  0  0  0  0  0  0
  189.8670  175.3370  142.2840 C   0  0  0  0  0  3  0  0  0  0  0  0
  192.2530  174.6680  141.1660 O   0  0  0  0  0  0  0  0  0  0  0  0
  196.9760  174.5200  144.7940 C   0  0  0  0  0  1  0  0  0  0  0  0
  191.9560  175.2320  143.4750 C   0  0  0  0  0  0  0  0  0  0  0  0
  194.6560  174.1510  143.9010 N   0  0  1  0  0  0  0  0  0  0  0  0
  185.9080  177.4200  144.3540 C   0  0  0  0  0  2  0  0  0  0  0  0
  186.3080  176.4640  143.3200 C   0  0  1  0  0  3  0  0  0  0  0  0
  186.0280  177.8650  142.9600 N   0  0  0  0  0  0  0  0  0  0  0  0
  184.6820  177.8920  142.4180 C   0  0  0  0  0  2  0  0  0  0  0  0
  184.7250  178.2860  140.9830 C   0  0  0  0  0  0  0  0  0  0  0  0
  183.6750  178.6650  140.4020 O   0  0  0  0  0  1  0  0  0  0  0  0
  185.9310  178.2750  140.2970 O   0  0  0  0  0  0  0  0  0  0  0  0
  188.5630  174.3820  140.4180 C   0  0  0  0  0  1  0  0  0  0  0  0
  187.7880  175.3520  141.0650 O   0  0  0  0  0  0  0  0  0  0  0  0
  1 22  1  0  0  0  0
  1 10  1  0  0  0  0
  3  2  1  0  0  0  0
  4  5  1  0  0  0  0
  4 22  1  0  0  0  0
  5 15  1  6  0  0  0
  5 23  1  0  0  0  0
  6 19  1  0  0  0  0
  6 14  1  0  0  0  0
  7 10  1  0  0  0  0
  8 23  1  0  0  0  0
  8 21  1  0  0  0  0
  9  2  2  0  0  0  0
 10 11  2  0  0  0  0
 11 17  1  0  0  0  0
 11  9  1  0  0  0  0
 12 18  1  0  0  0  0
 12 17  1  0  0  0  0
 13  8  1  0  0  0  0
 14  7  2  0  0  0  0
 15 13  1  0  0  0  0
 16  3  2  0  0  0  0
 17 16  1  1  0  0  0
 19  1  2  0  0  0  0
 20  4  2  0  0  0  0
 22 12  2  0  0  0  0
 23 18  1  1  0  0  0
 25 14  1  1  0  0  0
 25 24  1  0  0  0  0
 26 25  1  0  0  0  0
 26 24  1  0  0  0  0
 27 26  1  0  0  0  0
 28 27  1  0  0  0  0
 29 28  1  0  0  0  0
 30 28  2  0  0  0  0
 31 32  1  0  0  0  0
 32  6  1  0  0  0  0
M  END
>  <MODEL>
5

>  <REMARK>
 VINA RESULT:      -7.6      2.688      5.004
  Name = 
  4 active torsions:
  status: ('A' for Active; 'I' for Inactive)
    1  A    between atoms: N_7  and  O_19
    2  A    between atoms: C_10  and  C_17
    3  A    between atoms: N_20  and  C_29
    4  A    between atoms: C_29  and  C_30
                            x       y       z     vdW  Elec       q    Type
                         _______ _______ _______ _____ _____    ______ ____

>  <TORSDO>
F 4

$$$$
=
 OpenBabel11112416403D

 32 37  0  0  1  0  0  0  0  0999 V2000
  187.7620  175.7690  141.5640 C   0  0  0  0  0  0  0  0  0  0  0  0
  190.2570  173.7770  145.3870 C   0  0  0  0  0  3  0  0  0  0  0  0
  190.6850  172.8380  144.5480 C   0  0  0  0  0  3  0  0  0  0  0  0
  188.0150  174.6530  139.2700 C   0  0  0  0  0  0  0  0  0  0  0  0
  188.4330  173.4430  138.4790 C   0  0  1  0  0  3  0  0  0  0  0  0
  186.4470  177.7860  141.9020 N   0  0  0  0  0  0  0  0  0  0  0  0
  187.5660  176.8680  143.8080 C   0  0  0  0  0  3  0  0  0  0  0  0
  189.9690  171.8390  138.4040 N   0  0  0  0  0  0  0  0  0  0  0  0
  189.3290  174.8740  144.9460 C   0  0  0  0  0  3  0  0  0  0  0  0
  188.1110  175.8010  142.9360 C   0  0  0  0  0  0  0  0  0  0  0  0
  188.9600  174.8190  143.4760 C   0  0  0  0  0  0  0  0  0  0  0  0
  189.0790  173.7420  141.2880 C   0  0  0  0  0  0  0  0  0  0  0  0
  190.3050  172.7430  137.4000 N   0  0  0  0  0  2  0  0  0  0  0  0
  186.7860  177.8260  143.3030 C   0  0  0  0  0  0  0  0  0  0  0  0
  189.4650  173.7160  137.4320 C   0  0  0  0  0  2  0  0  0  0  0  0
  190.2640  172.8440  143.1400 C   0  0  0  0  0  3  0  0  0  0  0  0
  189.4510  173.7870  142.6430 C   0  0  2  0  0  3  0  0  0  0  0  0
  189.5810  172.7050  140.4390 N   0  0  0  0  0  2  0  0  0  0  0  0
  186.9490  176.7210  141.0760 C   0  0  0  0  0  3  0  0  0  0  0  0
  187.4440  175.5930  138.6530 O   0  0  0  0  0  0  0  0  0  0  0  0
  190.7000  170.6040  138.6240 C   0  0  0  0  0  1  0  0  0  0  0  0
  188.2630  174.7340  140.7340 C   0  0  0  0  0  0  0  0  0  0  0  0
  188.9440  172.2890  139.2510 N   0  0  1  0  0  0  0  0  0  0  0  0
  184.7250  178.6540  144.3390 C   0  0  0  0  0  2  0  0  0  0  0  0
  186.1710  178.8450  144.2210 C   0  0  1  0  0  3  0  0  0  0  0  0
  185.6100  178.1760  145.4080 N   0  0  0  0  0  0  0  0  0  0  0  0
  185.5600  179.1750  146.4610 C   0  0  0  0  0  2  0  0  0  0  0  0
  186.1470  178.6180  147.7100 C   0  0  0  0  0  0  0  0  0  0  0  0
  185.9540  177.4120  148.0130 O   0  0  0  0  0  0  0  0  0  0  0  0
  186.9410  179.4170  148.5210 O   0  0  0  0  0  1  0  0  0  0  0  0
  184.7550  177.9200  140.5070 C   0  0  0  0  0  1  0  0  0  0  0  0
  185.5600  178.6680  141.3740 O   0  0  0  0  0  0  0  0  0  0  0  0
  1 10  1  0  0  0  0
  3  2  1  0  0  0  0
  4 22  1  0  0  0  0
  5 15  1  6  0  0  0
  5 23  1  0  0  0  0
  5  4  1  0  0  0  0
  6 14  1  0  0  0  0
  8 21  1  0  0  0  0
  8 23  1  0  0  0  0
  9  2  2  0  0  0  0
 10 11  2  0  0  0  0
 10  7  1  0  0  0  0
 11  9  1  0  0  0  0
 12 17  1  0  0  0  0
 13 15  1  0  0  0  0
 13  8  1  0  0  0  0
 14  7  2  0  0  0  0
 16  3  2  0  0  0  0
 17 16  1  1  0  0  0
 17 11  1  0  0  0  0
 18 12  1  0  0  0  0
 19  1  2  0  0  0  0
 19  6  1  0  0  0  0
 20  4  2  0  0  0  0
 22 12  2  0  0  0  0
 22  1  1  0  0  0  0
 23 18  1  1  0  0  0
 24 26  1  0  0  0  0
 25 14  1  6  0  0  0
 25 24  1  0  0  0  0
 25 26  1  0  0  0  0
 26 27  1  0  0  0  0
 27 28  1  0  0  0  0
 28 29  2  0  0  0  0
 28 30  1  0  0  0  0
 31 32  1  0  0  0  0
 32  6  1  0  0  0  0
M  END
>  <MODEL>
6

>  <REMARK>
 VINA RESULT:      -7.6      3.864      6.312
  Name = 
  4 active torsions:
  status: ('A' for Active; 'I' for Inactive)
    1  A    between atoms: N_7  and  O_19
    2  A    between atoms: C_10  and  C_17
    3  A    between atoms: N_20  and  C_29
    4  A    between atoms: C_29  and  C_30
                            x       y       z     vdW  Elec       q    Type
                         _______ _______ _______ _____ _____    ______ ____

>  <TORSDO>
F 4

$$$$
=
 OpenBabel11112416403D

 32 37  0  0  1  0  0  0  0  0999 V2000
  187.4620  177.2240  143.4660 C   0  0  0  0  0  0  0  0  0  0  0  0
  188.8480  174.1490  139.8010 C   0  0  0  0  0  3  0  0  0  0  0  0
  189.8770  173.7910  140.5640 C   0  0  0  0  0  3  0  0  0  0  0  0
  188.8650  177.2220  145.6120 C   0  0  0  0  0  0  0  0  0  0  0  0
  190.1550  176.8540  146.2920 C   0  0  1  0  0  3  0  0  0  0  0  0
  185.4600  178.5800  143.2100 N   0  0  0  0  0  0  0  0  0  0  0  0
  186.0820  177.1750  141.3750 C   0  0  0  0  0  3  0  0  0  0  0  0
  191.7050  175.2650  146.3730 N   0  0  0  0  0  0  0  0  0  0  0  0
  187.8490  175.1800  140.2460 C   0  0  0  0  0  2  0  0  0  0  0  0
  187.2370  176.6980  142.1700 C   0  0  0  0  0  0  0  0  0  0  0  0
  188.1120  175.7380  141.6320 C   0  0  0  0  0  0  0  0  0  0  0  0
  189.4660  175.8570  143.6600 C   0  0  0  0  0  0  0  0  0  0  0  0
  190.9330  175.1090  147.5200 N   0  0  0  0  0  2  0  0  0  0  0  0
  185.2240  178.0610  141.8860 C   0  0  0  0  0  0  0  0  0  0  0  0
  189.9920  175.9850  147.4980 C   0  0  0  0  0  2  0  0  0  0  0  0
  190.0720  174.3940  141.8900 C   0  0  0  0  0  3  0  0  0  0  0  0
  189.2290  175.3110  142.3860 C   0  0  0  0  0  0  0  0  0  0  0  0
  190.5890  175.4210  144.4310 N   0  0  0  0  0  2  0  0  0  0  0  0
  186.6100  178.1400  143.9550 C   0  0  0  0  0  3  0  0  0  0  0  0
  188.0340  177.9150  146.2590 O   0  0  0  0  0  0  0  0  0  0  0  0
  192.8770  174.4500  146.1000 C   0  0  0  0  0  1  0  0  0  0  0  0
  188.5820  176.7870  144.2190 C   0  0  0  0  0  0  0  0  0  0  0  0
  191.1800  176.1890  145.4570 N   0  0  1  0  0  0  0  0  0  0  0  0
  183.5800  177.5670  140.1360 C   0  0  0  0  0  2  0  0  0  0  0  0
  184.1120  178.5980  141.0290 C   0  0  1  0  0  3  0  0  0  0  0  0
  182.8480  177.9160  141.3600 N   0  0  0  0  0  0  0  0  0  0  0  0
  181.7780  178.8110  140.9590 C   0  0  0  0  0  2  0  0  0  0  0  0
  180.6250  178.6640  141.8890 C   0  0  0  0  0  0  0  0  0  0  0  0
  179.7160  177.8310  141.6380 O   0  0  0  0  0  0  0  0  0  0  0  0
  180.5730  179.4160  143.0540 O   0  0  0  0  0  1  0  0  0  0  0  0
  184.0930  179.0350  144.8690 C   0  0  0  0  0  1  0  0  0  0  0  0
  184.6840  179.5720  143.7180 O   0  0  0  0  0  0  0  0  0  0  0  0
  1 19  2  0  0  0  0
  1 22  1  0  0  0  0
  2  9  1  0  0  0  0
  2  3  2  0  0  0  0
  3 16  1  0  0  0  0
  4 20  2  0  0  0  0
  4  5  1  0  0  0  0
  5 15  1  1  0  0  0
  6 32  1  0  0  0  0
  6 19  1  0  0  0  0
  7 14  2  0  0  0  0
  7 10  1  0  0  0  0
  8 13  1  0  0  0  0
  9 11  1  0  0  0  0
 10  1  1  0  0  0  0
 11 10  2  0  0  0  0
 11 17  1  0  0  0  0
 12 22  2  0  0  0  0
 12 18  1  0  0  0  0
 14  6  1  0  0  0  0
 15 13  1  0  0  0  0
 16 17  2  0  0  0  0
 17 12  1  0  0  0  0
 21  8  1  0  0  0  0
 22  4  1  0  0  0  0
 23 18  1  6  0  0  0
 23  5  1  0  0  0  0
 23  8  1  0  0  0  0
 24 25  1  0  0  0  0
 24 26  1  0  0  0  0
 25 26  1  0  0  0  0
 25 14  1  1  0  0  0
 27 26  1  0  0  0  0
 27 28  1  0  0  0  0
 28 30  1  0  0  0  0
 29 28  2  0  0  0  0
 32 31  1  0  0  0  0
M  END
>  <MODEL>
7

>  <REMARK>
 VINA RESULT:      -7.6      1.994      4.038
  Name = 
  4 active torsions:
  status: ('A' for Active; 'I' for Inactive)
    1  A    between atoms: N_7  and  O_19
    2  A    between atoms: C_10  and  C_17
    3  A    between atoms: N_20  and  C_29
    4  A    between atoms: C_29  and  C_30
                            x       y       z     vdW  Elec       q    Type
                         _______ _______ _______ _____ _____    ______ ____

>  <TORSDO>
F 4

$$$$
=
 OpenBabel11112416403D

 32 37  0  0  1  0  0  0  0  0999 V2000
  188.7870  176.6960  144.5340 C   0  0  0  0  0  0  0  0  0  0  0  0
  188.5420  174.1950  140.2330 C   0  0  0  0  0  3  0  0  0  0  0  0
  189.8240  173.8810  140.4050 C   0  0  0  0  0  3  0  0  0  0  0  0
  191.0060  176.6360  145.8180 C   0  0  0  0  0  0  0  0  0  0  0  0
  192.4830  176.3510  145.7990 C   0  0  1  0  0  3  0  0  0  0  0  0
  186.8120  177.8300  145.3830 N   0  0  0  0  0  0  0  0  0  0  0  0
  186.6170  176.7020  143.2820 C   0  0  0  0  0  3  0  0  0  0  0  0
  193.9910  174.9520  144.9600 N   0  0  0  0  0  0  0  0  0  0  0  0
  187.7950  175.0520  141.2160 C   0  0  0  0  0  2  0  0  0  0  0  0
  188.0320  176.2830  143.4090 C   0  0  0  0  0  0  0  0  0  0  0  0
  188.6230  175.4910  142.4090 C   0  0  0  0  0  0  0  0  0  0  0  0
  190.7370  175.5570  143.6270 C   0  0  0  0  0  0  0  0  0  0  0  0
  193.8300  174.5920  146.2950 N   0  0  0  0  0  2  0  0  0  0  0  0
  186.0330  177.4260  144.2390 C   0  0  0  0  0  0  0  0  0  0  0  0
  192.9320  175.3500  146.8150 C   0  0  0  0  0  2  0  0  0  0  0  0
  190.5610  174.3630  141.5810 C   0  0  0  0  0  3  0  0  0  0  0  0
  189.9820  175.1210  142.5240 C   0  0  0  0  0  0  0  0  0  0  0  0
  192.1110  175.1770  143.7530 N   0  0  0  0  0  2  0  0  0  0  0  0
  188.1970  177.4520  145.4740 C   0  0  0  0  0  3  0  0  0  0  0  0
  190.5190  177.1580  146.8570 O   0  0  0  0  0  0  0  0  0  0  0  0
  194.9570  174.3110  144.0850 C   0  0  0  0  0  1  0  0  0  0  0  0
  190.1500  176.3160  144.6450 C   0  0  0  0  0  0  0  0  0  0  0  0
  193.0560  175.8980  144.5130 N   0  0  1  0  0  0  0  0  0  0  0  0
  184.5870  179.3650  143.8420 C   0  0  0  0  0  2  0  0  0  0  0  0
  184.6250  177.9160  144.0470 C   0  0  1  0  0  3  0  0  0  0  0  0
  184.4660  178.4650  142.6890 N   0  0  0  0  0  0  0  0  0  0  0  0
  183.0510  178.3860  142.3730 C   0  0  0  0  0  2  0  0  0  0  0  0
  182.8730  178.1770  140.9110 C   0  0  0  0  0  0  0  0  0  0  0  0
  181.7170  178.1670  140.4130 O   0  0  0  0  0  1  0  0  0  0  0  0
  183.9820  178.0340  140.0900 O   0  0  0  0  0  0  0  0  0  0  0  0
  186.0420  177.8690  147.4410 C   0  0  0  0  0  1  0  0  0  0  0  0
  186.2940  178.6680  146.3180 O   0  0  0  0  0  0  0  0  0  0  0  0
  1 22  1  0  0  0  0
  1 19  2  0  0  0  0
  2  3  2  0  0  0  0
  2  9  1  0  0  0  0
  3 16  1  0  0  0  0
  4 20  2  0  0  0  0
  5  4  1  0  0  0  0
  5 15  1  1  0  0  0
  6 19  1  0  0  0  0
  6 32  1  0  0  0  0
  7 10  1  0  0  0  0
  7 14  2  0  0  0  0
  8 13  1  0  0  0  0
  9 11  1  0  0  0  0
 10  1  1  0  0  0  0
 11 17  1  0  0  0  0
 11 10  2  0  0  0  0
 12 18  1  0  0  0  0
 12 22  2  0  0  0  0
 13 15  1  0  0  0  0
 14  6  1  0  0  0  0
 16 17  2  0  0  0  0
 17 12  1  0  0  0  0
 21  8  1  0  0  0  0
 22  4  1  0  0  0  0
 23 18  1  6  0  0  0
 23  8  1  0  0  0  0
 23  5  1  0  0  0  0
 24 25  1  0  0  0  0
 25 14  1  6  0  0  0
 26 24  1  0  0  0  0
 26 25  1  0  0  0  0
 27 26  1  0  0  0  0
 28 27  1  0  0  0  0
 29 28  1  0  0  0  0
 30 28  2  0  0  0  0
 32 31  1  0  0  0  0
M  END
>  <MODEL>
8

>  <REMARK>
 VINA RESULT:      -7.5      2.380      4.857
  Name = 
  4 active torsions:
  status: ('A' for Active; 'I' for Inactive)
    1  A    between atoms: N_7  and  O_19
    2  A    between atoms: C_10  and  C_17
    3  A    between atoms: N_20  and  C_29
    4  A    between atoms: C_29  and  C_30
                            x       y       z     vdW  Elec       q    Type
                         _______ _______ _______ _____ _____    ______ ____

>  <TORSDO>
F 4

$$$$
=
 OpenBabel11112416403D

 32 37  0  0  1  0  0  0  0  0999 V2000
  187.7900  175.7270  141.5590 C   0  0  0  0  0  0  0  0  0  0  0  0
  190.4440  173.8200  145.3180 C   0  0  0  0  0  3  0  0  0  0  0  0
  189.8340  174.6900  146.1180 C   0  0  0  0  0  3  0  0  0  0  0  0
  186.1000  177.5740  142.1150 C   0  0  0  0  0  0  0  0  0  0  0  0
  185.6180  178.6080  143.0940 C   0  0  1  0  0  3  0  0  0  0  0  0
  188.0610  174.8310  139.3150 N   0  0  0  0  0  0  0  0  0  0  0  0
  189.4180  173.8920  141.0480 C   0  0  0  0  0  3  0  0  0  0  0  0
  185.3400  178.9720  145.2680 N   0  0  0  0  0  0  0  0  0  0  0  0
  190.1670  173.7680  143.8410 C   0  0  0  0  0  2  0  0  0  0  0  0
  188.7660  174.8060  142.0130 C   0  0  0  0  0  0  0  0  0  0  0  0
  189.1260  174.7670  143.3720 C   0  0  0  0  0  0  0  0  0  0  0  0
  187.5750  176.5980  143.8200 C   0  0  0  0  0  0  0  0  0  0  0  0
  184.0720  178.7130  144.7550 N   0  0  0  0  0  2  0  0  0  0  0  0
  189.0620  173.8940  139.7620 C   0  0  0  0  0  0  0  0  0  0  0  0
  184.1870  178.4540  143.5010 C   0  0  0  0  0  2  0  0  0  0  0  0
  188.8500  175.6400  145.5800 C   0  0  0  0  0  3  0  0  0  0  0  0
  188.5210  175.6650  144.2810 C   0  0  0  0  0  0  0  0  0  0  0  0
  186.9520  177.5020  144.7390 N   0  0  0  0  0  2  0  0  0  0  0  0
  187.4660  175.7420  140.2550 C   0  0  0  0  0  3  0  0  0  0  0  0
  185.5610  177.5420  140.9760 O   0  0  0  0  0  0  0  0  0  0  0  0
  185.5650  179.3330  146.6570 C   0  0  0  0  0  1  0  0  0  0  0  0
  187.1830  176.6210  142.4780 C   0  0  0  0  0  0  0  0  0  0  0  0
  186.3790  178.7340  144.3570 N   0  0  1  0  0  0  0  0  0  0  0  0
  190.9220  172.3340  139.4250 C   0  0  0  0  0  2  0  0  0  0  0  0
  189.8000  173.0220  138.7850 C   0  0  1  0  0  3  0  0  0  0  0  0
  189.6710  171.6080  139.1770 N   0  0  0  0  0  0  0  0  0  0  0  0
  189.8800  170.8230  137.9740 C   0  0  0  0  0  2  0  0  0  0  0  0
  190.3420  169.4560  138.3380 C   0  0  0  0  0  0  0  0  0  0  0  0
  190.3110  169.0800  139.5390 O   0  0  0  0  0  1  0  0  0  0  0  0
  190.7700  168.5820  137.3490 O   0  0  0  0  0  0  0  0  0  0  0  0
  186.8800  176.0380  137.9100 C   0  0  0  0  0  1  0  0  0  0  0  0
  187.7580  174.9510  137.9970 O   0  0  0  0  0  0  0  0  0  0  0  0
  1 10  1  0  0  0  0
  1 22  1  0  0  0  0
  2  3  2  0  0  0  0
  4 22  1  0  0  0  0
  4  5  1  0  0  0  0
  5 15  1  1  0  0  0
  5 23  1  0  0  0  0
  6 14  1  0  0  0  0
  6 19  1  0  0  0  0
  7 10  1  0  0  0  0
  8 21  1  0  0  0  0
  9  2  1  0  0  0  0
 10 11  2  0  0  0  0
 11  9  1  0  0  0  0
 11 17  1  0  0  0  0
 12 17  1  0  0  0  0
 12 18  1  0  0  0  0
 13  8  1  0  0  0  0
 14  7  2  0  0  0  0
 15 13  1  0  0  0  0
 16  3  1  0  0  0  0
 17 16  2  0  0  0  0
 19  1  2  0  0  0  0
 20  4  2  0  0  0  0
 22 12  2  0  0  0  0
 23 18  1  1  0  0  0
 23  8  1  0  0  0  0
 25 26  1  0  0  0  0
 25 24  1  0  0  0  0
 25 14  1  1  0  0  0
 26 24  1  0  0  0  0
 27 28  1  0  0  0  0
 27 26  1  0  0  0  0
 28 29  1  0  0  0  0
 30 28  2  0  0  0  0
 31 32  1  0  0  0  0
 32  6  1  0  0  0  0
M  END
>  <MODEL>
9

>  <REMARK>
 VINA RESULT:      -7.5      3.986      7.361
  Name = 
  4 active torsions:
  status: ('A' for Active; 'I' for Inactive)
    1  A    between atoms: N_7  and  O_19
    2  A    between atoms: C_10  and  C_17
    3  A    between atoms: N_20  and  C_29
    4  A    between atoms: C_29  and  C_30
                            x       y       z     vdW  Elec       q    Type
                         _______ _______ _______ _____ _____    ______ ____

>  <TORSDO>
F 4

$$$$
