=
 OpenBabel11112417373D

 28 31  0  0  1  0  0  0  0  0999 V2000
  187.8620  177.5890  144.5700 C   0  0  0  0  0  0  0  0  0  0  0  0
  190.8520  177.8040  147.3410 O   0  0  0  0  0  0  0  0  0  0  0  0
  185.7610  176.9860  146.3200 C   0  0  0  0  0  3  0  0  0  0  0  0
  188.9110  177.8830  143.6990 O   0  0  0  0  0  0  0  0  0  0  0  0
  190.5160  175.4440  147.9540 O   0  0  0  0  0  0  0  0  0  0  0  0
  191.1080  176.3800  146.9360 S   0  0  0  0  0  0  0  0  0  0  0  0
  193.2430  176.4530  145.4360 C   0  0  1  0  0  3  0  0  0  0  0  0
  190.4330  176.0720  145.3250 C   0  0  1  0  0  3  0  0  0  0  0  0
  186.8380  177.0490  141.5250 O   0  0  0  0  0  1  0  0  0  0  0  0
  189.1180  174.5690  144.0200 C   0  0  2  0  0  3  0  0  0  0  0  0
  192.6660  175.5110  144.3510 C   0  0  0  0  0  2  0  0  0  0  0  0
  192.8200  176.0930  146.7960 N   0  0  0  0  0  2  0  0  0  0  0  0
  188.2280  177.1750  141.4730 C   0  0  2  0  0  3  0  0  0  0  0  0
  187.9330  176.4410  145.3840 C   0  0  0  0  0  0  0  0  0  0  0  0
  194.7540  176.4580  145.3550 C   0  0  0  0  0  1  0  0  0  0  0  0
  188.9360  175.8480  141.7800 C   0  0  0  0  0  2  0  0  0  0  0  0
  186.8760  176.1470  146.2510 C   0  0  0  0  0  3  0  0  0  0  0  0
  186.7350  178.4210  144.6330 C   0  0  0  0  0  3  0  0  0  0  0  0
  185.6880  178.1200  145.5080 C   0  0  0  0  0  3  0  0  0  0  0  0
  188.7010  178.3240  142.3640 C   0  0  0  0  0  2  0  0  0  0  0  0
  190.5260  174.4230  143.6150 N   0  0  0  0  0  0  0  0  0  0  0  0
  188.2150  175.0140  142.8500 C   0  0  1  0  0  3  0  0  0  0  0  0
  191.2770  174.9920  144.7250 C   0  0  2  0  0  3  0  0  0  0  0  0
  189.0680  175.4510  145.2880 C   0  0  2  0  0  3  0  0  0  0  0  0
  188.3240  173.7300  141.0510 C   0  0  0  0  0  1  0  0  0  0  0  0
  187.6330  173.8950  142.2530 O   0  0  0  0  0  0  0  0  0  0  0  0
  190.8180  172.9990  143.5890 C   0  0  0  0  0  2  0  0  0  0  0  0
  189.9550  172.2780  144.6050 C   0  0  0  0  0  1  0  0  0  0  0  0
  1 18  2  0  0  0  0
  1 14  1  0  0  0  0
  4  1  1  0  0  0  0
  6  2  2  0  0  0  0
  6  5  2  0  0  0  0
  7 15  1  1  0  0  0
  7 12  1  0  0  0  0
  8  6  1  1  0  0  0
 10 21  1  6  0  0  0
 10 24  1  0  0  0  0
 11  7  1  0  0  0  0
 12  6  1  0  0  0  0
 13  9  1  1  0  0  0
 13 16  1  0  0  0  0
 13 20  1  0  0  0  0
 14 17  2  0  0  0  0
 16 22  1  0  0  0  0
 17  3  1  0  0  0  0
 18 19  1  0  0  0  0
 19  3  2  0  0  0  0
 20  4  1  0  0  0  0
 21 23  1  0  0  0  0
 22 26  1  6  0  0  0
 22 10  1  0  0  0  0
 23 11  1  6  0  0  0
 23  8  1  0  0  0  0
 24  8  1  0  0  0  0
 24 14  1  6  0  0  0
 25 26  1  0  0  0  0
 27 21  1  0  0  0  0
 27 28  1  0  0  0  0
M  END
>  <MODEL>
1

>  <REMARK>
 VINA RESULT:      -7.1      0.000      0.000
  Name = 
  2 active torsions:
  status: ('A' for Active; 'I' for Inactive)
    1  A    between atoms: C_5  and  N_24
    2  A    between atoms: O_17  and  C_25
                            x       y       z     vdW  Elec       q    Type
                         _______ _______ _______ _____ _____    ______ ____

>  <TORSDO>
F 2

$$$$
=
 OpenBabel11112417373D

 28 31  0  0  1  0  0  0  0  0999 V2000
  189.3590  176.2140  144.6490 C   0  0  0  0  0  0  0  0  0  0  0  0
  193.3370  176.8700  145.2920 O   0  0  0  0  0  0  0  0  0  0  0  0
  188.7530  175.0710  147.1330 C   0  0  0  0  0  3  0  0  0  0  0  0
  189.6640  176.7770  143.4100 O   0  0  0  0  0  0  0  0  0  0  0  0
  193.7370  174.4580  145.5690 O   0  0  0  0  0  0  0  0  0  0  0  0
  193.5020  175.5610  144.5740 S   0  0  0  0  0  0  0  0  0  0  0  0
  194.3510  176.1770  142.1840 C   0  0  1  0  0  3  0  0  0  0  0  0
  192.0720  175.2240  143.5810 C   0  0  1  0  0  3  0  0  0  0  0  0
  186.8540  175.6700  142.6390 O   0  0  0  0  0  1  0  0  0  0  0  0
  190.4630  173.5660  142.9840 C   0  0  2  0  0  3  0  0  0  0  0  0
  193.3890  175.2080  141.4560 C   0  0  0  0  0  2  0  0  0  0  0  0
  194.8410  175.6480  143.4640 N   0  0  0  0  0  2  0  0  0  0  0  0
  187.9280  176.0880  141.8500 C   0  0  2  0  0  3  0  0  0  0  0  0
  190.0400  175.0550  145.0750 C   0  0  0  0  0  0  0  0  0  0  0  0
  195.5220  176.5040  141.2830 C   0  0  0  0  0  1  0  0  0  0  0  0
  188.8550  174.9210  141.4800 C   0  0  0  0  0  2  0  0  0  0  0  0
  189.7260  174.4910  146.3150 C   0  0  0  0  0  3  0  0  0  0  0  0
  188.3740  176.7850  145.4680 C   0  0  0  0  0  3  0  0  0  0  0  0
  188.0740  176.2160  146.7080 C   0  0  0  0  0  3  0  0  0  0  0  0
  188.6670  177.2500  142.5140 C   0  0  0  0  0  2  0  0  0  0  0  0
  191.3850  173.7450  141.8510 N   0  0  0  0  0  0  0  0  0  0  0  0
  189.0010  173.8870  142.6060 C   0  0  1  0  0  3  0  0  0  0  0  0
  192.5530  174.3860  142.4390 C   0  0  2  0  0  3  0  0  0  0  0  0
  191.0340  174.3340  144.1980 C   0  0  2  0  0  3  0  0  0  0  0  0
  188.1280  172.8250  140.8730 C   0  0  0  0  0  1  0  0  0  0  0  0
  188.3390  172.7120  142.2480 O   0  0  0  0  0  0  0  0  0  0  0  0
  191.7980  172.4190  141.4210 C   0  0  0  0  0  2  0  0  0  0  0  0
  191.6510  172.2960  139.9170 C   0  0  0  0  0  1  0  0  0  0  0  0
  1 14  2  0  0  0  0
  1 18  1  0  0  0  0
  4  1  1  0  0  0  0
  6  2  2  0  0  0  0
  6  5  2  0  0  0  0
  7 15  1  6  0  0  0
  7 12  1  0  0  0  0
  8 24  1  0  0  0  0
  8  6  1  1  0  0  0
 10 21  1  6  0  0  0
 10 24  1  0  0  0  0
 11  7  1  0  0  0  0
 12  6  1  0  0  0  0
 13 20  1  0  0  0  0
 13  9  1  1  0  0  0
 14 17  1  0  0  0  0
 16 13  1  0  0  0  0
 16 22  1  0  0  0  0
 17  3  2  0  0  0  0
 18 19  2  0  0  0  0
 19  3  1  0  0  0  0
 20  4  1  0  0  0  0
 21 23  1  0  0  0  0
 22 26  1  6  0  0  0
 22 10  1  0  0  0  0
 23 11  1  6  0  0  0
 23  8  1  0  0  0  0
 24 14  1  6  0  0  0
 25 26  1  0  0  0  0
 27 21  1  0  0  0  0
 28 27  1  0  0  0  0
M  END
>  <MODEL>
2

>  <REMARK>
 VINA RESULT:      -7.0      2.278      2.788
  Name = 
  2 active torsions:
  status: ('A' for Active; 'I' for Inactive)
    1  A    between atoms: C_5  and  N_24
    2  A    between atoms: O_17  and  C_25
                            x       y       z     vdW  Elec       q    Type
                         _______ _______ _______ _____ _____    ______ ____

>  <TORSDO>
F 2

$$$$
=
 OpenBabel11112417373D

 28 31  0  0  1  0  0  0  0  0999 V2000
  188.6260  175.8190  145.0280 C   0  0  0  0  0  0  0  0  0  0  0  0
  187.6010  173.1990  142.0690 O   0  0  0  0  0  0  0  0  0  0  0  0
  187.5310  178.1310  143.8870 C   0  0  0  0  0  3  0  0  0  0  0  0
  189.1760  174.6680  145.5910 O   0  0  0  0  0  0  0  0  0  0  0  0
  188.9740  174.4300  140.4400 O   0  0  0  0  0  0  0  0  0  0  0  0
  189.0000  173.4540  141.5830 S   0  0  0  0  0  0  0  0  0  0  0  0
  190.3650  171.3270  142.2370 C   0  0  1  0  0  3  0  0  0  0  0  0
  190.0070  174.0600  142.9110 C   0  0  1  0  0  3  0  0  0  0  0  0
  190.5620  176.7170  147.4890 O   0  0  0  0  0  1  0  0  0  0  0  0
  191.5930  175.7250  143.5490 C   0  0  2  0  0  3  0  0  0  0  0  0
  191.5780  172.1190  142.7820 C   0  0  0  0  0  2  0  0  0  0  0  0
  189.7390  171.9630  141.0700 N   0  0  0  0  0  2  0  0  0  0  0  0
  190.8500  175.3790  147.2090 C   0  0  2  0  0  3  0  0  0  0  0  0
  189.0520  176.2440  143.7530 C   0  0  0  0  0  0  0  0  0  0  0  0
  190.7940  169.9190  141.8840 C   0  0  0  0  0  1  0  0  0  0  0  0
  191.8720  175.2380  146.0720 C   0  0  0  0  0  2  0  0  0  0  0  0
  188.5020  177.4020  143.1950 C   0  0  0  0  0  3  0  0  0  0  0  0
  187.6610  176.5610  145.7230 C   0  0  0  0  0  3  0  0  0  0  0  0
  187.1140  177.7130  145.1530 C   0  0  0  0  0  3  0  0  0  0  0  0
  189.5640  174.5900  146.9560 C   0  0  0  0  0  2  0  0  0  0  0  0
  192.3010  174.4420  143.4060 N   0  0  0  0  0  0  0  0  0  0  0  0
  191.7050  176.3010  144.9760 C   0  0  1  0  0  3  0  0  0  0  0  0
  191.4050  173.6280  142.5980 C   0  0  2  0  0  3  0  0  0  0  0  0
  190.1590  175.5500  142.9990 C   0  0  2  0  0  3  0  0  0  0  0  0
  193.7120  176.5890  145.8610 C   0  0  0  0  0  1  0  0  0  0  0  0
  192.7680  177.2030  145.0370 O   0  0  0  0  0  0  0  0  0  0  0  0
  193.4870  174.6930  142.6050 C   0  0  0  0  0  2  0  0  0  0  0  0
  194.7080  174.1190  143.2970 C   0  0  0  0  0  1  0  0  0  0  0  0
  1  4  1  0  0  0  0
  1 18  1  0  0  0  0
  3 19  1  0  0  0  0
  4 20  1  0  0  0  0
  5  6  2  0  0  0  0
  6  2  2  0  0  0  0
  7 15  1  6  0  0  0
  7 11  1  0  0  0  0
  8  6  1  6  0  0  0
  8 24  1  0  0  0  0
 10 21  1  1  0  0  0
 10 22  1  0  0  0  0
 12  6  1  0  0  0  0
 12  7  1  0  0  0  0
 13  9  1  6  0  0  0
 14  1  2  0  0  0  0
 16 13  1  0  0  0  0
 17 14  1  0  0  0  0
 17  3  2  0  0  0  0
 19 18  2  0  0  0  0
 20 13  1  0  0  0  0
 22 26  1  6  0  0  0
 22 16  1  0  0  0  0
 23 11  1  1  0  0  0
 23  8  1  0  0  0  0
 23 21  1  0  0  0  0
 24 10  1  0  0  0  0
 24 14  1  1  0  0  0
 26 25  1  0  0  0  0
 27 28  1  0  0  0  0
 27 21  1  0  0  0  0
M  END
>  <MODEL>
3

>  <REMARK>
 VINA RESULT:      -6.9      2.248      5.197
  Name = 
  2 active torsions:
  status: ('A' for Active; 'I' for Inactive)
    1  A    between atoms: C_5  and  N_24
    2  A    between atoms: O_17  and  C_25
                            x       y       z     vdW  Elec       q    Type
                         _______ _______ _______ _____ _____    ______ ____

>  <TORSDO>
F 2

$$$$
=
 OpenBabel11112417373D

 28 31  0  0  1  0  0  0  0  0999 V2000
  190.8840  176.8180  145.0170 C   0  0  0  0  0  0  0  0  0  0  0  0
  194.8930  177.5440  145.2730 O   0  0  0  0  0  0  0  0  0  0  0  0
  190.4410  176.1640  147.7040 C   0  0  0  0  0  3  0  0  0  0  0  0
  191.1080  177.1370  143.6780 O   0  0  0  0  0  0  0  0  0  0  0  0
  195.3160  175.2220  145.9690 O   0  0  0  0  0  0  0  0  0  0  0  0
  195.0150  176.1220  144.8030 S   0  0  0  0  0  0  0  0  0  0  0  0
  195.7080  176.2740  142.2910 C   0  0  1  0  0  3  0  0  0  0  0  0
  193.5250  175.6200  143.9830 C   0  0  1  0  0  3  0  0  0  0  0  0
  188.2560  175.9330  143.3070 O   0  0  0  0  0  1  0  0  0  0  0  0
  191.8850  173.8960  143.8090 C   0  0  2  0  0  3  0  0  0  0  0  0
  194.7030  175.1950  141.8180 C   0  0  0  0  0  2  0  0  0  0  0  0
  196.2800  175.9890  143.6130 N   0  0  0  0  0  2  0  0  0  0  0  0
  189.2770  176.1860  142.3880 C   0  0  2  0  0  3  0  0  0  0  0  0
  191.5930  175.7530  145.6070 C   0  0  0  0  0  0  0  0  0  0  0  0
  196.8180  176.4160  141.2720 C   0  0  0  0  0  1  0  0  0  0  0  0
  190.1810  174.9630  142.1830 C   0  0  0  0  0  2  0  0  0  0  0  0
  191.3610  175.4320  146.9490 C   0  0  0  0  0  3  0  0  0  0  0  0
  189.9530  177.5410  145.7760 C   0  0  0  0  0  3  0  0  0  0  0  0
  189.7340  177.2160  147.1160 C   0  0  0  0  0  3  0  0  0  0  0  0
  190.0550  177.4450  142.7750 C   0  0  0  0  0  2  0  0  0  0  0  0
  192.7330  173.8520  142.6060 N   0  0  0  0  0  0  0  0  0  0  0  0
  190.4010  174.1550  143.4710 C   0  0  1  0  0  3  0  0  0  0  0  0
  193.9340  174.5790  142.9890 C   0  0  2  0  0  3  0  0  0  0  0  0
  192.5310  174.8710  144.8190 C   0  0  2  0  0  3  0  0  0  0  0  0
  189.8710  172.3510  144.6380 C   0  0  0  0  0  1  0  0  0  0  0  0
  189.7210  172.9400  143.3810 O   0  0  0  0  0  0  0  0  0  0  0  0
  193.1200  172.4650  142.4060 C   0  0  0  0  0  2  0  0  0  0  0  0
  192.3890  171.8940  141.2070 C   0  0  0  0  0  1  0  0  0  0  0  0
  1 14  2  0  0  0  0
  1 18  1  0  0  0  0
  4  1  1  0  0  0  0
  6  2  2  0  0  0  0
  6  5  2  0  0  0  0
  7 15  1  6  0  0  0
  7 12  1  0  0  0  0
  8  6  1  1  0  0  0
  8 24  1  0  0  0  0
 10 21  1  6  0  0  0
 10 24  1  0  0  0  0
 11  7  1  0  0  0  0
 12  6  1  0  0  0  0
 13 20  1  0  0  0  0
 13  9  1  1  0  0  0
 14 17  1  0  0  0  0
 16 13  1  0  0  0  0
 16 22  1  0  0  0  0
 17  3  2  0  0  0  0
 18 19  2  0  0  0  0
 19  3  1  0  0  0  0
 20  4  1  0  0  0  0
 21 23  1  0  0  0  0
 22 26  1  6  0  0  0
 22 10  1  0  0  0  0
 23 11  1  6  0  0  0
 23  8  1  0  0  0  0
 24 14  1  6  0  0  0
 26 25  1  0  0  0  0
 27 21  1  0  0  0  0
 28 27  1  0  0  0  0
M  END
>  <MODEL>
4

>  <REMARK>
 VINA RESULT:      -6.8      2.707      3.595
  Name = 
  2 active torsions:
  status: ('A' for Active; 'I' for Inactive)
    1  A    between atoms: C_5  and  N_24
    2  A    between atoms: O_17  and  C_25
                            x       y       z     vdW  Elec       q    Type
                         _______ _______ _______ _____ _____    ______ ____

>  <TORSDO>
F 2

$$$$
=
 OpenBabel11112417373D

 28 31  0  0  1  0  0  0  0  0999 V2000
  192.5230  174.0060  143.6980 C   0  0  0  0  0  0  0  0  0  0  0  0
  189.7090  173.9560  140.7410 O   0  0  0  0  0  0  0  0  0  0  0  0
  192.6470  171.2470  144.1560 C   0  0  0  0  0  3  0  0  0  0  0  0
  192.4550  175.3810  143.4740 O   0  0  0  0  0  0  0  0  0  0  0  0
  188.0510  172.9760  142.2720 O   0  0  0  0  0  0  0  0  0  0  0  0
  188.7560  174.2400  141.8670 S   0  0  0  0  0  0  0  0  0  0  0  0
  188.1470  176.7690  141.6460 C   0  0  1  0  0  3  0  0  0  0  0  0
  189.6270  174.9470  143.2410 C   0  0  1  0  0  3  0  0  0  0  0  0
  194.0460  175.5140  146.1520 O   0  0  0  0  0  1  0  0  0  0  0  0
  189.9430  174.8510  145.6040 C   0  0  2  0  0  3  0  0  0  0  0  0
  188.3080  177.0690  143.1560 C   0  0  0  0  0  2  0  0  0  0  0  0
  187.5880  175.4370  141.3800 N   0  0  0  0  0  2  0  0  0  0  0  0
  193.3160  176.4860  145.4640 C   0  0  2  0  0  3  0  0  0  0  0  0
  191.3590  173.3020  144.0670 C   0  0  0  0  0  0  0  0  0  0  0  0
  187.2740  177.8270  141.0070 C   0  0  0  0  0  1  0  0  0  0  0  0
  191.8590  176.5540  145.9420 C   0  0  0  0  0  2  0  0  0  0  0  0
  191.4340  171.9240  144.2970 C   0  0  0  0  0  3  0  0  0  0  0  0
  193.7410  173.3230  143.5710 C   0  0  0  0  0  3  0  0  0  0  0  0
  193.8010  171.9460  143.7960 C   0  0  0  0  0  3  0  0  0  0  0  0
  193.4390  176.2880  143.9530 C   0  0  0  0  0  2  0  0  0  0  0  0
  189.1650  176.0610  145.2900 N   0  0  0  0  0  0  0  0  0  0  0  0
  191.2790  175.1790  146.3040 C   0  0  1  0  0  3  0  0  0  0  0  0
  188.6350  175.8080  143.9580 C   0  0  2  0  0  3  0  0  0  0  0  0
  190.0430  173.9940  144.3210 C   0  0  2  0  0  3  0  0  0  0  0  0
  191.2640  176.4010  148.1490 C   0  0  0  0  0  1  0  0  0  0  0  0
  191.1180  175.0920  147.6880 O   0  0  0  0  0  0  0  0  0  0  0  0
  188.0320  176.0890  146.2000 C   0  0  0  0  0  2  0  0  0  0  0  0
  187.9240  177.4560  146.8460 C   0  0  0  0  0  1  0  0  0  0  0  0
  1 14  1  0  0  0  0
  2  6  2  0  0  0  0
  3 17  1  0  0  0  0
  4  1  1  0  0  0  0
  4 20  1  0  0  0  0
  6  5  2  0  0  0  0
  7 15  1  1  0  0  0
  7 11  1  0  0  0  0
  8  6  1  6  0  0  0
  8 23  1  0  0  0  0
  8 24  1  0  0  0  0
 10 21  1  6  0  0  0
 10 22  1  0  0  0  0
 12  7  1  0  0  0  0
 12  6  1  0  0  0  0
 13 16  1  0  0  0  0
 13  9  1  1  0  0  0
 14 17  2  0  0  0  0
 16 22  1  0  0  0  0
 18  1  2  0  0  0  0
 18 19  1  0  0  0  0
 19  3  2  0  0  0  0
 20 13  1  0  0  0  0
 21 27  1  0  0  0  0
 22 26  1  1  0  0  0
 23 11  1  6  0  0  0
 23 21  1  0  0  0  0
 24 14  1  6  0  0  0
 24 10  1  0  0  0  0
 26 25  1  0  0  0  0
 27 28  1  0  0  0  0
M  END
>  <MODEL>
5

>  <REMARK>
 VINA RESULT:      -6.7      2.371      6.320
  Name = 
  2 active torsions:
  status: ('A' for Active; 'I' for Inactive)
    1  A    between atoms: C_5  and  N_24
    2  A    between atoms: O_17  and  C_25
                            x       y       z     vdW  Elec       q    Type
                         _______ _______ _______ _____ _____    ______ ____

>  <TORSDO>
F 2

$$$$
=
 OpenBabel11112417373D

 28 31  0  0  1  0  0  0  0  0999 V2000
  191.0340  173.7110  144.3200 C   0  0  0  0  0  0  0  0  0  0  0  0
  189.7390  176.6980  146.7830 O   0  0  0  0  0  0  0  0  0  0  0  0
  193.6220  174.6820  143.8690 C   0  0  0  0  0  3  0  0  0  0  0  0
  189.7430  173.2330  144.5400 O   0  0  0  0  0  0  0  0  0  0  0  0
  190.0390  178.3650  144.9970 O   0  0  0  0  0  0  0  0  0  0  0  0
  189.1560  177.2650  145.5190 S   0  0  0  0  0  0  0  0  0  0  0  0
  186.5930  176.7910  145.6580 C   0  0  1  0  0  3  0  0  0  0  0  0
  188.9570  175.9840  144.3100 C   0  0  1  0  0  3  0  0  0  0  0  0
  190.4410  171.3500  142.1560 O   0  0  0  0  0  1  0  0  0  0  0  0
  189.3180  175.3860  142.0280 C   0  0  2  0  0  3  0  0  0  0  0  0
  186.4780  176.2950  144.1960 C   0  0  0  0  0  2  0  0  0  0  0  0
  187.5570  177.8870  145.8200 N   0  0  0  0  0  2  0  0  0  0  0  0
  189.2150  171.7020  142.7240 C   0  0  2  0  0  3  0  0  0  0  0  0
  191.2170  174.9930  143.7630 C   0  0  0  0  0  0  0  0  0  0  0  0
  185.2320  177.2280  146.1550 C   0  0  0  0  0  1  0  0  0  0  0  0
  188.5810  172.9090  142.0170 C   0  0  0  0  0  2  0  0  0  0  0  0
  192.5140  175.4670  143.5380 C   0  0  0  0  0  3  0  0  0  0  0  0
  192.1490  172.9240  144.6380 C   0  0  0  0  0  3  0  0  0  0  0  0
  193.4400  173.4100  144.4150 C   0  0  0  0  0  3  0  0  0  0  0  0
  189.3540  171.9010  144.2340 C   0  0  0  0  0  2  0  0  0  0  0  0
  187.8790  175.6270  142.2210 N   0  0  0  0  0  0  0  0  0  0  0  0
  189.6140  173.9470  141.5560 C   0  0  1  0  0  3  0  0  0  0  0  0
  187.8090  176.4070  143.4480 C   0  0  2  0  0  3  0  0  0  0  0  0
  190.0610  175.8470  143.3040 C   0  0  2  0  0  3  0  0  0  0  0  0
  188.5690  173.2400  139.7380 C   0  0  0  0  0  1  0  0  0  0  0  0
  189.7110  173.9200  140.1640 O   0  0  0  0  0  0  0  0  0  0  0  0
  187.4410  176.4950  141.1400 C   0  0  0  0  0  2  0  0  0  0  0  0
  187.9010  177.9160  141.4030 C   0  0  0  0  0  1  0  0  0  0  0  0
  1  4  1  0  0  0  0
  1 18  1  0  0  0  0
  3 19  1  0  0  0  0
  5  6  2  0  0  0  0
  6 12  1  0  0  0  0
  6  2  2  0  0  0  0
  7 12  1  0  0  0  0
  7 15  1  6  0  0  0
  8  6  1  1  0  0  0
 10 21  1  1  0  0  0
 10 24  1  0  0  0  0
 11  7  1  0  0  0  0
 13  9  1  6  0  0  0
 13 20  1  0  0  0  0
 14  1  2  0  0  0  0
 16 13  1  0  0  0  0
 17 14  1  0  0  0  0
 17  3  2  0  0  0  0
 19 18  2  0  0  0  0
 20  4  1  0  0  0  0
 21 23  1  0  0  0  0
 22 26  1  6  0  0  0
 22 16  1  0  0  0  0
 22 10  1  0  0  0  0
 23 11  1  1  0  0  0
 23  8  1  0  0  0  0
 24 14  1  1  0  0  0
 24  8  1  0  0  0  0
 25 26  1  0  0  0  0
 27 28  1  0  0  0  0
 27 21  1  0  0  0  0
M  END
>  <MODEL>
6

>  <REMARK>
 VINA RESULT:      -6.7      2.123      5.399
  Name = 
  2 active torsions:
  status: ('A' for Active; 'I' for Inactive)
    1  A    between atoms: C_5  and  N_24
    2  A    between atoms: O_17  and  C_25
                            x       y       z     vdW  Elec       q    Type
                         _______ _______ _______ _____ _____    ______ ____

>  <TORSDO>
F 2

$$$$
=
 OpenBabel11112417373D

 28 31  0  0  1  0  0  0  0  0999 V2000
  189.2550  175.7370  145.0250 C   0  0  0  0  0  0  0  0  0  0  0  0
  188.7140  172.8500  142.1900 O   0  0  0  0  0  0  0  0  0  0  0  0
  188.3130  177.9150  143.5390 C   0  0  0  0  0  3  0  0  0  0  0  0
  189.7310  174.6520  145.7620 O   0  0  0  0  0  0  0  0  0  0  0  0
  190.2990  173.9730  140.6780 O   0  0  0  0  0  0  0  0  0  0  0  0
  190.1660  173.0980  141.8940 S   0  0  0  0  0  0  0  0  0  0  0  0
  191.4460  171.0700  142.9250 C   0  0  1  0  0  3  0  0  0  0  0  0
  190.9570  173.8400  143.2970 C   0  0  1  0  0  3  0  0  0  0  0  0
  190.7940  176.8890  147.6560 O   0  0  0  0  0  1  0  0  0  0  0  0
  192.4100  175.5930  144.0120 C   0  0  2  0  0  3  0  0  0  0  0  0
  192.5540  171.9360  143.5710 C   0  0  0  0  0  2  0  0  0  0  0  0
  190.9920  171.5890  141.6270 N   0  0  0  0  0  2  0  0  0  0  0  0
  191.1360  175.5400  147.5390 C   0  0  2  0  0  3  0  0  0  0  0  0
  189.8610  176.0630  143.7950 C   0  0  0  0  0  0  0  0  0  0  0  0
  191.9400  169.6490  142.7630 C   0  0  0  0  0  1  0  0  0  0  0  0
  192.3170  175.3290  146.5820 C   0  0  0  0  0  2  0  0  0  0  0  0
  189.3850  177.1550  143.0620 C   0  0  0  0  0  3  0  0  0  0  0  0
  188.1890  176.5110  145.5040 C   0  0  0  0  0  3  0  0  0  0  0  0
  187.7180  177.5960  144.7610 C   0  0  0  0  0  3  0  0  0  0  0  0
  189.9120  174.7000  147.1710 C   0  0  0  0  0  2  0  0  0  0  0  0
  193.1470  174.3210  144.0880 N   0  0  0  0  0  0  0  0  0  0  0  0
  192.3010  176.2900  145.3850 C   0  0  1  0  0  3  0  0  0  0  0  0
  192.3920  173.4190  143.2310 C   0  0  2  0  0  3  0  0  0  0  0  0
  191.0760  175.3350  143.2750 C   0  0  2  0  0  3  0  0  0  0  0  0
  194.1620  176.6930  146.5120 C   0  0  0  0  0  1  0  0  0  0  0  0
  193.3320  177.2210  145.5220 O   0  0  0  0  0  0  0  0  0  0  0  0
  194.4360  174.5330  143.4510 C   0  0  0  0  0  2  0  0  0  0  0  0
  195.5470  174.0490  144.3610 C   0  0  0  0  0  1  0  0  0  0  0  0
  1 18  1  0  0  0  0
  1  4  1  0  0  0  0
  3 19  1  0  0  0  0
  4 20  1  0  0  0  0
  5  6  2  0  0  0  0
  6  2  2  0  0  0  0
  7 15  1  6  0  0  0
  7 11  1  0  0  0  0
  8  6  1  6  0  0  0
 10 21  1  1  0  0  0
 10 22  1  0  0  0  0
 12  6  1  0  0  0  0
 12  7  1  0  0  0  0
 13  9  1  6  0  0  0
 14  1  2  0  0  0  0
 16 13  1  0  0  0  0
 17  3  2  0  0  0  0
 17 14  1  0  0  0  0
 19 18  2  0  0  0  0
 20 13  1  0  0  0  0
 22 26  1  1  0  0  0
 22 16  1  0  0  0  0
 23  8  1  0  0  0  0
 23 11  1  1  0  0  0
 23 21  1  0  0  0  0
 24  8  1  0  0  0  0
 24 14  1  1  0  0  0
 24 10  1  0  0  0  0
 26 25  1  0  0  0  0
 27 21  1  0  0  0  0
 27 28  1  0  0  0  0
M  END
>  <MODEL>
7

>  <REMARK>
 VINA RESULT:      -6.5      2.345      5.346
  Name = 
  2 active torsions:
  status: ('A' for Active; 'I' for Inactive)
    1  A    between atoms: C_5  and  N_24
    2  A    between atoms: O_17  and  C_25
                            x       y       z     vdW  Elec       q    Type
                         _______ _______ _______ _____ _____    ______ ____

>  <TORSDO>
F 2

$$$$
=
 OpenBabel11112417373D

 28 31  0  0  1  0  0  0  0  0999 V2000
  191.1560  175.5470  145.1950 C   0  0  0  0  0  0  0  0  0  0  0  0
  191.3930  171.7580  143.6930 O   0  0  0  0  0  0  0  0  0  0  0  0
  189.9420  174.9160  147.6380 C   0  0  0  0  0  3  0  0  0  0  0  0
  191.7540  175.8610  143.9740 O   0  0  0  0  0  0  0  0  0  0  0  0
  188.9420  171.5410  143.7300 O   0  0  0  0  0  0  0  0  0  0  0  0
  190.1150  172.1300  142.9960 S   0  0  0  0  0  0  0  0  0  0  0  0
  190.7770  172.5650  140.5090 C   0  0  1  0  0  3  0  0  0  0  0  0
  189.9710  173.8940  142.8830 C   0  0  1  0  0  3  0  0  0  0  0  0
  190.9640  178.7710  144.7660 O   0  0  0  0  0  1  0  0  0  0  0  0
  188.5100  175.7530  143.2050 C   0  0  2  0  0  3  0  0  0  0  0  0
  189.9460  173.8640  140.3830 C   0  0  0  0  0  2  0  0  0  0  0  0
  190.1350  171.5490  141.3540 N   0  0  0  0  0  2  0  0  0  0  0  0
  191.3200  178.2150  143.5350 C   0  0  2  0  0  3  0  0  0  0  0  0
  189.9160  174.8770  145.2110 C   0  0  0  0  0  0  0  0  0  0  0  0
  191.0390  171.9940  139.1330 C   0  0  0  0  0  1  0  0  0  0  0  0
  190.0930  177.7440  142.7420 C   0  0  0  0  0  2  0  0  0  0  0  0
  189.3160  174.5700  146.4370 C   0  0  0  0  0  3  0  0  0  0  0  0
  191.7720  175.9030  146.4020 C   0  0  0  0  0  3  0  0  0  0  0  0
  191.1670  175.5850  147.6210 C   0  0  0  0  0  3  0  0  0  0  0  0
  192.3680  177.1170  143.7200 C   0  0  0  0  0  2  0  0  0  0  0  0
  188.6620  175.5280  141.7580 N   0  0  0  0  0  0  0  0  0  0  0  0
  188.9890  177.1550  143.6340 C   0  0  1  0  0  3  0  0  0  0  0  0
  189.1540  174.1620  141.6580 C   0  0  2  0  0  3  0  0  0  0  0  0
  189.1520  174.5600  143.9490 C   0  0  2  0  0  3  0  0  0  0  0  0
  187.3080  177.8130  144.9140 C   0  0  0  0  0  1  0  0  0  0  0  0
  187.9040  178.0320  143.6710 O   0  0  0  0  0  0  0  0  0  0  0  0
  187.3280  175.5430  141.1800 C   0  0  0  0  0  2  0  0  0  0  0  0
  187.0670  176.8840  140.5220 C   0  0  0  0  0  1  0  0  0  0  0  0
  1 14  2  0  0  0  0
  1 18  1  0  0  0  0
  4  1  1  0  0  0  0
  6  2  2  0  0  0  0
  6  5  2  0  0  0  0
  7 15  1  6  0  0  0
  7 12  1  0  0  0  0
  8  6  1  1  0  0  0
  8 24  1  0  0  0  0
 10 21  1  6  0  0  0
 10 22  1  0  0  0  0
 10 24  1  0  0  0  0
 11  7  1  0  0  0  0
 12  6  1  0  0  0  0
 13 20  1  0  0  0  0
 13  9  1  1  0  0  0
 14 17  1  0  0  0  0
 16 13  1  0  0  0  0
 16 22  1  0  0  0  0
 17  3  2  0  0  0  0
 18 19  2  0  0  0  0
 19  3  1  0  0  0  0
 20  4  1  0  0  0  0
 22 26  1  6  0  0  0
 23 11  1  6  0  0  0
 23 21  1  0  0  0  0
 23  8  1  0  0  0  0
 24 14  1  1  0  0  0
 26 25  1  0  0  0  0
 27 21  1  0  0  0  0
 28 27  1  0  0  0  0
M  END
>  <MODEL>
8

>  <REMARK>
 VINA RESULT:      -6.5      2.527      4.994
  Name = 
  2 active torsions:
  status: ('A' for Active; 'I' for Inactive)
    1  A    between atoms: C_5  and  N_24
    2  A    between atoms: O_17  and  C_25
                            x       y       z     vdW  Elec       q    Type
                         _______ _______ _______ _____ _____    ______ ____

>  <TORSDO>
F 2

$$$$
=
 OpenBabel11112417373D

 28 31  0  0  1  0  0  0  0  0999 V2000
  192.9500  172.9800  145.0950 C   0  0  0  0  0  0  0  0  0  0  0  0
  191.2770  174.9470  148.2570 O   0  0  0  0  0  0  0  0  0  0  0  0
  195.6320  173.5450  145.6690 C   0  0  0  0  0  3  0  0  0  0  0  0
  191.6130  172.7060  144.8070 O   0  0  0  0  0  0  0  0  0  0  0  0
  192.1890  177.0920  147.4650 O   0  0  0  0  0  0  0  0  0  0  0  0
  191.1100  176.0630  147.2650 S   0  0  0  0  0  0  0  0  0  0  0  0
  188.5770  176.0640  146.6340 C   0  0  1  0  0  3  0  0  0  0  0  0
  191.1460  175.4210  145.6120 C   0  0  1  0  0  3  0  0  0  0  0  0
  192.7820  171.8150  142.0570 O   0  0  0  0  0  1  0  0  0  0  0  0
  192.0680  175.7110  143.4310 C   0  0  2  0  0  3  0  0  0  0  0  0
  188.8270  176.2130  145.1130 C   0  0  0  0  0  2  0  0  0  0  0  0
  189.5460  176.8050  147.4520 N   0  0  0  0  0  2  0  0  0  0  0  0
  191.4800  172.1400  142.4440 C   0  0  2  0  0  3  0  0  0  0  0  0
  193.3810  174.3190  145.1930 C   0  0  0  0  0  0  0  0  0  0  0  0
  187.1730  176.5190  146.9650 C   0  0  0  0  0  1  0  0  0  0  0  0
  191.1640  173.6230  142.2030 C   0  0  0  0  0  2  0  0  0  0  0  0
  194.7240  174.5890  145.4760 C   0  0  0  0  0  3  0  0  0  0  0  0
  193.8680  171.9370  145.2760 C   0  0  0  0  0  3  0  0  0  0  0  0
  195.2050  172.2190  145.5650 C   0  0  0  0  0  3  0  0  0  0  0  0
  191.2160  171.7010  143.8840 C   0  0  0  0  0  2  0  0  0  0  0  0
  190.6560  176.1230  143.3940 N   0  0  0  0  0  0  0  0  0  0  0  0
  192.3650  174.5450  142.4640 C   0  0  1  0  0  3  0  0  0  0  0  0
  190.3160  176.3560  144.7900 C   0  0  2  0  0  3  0  0  0  0  0  0
  192.4680  175.4850  144.9070 C   0  0  2  0  0  3  0  0  0  0  0  0
  194.1120  175.5360  141.5370 C   0  0  0  0  0  1  0  0  0  0  0  0
  192.8360  175.0480  141.2500 O   0  0  0  0  0  0  0  0  0  0  0  0
  190.6020  177.4110  142.7220 C   0  0  0  0  0  2  0  0  0  0  0  0
  191.2190  178.4780  143.6050 C   0  0  0  0  0  1  0  0  0  0  0  0
  1 14  2  0  0  0  0
  1 18  1  0  0  0  0
  4  1  1  0  0  0  0
  6 12  1  0  0  0  0
  6  5  2  0  0  0  0
  6  2  2  0  0  0  0
  7 15  1  6  0  0  0
  7 12  1  0  0  0  0
  8  6  1  1  0  0  0
 10 21  1  1  0  0  0
 10 24  1  0  0  0  0
 11  7  1  0  0  0  0
 13  9  1  1  0  0  0
 13 20  1  0  0  0  0
 14 17  1  0  0  0  0
 16 13  1  0  0  0  0
 16 22  1  0  0  0  0
 17  3  2  0  0  0  0
 18 19  2  0  0  0  0
 19  3  1  0  0  0  0
 20  4  1  0  0  0  0
 21 23  1  0  0  0  0
 22 26  1  6  0  0  0
 22 10  1  0  0  0  0
 23 11  1  6  0  0  0
 23  8  1  0  0  0  0
 24 14  1  6  0  0  0
 24  8  1  0  0  0  0
 26 25  1  0  0  0  0
 27 21  1  0  0  0  0
 27 28  1  0  0  0  0
M  END
>  <MODEL>
9

>  <REMARK>
 VINA RESULT:      -6.5      2.613      5.894
  Name = 
  2 active torsions:
  status: ('A' for Active; 'I' for Inactive)
    1  A    between atoms: C_5  and  N_24
    2  A    between atoms: O_17  and  C_25
                            x       y       z     vdW  Elec       q    Type
                         _______ _______ _______ _____ _____    ______ ____

>  <TORSDO>
F 2

$$$$
