=
 OpenBabel11112416353D

 32 37  0  0  1  0  0  0  0  0999 V2000
  192.0600  174.1060  144.2350 C   0  0  0  0  0  2  0  0  0  0  0  0
  187.5930  176.6610  143.6850 C   0  0  0  0  0  0  0  0  0  0  0  0
  186.3510  178.5860  148.0060 C   0  0  0  0  0  2  0  0  0  0  0  0
  184.8850  178.4590  147.6390 C   0  0  0  0  0  2  0  0  0  0  0  0
  186.2320  177.2310  141.6430 C   0  0  1  0  0  3  0  0  0  0  0  0
  184.8300  177.5750  141.2660 C   0  0  0  0  0  0  0  0  0  0  0  0
  189.8870  175.8650  143.3090 N   0  0  1  0  0  0  0  0  0  0  0  0
  189.1240  176.2590  145.6080 C   0  0  0  0  0  2  0  0  0  0  0  0
  182.7260  178.4450  141.4290 C   0  0  0  0  0  0  0  0  0  0  0  0
  191.2950  175.0400  145.1820 C   0  0  2  0  0  3  0  0  0  0  0  0
  187.1260  177.4840  147.2990 C   0  0  0  0  0  2  0  0  0  0  0  0
  187.8380  176.7830  145.0070 C   0  0  0  0  0  0  0  0  0  0  0  0
  186.9060  177.4970  145.8470 N   0  0  0  0  0  0  0  0  0  0  0  0
  185.4160  177.8720  143.9850 C   0  0  0  0  0  0  0  0  0  0  0  0
  182.8980  178.0780  140.1980 N   0  0  0  0  0  0  0  0  0  0  0  0
  191.2810  173.7860  142.9610 C   0  0  0  0  0  2  0  0  0  0  0  0
  189.8710  175.3110  144.6720 C   0  0  2  0  0  3  0  0  0  0  0  0
  184.2290  177.5390  140.0820 C   0  0  0  0  0  3  0  0  0  0  0  0
  190.6930  175.0690  142.3630 C   0  0  0  0  0  2  0  0  0  0  0  0
  184.7060  178.7740  146.1630 C   0  0  0  0  0  2  0  0  0  0  0  0
  185.6670  178.0010  145.2960 C   0  0  0  0  0  0  0  0  0  0  0  0
  184.1570  178.3210  143.4490 N   0  0  0  0  0  0  0  0  0  0  0  0
  188.5140  175.8360  142.8150 C   0  0  0  0  0  2  0  0  0  0  0  0
  187.1790  178.2480  141.0230 C   0  0  0  0  0  1  0  0  0  0  0  0
  181.4670  179.0440  141.9460 C   0  0  0  0  0  1  0  0  0  0  0  0
  186.3940  177.2300  143.1160 N   0  0  0  0  0  0  0  0  0  0  0  0
  183.9180  178.1610  142.1910 C   0  0  0  0  0  0  0  0  0  0  0  0
  192.0050  176.2370  145.3170 O   0  0  0  0  0  0  0  0  0  0  0  0
  192.7260  176.0970  146.5050 C   0  0  0  0  0  2  0  0  0  0  0  0
  194.1730  176.3240  146.2420 C   0  0  0  0  0  0  0  0  0  0  0  0
  194.6140  177.5950  145.7810 N   0  0  0  0  0  2  0  0  0  0  0  0
  194.9870  175.3220  146.2330 N   0  0  0  0  0  1  0  0  0  0  0  0
  1 10  1  0  0  0  0
  2 12  2  0  0  0  0
  4  3  1  0  0  0  0
  5 24  1  6  0  0  0
  5 26  1  0  0  0  0
  6  5  1  0  0  0  0
  6 27  1  0  0  0  0
  7 19  1  6  0  0  0
  7 17  1  0  0  0  0
  9 25  1  0  0  0  0
  9 27  1  0  0  0  0
 10 28  1  6  0  0  0
 11  3  1  0  0  0  0
 12  8  1  0  0  0  0
 12 13  1  0  0  0  0
 13 11  1  0  0  0  0
 14 21  2  0  0  0  0
 15  9  2  0  0  0  0
 16  1  1  0  0  0  0
 17 10  1  0  0  0  0
 17  8  1  1  0  0  0
 18 15  1  0  0  0  0
 18  6  2  0  0  0  0
 19 16  1  0  0  0  0
 20  4  1  0  0  0  0
 21 13  1  0  0  0  0
 21 20  1  0  0  0  0
 22 14  1  0  0  0  0
 23  7  1  0  0  0  0
 23  2  1  0  0  0  0
 26  2  1  0  0  0  0
 26 14  1  0  0  0  0
 27 22  2  0  0  0  0
 28 29  1  0  0  0  0
 30 29  1  0  0  0  0
 31 30  2  0  0  0  0
 32 30  1  0  0  0  0
M  END
>  <MODEL>
1

>  <REMARK>
 VINA RESULT:      -8.2      0.000      0.000
  Name = 
  3 active torsions:
  status: ('A' for Active; 'I' for Inactive)
    1  A    between atoms: C_10  and  O_20
    2  A    between atoms: O_20  and  C_29
    3  A    between atoms: C_29  and  C_30
                            x       y       z     vdW  Elec       q    Type
                         _______ _______ _______ _____ _____    ______ ____

>  <TORSDO>
F 3

$$$$
=
 OpenBabel11112416353D

 32 37  0  0  1  0  0  0  0  0999 V2000
  194.9100  175.4120  146.1900 C   0  0  0  0  0  2  0  0  0  0  0  0
  190.2770  176.0010  143.9600 C   0  0  0  0  0  0  0  0  0  0  0  0
  189.9600  172.9160  140.1770 C   0  0  0  0  0  2  0  0  0  0  0  0
  189.0390  173.8880  139.4650 C   0  0  0  0  0  2  0  0  0  0  0  0
  188.2490  177.3300  144.6420 C   0  0  1  0  0  3  0  0  0  0  0  0
  187.0330  177.9460  144.0370 C   0  0  0  0  0  0  0  0  0  0  0  0
  192.0270  175.6880  145.6560 N   0  0  1  0  0  0  0  0  0  0  0  0
  192.2390  174.5380  143.4980 C   0  0  0  0  0  2  0  0  0  0  0  0
  185.2560  178.2320  142.6330 C   0  0  0  0  0  0  0  0  0  0  0  0
  194.1930  174.6070  145.0980 C   0  0  2  0  0  3  0  0  0  0  0  0
  190.8980  173.7070  141.0770 C   0  0  0  0  0  2  0  0  0  0  0  0
  190.8730  175.0930  143.1580 C   0  0  0  0  0  0  0  0  0  0  0  0
  190.1690  174.5780  142.0090 N   0  0  0  0  0  0  0  0  0  0  0  0
  188.2750  176.0080  142.4480 C   0  0  0  0  0  0  0  0  0  0  0  0
  185.1120  179.0680  143.6120 N   0  0  0  0  0  0  0  0  0  0  0  0
  194.1590  176.6840  146.5790 C   0  0  0  0  0  2  0  0  0  0  0  0
  192.9600  175.3550  144.5680 C   0  0  2  0  0  3  0  0  0  0  0  0
  186.2230  178.8860  144.5120 C   0  0  0  0  0  3  0  0  0  0  0  0
  192.6720  176.3760  146.7910 C   0  0  0  0  0  2  0  0  0  0  0  0
  188.1130  174.5410  140.4780 C   0  0  0  0  0  2  0  0  0  0  0  0
  188.8650  175.0980  141.6600 C   0  0  0  0  0  0  0  0  0  0  0  0
  187.0040  176.5690  142.0690 N   0  0  0  0  0  0  0  0  0  0  0  0
  191.0410  176.6150  145.1110 C   0  0  0  0  0  2  0  0  0  0  0  0
  187.8390  176.5040  145.8520 C   0  0  0  0  0  1  0  0  0  0  0  0
  184.3080  178.1230  141.4920 C   0  0  0  0  0  1  0  0  0  0  0  0
  188.9440  176.4660  143.6590 N   0  0  0  0  0  0  0  0  0  0  0  0
  186.4630  177.4660  142.8220 C   0  0  0  0  0  0  0  0  0  0  0  0
  193.8260  173.3600  145.6150 O   0  0  0  0  0  0  0  0  0  0  0  0
  194.9270  172.5340  145.3810 C   0  0  0  0  0  2  0  0  0  0  0  0
  194.4810  171.1180  145.2880 C   0  0  0  0  0  0  0  0  0  0  0  0
  193.3600  170.7840  144.4780 N   0  0  0  0  0  2  0  0  0  0  0  0
  194.9740  170.2370  146.0930 N   0  0  0  0  0  1  0  0  0  0  0  0
  1 16  1  0  0  0  0
  2 23  1  0  0  0  0
  3 11  1  0  0  0  0
  4  3  1  0  0  0  0
  4 20  1  0  0  0  0
  5 24  1  1  0  0  0
  6 18  2  0  0  0  0
  6  5  1  0  0  0  0
  7 23  1  6  0  0  0
  7 19  1  0  0  0  0
  9 27  1  0  0  0  0
  9 15  2  0  0  0  0
 10 28  1  1  0  0  0
 10  1  1  0  0  0  0
 11 13  1  0  0  0  0
 12  8  1  0  0  0  0
 12  2  2  0  0  0  0
 13 12  1  0  0  0  0
 14 26  1  0  0  0  0
 15 18  1  0  0  0  0
 16 19  1  0  0  0  0
 17  8  1  6  0  0  0
 17 10  1  0  0  0  0
 17  7  1  0  0  0  0
 20 21  1  0  0  0  0
 21 13  1  0  0  0  0
 21 14  2  0  0  0  0
 22 14  1  0  0  0  0
 22 27  2  0  0  0  0
 25  9  1  0  0  0  0
 26  2  1  0  0  0  0
 26  5  1  0  0  0  0
 27  6  1  0  0  0  0
 29 28  1  0  0  0  0
 30 29  1  0  0  0  0
 30 32  1  0  0  0  0
 31 30  2  0  0  0  0
M  END
>  <MODEL>
2

>  <REMARK>
 VINA RESULT:      -8.0      2.289      5.136
  Name = 
  3 active torsions:
  status: ('A' for Active; 'I' for Inactive)
    1  A    between atoms: C_10  and  O_20
    2  A    between atoms: O_20  and  C_29
    3  A    between atoms: C_29  and  C_30
                            x       y       z     vdW  Elec       q    Type
                         _______ _______ _______ _____ _____    ______ ____

>  <TORSDO>
F 3

$$$$
=
 OpenBabel11112416353D

 32 37  0  0  1  0  0  0  0  0999 V2000
  184.9150  179.1200  143.5070 C   0  0  0  0  0  2  0  0  0  0  0  0
  188.8810  175.8020  143.3060 C   0  0  0  0  0  0  0  0  0  0  0  0
  191.1280  175.7850  147.6500 C   0  0  0  0  0  2  0  0  0  0  0  0
  192.4420  175.4610  146.9670 C   0  0  0  0  0  2  0  0  0  0  0  0
  189.5900  174.1470  141.5430 C   0  0  1  0  0  3  0  0  0  0  0  0
  190.8090  173.4170  141.0880 C   0  0  0  0  0  0  0  0  0  0  0  0
  186.6290  176.7630  143.0910 N   0  0  1  0  0  0  0  0  0  0  0  0
  187.9650  177.2880  145.0820 C   0  0  0  0  0  2  0  0  0  0  0  0
  192.8150  172.3330  141.1970 C   0  0  0  0  0  0  0  0  0  0  0  0
  185.8460  178.5750  144.5970 C   0  0  2  0  0  3  0  0  0  0  0  0
  190.2640  176.5860  146.6860 C   0  0  0  0  0  2  0  0  0  0  0  0
  189.0000  176.3230  144.5450 C   0  0  0  0  0  0  0  0  0  0  0  0
  190.0760  175.8930  145.4050 N   0  0  0  0  0  0  0  0  0  0  0  0
  190.9710  174.4650  143.6760 C   0  0  0  0  0  0  0  0  0  0  0  0
  192.3380  172.1440  140.0060 N   0  0  0  0  0  0  0  0  0  0  0  0
  185.3350  178.6940  142.1010 C   0  0  0  0  0  2  0  0  0  0  0  0
  187.0550  177.8470  143.9900 C   0  0  2  0  0  3  0  0  0  0  0  0
  191.0650  172.8140  139.9330 C   0  0  0  0  0  3  0  0  0  0  0  0
  185.6500  177.1950  142.0750 C   0  0  0  0  0  2  0  0  0  0  0  0
  192.1900  174.5010  145.8160 C   0  0  0  0  0  2  0  0  0  0  0  0
  191.0810  174.9760  144.9110 C   0  0  0  0  0  0  0  0  0  0  0  0
  192.0030  173.5990  143.1660 N   0  0  0  0  0  0  0  0  0  0  0  0
  187.8140  176.3140  142.3650 C   0  0  0  0  0  2  0  0  0  0  0  0
  188.4450  173.1570  141.6950 C   0  0  0  0  0  1  0  0  0  0  0  0
  194.1250  171.8000  141.6570 C   0  0  0  0  0  1  0  0  0  0  0  0
  189.8380  174.8270  142.8360 N   0  0  0  0  0  0  0  0  0  0  0  0
  191.8990  173.1400  141.9640 C   0  0  0  0  0  0  0  0  0  0  0  0
  185.1230  177.7160  145.4310 O   0  0  0  0  0  0  0  0  0  0  0  0
  184.5980  178.5400  146.4290 C   0  0  0  0  0  2  0  0  0  0  0  0
  185.5270  178.5730  147.5900 C   0  0  0  0  0  0  0  0  0  0  0  0
  186.1010  179.8100  147.9980 N   0  0  0  0  0  2  0  0  0  0  0  0
  185.9680  177.4670  148.0900 N   0  0  0  0  0  1  0  0  0  0  0  0
  1 10  1  0  0  0  0
  2 12  2  0  0  0  0
  4  3  1  0  0  0  0
  5 24  1  1  0  0  0
  5 26  1  0  0  0  0
  6  5  1  0  0  0  0
  6 27  1  0  0  0  0
  7 19  1  6  0  0  0
  7 17  1  0  0  0  0
  9 25  1  0  0  0  0
  9 27  1  0  0  0  0
 10 28  1  1  0  0  0
 11  3  1  0  0  0  0
 12  8  1  0  0  0  0
 12 13  1  0  0  0  0
 13 11  1  0  0  0  0
 14 21  2  0  0  0  0
 15  9  2  0  0  0  0
 16  1  1  0  0  0  0
 17 10  1  0  0  0  0
 17  8  1  1  0  0  0
 18 15  1  0  0  0  0
 18  6  2  0  0  0  0
 19 16  1  0  0  0  0
 20  4  1  0  0  0  0
 21 13  1  0  0  0  0
 21 20  1  0  0  0  0
 22 14  1  0  0  0  0
 23  7  1  0  0  0  0
 23  2  1  0  0  0  0
 26  2  1  0  0  0  0
 26 14  1  0  0  0  0
 27 22  2  0  0  0  0
 28 29  1  0  0  0  0
 29 30  1  0  0  0  0
 30 31  2  0  0  0  0
 30 32  1  0  0  0  0
M  END
>  <MODEL>
3

>  <REMARK>
 VINA RESULT:      -7.9      2.460      7.360
  Name = 
  3 active torsions:
  status: ('A' for Active; 'I' for Inactive)
    1  A    between atoms: C_10  and  O_20
    2  A    between atoms: O_20  and  C_29
    3  A    between atoms: C_29  and  C_30
                            x       y       z     vdW  Elec       q    Type
                         _______ _______ _______ _____ _____    ______ ____

>  <TORSDO>
F 3

$$$$
=
 OpenBabel11112416353D

 32 37  0  0  1  0  0  0  0  0999 V2000
  190.1620  172.2070  139.2040 C   0  0  0  0  0  2  0  0  0  0  0  0
  188.6690  175.2950  143.0790 C   0  0  0  0  0  0  0  0  0  0  0  0
  192.1080  175.2160  146.5560 C   0  0  0  0  0  2  0  0  0  0  0  0
  191.0460  175.4600  147.6100 C   0  0  0  0  0  2  0  0  0  0  0  0
  186.7340  176.8950  143.2940 C   0  0  1  0  0  3  0  0  0  0  0  0
  185.9090  177.5510  144.3490 C   0  0  0  0  0  0  0  0  0  0  0  0
  189.1810  174.4610  140.8250 N   0  0  1  0  0  0  0  0  0  0  0  0
  190.6760  173.8760  142.6820 C   0  0  0  0  0  2  0  0  0  0  0  0
  185.3670  178.5220  146.3430 C   0  0  0  0  0  0  0  0  0  0  0  0
  190.8990  172.7070  140.4530 C   0  0  2  0  0  3  0  0  0  0  0  0
  191.4770  174.4590  145.3970 C   0  0  0  0  0  2  0  0  0  0  0  0
  189.8240  174.7770  143.5480 C   0  0  0  0  0  0  0  0  0  0  0  0
  190.2990  175.1510  144.8580 N   0  0  0  0  0  0  0  0  0  0  0  0
  188.3460  176.5150  145.2480 C   0  0  0  0  0  0  0  0  0  0  0  0
  184.3780  178.7290  145.5320 N   0  0  0  0  0  0  0  0  0  0  0  0
  188.6860  172.5990  139.1910 C   0  0  0  0  0  2  0  0  0  0  0  0
  189.9320  173.3620  141.4510 C   0  0  2  0  0  3  0  0  0  0  0  0
  184.7160  178.1310  144.2650 C   0  0  0  0  0  3  0  0  0  0  0  0
  188.5270  174.0780  139.5590 C   0  0  0  0  0  2  0  0  0  0  0  0
  190.0060  176.4250  147.0640 C   0  0  0  0  0  2  0  0  0  0  0  0
  189.4980  176.0070  145.7070 C   0  0  0  0  0  0  0  0  0  0  0  0
  187.5210  177.3170  146.1140 N   0  0  0  0  0  0  0  0  0  0  0  0
  188.1160  174.8380  141.7490 C   0  0  0  0  0  2  0  0  0  0  0  0
  187.2070  177.9490  142.3030 C   0  0  0  0  0  1  0  0  0  0  0  0
  185.3890  178.9830  147.7560 C   0  0  0  0  0  1  0  0  0  0  0  0
  187.9040  176.2110  143.8930 N   0  0  0  0  0  0  0  0  0  0  0  0
  186.3990  177.7730  145.6680 C   0  0  0  0  0  0  0  0  0  0  0  0
  191.8940  173.6110  140.0680 O   0  0  0  0  0  0  0  0  0  0  0  0
  192.2360  173.2380  138.7660 C   0  0  0  0  0  2  0  0  0  0  0  0
  193.0250  174.3240  138.1250 C   0  0  0  0  0  0  0  0  0  0  0  0
  194.0790  174.9500  138.8460 N   0  0  0  0  0  1  0  0  0  0  0  0
  192.6240  174.8330  137.0080 N   0  0  0  0  0  2  0  0  0  0  0  0
  1 10  1  0  0  0  0
  2 12  2  0  0  0  0
  2 26  1  0  0  0  0
  3  4  1  0  0  0  0
  5 24  1  6  0  0  0
  5 26  1  0  0  0  0
  5  6  1  0  0  0  0
  6 27  1  0  0  0  0
  7 19  1  6  0  0  0
  7 17  1  0  0  0  0
  7 23  1  0  0  0  0
  8 12  1  0  0  0  0
  9 25  1  0  0  0  0
 10 28  1  6  0  0  0
 10 17  1  0  0  0  0
 11  3  1  0  0  0  0
 12 13  1  0  0  0  0
 13 11  1  0  0  0  0
 13 21  1  0  0  0  0
 14 21  2  0  0  0  0
 14 22  1  0  0  0  0
 15  9  2  0  0  0  0
 16  1  1  0  0  0  0
 16 19  1  0  0  0  0
 17  8  1  1  0  0  0
 18  6  2  0  0  0  0
 18 15  1  0  0  0  0
 20  4  1  0  0  0  0
 21 20  1  0  0  0  0
 23  2  1  0  0  0  0
 26 14  1  0  0  0  0
 27 22  2  0  0  0  0
 27  9  1  0  0  0  0
 29 28  1  0  0  0  0
 30 29  1  0  0  0  0
 30 31  1  0  0  0  0
 32 30  2  0  0  0  0
M  END
>  <MODEL>
4

>  <REMARK>
 VINA RESULT:      -7.8      2.892      5.205
  Name = 
  3 active torsions:
  status: ('A' for Active; 'I' for Inactive)
    1  A    between atoms: C_10  and  O_20
    2  A    between atoms: O_20  and  C_29
    3  A    between atoms: C_29  and  C_30
                            x       y       z     vdW  Elec       q    Type
                         _______ _______ _______ _____ _____    ______ ____

>  <TORSDO>
F 3

$$$$
=
 OpenBabel11112416353D

 32 37  0  0  1  0  0  0  0  0999 V2000
  190.7640  171.8250  138.9900 C   0  0  0  0  0  2  0  0  0  0  0  0
  188.4290  175.0250  142.3200 C   0  0  0  0  0  0  0  0  0  0  0  0
  190.8480  174.8970  146.5690 C   0  0  0  0  0  2  0  0  0  0  0  0
  189.5580  175.1930  147.3100 C   0  0  0  0  0  2  0  0  0  0  0  0
  186.5610  176.6880  142.0130 C   0  0  1  0  0  3  0  0  0  0  0  0
  185.5150  177.3880  142.8120 C   0  0  0  0  0  0  0  0  0  0  0  0
  189.4770  174.1360  140.2830 N   0  0  1  0  0  0  0  0  0  0  0  0
  190.4200  173.5360  142.4680 C   0  0  0  0  0  2  0  0  0  0  0  0
  184.5110  178.4100  144.5900 C   0  0  0  0  0  0  0  0  0  0  0  0
  191.1700  172.3220  140.3840 C   0  0  2  0  0  3  0  0  0  0  0  0
  190.5110  174.1410  145.2930 C   0  0  0  0  0  2  0  0  0  0  0  0
  189.4040  174.4790  143.0770 C   0  0  0  0  0  0  0  0  0  0  0  0
  189.5380  174.8610  144.4620 N   0  0  0  0  0  0  0  0  0  0  0  0
  187.5990  176.2910  144.3210 C   0  0  0  0  0  0  0  0  0  0  0  0
  183.7720  178.6340  143.5480 N   0  0  0  0  0  0  0  0  0  0  0  0
  189.3560  172.2630  138.5920 C   0  0  0  0  0  2  0  0  0  0  0  0
  190.0010  173.0240  141.0910 C   0  0  2  0  0  3  0  0  0  0  0  0
  184.4050  178.0040  142.4180 C   0  0  0  0  0  3  0  0  0  0  0  0
  189.1590  173.7520  138.8940 C   0  0  0  0  0  2  0  0  0  0  0  0
  188.7290  176.1810  146.5050 C   0  0  0  0  0  2  0  0  0  0  0  0
  188.5750  175.7560  145.0670 C   0  0  0  0  0  0  0  0  0  0  0  0
  186.6060  177.1340  144.9370 N   0  0  0  0  0  0  0  0  0  0  0  0
  188.2230  174.5620  140.8960 C   0  0  0  0  0  2  0  0  0  0  0  0
  187.3110  177.7090  141.1700 C   0  0  0  0  0  1  0  0  0  0  0  0
  184.1820  178.8950  145.9560 C   0  0  0  0  0  1  0  0  0  0  0  0
  187.5120  175.9780  142.9000 N   0  0  0  0  0  0  0  0  0  0  0  0
  185.6550  177.6170  144.2120 C   0  0  0  0  0  0  0  0  0  0  0  0
  192.2620  173.1880  140.2610 O   0  0  0  0  0  0  0  0  0  0  0  0
  193.3790  172.4030  140.5520 C   0  0  0  0  0  2  0  0  0  0  0  0
  194.3220  173.1720  141.4090 C   0  0  0  0  0  0  0  0  0  0  0  0
  193.9340  174.4410  141.9210 N   0  0  0  0  0  1  0  0  0  0  0  0
  195.5510  172.7880  141.5140 N   0  0  0  0  0  2  0  0  0  0  0  0
  1 10  1  0  0  0  0
  2 26  1  0  0  0  0
  2 12  2  0  0  0  0
  3  4  1  0  0  0  0
  5 24  1  1  0  0  0
  5  6  1  0  0  0  0
  5 26  1  0  0  0  0
  6 27  1  0  0  0  0
  7 19  1  6  0  0  0
  7 23  1  0  0  0  0
  7 17  1  0  0  0  0
  8 12  1  0  0  0  0
  9 25  1  0  0  0  0
 10 28  1  6  0  0  0
 10 17  1  0  0  0  0
 11  3  1  0  0  0  0
 12 13  1  0  0  0  0
 13 21  1  0  0  0  0
 13 11  1  0  0  0  0
 14 22  1  0  0  0  0
 14 21  2  0  0  0  0
 15  9  2  0  0  0  0
 16 19  1  0  0  0  0
 16  1  1  0  0  0  0
 17  8  1  1  0  0  0
 18  6  2  0  0  0  0
 18 15  1  0  0  0  0
 20  4  1  0  0  0  0
 21 20  1  0  0  0  0
 23  2  1  0  0  0  0
 26 14  1  0  0  0  0
 27  9  1  0  0  0  0
 27 22  2  0  0  0  0
 28 29  1  0  0  0  0
 29 30  1  0  0  0  0
 30 32  2  0  0  0  0
 30 31  1  0  0  0  0
M  END
>  <MODEL>
5

>  <REMARK>
 VINA RESULT:      -7.7      2.661      4.268
  Name = 
  3 active torsions:
  status: ('A' for Active; 'I' for Inactive)
    1  A    between atoms: C_10  and  O_20
    2  A    between atoms: O_20  and  C_29
    3  A    between atoms: C_29  and  C_30
                            x       y       z     vdW  Elec       q    Type
                         _______ _______ _______ _____ _____    ______ ____

>  <TORSDO>
F 3

$$$$
=
 OpenBabel11112416353D

 32 37  0  0  1  0  0  0  0  0999 V2000
  185.0390  177.7080  145.4540 C   0  0  0  0  0  2  0  0  0  0  0  0
  189.5120  175.6680  143.8360 C   0  0  0  0  0  0  0  0  0  0  0  0
  188.8820  173.9060  139.3170 C   0  0  0  0  0  2  0  0  0  0  0  0
  189.9320  172.8460  139.5860 C   0  0  0  0  0  2  0  0  0  0  0  0
  191.8220  175.6910  144.8400 C   0  0  1  0  0  3  0  0  0  0  0  0
  193.0930  174.9110  144.7950 C   0  0  0  0  0  0  0  0  0  0  0  0
  187.8670  177.2260  144.7870 N   0  0  1  0  0  0  0  0  0  0  0  0
  187.2540  175.9050  142.8110 C   0  0  0  0  0  2  0  0  0  0  0  0
  194.7800  173.6220  143.9570 C   0  0  0  0  0  0  0  0  0  0  0  0
  185.4850  177.1830  144.0830 C   0  0  2  0  0  3  0  0  0  0  0  0
  188.2030  174.2610  140.6310 C   0  0  0  0  0  2  0  0  0  0  0  0
  188.6780  175.3920  142.8100 C   0  0  0  0  0  0  0  0  0  0  0  0
  189.1680  174.6740  141.6590 N   0  0  0  0  0  0  0  0  0  0  0  0
  191.3510  174.4310  142.6600 C   0  0  0  0  0  0  0  0  0  0  0  0
  195.1720  174.0690  145.1090 N   0  0  0  0  0  0  0  0  0  0  0  0
  186.0720  177.4520  146.5510 C   0  0  0  0  0  2  0  0  0  0  0  0
  186.8060  176.4050  144.1830 C   0  0  2  0  0  3  0  0  0  0  0  0
  194.1180  174.8960  145.6400 C   0  0  0  0  0  3  0  0  0  0  0  0
  187.4700  177.8480  146.0650 C   0  0  0  0  0  2  0  0  0  0  0  0
  191.0490  173.4440  140.4250 C   0  0  0  0  0  2  0  0  0  0  0  0
  190.5240  174.1680  141.6390 C   0  0  0  0  0  0  0  0  0  0  0  0
  192.6810  173.8770  142.6660 N   0  0  0  0  0  0  0  0  0  0  0  0
  188.9840  176.3360  145.0850 C   0  0  0  0  0  2  0  0  0  0  0  0
  192.1350  177.1670  144.6410 C   0  0  0  0  0  1  0  0  0  0  0  0
  195.5950  172.7220  143.0990 C   0  0  0  0  0  1  0  0  0  0  0  0
  190.8870  175.2320  143.7860 N   0  0  0  0  0  0  0  0  0  0  0  0
  193.4550  174.1130  143.6710 C   0  0  0  0  0  0  0  0  0  0  0  0
  185.6150  178.2600  143.2010 O   0  0  0  0  0  0  0  0  0  0  0  0
  184.3370  178.4490  142.6710 C   0  0  0  0  0  2  0  0  0  0  0  0
  184.3750  178.2650  141.1950 C   0  0  0  0  0  0  0  0  0  0  0  0
  185.6230  178.2900  140.5130 N   0  0  0  0  0  2  0  0  0  0  0  0
  183.2760  178.2910  140.5180 N   0  0  0  0  0  1  0  0  0  0  0  0
  1 16  1  0  0  0  0
  2 23  1  0  0  0  0
  3  4  1  0  0  0  0
  3 11  1  0  0  0  0
  4 20  1  0  0  0  0
  5 24  1  6  0  0  0
  6  5  1  0  0  0  0
  6 18  2  0  0  0  0
  7 23  1  1  0  0  0
  7 19  1  0  0  0  0
  9 15  2  0  0  0  0
 10 28  1  6  0  0  0
 10 17  1  0  0  0  0
 10  1  1  0  0  0  0
 11 13  1  0  0  0  0
 12  8  1  0  0  0  0
 12  2  2  0  0  0  0
 13 12  1  0  0  0  0
 14 22  1  0  0  0  0
 14 26  1  0  0  0  0
 15 18  1  0  0  0  0
 17  8  1  6  0  0  0
 17  7  1  0  0  0  0
 19 16  1  0  0  0  0
 20 21  1  0  0  0  0
 21 13  1  0  0  0  0
 21 14  2  0  0  0  0
 22 27  2  0  0  0  0
 25  9  1  0  0  0  0
 26  2  1  0  0  0  0
 26  5  1  0  0  0  0
 27  9  1  0  0  0  0
 27  6  1  0  0  0  0
 29 28  1  0  0  0  0
 30 29  1  0  0  0  0
 31 30  2  0  0  0  0
 32 30  1  0  0  0  0
M  END
>  <MODEL>
6

>  <REMARK>
 VINA RESULT:      -7.6      2.298      8.739
  Name = 
  3 active torsions:
  status: ('A' for Active; 'I' for Inactive)
    1  A    between atoms: C_10  and  O_20
    2  A    between atoms: O_20  and  C_29
    3  A    between atoms: C_29  and  C_30
                            x       y       z     vdW  Elec       q    Type
                         _______ _______ _______ _____ _____    ______ ____

>  <TORSDO>
F 3

$$$$
=
 OpenBabel11112416353D

 32 37  0  0  1  0  0  0  0  0999 V2000
  185.5080  178.6640  142.5660 C   0  0  0  0  0  2  0  0  0  0  0  0
  189.7730  175.7830  143.1100 C   0  0  0  0  0  0  0  0  0  0  0  0
  191.3200  176.1370  147.7370 C   0  0  0  0  0  2  0  0  0  0  0  0
  192.7490  175.9350  147.2720 C   0  0  0  0  0  2  0  0  0  0  0  0
  190.9070  174.1620  141.5510 C   0  0  1  0  0  3  0  0  0  0  0  0
  192.2490  173.5530  141.3160 C   0  0  0  0  0  0  0  0  0  0  0  0
  187.4960  176.4920  142.5190 N   0  0  1  0  0  0  0  0  0  0  0  0
  188.4520  177.2160  144.6600 C   0  0  0  0  0  2  0  0  0  0  0  0
  194.3130  172.6930  141.7710 C   0  0  0  0  0  0  0  0  0  0  0  0
  186.3120  178.2550  143.8070 C   0  0  2  0  0  3  0  0  0  0  0  0
  190.5370  176.8120  146.6190 C   0  0  0  0  0  2  0  0  0  0  0  0
  189.6480  176.3510  144.3290 C   0  0  0  0  0  0  0  0  0  0  0  0
  190.6180  176.0650  145.3570 N   0  0  0  0  0  0  0  0  0  0  0  0
  191.9070  174.6890  143.8490 C   0  0  0  0  0  0  0  0  0  0  0  0
  194.0450  172.4180  140.5330 N   0  0  0  0  0  0  0  0  0  0  0  0
  186.1800  178.2430  141.2600 C   0  0  0  0  0  2  0  0  0  0  0  0
  187.6670  177.6410  143.4210 C   0  0  2  0  0  3  0  0  0  0  0  0
  192.7370  172.9460  140.2400 C   0  0  0  0  0  3  0  0  0  0  0  0
  186.6450  176.7860  141.3490 C   0  0  0  0  0  2  0  0  0  0  0  0
  192.7740  174.9190  146.1420 C   0  0  0  0  0  2  0  0  0  0  0  0
  191.7740  175.2460  145.0610 C   0  0  0  0  0  0  0  0  0  0  0  0
  193.0860  173.9240  143.5370 N   0  0  0  0  0  0  0  0  0  0  0  0
  188.8160  176.1500  141.9990 C   0  0  0  0  0  2  0  0  0  0  0  0
  189.8580  173.0600  141.5750 C   0  0  0  0  0  1  0  0  0  0  0  0
  195.5840  172.3160  142.4450 C   0  0  0  0  0  1  0  0  0  0  0  0
  190.8840  174.9030  142.8330 N   0  0  0  0  0  0  0  0  0  0  0  0
  193.2140  173.4200  142.3560 C   0  0  0  0  0  0  0  0  0  0  0  0
  185.5600  177.3490  144.5620 O   0  0  0  0  0  0  0  0  0  0  0  0
  184.8410  178.1380  145.4620 C   0  0  0  0  0  2  0  0  0  0  0  0
  185.3810  177.9510  146.8350 C   0  0  0  0  0  0  0  0  0  0  0  0
  185.5200  179.0750  147.6970 N   0  0  0  0  0  1  0  0  0  0  0  0
  185.9110  176.8220  147.1670 N   0  0  0  0  0  2  0  0  0  0  0  0
  1 10  1  0  0  0  0
  2 12  2  0  0  0  0
  4  3  1  0  0  0  0
  5 24  1  1  0  0  0
  5 26  1  0  0  0  0
  6  5  1  0  0  0  0
  6 27  1  0  0  0  0
  7 19  1  6  0  0  0
  7 17  1  0  0  0  0
  9 27  1  0  0  0  0
  9 25  1  0  0  0  0
 10 28  1  6  0  0  0
 11  3  1  0  0  0  0
 12  8  1  0  0  0  0
 12 13  1  0  0  0  0
 13 11  1  0  0  0  0
 14 21  2  0  0  0  0
 15  9  2  0  0  0  0
 16 19  1  0  0  0  0
 16  1  1  0  0  0  0
 17 10  1  0  0  0  0
 17  8  1  1  0  0  0
 18 15  1  0  0  0  0
 18  6  2  0  0  0  0
 20  4  1  0  0  0  0
 21 13  1  0  0  0  0
 21 20  1  0  0  0  0
 22 14  1  0  0  0  0
 23  7  1  0  0  0  0
 23  2  1  0  0  0  0
 26  2  1  0  0  0  0
 26 14  1  0  0  0  0
 27 22  2  0  0  0  0
 28 29  1  0  0  0  0
 29 30  1  0  0  0  0
 30 32  2  0  0  0  0
 30 31  1  0  0  0  0
M  END
>  <MODEL>
7

>  <REMARK>
 VINA RESULT:      -7.4      2.438      7.720
  Name = 
  3 active torsions:
  status: ('A' for Active; 'I' for Inactive)
    1  A    between atoms: C_10  and  O_20
    2  A    between atoms: O_20  and  C_29
    3  A    between atoms: C_29  and  C_30
                            x       y       z     vdW  Elec       q    Type
                         _______ _______ _______ _____ _____    ______ ____

>  <TORSDO>
F 3

$$$$
=
 OpenBabel11112416353D

 32 37  0  0  1  0  0  0  0  0999 V2000
  186.4830  178.5170  142.7790 C   0  0  0  0  0  2  0  0  0  0  0  0
  190.0040  174.8050  143.5590 C   0  0  0  0  0  0  0  0  0  0  0  0
  193.2380  176.3880  146.8690 C   0  0  0  0  0  2  0  0  0  0  0  0
  194.3150  175.5420  146.2190 C   0  0  0  0  0  2  0  0  0  0  0  0
  190.1270  172.4200  142.7560 C   0  0  1  0  0  3  0  0  0  0  0  0
  191.1360  171.3480  142.5170 C   0  0  0  0  0  0  0  0  0  0  0  0
  187.8510  175.9610  143.2940 N   0  0  1  0  0  0  0  0  0  0  0  0
  189.6710  177.0900  144.4930 C   0  0  0  0  0  2  0  0  0  0  0  0
  193.0150  170.0820  142.7960 C   0  0  0  0  0  0  0  0  0  0  0  0
  187.6070  178.3770  143.8140 C   0  0  2  0  0  3  0  0  0  0  0  0
  192.2300  176.7950  145.8040 C   0  0  0  0  0  2  0  0  0  0  0  0
  190.4640  175.8100  144.3340 C   0  0  0  0  0  0  0  0  0  0  0  0
  191.6800  175.6350  145.0900 N   0  0  0  0  0  0  0  0  0  0  0  0
  192.0090  173.4270  144.1710 C   0  0  0  0  0  0  0  0  0  0  0  0
  192.2480  169.4550  141.9610 N   0  0  0  0  0  0  0  0  0  0  0  0
  186.5110  177.4150  141.7210 C   0  0  0  0  0  2  0  0  0  0  0  0
  188.5680  177.2360  143.4470 C   0  0  2  0  0  3  0  0  0  0  0  0
  191.0520  170.2400  141.7890 C   0  0  0  0  0  3  0  0  0  0  0  0
  186.6900  176.0460  142.3870 C   0  0  0  0  0  2  0  0  0  0  0  0
  193.7130  174.2240  145.7600 C   0  0  0  0  0  2  0  0  0  0  0  0
  192.4580  174.4230  144.9490 C   0  0  0  0  0  0  0  0  0  0  0  0
  192.8120  172.2460  143.9850 N   0  0  0  0  0  0  0  0  0  0  0  0
  188.7830  175.0120  142.6920 C   0  0  0  0  0  2  0  0  0  0  0  0
  188.9790  171.8510  143.5760 C   0  0  0  0  0  1  0  0  0  0  0  0
  194.3510  169.5880  143.2230 C   0  0  0  0  0  1  0  0  0  0  0  0
  190.7360  173.5640  143.4750 N   0  0  0  0  0  0  0  0  0  0  0  0
  192.3810  171.3100  143.2090 C   0  0  0  0  0  0  0  0  0  0  0  0
  187.0440  178.1580  145.0750 O   0  0  0  0  0  0  0  0  0  0  0  0
  185.9260  178.9940  145.1210 C   0  0  0  0  0  2  0  0  0  0  0  0
  185.2340  178.8330  146.4280 C   0  0  0  0  0  0  0  0  0  0  0  0
  185.9440  179.0740  147.6370 N   0  0  0  0  0  1  0  0  0  0  0  0
  184.0670  178.2810  146.4710 N   0  0  0  0  0  2  0  0  0  0  0  0
  1 10  1  0  0  0  0
  2 12  2  0  0  0  0
  4  3  1  0  0  0  0
  5 26  1  0  0  0  0
  5 24  1  1  0  0  0
  6  5  1  0  0  0  0
  6 27  1  0  0  0  0
  7 19  1  6  0  0  0
  7 17  1  0  0  0  0
  9 27  1  0  0  0  0
  9 25  1  0  0  0  0
 10 28  1  1  0  0  0
 11  3  1  0  0  0  0
 12  8  1  0  0  0  0
 12 13  1  0  0  0  0
 13 11  1  0  0  0  0
 14 21  2  0  0  0  0
 15  9  2  0  0  0  0
 16 19  1  0  0  0  0
 16  1  1  0  0  0  0
 17 10  1  0  0  0  0
 17  8  1  1  0  0  0
 18 15  1  0  0  0  0
 18  6  2  0  0  0  0
 20  4  1  0  0  0  0
 21 13  1  0  0  0  0
 21 20  1  0  0  0  0
 22 14  1  0  0  0  0
 23  7  1  0  0  0  0
 23  2  1  0  0  0  0
 26  2  1  0  0  0  0
 26 14  1  0  0  0  0
 27 22  2  0  0  0  0
 28 29  1  0  0  0  0
 29 30  1  0  0  0  0
 30 32  2  0  0  0  0
 30 31  1  0  0  0  0
M  END
>  <MODEL>
8

>  <REMARK>
 VINA RESULT:      -7.3      2.718      8.130
  Name = 
  3 active torsions:
  status: ('A' for Active; 'I' for Inactive)
    1  A    between atoms: C_10  and  O_20
    2  A    between atoms: O_20  and  C_29
    3  A    between atoms: C_29  and  C_30
                            x       y       z     vdW  Elec       q    Type
                         _______ _______ _______ _____ _____    ______ ____

>  <TORSDO>
F 3

$$$$
=
 OpenBabel11112416353D

 32 37  0  0  1  0  0  0  0  0999 V2000
  186.0410  177.1810  146.1470 C   0  0  0  0  0  2  0  0  0  0  0  0
  190.5680  175.4990  144.2860 C   0  0  0  0  0  0  0  0  0  0  0  0
  189.8600  173.7900  139.7590 C   0  0  0  0  0  2  0  0  0  0  0  0
  190.9940  172.8030  139.9560 C   0  0  0  0  0  2  0  0  0  0  0  0
  192.9150  175.6670  145.1890 C   0  0  1  0  0  3  0  0  0  0  0  0
  194.2340  174.9820  145.0700 C   0  0  0  0  0  0  0  0  0  0  0  0
  188.8620  176.9160  145.3460 N   0  0  1  0  0  0  0  0  0  0  0  0
  188.2560  175.5950  143.3670 C   0  0  0  0  0  2  0  0  0  0  0  0
  195.9680  173.8340  144.1300 C   0  0  0  0  0  0  0  0  0  0  0  0
  186.4600  176.7170  144.7460 C   0  0  2  0  0  3  0  0  0  0  0  0
  189.2190  174.0690  141.1100 C   0  0  0  0  0  2  0  0  0  0  0  0
  189.7110  175.1860  143.2920 C   0  0  0  0  0  0  0  0  0  0  0  0
  190.1980  174.5280  142.1040 N   0  0  0  0  0  0  0  0  0  0  0  0
  192.4360  174.4220  143.0030 C   0  0  0  0  0  0  0  0  0  0  0  0
  196.3790  174.2840  145.2740 N   0  0  0  0  0  0  0  0  0  0  0  0
  187.1380  176.9760  147.1910 C   0  0  0  0  0  2  0  0  0  0  0  0
  187.8360  176.0340  144.7690 C   0  0  2  0  0  3  0  0  0  0  0  0
  195.2950  175.0220  145.8690 C   0  0  0  0  0  3  0  0  0  0  0  0
  188.4810  177.4820  146.6540 C   0  0  0  0  0  2  0  0  0  0  0  0
  192.1030  173.4620  140.7600 C   0  0  0  0  0  2  0  0  0  0  0  0
  191.5840  174.1210  142.0130 C   0  0  0  0  0  0  0  0  0  0  0  0
  193.8000  173.9650  142.9380 N   0  0  0  0  0  0  0  0  0  0  0  0
  190.0520  176.1030  145.5730 C   0  0  0  0  0  2  0  0  0  0  0  0
  193.1130  177.1650  145.0120 C   0  0  0  0  0  1  0  0  0  0  0  0
  196.8050  173.0130  143.2150 C   0  0  0  0  0  1  0  0  0  0  0  0
  191.9680  175.1640  144.1660 N   0  0  0  0  0  0  0  0  0  0  0  0
  194.6000  174.2350  143.9130 C   0  0  0  0  0  0  0  0  0  0  0  0
  186.4740  177.8190  143.8840 O   0  0  0  0  0  0  0  0  0  0  0  0
  185.5260  177.5220  142.9030 C   0  0  0  0  0  2  0  0  0  0  0  0
  184.3400  178.4050  143.0690 C   0  0  0  0  0  0  0  0  0  0  0  0
  183.2450  178.2910  142.1680 N   0  0  0  0  0  2  0  0  0  0  0  0
  184.3920  179.4000  143.8900 N   0  0  0  0  0  1  0  0  0  0  0  0
  1 16  1  0  0  0  0
  2 23  1  0  0  0  0
  3  4  1  0  0  0  0
  3 11  1  0  0  0  0
  4 20  1  0  0  0  0
  5 24  1  6  0  0  0
  6  5  1  0  0  0  0
  6 18  2  0  0  0  0
  7 23  1  1  0  0  0
  7 19  1  0  0  0  0
  9 15  2  0  0  0  0
 10 28  1  6  0  0  0
 10 17  1  0  0  0  0
 10  1  1  0  0  0  0
 11 13  1  0  0  0  0
 12  8  1  0  0  0  0
 12  2  2  0  0  0  0
 13 12  1  0  0  0  0
 14 26  1  0  0  0  0
 15 18  1  0  0  0  0
 17  8  1  6  0  0  0
 17  7  1  0  0  0  0
 19 16  1  0  0  0  0
 20 21  1  0  0  0  0
 21 13  1  0  0  0  0
 21 14  2  0  0  0  0
 22 14  1  0  0  0  0
 22 27  2  0  0  0  0
 25  9  1  0  0  0  0
 26  2  1  0  0  0  0
 26  5  1  0  0  0  0
 27  9  1  0  0  0  0
 27  6  1  0  0  0  0
 29 30  1  0  0  0  0
 29 28  1  0  0  0  0
 30 32  1  0  0  0  0
 31 30  2  0  0  0  0
M  END
>  <MODEL>
9

>  <REMARK>
 VINA RESULT:      -7.0      2.321      9.024
  Name = 
  3 active torsions:
  status: ('A' for Active; 'I' for Inactive)
    1  A    between atoms: C_10  and  O_20
    2  A    between atoms: O_20  and  C_29
    3  A    between atoms: C_29  and  C_30
                            x       y       z     vdW  Elec       q    Type
                         _______ _______ _______ _____ _____    ______ ____

>  <TORSDO>
F 3

$$$$
