=
 OpenBabel11112417353D

 28 32  0  0  1  0  0  0  0  0999 V2000
  190.3000  175.3110  142.3660 C   0  0  0  0  0  0  0  0  0  0  0  0
  187.3190  178.6690  141.8170 N   0  0  0  0  0  1  0  0  0  0  0  0
  187.7270  175.6740  147.7650 O   0  0  0  0  0  1  0  0  0  0  0  0
  189.1420  172.8400  141.7200 C   0  0  0  0  0  3  0  0  0  0  0  0
  186.3060  176.7530  146.1610 C   0  0  2  0  0  3  0  0  0  0  0  0
  190.9540  176.6110  142.7190 C   0  0  0  0  0  2  0  0  0  0  0  0
  187.1660  177.0460  140.1660 O   0  0  0  0  0  1  0  0  0  0  0  0
  186.5920  177.4930  141.3560 C   0  0  1  0  0  0  0  0  0  0  0  0
  184.3440  177.9680  142.0670 C   0  0  0  0  0  0  0  0  0  0  0  0
  186.6600  176.3610  142.4040 C   0  0  2  0  0  3  0  0  0  0  0  0
  191.7030  176.6750  146.3150 O   0  0  0  0  0  0  0  0  0  0  0  0
  187.7310  176.0290  144.4900 C   0  0  2  0  0  3  0  0  0  0  0  0
  184.6990  177.5840  143.3620 O   0  0  0  0  0  0  0  0  0  0  0  0
  185.2040  177.8690  141.1020 N   0  0  0  0  0  0  0  0  0  0  0  0
  191.0440  176.8500  145.2570 C   0  0  0  0  0  0  0  0  0  0  0  0
  188.9090  175.1300  142.4970 C   0  0  0  0  0  0  0  0  0  0  0  0
  187.7140  176.6590  146.7780 C   0  0  2  0  0  3  0  0  0  0  0  0
  182.9800  178.4880  141.7970 C   0  0  0  0  0  1  0  0  0  0  0  0
  189.6570  177.4000  145.3490 C   0  0  0  0  0  2  0  0  0  0  0  0
  188.3400  173.8860  142.1840 C   0  0  0  0  0  3  0  0  0  0  0  0
  191.0950  174.2560  141.9010 C   0  0  0  0  0  3  0  0  0  0  0  0
  190.5180  173.0260  141.5760 C   0  0  0  0  0  3  0  0  0  0  0  0
  191.6390  176.5080  144.0000 N   0  0  0  0  0  2  0  0  0  0  0  0
  186.6180  176.9680  144.7090 C   0  0  1  0  0  3  0  0  0  0  0  0
  188.6780  176.2700  145.6420 C   0  0  2  0  0  3  0  0  0  0  0  0
  185.6830  176.5730  143.5980 C   0  0  2  0  0  3  0  0  0  0  0  0
  185.5750  177.9580  146.7200 C   0  0  0  0  0  1  0  0  0  0  0  0
  188.0640  176.2430  143.0410 C   0  0  1  0  0  3  0  0  0  0  0  0
  1 16  1  0  0  0  0
  1  6  1  0  0  0  0
  4 20  1  0  0  0  0
  5 27  1  1  0  0  0
  5 17  1  0  0  0  0
  6 23  1  0  0  0  0
  8  7  1  6  0  0  0
  8  2  1  0  0  0  0
  8 10  1  0  0  0  0
  9 13  1  0  0  0  0
 10 28  1  0  0  0  0
 10 26  1  0  0  0  0
 12 24  1  0  0  0  0
 12 25  1  0  0  0  0
 13 26  1  0  0  0  0
 14  8  1  0  0  0  0
 14  9  2  0  0  0  0
 15 19  1  0  0  0  0
 15 11  2  0  0  0  0
 16 28  1  0  0  0  0
 17  3  1  0  0  0  0
 18  9  1  0  0  0  0
 19 25  1  0  0  0  0
 20 16  2  0  0  0  0
 21  1  2  0  0  0  0
 22  4  2  0  0  0  0
 22 21  1  0  0  0  0
 23 15  1  0  0  0  0
 24  5  1  0  0  0  0
 25 17  1  0  0  0  0
 26 24  1  0  0  0  0
 28 12  1  0  0  0  0
M  END
>  <MODEL>
1

>  <REMARK>
 VINA RESULT:      -8.9      0.000      0.000
  Name = 
  0 active torsions:
  status: ('A' for Active; 'I' for Inactive)
                            x       y       z     vdW  Elec       q    Type
                         _______ _______ _______ _____ _____    ______ ____

>  <TORSDO>
F 0

$$$$
=
 OpenBabel11112417353D

 28 32  0  0  1  0  0  0  0  0999 V2000
  186.1150  178.3970  144.3540 C   0  0  0  0  0  0  0  0  0  0  0  0
  190.6000  177.9060  144.6940 N   0  0  0  0  0  1  0  0  0  0  0  0
  187.1030  173.2880  141.3840 O   0  0  0  0  0  1  0  0  0  0  0  0
  184.8170  177.1660  146.5130 C   0  0  0  0  0  3  0  0  0  0  0  0
  188.9960  173.7400  142.7880 C   0  0  2  0  0  3  0  0  0  0  0  0
  186.7730  179.0670  143.1870 C   0  0  0  0  0  2  0  0  0  0  0  0
  189.5770  178.3030  146.7380 O   0  0  0  0  0  1  0  0  0  0  0  0
  190.1000  177.3010  145.9210 C   0  0  1  0  0  0  0  0  0  0  0  0
  191.6380  175.4830  146.2600 C   0  0  0  0  0  0  0  0  0  0  0  0
  188.9900  176.2740  145.6120 C   0  0  2  0  0  3  0  0  0  0  0  0
  185.9200  177.2700  140.0980 O   0  0  0  0  0  0  0  0  0  0  0  0
  187.8390  175.5330  143.6790 C   0  0  2  0  0  3  0  0  0  0  0  0
  190.9500  174.7520  145.2900 O   0  0  0  0  0  0  0  0  0  0  0  0
  191.2120  176.6560  146.6130 N   0  0  0  0  0  0  0  0  0  0  0  0
  186.5730  177.5700  141.1310 C   0  0  0  0  0  0  0  0  0  0  0  0
  186.7200  177.3060  145.0100 C   0  0  0  0  0  0  0  0  0  0  0  0
  188.0530  174.2620  141.6870 C   0  0  2  0  0  3  0  0  0  0  0  0
  192.8580  174.9160  146.8880 C   0  0  0  0  0  1  0  0  0  0  0  0
  187.7800  176.7620  141.4850 C   0  0  0  0  0  2  0  0  0  0  0  0
  186.0570  176.6890  146.0810 C   0  0  0  0  0  3  0  0  0  0  0  0
  184.8720  178.8680  144.7940 C   0  0  0  0  0  3  0  0  0  0  0  0
  184.2260  178.2570  145.8720 C   0  0  0  0  0  3  0  0  0  0  0  0
  186.1340  178.6660  141.9410 N   0  0  0  0  0  2  0  0  0  0  0  0
  189.1970  174.9660  143.6290 C   0  0  1  0  0  3  0  0  0  0  0  0
  187.3550  175.5140  142.2480 C   0  0  2  0  0  3  0  0  0  0  0  0
  189.5430  174.9130  145.0930 C   0  0  2  0  0  3  0  0  0  0  0  0
  190.3130  173.3040  142.1790 C   0  0  0  0  0  1  0  0  0  0  0  0
  188.0280  176.7710  144.5090 C   0  0  1  0  0  3  0  0  0  0  0  0
  1 21  2  0  0  0  0
  1 16  1  0  0  0  0
  3 17  1  0  0  0  0
  5 27  1  6  0  0  0
  5 24  1  0  0  0  0
  6  1  1  0  0  0  0
  8  2  1  6  0  0  0
  8 14  1  0  0  0  0
  8  7  1  0  0  0  0
  9 14  2  0  0  0  0
  9 18  1  0  0  0  0
 10  8  1  0  0  0  0
 11 15  2  0  0  0  0
 12 28  1  0  0  0  0
 13  9  1  0  0  0  0
 15 19  1  0  0  0  0
 15 23  1  0  0  0  0
 16 20  2  0  0  0  0
 17 25  1  0  0  0  0
 17  5  1  0  0  0  0
 19 25  1  0  0  0  0
 20  4  1  0  0  0  0
 21 22  1  0  0  0  0
 22  4  2  0  0  0  0
 23  6  1  0  0  0  0
 24 12  1  0  0  0  0
 24 26  1  0  0  0  0
 25 12  1  0  0  0  0
 26 13  1  0  0  0  0
 26 10  1  0  0  0  0
 28 16  1  0  0  0  0
 28 10  1  0  0  0  0
M  END
>  <MODEL>
2

>  <REMARK>
 VINA RESULT:      -8.6      1.743      6.414
  Name = 
  0 active torsions:
  status: ('A' for Active; 'I' for Inactive)
                            x       y       z     vdW  Elec       q    Type
                         _______ _______ _______ _____ _____    ______ ____

>  <TORSDO>
F 0

$$$$
=
 OpenBabel11112417353D

 28 32  0  0  1  0  0  0  0  0999 V2000
  187.9660  177.5740  144.6010 C   0  0  0  0  0  0  0  0  0  0  0  0
  192.1880  176.0870  143.9420 N   0  0  0  0  0  1  0  0  0  0  0  0
  187.1010  172.4580  141.6030 O   0  0  0  0  0  1  0  0  0  0  0  0
  186.9390  176.6040  147.0220 C   0  0  0  0  0  3  0  0  0  0  0  0
  189.3100  172.4380  142.5390 C   0  0  2  0  0  3  0  0  0  0  0  0
  188.4800  178.1130  143.3010 C   0  0  0  0  0  2  0  0  0  0  0  0
  191.7610  176.6440  146.1530 O   0  0  0  0  0  1  0  0  0  0  0  0
  191.8510  175.5740  145.2640 C   0  0  1  0  0  0  0  0  0  0  0  0
  192.9800  173.4510  145.2920 C   0  0  0  0  0  0  0  0  0  0  0  0
  190.4990  174.8290  145.2340 C   0  0  2  0  0  3  0  0  0  0  0  0
  186.5820  176.6390  140.5230 O   0  0  0  0  0  0  0  0  0  0  0  0
  188.8120  174.4180  143.6240 C   0  0  2  0  0  3  0  0  0  0  0  0
  191.9480  172.9190  144.5180 O   0  0  0  0  0  0  0  0  0  0  0  0
  192.9170  174.6790  145.7040 N   0  0  0  0  0  0  0  0  0  0  0  0
  187.4980  176.7560  141.3770 C   0  0  0  0  0  0  0  0  0  0  0  0
  188.4430  176.3580  145.1300 C   0  0  0  0  0  0  0  0  0  0  0  0
  188.2880  173.1870  141.6640 C   0  0  2  0  0  3  0  0  0  0  0  0
  194.1510  172.6080  145.6450 C   0  0  0  0  0  1  0  0  0  0  0  0
  188.5420  175.6900  141.4710 C   0  0  0  0  0  2  0  0  0  0  0  0
  187.9130  175.8740  146.3360 C   0  0  0  0  0  3  0  0  0  0  0  0
  186.9900  178.2980  145.2960 C   0  0  0  0  0  3  0  0  0  0  0  0
  186.4800  177.8160  146.5040 C   0  0  0  0  0  3  0  0  0  0  0  0
  187.5060  177.8990  142.2390 N   0  0  0  0  0  2  0  0  0  0  0  0
  189.9630  173.5640  143.2850 C   0  0  1  0  0  3  0  0  0  0  0  0
  188.0300  174.5480  142.3380 C   0  0  2  0  0  3  0  0  0  0  0  0
  190.6050  173.3940  144.6360 C   0  0  2  0  0  3  0  0  0  0  0  0
  190.3280  171.7370  141.6610 C   0  0  0  0  0  1  0  0  0  0  0  0
  189.4520  175.5590  144.3620 C   0  0  1  0  0  3  0  0  0  0  0  0
  1 16  2  0  0  0  0
  1 21  1  0  0  0  0
  3 17  1  0  0  0  0
  5 27  1  6  0  0  0
  5 24  1  0  0  0  0
  6  1  1  0  0  0  0
  8  2  1  6  0  0  0
  8 14  1  0  0  0  0
  8  7  1  0  0  0  0
  9 18  1  0  0  0  0
  9 14  2  0  0  0  0
 10  8  1  0  0  0  0
 11 15  2  0  0  0  0
 12 28  1  0  0  0  0
 13 26  1  0  0  0  0
 13  9  1  0  0  0  0
 15 19  1  0  0  0  0
 15 23  1  0  0  0  0
 16 20  1  0  0  0  0
 17 25  1  0  0  0  0
 17  5  1  0  0  0  0
 19 25  1  0  0  0  0
 20  4  2  0  0  0  0
 21 22  2  0  0  0  0
 22  4  1  0  0  0  0
 23  6  1  0  0  0  0
 24 12  1  0  0  0  0
 24 26  1  0  0  0  0
 25 12  1  0  0  0  0
 26 10  1  0  0  0  0
 28 16  1  0  0  0  0
 28 10  1  0  0  0  0
M  END
>  <MODEL>
3

>  <REMARK>
 VINA RESULT:      -8.1      2.176      6.671
  Name = 
  0 active torsions:
  status: ('A' for Active; 'I' for Inactive)
                            x       y       z     vdW  Elec       q    Type
                         _______ _______ _______ _____ _____    ______ ____

>  <TORSDO>
F 0

$$$$
=
 OpenBabel11112417353D

 28 32  0  0  1  0  0  0  0  0999 V2000
  191.0910  174.0950  142.0960 C   0  0  0  0  0  0  0  0  0  0  0  0
  189.2230  178.2100  142.3070 N   0  0  0  0  0  1  0  0  0  0  0  0
  191.1330  175.2540  147.9750 O   0  0  0  0  0  1  0  0  0  0  0  0
  189.1240  172.1030  142.2640 C   0  0  0  0  0  3  0  0  0  0  0  0
  189.5540  176.7150  146.9130 C   0  0  2  0  0  3  0  0  0  0  0  0
  192.1690  175.1300  142.0020 C   0  0  0  0  0  2  0  0  0  0  0  0
  187.9650  176.7090  141.0630 O   0  0  0  0  0  1  0  0  0  0  0  0
  188.0720  177.3150  142.3130 C   0  0  1  0  0  0  0  0  0  0  0  0
  186.5370  178.4660  143.7650 C   0  0  0  0  0  0  0  0  0  0  0  0
  188.2350  176.2210  143.3900 C   0  0  2  0  0  3  0  0  0  0  0  0
  194.2900  174.9690  144.9980 O   0  0  0  0  0  0  0  0  0  0  0  0
  189.9150  175.5800  144.9320 C   0  0  2  0  0  3  0  0  0  0  0  0
  187.2600  177.9940  144.8620 O   0  0  0  0  0  0  0  0  0  0  0  0
  186.8680  178.1030  142.5640 N   0  0  0  0  0  0  0  0  0  0  0  0
  193.3400  175.3360  144.2600 C   0  0  0  0  0  0  0  0  0  0  0  0
  189.8820  174.3540  142.7720 C   0  0  0  0  0  0  0  0  0  0  0  0
  191.0010  176.1910  146.9510 C   0  0  2  0  0  3  0  0  0  0  0  0
  185.3880  179.3830  143.9730 C   0  0  0  0  0  1  0  0  0  0  0  0
  192.3250  176.2890  144.8060 C   0  0  0  0  0  2  0  0  0  0  0  0
  188.9090  173.3470  142.8620 C   0  0  0  0  0  3  0  0  0  0  0  0
  191.2970  172.8440  141.5010 C   0  0  0  0  0  3  0  0  0  0  0  0
  190.3160  171.8520  141.5810 C   0  0  0  0  0  3  0  0  0  0  0  0
  193.2530  174.8230  142.9260 N   0  0  0  0  0  2  0  0  0  0  0  0
  189.3000  176.8180  145.4380 C   0  0  1  0  0  3  0  0  0  0  0  0
  191.2720  175.5190  145.5920 C   0  0  2  0  0  3  0  0  0  0  0  0
  187.9260  176.7300  144.8310 C   0  0  2  0  0  3  0  0  0  0  0  0
  189.4830  178.0880  147.5510 C   0  0  0  0  0  1  0  0  0  0  0  0
  189.6800  175.6760  143.4510 C   0  0  1  0  0  3  0  0  0  0  0  0
  1 16  1  0  0  0  0
  2  8  1  0  0  0  0
  4 20  1  0  0  0  0
  5 17  1  0  0  0  0
  5 27  1  1  0  0  0
  6  1  1  0  0  0  0
  6 23  1  0  0  0  0
  8  7  1  6  0  0  0
  8 14  1  0  0  0  0
  8 10  1  0  0  0  0
  9 18  1  0  0  0  0
  9 13  1  0  0  0  0
 10 28  1  0  0  0  0
 10 26  1  0  0  0  0
 12 24  1  0  0  0  0
 12 25  1  0  0  0  0
 14  9  2  0  0  0  0
 15 19  1  0  0  0  0
 15 11  2  0  0  0  0
 16 20  2  0  0  0  0
 16 28  1  0  0  0  0
 17  3  1  0  0  0  0
 19 25  1  0  0  0  0
 21 22  1  0  0  0  0
 21  1  2  0  0  0  0
 22  4  2  0  0  0  0
 23 15  1  0  0  0  0
 24  5  1  0  0  0  0
 25 17  1  0  0  0  0
 26 13  1  0  0  0  0
 26 24  1  0  0  0  0
 28 12  1  0  0  0  0
M  END
>  <MODEL>
4

>  <REMARK>
 VINA RESULT:      -8.0      1.892      2.493
  Name = 
  0 active torsions:
  status: ('A' for Active; 'I' for Inactive)
                            x       y       z     vdW  Elec       q    Type
                         _______ _______ _______ _____ _____    ______ ____

>  <TORSDO>
F 0

$$$$
=
 OpenBabel11112417353D

 28 32  0  0  1  0  0  0  0  0999 V2000
  189.2930  176.2790  144.9680 C   0  0  0  0  0  0  0  0  0  0  0  0
  193.7680  176.2930  144.3010 N   0  0  0  0  0  1  0  0  0  0  0  0
  190.2280  171.0250  142.2440 O   0  0  0  0  0  1  0  0  0  0  0  0
  188.6650  175.1450  147.4540 C   0  0  0  0  0  3  0  0  0  0  0  0
  192.3120  171.8110  143.1350 C   0  0  2  0  0  3  0  0  0  0  0  0
  189.5890  176.8920  143.6340 C   0  0  0  0  0  2  0  0  0  0  0  0
  193.1790  176.7860  146.4900 O   0  0  0  0  0  1  0  0  0  0  0  0
  193.6290  175.7660  145.6530 C   0  0  1  0  0  0  0  0  0  0  0  0
  195.4180  174.1620  145.7630 C   0  0  0  0  0  0  0  0  0  0  0  0
  192.6140  174.6030  145.6860 C   0  0  2  0  0  3  0  0  0  0  0  0
  188.3060  174.7120  140.9690 O   0  0  0  0  0  0  0  0  0  0  0  0
  191.1670  173.5550  144.1310 C   0  0  2  0  0  3  0  0  0  0  0  0
  194.6280  173.2690  145.0360 O   0  0  0  0  0  0  0  0  0  0  0  0
  194.9380  175.3140  146.1160 N   0  0  0  0  0  0  0  0  0  0  0  0
  189.1290  175.1810  141.7990 C   0  0  0  0  0  0  0  0  0  0  0  0
  190.1580  175.3290  145.5470 C   0  0  0  0  0  0  0  0  0  0  0  0
  191.0930  172.1180  142.2450 C   0  0  2  0  0  3  0  0  0  0  0  0
  196.8070  173.7900  146.1340 C   0  0  0  0  0  1  0  0  0  0  0  0
  190.4750  174.5430  141.9240 C   0  0  0  0  0  2  0  0  0  0  0  0
  189.8280  174.7580  146.7860 C   0  0  0  0  0  3  0  0  0  0  0  0
  188.1290  176.6610  145.6460 C   0  0  0  0  0  3  0  0  0  0  0  0
  187.8170  176.0990  146.8860 C   0  0  0  0  0  3  0  0  0  0  0  0
  188.7460  176.3020  142.6030 N   0  0  0  0  0  2  0  0  0  0  0  0
  192.5400  173.1300  143.8130 C   0  0  1  0  0  3  0  0  0  0  0  0
  190.3860  173.3420  142.8570 C   0  0  2  0  0  3  0  0  0  0  0  0
  193.2040  173.2620  145.1580 C   0  0  2  0  0  3  0  0  0  0  0  0
  193.5070  171.4550  142.2740 C   0  0  0  0  0  1  0  0  0  0  0  0
  191.3790  174.8840  144.8000 C   0  0  1  0  0  3  0  0  0  0  0  0
  1 16  2  0  0  0  0
  1 21  1  0  0  0  0
  3 17  1  0  0  0  0
  5 27  1  6  0  0  0
  5 24  1  0  0  0  0
  6  1  1  0  0  0  0
  8  2  1  6  0  0  0
  8 10  1  0  0  0  0
  8 14  1  0  0  0  0
  8  7  1  0  0  0  0
  9 14  2  0  0  0  0
  9 18  1  0  0  0  0
 11 15  2  0  0  0  0
 12 28  1  0  0  0  0
 13 26  1  0  0  0  0
 13  9  1  0  0  0  0
 15 19  1  0  0  0  0
 15 23  1  0  0  0  0
 16 20  1  0  0  0  0
 17 25  1  0  0  0  0
 17  5  1  0  0  0  0
 19 25  1  0  0  0  0
 20  4  2  0  0  0  0
 21 22  2  0  0  0  0
 22  4  1  0  0  0  0
 23  6  1  0  0  0  0
 24 12  1  0  0  0  0
 24 26  1  0  0  0  0
 25 12  1  0  0  0  0
 26 10  1  0  0  0  0
 28 16  1  0  0  0  0
 28 10  1  0  0  0  0
M  END
>  <MODEL>
5

>  <REMARK>
 VINA RESULT:      -7.8      3.099      7.584
  Name = 
  0 active torsions:
  status: ('A' for Active; 'I' for Inactive)
                            x       y       z     vdW  Elec       q    Type
                         _______ _______ _______ _____ _____    ______ ____

>  <TORSDO>
F 0

$$$$
=
 OpenBabel11112417353D

 28 32  0  0  1  0  0  0  0  0999 V2000
  188.8400  176.5830  145.3350 C   0  0  0  0  0  0  0  0  0  0  0  0
  192.6860  176.8360  142.9650 N   0  0  0  0  0  1  0  0  0  0  0  0
  187.8050  172.8600  140.7550 O   0  0  0  0  0  1  0  0  0  0  0  0
  188.9930  174.5500  147.2590 C   0  0  0  0  0  3  0  0  0  0  0  0
  190.1710  173.2090  140.9440 C   0  0  2  0  0  3  0  0  0  0  0  0
  188.7210  177.6790  144.3200 C   0  0  0  0  0  2  0  0  0  0  0  0
  193.0390  176.4120  145.2180 O   0  0  0  0  0  1  0  0  0  0  0  0
  192.9700  175.8120  143.9620 C   0  0  1  0  0  0  0  0  0  0  0  0
  194.3760  174.2870  142.7440 C   0  0  0  0  0  0  0  0  0  0  0  0
  191.8590  174.7400  143.9770 C   0  0  2  0  0  3  0  0  0  0  0  0
  186.1980  176.7610  141.8120 O   0  0  0  0  0  0  0  0  0  0  0  0
  189.7860  174.4140  142.8790 C   0  0  2  0  0  3  0  0  0  0  0  0
  193.2360  173.7660  142.1290 O   0  0  0  0  0  0  0  0  0  0  0  0
  194.2610  175.2040  143.6540 N   0  0  0  0  0  0  0  0  0  0  0  0
  187.3350  176.8520  142.3440 C   0  0  0  0  0  0  0  0  0  0  0  0
  189.6850  175.4750  145.1220 C   0  0  0  0  0  0  0  0  0  0  0  0
  188.7800  173.8560  140.8040 C   0  0  2  0  0  3  0  0  0  0  0  0
  195.7200  173.7890  142.3550 C   0  0  0  0  0  1  0  0  0  0  0  0
  188.5040  176.2090  141.6710 C   0  0  0  0  0  2  0  0  0  0  0  0
  189.7450  174.4570  146.0850 C   0  0  0  0  0  3  0  0  0  0  0  0
  188.0910  176.6680  146.5140 C   0  0  0  0  0  3  0  0  0  0  0  0
  188.1690  175.6570  147.4750 C   0  0  0  0  0  3  0  0  0  0  0  0
  187.4710  177.5580  143.5820 N   0  0  0  0  0  2  0  0  0  0  0  0
  190.8520  174.1440  141.9000 C   0  0  1  0  0  3  0  0  0  0  0  0
  188.5660  174.7350  142.0500 C   0  0  2  0  0  3  0  0  0  0  0  0
  191.9770  173.7200  142.8060 C   0  0  2  0  0  3  0  0  0  0  0  0
  190.8850  173.2220  139.6070 C   0  0  0  0  0  1  0  0  0  0  0  0
  190.4500  175.3600  143.8380 C   0  0  1  0  0  3  0  0  0  0  0  0
  1 21  1  0  0  0  0
  3 17  1  0  0  0  0
  4 22  1  0  0  0  0
  5 27  1  6  0  0  0
  5 24  1  0  0  0  0
  6  1  1  0  0  0  0
  8  2  1  6  0  0  0
  8 10  1  0  0  0  0
  8  7  1  0  0  0  0
  9 14  2  0  0  0  0
 11 15  2  0  0  0  0
 12 28  1  0  0  0  0
 13  9  1  0  0  0  0
 13 26  1  0  0  0  0
 14  8  1  0  0  0  0
 15 23  1  0  0  0  0
 16  1  2  0  0  0  0
 16 20  1  0  0  0  0
 17  5  1  0  0  0  0
 17 25  1  0  0  0  0
 18  9  1  0  0  0  0
 19 25  1  0  0  0  0
 19 15  1  0  0  0  0
 20  4  2  0  0  0  0
 21 22  2  0  0  0  0
 23  6  1  0  0  0  0
 24 26  1  0  0  0  0
 24 12  1  0  0  0  0
 25 12  1  0  0  0  0
 26 10  1  0  0  0  0
 28 10  1  0  0  0  0
 28 16  1  0  0  0  0
M  END
>  <MODEL>
6

>  <REMARK>
 VINA RESULT:      -7.6      2.276      6.822
  Name = 
  0 active torsions:
  status: ('A' for Active; 'I' for Inactive)
                            x       y       z     vdW  Elec       q    Type
                         _______ _______ _______ _____ _____    ______ ____

>  <TORSDO>
F 0

$$$$
=
 OpenBabel11112417353D

 28 32  0  0  1  0  0  0  0  0999 V2000
  188.9790  175.8130  145.1960 C   0  0  0  0  0  0  0  0  0  0  0  0
  191.4850  172.8890  142.8210 N   0  0  0  0  0  1  0  0  0  0  0  0
  194.5660  177.6840  146.2890 O   0  0  0  0  0  1  0  0  0  0  0  0
  188.2910  178.0330  143.6280 C   0  0  0  0  0  3  0  0  0  0  0  0
  194.5850  176.3080  144.3230 C   0  0  2  0  0  3  0  0  0  0  0  0
  189.3260  174.6420  146.0650 C   0  0  0  0  0  2  0  0  0  0  0  0
  189.7800  173.8430  141.5700 O   0  0  0  0  0  1  0  0  0  0  0  0
  191.1450  173.9150  141.8430 C   0  0  1  0  0  0  0  0  0  0  0  0
  193.1310  174.0120  140.4900 C   0  0  0  0  0  0  0  0  0  0  0  0
  191.4750  175.3210  142.3880 C   0  0  2  0  0  3  0  0  0  0  0  0
  191.5660  175.7350  148.7630 O   0  0  0  0  0  0  0  0  0  0  0  0
  192.2780  176.2160  144.4290 C   0  0  2  0  0  3  0  0  0  0  0  0
  193.7440  174.7730  141.4880 O   0  0  0  0  0  0  0  0  0  0  0  0
  191.8900  173.6570  140.6140 N   0  0  0  0  0  0  0  0  0  0  0  0
  191.2280  175.2910  147.6350 C   0  0  0  0  0  0  0  0  0  0  0  0
  189.8120  176.2060  144.1300 C   0  0  0  0  0  0  0  0  0  0  0  0
  194.1960  176.4280  145.8090 C   0  0  2  0  0  3  0  0  0  0  0  0
  193.9020  173.6120  139.2860 C   0  0  0  0  0  1  0  0  0  0  0  0
  192.2900  174.9920  146.6260 C   0  0  0  0  0  2  0  0  0  0  0  0
  189.4660  177.3260  143.3590 C   0  0  0  0  0  3  0  0  0  0  0  0
  187.8040  176.5270  145.4580 C   0  0  0  0  0  3  0  0  0  0  0  0
  187.4590  177.6320  144.6750 C   0  0  0  0  0  3  0  0  0  0  0  0
  189.8390  175.0950  147.3510 N   0  0  0  0  0  2  0  0  0  0  0  0
  193.4130  175.5640  143.7560 C   0  0  1  0  0  3  0  0  0  0  0  0
  192.6670  176.2700  145.8870 C   0  0  2  0  0  3  0  0  0  0  0  0
  192.9920  175.6660  142.3140 C   0  0  2  0  0  3  0  0  0  0  0  0
  195.8460  175.4780  144.1830 C   0  0  0  0  0  1  0  0  0  0  0  0
  191.0950  175.4710  143.8790 C   0  0  1  0  0  3  0  0  0  0  0  0
  1 21  1  0  0  0  0
  1  6  1  0  0  0  0
  4 22  1  0  0  0  0
  5 27  1  1  0  0  0
  5 17  1  0  0  0  0
  6 23  1  0  0  0  0
  8  7  1  6  0  0  0
  8 10  1  0  0  0  0
  8  2  1  0  0  0  0
  9 14  2  0  0  0  0
  9 13  1  0  0  0  0
 10 28  1  0  0  0  0
 12 25  1  0  0  0  0
 13 26  1  0  0  0  0
 14  8  1  0  0  0  0
 15 11  2  0  0  0  0
 16  1  2  0  0  0  0
 17 25  1  0  0  0  0
 17  3  1  0  0  0  0
 18  9  1  0  0  0  0
 19 15  1  0  0  0  0
 20  4  2  0  0  0  0
 20 16  1  0  0  0  0
 22 21  2  0  0  0  0
 23 15  1  0  0  0  0
 24  5  1  0  0  0  0
 24 12  1  0  0  0  0
 25 19  1  0  0  0  0
 26 10  1  0  0  0  0
 26 24  1  0  0  0  0
 28 16  1  0  0  0  0
 28 12  1  0  0  0  0
M  END
>  <MODEL>
7

>  <REMARK>
 VINA RESULT:      -7.5      3.393      6.438
  Name = 
  0 active torsions:
  status: ('A' for Active; 'I' for Inactive)
                            x       y       z     vdW  Elec       q    Type
                         _______ _______ _______ _____ _____    ______ ____

>  <TORSDO>
F 0

$$$$
=
 OpenBabel11112417353D

 28 32  0  0  1  0  0  0  0  0999 V2000
  189.2240  176.2510  144.9470 C   0  0  0  0  0  0  0  0  0  0  0  0
  191.4760  172.4550  143.9590 N   0  0  0  0  0  1  0  0  0  0  0  0
  194.9270  177.8290  145.8870 O   0  0  0  0  0  1  0  0  0  0  0  0
  188.9140  177.8440  142.6600 C   0  0  0  0  0  3  0  0  0  0  0  0
  194.8890  175.8610  144.5140 C   0  0  2  0  0  3  0  0  0  0  0  0
  189.3680  175.4280  146.1900 C   0  0  0  0  0  2  0  0  0  0  0  0
  189.9820  173.0760  142.2980 O   0  0  0  0  0  1  0  0  0  0  0  0
  191.3260  173.1050  142.6640 C   0  0  1  0  0  0  0  0  0  0  0  0
  193.3850  172.5310  141.5610 C   0  0  0  0  0  0  0  0  0  0  0  0
  191.7980  174.5730  142.7310 C   0  0  2  0  0  3  0  0  0  0  0  0
  191.5660  177.1660  148.5660 O   0  0  0  0  0  0  0  0  0  0  0  0
  192.5860  176.0380  144.4170 C   0  0  2  0  0  3  0  0  0  0  0  0
  194.0290  173.5270  142.2980 O   0  0  0  0  0  0  0  0  0  0  0  0
  192.1040  172.3640  141.6740 N   0  0  0  0  0  0  0  0  0  0  0  0
  191.2420  176.3920  147.6280 C   0  0  0  0  0  0  0  0  0  0  0  0
  190.1610  176.1660  143.8970 C   0  0  0  0  0  0  0  0  0  0  0  0
  194.4310  176.5280  145.8250 C   0  0  2  0  0  3  0  0  0  0  0  0
  194.1690  171.6640  140.6450 C   0  0  0  0  0  1  0  0  0  0  0  0
  192.3150  175.6590  146.8890 C   0  0  0  0  0  2  0  0  0  0  0  0
  190.0040  176.9770  142.7630 C   0  0  0  0  0  3  0  0  0  0  0  0
  188.1340  177.1240  144.8340 C   0  0  0  0  0  3  0  0  0  0  0  0
  187.9780  177.9160  143.6940 C   0  0  0  0  0  3  0  0  0  0  0  0
  189.8580  176.2470  147.2900 N   0  0  0  0  0  2  0  0  0  0  0  0
  193.6670  175.0850  144.1190 C   0  0  1  0  0  3  0  0  0  0  0  0
  192.8920  176.5570  145.8020 C   0  0  2  0  0  3  0  0  0  0  0  0
  193.3490  174.7200  142.6940 C   0  0  2  0  0  3  0  0  0  0  0  0
  196.0410  174.9160  144.7880 C   0  0  0  0  0  1  0  0  0  0  0  0
  191.3530  175.2680  144.0380 C   0  0  1  0  0  3  0  0  0  0  0  0
  1  6  1  0  0  0  0
  4 20  2  0  0  0  0
  4 22  1  0  0  0  0
  5 27  1  1  0  0  0
  5 17  1  0  0  0  0
  6 23  1  0  0  0  0
  8  7  1  6  0  0  0
  8 10  1  0  0  0  0
  8  2  1  0  0  0  0
  9 14  2  0  0  0  0
  9 13  1  0  0  0  0
 10 28  1  0  0  0  0
 12 25  1  0  0  0  0
 13 26  1  0  0  0  0
 14  8  1  0  0  0  0
 15 11  2  0  0  0  0
 16 28  1  0  0  0  0
 16  1  2  0  0  0  0
 17  3  1  0  0  0  0
 18  9  1  0  0  0  0
 19 15  1  0  0  0  0
 20 16  1  0  0  0  0
 21  1  1  0  0  0  0
 22 21  2  0  0  0  0
 23 15  1  0  0  0  0
 24 12  1  0  0  0  0
 24  5  1  0  0  0  0
 25 17  1  0  0  0  0
 25 19  1  0  0  0  0
 26 10  1  0  0  0  0
 26 24  1  0  0  0  0
 28 12  1  0  0  0  0
M  END
>  <MODEL>
8

>  <REMARK>
 VINA RESULT:      -7.5      3.507      6.740
  Name = 
  0 active torsions:
  status: ('A' for Active; 'I' for Inactive)
                            x       y       z     vdW  Elec       q    Type
                         _______ _______ _______ _____ _____    ______ ____

>  <TORSDO>
F 0

$$$$
=
 OpenBabel11112417353D

 28 32  0  0  1  0  0  0  0  0999 V2000
  190.9160  175.3590  143.2360 C   0  0  0  0  0  0  0  0  0  0  0  0
  187.5770  175.7620  146.2620 N   0  0  0  0  0  1  0  0  0  0  0  0
  186.4220  177.5640  139.9430 O   0  0  0  0  0  1  0  0  0  0  0  0
  192.4510  177.7030  143.1360 C   0  0  0  0  0  3  0  0  0  0  0  0
  185.9530  177.9770  142.2590 C   0  0  2  0  0  3  0  0  0  0  0  0
  190.1200  174.0910  143.2620 C   0  0  0  0  0  2  0  0  0  0  0  0
  189.5600  176.7340  146.9710 O   0  0  0  0  0  1  0  0  0  0  0  0
  188.3160  177.0100  146.4060 C   0  0  1  0  0  0  0  0  0  0  0  0
  186.5660  178.5910  146.8770 C   0  0  0  0  0  0  0  0  0  0  0  0
  188.5250  177.6850  145.0330 C   0  0  2  0  0  3  0  0  0  0  0  0
  188.3650  173.6750  140.0610 O   0  0  0  0  0  0  0  0  0  0  0  0
  188.0470  177.1460  142.7770 C   0  0  2  0  0  3  0  0  0  0  0  0
  186.2520  178.6110  145.5170 O   0  0  0  0  0  0  0  0  0  0  0  0
  187.5740  177.8940  147.3010 N   0  0  0  0  0  0  0  0  0  0  0  0
  188.5500  174.0380  141.2520 C   0  0  0  0  0  0  0  0  0  0  0  0
  190.3340  176.5970  143.5760 C   0  0  0  0  0  0  0  0  0  0  0  0
  186.3040  176.9350  141.1810 C   0  0  2  0  0  3  0  0  0  0  0  0
  185.7450  179.3700  147.8390 C   0  0  0  0  0  1  0  0  0  0  0  0
  187.4920  174.8410  141.9380 C   0  0  0  0  0  2  0  0  0  0  0  0
  191.1070  177.7660  143.5100 C   0  0  0  0  0  3  0  0  0  0  0  0
  192.2640  175.3070  142.8620 C   0  0  0  0  0  3  0  0  0  0  0  0
  193.0300  176.4740  142.8140 C   0  0  0  0  0  3  0  0  0  0  0  0
  189.7700  173.6790  141.9090 N   0  0  0  0  0  2  0  0  0  0  0  0
  186.7750  177.5080  143.4230 C   0  0  1  0  0  3  0  0  0  0  0  0
  187.6550  176.3130  141.5800 C   0  0  2  0  0  3  0  0  0  0  0  0
  187.2550  178.4250  144.5160 C   0  0  2  0  0  3  0  0  0  0  0  0
  184.4780  177.8960  142.5970 C   0  0  0  0  0  1  0  0  0  0  0  0
  188.8790  176.6610  143.9300 C   0  0  1  0  0  3  0  0  0  0  0  0
  1  6  1  0  0  0  0
  1 16  1  0  0  0  0
  3 17  1  0  0  0  0
  4 20  1  0  0  0  0
  5 27  1  1  0  0  0
  5 24  1  0  0  0  0
  8  2  1  6  0  0  0
  8  7  1  0  0  0  0
  8 14  1  0  0  0  0
  9 14  2  0  0  0  0
  9 18  1  0  0  0  0
 10  8  1  0  0  0  0
 11 15  2  0  0  0  0
 12 24  1  0  0  0  0
 12 28  1  0  0  0  0
 13  9  1  0  0  0  0
 15 23  1  0  0  0  0
 15 19  1  0  0  0  0
 16 28  1  0  0  0  0
 17 25  1  0  0  0  0
 17  5  1  0  0  0  0
 20 16  2  0  0  0  0
 21  1  2  0  0  0  0
 22 21  1  0  0  0  0
 22  4  2  0  0  0  0
 23  6  1  0  0  0  0
 24 26  1  0  0  0  0
 25 19  1  0  0  0  0
 25 12  1  0  0  0  0
 26 10  1  0  0  0  0
 26 13  1  0  0  0  0
 28 10  1  0  0  0  0
M  END
>  <MODEL>
9

>  <REMARK>
 VINA RESULT:      -7.5      2.230      4.781
  Name = 
  0 active torsions:
  status: ('A' for Active; 'I' for Inactive)
                            x       y       z     vdW  Elec       q    Type
                         _______ _______ _______ _____ _____    ______ ____

>  <TORSDO>
F 0

$$$$
