=
 OpenBabel11112416433D

 32 36  0  0  1  0  0  0  0  0999 V2000
  190.2460  175.5800  144.6080 C   0  0  1  0  0  3  0  0  0  0  0  0
  191.3630  177.5500  148.9720 C   0  0  0  0  0  3  0  0  0  0  0  0
  190.3190  178.4630  148.8130 C   0  0  0  0  0  3  0  0  0  0  0  0
  188.0080  176.1020  143.4530 C   0  0  2  0  0  3  0  0  0  0  0  0
  186.5440  176.4960  143.6960 C   0  0  2  0  0  3  0  0  0  0  0  0
  191.9240  174.2830  143.5360 C   0  0  2  0  0  3  0  0  0  0  0  0
  192.1480  174.7020  145.9710 O   0  0  0  0  0  0  0  0  0  0  0  0
  186.0000  178.7200  144.0460 C   0  0  0  0  0  0  0  0  0  0  0  0
  191.5390  176.5230  148.0440 C   0  0  0  0  0  3  0  0  0  0  0  0
  190.8330  175.2580  145.9850 C   0  0  1  0  0  3  0  0  0  0  0  0
  190.6790  176.4040  146.9440 C   0  0  0  0  0  0  0  0  0  0  0  0
  188.6820  177.2430  145.5910 C   0  0  2  0  0  3  0  0  0  0  0  0
  185.6740  178.5090  142.6920 N   0  0  0  0  0  0  0  0  0  0  0  0
  192.7880  174.8190  144.7080 C   0  0  2  0  0  3  0  0  0  0  0  0
  185.9460  177.1030  142.4070 C   0  0  0  0  0  3  0  0  0  0  0  0
  189.4410  178.3410  147.7330 C   0  0  0  0  0  3  0  0  0  0  0  0
  189.5890  177.2970  146.8070 C   0  0  0  0  0  0  0  0  0  0  0  0
  187.2250  177.5380  145.9310 C   0  0  0  0  0  2  0  0  0  0  0  0
  190.4780  174.4220  143.7610 N   0  0  0  0  0  2  0  0  0  0  0  0
  188.0270  174.9160  142.7140 O   0  0  0  0  0  1  0  0  0  0  0  0
  185.9090  179.8420  144.6090 O   0  0  0  0  0  0  0  0  0  0  0  0
  188.7660  175.9260  144.7860 C   0  0  2  0  0  3  0  0  0  0  0  0
  186.4610  177.5580  144.6930 N   0  0  0  0  0  0  0  0  0  0  0  0
  194.1780  176.6870  145.6170 C   0  0  0  0  0  1  0  0  0  0  0  0
  193.2900  176.2480  144.4660 C   0  0  1  0  0  3  0  0  0  0  0  0
  194.0110  176.3200  143.2710 O   0  0  0  0  0  0  0  0  0  0  0  0
  195.3040  175.9080  143.6070 C   0  0  0  0  0  2  0  0  0  0  0  0
  196.2950  176.5670  142.7110 C   0  0  0  0  0  0  0  0  0  0  0  0
  197.4660  176.7850  143.1180 O   0  0  0  0  0  1  0  0  0  0  0  0
  195.9370  176.9100  141.4150 O   0  0  0  0  0  0  0  0  0  0  0  0
  191.5050  172.0080  144.1140 O   0  0  0  0  0  1  0  0  0  0  0  0
  192.2640  172.8280  143.2780 C   0  0  0  0  0  2  0  0  0  0  0  0
  1 19  1  6  0  0  0
  1 22  1  0  0  0  0
  1 10  1  0  0  0  0
  3  2  1  0  0  0  0
  4 20  1  1  0  0  0
  4  5  1  0  0  0  0
  4 22  1  0  0  0  0
  5 15  1  6  0  0  0
  5 23  1  0  0  0  0
  6 32  1  1  0  0  0
  6 19  1  0  0  0  0
  6 14  1  0  0  0  0
  8 21  2  0  0  0  0
  8 23  1  0  0  0  0
  9  2  2  0  0  0  0
 10  7  1  6  0  0  0
 10 11  1  0  0  0  0
 11  9  1  0  0  0  0
 12 18  1  1  0  0  0
 12 17  1  0  0  0  0
 13  8  1  0  0  0  0
 14 25  1  6  0  0  0
 14  7  1  0  0  0  0
 15 13  2  0  0  0  0
 16  3  2  0  0  0  0
 17 11  2  0  0  0  0
 17 16  1  0  0  0  0
 22 12  1  0  0  0  0
 23 18  1  0  0  0  0
 25 24  1  0  0  0  0
 26 27  1  0  0  0  0
 26 25  1  0  0  0  0
 28 29  1  0  0  0  0
 28 27  1  0  0  0  0
 30 28  2  0  0  0  0
 32 31  1  0  0  0  0
M  END
>  <MODEL>
1

>  <REMARK>
 VINA RESULT:      -7.3      0.000      0.000
  Name = 
  5 active torsions:
  status: ('A' for Active; 'I' for Inactive)
    1  A    between atoms: CA_7  and  C_19
    2  A    between atoms: C_10  and  C_17
    3  A    between atoms: C_10  and  O_20
    4  A    between atoms: O_20  and  C_29
    5  A    between atoms: C_29  and  C_30
                            x       y       z     vdW  Elec       q    Type
                         _______ _______ _______ _____ _____    ______ ____

>  <TORSDO>
F 5

$$$$
=
 OpenBabel11112416433D

 32 36  0  0  1  0  0  0  0  0999 V2000
  189.0580  175.8610  143.0350 C   0  0  1  0  0  3  0  0  0  0  0  0
  192.1130  176.1990  146.8710 C   0  0  0  0  0  3  0  0  0  0  0  0
  192.6200  174.9360  146.5630 C   0  0  0  0  0  3  0  0  0  0  0  0
  189.4010  174.0690  141.2210 C   0  0  2  0  0  3  0  0  0  0  0  0
  190.4500  173.1980  140.5160 C   0  0  2  0  0  3  0  0  0  0  0  0
  187.1600  177.2910  143.0230 C   0  0  2  0  0  3  0  0  0  0  0  0
  189.0580  177.8780  144.5100 O   0  0  0  0  0  0  0  0  0  0  0  0
  191.1580  171.2280  141.5080 C   0  0  0  0  0  0  0  0  0  0  0  0
  191.1990  176.8130  146.0140 C   0  0  0  0  0  3  0  0  0  0  0  0
  189.8410  176.8560  143.8940 C   0  0  1  0  0  3  0  0  0  0  0  0
  190.7760  176.1640  144.8460 C   0  0  0  0  0  0  0  0  0  0  0  0
  190.8360  174.1420  143.2870 C   0  0  2  0  0  3  0  0  0  0  0  0
  190.2180  170.7970  140.5510 N   0  0  0  0  0  0  0  0  0  0  0  0
  187.6620  177.6170  144.4550 C   0  0  2  0  0  3  0  0  0  0  0  0
  189.7590  171.9900  139.8450 C   0  0  0  0  0  3  0  0  0  0  0  0
  192.2230  174.2900  145.3910 C   0  0  0  0  0  3  0  0  0  0  0  0
  191.3250  174.9050  144.5050 C   0  0  0  0  0  0  0  0  0  0  0  0
  191.9550  173.3900  142.5760 C   0  0  0  0  0  2  0  0  0  0  0  0
  188.1710  176.6350  142.1820 N   0  0  0  0  0  2  0  0  0  0  0  0
  188.7230  174.8120  140.2530 O   0  0  0  0  0  1  0  0  0  0  0  0
  191.7290  170.4460  142.3130 O   0  0  0  0  0  0  0  0  0  0  0  0
  190.0590  175.0000  142.2620 C   0  0  2  0  0  3  0  0  0  0  0  0
  191.3700  172.6200  141.4890 N   0  0  0  0  0  0  0  0  0  0  0  0
  187.8640  176.8750  146.8330 C   0  0  0  0  0  1  0  0  0  0  0  0
  187.2500  176.5540  145.4810 C   0  0  1  0  0  3  0  0  0  0  0  0
  185.8590  176.5030  145.6050 O   0  0  0  0  0  0  0  0  0  0  0  0
  185.5910  177.0320  146.8710 C   0  0  0  0  0  2  0  0  0  0  0  0
  184.9550  178.3720  146.7380 C   0  0  0  0  0  0  0  0  0  0  0  0
  185.4240  179.3570  147.3650 O   0  0  0  0  0  1  0  0  0  0  0  0
  183.8650  178.5400  145.8960 O   0  0  0  0  0  0  0  0  0  0  0  0
  185.9110  179.3110  143.2400 O   0  0  0  0  0  1  0  0  0  0  0  0
  186.6820  178.5630  142.3500 C   0  0  0  0  0  2  0  0  0  0  0  0
  1 19  1  6  0  0  0
  1 10  1  0  0  0  0
  3  2  1  0  0  0  0
  4 20  1  6  0  0  0
  4 22  1  0  0  0  0
  5 15  1  1  0  0  0
  5  4  1  0  0  0  0
  5 23  1  0  0  0  0
  6 32  1  6  0  0  0
  6 14  1  0  0  0  0
  8 21  2  0  0  0  0
  9  2  2  0  0  0  0
 10  7  1  1  0  0  0
 10 11  1  0  0  0  0
 11  9  1  0  0  0  0
 12 18  1  6  0  0  0
 12 17  1  0  0  0  0
 13  8  1  0  0  0  0
 14  7  1  0  0  0  0
 14 25  1  1  0  0  0
 15 13  2  0  0  0  0
 16  3  2  0  0  0  0
 17 11  2  0  0  0  0
 17 16  1  0  0  0  0
 19  6  1  0  0  0  0
 22  1  1  0  0  0  0
 22 12  1  0  0  0  0
 23  8  1  0  0  0  0
 23 18  1  0  0  0  0
 25 26  1  0  0  0  0
 25 24  1  0  0  0  0
 26 27  1  0  0  0  0
 28 27  1  0  0  0  0
 28 29  1  0  0  0  0
 30 28  2  0  0  0  0
 32 31  1  0  0  0  0
M  END
>  <MODEL>
2

>  <REMARK>
 VINA RESULT:      -7.2      3.220      7.134
  Name = 
  5 active torsions:
  status: ('A' for Active; 'I' for Inactive)
    1  A    between atoms: CA_7  and  C_19
    2  A    between atoms: C_10  and  C_17
    3  A    between atoms: C_10  and  O_20
    4  A    between atoms: O_20  and  C_29
    5  A    between atoms: C_29  and  C_30
                            x       y       z     vdW  Elec       q    Type
                         _______ _______ _______ _____ _____    ______ ____

>  <TORSDO>
F 5

$$$$
=
 OpenBabel11112416433D

 32 36  0  0  1  0  0  0  0  0999 V2000
  189.7990  176.0080  144.1530 C   0  0  1  0  0  3  0  0  0  0  0  0
  190.0590  173.4110  139.9870 C   0  0  0  0  0  3  0  0  0  0  0  0
  191.4440  173.5850  139.9790 C   0  0  0  0  0  3  0  0  0  0  0  0
  191.9090  176.5030  145.5390 C   0  0  2  0  0  3  0  0  0  0  0  0
  193.3110  175.9900  145.8970 C   0  0  2  0  0  3  0  0  0  0  0  0
  187.6890  176.9370  144.7290 C   0  0  2  0  0  3  0  0  0  0  0  0
  187.7410  175.0850  143.0780 O   0  0  0  0  0  0  0  0  0  0  0  0
  195.0860  176.4150  144.4700 C   0  0  0  0  0  0  0  0  0  0  0  0
  189.3060  173.8480  141.0770 C   0  0  0  0  0  3  0  0  0  0  0  0
  189.1240  174.8820  143.3660 C   0  0  1  0  0  3  0  0  0  0  0  0
  189.9310  174.4720  142.1660 C   0  0  0  0  0  0  0  0  0  0  0  0
  192.0420  175.3410  143.3120 C   0  0  2  0  0  3  0  0  0  0  0  0
  195.2310  177.3890  145.4770 N   0  0  0  0  0  0  0  0  0  0  0  0
  187.3140  176.4200  143.3150 C   0  0  2  0  0  3  0  0  0  0  0  0
  194.1670  177.1530  146.4490 C   0  0  0  0  0  3  0  0  0  0  0  0
  192.0790  174.1850  141.0680 C   0  0  0  0  0  3  0  0  0  0  0  0
  191.3390  174.6050  142.1840 C   0  0  0  0  0  0  0  0  0  0  0  0
  193.3770  174.7070  143.6850 C   0  0  0  0  0  2  0  0  0  0  0  0
  188.9230  176.3420  145.2630 N   0  0  0  0  0  2  0  0  0  0  0  0
  191.1840  176.6650  146.7220 O   0  0  0  0  0  1  0  0  0  0  0  0
  195.8300  176.3550  143.4570 O   0  0  0  0  0  0  0  0  0  0  0  0
  191.1860  175.5280  144.5860 C   0  0  2  0  0  3  0  0  0  0  0  0
  194.0090  175.5370  144.6990 N   0  0  0  0  0  0  0  0  0  0  0  0
  187.2760  176.8640  140.8560 C   0  0  0  0  0  1  0  0  0  0  0  0
  187.7800  177.3630  142.2000 C   0  0  1  0  0  3  0  0  0  0  0  0
  187.3030  178.6580  142.4200 O   0  0  0  0  0  0  0  0  0  0  0  0
  185.9570  178.6150  142.0440 C   0  0  0  0  0  2  0  0  0  0  0  0
  185.0970  179.0130  143.1930 C   0  0  0  0  0  0  0  0  0  0  0  0
  184.0460  178.3680  143.4460 O   0  0  0  0  0  0  0  0  0  0  0  0
  185.4700  180.0750  144.0030 O   0  0  0  0  0  1  0  0  0  0  0  0
  186.2650  177.8330  146.4190 O   0  0  0  0  0  1  0  0  0  0  0  0
  186.5420  176.6780  145.6860 C   0  0  0  0  0  2  0  0  0  0  0  0
  1 22  1  0  0  0  0
  1 19  1  1  0  0  0
  2  9  1  0  0  0  0
  3  2  2  0  0  0  0
  3 16  1  0  0  0  0
  4  5  1  0  0  0  0
  4 20  1  1  0  0  0
  5 15  1  6  0  0  0
  6 19  1  0  0  0  0
  6 32  1  1  0  0  0
  7 14  1  0  0  0  0
  7 10  1  0  0  0  0
  8 23  1  0  0  0  0
  8 13  1  0  0  0  0
  9 11  2  0  0  0  0
 10 11  1  6  0  0  0
 10  1  1  0  0  0  0
 11 17  1  0  0  0  0
 12 18  1  1  0  0  0
 12 22  1  0  0  0  0
 13 15  2  0  0  0  0
 14 25  1  6  0  0  0
 14  6  1  0  0  0  0
 16 17  2  0  0  0  0
 17 12  1  0  0  0  0
 18 23  1  0  0  0  0
 21  8  2  0  0  0  0
 22  4  1  0  0  0  0
 23  5  1  0  0  0  0
 24 25  1  0  0  0  0
 25 26  1  0  0  0  0
 27 26  1  0  0  0  0
 27 28  1  0  0  0  0
 28 29  2  0  0  0  0
 28 30  1  0  0  0  0
 32 31  1  0  0  0  0
M  END
>  <MODEL>
3

>  <REMARK>
 VINA RESULT:      -7.1      2.316      7.779
  Name = 
  5 active torsions:
  status: ('A' for Active; 'I' for Inactive)
    1  A    between atoms: CA_7  and  C_19
    2  A    between atoms: C_10  and  C_17
    3  A    between atoms: C_10  and  O_20
    4  A    between atoms: O_20  and  C_29
    5  A    between atoms: C_29  and  C_30
                            x       y       z     vdW  Elec       q    Type
                         _______ _______ _______ _____ _____    ______ ____

>  <TORSDO>
F 5

$$$$
=
 OpenBabel11112416433D

 32 36  0  0  1  0  0  0  0  0999 V2000
  190.0050  175.4850  143.5370 C   0  0  1  0  0  3  0  0  0  0  0  0
  191.6140  176.5540  148.0570 C   0  0  0  0  0  3  0  0  0  0  0  0
  190.5890  177.4940  148.1870 C   0  0  0  0  0  3  0  0  0  0  0  0
  187.6810  176.2500  142.7420 C   0  0  2  0  0  3  0  0  0  0  0  0
  186.2630  176.6080  143.2070 C   0  0  2  0  0  3  0  0  0  0  0  0
  191.5250  174.4000  142.0660 C   0  0  2  0  0  3  0  0  0  0  0  0
  192.0030  174.3340  144.5010 O   0  0  0  0  0  0  0  0  0  0  0  0
  185.8290  178.7290  144.0320 C   0  0  0  0  0  0  0  0  0  0  0  0
  191.6630  175.7250  146.9370 C   0  0  0  0  0  3  0  0  0  0  0  0
  190.7150  174.8930  144.7570 C   0  0  1  0  0  3  0  0  0  0  0  0
  190.6940  175.8340  145.9300 C   0  0  0  0  0  0  0  0  0  0  0  0
  188.6010  176.9450  144.9780 C   0  0  2  0  0  3  0  0  0  0  0  0
  185.3630  178.7890  142.7040 N   0  0  0  0  0  0  0  0  0  0  0  0
  192.5180  174.6870  143.2240 C   0  0  2  0  0  3  0  0  0  0  0  0
  185.5600  177.4620  142.1280 C   0  0  0  0  0  3  0  0  0  0  0  0
  189.6060  177.5950  147.2000 C   0  0  0  0  0  3  0  0  0  0  0  0
  189.6260  176.7490  146.0810 C   0  0  0  0  0  0  0  0  0  0  0  0
  187.1960  177.1870  145.5170 C   0  0  0  0  0  2  0  0  0  0  0  0
  190.1140  174.5110  142.4630 N   0  0  0  0  0  2  0  0  0  0  0  0
  187.5880  175.2310  141.7910 O   0  0  0  0  0  1  0  0  0  0  0  0
  185.8320  179.7210  144.8070 O   0  0  0  0  0  0  0  0  0  0  0  0
  188.5620  175.8090  143.9300 C   0  0  2  0  0  3  0  0  0  0  0  0
  186.3140  177.4570  144.3920 N   0  0  0  0  0  0  0  0  0  0  0  0
  194.1960  176.2700  144.1850 C   0  0  0  0  0  1  0  0  0  0  0  0
  193.0390  176.1290  143.2100 C   0  0  1  0  0  3  0  0  0  0  0  0
  193.4690  176.4840  141.9280 O   0  0  0  0  0  0  0  0  0  0  0  0
  194.8070  176.0820  141.8730 C   0  0  0  0  0  2  0  0  0  0  0  0
  195.1440  175.6250  140.4960 C   0  0  0  0  0  0  0  0  0  0  0  0
  194.2460  175.1530  139.7520 O   0  0  0  0  0  0  0  0  0  0  0  0
  196.4420  175.7510  140.0230 O   0  0  0  0  0  1  0  0  0  0  0  0
  193.1010  172.6350  141.7790 O   0  0  0  0  0  1  0  0  0  0  0  0
  191.7890  173.0180  141.5000 C   0  0  0  0  0  2  0  0  0  0  0  0
  1 19  1  6  0  0  0
  1 22  1  0  0  0  0
  1 10  1  0  0  0  0
  2  3  1  0  0  0  0
  4 20  1  6  0  0  0
  4  5  1  0  0  0  0
  4 22  1  0  0  0  0
  5 15  1  6  0  0  0
  5 23  1  0  0  0  0
  6 32  1  1  0  0  0
  6 19  1  0  0  0  0
  6 14  1  0  0  0  0
  8 23  1  0  0  0  0
  8 21  2  0  0  0  0
  9  2  2  0  0  0  0
 10  7  1  6  0  0  0
 10 11  1  0  0  0  0
 11 17  2  0  0  0  0
 11  9  1  0  0  0  0
 12 18  1  1  0  0  0
 12 17  1  0  0  0  0
 13  8  1  0  0  0  0
 14 25  1  1  0  0  0
 14  7  1  0  0  0  0
 15 13  2  0  0  0  0
 16  3  2  0  0  0  0
 17 16  1  0  0  0  0
 22 12  1  0  0  0  0
 23 18  1  0  0  0  0
 25 24  1  0  0  0  0
 26 25  1  0  0  0  0
 27 26  1  0  0  0  0
 28 27  1  0  0  0  0
 29 28  2  0  0  0  0
 30 28  1  0  0  0  0
 32 31  1  0  0  0  0
M  END
>  <MODEL>
4

>  <REMARK>
 VINA RESULT:      -7.1      1.327      1.585
  Name = 
  5 active torsions:
  status: ('A' for Active; 'I' for Inactive)
    1  A    between atoms: CA_7  and  C_19
    2  A    between atoms: C_10  and  C_17
    3  A    between atoms: C_10  and  O_20
    4  A    between atoms: O_20  and  C_29
    5  A    between atoms: C_29  and  C_30
                            x       y       z     vdW  Elec       q    Type
                         _______ _______ _______ _____ _____    ______ ____

>  <TORSDO>
F 5

$$$$
=
 OpenBabel11112416433D

 32 36  0  0  1  0  0  0  0  0999 V2000
  188.4790  176.4960  143.8190 C   0  0  1  0  0  3  0  0  0  0  0  0
  186.2900  177.4680  139.5260 C   0  0  0  0  0  3  0  0  0  0  0  0
  185.1770  177.9520  140.2170 C   0  0  0  0  0  3  0  0  0  0  0  0
  187.5790  177.4810  146.0190 C   0  0  2  0  0  3  0  0  0  0  0  0
  186.8090  178.6600  146.6310 C   0  0  2  0  0  3  0  0  0  0  0  0
  190.2780  174.9430  143.8000 C   0  0  2  0  0  3  0  0  0  0  0  0
  189.6110  175.9890  141.6500 O   0  0  0  0  0  0  0  0  0  0  0  0
  184.4930  178.6650  146.5790 C   0  0  0  0  0  0  0  0  0  0  0  0
  187.4410  177.1040  140.2250 C   0  0  0  0  0  3  0  0  0  0  0  0
  188.7530  176.8790  142.3630 C   0  0  1  0  0  3  0  0  0  0  0  0
  187.4880  177.2110  141.6220 C   0  0  0  0  0  0  0  0  0  0  0  0
  186.3690  177.8090  143.8380 C   0  0  2  0  0  3  0  0  0  0  0  0
  184.7930  178.2370  147.8870 N   0  0  0  0  0  0  0  0  0  0  0  0
  189.8220  174.7580  142.3280 C   0  0  2  0  0  3  0  0  0  0  0  0
  186.2480  178.2550  148.0130 C   0  0  0  0  0  3  0  0  0  0  0  0
  185.2210  178.0840  141.6070 C   0  0  0  0  0  3  0  0  0  0  0  0
  186.3810  177.7480  142.3210 C   0  0  0  0  0  0  0  0  0  0  0  0
  185.6830  179.0630  144.3700 C   0  0  0  0  0  2  0  0  0  0  0  0
  189.7600  176.1680  144.4250 N   0  0  0  0  0  2  0  0  0  0  0  0
  188.8190  177.3880  146.6550 O   0  0  0  0  0  1  0  0  0  0  0  0
  183.3190  178.7360  146.1290 O   0  0  0  0  0  0  0  0  0  0  0  0
  187.7590  177.6640  144.4970 C   0  0  2  0  0  3  0  0  0  0  0  0
  185.6390  178.9790  145.8220 N   0  0  0  0  0  0  0  0  0  0  0  0
  188.2410  173.6570  140.7350 C   0  0  0  0  0  1  0  0  0  0  0  0
  188.6040  173.8340  142.1990 C   0  0  1  0  0  3  0  0  0  0  0  0
  188.8750  172.5830  142.7630 O   0  0  0  0  0  0  0  0  0  0  0  0
  189.6400  171.9140  141.8040 C   0  0  0  0  0  2  0  0  0  0  0  0
  190.6010  170.9940  142.4730 C   0  0  0  0  0  0  0  0  0  0  0  0
  190.7960  169.8410  142.0080 O   0  0  0  0  0  0  0  0  0  0  0  0
  191.3050  171.4200  143.5900 O   0  0  0  0  0  1  0  0  0  0  0  0
  192.2800  176.2360  143.7310 O   0  0  0  0  0  1  0  0  0  0  0  0
  191.7930  174.9360  143.8670 C   0  0  0  0  0  2  0  0  0  0  0  0
  1 19  1  1  0  0  0
  1 22  1  0  0  0  0
  2  3  2  0  0  0  0
  2  9  1  0  0  0  0
  3 16  1  0  0  0  0
  4  5  1  0  0  0  0
  4 20  1  1  0  0  0
  5 15  1  1  0  0  0
  6 32  1  6  0  0  0
  6 19  1  0  0  0  0
  7 14  1  0  0  0  0
  7 10  1  0  0  0  0
  8 13  1  0  0  0  0
  9 11  2  0  0  0  0
 10 11  1  6  0  0  0
 10  1  1  0  0  0  0
 11 17  1  0  0  0  0
 12 18  1  6  0  0  0
 12 22  1  0  0  0  0
 13 15  2  0  0  0  0
 14 25  1  1  0  0  0
 14  6  1  0  0  0  0
 16 17  2  0  0  0  0
 17 12  1  0  0  0  0
 18 23  1  0  0  0  0
 21  8  2  0  0  0  0
 22  4  1  0  0  0  0
 23  8  1  0  0  0  0
 23  5  1  0  0  0  0
 24 25  1  0  0  0  0
 25 26  1  0  0  0  0
 27 28  1  0  0  0  0
 27 26  1  0  0  0  0
 28 30  1  0  0  0  0
 29 28  2  0  0  0  0
 31 32  1  0  0  0  0
M  END
>  <MODEL>
5

>  <REMARK>
 VINA RESULT:      -6.9      2.780      5.784
  Name = 
  5 active torsions:
  status: ('A' for Active; 'I' for Inactive)
    1  A    between atoms: CA_7  and  C_19
    2  A    between atoms: C_10  and  C_17
    3  A    between atoms: C_10  and  O_20
    4  A    between atoms: O_20  and  C_29
    5  A    between atoms: C_29  and  C_30
                            x       y       z     vdW  Elec       q    Type
                         _______ _______ _______ _____ _____    ______ ____

>  <TORSDO>
F 5

$$$$
=
 OpenBabel11112416433D

 32 36  0  0  1  0  0  0  0  0999 V2000
  191.3240  175.0070  143.5800 C   0  0  1  0  0  3  0  0  0  0  0  0
  191.3000  176.7440  148.1790 C   0  0  0  0  0  3  0  0  0  0  0  0
  190.2200  177.5650  147.8510 C   0  0  0  0  0  3  0  0  0  0  0  0
  189.3300  175.4040  142.0040 C   0  0  2  0  0  3  0  0  0  0  0  0
  187.8140  175.6420  141.9500 C   0  0  2  0  0  3  0  0  0  0  0  0
  193.3140  173.9540  142.8220 C   0  0  2  0  0  3  0  0  0  0  0  0
  192.9850  174.2100  145.2680 O   0  0  0  0  0  0  0  0  0  0  0  0
  186.9770  177.7750  142.2930 C   0  0  0  0  0  0  0  0  0  0  0  0
  191.7720  175.8090  147.2580 C   0  0  0  0  0  3  0  0  0  0  0  0
  191.6440  174.6400  145.0310 C   0  0  1  0  0  3  0  0  0  0  0  0
  191.1740  175.6930  145.9950 C   0  0  0  0  0  0  0  0  0  0  0  0
  189.4230  176.4410  144.2940 C   0  0  2  0  0  3  0  0  0  0  0  0
  186.9620  177.6350  140.8910 N   0  0  0  0  0  0  0  0  0  0  0  0
  193.8560  174.4790  144.1780 C   0  0  2  0  0  3  0  0  0  0  0  0
  187.4340  176.2850  140.5970 C   0  0  0  0  0  3  0  0  0  0  0  0
  189.6030  177.4430  146.6030 C   0  0  0  0  0  3  0  0  0  0  0  0
  190.0480  176.4880  145.6760 C   0  0  0  0  0  0  0  0  0  0  0  0
  187.9040  176.5750  144.3310 C   0  0  0  0  0  2  0  0  0  0  0  0
  191.8470  173.9410  142.7420 N   0  0  0  0  0  2  0  0  0  0  0  0
  189.6270  174.2830  141.2250 O   0  0  0  0  0  1  0  0  0  0  0  0
  186.6540  178.8390  142.8830 O   0  0  0  0  0  0  0  0  0  0  0  0
  189.8110  175.2010  143.4560 C   0  0  2  0  0  3  0  0  0  0  0  0
  187.4150  176.6150  142.9610 N   0  0  0  0  0  0  0  0  0  0  0  0
  194.9150  176.3690  145.4240 C   0  0  0  0  0  1  0  0  0  0  0  0
  194.2430  175.9620  144.1240 C   0  0  1  0  0  3  0  0  0  0  0  0
  195.1130  176.2050  143.0580 O   0  0  0  0  0  0  0  0  0  0  0  0
  196.3940  176.0880  143.6040 C   0  0  0  0  0  2  0  0  0  0  0  0
  197.2110  175.1490  142.7870 C   0  0  0  0  0  0  0  0  0  0  0  0
  197.2150  173.9190  143.0560 O   0  0  0  0  0  1  0  0  0  0  0  0
  197.9410  175.6250  141.7080 O   0  0  0  0  0  0  0  0  0  0  0  0
  192.8380  171.6190  142.7460 O   0  0  0  0  0  1  0  0  0  0  0  0
  193.8520  172.5590  142.5660 C   0  0  0  0  0  2  0  0  0  0  0  0
  1 19  1  6  0  0  0
  1 10  1  0  0  0  0
  3  2  1  0  0  0  0
  4 20  1  6  0  0  0
  4 22  1  0  0  0  0
  5 15  1  6  0  0  0
  5  4  1  0  0  0  0
  5 23  1  0  0  0  0
  6 32  1  1  0  0  0
  6 14  1  0  0  0  0
  8 21  2  0  0  0  0
  8 23  1  0  0  0  0
  9  2  2  0  0  0  0
 10  7  1  6  0  0  0
 10 11  1  0  0  0  0
 11  9  1  0  0  0  0
 12 18  1  1  0  0  0
 12 17  1  0  0  0  0
 13  8  1  0  0  0  0
 14 25  1  6  0  0  0
 14  7  1  0  0  0  0
 15 13  2  0  0  0  0
 16  3  2  0  0  0  0
 17 11  2  0  0  0  0
 17 16  1  0  0  0  0
 19  6  1  0  0  0  0
 22  1  1  0  0  0  0
 22 12  1  0  0  0  0
 23 18  1  0  0  0  0
 25 24  1  0  0  0  0
 26 27  1  0  0  0  0
 26 25  1  0  0  0  0
 28 29  1  0  0  0  0
 28 27  1  0  0  0  0
 30 28  2  0  0  0  0
 32 31  1  0  0  0  0
M  END
>  <MODEL>
6

>  <REMARK>
 VINA RESULT:      -6.7      1.580      1.790
  Name = 
  5 active torsions:
  status: ('A' for Active; 'I' for Inactive)
    1  A    between atoms: CA_7  and  C_19
    2  A    between atoms: C_10  and  C_17
    3  A    between atoms: C_10  and  O_20
    4  A    between atoms: O_20  and  C_29
    5  A    between atoms: C_29  and  C_30
                            x       y       z     vdW  Elec       q    Type
                         _______ _______ _______ _____ _____    ______ ____

>  <TORSDO>
F 5

$$$$
=
 OpenBabel11112416433D

 32 36  0  0  1  0  0  0  0  0999 V2000
  191.5980  175.7030  144.5790 C   0  0  1  0  0  3  0  0  0  0  0  0
  189.6810  171.6850  142.4940 C   0  0  0  0  0  3  0  0  0  0  0  0
  190.8190  171.5730  141.6930 C   0  0  0  0  0  3  0  0  0  0  0  0
  194.0870  176.2860  144.2920 C   0  0  2  0  0  3  0  0  0  0  0  0
  195.4830  175.6950  144.0480 C   0  0  2  0  0  3  0  0  0  0  0  0
  190.1020  177.1700  145.7010 C   0  0  2  0  0  3  0  0  0  0  0  0
  189.3500  174.8470  145.2550 O   0  0  0  0  0  0  0  0  0  0  0  0
  196.1480  175.1790  141.8900 C   0  0  0  0  0  0  0  0  0  0  0  0
  189.6280  172.6500  143.5000 C   0  0  0  0  0  3  0  0  0  0  0  0
  190.6730  174.5110  144.8360 C   0  0  1  0  0  3  0  0  0  0  0  0
  190.7090  173.5180  143.7090 C   0  0  0  0  0  0  0  0  0  0  0  0
  193.0430  174.3430  143.0820 C   0  0  2  0  0  3  0  0  0  0  0  0
  196.7630  176.4220  142.1370 N   0  0  0  0  0  0  0  0  0  0  0  0
  189.0420  176.2230  145.0760 C   0  0  2  0  0  3  0  0  0  0  0  0
  196.4270  176.7930  143.5090 C   0  0  0  0  0  3  0  0  0  0  0  0
  191.9100  172.4170  141.9070 C   0  0  0  0  0  3  0  0  0  0  0  0
  191.8830  173.3740  142.9330 C   0  0  0  0  0  0  0  0  0  0  0  0
  194.4000  173.6620  142.9360 C   0  0  0  0  0  2  0  0  0  0  0  0
  191.4590  176.6060  145.7100 N   0  0  0  0  0  2  0  0  0  0  0  0
  194.1250  177.0340  145.4710 O   0  0  0  0  0  1  0  0  0  0  0  0
  196.2140  174.5850  140.7820 O   0  0  0  0  0  0  0  0  0  0  0  0
  193.0210  175.1740  144.3850 C   0  0  2  0  0  3  0  0  0  0  0  0
  195.4330  174.6840  142.9980 N   0  0  0  0  0  0  0  0  0  0  0  0
  187.7410  175.5640  143.0470 C   0  0  0  0  0  1  0  0  0  0  0  0
  188.7580  176.5460  143.6040 C   0  0  1  0  0  3  0  0  0  0  0  0
  188.2640  177.8470  143.4730 O   0  0  0  0  0  0  0  0  0  0  0  0
  186.8740  177.7120  143.5280 C   0  0  0  0  0  2  0  0  0  0  0  0
  186.3060  178.7000  144.4860 C   0  0  0  0  0  0  0  0  0  0  0  0
  186.3280  178.4650  145.7220 O   0  0  0  0  0  1  0  0  0  0  0  0
  185.7800  179.8960  144.0170 O   0  0  0  0  0  0  0  0  0  0  0  0
  190.7220  177.2300  148.0020 O   0  0  0  0  0  1  0  0  0  0  0  0
  189.6890  177.5320  147.1140 C   0  0  0  0  0  2  0  0  0  0  0  0
  1 10  1  0  0  0  0
  1 19  1  1  0  0  0
  2  9  1  0  0  0  0
  3 16  1  0  0  0  0
  3  2  2  0  0  0  0
  4 22  1  0  0  0  0
  4 20  1  1  0  0  0
  5 15  1  6  0  0  0
  5  4  1  0  0  0  0
  6 19  1  0  0  0  0
  6 32  1  1  0  0  0
  8 13  1  0  0  0  0
  8 23  1  0  0  0  0
  9 11  2  0  0  0  0
 10 11  1  6  0  0  0
 10  7  1  0  0  0  0
 12 18  1  1  0  0  0
 12 22  1  0  0  0  0
 13 15  2  0  0  0  0
 14 25  1  6  0  0  0
 14  7  1  0  0  0  0
 14  6  1  0  0  0  0
 16 17  2  0  0  0  0
 17 12  1  0  0  0  0
 17 11  1  0  0  0  0
 18 23  1  0  0  0  0
 21  8  2  0  0  0  0
 22  1  1  0  0  0  0
 23  5  1  0  0  0  0
 24 25  1  0  0  0  0
 26 27  1  0  0  0  0
 26 25  1  0  0  0  0
 27 28  1  0  0  0  0
 28 29  1  0  0  0  0
 30 28  2  0  0  0  0
 32 31  1  0  0  0  0
M  END
>  <MODEL>
7

>  <REMARK>
 VINA RESULT:      -6.6      2.343      7.750
  Name = 
  5 active torsions:
  status: ('A' for Active; 'I' for Inactive)
    1  A    between atoms: CA_7  and  C_19
    2  A    between atoms: C_10  and  C_17
    3  A    between atoms: C_10  and  O_20
    4  A    between atoms: O_20  and  C_29
    5  A    between atoms: C_29  and  C_30
                            x       y       z     vdW  Elec       q    Type
                         _______ _______ _______ _____ _____    ______ ____

>  <TORSDO>
F 5

$$$$
=
 OpenBabel11112416433D

 32 36  0  0  1  0  0  0  0  0999 V2000
  191.5740  173.6040  143.8970 C   0  0  1  0  0  3  0  0  0  0  0  0
  189.2590  177.4260  145.9460 C   0  0  0  0  0  3  0  0  0  0  0  0
  188.5150  177.5870  144.7760 C   0  0  0  0  0  3  0  0  0  0  0  0
  190.6680  172.4960  141.7600 C   0  0  2  0  0  3  0  0  0  0  0  0
  189.3950  172.2130  140.9490 C   0  0  2  0  0  3  0  0  0  0  0  0
  193.6490  172.9460  144.8520 C   0  0  2  0  0  3  0  0  0  0  0  0
  192.1280  174.3560  146.2150 O   0  0  0  0  0  0  0  0  0  0  0  0
  188.5500  173.8450  139.5370 C   0  0  0  0  0  0  0  0  0  0  0  0
  190.1110  176.3300  146.0860 C   0  0  0  0  0  3  0  0  0  0  0  0
  191.1050  174.1780  145.2360 C   0  0  1  0  0  3  0  0  0  0  0  0
  190.2350  175.3910  145.0530 C   0  0  0  0  0  0  0  0  0  0  0  0
  189.6090  174.5670  142.7190 C   0  0  2  0  0  3  0  0  0  0  0  0
  189.2460  172.9830  138.6670 N   0  0  0  0  0  0  0  0  0  0  0  0
  193.4390  174.2440  145.6760 C   0  0  2  0  0  3  0  0  0  0  0  0
  189.7710  171.8920  139.4840 C   0  0  0  0  0  3  0  0  0  0  0  0
  188.6140  176.6450  143.7490 C   0  0  0  0  0  3  0  0  0  0  0  0
  189.4460  175.5240  143.8860 C   0  0  0  0  0  0  0  0  0  0  0  0
  188.2860  174.2480  142.0310 C   0  0  0  0  0  2  0  0  0  0  0  0
  192.4260  172.4640  144.1950 N   0  0  0  0  0  2  0  0  0  0  0  0
  191.2930  171.2780  142.0360 O   0  0  0  0  0  1  0  0  0  0  0  0
  187.9970  174.9100  139.1560 O   0  0  0  0  0  0  0  0  0  0  0  0
  190.3390  173.2490  143.0660 C   0  0  2  0  0  3  0  0  0  0  0  0
  188.5610  173.4080  140.8760 N   0  0  0  0  0  0  0  0  0  0  0  0
  194.0660  176.6560  145.8650 C   0  0  0  0  0  1  0  0  0  0  0  0
  193.8340  175.5060  144.9000 C   0  0  1  0  0  3  0  0  0  0  0  0
  194.9970  175.2830  144.1580 O   0  0  0  0  0  0  0  0  0  0  0  0
  194.8120  176.0020  142.9740 C   0  0  0  0  0  2  0  0  0  0  0  0
  196.0760  176.6930  142.5970 C   0  0  0  0  0  0  0  0  0  0  0  0
  196.8280  177.1620  143.4900 O   0  0  0  0  0  1  0  0  0  0  0  0
  196.4410  176.7920  141.2620 O   0  0  0  0  0  0  0  0  0  0  0  0
  195.6030  171.9300  145.7660 O   0  0  0  0  0  1  0  0  0  0  0  0
  194.2090  171.8590  145.7490 C   0  0  0  0  0  2  0  0  0  0  0  0
  1 19  1  1  0  0  0
  1 10  1  0  0  0  0
  2  9  1  0  0  0  0
  3  2  2  0  0  0  0
  4 20  1  1  0  0  0
  4 22  1  0  0  0  0
  5 15  1  6  0  0  0
  5  4  1  0  0  0  0
  6 14  1  0  0  0  0
  6 32  1  1  0  0  0
  8 23  1  0  0  0  0
 10 11  1  6  0  0  0
 10  7  1  0  0  0  0
 11  9  2  0  0  0  0
 12 18  1  1  0  0  0
 12 22  1  0  0  0  0
 12 17  1  0  0  0  0
 13 15  2  0  0  0  0
 13  8  1  0  0  0  0
 14 25  1  6  0  0  0
 14  7  1  0  0  0  0
 16 17  2  0  0  0  0
 16  3  1  0  0  0  0
 17 11  1  0  0  0  0
 19  6  1  0  0  0  0
 21  8  2  0  0  0  0
 22  1  1  0  0  0  0
 23  5  1  0  0  0  0
 23 18  1  0  0  0  0
 25 24  1  0  0  0  0
 26 25  1  0  0  0  0
 27 26  1  0  0  0  0
 28 27  1  0  0  0  0
 28 29  1  0  0  0  0
 30 28  2  0  0  0  0
 32 31  1  0  0  0  0
M  END
>  <MODEL>
8

>  <REMARK>
 VINA RESULT:      -6.6      2.679      4.063
  Name = 
  5 active torsions:
  status: ('A' for Active; 'I' for Inactive)
    1  A    between atoms: CA_7  and  C_19
    2  A    between atoms: C_10  and  C_17
    3  A    between atoms: C_10  and  O_20
    4  A    between atoms: O_20  and  C_29
    5  A    between atoms: C_29  and  C_30
                            x       y       z     vdW  Elec       q    Type
                         _______ _______ _______ _____ _____    ______ ____

>  <TORSDO>
F 5

$$$$
=
 OpenBabel11112416433D

 32 36  0  0  1  0  0  0  0  0999 V2000
  189.5820  174.9280  143.9690 C   0  0  1  0  0  3  0  0  0  0  0  0
  191.5450  176.4020  148.2290 C   0  0  0  0  0  3  0  0  0  0  0  0
  190.6520  177.4740  148.2550 C   0  0  0  0  0  3  0  0  0  0  0  0
  187.3310  175.8680  143.1520 C   0  0  2  0  0  3  0  0  0  0  0  0
  185.9930  176.4670  143.6090 C   0  0  2  0  0  3  0  0  0  0  0  0
  190.8780  173.4620  142.6210 C   0  0  2  0  0  3  0  0  0  0  0  0
  191.4720  173.6760  145.0210 O   0  0  0  0  0  0  0  0  0  0  0  0
  185.8670  178.7200  144.1320 C   0  0  0  0  0  0  0  0  0  0  0  0
  191.4340  175.4250  147.2390 C   0  0  0  0  0  3  0  0  0  0  0  0
  190.2770  174.4270  145.2370 C   0  0  1  0  0  3  0  0  0  0  0  0
  190.4330  175.5160  146.2610 C   0  0  0  0  0  0  0  0  0  0  0  0
  188.4450  176.7440  145.2310 C   0  0  2  0  0  3  0  0  0  0  0  0
  185.3430  178.6540  142.8260 N   0  0  0  0  0  0  0  0  0  0  0  0
  191.9580  173.7770  143.6890 C   0  0  2  0  0  3  0  0  0  0  0  0
  185.3450  177.2450  142.4420 C   0  0  0  0  0  3  0  0  0  0  0  0
  189.6370  177.5630  147.2990 C   0  0  0  0  0  3  0  0  0  0  0  0
  189.4950  176.5740  146.3140 C   0  0  0  0  0  0  0  0  0  0  0  0
  187.1110  177.2380  145.7770 C   0  0  0  0  0  2  0  0  0  0  0  0
  189.5140  173.8080  143.0450 N   0  0  0  0  0  2  0  0  0  0  0  0
  187.0640  174.7460  142.3630 O   0  0  0  0  0  1  0  0  0  0  0  0
  186.0320  179.8020  144.7550 O   0  0  0  0  0  0  0  0  0  0  0  0
  188.2130  175.4870  144.3610 C   0  0  2  0  0  3  0  0  0  0  0  0
  186.2110  177.4590  144.6560 N   0  0  0  0  0  0  0  0  0  0  0  0
  194.0430  174.8960  142.8830 C   0  0  0  0  0  1  0  0  0  0  0  0
  192.6510  175.1240  143.4480 C   0  0  1  0  0  3  0  0  0  0  0  0
  191.9110  175.9050  142.5550 O   0  0  0  0  0  0  0  0  0  0  0  0
  192.3290  177.2170  142.7930 C   0  0  0  0  0  2  0  0  0  0  0  0
  191.1520  178.0760  143.1030 C   0  0  0  0  0  0  0  0  0  0  0  0
  191.2380  178.9670  143.9880 O   0  0  0  0  0  1  0  0  0  0  0  0
  189.9710  177.9150  142.3930 O   0  0  0  0  0  0  0  0  0  0  0  0
  189.8790  171.3090  142.8430 O   0  0  0  0  0  1  0  0  0  0  0  0
  190.9420  171.9930  142.2520 C   0  0  0  0  0  2  0  0  0  0  0  0
  1 19  1  6  0  0  0
  1 22  1  0  0  0  0
  1 10  1  0  0  0  0
  2  3  1  0  0  0  0
  4 20  1  1  0  0  0
  4  5  1  0  0  0  0
  4 22  1  0  0  0  0
  5 15  1  6  0  0  0
  5 23  1  0  0  0  0
  6 32  1  1  0  0  0
  6 19  1  0  0  0  0
  6 14  1  0  0  0  0
  8 23  1  0  0  0  0
  8 21  2  0  0  0  0
  9  2  2  0  0  0  0
 10  7  1  6  0  0  0
 10 11  1  0  0  0  0
 11 17  2  0  0  0  0
 11  9  1  0  0  0  0
 12 18  1  1  0  0  0
 12 17  1  0  0  0  0
 13  8  1  0  0  0  0
 14 25  1  6  0  0  0
 14  7  1  0  0  0  0
 15 13  2  0  0  0  0
 16  3  2  0  0  0  0
 17 16  1  0  0  0  0
 22 12  1  0  0  0  0
 23 18  1  0  0  0  0
 24 25  1  0  0  0  0
 26 27  1  0  0  0  0
 26 25  1  0  0  0  0
 27 28  1  0  0  0  0
 28 29  1  0  0  0  0
 30 28  2  0  0  0  0
 32 31  1  0  0  0  0
M  END
>  <MODEL>
9

>  <REMARK>
 VINA RESULT:      -6.5      1.769      2.326
  Name = 
  5 active torsions:
  status: ('A' for Active; 'I' for Inactive)
    1  A    between atoms: CA_7  and  C_19
    2  A    between atoms: C_10  and  C_17
    3  A    between atoms: C_10  and  O_20
    4  A    between atoms: O_20  and  C_29
    5  A    between atoms: C_29  and  C_30
                            x       y       z     vdW  Elec       q    Type
                         _______ _______ _______ _____ _____    ______ ____

>  <TORSDO>
F 5

$$$$
