=
 OpenBabel11112417113D

 37 42  0  0  1  0  0  0  0  0999 V2000
  195.1860  175.8860  143.2700 C   0  0  0  0  0  0  0  0  0  0  0  0
  191.4320  175.7560  145.0980 C   0  0  0  0  0  0  0  0  0  0  0  0
  189.7940  177.7240  143.7970 F   0  0  0  0  0  0  0  0  0  0  0  0
  193.7560  176.2610  145.3550 C   0  0  0  0  0  0  0  0  0  0  0  0
  190.4730  175.4320  143.9940 C   0  0  1  0  0  3  0  0  0  0  0  0
  192.6820  175.8470  144.5920 C   0  0  0  0  0  0  0  0  0  0  0  0
  189.3150  176.4330  143.9590 C   0  0  1  0  0  3  0  0  0  0  0  0
  193.5370  176.5680  146.6660 N   0  0  0  0  0  0  0  0  0  0  0  0
  192.7310  175.6450  143.2060 N   0  0  0  0  0  0  0  0  0  0  0  0
  195.5020  174.4060  143.4090 C   0  0  0  0  0  1  0  0  0  0  0  0
  189.7870  176.1780  146.9870 C   0  0  0  0  0  2  0  0  0  0  0  0
  192.2840  176.4840  147.2190 C   0  0  0  0  0  3  0  0  0  0  0  0
  193.8980  176.0620  142.4350 C   0  0  0  0  0  2  0  0  0  0  0  0
  191.1830  176.0770  146.4380 C   0  0  0  0  0  0  0  0  0  0  0  0
  191.3600  175.4930  142.7160 C   0  0  1  0  0  3  0  0  0  0  0  0
  195.0750  176.5250  144.6790 C   0  0  0  0  0  2  0  0  0  0  0  0
  188.5060  176.3500  145.1870 N   0  0  0  0  0  0  0  0  0  0  0  0
  196.3300  176.5470  142.5330 C   0  0  0  0  0  1  0  0  0  0  0  0
  188.8670  175.4850  146.1810 O   0  0  0  0  0  0  0  0  0  0  0  0
  191.8620  172.9620  142.4410 C   0  0  0  0  0  2  0  0  0  0  0  0
  191.4970  171.8210  141.6070 N   0  0  0  0  0  0  0  0  0  0  0  0
  189.1830  172.1860  142.6290 C   0  0  2  0  0  3  0  0  0  0  0  0
  190.2400  171.2120  142.0610 C   0  0  0  0  0  2  0  0  0  0  0  0
  188.8410  173.3450  141.7750 N   0  0  0  0  0  0  0  0  0  0  0  0
  188.1110  174.2460  142.4780 O   0  0  0  0  0  1  0  0  0  0  0  0
  189.9310  174.0580  141.0860 C   0  0  0  0  0  2  0  0  0  0  0  0
  189.4120  172.5100  144.1040 C   0  0  0  0  0  1  0  0  0  0  0  0
  191.2530  174.2340  141.8530 C   0  0  1  0  0  3  0  0  0  0  0  0
  192.4330  170.2350  143.1090 N   0  0  0  0  0  1  0  0  0  0  0  0
  192.5310  170.8160  141.7810 C   0  0  0  0  0  2  0  0  0  0  0  0
  186.2590  176.6160  146.1590 C   0  0  0  0  0  3  0  0  0  0  0  0
  187.2690  177.0770  145.3010 C   0  0  0  0  0  0  0  0  0  0  0  0
  187.0460  178.2460  144.5550 C   0  0  0  0  0  3  0  0  0  0  0  0
  185.6350  180.0690  143.9460 F   0  0  0  0  0  0  0  0  0  0  0  0
  184.8420  178.4740  145.5280 C   0  0  0  0  0  3  0  0  0  0  0  0
  185.8390  178.9420  144.6690 C   0  0  0  0  0  0  0  0  0  0  0  0
  185.0520  177.3100  146.2730 C   0  0  0  0  0  3  0  0  0  0  0  0
  1 10  1  0  0  0  0
  1 16  1  0  0  0  0
  2 14  1  0  0  0  0
  4  8  2  0  0  0  0
  5  2  1  1  0  0  0
  6  2  2  0  0  0  0
  6  4  1  0  0  0  0
  7  3  1  1  0  0  0
  7  5  1  0  0  0  0
  7 17  1  0  0  0  0
  8 12  1  0  0  0  0
  9  6  1  0  0  0  0
 13  9  1  0  0  0  0
 13  1  1  0  0  0  0
 14 11  1  0  0  0  0
 14 12  2  0  0  0  0
 15  9  1  1  0  0  0
 15  5  1  0  0  0  0
 16  4  1  0  0  0  0
 17 32  1  0  0  0  0
 17 19  1  0  0  0  0
 18  1  1  0  0  0  0
 19 11  1  0  0  0  0
 21 30  1  0  0  0  0
 21 23  1  0  0  0  0
 21 20  1  0  0  0  0
 22 27  1  1  0  0  0
 23 22  1  0  0  0  0
 24 25  1  0  0  0  0
 24 22  1  0  0  0  0
 26 24  1  0  0  0  0
 28 26  1  1  0  0  0
 28 20  1  0  0  0  0
 28 15  1  0  0  0  0
 30 29  1  0  0  0  0
 31 37  1  0  0  0  0
 32 31  2  0  0  0  0
 33 36  2  0  0  0  0
 33 32  1  0  0  0  0
 34 36  1  0  0  0  0
 35 37  2  0  0  0  0
 36 35  1  0  0  0  0
M  END
>  <MODEL>
1

>  <REMARK>
 VINA RESULT:      -9.5      0.000      0.000
  Name = 
  3 active torsions:
  status: ('A' for Active; 'I' for Inactive)
    1  A    between atoms: N_4  and  C_37
    2  A    between atoms: C_21  and  C_27
    3  A    between atoms: N_23  and  C_30
                            x       y       z     vdW  Elec       q    Type
                         _______ _______ _______ _____ _____    ______ ____

>  <TORSDO>
F 3

$$$$
=
 OpenBabel11112417113D

 37 42  0  0  1  0  0  0  0  0999 V2000
  189.3760  172.6230  138.7800 C   0  0  0  0  0  0  0  0  0  0  0  0
  187.9710  176.0210  140.7620 C   0  0  0  0  0  0  0  0  0  0  0  0
  186.3750  175.1090  142.9680 F   0  0  0  0  0  0  0  0  0  0  0  0
  187.9150  174.7190  138.7550 C   0  0  0  0  0  0  0  0  0  0  0  0
  188.4910  175.8980  142.1610 C   0  0  1  0  0  3  0  0  0  0  0  0
  188.3560  174.9420  140.0450 C   0  0  0  0  0  0  0  0  0  0  0  0
  187.3630  176.0570  143.1830 C   0  0  1  0  0  3  0  0  0  0  0  0
  187.0770  175.6370  138.1920 N   0  0  0  0  0  0  0  0  0  0  0  0
  189.0930  174.0160  140.7960 N   0  0  0  0  0  0  0  0  0  0  0  0
  190.7120  173.2060  138.3510 C   0  0  0  0  0  1  0  0  0  0  0  0
  186.4990  178.0730  141.0290 C   0  0  0  0  0  2  0  0  0  0  0  0
  186.6670  176.7480  138.8840 C   0  0  0  0  0  3  0  0  0  0  0  0
  189.2730  172.6480  140.3210 C   0  0  0  0  0  2  0  0  0  0  0  0
  187.1030  176.9690  140.2070 C   0  0  0  0  0  0  0  0  0  0  0  0
  189.1290  174.4780  142.1850 C   0  0  1  0  0  3  0  0  0  0  0  0
  188.2260  173.4040  138.0920 C   0  0  0  0  0  2  0  0  0  0  0  0
  186.7810  177.4090  143.1230 N   0  0  0  0  0  0  0  0  0  0  0  0
  189.3190  171.1830  138.3190 C   0  0  0  0  0  1  0  0  0  0  0  0
  187.2390  178.3050  142.2010 O   0  0  0  0  0  0  0  0  0  0  0  0
  191.0460  175.7660  143.3690 C   0  0  0  0  0  2  0  0  0  0  0  0
  192.3520  175.5390  143.9800 N   0  0  0  0  0  0  0  0  0  0  0  0
  191.0010  174.1670  145.6610 C   0  0  2  0  0  3  0  0  0  0  0  0
  192.2150  175.0770  145.3680 C   0  0  0  0  0  2  0  0  0  0  0  0
  190.8390  172.9920  144.7760 N   0  0  0  0  0  0  0  0  0  0  0  0
  189.6210  172.4280  144.9640 O   0  0  0  0  0  1  0  0  0  0  0  0
  191.0590  173.1650  143.3290 C   0  0  0  0  0  2  0  0  0  0  0  0
  189.7230  174.9580  145.9320 C   0  0  0  0  0  1  0  0  0  0  0  0
  190.5730  174.4800  142.6950 C   0  0  1  0  0  3  0  0  0  0  0  0
  193.8180  176.9100  145.2520 N   0  0  0  0  0  1  0  0  0  0  0  0
  193.0280  176.8240  144.0360 C   0  0  0  0  0  2  0  0  0  0  0  0
  184.7110  178.6030  143.7200 C   0  0  0  0  0  3  0  0  0  0  0  0
  185.8220  177.8390  144.1080 C   0  0  0  0  0  0  0  0  0  0  0  0
  185.9830  177.5130  145.4650 C   0  0  0  0  0  3  0  0  0  0  0  0
  185.2140  177.6180  147.7180 F   0  0  0  0  0  0  0  0  0  0  0  0
  183.9460  178.6980  146.0140 C   0  0  0  0  0  3  0  0  0  0  0  0
  185.0490  177.9390  146.4130 C   0  0  0  0  0  0  0  0  0  0  0  0
  183.7780  179.0310  144.6680 C   0  0  0  0  0  3  0  0  0  0  0  0
  1 13  1  0  0  0  0
  4  6  1  0  0  0  0
  5  2  1  6  0  0  0
  5 15  1  0  0  0  0
  5  7  1  0  0  0  0
  6  2  2  0  0  0  0
  6  9  1  0  0  0  0
  7  3  1  6  0  0  0
  8  4  2  0  0  0  0
  8 12  1  0  0  0  0
 10  1  1  0  0  0  0
 11 19  1  0  0  0  0
 12 14  2  0  0  0  0
 13  9  1  0  0  0  0
 14  2  1  0  0  0  0
 14 11  1  0  0  0  0
 15  9  1  6  0  0  0
 15 28  1  0  0  0  0
 16  4  1  0  0  0  0
 16  1  1  0  0  0  0
 17  7  1  0  0  0  0
 17 32  1  0  0  0  0
 18  1  1  0  0  0  0
 19 17  1  0  0  0  0
 20 21  1  0  0  0  0
 21 30  1  0  0  0  0
 21 23  1  0  0  0  0
 22 27  1  6  0  0  0
 23 22  1  0  0  0  0
 24 25  1  0  0  0  0
 24 22  1  0  0  0  0
 26 24  1  0  0  0  0
 28 26  1  1  0  0  0
 28 20  1  0  0  0  0
 30 29  1  0  0  0  0
 31 32  2  0  0  0  0
 31 37  1  0  0  0  0
 32 33  1  0  0  0  0
 33 36  2  0  0  0  0
 35 36  1  0  0  0  0
 36 34  1  0  0  0  0
 37 35  2  0  0  0  0
M  END
>  <MODEL>
2

>  <REMARK>
 VINA RESULT:      -9.3      2.685      5.642
  Name = 
  3 active torsions:
  status: ('A' for Active; 'I' for Inactive)
    1  A    between atoms: N_4  and  C_37
    2  A    between atoms: C_21  and  C_27
    3  A    between atoms: N_23  and  C_30
                            x       y       z     vdW  Elec       q    Type
                         _______ _______ _______ _____ _____    ______ ____

>  <TORSDO>
F 3

$$$$
=
 OpenBabel11112417113D

 37 42  0  0  1  0  0  0  0  0999 V2000
  192.1400  170.3060  141.8870 C   0  0  0  0  0  0  0  0  0  0  0  0
  190.2130  173.9900  142.2860 C   0  0  0  0  0  0  0  0  0  0  0  0
  188.9750  174.0150  144.8770 F   0  0  0  0  0  0  0  0  0  0  0  0
  190.2900  171.8970  141.1290 C   0  0  0  0  0  0  0  0  0  0  0  0
  190.8340  174.6250  143.4910 C   0  0  1  0  0  3  0  0  0  0  0  0
  190.7590  172.7690  142.0920 C   0  0  0  0  0  0  0  0  0  0  0  0
  189.7650  175.0850  144.4850 C   0  0  1  0  0  3  0  0  0  0  0  0
  189.2510  172.3020  140.3420 N   0  0  0  0  0  0  0  0  0  0  0  0
  191.7120  172.4320  143.0620 N   0  0  0  0  0  0  0  0  0  0  0  0
  193.3020  170.8030  141.0440 C   0  0  0  0  0  1  0  0  0  0  0  0
  188.3790  175.6810  141.8060 C   0  0  0  0  0  2  0  0  0  0  0  0
  188.6720  173.5350  140.5040 C   0  0  0  0  0  3  0  0  0  0  0  0
  192.1320  171.0460  143.2430 C   0  0  0  0  0  2  0  0  0  0  0  0
  189.1390  174.4210  141.4970 C   0  0  0  0  0  0  0  0  0  0  0  0
  191.7440  173.5000  144.0640 C   0  0  1  0  0  3  0  0  0  0  0  0
  190.8160  170.4870  141.1000 C   0  0  0  0  0  2  0  0  0  0  0  0
  188.9210  176.1430  143.9030 N   0  0  0  0  0  0  0  0  0  0  0  0
  192.3430  168.8290  142.1480 C   0  0  0  0  0  1  0  0  0  0  0  0
  189.1310  176.5490  142.6160 O   0  0  0  0  0  0  0  0  0  0  0  0
  193.6990  175.0580  143.3690 C   0  0  0  0  0  2  0  0  0  0  0  0
  194.9980  175.5230  143.8450 N   0  0  0  0  0  0  0  0  0  0  0  0
  193.6100  176.5800  145.7110 C   0  0  2  0  0  3  0  0  0  0  0  0
  194.8490  176.6360  144.7910 C   0  0  0  0  0  2  0  0  0  0  0  0
  193.4120  175.3200  146.4620 N   0  0  0  0  0  0  0  0  0  0  0  0
  192.1780  175.2960  147.0230 O   0  0  0  0  0  1  0  0  0  0  0  0
  193.6350  174.0420  145.7630 C   0  0  0  0  0  2  0  0  0  0  0  0
  192.3560  177.1440  145.0470 C   0  0  0  0  0  1  0  0  0  0  0  0
  193.1870  173.9550  144.2940 C   0  0  1  0  0  3  0  0  0  0  0  0
  196.8800  176.7900  143.1380 N   0  0  0  0  0  1  0  0  0  0  0  0
  195.7120  176.0500  142.6940 C   0  0  0  0  0  2  0  0  0  0  0  0
  187.7010  176.4160  146.0260 C   0  0  0  0  0  3  0  0  0  0  0  0
  187.9600  176.8450  144.7150 C   0  0  0  0  0  0  0  0  0  0  0  0
  187.2620  177.9550  144.2120 C   0  0  0  0  0  3  0  0  0  0  0  0
  185.6610  179.6960  144.5120 F   0  0  0  0  0  0  0  0  0  0  0  0
  186.0810  178.1910  146.3110 C   0  0  0  0  0  3  0  0  0  0  0  0
  186.3290  178.6260  145.0070 C   0  0  0  0  0  0  0  0  0  0  0  0
  186.7670  177.0850  146.8200 C   0  0  0  0  0  3  0  0  0  0  0  0
  1 18  1  0  0  0  0
  1 13  1  0  0  0  0
  4  6  2  0  0  0  0
  5  2  1  6  0  0  0
  5 15  1  0  0  0  0
  5  7  1  0  0  0  0
  6  2  1  0  0  0  0
  6  9  1  0  0  0  0
  7  3  1  6  0  0  0
  8 12  2  0  0  0  0
  8  4  1  0  0  0  0
  9 13  1  0  0  0  0
 10  1  1  0  0  0  0
 11 19  1  0  0  0  0
 12 14  1  0  0  0  0
 14 11  1  0  0  0  0
 14  2  2  0  0  0  0
 15  9  1  6  0  0  0
 15 28  1  0  0  0  0
 16  4  1  0  0  0  0
 16  1  1  0  0  0  0
 17  7  1  0  0  0  0
 17 32  1  0  0  0  0
 19 17  1  0  0  0  0
 20 21  1  0  0  0  0
 21 23  1  0  0  0  0
 22 27  1  6  0  0  0
 22 24  1  0  0  0  0
 23 22  1  0  0  0  0
 24 25  1  0  0  0  0
 26 24  1  0  0  0  0
 28 20  1  1  0  0  0
 28 26  1  0  0  0  0
 30 29  1  0  0  0  0
 30 21  1  0  0  0  0
 31 37  1  0  0  0  0
 32 31  2  0  0  0  0
 33 32  1  0  0  0  0
 33 36  2  0  0  0  0
 34 36  1  0  0  0  0
 35 37  2  0  0  0  0
 36 35  1  0  0  0  0
M  END
>  <MODEL>
3

>  <REMARK>
 VINA RESULT:      -8.9      1.758      5.180
  Name = 
  3 active torsions:
  status: ('A' for Active; 'I' for Inactive)
    1  A    between atoms: N_4  and  C_37
    2  A    between atoms: C_21  and  C_27
    3  A    between atoms: N_23  and  C_30
                            x       y       z     vdW  Elec       q    Type
                         _______ _______ _______ _____ _____    ______ ____

>  <TORSDO>
F 3

$$$$
=
 OpenBabel11112417113D

 37 42  0  0  1  0  0  0  0  0999 V2000
  191.9840  170.6730  141.1670 C   0  0  0  0  0  0  0  0  0  0  0  0
  190.0780  174.3070  141.9440 C   0  0  0  0  0  0  0  0  0  0  0  0
  188.8240  174.0660  144.5160 F   0  0  0  0  0  0  0  0  0  0  0  0
  190.1490  172.3490  140.5710 C   0  0  0  0  0  0  0  0  0  0  0  0
  190.6960  174.8070  143.2130 C   0  0  1  0  0  3  0  0  0  0  0  0
  190.6180  173.1110  141.6240 C   0  0  0  0  0  0  0  0  0  0  0  0
  189.6230  175.1660  144.2440 C   0  0  1  0  0  3  0  0  0  0  0  0
  189.1180  172.8420  139.8260 N   0  0  0  0  0  0  0  0  0  0  0  0
  191.5620  172.6660  142.5590 N   0  0  0  0  0  0  0  0  0  0  0  0
  193.1540  171.2490  140.3880 C   0  0  0  0  0  1  0  0  0  0  0  0
  188.2580  176.0530  141.6350 C   0  0  0  0  0  2  0  0  0  0  0  0
  188.5460  174.0560  140.1150 C   0  0  0  0  0  3  0  0  0  0  0  0
  191.9720  171.2650  142.5930 C   0  0  0  0  0  2  0  0  0  0  0  0
  189.0120  174.8270  141.1990 C   0  0  0  0  0  0  0  0  0  0  0  0
  191.5950  173.6210  143.6680 C   0  0  1  0  0  3  0  0  0  0  0  0
  190.6660  170.9460  140.3960 C   0  0  0  0  0  2  0  0  0  0  0  0
  188.7900  176.2860  143.7730 N   0  0  0  0  0  0  0  0  0  0  0  0
  192.1760  169.1760  141.2700 C   0  0  0  0  0  1  0  0  0  0  0  0
  189.0100  176.8240  142.5380 O   0  0  0  0  0  0  0  0  0  0  0  0
  193.5430  175.2700  143.2020 C   0  0  0  0  0  2  0  0  0  0  0  0
  194.8450  175.6600  143.7320 N   0  0  0  0  0  0  0  0  0  0  0  0
  193.4710  176.4210  145.7480 C   0  0  2  0  0  3  0  0  0  0  0  0
  194.7030  176.6180  144.8370 C   0  0  0  0  0  2  0  0  0  0  0  0
  193.2800  175.0610  146.3010 N   0  0  0  0  0  0  0  0  0  0  0  0
  192.0500  174.9510  146.8610 O   0  0  0  0  0  1  0  0  0  0  0  0
  193.4990  173.9040  145.4150 C   0  0  0  0  0  2  0  0  0  0  0  0
  192.2110  177.0760  145.1850 C   0  0  0  0  0  1  0  0  0  0  0  0
  193.0390  174.0390  143.9530 C   0  0  1  0  0  3  0  0  0  0  0  0
  196.8520  176.7910  143.1450 N   0  0  0  0  0  1  0  0  0  0  0  0
  195.5500  176.3560  142.6690 C   0  0  0  0  0  2  0  0  0  0  0  0
  187.1450  178.0590  144.2400 C   0  0  0  0  0  3  0  0  0  0  0  0
  187.8280  176.9040  144.6490 C   0  0  0  0  0  0  0  0  0  0  0  0
  187.5640  176.3720  145.9220 C   0  0  0  0  0  3  0  0  0  0  0  0
  186.3840  176.4610  147.9920 F   0  0  0  0  0  0  0  0  0  0  0  0
  185.9570  178.1310  146.3470 C   0  0  0  0  0  3  0  0  0  0  0  0
  186.6320  176.9820  146.7660 C   0  0  0  0  0  0  0  0  0  0  0  0
  186.2140  178.6700  145.0840 C   0  0  0  0  0  3  0  0  0  0  0  0
  1 18  1  0  0  0  0
  1 13  1  0  0  0  0
  4  6  2  0  0  0  0
  5  2  1  6  0  0  0
  5 15  1  0  0  0  0
  5  7  1  0  0  0  0
  6  2  1  0  0  0  0
  6  9  1  0  0  0  0
  7  3  1  6  0  0  0
  8 12  2  0  0  0  0
  8  4  1  0  0  0  0
  9 13  1  0  0  0  0
 10  1  1  0  0  0  0
 11 19  1  0  0  0  0
 12 14  1  0  0  0  0
 14 11  1  0  0  0  0
 14  2  2  0  0  0  0
 15  9  1  6  0  0  0
 15 28  1  0  0  0  0
 16  4  1  0  0  0  0
 16  1  1  0  0  0  0
 17  7  1  0  0  0  0
 17 32  1  0  0  0  0
 19 17  1  0  0  0  0
 20 21  1  0  0  0  0
 21 23  1  0  0  0  0
 22 27  1  6  0  0  0
 22 24  1  0  0  0  0
 23 22  1  0  0  0  0
 24 25  1  0  0  0  0
 26 24  1  0  0  0  0
 28 20  1  1  0  0  0
 28 26  1  0  0  0  0
 30 29  1  0  0  0  0
 30 21  1  0  0  0  0
 31 32  2  0  0  0  0
 31 37  1  0  0  0  0
 32 33  1  0  0  0  0
 33 36  2  0  0  0  0
 35 36  1  0  0  0  0
 36 34  1  0  0  0  0
 37 35  2  0  0  0  0
M  END
>  <MODEL>
4

>  <REMARK>
 VINA RESULT:      -8.7      1.983      5.294
  Name = 
  3 active torsions:
  status: ('A' for Active; 'I' for Inactive)
    1  A    between atoms: N_4  and  C_37
    2  A    between atoms: C_21  and  C_27
    3  A    between atoms: N_23  and  C_30
                            x       y       z     vdW  Elec       q    Type
                         _______ _______ _______ _____ _____    ______ ____

>  <TORSDO>
F 3

$$$$
=
 OpenBabel11112417113D

 37 42  0  0  1  0  0  0  0  0999 V2000
  193.1790  176.2490  146.1040 C   0  0  0  0  0  0  0  0  0  0  0  0
  189.1820  176.0700  144.9040 C   0  0  0  0  0  0  0  0  0  0  0  0
  188.8900  177.8660  142.6810 F   0  0  0  0  0  0  0  0  0  0  0  0
  190.7180  176.6990  146.6270 C   0  0  0  0  0  0  0  0  0  0  0  0
  189.2250  175.6270  143.4740 C   0  0  1  0  0  3  0  0  0  0  0  0
  190.4440  176.1840  145.3740 C   0  0  0  0  0  0  0  0  0  0  0  0
  188.4120  176.5680  142.5810 C   0  0  1  0  0  3  0  0  0  0  0  0
  189.6710  177.0850  147.4100 N   0  0  0  0  0  0  0  0  0  0  0  0
  191.4190  175.8900  144.4120 N   0  0  0  0  0  0  0  0  0  0  0  0
  193.2980  174.7980  146.5410 C   0  0  0  0  0  1  0  0  0  0  0  0
  186.6970  176.5450  145.1330 C   0  0  0  0  0  2  0  0  0  0  0  0
  188.3750  176.9810  146.9710 C   0  0  0  0  0  3  0  0  0  0  0  0
  192.8040  176.3070  144.6060 C   0  0  0  0  0  2  0  0  0  0  0  0
  188.0930  176.4710  145.6870 C   0  0  0  0  0  0  0  0  0  0  0  0
  190.7440  175.6410  143.1370 C   0  0  1  0  0  3  0  0  0  0  0  0
  192.1490  176.9770  147.0050 C   0  0  0  0  0  2  0  0  0  0  0  0
  186.9830  176.5320  142.9360 N   0  0  0  0  0  0  0  0  0  0  0  0
  194.5280  176.9100  146.2870 C   0  0  0  0  0  1  0  0  0  0  0  0
  186.5610  175.7560  143.9770 O   0  0  0  0  0  0  0  0  0  0  0  0
  190.9820  173.0670  143.3720 C   0  0  0  0  0  2  0  0  0  0  0  0
  191.3130  171.8860  142.5820 N   0  0  0  0  0  0  0  0  0  0  0  0
  189.1760  172.4920  141.3180 C   0  0  2  0  0  3  0  0  0  0  0  0
  190.1440  171.4040  141.8330 C   0  0  0  0  0  2  0  0  0  0  0  0
  189.7870  173.5940  140.5420 N   0  0  0  0  0  0  0  0  0  0  0  0
  188.8940  174.5990  140.3700 O   0  0  0  0  0  1  0  0  0  0  0  0
  191.0570  174.1700  141.0170 C   0  0  0  0  0  2  0  0  0  0  0  0
  188.1620  172.9270  142.3740 C   0  0  0  0  0  1  0  0  0  0  0  0
  191.2370  174.3220  142.5370 C   0  0  1  0  0  3  0  0  0  0  0  0
  193.1090  170.6310  143.5020 N   0  0  0  0  0  1  0  0  0  0  0  0
  191.6700  170.8320  143.5160 C   0  0  0  0  0  2  0  0  0  0  0  0
  186.2820  177.4710  140.7700 C   0  0  0  0  0  3  0  0  0  0  0  0
  186.0070  177.2070  142.1200 C   0  0  0  0  0  0  0  0  0  0  0  0
  184.7760  177.6190  142.6570 C   0  0  0  0  0  3  0  0  0  0  0  0
  182.6530  178.6700  142.3850 F   0  0  0  0  0  0  0  0  0  0  0  0
  184.1220  178.5330  140.5130 C   0  0  0  0  0  3  0  0  0  0  0  0
  183.8380  178.2770  141.8570 C   0  0  0  0  0  0  0  0  0  0  0  0
  185.3450  178.1310  139.9700 C   0  0  0  0  0  3  0  0  0  0  0  0
  1 18  1  0  0  0  0
  1 10  1  0  0  0  0
  1 16  1  0  0  0  0
  2  6  2  0  0  0  0
  2 14  1  0  0  0  0
  4 16  1  0  0  0  0
  4  8  2  0  0  0  0
  5  2  1  1  0  0  0
  6  4  1  0  0  0  0
  7  3  1  1  0  0  0
  7 17  1  0  0  0  0
  7  5  1  0  0  0  0
  9 13  1  0  0  0  0
  9  6  1  0  0  0  0
 11 14  1  0  0  0  0
 12  8  1  0  0  0  0
 13  1  1  0  0  0  0
 14 12  2  0  0  0  0
 15  5  1  0  0  0  0
 15  9  1  1  0  0  0
 17 19  1  0  0  0  0
 19 11  1  0  0  0  0
 21 20  1  0  0  0  0
 21 30  1  0  0  0  0
 22 23  1  0  0  0  0
 22 27  1  1  0  0  0
 23 21  1  0  0  0  0
 24 26  1  0  0  0  0
 24 22  1  0  0  0  0
 25 24  1  0  0  0  0
 28 26  1  6  0  0  0
 28 15  1  0  0  0  0
 28 20  1  0  0  0  0
 29 30  1  0  0  0  0
 31 32  1  0  0  0  0
 32 33  2  0  0  0  0
 32 17  1  0  0  0  0
 35 36  2  0  0  0  0
 36 34  1  0  0  0  0
 36 33  1  0  0  0  0
 37 35  1  0  0  0  0
 37 31  2  0  0  0  0
M  END
>  <MODEL>
5

>  <REMARK>
 VINA RESULT:      -8.4      2.107      3.010
  Name = 
  3 active torsions:
  status: ('A' for Active; 'I' for Inactive)
    1  A    between atoms: N_4  and  C_37
    2  A    between atoms: C_21  and  C_27
    3  A    between atoms: N_23  and  C_30
                            x       y       z     vdW  Elec       q    Type
                         _______ _______ _______ _____ _____    ______ ____

>  <TORSDO>
F 3

$$$$
=
 OpenBabel11112417113D

 37 42  0  0  1  0  0  0  0  0999 V2000
  192.5800  171.0310  143.2480 C   0  0  0  0  0  0  0  0  0  0  0  0
  190.4240  174.6030  143.4420 C   0  0  0  0  0  0  0  0  0  0  0  0
  188.8150  174.4860  145.8180 F   0  0  0  0  0  0  0  0  0  0  0  0
  190.7830  172.5540  142.2590 C   0  0  0  0  0  0  0  0  0  0  0  0
  190.8250  175.2290  144.7420 C   0  0  1  0  0  3  0  0  0  0  0  0
  191.0570  173.4170  143.3030 C   0  0  0  0  0  0  0  0  0  0  0  0
  189.5970  175.6040  145.5750 C   0  0  1  0  0  3  0  0  0  0  0  0
  189.8530  172.9330  141.3350 N   0  0  0  0  0  0  0  0  0  0  0  0
  191.8710  173.0950  144.3970 N   0  0  0  0  0  0  0  0  0  0  0  0
  193.8270  171.6100  142.6010 C   0  0  0  0  0  1  0  0  0  0  0  0
  188.5960  176.2170  142.7320 C   0  0  0  0  0  2  0  0  0  0  0  0
  189.1930  174.1310  141.4380 C   0  0  0  0  0  3  0  0  0  0  0  0
  192.3310  171.7260  144.6050 C   0  0  0  0  0  2  0  0  0  0  0  0
  189.4590  175.0060  142.5110 C   0  0  0  0  0  0  0  0  0  0  0  0
  191.6970  174.1310  145.4180 C   0  0  1  0  0  3  0  0  0  0  0  0
  191.3800  171.1730  142.2760 C   0  0  0  0  0  2  0  0  0  0  0  0
  188.7950  176.6390  144.8980 N   0  0  0  0  0  0  0  0  0  0  0  0
  192.8200  169.5580  143.5000 C   0  0  0  0  0  1  0  0  0  0  0  0
  189.1730  177.0950  143.6680 O   0  0  0  0  0  0  0  0  0  0  0  0
  194.2800  173.8870  145.3450 C   0  0  0  0  0  2  0  0  0  0  0  0
  195.4940  174.6190  145.6900 N   0  0  0  0  0  0  0  0  0  0  0  0
  194.6810  176.2390  143.8890 C   0  0  2  0  0  3  0  0  0  0  0  0
  195.8590  175.5720  144.6330 C   0  0  0  0  0  2  0  0  0  0  0  0
  193.6530  176.8800  144.7400 N   0  0  0  0  0  0  0  0  0  0  0  0
  192.5630  177.1980  144.0000 O   0  0  0  0  0  1  0  0  0  0  0  0
  193.2070  176.1770  145.9560 C   0  0  0  0  0  2  0  0  0  0  0  0
  194.1370  175.3780  142.7520 C   0  0  0  0  0  1  0  0  0  0  0  0
  193.0640  174.6470  145.8730 C   0  0  1  0  0  3  0  0  0  0  0  0
  197.7460  174.1650  145.0800 N   0  0  0  0  0  1  0  0  0  0  0  0
  196.5730  173.6480  145.7630 C   0  0  0  0  0  2  0  0  0  0  0  0
  187.3640  176.8950  146.8870 C   0  0  0  0  0  3  0  0  0  0  0  0
  187.6880  177.2660  145.5730 C   0  0  0  0  0  0  0  0  0  0  0  0
  186.9130  178.2470  144.9320 C   0  0  0  0  0  3  0  0  0  0  0  0
  185.0970  179.7910  144.9670 F   0  0  0  0  0  0  0  0  0  0  0  0
  185.5260  178.4700  146.9030 C   0  0  0  0  0  3  0  0  0  0  0  0
  185.8380  178.8460  145.5940 C   0  0  0  0  0  0  0  0  0  0  0  0
  186.2890  177.4940  147.5490 C   0  0  0  0  0  3  0  0  0  0  0  0
  1 18  1  0  0  0  0
  1 13  1  0  0  0  0
  4 16  1  0  0  0  0
  4  6  2  0  0  0  0
  5  2  1  6  0  0  0
  5 15  1  0  0  0  0
  5  7  1  0  0  0  0
  6  2  1  0  0  0  0
  6  9  1  0  0  0  0
  7  3  1  6  0  0  0
  8 12  2  0  0  0  0
  8  4  1  0  0  0  0
  9 13  1  0  0  0  0
 10  1  1  0  0  0  0
 11 19  1  0  0  0  0
 12 14  1  0  0  0  0
 14 11  1  0  0  0  0
 14  2  2  0  0  0  0
 15  9  1  6  0  0  0
 15 28  1  0  0  0  0
 16  1  1  0  0  0  0
 17 32  1  0  0  0  0
 17  7  1  0  0  0  0
 19 17  1  0  0  0  0
 20 21  1  0  0  0  0
 21 30  1  0  0  0  0
 22 27  1  1  0  0  0
 22 23  1  0  0  0  0
 22 24  1  0  0  0  0
 23 21  1  0  0  0  0
 24 26  1  0  0  0  0
 25 24  1  0  0  0  0
 28 20  1  6  0  0  0
 28 26  1  0  0  0  0
 29 30  1  0  0  0  0
 31 37  1  0  0  0  0
 32 31  2  0  0  0  0
 33 32  1  0  0  0  0
 33 36  2  0  0  0  0
 34 36  1  0  0  0  0
 35 37  2  0  0  0  0
 36 35  1  0  0  0  0
M  END
>  <MODEL>
6

>  <REMARK>
 VINA RESULT:      -8.4      2.058      4.765
  Name = 
  3 active torsions:
  status: ('A' for Active; 'I' for Inactive)
    1  A    between atoms: N_4  and  C_37
    2  A    between atoms: C_21  and  C_27
    3  A    between atoms: N_23  and  C_30
                            x       y       z     vdW  Elec       q    Type
                         _______ _______ _______ _____ _____    ______ ____

>  <TORSDO>
F 3

$$$$
=
 OpenBabel11112417113D

 37 42  0  0  1  0  0  0  0  0999 V2000
  194.1250  169.6400  144.2920 C   0  0  0  0  0  0  0  0  0  0  0  0
  191.6520  172.8560  143.2970 C   0  0  0  0  0  0  0  0  0  0  0  0
  190.3230  173.6720  145.7080 F   0  0  0  0  0  0  0  0  0  0  0  0
  192.0890  170.5190  143.0230 C   0  0  0  0  0  0  0  0  0  0  0  0
  192.1230  173.9890  144.1550 C   0  0  1  0  0  3  0  0  0  0  0  0
  192.3830  171.7530  143.5710 C   0  0  0  0  0  0  0  0  0  0  0  0
  190.9580  174.6200  144.9210 C   0  0  1  0  0  3  0  0  0  0  0  0
  191.0330  170.4300  142.1630 N   0  0  0  0  0  0  0  0  0  0  0  0
  193.3370  171.9600  144.5770 N   0  0  0  0  0  0  0  0  0  0  0  0
  195.2320  169.9530  143.2980 C   0  0  0  0  0  1  0  0  0  0  0  0
  189.6060  173.9330  142.2460 C   0  0  0  0  0  2  0  0  0  0  0  0
  190.2690  171.5270  141.8550 C   0  0  0  0  0  3  0  0  0  0  0  0
  193.9520  170.8290  145.2630 C   0  0  0  0  0  2  0  0  0  0  0  0
  190.5580  172.7840  142.4260 C   0  0  0  0  0  0  0  0  0  0  0  0
  193.1680  173.3190  145.0950 C   0  0  1  0  0  3  0  0  0  0  0  0
  192.8210  169.3030  143.5230 C   0  0  0  0  0  2  0  0  0  0  0  0
  189.9890  175.2350  143.9980 N   0  0  0  0  0  0  0  0  0  0  0  0
  194.5370  168.4230  145.0910 C   0  0  0  0  0  1  0  0  0  0  0  0
  190.1860  175.1490  142.6500 O   0  0  0  0  0  0  0  0  0  0  0  0
  194.9340  174.7020  143.7900 C   0  0  0  0  0  2  0  0  0  0  0  0
  196.1210  175.5190  144.0150 N   0  0  0  0  0  0  0  0  0  0  0  0
  194.4770  177.0540  145.2280 C   0  0  2  0  0  3  0  0  0  0  0  0
  195.7570  176.8960  144.3780 C   0  0  0  0  0  2  0  0  0  0  0  0
  194.4030  176.2290  146.4550 N   0  0  0  0  0  0  0  0  0  0  0  0
  193.1490  176.2620  146.9670 O   0  0  0  0  0  1  0  0  0  0  0  0
  194.8470  174.8260  146.3870 C   0  0  0  0  0  2  0  0  0  0  0  0
  193.2060  177.0750  144.3820 C   0  0  0  0  0  1  0  0  0  0  0  0
  194.5160  174.0440  145.1040 C   0  0  1  0  0  3  0  0  0  0  0  0
  195.8950  175.4600  141.6500 N   0  0  0  0  0  1  0  0  0  0  0  0
  196.8330  175.5980  142.7510 C   0  0  0  0  0  2  0  0  0  0  0  0
  188.3270  177.0280  143.6930 C   0  0  0  0  0  3  0  0  0  0  0  0
  188.9020  176.0350  144.5010 C   0  0  0  0  0  0  0  0  0  0  0  0
  188.4060  175.8450  145.8010 C   0  0  0  0  0  3  0  0  0  0  0  0
  186.8830  176.4380  147.5370 F   0  0  0  0  0  0  0  0  0  0  0  0
  186.7880  177.6140  145.4670 C   0  0  0  0  0  3  0  0  0  0  0  0
  187.3540  176.6300  146.2810 C   0  0  0  0  0  0  0  0  0  0  0  0
  187.2760  177.8130  144.1730 C   0  0  0  0  0  3  0  0  0  0  0  0
  1 18  1  0  0  0  0
  1 13  1  0  0  0  0
  2  6  1  0  0  0  0
  4 16  1  0  0  0  0
  4  6  2  0  0  0  0
  5  2  1  6  0  0  0
  5  7  1  0  0  0  0
  5 15  1  0  0  0  0
  6  9  1  0  0  0  0
  7  3  1  6  0  0  0
  8  4  1  0  0  0  0
  9 13  1  0  0  0  0
 10  1  1  0  0  0  0
 11 14  1  0  0  0  0
 11 19  1  0  0  0  0
 12  8  2  0  0  0  0
 12 14  1  0  0  0  0
 14  2  2  0  0  0  0
 15  9  1  6  0  0  0
 15 28  1  0  0  0  0
 16  1  1  0  0  0  0
 17 32  1  0  0  0  0
 17  7  1  0  0  0  0
 19 17  1  0  0  0  0
 20 21  1  0  0  0  0
 21 23  1  0  0  0  0
 22 27  1  6  0  0  0
 22 24  1  0  0  0  0
 23 22  1  0  0  0  0
 24 25  1  0  0  0  0
 26 24  1  0  0  0  0
 28 20  1  6  0  0  0
 28 26  1  0  0  0  0
 29 30  1  0  0  0  0
 30 21  1  0  0  0  0
 31 37  2  0  0  0  0
 31 32  1  0  0  0  0
 32 33  2  0  0  0  0
 33 36  1  0  0  0  0
 35 36  2  0  0  0  0
 36 34  1  0  0  0  0
 37 35  1  0  0  0  0
M  END
>  <MODEL>
7

>  <REMARK>
 VINA RESULT:      -8.1      2.387      5.503
  Name = 
  3 active torsions:
  status: ('A' for Active; 'I' for Inactive)
    1  A    between atoms: N_4  and  C_37
    2  A    between atoms: C_21  and  C_27
    3  A    between atoms: N_23  and  C_30
                            x       y       z     vdW  Elec       q    Type
                         _______ _______ _______ _____ _____    ______ ____

>  <TORSDO>
F 3

$$$$
=
 OpenBabel11112417113D

 37 42  0  0  1  0  0  0  0  0999 V2000
  189.5000  176.4340  145.0750 C   0  0  0  0  0  0  0  0  0  0  0  0
  193.3930  174.9560  144.7590 C   0  0  0  0  0  0  0  0  0  0  0  0
  193.2770  172.1470  145.3460 F   0  0  0  0  0  0  0  0  0  0  0  0
  191.8980  176.3890  145.9560 C   0  0  0  0  0  0  0  0  0  0  0  0
  193.3220  173.8950  143.7050 C   0  0  1  0  0  3  0  0  0  0  0  0
  192.1620  175.4780  144.9510 C   0  0  0  0  0  0  0  0  0  0  0  0
  193.9300  172.5810  144.2030 C   0  0  1  0  0  3  0  0  0  0  0  0
  192.9270  176.7790  146.7610 N   0  0  0  0  0  0  0  0  0  0  0  0
  191.1790  174.8790  144.1530 N   0  0  0  0  0  0  0  0  0  0  0  0
  189.6200  177.4870  143.9850 C   0  0  0  0  0  1  0  0  0  0  0  0
  195.7930  174.6370  145.5290 C   0  0  0  0  0  2  0  0  0  0  0  0
  194.1930  176.2760  146.5950 C   0  0  0  0  0  3  0  0  0  0  0  0
  189.7630  175.0360  144.4720 C   0  0  0  0  0  2  0  0  0  0  0  0
  194.4620  175.3340  145.5810 C   0  0  0  0  0  0  0  0  0  0  0  0
  191.7980  173.7790  143.4110 C   0  0  1  0  0  3  0  0  0  0  0  0
  190.4700  176.7770  146.2340 C   0  0  0  0  0  2  0  0  0  0  0  0
  195.3700  172.7340  144.4760 N   0  0  0  0  0  0  0  0  0  0  0  0
  188.0840  176.4670  145.6090 C   0  0  0  0  0  1  0  0  0  0  0  0
  195.9660  173.9510  144.3140 O   0  0  0  0  0  0  0  0  0  0  0  0
  192.6500  173.8550  140.9610 C   0  0  0  0  0  2  0  0  0  0  0  0
  192.1580  173.7700  139.5900 N   0  0  0  0  0  0  0  0  0  0  0  0
  191.5410  171.3850  140.2670 C   0  0  2  0  0  3  0  0  0  0  0  0
  191.9950  172.3720  139.1690 C   0  0  0  0  0  2  0  0  0  0  0  0
  190.3330  171.7700  141.0310 N   0  0  0  0  0  0  0  0  0  0  0  0
  190.1880  170.9690  142.1150 O   0  0  0  0  0  1  0  0  0  0  0  0
  190.1900  173.1720  141.4610 C   0  0  0  0  0  2  0  0  0  0  0  0
  192.7030  170.8640  141.1090 C   0  0  0  0  0  1  0  0  0  0  0  0
  191.4640  173.9010  141.9230 C   0  0  1  0  0  3  0  0  0  0  0  0
  194.1390  175.0820  139.5370 N   0  0  0  0  0  1  0  0  0  0  0  0
  193.1800  174.3450  138.7320 C   0  0  0  0  0  2  0  0  0  0  0  0
  197.0360  171.0430  143.8210 C   0  0  0  0  0  3  0  0  0  0  0  0
  196.1820  171.5880  144.7920 C   0  0  0  0  0  0  0  0  0  0  0  0
  196.1300  170.9920  146.0630 C   0  0  0  0  0  3  0  0  0  0  0  0
  196.8620  169.3110  147.5870 F   0  0  0  0  0  0  0  0  0  0  0  0
  197.7670  169.3450  145.3820 C   0  0  0  0  0  3  0  0  0  0  0  0
  196.9200  169.8770  146.3570 C   0  0  0  0  0  0  0  0  0  0  0  0
  197.8240  169.9270  144.1140 C   0  0  0  0  0  3  0  0  0  0  0  0
  1 18  1  0  0  0  0
  1 16  1  0  0  0  0
  2  6  2  0  0  0  0
  2 14  1  0  0  0  0
  4 16  1  0  0  0  0
  4  8  2  0  0  0  0
  5  7  1  0  0  0  0
  5  2  1  1  0  0  0
  6  4  1  0  0  0  0
  7 17  1  0  0  0  0
  7  3  1  1  0  0  0
  9 13  1  0  0  0  0
  9  6  1  0  0  0  0
 10  1  1  0  0  0  0
 11 14  1  0  0  0  0
 12  8  1  0  0  0  0
 13  1  1  0  0  0  0
 14 12  2  0  0  0  0
 15  5  1  0  0  0  0
 15  9  1  1  0  0  0
 17 32  1  0  0  0  0
 19 17  1  0  0  0  0
 19 11  1  0  0  0  0
 21 20  1  0  0  0  0
 22 24  1  0  0  0  0
 22 27  1  1  0  0  0
 23 21  1  0  0  0  0
 23 22  1  0  0  0  0
 24 26  1  0  0  0  0
 24 25  1  0  0  0  0
 26 28  1  0  0  0  0
 28 20  1  6  0  0  0
 28 15  1  0  0  0  0
 30 29  1  0  0  0  0
 30 21  1  0  0  0  0
 31 37  2  0  0  0  0
 31 32  1  0  0  0  0
 32 33  2  0  0  0  0
 33 36  1  0  0  0  0
 35 36  2  0  0  0  0
 36 34  1  0  0  0  0
 37 35  1  0  0  0  0
M  END
>  <MODEL>
8

>  <REMARK>
 VINA RESULT:      -8.0      3.653      7.286
  Name = 
  3 active torsions:
  status: ('A' for Active; 'I' for Inactive)
    1  A    between atoms: N_4  and  C_37
    2  A    between atoms: C_21  and  C_27
    3  A    between atoms: N_23  and  C_30
                            x       y       z     vdW  Elec       q    Type
                         _______ _______ _______ _____ _____    ______ ____

>  <TORSDO>
F 3

$$$$
=
 OpenBabel11112417113D

 37 42  0  0  1  0  0  0  0  0999 V2000
  187.4540  176.5000  142.6610 C   0  0  0  0  0  0  0  0  0  0  0  0
  191.5690  175.8810  143.0140 C   0  0  0  0  0  0  0  0  0  0  0  0
  191.9310  173.4970  144.5730 F   0  0  0  0  0  0  0  0  0  0  0  0
  189.7110  177.2830  143.5680 C   0  0  0  0  0  0  0  0  0  0  0  0
  191.8130  174.5310  142.4130 C   0  0  1  0  0  3  0  0  0  0  0  0
  190.2480  176.1590  142.9680 C   0  0  0  0  0  0  0  0  0  0  0  0
  192.6040  173.6370  143.3700 C   0  0  1  0  0  3  0  0  0  0  0  0
  190.5580  178.1410  144.2070 N   0  0  0  0  0  0  0  0  0  0  0  0
  189.4860  175.1230  142.4120 N   0  0  0  0  0  0  0  0  0  0  0  0
  187.4850  177.1090  141.2680 C   0  0  0  0  0  1  0  0  0  0  0  0
  193.8920  176.3750  143.9150 C   0  0  0  0  0  2  0  0  0  0  0  0
  191.9070  177.8970  144.2700 C   0  0  0  0  0  3  0  0  0  0  0  0
  188.0410  175.0720  142.6130 C   0  0  0  0  0  2  0  0  0  0  0  0
  192.4550  176.7420  143.6740 C   0  0  0  0  0  0  0  0  0  0  0  0
  190.3770  173.9950  142.1370 C   0  0  1  0  0  3  0  0  0  0  0  0
  188.2150  177.4260  143.6450 C   0  0  0  0  0  2  0  0  0  0  0  0
  193.9520  174.1820  143.6110 N   0  0  0  0  0  0  0  0  0  0  0  0
  186.0110  176.4110  143.1060 C   0  0  0  0  0  1  0  0  0  0  0  0
  194.3190  175.3640  143.0360 O   0  0  0  0  0  0  0  0  0  0  0  0
  191.3380  173.7940  139.7350 C   0  0  0  0  0  2  0  0  0  0  0  0
  191.0940  173.1010  138.4740 N   0  0  0  0  0  0  0  0  0  0  0  0
  191.6370  171.0170  139.8500 C   0  0  2  0  0  3  0  0  0  0  0  0
  191.6700  171.7500  138.4900 C   0  0  0  0  0  2  0  0  0  0  0  0
  190.3210  170.9550  140.5250 N   0  0  0  0  0  0  0  0  0  0  0  0
  190.4680  170.5240  141.8020 O   0  0  0  0  0  1  0  0  0  0  0  0
  189.4750  172.1620  140.5300 C   0  0  0  0  0  2  0  0  0  0  0  0
  192.8110  171.3930  140.7510 C   0  0  0  0  0  1  0  0  0  0  0  0
  190.1830  173.5180  140.6960 C   0  0  1  0  0  3  0  0  0  0  0  0
  193.0510  174.3470  137.9610 N   0  0  0  0  0  1  0  0  0  0  0  0
  191.7950  173.8390  137.4370 C   0  0  0  0  0  2  0  0  0  0  0  0
  195.1910  172.0870  143.9910 C   0  0  0  0  0  3  0  0  0  0  0  0
  194.9310  173.4200  144.3430 C   0  0  0  0  0  0  0  0  0  0  0  0
  195.6320  173.9880  145.4190 C   0  0  0  0  0  3  0  0  0  0  0  0
  197.2470  173.7970  147.1620 F   0  0  0  0  0  0  0  0  0  0  0  0
  196.8280  171.9130  145.7650 C   0  0  0  0  0  3  0  0  0  0  0  0
  196.5760  173.2390  146.1260 C   0  0  0  0  0  0  0  0  0  0  0  0
  196.1340  171.3370  144.6970 C   0  0  0  0  0  3  0  0  0  0  0  0
  1 18  1  0  0  0  0
  1 16  1  0  0  0  0
  2 14  1  0  0  0  0
  4 16  1  0  0  0  0
  4  8  2  0  0  0  0
  5  2  1  1  0  0  0
  5  7  1  0  0  0  0
  6  2  2  0  0  0  0
  6  4  1  0  0  0  0
  7 17  1  0  0  0  0
  7  3  1  1  0  0  0
  8 12  1  0  0  0  0
  9 13  1  0  0  0  0
  9  6  1  0  0  0  0
 10  1  1  0  0  0  0
 13  1  1  0  0  0  0
 14 11  1  0  0  0  0
 14 12  2  0  0  0  0
 15  9  1  6  0  0  0
 15  5  1  0  0  0  0
 17 32  1  0  0  0  0
 19 17  1  0  0  0  0
 19 11  1  0  0  0  0
 21 23  1  0  0  0  0
 21 20  1  0  0  0  0
 22 24  1  0  0  0  0
 22 27  1  1  0  0  0
 23 22  1  0  0  0  0
 24 26  1  0  0  0  0
 24 25  1  0  0  0  0
 26 28  1  0  0  0  0
 28 20  1  1  0  0  0
 28 15  1  0  0  0  0
 30 29  1  0  0  0  0
 30 21  1  0  0  0  0
 31 32  2  0  0  0  0
 31 37  1  0  0  0  0
 32 33  1  0  0  0  0
 33 36  2  0  0  0  0
 35 36  1  0  0  0  0
 36 34  1  0  0  0  0
 37 35  2  0  0  0  0
M  END
>  <MODEL>
9

>  <REMARK>
 VINA RESULT:      -8.0      3.093      6.778
  Name = 
  3 active torsions:
  status: ('A' for Active; 'I' for Inactive)
    1  A    between atoms: N_4  and  C_37
    2  A    between atoms: C_21  and  C_27
    3  A    between atoms: N_23  and  C_30
                            x       y       z     vdW  Elec       q    Type
                         _______ _______ _______ _____ _____    ______ ____

>  <TORSDO>
F 3

$$$$
