=
 OpenBabel11112417503D

 34 42  0  0  1  0  0  0  0  0999 V2000
  189.5690  174.1530  143.4720 C   0  0  0  0  0  0  0  0  0  0  0  0
  191.5290  172.5520  143.3860 C   0  0  0  0  0  2  0  0  0  0  0  0
  185.9220  178.2010  146.3370 C   0  0  2  0  0  3  0  0  0  0  0  0
  187.9400  175.9240  143.3660 C   0  0  0  0  0  0  0  0  0  0  0  0
  188.0790  177.9250  144.9190 C   0  0  1  0  0  3  0  0  0  0  0  0
  186.9510  176.3490  146.4170 O   0  0  0  0  0  0  0  0  0  0  0  0
  185.5980  176.7280  146.5240 C   0  0  0  0  0  2  0  0  0  0  0  0
  185.1370  177.9150  144.1260 C   0  0  0  0  0  2  0  0  0  0  0  0
  191.4270  174.1650  145.1910 C   0  0  2  0  0  3  0  0  0  0  0  0
  194.0200  176.0260  145.2320 C   0  0  0  0  0  2  0  0  0  0  0  0
  189.5650  177.5780  145.0300 C   0  0  0  0  0  2  0  0  0  0  0  0
  186.2940  177.8090  143.1480 C   0  0  0  0  0  2  0  0  0  0  0  0
  191.2560  175.6960  145.2230 C   0  0  1  0  0  3  0  0  0  0  0  0
  192.7630  172.3650  144.2460 C   0  0  0  0  0  2  0  0  0  0  0  0
  187.4450  177.2040  143.8060 N   0  0  0  0  0  0  0  0  0  0  0  0
  185.4550  178.8340  145.1450 O   0  0  0  0  0  0  0  0  0  0  0  0
  194.0310  174.5570  144.8200 C   0  0  1  0  0  0  0  0  0  0  0  0
  189.0920  175.3790  143.9520 C   0  0  0  0  0  0  0  0  0  0  0  0
  187.3490  177.6910  146.2580 C   0  0  2  0  0  3  0  0  0  0  0  0
  189.7660  176.0630  145.1190 C   0  0  2  0  0  3  0  0  0  0  0  0
  187.8090  174.0730  141.8940 C   0  0  0  0  0  3  0  0  0  0  0  0
  193.3680  176.1830  146.5980 C   0  0  0  0  0  2  0  0  0  0  0  0
  187.3270  175.2580  142.3490 N   0  0  0  0  0  0  0  0  0  0  0  0
  191.8470  176.2960  146.5030 C   0  0  0  0  0  2  0  0  0  0  0  0
  192.8570  173.5830  145.1770 C   0  0  1  0  0  3  0  0  0  0  0  0
  188.9240  173.5300  142.4500 N   0  0  0  0  0  0  0  0  0  0  0  0
  190.7640  173.5950  144.0300 N   0  0  0  0  0  0  0  0  0  0  0  0
  194.6140  174.3390  143.5570 O   0  0  0  0  0  0  0  0  0  0  0  0
  195.4320  174.0630  144.6790 C   0  0  2  0  0  3  0  0  0  0  0  0
  197.2570  171.0820  144.0460 C   0  0  0  0  0  2  0  0  0  0  0  0
  196.5660  172.2790  145.9830 C   0  0  0  0  0  2  0  0  0  0  0  0
  195.6210  172.5620  144.8420 C   0  0  2  0  0  3  0  0  0  0  0  0
  197.2750  171.0270  145.5580 C   0  0  0  0  0  2  0  0  0  0  0  0
  196.1990  171.9960  143.6290 N   0  0  0  0  0  2  0  0  0  0  0  0
  1 18  1  0  0  0  0
  1 27  1  0  0  0  0
  2 27  1  0  0  0  0
  2 14  1  0  0  0  0
  3  7  1  6  0  0  0
  4 15  1  0  0  0  0
  4 18  2  0  0  0  0
  5 11  1  1  0  0  0
  5 19  1  0  0  0  0
  6  7  1  0  0  0  0
  8 16  1  0  0  0  0
  9 27  1  6  0  0  0
  9 13  1  0  0  0  0
 10 22  1  0  0  0  0
 12 15  1  0  0  0  0
 12  8  1  0  0  0  0
 13 24  1  1  0  0  0
 15  5  1  0  0  0  0
 16  3  1  0  0  0  0
 17 25  1  0  0  0  0
 17 10  1  1  0  0  0
 18 20  1  0  0  0  0
 19  3  1  0  0  0  0
 19  6  1  6  0  0  0
 20 11  1  6  0  0  0
 20 13  1  0  0  0  0
 21 23  2  0  0  0  0
 21 26  1  0  0  0  0
 23  4  1  0  0  0  0
 24 22  1  0  0  0  0
 25 14  1  6  0  0  0
 25  9  1  0  0  0  0
 26  1  2  0  0  0  0
 28 17  1  0  0  0  0
 29 28  1  6  0  0  0
 29 17  1  0  0  0  0
 29 32  1  0  0  0  0
 30 33  1  0  0  0  0
 32 31  1  1  0  0  0
 33 31  1  0  0  0  0
 34 30  1  0  0  0  0
 34 32  1  0  0  0  0
M  END
>  <MODEL>
1

>  <REMARK>
 VINA RESULT:      -9.3      0.000      0.000
  Name = 
  1 active torsions:
  status: ('A' for Active; 'I' for Inactive)
    1  A    between atoms: C_29  and  C_32
                            x       y       z     vdW  Elec       q    Type
                         _______ _______ _______ _____ _____    ______ ____

>  <TORSDO>
F 1

$$$$
=
 OpenBabel11112417503D

 34 42  0  0  1  0  0  0  0  0999 V2000
  191.7550  175.2910  142.7280 C   0  0  0  0  0  0  0  0  0  0  0  0
  189.4420  176.2500  143.1080 C   0  0  0  0  0  2  0  0  0  0  0  0
  197.7850  174.8980  143.9030 C   0  0  2  0  0  3  0  0  0  0  0  0
  193.8290  174.0750  142.5780 C   0  0  0  0  0  0  0  0  0  0  0  0
  195.4390  173.9850  144.5360 C   0  0  1  0  0  3  0  0  0  0  0  0
  196.0990  176.1450  143.5900 O   0  0  0  0  0  0  0  0  0  0  0  0
  197.3390  175.9850  142.9400 C   0  0  0  0  0  2  0  0  0  0  0  0
  197.2570  173.3840  142.1650 C   0  0  0  0  0  2  0  0  0  0  0  0
  191.1370  176.6010  144.8040 C   0  0  2  0  0  3  0  0  0  0  0  0
  190.2120  175.4390  147.6290 C   0  0  0  0  0  2  0  0  0  0  0  0
  194.2110  174.2920  145.3970 C   0  0  0  0  0  2  0  0  0  0  0  0
  195.9260  172.7010  142.4270 C   0  0  0  0  0  2  0  0  0  0  0  0
  192.0730  175.6450  145.5680 C   0  0  1  0  0  3  0  0  0  0  0  0
  188.8080  177.0290  144.2440 C   0  0  0  0  0  2  0  0  0  0  0  0
  195.0480  173.5930  143.1740 N   0  0  0  0  0  0  0  0  0  0  0  0
  197.9410  173.5770  143.3810 O   0  0  0  0  0  0  0  0  0  0  0  0
  189.2620  176.0640  146.6110 C   0  0  1  0  0  0  0  0  0  0  0  0
  192.9510  174.8740  143.3260 C   0  0  0  0  0  0  0  0  0  0  0  0
  196.4350  175.1640  144.5420 C   0  0  2  0  0  3  0  0  0  0  0  0
  193.3150  175.3310  144.7190 C   0  0  2  0  0  3  0  0  0  0  0  0
  192.3260  174.1320  140.7470 C   0  0  0  0  0  3  0  0  0  0  0  0
  191.3650  176.3870  147.9220 C   0  0  0  0  0  2  0  0  0  0  0  0
  193.4940  173.7220  141.3070 N   0  0  0  0  0  0  0  0  0  0  0  0
  192.5040  176.2430  146.9120 C   0  0  0  0  0  2  0  0  0  0  0  0
  189.7750  176.9630  145.4350 C   0  0  1  0  0  3  0  0  0  0  0  0
  191.4640  174.9060  141.4570 N   0  0  0  0  0  0  0  0  0  0  0  0
  190.8270  176.0760  143.4850 N   0  0  0  0  0  0  0  0  0  0  0  0
  188.1730  175.2340  146.2860 O   0  0  0  0  0  0  0  0  0  0  0  0
  187.9120  176.2720  147.2130 C   0  0  2  0  0  3  0  0  0  0  0  0
  184.7450  177.6860  146.4470 C   0  0  0  0  0  2  0  0  0  0  0  0
  186.7020  178.4070  147.5910 C   0  0  0  0  0  2  0  0  0  0  0  0
  187.0640  177.3590  146.5700 C   0  0  2  0  0  3  0  0  0  0  0  0
  185.3470  178.8790  147.1550 C   0  0  0  0  0  2  0  0  0  0  0  0
  185.8250  176.7870  146.0540 N   0  0  0  0  0  2  0  0  0  0  0  0
  1 18  1  0  0  0  0
  1 27  1  0  0  0  0
  2 27  1  0  0  0  0
  2 14  1  0  0  0  0
  3  7  1  6  0  0  0
  3 19  1  0  0  0  0
  4 15  1  0  0  0  0
  4 18  2  0  0  0  0
  5 19  1  0  0  0  0
  5 11  1  1  0  0  0
  7  6  1  0  0  0  0
  8 12  1  0  0  0  0
  8 16  1  0  0  0  0
  9 27  1  6  0  0  0
  9 25  1  0  0  0  0
  9 13  1  0  0  0  0
 10 22  1  0  0  0  0
 12 15  1  0  0  0  0
 13 24  1  1  0  0  0
 15  5  1  0  0  0  0
 16  3  1  0  0  0  0
 17 29  1  0  0  0  0
 17 10  1  1  0  0  0
 18 20  1  0  0  0  0
 19  6  1  6  0  0  0
 20 11  1  1  0  0  0
 20 13  1  0  0  0  0
 21 23  2  0  0  0  0
 21 26  1  0  0  0  0
 23  4  1  0  0  0  0
 24 22  1  0  0  0  0
 25 14  1  6  0  0  0
 25 17  1  0  0  0  0
 26  1  2  0  0  0  0
 28 17  1  0  0  0  0
 29 28  1  6  0  0  0
 30 33  1  0  0  0  0
 32 29  1  0  0  0  0
 32 31  1  1  0  0  0
 33 31  1  0  0  0  0
 34 30  1  0  0  0  0
 34 32  1  0  0  0  0
M  END
>  <MODEL>
2

>  <REMARK>
 VINA RESULT:      -8.8      2.180      8.293
  Name = 
  1 active torsions:
  status: ('A' for Active; 'I' for Inactive)
    1  A    between atoms: C_29  and  C_32
                            x       y       z     vdW  Elec       q    Type
                         _______ _______ _______ _____ _____    ______ ____

>  <TORSDO>
F 1

$$$$
=
 OpenBabel11112417503D

 34 42  0  0  1  0  0  0  0  0999 V2000
  188.6610  175.1120  143.2560 C   0  0  0  0  0  0  0  0  0  0  0  0
  190.4110  173.3420  142.7850 C   0  0  0  0  0  2  0  0  0  0  0  0
  184.9670  178.3050  147.0050 C   0  0  2  0  0  3  0  0  0  0  0  0
  187.2920  177.0490  143.6730 C   0  0  0  0  0  0  0  0  0  0  0  0
  187.3260  178.2160  145.9250 C   0  0  1  0  0  3  0  0  0  0  0  0
  185.7500  176.4150  146.4460 O   0  0  0  0  0  0  0  0  0  0  0  0
  184.4540  176.9640  146.5090 C   0  0  0  0  0  2  0  0  0  0  0  0
  184.6270  179.0600  144.7910 C   0  0  0  0  0  2  0  0  0  0  0  0
  190.1170  174.1060  145.0660 C   0  0  2  0  0  3  0  0  0  0  0  0
  192.8330  175.2890  146.2530 C   0  0  0  0  0  2  0  0  0  0  0  0
  188.7110  177.5870  146.0900 C   0  0  0  0  0  2  0  0  0  0  0  0
  185.9420  179.1360  144.0350 C   0  0  0  0  0  2  0  0  0  0  0  0
  190.1100  175.5040  145.7130 C   0  0  1  0  0  3  0  0  0  0  0  0
  191.4140  172.6090  143.6540 C   0  0  0  0  0  2  0  0  0  0  0  0
  186.8600  178.1200  144.5340 N   0  0  0  0  0  0  0  0  0  0  0  0
  184.8270  179.4300  146.1360 O   0  0  0  0  0  0  0  0  0  0  0  0
  192.7680  174.1260  145.2690 C   0  0  1  0  0  0  0  0  0  0  0  0
  188.2330  176.1150  144.1340 C   0  0  0  0  0  0  0  0  0  0  0  0
  186.3160  177.6140  146.9240 C   0  0  2  0  0  3  0  0  0  0  0  0
  188.7230  176.1500  145.5620 C   0  0  2  0  0  3  0  0  0  0  0  0
  187.2650  175.9830  141.5580 C   0  0  0  0  0  3  0  0  0  0  0  0
  191.9360  175.0140  147.4510 C   0  0  0  0  0  2  0  0  0  0  0  0
  186.8320  176.9610  142.3950 N   0  0  0  0  0  0  0  0  0  0  0  0
  190.4880  175.4330  147.1970 C   0  0  0  0  0  2  0  0  0  0  0  0
  191.4470  173.3240  145.0120 C   0  0  1  0  0  3  0  0  0  0  0  0
  188.1750  175.0710  141.9870 N   0  0  0  0  0  0  0  0  0  0  0  0
  189.6480  174.1710  143.6920 N   0  0  0  0  0  0  0  0  0  0  0  0
  193.5710  174.3180  144.1280 O   0  0  0  0  0  0  0  0  0  0  0  0
  194.1060  173.4780  145.1340 C   0  0  2  0  0  3  0  0  0  0  0  0
  195.7350  170.6630  143.7050 C   0  0  0  0  0  2  0  0  0  0  0  0
  194.6400  171.1360  145.7640 C   0  0  0  0  0  2  0  0  0  0  0  0
  194.0930  172.0270  144.6770 C   0  0  2  0  0  3  0  0  0  0  0  0
  195.3140  170.0270  145.0110 C   0  0  0  0  0  2  0  0  0  0  0  0
  194.9350  171.8660  143.4970 N   0  0  0  0  0  2  0  0  0  0  0  0
  1 27  1  0  0  0  0
  1 18  1  0  0  0  0
  2 14  1  0  0  0  0
  2 27  1  0  0  0  0
  3  7  1  6  0  0  0
  4 18  2  0  0  0  0
  4 15  1  0  0  0  0
  5 11  1  6  0  0  0
  5 19  1  0  0  0  0
  6  7  1  0  0  0  0
  8 16  1  0  0  0  0
  9 27  1  6  0  0  0
  9 13  1  0  0  0  0
 10 22  1  0  0  0  0
 12 15  1  0  0  0  0
 12  8  1  0  0  0  0
 13 24  1  1  0  0  0
 15  5  1  0  0  0  0
 16  3  1  0  0  0  0
 17 10  1  1  0  0  0
 18 20  1  0  0  0  0
 19  6  1  6  0  0  0
 19  3  1  0  0  0  0
 20 13  1  0  0  0  0
 20 11  1  6  0  0  0
 21 26  1  0  0  0  0
 21 23  2  0  0  0  0
 23  4  1  0  0  0  0
 24 22  1  0  0  0  0
 25 14  1  6  0  0  0
 25  9  1  0  0  0  0
 25 17  1  0  0  0  0
 26  1  2  0  0  0  0
 28 17  1  0  0  0  0
 29 28  1  6  0  0  0
 29 17  1  0  0  0  0
 30 33  1  0  0  0  0
 32 29  1  0  0  0  0
 32 31  1  1  0  0  0
 33 31  1  0  0  0  0
 34 30  1  0  0  0  0
 34 32  1  0  0  0  0
M  END
>  <MODEL>
3

>  <REMARK>
 VINA RESULT:      -8.6      1.337      1.519
  Name = 
  1 active torsions:
  status: ('A' for Active; 'I' for Inactive)
    1  A    between atoms: C_29  and  C_32
                            x       y       z     vdW  Elec       q    Type
                         _______ _______ _______ _____ _____    ______ ____

>  <TORSDO>
F 1

$$$$
=
 OpenBabel11112417503D

 34 42  0  0  1  0  0  0  0  0999 V2000
  191.5300  174.8040  142.5840 C   0  0  0  0  0  0  0  0  0  0  0  0
  189.3630  176.0290  142.1200 C   0  0  0  0  0  2  0  0  0  0  0  0
  196.9720  174.1660  145.3920 C   0  0  2  0  0  3  0  0  0  0  0  0
  193.3750  173.4070  143.2530 C   0  0  0  0  0  0  0  0  0  0  0  0
  194.4330  173.6450  145.5460 C   0  0  1  0  0  3  0  0  0  0  0  0
  195.6150  175.4480  144.3840 O   0  0  0  0  0  0  0  0  0  0  0  0
  196.9380  175.0260  144.1400 C   0  0  0  0  0  2  0  0  0  0  0  0
  196.6590  172.3340  143.9300 C   0  0  0  0  0  2  0  0  0  0  0  0
  190.6320  176.6240  144.0970 C   0  0  2  0  0  3  0  0  0  0  0  0
  188.8900  176.2600  146.7470 C   0  0  0  0  0  2  0  0  0  0  0  0
  193.0940  174.2580  145.9630 C   0  0  0  0  0  2  0  0  0  0  0  0
  195.2180  171.8550  143.9610 C   0  0  0  0  0  2  0  0  0  0  0  0
  191.2020  175.7980  145.2670 C   0  0  1  0  0  3  0  0  0  0  0  0
  188.5970  177.1120  142.8550 C   0  0  0  0  0  2  0  0  0  0  0  0
  194.3290  172.9750  144.2420 N   0  0  0  0  0  0  0  0  0  0  0  0
  197.0510  172.7500  145.2180 O   0  0  0  0  0  0  0  0  0  0  0  0
  188.3180  176.7050  145.4050 C   0  0  1  0  0  0  0  0  0  0  0  0
  192.4710  174.4370  143.5540 C   0  0  0  0  0  0  0  0  0  0  0  0
  195.5620  174.6970  145.5750 C   0  0  2  0  0  3  0  0  0  0  0  0
  192.5520  175.1800  144.8670 C   0  0  2  0  0  3  0  0  0  0  0  0
  192.3830  173.1580  141.1160 C   0  0  0  0  0  3  0  0  0  0  0  0
  190.0660  177.1430  147.1350 C   0  0  0  0  0  2  0  0  0  0  0  0
  193.3080  172.7910  142.0410 N   0  0  0  0  0  0  0  0  0  0  0  0
  191.3800  176.6600  146.5210 C   0  0  0  0  0  2  0  0  0  0  0  0
  189.2270  177.2460  144.2490 C   0  0  1  0  0  3  0  0  0  0  0  0
  191.5010  174.1540  141.3900 N   0  0  0  0  0  0  0  0  0  0  0  0
  190.5740  175.8270  142.8830 N   0  0  0  0  0  0  0  0  0  0  0  0
  187.2280  175.9230  144.9790 O   0  0  0  0  0  0  0  0  0  0  0  0
  186.9090  177.1710  145.5650 C   0  0  2  0  0  3  0  0  0  0  0  0
  184.2730  178.5960  143.6570 C   0  0  0  0  0  2  0  0  0  0  0  0
  185.9290  179.4160  145.1550 C   0  0  0  0  0  2  0  0  0  0  0  0
  186.4120  178.1430  144.5050 C   0  0  2  0  0  3  0  0  0  0  0  0
  184.8140  179.8720  144.2630 C   0  0  0  0  0  2  0  0  0  0  0  0
  185.2930  177.5590  143.7750 N   0  0  0  0  0  2  0  0  0  0  0  0
  1 27  1  0  0  0  0
  1 18  1  0  0  0  0
  2 14  1  0  0  0  0
  2 27  1  0  0  0  0
  3  7  1  6  0  0  0
  3 19  1  0  0  0  0
  4 18  2  0  0  0  0
  4 15  1  0  0  0  0
  5 19  1  0  0  0  0
  5 11  1  6  0  0  0
  7  6  1  0  0  0  0
  8 12  1  0  0  0  0
  8 16  1  0  0  0  0
  9 27  1  6  0  0  0
  9 25  1  0  0  0  0
  9 13  1  0  0  0  0
 10 22  1  0  0  0  0
 12 15  1  0  0  0  0
 13 24  1  1  0  0  0
 15  5  1  0  0  0  0
 16  3  1  0  0  0  0
 17 29  1  0  0  0  0
 17 10  1  1  0  0  0
 18 20  1  0  0  0  0
 19  6  1  6  0  0  0
 20 13  1  0  0  0  0
 20 11  1  1  0  0  0
 21 26  1  0  0  0  0
 21 23  2  0  0  0  0
 23  4  1  0  0  0  0
 24 22  1  0  0  0  0
 25 14  1  6  0  0  0
 25 17  1  0  0  0  0
 26  1  2  0  0  0  0
 28 17  1  0  0  0  0
 29 28  1  6  0  0  0
 30 34  1  0  0  0  0
 30 33  1  0  0  0  0
 32 31  1  1  0  0  0
 32 29  1  0  0  0  0
 33 31  1  0  0  0  0
 34 32  1  0  0  0  0
M  END
>  <MODEL>
4

>  <REMARK>
 VINA RESULT:      -8.6      1.850      8.370
  Name = 
  1 active torsions:
  status: ('A' for Active; 'I' for Inactive)
    1  A    between atoms: C_29  and  C_32
                            x       y       z     vdW  Elec       q    Type
                         _______ _______ _______ _____ _____    ______ ____

>  <TORSDO>
F 1

$$$$
=
 OpenBabel11112417503D

 34 42  0  0  1  0  0  0  0  0999 V2000
  189.8580  176.7250  145.0680 C   0  0  0  0  0  0  0  0  0  0  0  0
  192.0720  175.8310  144.2230 C   0  0  0  0  0  2  0  0  0  0  0  0
  184.2290  179.0810  144.2530 C   0  0  2  0  0  3  0  0  0  0  0  0
  187.6580  177.2000  145.9240 C   0  0  0  0  0  0  0  0  0  0  0  0
  185.5950  176.8850  144.4820 C   0  0  1  0  0  3  0  0  0  0  0  0
  186.2780  179.1040  143.7030 O   0  0  0  0  0  0  0  0  0  0  0  0
  185.3930  180.0570  144.2470 C   0  0  0  0  0  2  0  0  0  0  0  0
  184.6330  178.8810  146.5740 C   0  0  0  0  0  2  0  0  0  0  0  0
  190.2140  175.9830  142.6740 C   0  0  2  0  0  3  0  0  0  0  0  0
  189.5280  173.1370  141.4030 C   0  0  0  0  0  2  0  0  0  0  0  0
  186.4570  175.9050  143.6830 C   0  0  0  0  0  2  0  0  0  0  0  0
  185.3710  177.5920  146.8880 C   0  0  0  0  0  2  0  0  0  0  0  0
  188.7630  175.4670  142.7210 C   0  0  1  0  0  3  0  0  0  0  0  0
  192.5410  175.3020  142.8820 C   0  0  0  0  0  2  0  0  0  0  0  0
  186.2260  177.2240  145.7660 N   0  0  0  0  0  0  0  0  0  0  0  0
  183.7210  178.6660  145.5220 O   0  0  0  0  0  0  0  0  0  0  0  0
  190.9380  173.5900  141.7670 C   0  0  1  0  0  0  0  0  0  0  0  0
  188.4740  176.7750  144.8650 C   0  0  0  0  0  0  0  0  0  0  0  0
  185.2540  178.1380  143.6490 C   0  0  2  0  0  3  0  0  0  0  0  0
  187.8810  176.4430  143.5160 C   0  0  2  0  0  3  0  0  0  0  0  0
  189.5730  177.4800  147.2910 C   0  0  0  0  0  3  0  0  0  0  0  0
  188.8600  174.1690  140.5080 C   0  0  0  0  0  2  0  0  0  0  0  0
  188.2270  177.5410  147.1130 N   0  0  0  0  0  0  0  0  0  0  0  0
  188.1920  175.2850  141.3110 C   0  0  0  0  0  2  0  0  0  0  0  0
  191.2920  175.0970  142.0130 C   0  0  1  0  0  3  0  0  0  0  0  0
  190.3780  177.0700  146.2760 N   0  0  0  0  0  0  0  0  0  0  0  0
  190.7070  176.2600  144.0140 N   0  0  0  0  0  0  0  0  0  0  0  0
  191.6150  172.6830  142.6040 O   0  0  0  0  0  0  0  0  0  0  0  0
  191.9520  172.6350  141.2300 C   0  0  2  0  0  3  0  0  0  0  0  0
  195.4410  172.1950  140.7290 C   0  0  0  0  0  2  0  0  0  0  0  0
  193.6630  173.2250  139.5300 C   0  0  0  0  0  2  0  0  0  0  0  0
  193.3430  173.2070  141.0040 C   0  0  2  0  0  3  0  0  0  0  0  0
  195.1440  173.0000  139.4830 C   0  0  0  0  0  2  0  0  0  0  0  0
  194.3400  172.3770  141.6700 N   0  0  0  0  0  2  0  0  0  0  0  0
  1 26  1  0  0  0  0
  3  7  1  1  0  0  0
  3 16  1  0  0  0  0
  4 23  2  0  0  0  0
  5 11  1  6  0  0  0
  5 15  1  0  0  0  0
  6  7  1  0  0  0  0
  8 12  1  0  0  0  0
  9 13  1  0  0  0  0
  9 27  1  1  0  0  0
 13 24  1  6  0  0  0
 13 20  1  0  0  0  0
 14  2  1  0  0  0  0
 15  4  1  0  0  0  0
 15 12  1  0  0  0  0
 16  8  1  0  0  0  0
 17 10  1  6  0  0  0
 17 25  1  0  0  0  0
 17 28  1  0  0  0  0
 18  1  2  0  0  0  0
 18  4  1  0  0  0  0
 19  6  1  1  0  0  0
 19  3  1  0  0  0  0
 19  5  1  0  0  0  0
 20 11  1  1  0  0  0
 20 18  1  0  0  0  0
 22 24  1  0  0  0  0
 22 10  1  0  0  0  0
 23 21  1  0  0  0  0
 25  9  1  0  0  0  0
 25 14  1  1  0  0  0
 26 21  2  0  0  0  0
 27  2  1  0  0  0  0
 27  1  1  0  0  0  0
 29 17  1  0  0  0  0
 29 28  1  1  0  0  0
 30 34  1  0  0  0  0
 32 31  1  6  0  0  0
 32 29  1  0  0  0  0
 32 34  1  0  0  0  0
 33 31  1  0  0  0  0
 33 30  1  0  0  0  0
M  END
>  <MODEL>
5

>  <REMARK>
 VINA RESULT:      -8.4      2.685      4.352
  Name = 
  1 active torsions:
  status: ('A' for Active; 'I' for Inactive)
    1  A    between atoms: C_29  and  C_32
                            x       y       z     vdW  Elec       q    Type
                         _______ _______ _______ _____ _____    ______ ____

>  <TORSDO>
F 1

$$$$
=
 OpenBabel11112417503D

 34 42  0  0  1  0  0  0  0  0999 V2000
  191.5390  173.2410  143.5470 C   0  0  0  0  0  0  0  0  0  0  0  0
  189.1610  173.7400  142.8340 C   0  0  0  0  0  2  0  0  0  0  0  0
  197.5330  174.5860  143.9600 C   0  0  2  0  0  3  0  0  0  0  0  0
  193.6850  172.8830  144.5800 C   0  0  0  0  0  0  0  0  0  0  0  0
  195.2220  174.8280  145.1170 C   0  0  1  0  0  3  0  0  0  0  0  0
  195.7890  174.5280  142.7540 O   0  0  0  0  0  0  0  0  0  0  0  0
  197.0610  173.9260  142.6760 C   0  0  0  0  0  2  0  0  0  0  0  0
  197.1620  172.4830  144.9740 C   0  0  0  0  0  2  0  0  0  0  0  0
  190.7660  175.5550  142.8730 C   0  0  2  0  0  3  0  0  0  0  0  0
  189.8030  177.9160  144.7940 C   0  0  0  0  0  2  0  0  0  0  0  0
  193.9460  175.6740  145.1110 C   0  0  0  0  0  2  0  0  0  0  0  0
  195.8640  172.4820  145.7630 C   0  0  0  0  0  2  0  0  0  0  0  0
  191.7260  176.0860  143.9550 C   0  0  1  0  0  3  0  0  0  0  0  0
  188.4390  175.0070  142.4190 C   0  0  0  0  0  2  0  0  0  0  0  0
  194.9080  173.3920  145.1470 N   0  0  0  0  0  0  0  0  0  0  0  0
  197.7860  173.7410  145.0830 O   0  0  0  0  0  0  0  0  0  0  0  0
  188.8580  177.0530  143.9630 C   0  0  1  0  0  0  0  0  0  0  0  0
  192.7340  173.7690  144.0530 C   0  0  0  0  0  0  0  0  0  0  0  0
  196.1450  175.2010  143.9390 C   0  0  2  0  0  3  0  0  0  0  0  0
  193.0160  175.2500  143.9710 C   0  0  2  0  0  3  0  0  0  0  0  0
  192.2540  171.0560  144.1030 C   0  0  0  0  0  3  0  0  0  0  0  0
  190.8860  178.5110  143.9060 C   0  0  0  0  0  2  0  0  0  0  0  0
  193.4210  171.5470  144.5930 N   0  0  0  0  0  0  0  0  0  0  0  0
  192.0690  177.5610  143.7200 C   0  0  0  0  0  2  0  0  0  0  0  0
  189.3610  176.1870  142.7580 C   0  0  1  0  0  3  0  0  0  0  0  0
  191.3210  171.9000  143.5890 N   0  0  0  0  0  0  0  0  0  0  0  0
  190.5380  174.1290  143.0390 N   0  0  0  0  0  0  0  0  0  0  0  0
  187.8320  176.4610  144.7250 O   0  0  0  0  0  0  0  0  0  0  0  0
  187.4760  177.6160  143.9880 C   0  0  2  0  0  3  0  0  0  0  0  0
  184.4270  177.9020  142.1860 C   0  0  0  0  0  2  0  0  0  0  0  0
  186.7300  178.2630  141.7090 C   0  0  0  0  0  2  0  0  0  0  0  0
  186.5900  177.2410  142.8090 C   0  0  2  0  0  3  0  0  0  0  0  0
  185.3730  178.2910  141.0720 C   0  0  0  0  0  2  0  0  0  0  0  0
  185.1910  177.2140  143.2220 N   0  0  0  0  0  2  0  0  0  0  0  0
  1 26  2  0  0  0  0
  1 18  1  0  0  0  0
  2 27  1  0  0  0  0
  3  7  1  6  0  0  0
  3 16  1  0  0  0  0
  4 23  1  0  0  0  0
  4 15  1  0  0  0  0
  5 11  1  6  0  0  0
  5 15  1  0  0  0  0
  7  6  1  0  0  0  0
  8 16  1  0  0  0  0
  8 12  1  0  0  0  0
  9 27  1  1  0  0  0
  9 13  1  0  0  0  0
 13 24  1  6  0  0  0
 13 20  1  0  0  0  0
 14  2  1  0  0  0  0
 15 12  1  0  0  0  0
 17 29  1  0  0  0  0
 17 28  1  0  0  0  0
 17 10  1  1  0  0  0
 18  4  2  0  0  0  0
 19  6  1  6  0  0  0
 19  3  1  0  0  0  0
 19  5  1  0  0  0  0
 20 18  1  0  0  0  0
 20 11  1  1  0  0  0
 21 23  2  0  0  0  0
 22 10  1  0  0  0  0
 24 22  1  0  0  0  0
 25 14  1  1  0  0  0
 25  9  1  0  0  0  0
 25 17  1  0  0  0  0
 26 21  1  0  0  0  0
 27  1  1  0  0  0  0
 29 28  1  1  0  0  0
 30 34  1  0  0  0  0
 32 31  1  6  0  0  0
 32 34  1  0  0  0  0
 32 29  1  0  0  0  0
 33 31  1  0  0  0  0
 33 30  1  0  0  0  0
M  END
>  <MODEL>
6

>  <REMARK>
 VINA RESULT:      -8.3      1.791      8.442
  Name = 
  1 active torsions:
  status: ('A' for Active; 'I' for Inactive)
    1  A    between atoms: C_29  and  C_32
                            x       y       z     vdW  Elec       q    Type
                         _______ _______ _______ _____ _____    ______ ____

>  <TORSDO>
F 1

$$$$
=
 OpenBabel11112417503D

 34 42  0  0  1  0  0  0  0  0999 V2000
  192.1280  175.9930  145.6030 C   0  0  0  0  0  0  0  0  0  0  0  0
  190.0420  177.3940  145.9170 C   0  0  0  0  0  2  0  0  0  0  0  0
  195.0540  170.7440  144.2640 C   0  0  2  0  0  3  0  0  0  0  0  0
  194.1420  174.8400  144.9580 C   0  0  0  0  0  0  0  0  0  0  0  0
  194.0820  172.9400  143.2780 C   0  0  1  0  0  3  0  0  0  0  0  0
  193.4610  171.6950  145.2930 O   0  0  0  0  0  0  0  0  0  0  0  0
  194.5660  170.9180  145.6930 C   0  0  0  0  0  2  0  0  0  0  0  0
  196.6650  172.3900  144.7980 C   0  0  0  0  0  2  0  0  0  0  0  0
  189.8630  175.3030  144.7060 C   0  0  2  0  0  3  0  0  0  0  0  0
  188.7210  175.7600  141.7610 C   0  0  0  0  0  2  0  0  0  0  0  0
  192.7790  173.5780  142.7920 C   0  0  0  0  0  2  0  0  0  0  0  0
  196.2760  173.7390  144.2210 C   0  0  0  0  0  2  0  0  0  0  0  0
  190.6270  174.7180  143.5020 C   0  0  1  0  0  3  0  0  0  0  0  0
  188.6010  177.2370  145.4710 C   0  0  0  0  0  2  0  0  0  0  0  0
  194.8240  173.8520  144.1610 N   0  0  0  0  0  0  0  0  0  0  0  0
  196.2910  171.3630  143.9090 O   0  0  0  0  0  0  0  0  0  0  0  0
  188.3010  176.5820  142.9760 C   0  0  1  0  0  0  0  0  0  0  0  0
  192.7520  174.9960  144.8440 C   0  0  0  0  0  0  0  0  0  0  0  0
  193.8230  171.5700  143.9370 C   0  0  2  0  0  3  0  0  0  0  0  0
  191.9370  174.0680  143.9730 C   0  0  2  0  0  3  0  0  0  0  0  0
  194.2170  176.6260  146.5130 C   0  0  0  0  0  3  0  0  0  0  0  0
  188.5560  174.2760  142.0490 C   0  0  0  0  0  2  0  0  0  0  0  0
  194.8410  175.6600  145.7890 N   0  0  0  0  0  0  0  0  0  0  0  0
  189.7780  173.6840  142.7530 C   0  0  0  0  0  2  0  0  0  0  0  0
  188.5660  176.0980  144.4420 C   0  0  1  0  0  3  0  0  0  0  0  0
  192.8720  176.7910  146.4140 N   0  0  0  0  0  0  0  0  0  0  0  0
  190.7160  176.1950  145.4740 N   0  0  0  0  0  0  0  0  0  0  0  0
  188.4360  177.9700  142.7810 O   0  0  0  0  0  0  0  0  0  0  0  0
  187.1290  177.4450  142.6460 C   0  0  2  0  0  3  0  0  0  0  0  0
  185.0180  179.8010  144.2630 C   0  0  0  0  0  2  0  0  0  0  0  0
  184.8170  177.5410  143.5470 C   0  0  0  0  0  2  0  0  0  0  0  0
  186.2640  177.8620  143.8250 C   0  0  2  0  0  3  0  0  0  0  0  0
  184.0660  178.6260  144.2600 C   0  0  0  0  0  2  0  0  0  0  0  0
  186.3710  179.3000  144.0420 N   0  0  0  0  0  2  0  0  0  0  0  0
  1 26  1  0  0  0  0
  3  7  1  1  0  0  0
  4 23  2  0  0  0  0
  5 11  1  1  0  0  0
  5 19  1  0  0  0  0
  5 15  1  0  0  0  0
  6  7  1  0  0  0  0
  9 27  1  6  0  0  0
 10 22  1  0  0  0  0
 12  8  1  0  0  0  0
 13 24  1  1  0  0  0
 13 20  1  0  0  0  0
 13  9  1  0  0  0  0
 14  2  1  0  0  0  0
 15 12  1  0  0  0  0
 15  4  1  0  0  0  0
 16  3  1  0  0  0  0
 16  8  1  0  0  0  0
 17 10  1  6  0  0  0
 17 25  1  0  0  0  0
 18  4  1  0  0  0  0
 18  1  2  0  0  0  0
 19  3  1  0  0  0  0
 19  6  1  1  0  0  0
 20 11  1  6  0  0  0
 20 18  1  0  0  0  0
 22 24  1  0  0  0  0
 23 21  1  0  0  0  0
 25  9  1  0  0  0  0
 25 14  1  1  0  0  0
 26 21  2  0  0  0  0
 27  1  1  0  0  0  0
 27  2  1  0  0  0  0
 28 17  1  0  0  0  0
 29 28  1  1  0  0  0
 29 17  1  0  0  0  0
 29 32  1  0  0  0  0
 31 33  1  0  0  0  0
 32 31  1  6  0  0  0
 32 34  1  0  0  0  0
 33 30  1  0  0  0  0
 34 30  1  0  0  0  0
M  END
>  <MODEL>
7

>  <REMARK>
 VINA RESULT:      -8.1      2.109      8.728
  Name = 
  1 active torsions:
  status: ('A' for Active; 'I' for Inactive)
    1  A    between atoms: C_29  and  C_32
                            x       y       z     vdW  Elec       q    Type
                         _______ _______ _______ _____ _____    ______ ____

>  <TORSDO>
F 1

$$$$
=
 OpenBabel11112417503D

 34 42  0  0  1  0  0  0  0  0999 V2000
  190.0040  176.9820  145.8790 C   0  0  0  0  0  0  0  0  0  0  0  0
  192.4470  176.3820  146.1730 C   0  0  0  0  0  2  0  0  0  0  0  0
  185.0490  178.2660  142.4590 C   0  0  2  0  0  3  0  0  0  0  0  0
  187.6120  177.1750  145.6720 C   0  0  0  0  0  0  0  0  0  0  0  0
  186.4090  176.3660  143.5910 C   0  0  1  0  0  3  0  0  0  0  0  0
  187.1210  178.5700  142.7950 O   0  0  0  0  0  0  0  0  0  0  0  0
  185.9950  179.4160  142.7630 C   0  0  0  0  0  2  0  0  0  0  0  0
  184.4420  178.3900  144.7400 C   0  0  0  0  0  2  0  0  0  0  0  0
  191.4240  176.0530  144.0000 C   0  0  2  0  0  3  0  0  0  0  0  0
  191.6490  173.0110  143.0600 C   0  0  0  0  0  2  0  0  0  0  0  0
  187.6270  175.4620  143.3900 C   0  0  0  0  0  2  0  0  0  0  0  0
  185.1060  177.2830  145.5400 C   0  0  0  0  0  2  0  0  0  0  0  0
  190.1550  175.3110  143.5390 C   0  0  1  0  0  3  0  0  0  0  0  0
  193.4970  175.7960  145.2490 C   0  0  0  0  0  2  0  0  0  0  0  0
  186.3920  176.9430  144.9430 N   0  0  0  0  0  0  0  0  0  0  0  0
  184.0950  177.9130  143.4610 O   0  0  0  0  0  0  0  0  0  0  0  0
  192.7130  173.7300  143.8840 C   0  0  1  0  0  0  0  0  0  0  0  0
  188.8420  176.7790  145.1250 C   0  0  0  0  0  0  0  0  0  0  0  0
  186.3270  177.4470  142.4930 C   0  0  2  0  0  3  0  0  0  0  0  0
  188.9210  176.2070  143.7290 C   0  0  2  0  0  3  0  0  0  0  0  0
  188.7190  177.9160  147.6310 C   0  0  0  0  0  3  0  0  0  0  0  0
  191.3220  173.8140  141.8100 C   0  0  0  0  0  2  0  0  0  0  0  0
  187.5810  177.7330  146.9130 N   0  0  0  0  0  0  0  0  0  0  0  0
  190.2630  174.8850  142.0710 C   0  0  0  0  0  2  0  0  0  0  0  0
  192.7670  175.2920  143.9950 C   0  0  1  0  0  3  0  0  0  0  0  0
  189.9190  177.5380  147.1170 N   0  0  0  0  0  0  0  0  0  0  0  0
  191.2660  176.5520  145.3570 N   0  0  0  0  0  0  0  0  0  0  0  0
  193.0580  173.0440  145.0650 O   0  0  0  0  0  0  0  0  0  0  0  0
  193.9520  172.9030  143.9760 C   0  0  2  0  0  3  0  0  0  0  0  0
  197.3390  173.0020  145.0420 C   0  0  0  0  0  2  0  0  0  0  0  0
  196.1610  173.5660  143.0540 C   0  0  0  0  0  2  0  0  0  0  0  0
  195.2390  173.6710  144.2430 C   0  0  2  0  0  3  0  0  0  0  0  0
  197.5310  173.5900  143.6620 C   0  0  0  0  0  2  0  0  0  0  0  0
  195.9280  173.1070  145.3980 N   0  0  0  0  0  2  0  0  0  0  0  0
  1 26  1  0  0  0  0
  3 19  1  0  0  0  0
  3  7  1  1  0  0  0
  3 16  1  0  0  0  0
  4 23  2  0  0  0  0
  5 11  1  6  0  0  0
  5 15  1  0  0  0  0
  7  6  1  0  0  0  0
  8 12  1  0  0  0  0
  9 27  1  1  0  0  0
 13 24  1  6  0  0  0
 13 20  1  0  0  0  0
 13  9  1  0  0  0  0
 14  2  1  0  0  0  0
 15 12  1  0  0  0  0
 15  4  1  0  0  0  0
 16  8  1  0  0  0  0
 17 10  1  6  0  0  0
 17 29  1  0  0  0  0
 17 25  1  0  0  0  0
 17 28  1  0  0  0  0
 18  4  1  0  0  0  0
 18  1  2  0  0  0  0
 19  6  1  1  0  0  0
 19  5  1  0  0  0  0
 20 11  1  1  0  0  0
 20 18  1  0  0  0  0
 22 24  1  0  0  0  0
 22 10  1  0  0  0  0
 23 21  1  0  0  0  0
 25  9  1  0  0  0  0
 25 14  1  1  0  0  0
 26 21  2  0  0  0  0
 27  1  1  0  0  0  0
 27  2  1  0  0  0  0
 29 32  1  0  0  0  0
 29 28  1  1  0  0  0
 30 34  1  0  0  0  0
 31 33  1  0  0  0  0
 32 31  1  6  0  0  0
 32 34  1  0  0  0  0
 33 30  1  0  0  0  0
M  END
>  <MODEL>
8

>  <REMARK>
 VINA RESULT:      -8.0      1.909      3.552
  Name = 
  1 active torsions:
  status: ('A' for Active; 'I' for Inactive)
    1  A    between atoms: C_29  and  C_32
                            x       y       z     vdW  Elec       q    Type
                         _______ _______ _______ _____ _____    ______ ____

>  <TORSDO>
F 1

$$$$
=
 OpenBabel11112417503D

 34 42  0  0  1  0  0  0  0  0999 V2000
  190.0540  173.7040  141.7840 C   0  0  0  0  0  0  0  0  0  0  0  0
  187.7460  174.5550  142.3860 C   0  0  0  0  0  2  0  0  0  0  0  0
  195.9090  174.5000  140.0570 C   0  0  2  0  0  3  0  0  0  0  0  0
  192.3010  172.8580  141.5960 C   0  0  0  0  0  0  0  0  0  0  0  0
  194.3020  174.3360  142.0900 C   0  0  1  0  0  3  0  0  0  0  0  0
  193.8730  175.0230  139.7790 O   0  0  0  0  0  0  0  0  0  0  0  0
  194.8650  174.4550  138.9540 C   0  0  0  0  0  2  0  0  0  0  0  0
  195.5030  172.1840  140.2980 C   0  0  0  0  0  2  0  0  0  0  0  0
  189.5960  176.1200  142.3880 C   0  0  2  0  0  3  0  0  0  0  0  0
  189.9420  177.5040  145.2430 C   0  0  0  0  0  2  0  0  0  0  0  0
  193.3270  175.1610  142.9330 C   0  0  0  0  0  2  0  0  0  0  0  0
  194.6240  171.9090  141.5060 C   0  0  0  0  0  2  0  0  0  0  0  0
  190.9790  176.1100  143.0680 C   0  0  1  0  0  3  0  0  0  0  0  0
  187.2080  175.9090  142.8060 C   0  0  0  0  0  2  0  0  0  0  0  0
  193.7250  173.0330  141.7300 N   0  0  0  0  0  0  0  0  0  0  0  0
  196.3760  173.2540  140.5760 O   0  0  0  0  0  0  0  0  0  0  0  0
  188.5960  177.1070  144.6460 C   0  0  1  0  0  0  0  0  0  0  0  0
  191.4330  173.9220  141.8840 C   0  0  0  0  0  0  0  0  0  0  0  0
  194.7780  175.1260  140.8530 C   0  0  2  0  0  3  0  0  0  0  0  0
  191.9730  175.2900  142.2310 C   0  0  2  0  0  3  0  0  0  0  0  0
  190.4410  171.4580  141.1530 C   0  0  0  0  0  3  0  0  0  0  0  0
  190.7170  178.3690  144.2610 C   0  0  0  0  0  2  0  0  0  0  0  0
  191.7830  171.6510  141.2390 N   0  0  0  0  0  0  0  0  0  0  0  0
  191.5150  177.5330  143.2590 C   0  0  0  0  0  2  0  0  0  0  0  0
  188.4190  176.8010  143.1190 C   0  0  1  0  0  3  0  0  0  0  0  0
  189.5870  172.4780  141.4280 N   0  0  0  0  0  0  0  0  0  0  0  0
  189.1490  174.7650  142.1090 N   0  0  0  0  0  0  0  0  0  0  0  0
  187.8260  176.2950  145.5010 O   0  0  0  0  0  0  0  0  0  0  0  0
  187.4750  177.6660  145.4580 C   0  0  2  0  0  3  0  0  0  0  0  0
  184.0670  178.6660  145.4110 C   0  0  0  0  0  2  0  0  0  0  0  0
  186.0380  179.2730  144.2250 C   0  0  0  0  0  2  0  0  0  0  0  0
  186.1570  177.8540  144.7230 C   0  0  2  0  0  3  0  0  0  0  0  0
  184.5670  179.5530  144.2930 C   0  0  0  0  0  2  0  0  0  0  0  0
  185.0400  177.5990  145.6240 N   0  0  0  0  0  2  0  0  0  0  0  0
  1 18  1  0  0  0  0
  1 27  1  0  0  0  0
  2 14  1  0  0  0  0
  3  7  1  6  0  0  0
  3 16  1  0  0  0  0
  3 19  1  0  0  0  0
  4 15  1  0  0  0  0
  4 18  2  0  0  0  0
  5 11  1  6  0  0  0
  7  6  1  0  0  0  0
  8 16  1  0  0  0  0
  8 12  1  0  0  0  0
  9 27  1  1  0  0  0
  9 13  1  0  0  0  0
  9 25  1  0  0  0  0
 12 15  1  0  0  0  0
 13 24  1  6  0  0  0
 15  5  1  0  0  0  0
 17 10  1  1  0  0  0
 17 29  1  0  0  0  0
 17 28  1  0  0  0  0
 18 20  1  0  0  0  0
 19  6  1  6  0  0  0
 19  5  1  0  0  0  0
 20 11  1  1  0  0  0
 20 13  1  0  0  0  0
 21 23  2  0  0  0  0
 21 26  1  0  0  0  0
 22 10  1  0  0  0  0
 23  4  1  0  0  0  0
 24 22  1  0  0  0  0
 25 14  1  1  0  0  0
 25 17  1  0  0  0  0
 26  1  2  0  0  0  0
 27  2  1  0  0  0  0
 29 28  1  1  0  0  0
 30 34  1  0  0  0  0
 31 33  1  0  0  0  0
 32 31  1  1  0  0  0
 32 29  1  0  0  0  0
 32 34  1  0  0  0  0
 33 30  1  0  0  0  0
M  END
>  <MODEL>
9

>  <REMARK>
 VINA RESULT:      -8.0      2.654      8.449
  Name = 
  1 active torsions:
  status: ('A' for Active; 'I' for Inactive)
    1  A    between atoms: C_29  and  C_32
                            x       y       z     vdW  Elec       q    Type
                         _______ _______ _______ _____ _____    ______ ____

>  <TORSDO>
F 1

$$$$
