=
 OpenBabel11112417403D

 28 32  0  0  1  0  0  0  0  0999 V2000
  190.5190  175.6400  145.0190 C   0  0  0  0  0  0  0  0  0  0  0  0
  185.6550  176.2150  145.8900 F   0  0  0  0  0  0  0  0  0  0  0  0
  187.8340  174.1470  140.4370 O   0  0  0  0  0  1  0  0  0  0  0  0
  191.3850  178.1580  144.1440 C   0  0  0  0  0  3  0  0  0  0  0  0
  187.5510  176.4020  141.0950 C   0  0  1  0  0  3  0  0  0  0  0  0
  190.0820  174.2700  145.4400 C   0  0  0  0  0  2  0  0  0  0  0  0
  187.0700  177.7690  146.9730 C   0  0  0  0  0  1  0  0  0  0  0  0
  186.2640  177.4500  145.7270 C   0  0  1  0  0  0  0  0  0  0  0  0
  184.5670  178.5530  144.3550 C   0  0  0  0  0  0  0  0  0  0  0  0
  187.1910  177.4320  144.4960 C   0  0  2  0  0  3  0  0  0  0  0  0
  191.4010  174.0990  142.4930 O   0  0  0  0  0  1  0  0  0  0  0  0
  187.6900  175.3500  143.2700 C   0  0  1  0  0  3  0  0  0  0  0  0
  184.9330  177.6520  143.2220 C   0  0  0  0  0  2  0  0  0  0  0  0
  185.2620  178.4480  145.5600 O   0  0  0  0  0  0  0  0  0  0  0  0
  190.5050  173.2170  143.1020 C   0  0  2  0  0  3  0  0  0  0  0  0
  189.5780  176.5730  144.5340 C   0  0  0  0  0  0  0  0  0  0  0  0
  188.4890  175.2180  141.0600 C   0  0  1  0  0  3  0  0  0  0  0  0
  183.6320  179.3840  144.2320 O   0  0  0  0  0  0  0  0  0  0  0  0
  189.0570  173.4880  142.6860 C   0  0  0  0  0  2  0  0  0  0  0  0
  190.0310  177.8240  144.0780 C   0  0  0  0  0  3  0  0  0  0  0  0
  191.8730  175.9890  145.0960 C   0  0  0  0  0  3  0  0  0  0  0  0
  192.3050  177.2440  144.6610 C   0  0  0  0  0  3  0  0  0  0  0  0
  190.7310  173.1510  144.6180 C   0  0  0  0  0  2  0  0  0  0  0  0
  186.7870  176.1990  142.3960 C   0  0  1  0  0  3  0  0  0  0  0  0
  188.8290  174.9170  142.4610 N   0  0  2  0  0  0  0  0  0  0  0  0
  186.4550  177.4840  143.1410 C   0  0  2  0  0  3  0  0  0  0  0  0
  188.3110  177.5760  141.1250 O   0  0  0  0  0  1  0  0  0  0  0  0
  188.1060  176.2110  144.4720 C   0  0  1  0  0  3  0  0  0  0  0  0
  1 21  1  0  0  0  0
  1  6  1  0  0  0  0
  3 17  1  0  0  0  0
  4 22  1  0  0  0  0
  5 27  1  1  0  0  0
  5 24  1  0  0  0  0
  8  2  1  0  0  0  0
  8  7  1  1  0  0  0
  9 14  1  0  0  0  0
 10  8  1  0  0  0  0
 11 15  1  0  0  0  0
 12 28  1  0  0  0  0
 13  9  1  0  0  0  0
 14  8  1  0  0  0  0
 15 23  1  0  0  0  0
 16  1  2  0  0  0  0
 17  5  1  0  0  0  0
 17 25  1  0  0  0  0
 18  9  2  0  0  0  0
 19 15  1  0  0  0  0
 20  4  2  0  0  0  0
 20 16  1  0  0  0  0
 22 21  2  0  0  0  0
 23  6  1  0  0  0  0
 24 26  1  0  0  0  0
 24 12  1  0  0  0  0
 25 19  1  0  0  0  0
 25 12  1  0  0  0  0
 26 13  1  0  0  0  0
 26 10  1  0  0  0  0
 28 10  1  0  0  0  0
 28 16  1  0  0  0  0
M  END
>  <MODEL>
1

>  <REMARK>
 VINA RESULT:      -8.6      0.000      0.000
  Name = 
  0 active torsions:
  status: ('A' for Active; 'I' for Inactive)
                            x       y       z     vdW  Elec       q    Type
                         _______ _______ _______ _____ _____    ______ ____

>  <TORSDO>
F 0

$$$$
=
 OpenBabel11112417403D

 28 32  0  0  1  0  0  0  0  0999 V2000
  189.0340  176.9560  144.6060 C   0  0  0  0  0  0  0  0  0  0  0  0
  193.7450  175.5220  143.8990 F   0  0  0  0  0  0  0  0  0  0  0  0
  188.9380  172.5520  141.2840 O   0  0  0  0  0  1  0  0  0  0  0  0
  188.2470  175.6640  146.9650 C   0  0  0  0  0  3  0  0  0  0  0  0
  189.8380  172.1830  143.4410 C   0  0  1  0  0  3  0  0  0  0  0  0
  189.4070  177.6260  143.3180 C   0  0  0  0  0  2  0  0  0  0  0  0
  193.2740  176.4450  146.0230 C   0  0  0  0  0  1  0  0  0  0  0  0
  193.3270  175.1870  145.1770 C   0  0  1  0  0  0  0  0  0  0  0  0
  194.3040  172.9510  145.3430 C   0  0  0  0  0  0  0  0  0  0  0  0
  191.9340  174.5310  145.1310 C   0  0  2  0  0  3  0  0  0  0  0  0
  186.8300  175.7390  142.8200 O   0  0  0  0  0  1  0  0  0  0  0  0
  190.6000  174.4470  143.0560 C   0  0  1  0  0  3  0  0  0  0  0  0
  193.3090  172.4690  144.3410 C   0  0  0  0  0  2  0  0  0  0  0  0
  194.2640  174.2830  145.7550 O   0  0  0  0  0  0  0  0  0  0  0  0
  187.7630  176.2070  141.8910 C   0  0  2  0  0  3  0  0  0  0  0  0
  189.7570  175.8330  145.0630 C   0  0  0  0  0  0  0  0  0  0  0  0
  188.8310  172.9570  142.6220 C   0  0  1  0  0  3  0  0  0  0  0  0
  195.1800  172.1720  145.7980 O   0  0  0  0  0  0  0  0  0  0  0  0
  188.8570  175.1750  141.6040 C   0  0  0  0  0  2  0  0  0  0  0  0
  189.3360  175.1830  146.2360 C   0  0  0  0  0  3  0  0  0  0  0  0
  187.9530  177.4410  145.3510 C   0  0  0  0  0  3  0  0  0  0  0  0
  187.5610  176.7990  146.5280 C   0  0  0  0  0  3  0  0  0  0  0  0
  188.2830  177.5970  142.2770 C   0  0  0  0  0  2  0  0  0  0  0  0
  191.0910  173.0430  143.3500 C   0  0  1  0  0  3  0  0  0  0  0  0
  189.1620  174.3810  142.7960 N   0  0  2  0  0  0  0  0  0  0  0  0
  191.9280  173.0740  144.6200 C   0  0  2  0  0  3  0  0  0  0  0  0
  189.3730  172.0920  144.7570 O   0  0  0  0  0  1  0  0  0  0  0  0
  190.9450  175.3180  144.2730 C   0  0  1  0  0  3  0  0  0  0  0  0
  1 16  2  0  0  0  0
  1 21  1  0  0  0  0
  2  8  1  0  0  0  0
  3 17  1  0  0  0  0
  5 27  1  1  0  0  0
  6  1  1  0  0  0  0
  8 14  1  0  0  0  0
  8  7  1  1  0  0  0
  9 14  1  0  0  0  0
  9 18  2  0  0  0  0
 10  8  1  0  0  0  0
 12 24  1  0  0  0  0
 12 28  1  0  0  0  0
 13 26  1  0  0  0  0
 13  9  1  0  0  0  0
 15 23  1  0  0  0  0
 15 11  1  0  0  0  0
 16 20  1  0  0  0  0
 17 25  1  0  0  0  0
 17  5  1  0  0  0  0
 19 15  1  0  0  0  0
 19 25  1  0  0  0  0
 20  4  2  0  0  0  0
 21 22  2  0  0  0  0
 22  4  1  0  0  0  0
 23  6  1  0  0  0  0
 24  5  1  0  0  0  0
 24 26  1  0  0  0  0
 25 12  1  0  0  0  0
 26 10  1  0  0  0  0
 28 16  1  0  0  0  0
 28 10  1  0  0  0  0
M  END
>  <MODEL>
2

>  <REMARK>
 VINA RESULT:      -8.3      2.647      6.188
  Name = 
  0 active torsions:
  status: ('A' for Active; 'I' for Inactive)
                            x       y       z     vdW  Elec       q    Type
                         _______ _______ _______ _____ _____    ______ ____

>  <TORSDO>
F 0

$$$$
=
 OpenBabel11112417403D

 28 32  0  0  1  0  0  0  0  0999 V2000
  191.2770  174.4530  143.0510 C   0  0  0  0  0  0  0  0  0  0  0  0
  187.8740  177.9960  143.8350 F   0  0  0  0  0  0  0  0  0  0  0  0
  192.8850  177.3350  147.4720 O   0  0  0  0  0  1  0  0  0  0  0  0
  190.2870  172.2080  144.4050 C   0  0  0  0  0  3  0  0  0  0  0  0
  190.8110  176.2130  147.6840 C   0  0  1  0  0  3  0  0  0  0  0  0
  191.8580  175.6460  142.3540 C   0  0  0  0  0  2  0  0  0  0  0  0
  187.0410  175.9670  142.9550 C   0  0  0  0  0  1  0  0  0  0  0  0
  187.3740  176.7580  144.2060 C   0  0  1  0  0  0  0  0  0  0  0  0
  186.2500  177.3890  146.2840 C   0  0  0  0  0  0  0  0  0  0  0  0
  188.4120  175.9910  145.0480 C   0  0  2  0  0  3  0  0  0  0  0  0
  193.9530  174.6010  144.5830 O   0  0  0  0  0  1  0  0  0  0  0  0
  190.7180  176.8160  145.3420 C   0  0  1  0  0  3  0  0  0  0  0  0
  187.5860  177.6060  146.9120 C   0  0  0  0  0  2  0  0  0  0  0  0
  186.1820  176.9420  144.9650 O   0  0  0  0  0  0  0  0  0  0  0  0
  193.8520  175.8700  144.0050 C   0  0  2  0  0  3  0  0  0  0  0  0
  190.3020  174.6170  144.0570 C   0  0  0  0  0  0  0  0  0  0  0  0
  192.1910  176.1860  147.0670 C   0  0  1  0  0  3  0  0  0  0  0  0
  185.1960  177.6230  146.9300 O   0  0  0  0  0  0  0  0  0  0  0  0
  193.0560  176.8400  144.8810 C   0  0  0  0  0  2  0  0  0  0  0  0
  189.8320  173.4830  144.7420 C   0  0  0  0  0  3  0  0  0  0  0  0
  191.7170  173.1690  142.7080 C   0  0  0  0  0  3  0  0  0  0  0  0
  191.2240  172.0490  143.3810 C   0  0  0  0  0  3  0  0  0  0  0  0
  193.3720  175.7810  142.5510 C   0  0  0  0  0  2  0  0  0  0  0  0
  189.9920  176.9880  146.6620 C   0  0  1  0  0  3  0  0  0  0  0  0
  191.9920  176.1460  145.6090 N   0  0  2  0  0  0  0  0  0  0  0  0
  188.5610  176.4970  146.4980 C   0  0  2  0  0  3  0  0  0  0  0  0
  190.3540  174.8980  147.8190 O   0  0  0  0  0  1  0  0  0  0  0  0
  189.8020  176.0040  144.4160 C   0  0  1  0  0  3  0  0  0  0  0  0
  1 16  1  0  0  0  0
  2  8  1  0  0  0  0
  4 20  1  0  0  0  0
  5 27  1  6  0  0  0
  6 23  1  0  0  0  0
  6  1  1  0  0  0  0
  8  7  1  6  0  0  0
  8 14  1  0  0  0  0
  8 10  1  0  0  0  0
  9 13  1  0  0  0  0
  9 18  2  0  0  0  0
 10 26  1  0  0  0  0
 12 25  1  0  0  0  0
 12 24  1  0  0  0  0
 14  9  1  0  0  0  0
 15 11  1  0  0  0  0
 15 19  1  0  0  0  0
 16 28  1  0  0  0  0
 16 20  2  0  0  0  0
 17  3  1  0  0  0  0
 17  5  1  0  0  0  0
 19 25  1  0  0  0  0
 21  1  2  0  0  0  0
 21 22  1  0  0  0  0
 22  4  2  0  0  0  0
 23 15  1  0  0  0  0
 24  5  1  0  0  0  0
 25 17  1  0  0  0  0
 26 24  1  0  0  0  0
 26 13  1  0  0  0  0
 28 10  1  0  0  0  0
 28 12  1  0  0  0  0
M  END
>  <MODEL>
3

>  <REMARK>
 VINA RESULT:      -8.2      2.489      4.710
  Name = 
  0 active torsions:
  status: ('A' for Active; 'I' for Inactive)
                            x       y       z     vdW  Elec       q    Type
                         _______ _______ _______ _____ _____    ______ ____

>  <TORSDO>
F 0

$$$$
=
 OpenBabel11112417403D

 28 32  0  0  1  0  0  0  0  0999 V2000
  189.6460  176.8290  145.2190 C   0  0  0  0  0  0  0  0  0  0  0  0
  194.5910  176.6830  144.6900 F   0  0  0  0  0  0  0  0  0  0  0  0
  190.7730  173.1850  141.2320 O   0  0  0  0  0  1  0  0  0  0  0  0
  189.0980  174.9930  147.2630 C   0  0  0  0  0  3  0  0  0  0  0  0
  191.6420  172.6590  143.3700 C   0  0  1  0  0  3  0  0  0  0  0  0
  189.8990  177.7850  144.0920 C   0  0  0  0  0  2  0  0  0  0  0  0
  193.8170  177.0800  146.8880 C   0  0  0  0  0  1  0  0  0  0  0  0
  194.2120  176.0390  145.8580 C   0  0  1  0  0  0  0  0  0  0  0  0
  195.6980  174.1000  145.7420 C   0  0  0  0  0  0  0  0  0  0  0  0
  193.0250  175.0940  145.5880 C   0  0  2  0  0  3  0  0  0  0  0  0
  187.8850  175.4670  143.0790 O   0  0  0  0  0  1  0  0  0  0  0  0
  191.8430  175.0700  143.4220 C   0  0  1  0  0  3  0  0  0  0  0  0
  194.8960  173.5840  144.5940 C   0  0  0  0  0  2  0  0  0  0  0  0
  195.3160  175.2910  146.3590 O   0  0  0  0  0  0  0  0  0  0  0  0
  188.7150  176.2970  142.3210 C   0  0  2  0  0  3  0  0  0  0  0  0
  190.6010  175.8430  145.5480 C   0  0  0  0  0  0  0  0  0  0  0  0
  190.5130  173.3100  142.6040 C   0  0  1  0  0  3  0  0  0  0  0  0
  196.7180  173.4780  146.1380 O   0  0  0  0  0  0  0  0  0  0  0  0
  190.0390  175.6160  141.9650 C   0  0  0  0  0  2  0  0  0  0  0  0
  190.3010  174.9160  146.5600 C   0  0  0  0  0  3  0  0  0  0  0  0
  188.4480  176.9090  145.9390 C   0  0  0  0  0  3  0  0  0  0  0  0
  188.1740  175.9950  146.9580 C   0  0  0  0  0  3  0  0  0  0  0  0
  188.8620  177.6790  142.9690 C   0  0  0  0  0  2  0  0  0  0  0  0
  192.6490  173.7900  143.5250 C   0  0  1  0  0  3  0  0  0  0  0  0
  190.4780  174.7180  143.0340 N   0  0  2  0  0  0  0  0  0  0  0  0
  193.3980  173.7910  144.8500 C   0  0  2  0  0  3  0  0  0  0  0  0
  191.1560  172.2310  144.6100 O   0  0  0  0  0  1  0  0  0  0  0  0
  191.9120  175.7680  144.7880 C   0  0  1  0  0  3  0  0  0  0  0  0
  1 16  2  0  0  0  0
  1 21  1  0  0  0  0
  2  8  1  0  0  0  0
  3 17  1  0  0  0  0
  5 24  1  0  0  0  0
  5 27  1  1  0  0  0
  6  1  1  0  0  0  0
  8 14  1  0  0  0  0
  8  7  1  1  0  0  0
  9 18  2  0  0  0  0
  9 14  1  0  0  0  0
 10  8  1  0  0  0  0
 12 24  1  0  0  0  0
 12 28  1  0  0  0  0
 13 26  1  0  0  0  0
 13  9  1  0  0  0  0
 15 23  1  0  0  0  0
 15 11  1  0  0  0  0
 16 20  1  0  0  0  0
 17 25  1  0  0  0  0
 17  5  1  0  0  0  0
 19 15  1  0  0  0  0
 19 25  1  0  0  0  0
 20  4  2  0  0  0  0
 21 22  2  0  0  0  0
 22  4  1  0  0  0  0
 23  6  1  0  0  0  0
 24 26  1  0  0  0  0
 25 12  1  0  0  0  0
 26 10  1  0  0  0  0
 28 16  1  0  0  0  0
 28 10  1  0  0  0  0
M  END
>  <MODEL>
4

>  <REMARK>
 VINA RESULT:      -8.2      3.096      6.604
  Name = 
  0 active torsions:
  status: ('A' for Active; 'I' for Inactive)
                            x       y       z     vdW  Elec       q    Type
                         _______ _______ _______ _____ _____    ______ ____

>  <TORSDO>
F 0

$$$$
=
 OpenBabel11112417403D

 28 32  0  0  1  0  0  0  0  0999 V2000
  191.6150  174.1180  143.5720 C   0  0  0  0  0  0  0  0  0  0  0  0
  188.5220  177.6920  142.0170 F   0  0  0  0  0  0  0  0  0  0  0  0
  190.8970  177.6220  147.7730 O   0  0  0  0  0  1  0  0  0  0  0  0
  189.9320  172.0760  144.4930 C   0  0  0  0  0  3  0  0  0  0  0  0
  188.9440  176.5140  147.0230 C   0  0  1  0  0  3  0  0  0  0  0  0
  192.5440  175.2070  143.1290 C   0  0  0  0  0  2  0  0  0  0  0  0
  188.1350  175.5470  141.1030 C   0  0  0  0  0  1  0  0  0  0  0  0
  187.8260  176.5120  142.2320 C   0  0  1  0  0  0  0  0  0  0  0  0
  185.8350  177.4180  143.3260 C   0  0  0  0  0  0  0  0  0  0  0  0
  188.2330  175.8870  143.5800 C   0  0  2  0  0  3  0  0  0  0  0  0
  193.1250  174.5190  146.2340 O   0  0  0  0  0  1  0  0  0  0  0  0
  190.1060  176.7760  144.9170 C   0  0  1  0  0  3  0  0  0  0  0  0
  186.6690  177.7400  144.5210 C   0  0  0  0  0  2  0  0  0  0  0  0
  186.4280  176.7870  142.2330 O   0  0  0  0  0  0  0  0  0  0  0  0
  193.4160  175.6900  145.5290 C   0  0  2  0  0  3  0  0  0  0  0  0
  190.2730  174.4110  143.8970 C   0  0  0  0  0  0  0  0  0  0  0  0
  190.4400  176.4180  147.2190 C   0  0  1  0  0  3  0  0  0  0  0  0
  184.6170  177.7280  143.2960 O   0  0  0  0  0  0  0  0  0  0  0  0
  192.3450  176.7650  145.7340 C   0  0  0  0  0  2  0  0  0  0  0  0
  189.4480  173.3810  144.3790 C   0  0  0  0  0  3  0  0  0  0  0  0
  192.0870  172.8040  143.6750 C   0  0  0  0  0  3  0  0  0  0  0  0
  191.2490  171.7860  144.1330 C   0  0  0  0  0  3  0  0  0  0  0  0
  193.7460  175.3890  144.0630 C   0  0  0  0  0  2  0  0  0  0  0  0
  188.8170  177.1240  145.6340 C   0  0  1  0  0  3  0  0  0  0  0  0
  191.0170  176.1680  145.8870 N   0  0  2  0  0  0  0  0  0  0  0  0
  187.6460  176.5960  144.8180 C   0  0  2  0  0  3  0  0  0  0  0  0
  188.4010  175.2260  147.0700 O   0  0  0  0  0  1  0  0  0  0  0  0
  189.7480  175.8280  143.7630 C   0  0  1  0  0  3  0  0  0  0  0  0
  1 21  2  0  0  0  0
  1 16  1  0  0  0  0
  2  8  1  0  0  0  0
  5 27  1  6  0  0  0
  5 17  1  0  0  0  0
  6  1  1  0  0  0  0
  6 23  1  0  0  0  0
  8  7  1  6  0  0  0
  8 14  1  0  0  0  0
  8 10  1  0  0  0  0
  9 13  1  0  0  0  0
 10 28  1  0  0  0  0
 10 26  1  0  0  0  0
 12 24  1  0  0  0  0
 12 25  1  0  0  0  0
 13 26  1  0  0  0  0
 14  9  1  0  0  0  0
 15 19  1  0  0  0  0
 15 11  1  0  0  0  0
 16 20  2  0  0  0  0
 17  3  1  0  0  0  0
 18  9  2  0  0  0  0
 19 25  1  0  0  0  0
 20  4  1  0  0  0  0
 21 22  1  0  0  0  0
 22  4  2  0  0  0  0
 23 15  1  0  0  0  0
 24  5  1  0  0  0  0
 25 17  1  0  0  0  0
 26 24  1  0  0  0  0
 28 16  1  0  0  0  0
 28 12  1  0  0  0  0
M  END
>  <MODEL>
5

>  <REMARK>
 VINA RESULT:      -7.9      2.500      4.521
  Name = 
  0 active torsions:
  status: ('A' for Active; 'I' for Inactive)
                            x       y       z     vdW  Elec       q    Type
                         _______ _______ _______ _____ _____    ______ ____

>  <TORSDO>
F 0

$$$$
=
 OpenBabel11112417403D

 28 32  0  0  1  0  0  0  0  0999 V2000
  188.7970  175.4840  145.9080 C   0  0  0  0  0  0  0  0  0  0  0  0
  190.4020  172.0670  142.6690 F   0  0  0  0  0  0  0  0  0  0  0  0
  194.2060  176.2990  145.1950 O   0  0  0  0  0  1  0  0  0  0  0  0
  187.8840  177.5990  144.3130 C   0  0  0  0  0  3  0  0  0  0  0  0
  192.8720  176.5590  143.2580 C   0  0  1  0  0  3  0  0  0  0  0  0
  189.3160  174.3910  146.7930 C   0  0  0  0  0  2  0  0  0  0  0  0
  188.1930  172.8330  142.3230 C   0  0  0  0  0  1  0  0  0  0  0  0
  189.6630  173.0410  142.0150 C   0  0  1  0  0  0  0  0  0  0  0  0
  191.0580  173.3300  140.0270 C   0  0  0  0  0  0  0  0  0  0  0  0
  190.1010  174.4450  142.4760 C   0  0  2  0  0  3  0  0  0  0  0  0
  190.8810  177.1360  147.4760 O   0  0  0  0  0  1  0  0  0  0  0  0
  191.6650  174.7710  144.3560 C   0  0  1  0  0  3  0  0  0  0  0  0
  192.1000  173.9710  140.8820 C   0  0  0  0  0  2  0  0  0  0  0  0
  189.8610  172.9140  140.6100 O   0  0  0  0  0  0  0  0  0  0  0  0
  191.2840  175.8190  147.7110 C   0  0  2  0  0  3  0  0  0  0  0  0
  189.2250  175.5840  144.5680 C   0  0  0  0  0  0  0  0  0  0  0  0
  192.9380  176.7090  144.7600 C   0  0  1  0  0  3  0  0  0  0  0  0
  191.2630  173.1500  138.7990 O   0  0  0  0  0  0  0  0  0  0  0  0
  192.2140  175.2960  146.6140 C   0  0  0  0  0  2  0  0  0  0  0  0
  188.7760  176.6630  143.7880 C   0  0  0  0  0  3  0  0  0  0  0  0
  187.8900  176.4190  146.4240 C   0  0  0  0  0  3  0  0  0  0  0  0
  187.4340  177.4730  145.6290 C   0  0  0  0  0  3  0  0  0  0  0  0
  190.0820  174.9160  148.0130 C   0  0  0  0  0  2  0  0  0  0  0  0
  192.3970  175.1240  143.0760 C   0  0  1  0  0  3  0  0  0  0  0  0
  191.8660  175.8620  145.3100 N   0  0  2  0  0  0  0  0  0  0  0  0
  191.4530  174.9160  141.9010 C   0  0  2  0  0  3  0  0  0  0  0  0
  191.9410  177.4740  142.7560 O   0  0  0  0  0  1  0  0  0  0  0  0
  190.1870  174.5590  143.9960 C   0  0  1  0  0  3  0  0  0  0  0  0
  1 21  1  0  0  0  0
  1  6  1  0  0  0  0
  4 22  1  0  0  0  0
  5 27  1  1  0  0  0
  5 17  1  0  0  0  0
  6 23  1  0  0  0  0
  8  7  1  1  0  0  0
  8 10  1  0  0  0  0
  8  2  1  0  0  0  0
  9 14  1  0  0  0  0
  9 13  1  0  0  0  0
 10 28  1  0  0  0  0
 11 15  1  0  0  0  0
 12 25  1  0  0  0  0
 13 26  1  0  0  0  0
 14  8  1  0  0  0  0
 15 23  1  0  0  0  0
 16  1  2  0  0  0  0
 17  3  1  0  0  0  0
 17 25  1  0  0  0  0
 18  9  2  0  0  0  0
 19 15  1  0  0  0  0
 20  4  2  0  0  0  0
 20 16  1  0  0  0  0
 22 21  2  0  0  0  0
 24  5  1  0  0  0  0
 24 12  1  0  0  0  0
 25 19  1  0  0  0  0
 26 10  1  0  0  0  0
 26 24  1  0  0  0  0
 28 12  1  0  0  0  0
 28 16  1  0  0  0  0
M  END
>  <MODEL>
6

>  <REMARK>
 VINA RESULT:      -7.6      3.140      5.851
  Name = 
  0 active torsions:
  status: ('A' for Active; 'I' for Inactive)
                            x       y       z     vdW  Elec       q    Type
                         _______ _______ _______ _____ _____    ______ ____

>  <TORSDO>
F 0

$$$$
=
 OpenBabel11112417403D

 28 32  0  0  1  0  0  0  0  0999 V2000
  190.6700  173.9960  144.3240 C   0  0  0  0  0  0  0  0  0  0  0  0
  194.1760  171.1330  146.3870 F   0  0  0  0  0  0  0  0  0  0  0  0
  194.1960  177.3340  146.9430 O   0  0  0  0  0  1  0  0  0  0  0  0
  191.5800  174.4610  141.7150 C   0  0  0  0  0  3  0  0  0  0  0  0
  195.1200  176.0590  145.1760 C   0  0  1  0  0  3  0  0  0  0  0  0
  190.1750  173.8050  145.7260 C   0  0  0  0  0  2  0  0  0  0  0  0
  193.3020  170.3460  144.3370 C   0  0  0  0  0  1  0  0  0  0  0  0
  194.3570  171.2010  145.0140 C   0  0  1  0  0  0  0  0  0  0  0  0
  196.7890  171.4420  144.9440 C   0  0  0  0  0  0  0  0  0  0  0  0
  194.2380  172.6590  144.5300 C   0  0  2  0  0  3  0  0  0  0  0  0
  190.5100  176.9680  145.1450 O   0  0  0  0  0  1  0  0  0  0  0  0
  193.5010  174.4750  146.0280 C   0  0  1  0  0  3  0  0  0  0  0  0
  196.6440  172.8170  145.5060 C   0  0  0  0  0  2  0  0  0  0  0  0
  195.6450  170.6880  144.6850 O   0  0  0  0  0  0  0  0  0  0  0  0
  190.4930  176.3020  146.3730 C   0  0  2  0  0  3  0  0  0  0  0  0
  192.0330  173.8040  144.0140 C   0  0  0  0  0  0  0  0  0  0  0  0
  193.8930  176.7720  145.6950 C   0  0  1  0  0  3  0  0  0  0  0  0
  197.9300  170.9600  144.7230 O   0  0  0  0  0  0  0  0  0  0  0  0
  191.9050  176.0180  146.8930 C   0  0  0  0  0  2  0  0  0  0  0  0
  192.4780  174.0630  142.7060 C   0  0  0  0  0  3  0  0  0  0  0  0
  189.7740  174.3810  143.3200 C   0  0  0  0  0  3  0  0  0  0  0  0
  190.2260  174.6110  142.0190 C   0  0  0  0  0  3  0  0  0  0  0  0
  189.5710  175.0780  146.3290 C   0  0  0  0  0  2  0  0  0  0  0  0
  194.9830  174.6620  145.7660 C   0  0  1  0  0  3  0  0  0  0  0  0
  192.8330  175.7550  145.7910 N   0  0  2  0  0  0  0  0  0  0  0  0
  195.4610  173.5420  144.8530 C   0  0  2  0  0  3  0  0  0  0  0  0
  195.0680  176.0340  143.7790 O   0  0  0  0  0  1  0  0  0  0  0  0
  193.0060  173.3630  145.0920 C   0  0  1  0  0  3  0  0  0  0  0  0
  1  6  1  0  0  0  0
  4 22  2  0  0  0  0
  4 20  1  0  0  0  0
  5 27  1  6  0  0  0
  5 17  1  0  0  0  0
  5 24  1  0  0  0  0
  6 23  1  0  0  0  0
  8  7  1  6  0  0  0
  8  2  1  0  0  0  0
  9 13  1  0  0  0  0
 10 26  1  0  0  0  0
 10  8  1  0  0  0  0
 10 28  1  0  0  0  0
 11 15  1  0  0  0  0
 14  9  1  0  0  0  0
 14  8  1  0  0  0  0
 15 19  1  0  0  0  0
 16  1  1  0  0  0  0
 16 28  1  0  0  0  0
 17 25  1  0  0  0  0
 17  3  1  0  0  0  0
 18  9  2  0  0  0  0
 20 16  2  0  0  0  0
 21  1  2  0  0  0  0
 22 21  1  0  0  0  0
 23 15  1  0  0  0  0
 24 12  1  0  0  0  0
 25 12  1  0  0  0  0
 25 19  1  0  0  0  0
 26 13  1  0  0  0  0
 26 24  1  0  0  0  0
 28 12  1  0  0  0  0
M  END
>  <MODEL>
7

>  <REMARK>
 VINA RESULT:      -7.3      4.236      8.258
  Name = 
  0 active torsions:
  status: ('A' for Active; 'I' for Inactive)
                            x       y       z     vdW  Elec       q    Type
                         _______ _______ _______ _____ _____    ______ ____

>  <TORSDO>
F 0

$$$$
=
 OpenBabel11112417403D

 28 32  0  0  1  0  0  0  0  0999 V2000
  190.4630  177.1280  145.0690 C   0  0  0  0  0  0  0  0  0  0  0  0
  195.0390  176.5080  143.2180 F   0  0  0  0  0  0  0  0  0  0  0  0
  190.2140  173.0170  141.3990 O   0  0  0  0  0  1  0  0  0  0  0  0
  190.4200  175.5620  147.3920 C   0  0  0  0  0  3  0  0  0  0  0  0
  191.6260  172.6380  143.2600 C   0  0  1  0  0  3  0  0  0  0  0  0
  190.4360  177.9400  143.8100 C   0  0  0  0  0  2  0  0  0  0  0  0
  194.9430  177.1890  145.4790 C   0  0  0  0  0  1  0  0  0  0  0  0
  194.9730  176.0200  144.5140 C   0  0  1  0  0  0  0  0  0  0  0  0
  196.2590  173.9590  144.2280 C   0  0  0  0  0  0  0  0  0  0  0  0
  193.7100  175.1570  144.6990 C   0  0  2  0  0  3  0  0  0  0  0  0
  188.0970  175.7130  143.6800 O   0  0  0  0  0  1  0  0  0  0  0  0
  191.9620  175.0160  142.9630 C   0  0  1  0  0  3  0  0  0  0  0  0
  195.1380  173.4010  143.4180 C   0  0  0  0  0  2  0  0  0  0  0  0
  196.1330  175.2350  144.7770 O   0  0  0  0  0  0  0  0  0  0  0  0
  188.7200  176.3870  142.6270 C   0  0  2  0  0  3  0  0  0  0  0  0
  191.4180  176.1030  145.2390 C   0  0  0  0  0  0  0  0  0  0  0  0
  190.3620  173.3010  142.7640 C   0  0  1  0  0  3  0  0  0  0  0  0
  197.3150  173.2960  144.3990 O   0  0  0  0  0  0  0  0  0  0  0  0
  189.8500  175.5640  142.0050 C   0  0  0  0  0  2  0  0  0  0  0  0
  191.3690  175.3120  146.3990 C   0  0  0  0  0  3  0  0  0  0  0  0
  189.5250  177.3820  146.0770 C   0  0  0  0  0  3  0  0  0  0  0  0
  189.5030  176.6030  147.2350 C   0  0  0  0  0  3  0  0  0  0  0  0
  189.1190  177.8100  143.0370 C   0  0  0  0  0  2  0  0  0  0  0  0
  192.6940  173.6890  142.9940 C   0  0  1  0  0  3  0  0  0  0  0  0
  190.5250  174.7430  143.0120 N   0  0  2  0  0  0  0  0  0  0  0  0
  193.7880  173.7590  144.0500 C   0  0  2  0  0  3  0  0  0  0  0  0
  191.4900  172.3800  144.6290 O   0  0  0  0  0  1  0  0  0  0  0  0
  192.4530  175.8390  144.1620 C   0  0  1  0  0  3  0  0  0  0  0  0
  1 16  2  0  0  0  0
  1 21  1  0  0  0  0
  2  8  1  0  0  0  0
  3 17  1  0  0  0  0
  5 27  1  1  0  0  0
  6  1  1  0  0  0  0
  8 10  1  0  0  0  0
  8 14  1  0  0  0  0
  8  7  1  1  0  0  0
  9 18  2  0  0  0  0
  9 14  1  0  0  0  0
 12 24  1  0  0  0  0
 12 25  1  0  0  0  0
 12 28  1  0  0  0  0
 13 26  1  0  0  0  0
 13  9  1  0  0  0  0
 15 23  1  0  0  0  0
 15 11  1  0  0  0  0
 16 20  1  0  0  0  0
 17 25  1  0  0  0  0
 17  5  1  0  0  0  0
 19 15  1  0  0  0  0
 19 25  1  0  0  0  0
 20  4  2  0  0  0  0
 21 22  2  0  0  0  0
 22  4  1  0  0  0  0
 23  6  1  0  0  0  0
 24  5  1  0  0  0  0
 24 26  1  0  0  0  0
 26 10  1  0  0  0  0
 28 10  1  0  0  0  0
 28 16  1  0  0  0  0
M  END
>  <MODEL>
8

>  <REMARK>
 VINA RESULT:      -7.2      3.290      6.846
  Name = 
  0 active torsions:
  status: ('A' for Active; 'I' for Inactive)
                            x       y       z     vdW  Elec       q    Type
                         _______ _______ _______ _____ _____    ______ ____

>  <TORSDO>
F 0

$$$$
=
 OpenBabel11112417403D

 28 32  0  0  1  0  0  0  0  0999 V2000
  186.6130  176.7710  143.6560 C   0  0  0  0  0  0  0  0  0  0  0  0
  188.9200  172.3640  143.5960 F   0  0  0  0  0  0  0  0  0  0  0  0
  190.4410  176.8580  147.6280 O   0  0  0  0  0  1  0  0  0  0  0  0
  187.9920  178.3190  141.7710 C   0  0  0  0  0  3  0  0  0  0  0  0
  191.2630  176.5820  145.4250 C   0  0  1  0  0  3  0  0  0  0  0  0
  185.8810  175.9870  144.7030 C   0  0  0  0  0  2  0  0  0  0  0  0
  188.1910  173.1560  141.4910 C   0  0  0  0  0  1  0  0  0  0  0  0
  189.3150  173.1300  142.5100 C   0  0  1  0  0  0  0  0  0  0  0  0
  191.7110  172.6380  142.5270 C   0  0  0  0  0  0  0  0  0  0  0  0
  189.6480  174.5660  142.9580 C   0  0  2  0  0  3  0  0  0  0  0  0
  187.0970  178.6660  146.0460 O   0  0  0  0  0  1  0  0  0  0  0  0
  189.1840  175.3560  145.2490 C   0  0  1  0  0  3  0  0  0  0  0  0
  191.8400  173.4340  143.7830 C   0  0  0  0  0  2  0  0  0  0  0  0
  190.4640  172.5360  141.9110 O   0  0  0  0  0  0  0  0  0  0  0  0
  186.7260  177.4680  146.6640 C   0  0  2  0  0  3  0  0  0  0  0  0
  187.9120  176.3930  143.2570 C   0  0  0  0  0  0  0  0  0  0  0  0
  190.1950  177.2070  146.2930 C   0  0  1  0  0  3  0  0  0  0  0  0
  192.7100  172.0510  142.0390 O   0  0  0  0  0  0  0  0  0  0  0  0
  187.9240  176.5420  146.8880 C   0  0  0  0  0  2  0  0  0  0  0  0
  188.6000  177.1920  142.3270 C   0  0  0  0  0  3  0  0  0  0  0  0
  186.0050  177.8950  143.0820 C   0  0  0  0  0  3  0  0  0  0  0  0
  186.6910  178.6660  142.1410 C   0  0  0  0  0  3  0  0  0  0  0  0
  185.5390  176.8160  145.9460 C   0  0  0  0  0  2  0  0  0  0  0  0
  190.6860  175.2100  145.1040 C   0  0  1  0  0  3  0  0  0  0  0  0
  188.9080  176.6780  145.8120 N   0  0  2  0  0  0  0  0  0  0  0  0
  190.9930  174.7100  143.7000 C   0  0  2  0  0  3  0  0  0  0  0  0
  191.4160  177.3570  144.2720 O   0  0  0  0  0  1  0  0  0  0  0  0
  188.5670  175.1620  143.8560 C   0  0  1  0  0  3  0  0  0  0  0  0
  1  6  1  0  0  0  0
  4 22  2  0  0  0  0
  4 20  1  0  0  0  0
  5 27  1  6  0  0  0
  5 17  1  0  0  0  0
  6 23  1  0  0  0  0
  8  7  1  6  0  0  0
  8 10  1  0  0  0  0
  8  2  1  0  0  0  0
  9 13  1  0  0  0  0
 10 26  1  0  0  0  0
 10 28  1  0  0  0  0
 11 15  1  0  0  0  0
 12 25  1  0  0  0  0
 14  8  1  0  0  0  0
 14  9  1  0  0  0  0
 15 19  1  0  0  0  0
 16  1  1  0  0  0  0
 16 28  1  0  0  0  0
 17  3  1  0  0  0  0
 18  9  2  0  0  0  0
 20 16  2  0  0  0  0
 21  1  2  0  0  0  0
 22 21  1  0  0  0  0
 23 15  1  0  0  0  0
 24 12  1  0  0  0  0
 24  5  1  0  0  0  0
 25 17  1  0  0  0  0
 25 19  1  0  0  0  0
 26 13  1  0  0  0  0
 26 24  1  0  0  0  0
 28 12  1  0  0  0  0
M  END
>  <MODEL>
9

>  <REMARK>
 VINA RESULT:      -7.2      2.269      6.131
  Name = 
  0 active torsions:
  status: ('A' for Active; 'I' for Inactive)
                            x       y       z     vdW  Elec       q    Type
                         _______ _______ _______ _____ _____    ______ ____

>  <TORSDO>
F 0

$$$$
