=
 OpenBabel11112417473D

 34 40  0  0  1  0  0  0  0  0999 V2000
  190.9890  175.3000  146.2540 C   0  0  2  0  0  3  0  0  0  0  0  0
  193.4090  174.8260  146.6770 C   0  0  0  0  0  2  0  0  0  0  0  0
  186.2900  178.4800  142.3980 C   0  0  0  0  0  0  0  0  0  0  0  0
  188.6610  176.1740  145.5460 C   0  0  0  0  0  0  0  0  0  0  0  0
  188.4430  177.3130  143.3540 C   0  0  0  0  0  0  0  0  0  0  0  0
  188.1850  177.9880  141.1090 O   0  0  0  0  0  0  0  0  0  0  0  0
  185.5190  178.4210  141.4030 O   0  0  0  0  0  0  0  0  0  0  0  0
  186.3100  178.7200  144.9540 C   0  0  0  0  0  2  0  0  0  0  0  0
  192.9180  176.5070  144.9830 C   0  0  2  0  0  3  0  0  0  0  0  0
  194.7380  176.3220  142.3940 C   0  0  0  0  0  2  0  0  0  0  0  0
  189.7080  177.0750  143.1370 N   0  0  0  0  0  0  0  0  0  0  0  0
  186.4720  177.2170  144.9590 C   0  0  0  0  0  2  0  0  0  0  0  0
  192.0300  176.1920  143.7600 C   0  0  1  0  0  3  0  0  0  0  0  0
  194.7310  175.2970  146.1130 C   0  0  0  0  0  2  0  0  0  0  0  0
  187.8480  176.8930  144.6060 N   0  0  0  0  0  0  0  0  0  0  0  0
  185.7900  179.2150  143.6130 C   0  0  0  0  0  2  0  0  0  0  0  0
  194.8150  175.3750  143.5860 C   0  0  2  0  0  3  0  0  0  0  0  0
  190.0980  176.0080  145.2600 C   0  0  0  0  0  0  0  0  0  0  0  0
  187.6620  177.9420  142.2550 C   0  0  0  0  0  0  0  0  0  0  0  0
  190.5810  176.4420  144.0910 C   0  0  0  0  0  0  0  0  0  0  0  0
  188.9210  174.8940  147.5980 C   0  0  0  0  0  2  0  0  0  0  0  0
  193.4280  176.2360  141.7630 N   0  0  0  0  0  2  0  0  0  0  0  0
  188.1510  175.6990  146.6470 N   0  0  0  0  0  0  0  0  0  0  0  0
  192.4820  177.0090  142.5550 C   0  0  0  0  0  2  0  0  0  0  0  0
  194.4080  176.1170  144.8710 C   0  0  1  0  0  3  0  0  0  0  0  0
  190.3750  175.3550  147.6520 C   0  0  0  0  0  2  0  0  0  0  0  0
  192.4080  175.8900  146.2960 C   0  0  1  0  0  3  0  0  0  0  0  0
  196.1260  174.9020  143.6950 O   0  0  0  0  0  0  0  0  0  0  0  0
  196.1070  173.6490  143.0770 C   0  0  0  0  0  2  0  0  0  0  0  0
  197.1270  172.8830  146.1080 N   0  0  0  0  0  2  0  0  0  0  0  0
  196.3180  171.6490  144.2700 C   0  0  0  0  0  2  0  0  0  0  0  0
  197.0650  172.7680  143.7240 N   0  0  0  0  0  0  0  0  0  0  0  0
  196.6730  171.5630  145.7270 C   0  0  0  0  0  2  0  0  0  0  0  0
  197.6020  173.4920  144.8710 C   0  0  0  0  0  2  0  0  0  0  0  0
  1 27  1  0  0  0  0
  1 26  1  1  0  0  0
  3 16  1  0  0  0  0
  4 23  2  0  0  0  0
  5 15  1  0  0  0  0
  6 19  2  0  0  0  0
  7  3  2  0  0  0  0
  8 12  1  0  0  0  0
  9 27  1  0  0  0  0
 10 17  1  0  0  0  0
 11  5  2  0  0  0  0
 11 20  1  0  0  0  0
 13 20  1  0  0  0  0
 13  9  1  0  0  0  0
 14  2  1  0  0  0  0
 15 12  1  0  0  0  0
 15  4  1  0  0  0  0
 16  8  1  0  0  0  0
 17 28  1  0  0  0  0
 17 25  1  0  0  0  0
 18  4  1  0  0  0  0
 18  1  1  0  0  0  0
 19  3  1  0  0  0  0
 19  5  1  0  0  0  0
 20 18  2  0  0  0  0
 21 26  1  0  0  0  0
 22 10  1  0  0  0  0
 22 24  1  0  0  0  0
 23 21  1  0  0  0  0
 24 13  1  0  0  0  0
 25  9  1  0  0  0  0
 25 14  1  0  0  0  0
 27  2  1  0  0  0  0
 29 28  1  0  0  0  0
 29 32  1  0  0  0  0
 31 33  1  0  0  0  0
 32 31  1  0  0  0  0
 32 34  1  0  0  0  0
 33 30  1  0  0  0  0
 34 30  1  0  0  0  0
M  END
>  <MODEL>
1

>  <REMARK>
 VINA RESULT:      -8.4      0.000      0.000
  Name = 
  3 active torsions:
  status: ('A' for Active; 'I' for Inactive)
    1  A    between atoms: C_17  and  O_28
    2  A    between atoms: O_28  and  C_29
    3  A    between atoms: C_29  and  N_32
                            x       y       z     vdW  Elec       q    Type
                         _______ _______ _______ _____ _____    ______ ____

>  <TORSDO>
F 3

$$$$
=
 OpenBabel11112417473D

 34 40  0  0  1  0  0  0  0  0999 V2000
  192.2440  176.6410  145.6560 C   0  0  2  0  0  3  0  0  0  0  0  0
  189.9890  176.6600  146.7390 C   0  0  0  0  0  2  0  0  0  0  0  0
  196.0750  174.8050  140.2690 C   0  0  0  0  0  0  0  0  0  0  0  0
  194.3820  176.2540  144.2550 C   0  0  0  0  0  0  0  0  0  0  0  0
  194.1360  175.4730  141.9140 C   0  0  0  0  0  0  0  0  0  0  0  0
  193.8580  175.1590  139.5930 O   0  0  0  0  0  0  0  0  0  0  0  0
  196.5370  175.1210  139.1400 O   0  0  0  0  0  0  0  0  0  0  0  0
  196.7720  174.2190  142.6690 C   0  0  0  0  0  2  0  0  0  0  0  0
  190.2020  175.3260  144.7120 C   0  0  2  0  0  3  0  0  0  0  0  0
  187.7440  175.5680  142.7260 C   0  0  0  0  0  2  0  0  0  0  0  0
  192.8400  175.5330  142.0600 N   0  0  0  0  0  0  0  0  0  0  0  0
  196.4410  175.6630  142.9740 C   0  0  0  0  0  2  0  0  0  0  0  0
  190.6840  175.9410  143.3810 C   0  0  1  0  0  3  0  0  0  0  0  0
  188.6300  176.0650  146.4460 C   0  0  0  0  0  2  0  0  0  0  0  0
  194.9920  175.8080  143.0330 N   0  0  0  0  0  0  0  0  0  0  0  0
  196.9670  174.0010  141.1760 C   0  0  0  0  0  2  0  0  0  0  0  0
  187.8790  176.3190  144.0450 C   0  0  2  0  0  3  0  0  0  0  0  0
  192.9130  176.2260  144.3660 C   0  0  0  0  0  0  0  0  0  0  0  0
  194.6620  175.1320  140.5640 C   0  0  0  0  0  0  0  0  0  0  0  0
  192.1880  175.8830  143.2950 C   0  0  0  0  0  0  0  0  0  0  0  0
  194.5350  177.1850  146.4970 C   0  0  0  0  0  2  0  0  0  0  0  0
  188.8160  175.9460  141.8150 N   0  0  0  0  0  2  0  0  0  0  0  0
  195.1100  176.6500  145.2610 N   0  0  0  0  0  0  0  0  0  0  0  0
  190.0250  175.2340  142.2030 C   0  0  0  0  0  2  0  0  0  0  0  0
  188.7020  175.4840  145.0400 C   0  0  1  0  0  3  0  0  0  0  0  0
  193.2150  176.4940  146.8280 C   0  0  0  0  0  2  0  0  0  0  0  0
  190.9700  175.8310  145.9440 C   0  0  1  0  0  3  0  0  0  0  0  0
  186.5990  176.5580  144.5540 O   0  0  0  0  0  0  0  0  0  0  0  0
  185.7830  176.6860  143.4280 C   0  0  0  0  0  2  0  0  0  0  0  0
  185.3920  179.3010  145.3830 N   0  0  0  0  0  2  0  0  0  0  0  0
  185.4700  178.9730  143.0510 C   0  0  0  0  0  2  0  0  0  0  0  0
  184.8540  177.7880  143.6180 N   0  0  0  0  0  0  0  0  0  0  0  0
  185.4670  180.0190  144.1300 C   0  0  0  0  0  2  0  0  0  0  0  0
  184.7650  178.0270  145.0540 C   0  0  0  0  0  2  0  0  0  0  0  0
  1 27  1  0  0  0  0
  1 26  1  1  0  0  0
  3 19  1  0  0  0  0
  3 16  1  0  0  0  0
  4 18  1  0  0  0  0
  4 23  2  0  0  0  0
  5 11  2  0  0  0  0
  5 15  1  0  0  0  0
  6 19  2  0  0  0  0
  7  3  2  0  0  0  0
  8 12  1  0  0  0  0
  9 25  1  0  0  0  0
  9 27  1  0  0  0  0
 10 17  1  0  0  0  0
 11 20  1  0  0  0  0
 12 15  1  0  0  0  0
 13  9  1  0  0  0  0
 14  2  1  0  0  0  0
 15  4  1  0  0  0  0
 16  8  1  0  0  0  0
 17 28  1  0  0  0  0
 17 25  1  0  0  0  0
 18  1  1  0  0  0  0
 19  5  1  0  0  0  0
 20 13  1  0  0  0  0
 20 18  2  0  0  0  0
 21 26  1  0  0  0  0
 22 24  1  0  0  0  0
 22 10  1  0  0  0  0
 23 21  1  0  0  0  0
 24 13  1  0  0  0  0
 25 14  1  0  0  0  0
 27  2  1  0  0  0  0
 29 32  1  0  0  0  0
 29 28  1  0  0  0  0
 31 32  1  0  0  0  0
 31 33  1  0  0  0  0
 32 34  1  0  0  0  0
 33 30  1  0  0  0  0
 34 30  1  0  0  0  0
M  END
>  <MODEL>
2

>  <REMARK>
 VINA RESULT:      -8.3      2.372      8.328
  Name = 
  3 active torsions:
  status: ('A' for Active; 'I' for Inactive)
    1  A    between atoms: C_17  and  O_28
    2  A    between atoms: O_28  and  C_29
    3  A    between atoms: C_29  and  N_32
                            x       y       z     vdW  Elec       q    Type
                         _______ _______ _______ _____ _____    ______ ____

>  <TORSDO>
F 3

$$$$
=
 OpenBabel11112417473D

 34 40  0  0  1  0  0  0  0  0999 V2000
  190.1190  177.0430  146.5880 C   0  0  2  0  0  3  0  0  0  0  0  0
  187.6410  177.3640  146.7080 C   0  0  0  0  0  2  0  0  0  0  0  0
  195.5800  175.4220  142.7650 C   0  0  0  0  0  0  0  0  0  0  0  0
  192.5780  176.4550  146.0470 C   0  0  0  0  0  0  0  0  0  0  0  0
  193.2340  176.1910  143.6700 C   0  0  0  0  0  0  0  0  0  0  0  0
  193.9140  176.3780  141.4200 O   0  0  0  0  0  0  0  0  0  0  0  0
  196.5070  175.8300  142.0160 O   0  0  0  0  0  0  0  0  0  0  0  0
  195.1280  174.2670  145.0120 C   0  0  0  0  0  2  0  0  0  0  0  0
  188.5070  176.4110  144.6400 C   0  0  2  0  0  3  0  0  0  0  0  0
  187.1590  177.5530  142.0090 C   0  0  0  0  0  2  0  0  0  0  0  0
  192.0150  176.5100  143.3280 N   0  0  0  0  0  0  0  0  0  0  0  0
  194.8890  175.6670  145.5300 C   0  0  0  0  0  2  0  0  0  0  0  0
  189.5770  177.1370  143.7960 C   0  0  1  0  0  3  0  0  0  0  0  0
  186.4640  177.1500  145.7810 C   0  0  0  0  0  2  0  0  0  0  0  0
  193.5800  176.1170  145.0740 N   0  0  0  0  0  0  0  0  0  0  0  0
  195.8990  174.2880  143.7010 C   0  0  0  0  0  2  0  0  0  0  0  0
  186.8250  178.0010  143.4280 C   0  0  2  0  0  3  0  0  0  0  0  0
  191.2060  176.7340  145.5850 C   0  0  0  0  0  0  0  0  0  0  0  0
  194.2270  175.9950  142.5800 C   0  0  0  0  0  0  0  0  0  0  0  0
  190.9580  176.7630  144.2710 C   0  0  0  0  0  0  0  0  0  0  0  0
  191.8970  176.9020  148.3390 C   0  0  0  0  0  2  0  0  0  0  0  0
  188.5520  177.8450  141.7010 N   0  0  0  0  0  2  0  0  0  0  0  0
  192.8630  176.4880  147.3180 N   0  0  0  0  0  0  0  0  0  0  0  0
  189.3850  176.8220  142.3170 C   0  0  0  0  0  2  0  0  0  0  0  0
  187.0420  176.8360  144.4080 C   0  0  1  0  0  3  0  0  0  0  0  0
  190.4830  176.4730  147.9590 C   0  0  0  0  0  2  0  0  0  0  0  0
  188.7490  176.4990  146.1560 C   0  0  1  0  0  3  0  0  0  0  0  0
  185.4920  178.4200  143.4600 O   0  0  0  0  0  0  0  0  0  0  0  0
  184.8830  177.7640  142.3890 C   0  0  0  0  0  2  0  0  0  0  0  0
  182.6030  177.6850  140.0210 N   0  0  0  0  0  2  0  0  0  0  0  0
  182.6460  178.4320  142.2560 C   0  0  0  0  0  2  0  0  0  0  0  0
  183.9700  178.6700  141.7120 N   0  0  0  0  0  0  0  0  0  0  0  0
  181.7440  178.1490  141.0880 C   0  0  0  0  0  2  0  0  0  0  0  0
  183.9130  178.2520  140.3150 C   0  0  0  0  0  2  0  0  0  0  0  0
  1 26  1  1  0  0  0
  3 16  1  0  0  0  0
  4 23  2  0  0  0  0
  5 15  1  0  0  0  0
  6 19  2  0  0  0  0
  7  3  2  0  0  0  0
  8 12  1  0  0  0  0
  9 27  1  0  0  0  0
 10 17  1  0  0  0  0
 11  5  2  0  0  0  0
 11 20  1  0  0  0  0
 13 20  1  0  0  0  0
 13  9  1  0  0  0  0
 14  2  1  0  0  0  0
 15 12  1  0  0  0  0
 15  4  1  0  0  0  0
 16  8  1  0  0  0  0
 17 28  1  0  0  0  0
 17 25  1  0  0  0  0
 18  4  1  0  0  0  0
 18  1  1  0  0  0  0
 19  3  1  0  0  0  0
 19  5  1  0  0  0  0
 20 18  2  0  0  0  0
 22 10  1  0  0  0  0
 22 24  1  0  0  0  0
 23 21  1  0  0  0  0
 24 13  1  0  0  0  0
 25  9  1  0  0  0  0
 25 14  1  0  0  0  0
 26 21  1  0  0  0  0
 27  1  1  0  0  0  0
 27  2  1  0  0  0  0
 29 28  1  0  0  0  0
 30 34  1  0  0  0  0
 30 33  1  0  0  0  0
 32 31  1  0  0  0  0
 32 29  1  0  0  0  0
 33 31  1  0  0  0  0
 34 32  1  0  0  0  0
M  END
>  <MODEL>
3

>  <REMARK>
 VINA RESULT:      -8.3      2.529      8.755
  Name = 
  3 active torsions:
  status: ('A' for Active; 'I' for Inactive)
    1  A    between atoms: C_17  and  O_28
    2  A    between atoms: O_28  and  C_29
    3  A    between atoms: C_29  and  N_32
                            x       y       z     vdW  Elec       q    Type
                         _______ _______ _______ _____ _____    ______ ____

>  <TORSDO>
F 3

$$$$
=
 OpenBabel11112417473D

 34 40  0  0  1  0  0  0  0  0999 V2000
  189.6040  174.6850  142.0990 C   0  0  2  0  0  3  0  0  0  0  0  0
  187.2540  175.2260  142.7670 C   0  0  0  0  0  2  0  0  0  0  0  0
  196.3050  175.8520  142.9960 C   0  0  0  0  0  0  0  0  0  0  0  0
  192.1430  174.5610  141.6290 C   0  0  0  0  0  0  0  0  0  0  0  0
  193.6970  175.6240  143.2430 C   0  0  0  0  0  0  0  0  0  0  0  0
  195.1460  176.2520  144.9950 O   0  0  0  0  0  0  0  0  0  0  0  0
  197.3640  175.5340  143.6000 O   0  0  0  0  0  0  0  0  0  0  0  0
  195.2300  175.9430  140.6660 C   0  0  0  0  0  2  0  0  0  0  0  0
  188.9980  176.6440  143.7070 C   0  0  2  0  0  3  0  0  0  0  0  0
  188.5890  177.3610  146.7670 C   0  0  0  0  0  2  0  0  0  0  0  0
  192.6680  175.9400  143.9820 N   0  0  0  0  0  0  0  0  0  0  0  0
  194.5730  174.6410  141.0670 C   0  0  0  0  0  2  0  0  0  0  0  0
  190.1680  176.0580  144.5260 C   0  0  1  0  0  3  0  0  0  0  0  0
  186.5800  176.2290  143.6760 C   0  0  0  0  0  2  0  0  0  0  0  0
  193.4840  174.9310  141.9900 N   0  0  0  0  0  0  0  0  0  0  0  0
  196.4290  176.2510  141.5510 C   0  0  0  0  0  2  0  0  0  0  0  0
  187.6650  176.4680  145.9470 C   0  0  2  0  0  3  0  0  0  0  0  0
  191.0280  175.0160  142.4790 C   0  0  0  0  0  0  0  0  0  0  0  0
  195.0500  175.9340  143.7780 C   0  0  0  0  0  0  0  0  0  0  0  0
  191.3030  175.6710  143.6120 C   0  0  0  0  0  0  0  0  0  0  0  0
  190.5690  173.3940  140.1880 C   0  0  0  0  0  2  0  0  0  0  0  0
  189.9220  176.7780  146.8420 N   0  0  0  0  0  2  0  0  0  0  0  0
  191.9080  173.8610  140.5560 N   0  0  0  0  0  0  0  0  0  0  0  0
  190.6160  177.0510  145.5920 C   0  0  0  0  0  2  0  0  0  0  0  0
  187.6850  176.9080  144.4740 C   0  0  1  0  0  3  0  0  0  0  0  0
  189.5060  174.4080  140.5980 C   0  0  0  0  0  2  0  0  0  0  0  0
  188.6200  175.8030  142.4770 C   0  0  1  0  0  3  0  0  0  0  0  0
  186.3710  176.5710  146.4670 O   0  0  0  0  0  0  0  0  0  0  0  0
  186.4180  177.6650  147.3330 C   0  0  0  0  0  2  0  0  0  0  0  0
  185.2070  179.5280  144.9080 N   0  0  0  0  0  2  0  0  0  0  0  0
  184.3440  177.8000  146.2590 C   0  0  0  0  0  2  0  0  0  0  0  0
  185.2850  178.5400  147.0800 N   0  0  0  0  0  0  0  0  0  0  0  0
  184.0690  178.6460  145.0490 C   0  0  0  0  0  2  0  0  0  0  0  0
  185.7700  179.6360  146.2490 C   0  0  0  0  0  2  0  0  0  0  0  0
  1 26  1  6  0  0  0
  1 27  1  0  0  0  0
  1 18  1  0  0  0  0
  2 14  1  0  0  0  0
  3  7  2  0  0  0  0
  3 19  1  0  0  0  0
  4 15  1  0  0  0  0
  4 18  1  0  0  0  0
  5 19  1  0  0  0  0
  5 11  2  0  0  0  0
  8 12  1  0  0  0  0
  8 16  1  0  0  0  0
  9 25  1  0  0  0  0
  9 13  1  0  0  0  0
 10 22  1  0  0  0  0
 12 15  1  0  0  0  0
 13 24  1  0  0  0  0
 14 25  1  0  0  0  0
 15  5  1  0  0  0  0
 16  3  1  0  0  0  0
 17 28  1  0  0  0  0
 17 10  1  0  0  0  0
 18 20  2  0  0  0  0
 19  6  2  0  0  0  0
 20 11  1  0  0  0  0
 20 13  1  0  0  0  0
 21 23  1  0  0  0  0
 21 26  1  0  0  0  0
 23  4  2  0  0  0  0
 24 22  1  0  0  0  0
 25 17  1  0  0  0  0
 27  2  1  0  0  0  0
 27  9  1  0  0  0  0
 28 29  1  0  0  0  0
 30 33  1  0  0  0  0
 30 34  1  0  0  0  0
 31 32  1  0  0  0  0
 32 29  1  0  0  0  0
 33 31  1  0  0  0  0
 34 32  1  0  0  0  0
M  END
>  <MODEL>
4

>  <REMARK>
 VINA RESULT:      -8.2      2.902      8.722
  Name = 
  3 active torsions:
  status: ('A' for Active; 'I' for Inactive)
    1  A    between atoms: C_17  and  O_28
    2  A    between atoms: O_28  and  C_29
    3  A    between atoms: C_29  and  N_32
                            x       y       z     vdW  Elec       q    Type
                         _______ _______ _______ _____ _____    ______ ____

>  <TORSDO>
F 3

$$$$
=
 OpenBabel11112417473D

 34 40  0  0  1  0  0  0  0  0999 V2000
  192.1730  175.8390  145.2000 C   0  0  2  0  0  3  0  0  0  0  0  0
  190.3280  177.5290  145.2560 C   0  0  0  0  0  2  0  0  0  0  0  0
  194.1160  169.4170  143.7710 C   0  0  0  0  0  0  0  0  0  0  0  0
  193.7070  173.7600  145.1220 C   0  0  0  0  0  0  0  0  0  0  0  0
  192.9140  171.7520  143.9020 C   0  0  0  0  0  0  0  0  0  0  0  0
  192.3300  170.0410  142.3870 O   0  0  0  0  0  0  0  0  0  0  0  0
  194.5810  168.6170  142.9160 O   0  0  0  0  0  0  0  0  0  0  0  0
  194.6170  170.4920  146.0480 C   0  0  0  0  0  2  0  0  0  0  0  0
  189.6780  175.2350  144.7520 C   0  0  2  0  0  3  0  0  0  0  0  0
  187.5220  174.9650  142.4450 C   0  0  0  0  0  2  0  0  0  0  0  0
  191.8400  172.4140  143.5680 N   0  0  0  0  0  0  0  0  0  0  0  0
  195.0800  171.6790  145.2330 C   0  0  0  0  0  2  0  0  0  0  0  0
  190.2940  174.4560  143.5710 C   0  0  1  0  0  3  0  0  0  0  0  0
  188.8350  177.5260  145.0130 C   0  0  0  0  0  2  0  0  0  0  0  0
  193.9100  172.3910  144.7360 N   0  0  0  0  0  0  0  0  0  0  0  0
  194.5540  169.2320  145.1980 C   0  0  0  0  0  2  0  0  0  0  0  0
  188.1220  176.2790  142.9320 C   0  0  2  0  0  3  0  0  0  0  0  0
  192.4360  174.4170  144.7650 C   0  0  0  0  0  0  0  0  0  0  0  0
  193.0870  170.3870  143.3340 C   0  0  0  0  0  0  0  0  0  0  0  0
  191.5540  173.7540  144.0100 C   0  0  0  0  0  0  0  0  0  0  0  0
  194.4870  175.8240  146.1460 C   0  0  0  0  0  2  0  0  0  0  0  0
  188.5610  174.1080  141.8920 N   0  0  0  0  0  2  0  0  0  0  0  0
  194.6140  174.4070  145.7980 N   0  0  0  0  0  0  0  0  0  0  0  0
  189.2760  173.4800  142.9940 C   0  0  0  0  0  2  0  0  0  0  0  0
  188.4920  176.1660  144.4200 C   0  0  1  0  0  3  0  0  0  0  0  0
  193.0300  176.1910  146.4160 C   0  0  0  0  0  2  0  0  0  0  0  0
  190.6930  176.0890  145.5300 C   0  0  1  0  0  3  0  0  0  0  0  0
  187.1800  177.2960  142.7430 O   0  0  0  0  0  0  0  0  0  0  0  0
  185.9480  176.7000  143.0220 C   0  0  0  0  0  2  0  0  0  0  0  0
  185.5350  178.9610  145.3730 N   0  0  0  0  0  2  0  0  0  0  0  0
  185.5370  179.0020  143.0160 C   0  0  0  0  0  2  0  0  0  0  0  0
  184.9870  177.7180  143.4100 N   0  0  0  0  0  0  0  0  0  0  0  0
  185.5370  179.8670  144.2450 C   0  0  0  0  0  2  0  0  0  0  0  0
  184.9430  177.7280  144.8680 C   0  0  0  0  0  2  0  0  0  0  0  0
  1 27  1  0  0  0  0
  1 26  1  1  0  0  0
  2 27  1  0  0  0  0
  3 16  1  0  0  0  0
  4 23  2  0  0  0  0
  5 15  1  0  0  0  0
  6 19  2  0  0  0  0
  7  3  2  0  0  0  0
  9 27  1  0  0  0  0
 10 17  1  0  0  0  0
 11  5  2  0  0  0  0
 11 20  1  0  0  0  0
 12  8  1  0  0  0  0
 13 20  1  0  0  0  0
 13  9  1  0  0  0  0
 14  2  1  0  0  0  0
 15  4  1  0  0  0  0
 15 12  1  0  0  0  0
 16  8  1  0  0  0  0
 17 25  1  0  0  0  0
 18  4  1  0  0  0  0
 18  1  1  0  0  0  0
 19  3  1  0  0  0  0
 19  5  1  0  0  0  0
 20 18  2  0  0  0  0
 21 26  1  0  0  0  0
 22 10  1  0  0  0  0
 22 24  1  0  0  0  0
 23 21  1  0  0  0  0
 24 13  1  0  0  0  0
 25  9  1  0  0  0  0
 25 14  1  0  0  0  0
 28 17  1  0  0  0  0
 28 29  1  0  0  0  0
 29 32  1  0  0  0  0
 31 32  1  0  0  0  0
 31 33  1  0  0  0  0
 32 34  1  0  0  0  0
 33 30  1  0  0  0  0
 34 30  1  0  0  0  0
M  END
>  <MODEL>
5

>  <REMARK>
 VINA RESULT:      -8.1      2.801      8.651
  Name = 
  3 active torsions:
  status: ('A' for Active; 'I' for Inactive)
    1  A    between atoms: C_17  and  O_28
    2  A    between atoms: O_28  and  C_29
    3  A    between atoms: C_29  and  N_32
                            x       y       z     vdW  Elec       q    Type
                         _______ _______ _______ _____ _____    ______ ____

>  <TORSDO>
F 3

$$$$
=
 OpenBabel11112417473D

 34 40  0  0  1  0  0  0  0  0999 V2000
  190.2400  174.0270  141.4790 C   0  0  2  0  0  3  0  0  0  0  0  0
  187.8670  174.5330  142.0900 C   0  0  0  0  0  2  0  0  0  0  0  0
  196.8520  175.8000  141.9350 C   0  0  0  0  0  0  0  0  0  0  0  0
  192.7750  173.9810  140.9720 C   0  0  0  0  0  0  0  0  0  0  0  0
  194.2710  175.4520  142.2960 C   0  0  0  0  0  0  0  0  0  0  0  0
  195.6960  176.5170  143.8440 O   0  0  0  0  0  0  0  0  0  0  0  0
  197.9390  175.6830  142.5600 O   0  0  0  0  0  0  0  0  0  0  0  0
  195.7410  175.3450  139.6660 C   0  0  0  0  0  2  0  0  0  0  0  0
  189.5190  176.2260  142.6780 C   0  0  2  0  0  3  0  0  0  0  0  0
  189.1020  177.5180  145.5410 C   0  0  0  0  0  2  0  0  0  0  0  0
  193.2320  175.8400  142.9850 N   0  0  0  0  0  0  0  0  0  0  0  0
  195.1850  174.1100  140.3370 C   0  0  0  0  0  2  0  0  0  0  0  0
  190.7380  175.8970  143.5640 C   0  0  1  0  0  3  0  0  0  0  0  0
  187.1360  175.6510  142.7990 C   0  0  0  0  0  2  0  0  0  0  0  0
  194.0910  174.5070  141.2140 N   0  0  0  0  0  0  0  0  0  0  0  0
  196.9280  175.9050  140.4360 C   0  0  0  0  0  2  0  0  0  0  0  0
  188.2330  176.4170  144.9440 C   0  0  2  0  0  3  0  0  0  0  0  0
  191.6430  174.5230  141.7450 C   0  0  0  0  0  0  0  0  0  0  0  0
  195.6060  175.9540  142.7200 C   0  0  0  0  0  0  0  0  0  0  0  0
  191.8850  175.4110  142.7150 C   0  0  0  0  0  0  0  0  0  0  0  0
  191.2690  172.4440  139.8400 C   0  0  0  0  0  2  0  0  0  0  0  0
  190.4730  177.0530  145.6940 N   0  0  0  0  0  2  0  0  0  0  0  0
  192.5760  173.0650  140.0690 N   0  0  0  0  0  0  0  0  0  0  0  0
  191.1290  177.1140  144.3960 C   0  0  0  0  0  2  0  0  0  0  0  0
  188.2000  176.5500  143.4120 C   0  0  1  0  0  3  0  0  0  0  0  0
  190.1410  173.4470  140.0680 C   0  0  0  0  0  2  0  0  0  0  0  0
  189.1840  175.1300  141.6520 C   0  0  1  0  0  3  0  0  0  0  0  0
  186.9420  176.5350  145.4680 O   0  0  0  0  0  0  0  0  0  0  0  0
  187.1080  176.4550  146.8520 C   0  0  0  0  0  2  0  0  0  0  0  0
  185.5670  179.3560  146.9860 N   0  0  0  0  0  2  0  0  0  0  0  0
  184.8920  177.1400  146.5510 C   0  0  0  0  0  2  0  0  0  0  0  0
  185.9710  177.0650  147.5200 N   0  0  0  0  0  0  0  0  0  0  0  0
  184.4460  178.5740  146.5130 C   0  0  0  0  0  2  0  0  0  0  0  0
  186.3420  178.4440  147.8180 C   0  0  0  0  0  2  0  0  0  0  0  0
  1 26  1  6  0  0  0
  1 27  1  0  0  0  0
  1 18  1  0  0  0  0
  2 14  1  0  0  0  0
  3  7  2  0  0  0  0
  3 19  1  0  0  0  0
  4 15  1  0  0  0  0
  4 18  1  0  0  0  0
  5 19  1  0  0  0  0
  5 11  2  0  0  0  0
  8 12  1  0  0  0  0
  8 16  1  0  0  0  0
  9 25  1  0  0  0  0
  9 13  1  0  0  0  0
 10 22  1  0  0  0  0
 12 15  1  0  0  0  0
 13 24  1  0  0  0  0
 14 25  1  0  0  0  0
 15  5  1  0  0  0  0
 16  3  1  0  0  0  0
 17 28  1  0  0  0  0
 17 10  1  0  0  0  0
 18 20  2  0  0  0  0
 19  6  2  0  0  0  0
 20 11  1  0  0  0  0
 20 13  1  0  0  0  0
 21 26  1  0  0  0  0
 21 23  1  0  0  0  0
 23  4  2  0  0  0  0
 24 22  1  0  0  0  0
 25 17  1  0  0  0  0
 27  2  1  0  0  0  0
 27  9  1  0  0  0  0
 28 29  1  0  0  0  0
 29 32  1  0  0  0  0
 30 34  1  0  0  0  0
 31 32  1  0  0  0  0
 32 34  1  0  0  0  0
 33 31  1  0  0  0  0
 33 30  1  0  0  0  0
M  END
>  <MODEL>
6

>  <REMARK>
 VINA RESULT:      -8.0      3.011      8.710
  Name = 
  3 active torsions:
  status: ('A' for Active; 'I' for Inactive)
    1  A    between atoms: C_17  and  O_28
    2  A    between atoms: O_28  and  C_29
    3  A    between atoms: C_29  and  N_32
                            x       y       z     vdW  Elec       q    Type
                         _______ _______ _______ _____ _____    ______ ____

>  <TORSDO>
F 3

$$$$
=
 OpenBabel11112417473D

 34 40  0  0  1  0  0  0  0  0999 V2000
  188.1660  175.8600  141.2190 C   0  0  2  0  0  3  0  0  0  0  0  0
  189.3810  173.9280  140.1930 C   0  0  0  0  0  2  0  0  0  0  0  0
  185.7990  178.8610  146.9160 C   0  0  0  0  0  0  0  0  0  0  0  0
  186.8580  177.5520  142.6700 C   0  0  0  0  0  0  0  0  0  0  0  0
  187.1060  177.4350  145.1350 C   0  0  0  0  0  0  0  0  0  0  0  0
  187.6960  177.5770  147.4140 O   0  0  0  0  0  0  0  0  0  0  0  0
  186.0190  179.6680  147.8580 O   0  0  0  0  0  0  0  0  0  0  0  0
  184.2810  178.4560  144.8850 C   0  0  0  0  0  2  0  0  0  0  0  0
  188.8540  173.7370  142.5650 C   0  0  2  0  0  3  0  0  0  0  0  0
  191.1860  172.5130  144.3270 C   0  0  0  0  0  2  0  0  0  0  0  0
  187.9670  176.4660  144.9740 N   0  0  0  0  0  0  0  0  0  0  0  0
  185.4270  179.0300  144.0840 C   0  0  0  0  0  2  0  0  0  0  0  0
  189.3230  174.7930  143.5890 C   0  0  1  0  0  3  0  0  0  0  0  0
  189.9440  172.6100  140.6770 C   0  0  0  0  0  2  0  0  0  0  0  0
  186.4720  178.0210  143.9730 N   0  0  0  0  0  0  0  0  0  0  0  0
  184.4020  178.8180  146.3580 C   0  0  0  0  0  2  0  0  0  0  0  0
  191.2660  172.7690  142.8260 C   0  0  2  0  0  3  0  0  0  0  0  0
  187.7820  176.4080  142.5730 C   0  0  0  0  0  0  0  0  0  0  0  0
  186.8840  177.9350  146.5190 C   0  0  0  0  0  0  0  0  0  0  0  0
  188.3110  175.9040  143.6940 C   0  0  0  0  0  0  0  0  0  0  0  0
  186.8030  177.7160  140.2440 C   0  0  0  0  0  2  0  0  0  0  0  0
  190.9870  173.7640  145.0440 N   0  0  0  0  0  2  0  0  0  0  0  0
  186.3810  178.1060  141.5920 N   0  0  0  0  0  0  0  0  0  0  0  0
  189.5830  174.1380  144.9400 C   0  0  0  0  0  2  0  0  0  0  0  0
  189.8690  172.6340  142.1980 C   0  0  1  0  0  3  0  0  0  0  0  0
  187.1050  176.2220  140.1790 C   0  0  0  0  0  2  0  0  0  0  0  0
  188.3660  174.3370  141.2360 C   0  0  1  0  0  3  0  0  0  0  0  0
  192.1430  171.8380  142.2620 O   0  0  0  0  0  0  0  0  0  0  0  0
  192.0290  170.7030  143.0680 C   0  0  0  0  0  2  0  0  0  0  0  0
  190.8260  169.1890  140.4080 N   0  0  0  0  0  2  0  0  0  0  0  0
  192.9640  169.9320  141.0670 C   0  0  0  0  0  2  0  0  0  0  0  0
  192.2790  169.5100  142.2750 N   0  0  0  0  0  0  0  0  0  0  0  0
  192.1690  169.3960  139.9110 C   0  0  0  0  0  2  0  0  0  0  0  0
  190.9790  169.0050  141.8460 C   0  0  0  0  0  2  0  0  0  0  0  0
  1 26  1  6  0  0  0
  1 27  1  0  0  0  0
  1 18  1  0  0  0  0
  2 14  1  0  0  0  0
  2 27  1  0  0  0  0
  3  7  2  0  0  0  0
  4 15  1  0  0  0  0
  5 19  1  0  0  0  0
  8 16  1  0  0  0  0
  9 13  1  0  0  0  0
 10 22  1  0  0  0  0
 11  5  2  0  0  0  0
 12  8  1  0  0  0  0
 13 20  1  0  0  0  0
 13 24  1  0  0  0  0
 14 25  1  0  0  0  0
 15 12  1  0  0  0  0
 15  5  1  0  0  0  0
 16  3  1  0  0  0  0
 17 10  1  0  0  0  0
 18  4  1  0  0  0  0
 18 20  2  0  0  0  0
 19  3  1  0  0  0  0
 19  6  2  0  0  0  0
 20 11  1  0  0  0  0
 21 23  1  0  0  0  0
 23  4  2  0  0  0  0
 24 22  1  0  0  0  0
 25  9  1  0  0  0  0
 25 17  1  0  0  0  0
 26 21  1  0  0  0  0
 27  9  1  0  0  0  0
 28 17  1  0  0  0  0
 28 29  1  0  0  0  0
 30 34  1  0  0  0  0
 31 32  1  0  0  0  0
 32 29  1  0  0  0  0
 33 30  1  0  0  0  0
 33 31  1  0  0  0  0
 34 32  1  0  0  0  0
M  END
>  <MODEL>
7

>  <REMARK>
 VINA RESULT:      -7.9      3.978      5.584
  Name = 
  3 active torsions:
  status: ('A' for Active; 'I' for Inactive)
    1  A    between atoms: C_17  and  O_28
    2  A    between atoms: O_28  and  C_29
    3  A    between atoms: C_29  and  N_32
                            x       y       z     vdW  Elec       q    Type
                         _______ _______ _______ _____ _____    ______ ____

>  <TORSDO>
F 3

$$$$
=
 OpenBabel11112417473D

 34 40  0  0  1  0  0  0  0  0999 V2000
  191.6550  175.9280  143.8310 C   0  0  2  0  0  3  0  0  0  0  0  0
  190.2840  177.3850  145.3340 C   0  0  0  0  0  2  0  0  0  0  0  0
  191.7670  171.1360  138.9230 C   0  0  0  0  0  0  0  0  0  0  0  0
  192.6500  174.1570  142.2320 C   0  0  0  0  0  0  0  0  0  0  0  0
  191.1500  173.0910  140.5700 C   0  0  0  0  0  0  0  0  0  0  0  0
  189.8190  172.4280  138.7390 O   0  0  0  0  0  0  0  0  0  0  0  0
  191.7930  170.8840  137.6890 O   0  0  0  0  0  0  0  0  0  0  0  0
  193.1130  170.8630  141.0930 C   0  0  0  0  0  2  0  0  0  0  0  0
  189.0690  175.7010  144.0610 C   0  0  2  0  0  3  0  0  0  0  0  0
  186.3280  176.7150  142.8360 C   0  0  0  0  0  2  0  0  0  0  0  0
  190.1810  173.8550  140.9960 N   0  0  0  0  0  0  0  0  0  0  0  0
  193.5490  172.2890  140.8420 C   0  0  0  0  0  2  0  0  0  0  0  0
  189.1460  175.6340  142.5210 C   0  0  1  0  0  3  0  0  0  0  0  0
  188.8170  177.5420  145.6640 C   0  0  0  0  0  2  0  0  0  0  0  0
  192.4520  173.1820  141.1960 N   0  0  0  0  0  0  0  0  0  0  0  0
  192.5540  170.2280  139.8280 C   0  0  0  0  0  2  0  0  0  0  0  0
  187.2940  177.5730  143.6450 C   0  0  2  0  0  3  0  0  0  0  0  0
  191.4890  174.9320  142.7080 C   0  0  0  0  0  0  0  0  0  0  0  0
  190.8720  172.2150  139.3990 C   0  0  0  0  0  0  0  0  0  0  0  0
  190.3110  174.7770  142.0940 C   0  0  0  0  0  0  0  0  0  0  0  0
  194.0910  175.3720  143.7690 C   0  0  0  0  0  2  0  0  0  0  0  0
  186.9680  176.2460  141.6150 N   0  0  0  0  0  2  0  0  0  0  0  0
  193.8240  174.3380  142.7660 N   0  0  0  0  0  0  0  0  0  0  0  0
  187.8300  175.1210  141.9480 C   0  0  0  0  0  2  0  0  0  0  0  0
  188.0500  176.6950  144.6570 C   0  0  1  0  0  3  0  0  0  0  0  0
  192.8810  175.5780  144.6750 C   0  0  0  0  0  2  0  0  0  0  0  0
  190.4160  176.0040  144.7370 C   0  0  1  0  0  3  0  0  0  0  0  0
  186.5630  178.5610  144.3110 O   0  0  0  0  0  0  0  0  0  0  0  0
  185.2650  178.0520  144.3930 C   0  0  0  0  0  2  0  0  0  0  0  0
  185.7980  177.3820  147.5680 N   0  0  0  0  0  2  0  0  0  0  0  0
  185.5540  179.3600  146.3100 C   0  0  0  0  0  2  0  0  0  0  0  0
  184.6950  178.3660  145.6930 N   0  0  0  0  0  0  0  0  0  0  0  0
  185.9430  178.8180  147.6560 C   0  0  0  0  0  2  0  0  0  0  0  0
  184.8160  177.1640  146.5120 C   0  0  0  0  0  2  0  0  0  0  0  0
  1 26  1  1  0  0  0
  1 27  1  0  0  0  0
  2 14  1  0  0  0  0
  3 19  1  0  0  0  0
  3 16  1  0  0  0  0
  4 18  1  0  0  0  0
  4 23  2  0  0  0  0
  5 11  2  0  0  0  0
  5 15  1  0  0  0  0
  6 19  2  0  0  0  0
  7  3  2  0  0  0  0
  9 25  1  0  0  0  0
  9 27  1  0  0  0  0
 10 17  1  0  0  0  0
 11 20  1  0  0  0  0
 12  8  1  0  0  0  0
 12 15  1  0  0  0  0
 13  9  1  0  0  0  0
 15  4  1  0  0  0  0
 16  8  1  0  0  0  0
 17 28  1  0  0  0  0
 17 25  1  0  0  0  0
 18  1  1  0  0  0  0
 19  5  1  0  0  0  0
 20 13  1  0  0  0  0
 20 18  2  0  0  0  0
 21 26  1  0  0  0  0
 22 24  1  0  0  0  0
 22 10  1  0  0  0  0
 23 21  1  0  0  0  0
 24 13  1  0  0  0  0
 25 14  1  0  0  0  0
 27  2  1  0  0  0  0
 28 29  1  0  0  0  0
 29 32  1  0  0  0  0
 30 33  1  0  0  0  0
 31 33  1  0  0  0  0
 32 31  1  0  0  0  0
 32 34  1  0  0  0  0
 34 30  1  0  0  0  0
M  END
>  <MODEL>
8

>  <REMARK>
 VINA RESULT:      -7.8      3.474      8.316
  Name = 
  3 active torsions:
  status: ('A' for Active; 'I' for Inactive)
    1  A    between atoms: C_17  and  O_28
    2  A    between atoms: O_28  and  C_29
    3  A    between atoms: C_29  and  N_32
                            x       y       z     vdW  Elec       q    Type
                         _______ _______ _______ _____ _____    ______ ____

>  <TORSDO>
F 3

$$$$
=
 OpenBabel11112417473D

 34 40  0  0  1  0  0  0  0  0999 V2000
  188.9340  175.8650  142.0020 C   0  0  2  0  0  3  0  0  0  0  0  0
  190.5950  174.1760  141.1970 C   0  0  0  0  0  2  0  0  0  0  0  0
  185.9280  178.9600  147.3350 C   0  0  0  0  0  0  0  0  0  0  0  0
  187.2480  177.3620  143.2660 C   0  0  0  0  0  0  0  0  0  0  0  0
  187.5420  177.6700  145.7090 C   0  0  0  0  0  0  0  0  0  0  0  0
  188.0960  178.2860  147.9170 O   0  0  0  0  0  0  0  0  0  0  0  0
  185.9420  179.9240  148.1460 O   0  0  0  0  0  0  0  0  0  0  0  0
  184.5460  177.8950  145.4520 C   0  0  0  0  0  2  0  0  0  0  0  0
  190.1570  174.2040  143.5940 C   0  0  2  0  0  3  0  0  0  0  0  0
  192.7430  173.8780  145.3970 C   0  0  0  0  0  2  0  0  0  0  0  0
  188.6210  176.9380  145.6430 N   0  0  0  0  0  0  0  0  0  0  0  0
  185.4980  178.6180  144.5270 C   0  0  0  0  0  2  0  0  0  0  0  0
  190.3490  175.4800  144.4400 C   0  0  1  0  0  3  0  0  0  0  0  0
  191.4830  173.1280  141.8300 C   0  0  0  0  0  2  0  0  0  0  0  0
  186.7670  177.9010  144.5080 N   0  0  0  0  0  0  0  0  0  0  0  0
  184.5840  178.4850  146.8540 C   0  0  0  0  0  2  0  0  0  0  0  0
  192.7400  173.9260  143.8740 C   0  0  2  0  0  3  0  0  0  0  0  0
  188.4340  176.4880  143.2840 C   0  0  0  0  0  0  0  0  0  0  0  0
  187.2110  178.2920  147.0200 C   0  0  0  0  0  0  0  0  0  0  0  0
  189.0850  176.3020  144.4380 C   0  0  0  0  0  0  0  0  0  0  0  0
  187.1300  177.1540  140.8460 C   0  0  0  0  0  2  0  0  0  0  0  0
  192.2350  175.1290  145.9440 N   0  0  0  0  0  2  0  0  0  0  0  0
  186.6350  177.6150  142.1450 N   0  0  0  0  0  0  0  0  0  0  0  0
  190.7820  175.1150  145.8550 C   0  0  0  0  0  2  0  0  0  0  0  0
  191.4190  173.3530  143.3350 C   0  0  1  0  0  3  0  0  0  0  0  0
  187.8060  175.7920  140.9720 C   0  0  0  0  0  2  0  0  0  0  0  0
  189.5190  174.4610  142.2180 C   0  0  1  0  0  3  0  0  0  0  0  0
  193.8220  173.1760  143.4030 O   0  0  0  0  0  0  0  0  0  0  0  0
  194.9440  173.9690  143.6540 C   0  0  0  0  0  2  0  0  0  0  0  0
  196.6560  176.7340  143.1680 N   0  0  0  0  0  2  0  0  0  0  0  0
  195.4720  175.2510  141.7700 C   0  0  0  0  0  2  0  0  0  0  0  0
  194.7710  175.2750  143.0410 N   0  0  0  0  0  0  0  0  0  0  0  0
  196.4170  176.4180  141.7770 C   0  0  0  0  0  2  0  0  0  0  0  0
  195.4830  176.2360  143.8760 C   0  0  0  0  0  2  0  0  0  0  0  0
  1 26  1  6  0  0  0
  1 27  1  0  0  0  0
  1 18  1  0  0  0  0
  2 14  1  0  0  0  0
  2 27  1  0  0  0  0
  3  7  2  0  0  0  0
  4 18  1  0  0  0  0
  4 15  1  0  0  0  0
  5 19  1  0  0  0  0
  8 16  1  0  0  0  0
  9 13  1  0  0  0  0
 10 22  1  0  0  0  0
 11  5  2  0  0  0  0
 12  8  1  0  0  0  0
 13 24  1  0  0  0  0
 14 25  1  0  0  0  0
 15 12  1  0  0  0  0
 15  5  1  0  0  0  0
 16  3  1  0  0  0  0
 17 10  1  0  0  0  0
 18 20  2  0  0  0  0
 19  3  1  0  0  0  0
 19  6  2  0  0  0  0
 20 13  1  0  0  0  0
 20 11  1  0  0  0  0
 21 26  1  0  0  0  0
 21 23  1  0  0  0  0
 23  4  2  0  0  0  0
 24 22  1  0  0  0  0
 25  9  1  0  0  0  0
 25 17  1  0  0  0  0
 27  9  1  0  0  0  0
 28 29  1  0  0  0  0
 28 17  1  0  0  0  0
 30 34  1  0  0  0  0
 31 33  1  0  0  0  0
 31 32  1  0  0  0  0
 32 29  1  0  0  0  0
 32 34  1  0  0  0  0
 33 30  1  0  0  0  0
M  END
>  <MODEL>
9

>  <REMARK>
 VINA RESULT:      -7.8      2.752      4.431
  Name = 
  3 active torsions:
  status: ('A' for Active; 'I' for Inactive)
    1  A    between atoms: C_17  and  O_28
    2  A    between atoms: O_28  and  C_29
    3  A    between atoms: C_29  and  N_32
                            x       y       z     vdW  Elec       q    Type
                         _______ _______ _______ _____ _____    ______ ____

>  <TORSDO>
F 3

$$$$
