=
 OpenBabel11112416203D

 30 35  0  0  1  0  0  0  0  0999 V2000
  189.4980  175.7890  143.8480 C   0  0  0  0  0  0  0  0  0  0  0  0
  191.6350  175.1380  145.0860 C   0  0  0  0  0  0  0  0  0  0  0  0
  187.9110  177.5510  147.2040 N   0  0  0  0  0  2  0  0  0  0  0  0
  188.2370  176.4430  143.8280 C   0  0  0  0  0  0  0  0  0  0  0  0
  189.9650  175.1500  142.6540 N   0  0  0  0  0  2  0  0  0  0  0  0
  187.4750  176.0790  140.2790 O   0  0  0  0  0  0  0  0  0  0  0  0
  185.2750  177.2430  143.1710 C   0  0  1  0  0  3  0  0  0  0  0  0
  188.0070  175.8820  141.4050 C   0  0  0  0  0  0  0  0  0  0  0  0
  185.2940  177.6390  144.6400 C   0  0  2  0  0  3  0  0  0  0  0  0
  186.7240  177.9010  146.6630 C   0  0  0  0  0  0  0  0  0  0  0  0
  189.0880  174.8530  141.5280 C   0  0  2  0  0  3  0  0  0  0  0  0
  187.5600  176.6110  142.5630 N   0  0  0  0  0  0  0  0  0  0  0  0
  192.2810  174.8550  146.4130 C   0  0  0  0  0  2  0  0  0  0  0  0
  184.6480  179.0080  144.7000 C   0  0  0  0  0  2  0  0  0  0  0  0
  184.0690  177.9560  142.5780 C   0  0  0  0  0  2  0  0  0  0  0  0
  192.2390  174.7920  144.0370 O   0  0  0  0  0  0  0  0  0  0  0  0
  188.5460  176.9750  146.1700 C   0  0  0  0  0  0  0  0  0  0  0  0
  191.7690  175.7380  147.5170 C   0  0  0  0  0  3  0  0  0  0  0  0
  190.2920  175.7720  145.0290 C   0  0  0  0  0  0  0  0  0  0  0  0
  187.7670  176.9940  145.0400 C   0  0  0  0  0  0  0  0  0  0  0  0
  185.8100  178.4330  147.3490 O   0  0  0  0  0  0  0  0  0  0  0  0
  186.5880  177.5960  145.3460 N   0  0  0  0  0  0  0  0  0  0  0  0
  183.6190  179.0000  143.5890 C   0  0  0  0  0  2  0  0  0  0  0  0
  187.0450  179.0300  142.5770 C   0  0  0  0  0  1  0  0  0  0  0  0
  190.6190  176.4080  147.4310 C   0  0  0  0  0  3  0  0  0  0  0  0
  189.8050  176.3810  146.2030 C   0  0  0  0  0  0  0  0  0  0  0  0
  186.5200  177.6110  142.3740 C   0  0  2  0  0  3  0  0  0  0  0  0
  188.5090  173.4460  141.6480 C   0  0  0  0  0  2  0  0  0  0  0  0
  188.2520  172.6890  139.4570 C   0  0  0  0  0  1  0  0  0  0  0  0
  189.0720  172.5530  140.6460 N   0  0  0  0  0  2  0  0  0  0  0  0
  1 19  1  0  0  0  0
  2 13  1  0  0  0  0
  4  1  2  0  0  0  0
  4 20  1  0  0  0  0
  5  1  1  0  0  0  0
  6  8  2  0  0  0  0
  7 15  1  6  0  0  0
  7  9  1  0  0  0  0
  8 11  1  0  0  0  0
  8 12  1  0  0  0  0
  9 14  1  6  0  0  0
  9 22  1  0  0  0  0
 10  3  1  0  0  0  0
 10 21  2  0  0  0  0
 11 28  1  1  0  0  0
 11  5  1  0  0  0  0
 12  4  1  0  0  0  0
 13 18  1  0  0  0  0
 15 23  1  0  0  0  0
 16  2  2  0  0  0  0
 17 26  1  0  0  0  0
 17  3  1  0  0  0  0
 19  2  1  0  0  0  0
 19 26  2  0  0  0  0
 20 22  1  0  0  0  0
 20 17  2  0  0  0  0
 22 10  1  0  0  0  0
 23 14  1  0  0  0  0
 25 18  2  0  0  0  0
 26 25  1  0  0  0  0
 27 12  1  0  0  0  0
 27 24  1  1  0  0  0
 27  7  1  0  0  0  0
 29 30  1  0  0  0  0
 30 28  1  0  0  0  0
M  END
>  <MODEL>
1

>  <REMARK>
 VINA RESULT:      -8.6      0.000      0.000
  Name = 
  2 active torsions:
  status: ('A' for Active; 'I' for Inactive)
    1  A    between atoms: C_11  and  C_28
    2  A    between atoms: C_28  and  N_30
                            x       y       z     vdW  Elec       q    Type
                         _______ _______ _______ _____ _____    ______ ____

>  <TORSDO>
F 2

$$$$
=
 OpenBabel11112416203D

 30 35  0  0  1  0  0  0  0  0999 V2000
  187.3740  176.5370  144.3960 C   0  0  0  0  0  0  0  0  0  0  0  0
  185.4330  177.9180  145.3150 C   0  0  0  0  0  0  0  0  0  0  0  0
  189.7310  177.4030  147.6480 N   0  0  0  0  0  2  0  0  0  0  0  0
  188.6770  175.9930  144.5440 C   0  0  0  0  0  0  0  0  0  0  0  0
  186.6280  176.2340  143.2100 N   0  0  0  0  0  2  0  0  0  0  0  0
  188.7420  173.8760  141.5740 O   0  0  0  0  0  0  0  0  0  0  0  0
  191.5450  174.8590  143.9680 C   0  0  1  0  0  3  0  0  0  0  0  0
  188.4020  174.7900  142.3730 C   0  0  0  0  0  0  0  0  0  0  0  0
  191.8370  175.5420  145.2970 C   0  0  2  0  0  3  0  0  0  0  0  0
  190.8340  176.7420  147.2360 C   0  0  0  0  0  0  0  0  0  0  0  0
  187.2480  175.6750  142.0140 C   0  0  2  0  0  3  0  0  0  0  0  0
  189.1310  175.0020  143.5960 N   0  0  0  0  0  0  0  0  0  0  0  0
  185.0070  179.0350  146.2270 C   0  0  0  0  0  2  0  0  0  0  0  0
  192.6380  174.5390  146.1020 C   0  0  0  0  0  2  0  0  0  0  0  0
  192.7000  173.8920  143.7530 C   0  0  0  0  0  2  0  0  0  0  0  0
  184.6140  177.4980  144.4570 O   0  0  0  0  0  0  0  0  0  0  0  0
  188.8570  177.1650  146.6550 C   0  0  0  0  0  0  0  0  0  0  0  0
  185.8080  179.0950  147.4990 C   0  0  0  0  0  3  0  0  0  0  0  0
  186.8080  177.3620  145.4070 C   0  0  0  0  0  0  0  0  0  0  0  0
  189.4190  176.3740  145.6850 C   0  0  0  0  0  0  0  0  0  0  0  0
  191.9110  176.7720  147.8890 O   0  0  0  0  0  0  0  0  0  0  0  0
  190.6940  176.0880  146.0520 N   0  0  0  0  0  0  0  0  0  0  0  0
  193.4430  173.7710  145.0750 C   0  0  0  0  0  2  0  0  0  0  0  0
  189.9170  173.1920  145.0850 C   0  0  0  0  0  1  0  0  0  0  0  0
  186.9930  178.4990  147.6340 C   0  0  0  0  0  3  0  0  0  0  0  0
  187.5650  177.6740  146.5550 C   0  0  0  0  0  0  0  0  0  0  0  0
  190.2290  174.0970  143.8960 C   0  0  2  0  0  3  0  0  0  0  0  0
  187.6720  176.7850  141.0550 C   0  0  0  0  0  2  0  0  0  0  0  0
  185.7780  177.7600  140.1060 C   0  0  0  0  0  1  0  0  0  0  0  0
  186.7790  177.9310  141.1410 N   0  0  0  0  0  2  0  0  0  0  0  0
  1  4  2  0  0  0  0
  1 19  1  0  0  0  0
  2 19  1  0  0  0  0
  2 13  1  0  0  0  0
  4 20  1  0  0  0  0
  5  1  1  0  0  0  0
  6  8  2  0  0  0  0
  7 15  1  1  0  0  0
  7  9  1  0  0  0  0
  8 12  1  0  0  0  0
  9 22  1  0  0  0  0
  9 14  1  1  0  0  0
 10  3  1  0  0  0  0
 10 21  2  0  0  0  0
 11 28  1  6  0  0  0
 11  8  1  0  0  0  0
 11  5  1  0  0  0  0
 12 27  1  0  0  0  0
 12  4  1  0  0  0  0
 13 18  1  0  0  0  0
 15 23  1  0  0  0  0
 16  2  2  0  0  0  0
 17  3  1  0  0  0  0
 18 25  2  0  0  0  0
 19 26  2  0  0  0  0
 20 22  1  0  0  0  0
 20 17  2  0  0  0  0
 22 10  1  0  0  0  0
 23 14  1  0  0  0  0
 26 17  1  0  0  0  0
 26 25  1  0  0  0  0
 27  7  1  0  0  0  0
 27 24  1  1  0  0  0
 28 30  1  0  0  0  0
 29 30  1  0  0  0  0
M  END
>  <MODEL>
2

>  <REMARK>
 VINA RESULT:      -8.5      2.061      5.619
  Name = 
  2 active torsions:
  status: ('A' for Active; 'I' for Inactive)
    1  A    between atoms: C_11  and  C_28
    2  A    between atoms: C_28  and  N_30
                            x       y       z     vdW  Elec       q    Type
                         _______ _______ _______ _____ _____    ______ ____

>  <TORSDO>
F 2

$$$$
=
 OpenBabel11112416203D

 30 35  0  0  1  0  0  0  0  0999 V2000
  189.2870  174.8610  143.4030 C   0  0  0  0  0  0  0  0  0  0  0  0
  190.4300  173.0970  141.9530 C   0  0  0  0  0  0  0  0  0  0  0  0
  187.1770  176.3430  140.2040 N   0  0  0  0  0  2  0  0  0  0  0  0
  188.3480  175.9160  143.5480 C   0  0  0  0  0  0  0  0  0  0  0  0
  190.0250  174.4300  144.5520 N   0  0  0  0  0  2  0  0  0  0  0  0
  188.5340  176.3400  147.1650 O   0  0  0  0  0  0  0  0  0  0  0  0
  186.8580  178.5050  144.5080 C   0  0  1  0  0  3  0  0  0  0  0  0
  188.8480  176.0010  145.9930 C   0  0  0  0  0  0  0  0  0  0  0  0
  186.4720  178.5570  143.0370 C   0  0  2  0  0  3  0  0  0  0  0  0
  186.5530  177.3430  140.8640 C   0  0  0  0  0  0  0  0  0  0  0  0
  190.1070  175.2200  145.7750 C   0  0  2  0  0  3  0  0  0  0  0  0
  188.0270  176.3870  144.8750 N   0  0  0  0  0  0  0  0  0  0  0  0
  190.8540  172.6920  140.5690 C   0  0  0  0  0  2  0  0  0  0  0  0
  184.9860  178.8570  143.0190 C   0  0  0  0  0  2  0  0  0  0  0  0
  185.8780  179.4300  145.2140 C   0  0  0  0  0  2  0  0  0  0  0  0
  190.9160  172.4790  142.9360 O   0  0  0  0  0  0  0  0  0  0  0  0
  187.8950  175.7530  141.1740 C   0  0  0  0  0  0  0  0  0  0  0  0
  189.8680  173.0960  139.5080 C   0  0  0  0  0  3  0  0  0  0  0  0
  189.4900  174.2320  142.1430 C   0  0  0  0  0  0  0  0  0  0  0  0
  187.6940  176.3740  142.3820 C   0  0  0  0  0  0  0  0  0  0  0  0
  185.8130  178.1730  140.2710 O   0  0  0  0  0  0  0  0  0  0  0  0
  186.8230  177.3990  142.1950 N   0  0  0  0  0  0  0  0  0  0  0  0
  184.7500  179.7260  144.2360 C   0  0  0  0  0  2  0  0  0  0  0  0
  185.5550  176.3030  144.8630 C   0  0  0  0  0  1  0  0  0  0  0  0
  188.9410  174.0340  139.7050 C   0  0  0  0  0  3  0  0  0  0  0  0
  188.7760  174.6870  141.0160 C   0  0  0  0  0  0  0  0  0  0  0  0
  186.8060  177.1280  145.1540 C   0  0  2  0  0  3  0  0  0  0  0  0
  191.3320  176.1310  145.7510 C   0  0  0  0  0  2  0  0  0  0  0  0
  193.5110  176.3400  146.5560 C   0  0  0  0  0  1  0  0  0  0  0  0
  192.1710  175.9240  146.9220 N   0  0  0  0  0  2  0  0  0  0  0  0
  1  4  1  0  0  0  0
  1  5  1  0  0  0  0
  2 19  1  0  0  0  0
  2 16  2  0  0  0  0
  3 10  1  0  0  0  0
  3 17  1  0  0  0  0
  4 12  1  0  0  0  0
  5 11  1  0  0  0  0
  7 27  1  0  0  0  0
  7 15  1  1  0  0  0
  8  6  2  0  0  0  0
  9 14  1  1  0  0  0
  9  7  1  0  0  0  0
 10 22  1  0  0  0  0
 11 28  1  6  0  0  0
 11  8  1  0  0  0  0
 12 27  1  0  0  0  0
 12  8  1  0  0  0  0
 13  2  1  0  0  0  0
 14 23  1  0  0  0  0
 17 20  1  0  0  0  0
 18 25  2  0  0  0  0
 18 13  1  0  0  0  0
 19  1  2  0  0  0  0
 20  4  2  0  0  0  0
 21 10  2  0  0  0  0
 22 20  1  0  0  0  0
 22  9  1  0  0  0  0
 23 15  1  0  0  0  0
 25 26  1  0  0  0  0
 26 17  2  0  0  0  0
 26 19  1  0  0  0  0
 27 24  1  6  0  0  0
 28 30  1  0  0  0  0
 29 30  1  0  0  0  0
M  END
>  <MODEL>
3

>  <REMARK>
 VINA RESULT:      -7.8      1.867      5.050
  Name = 
  2 active torsions:
  status: ('A' for Active; 'I' for Inactive)
    1  A    between atoms: C_11  and  C_28
    2  A    between atoms: C_28  and  N_30
                            x       y       z     vdW  Elec       q    Type
                         _______ _______ _______ _____ _____    ______ ____

>  <TORSDO>
F 2

$$$$
=
 OpenBabel11112416203D

 30 35  0  0  1  0  0  0  0  0999 V2000
  187.8330  177.2380  143.7340 C   0  0  0  0  0  0  0  0  0  0  0  0
  186.0330  178.5770  142.5120 C   0  0  0  0  0  0  0  0  0  0  0  0
  188.5660  174.9160  140.4240 N   0  0  0  0  0  2  0  0  0  0  0  0
  188.8430  176.2400  143.7260 C   0  0  0  0  0  0  0  0  0  0  0  0
  187.5960  177.9750  144.9390 N   0  0  0  0  0  2  0  0  0  0  0  0
  190.2040  176.7980  147.0640 O   0  0  0  0  0  0  0  0  0  0  0  0
  190.8330  173.9700  144.5810 C   0  0  1  0  0  3  0  0  0  0  0  0
  189.4050  176.8200  146.0900 C   0  0  0  0  0  0  0  0  0  0  0  0
  190.5820  173.5210  143.1480 C   0  0  2  0  0  3  0  0  0  0  0  0
  189.4980  174.1150  140.9860 C   0  0  0  0  0  0  0  0  0  0  0  0
  188.1000  177.5400  146.2370 C   0  0  2  0  0  3  0  0  0  0  0  0
  189.7250  176.1340  144.8650 N   0  0  0  0  0  0  0  0  0  0  0  0
  185.0400  178.6080  141.3840 C   0  0  0  0  0  2  0  0  0  0  0  0
  191.9490  173.1970  142.5800 C   0  0  0  0  0  2  0  0  0  0  0  0
  192.0990  173.2460  145.0130 C   0  0  0  0  0  2  0  0  0  0  0  0
  185.9390  179.4430  143.4200 O   0  0  0  0  0  0  0  0  0  0  0  0
  188.2600  175.7570  141.4260 C   0  0  0  0  0  0  0  0  0  0  0  0
  185.5340  177.9160  140.1440 C   0  0  0  0  0  3  0  0  0  0  0  0
  187.0700  177.5130  142.5640 C   0  0  0  0  0  0  0  0  0  0  0  0
  188.9990  175.4760  142.5490 C   0  0  0  0  0  0  0  0  0  0  0  0
  190.0030  173.1420  140.3640 O   0  0  0  0  0  0  0  0  0  0  0  0
  189.8070  174.4200  142.2740 N   0  0  0  0  0  0  0  0  0  0  0  0
  192.7460  172.6780  143.7580 C   0  0  0  0  0  2  0  0  0  0  0  0
  191.9520  176.1610  143.7900 C   0  0  0  0  0  1  0  0  0  0  0  0
  186.5450  177.0450  140.1580 C   0  0  0  0  0  3  0  0  0  0  0  0
  187.2960  176.7600  141.3940 C   0  0  0  0  0  0  0  0  0  0  0  0
  191.0160  175.4690  144.7780 C   0  0  2  0  0  3  0  0  0  0  0  0
  187.0660  176.6810  146.9600 C   0  0  0  0  0  2  0  0  0  0  0  0
  185.4730  178.2440  147.6380 C   0  0  0  0  0  1  0  0  0  0  0  0
  185.7130  177.1550  146.7100 N   0  0  0  0  0  2  0  0  0  0  0  0
  1  5  1  0  0  0  0
  2 19  1  0  0  0  0
  2 16  2  0  0  0  0
  3 10  1  0  0  0  0
  3 17  1  0  0  0  0
  4  1  1  0  0  0  0
  4 12  1  0  0  0  0
  5 11  1  0  0  0  0
  7 27  1  0  0  0  0
  7 15  1  6  0  0  0
  8 11  1  0  0  0  0
  8  6  2  0  0  0  0
  9 14  1  6  0  0  0
  9  7  1  0  0  0  0
 10 22  1  0  0  0  0
 11 28  1  6  0  0  0
 12  8  1  0  0  0  0
 13  2  1  0  0  0  0
 14 23  1  0  0  0  0
 17 20  1  0  0  0  0
 18 25  2  0  0  0  0
 18 13  1  0  0  0  0
 19  1  2  0  0  0  0
 20  4  2  0  0  0  0
 21 10  2  0  0  0  0
 22 20  1  0  0  0  0
 22  9  1  0  0  0  0
 23 15  1  0  0  0  0
 25 26  1  0  0  0  0
 26 17  2  0  0  0  0
 26 19  1  0  0  0  0
 27 24  1  6  0  0  0
 27 12  1  0  0  0  0
 30 28  1  0  0  0  0
 30 29  1  0  0  0  0
M  END
>  <MODEL>
4

>  <REMARK>
 VINA RESULT:      -7.6      2.067      7.089
  Name = 
  2 active torsions:
  status: ('A' for Active; 'I' for Inactive)
    1  A    between atoms: C_11  and  C_28
    2  A    between atoms: C_28  and  N_30
                            x       y       z     vdW  Elec       q    Type
                         _______ _______ _______ _____ _____    ______ ____

>  <TORSDO>
F 2

$$$$
=
 OpenBabel11112416203D

 30 35  0  0  1  0  0  0  0  0999 V2000
  191.5480  174.3570  142.7770 C   0  0  0  0  0  0  0  0  0  0  0  0
  191.9580  173.0660  140.6110 C   0  0  0  0  0  0  0  0  0  0  0  0
  187.6410  175.1210  141.7600 N   0  0  0  0  0  2  0  0  0  0  0  0
  190.6690  175.0550  143.6470 C   0  0  0  0  0  0  0  0  0  0  0  0
  192.9120  174.1720  143.1740 N   0  0  0  0  0  2  0  0  0  0  0  0
  192.9150  175.4770  146.4900 O   0  0  0  0  0  0  0  0  0  0  0  0
  189.4970  177.0220  145.7920 C   0  0  1  0  0  3  0  0  0  0  0  0
  192.5190  175.2690  145.3120 C   0  0  0  0  0  0  0  0  0  0  0  0
  188.2950  176.9630  144.8600 C   0  0  2  0  0  3  0  0  0  0  0  0
  187.3280  175.8620  142.8450 C   0  0  0  0  0  0  0  0  0  0  0  0
  193.5250  174.9340  144.2550 C   0  0  2  0  0  3  0  0  0  0  0  0
  191.1230  175.3830  144.9780 N   0  0  0  0  0  0  0  0  0  0  0  0
  191.5320  172.8320  139.1890 C   0  0  0  0  0  2  0  0  0  0  0  0
  187.0920  176.7730  145.7620 C   0  0  0  0  0  2  0  0  0  0  0  0
  188.9620  177.5770  147.1030 C   0  0  0  0  0  2  0  0  0  0  0  0
  193.0770  172.6260  140.9840 O   0  0  0  0  0  0  0  0  0  0  0  0
  188.9190  174.7810  141.9960 C   0  0  0  0  0  0  0  0  0  0  0  0
  190.0420  172.9120  138.9990 C   0  0  0  0  0  3  0  0  0  0  0  0
  191.0860  173.8390  141.5340 C   0  0  0  0  0  0  0  0  0  0  0  0
  189.3530  175.2920  143.1940 C   0  0  0  0  0  0  0  0  0  0  0  0
  186.2040  176.4180  142.9710 O   0  0  0  0  0  0  0  0  0  0  0  0
  188.3300  175.9870  143.7550 N   0  0  0  0  0  0  0  0  0  0  0  0
  187.4430  177.5080  147.0380 C   0  0  0  0  0  2  0  0  0  0  0  0
  189.2770  174.5140  146.3750 C   0  0  0  0  0  1  0  0  0  0  0  0
  189.2330  173.5020  139.8800 C   0  0  0  0  0  3  0  0  0  0  0  0
  189.7480  174.0540  141.1460 C   0  0  0  0  0  0  0  0  0  0  0  0
  190.1920  175.6930  146.0530 C   0  0  2  0  0  3  0  0  0  0  0  0
  194.2080  176.1890  143.7160 C   0  0  0  0  0  2  0  0  0  0  0  0
  196.4450  176.7160  143.3230 C   0  0  0  0  0  1  0  0  0  0  0  0
  195.4860  176.4200  144.3700 N   0  0  0  0  0  2  0  0  0  0  0  0
  1  5  1  0  0  0  0
  1  4  1  0  0  0  0
  2 16  2  0  0  0  0
  2 19  1  0  0  0  0
  3 17  1  0  0  0  0
  3 10  1  0  0  0  0
  4 12  1  0  0  0  0
  5 11  1  0  0  0  0
  7 27  1  0  0  0  0
  7 15  1  1  0  0  0
  8  6  2  0  0  0  0
  9 14  1  1  0  0  0
  9  7  1  0  0  0  0
 10 21  2  0  0  0  0
 10 22  1  0  0  0  0
 11 28  1  6  0  0  0
 11  8  1  0  0  0  0
 12  8  1  0  0  0  0
 12 27  1  0  0  0  0
 13  2  1  0  0  0  0
 14 23  1  0  0  0  0
 17 20  1  0  0  0  0
 18 13  1  0  0  0  0
 18 25  2  0  0  0  0
 19  1  2  0  0  0  0
 20  4  2  0  0  0  0
 20 22  1  0  0  0  0
 22  9  1  0  0  0  0
 23 15  1  0  0  0  0
 25 26  1  0  0  0  0
 26 19  1  0  0  0  0
 26 17  2  0  0  0  0
 27 24  1  6  0  0  0
 28 30  1  0  0  0  0
 29 30  1  0  0  0  0
M  END
>  <MODEL>
5

>  <REMARK>
 VINA RESULT:      -7.2      2.486      5.749
  Name = 
  2 active torsions:
  status: ('A' for Active; 'I' for Inactive)
    1  A    between atoms: C_11  and  C_28
    2  A    between atoms: C_28  and  N_30
                            x       y       z     vdW  Elec       q    Type
                         _______ _______ _______ _____ _____    ______ ____

>  <TORSDO>
F 2

$$$$
=
 OpenBabel11112416203D

 30 35  0  0  1  0  0  0  0  0999 V2000
  192.4150  174.7080  143.2180 C   0  0  0  0  0  0  0  0  0  0  0  0
  194.8830  174.1000  142.9640 C   0  0  0  0  0  0  0  0  0  0  0  0
  192.9990  176.1150  147.0340 N   0  0  0  0  0  2  0  0  0  0  0  0
  191.3600  175.2820  143.9750 C   0  0  0  0  0  0  0  0  0  0  0  0
  192.1280  174.1890  141.9140 N   0  0  0  0  0  2  0  0  0  0  0  0
  188.7220  175.1350  141.4620 O   0  0  0  0  0  0  0  0  0  0  0  0
  188.5420  175.9430  145.1860 C   0  0  1  0  0  3  0  0  0  0  0  0
  189.8010  174.8890  142.0650 C   0  0  0  0  0  0  0  0  0  0  0  0
  189.3880  176.2300  146.4180 C   0  0  2  0  0  3  0  0  0  0  0  0
  191.7120  176.4290  147.2950 C   0  0  0  0  0  0  0  0  0  0  0  0
  190.7690  173.9230  141.4570 C   0  0  2  0  0  3  0  0  0  0  0  0
  190.0840  175.5010  143.3370 N   0  0  0  0  0  0  0  0  0  0  0  0
  196.1710  173.7600  143.6600 C   0  0  0  0  0  2  0  0  0  0  0  0
  188.8780  177.5480  146.9630 C   0  0  0  0  0  2  0  0  0  0  0  0
  187.2070  176.6220  145.4490 C   0  0  0  0  0  2  0  0  0  0  0  0
  194.7880  173.8710  141.7290 O   0  0  0  0  0  0  0  0  0  0  0  0
  192.9400  175.6580  145.7720 C   0  0  0  0  0  0  0  0  0  0  0  0
  196.3690  174.5260  144.9390 C   0  0  0  0  0  3  0  0  0  0  0  0
  193.7390  174.6520  143.7360 C   0  0  0  0  0  0  0  0  0  0  0  0
  191.6560  175.7110  145.2880 C   0  0  0  0  0  0  0  0  0  0  0  0
  191.3440  176.8510  148.4240 O   0  0  0  0  0  0  0  0  0  0  0  0
  190.8540  176.2150  146.2610 N   0  0  0  0  0  0  0  0  0  0  0  0
  187.4000  177.5590  146.6330 C   0  0  0  0  0  2  0  0  0  0  0  0
  189.6460  177.8750  143.8720 C   0  0  0  0  0  1  0  0  0  0  0  0
  195.3670  175.1270  145.5820 C   0  0  0  0  0  3  0  0  0  0  0  0
  194.0000  175.1410  145.0320 C   0  0  0  0  0  0  0  0  0  0  0  0
  189.1110  176.4450  143.8660 C   0  0  2  0  0  3  0  0  0  0  0  0
  190.3740  172.4770  141.7470 C   0  0  0  0  0  2  0  0  0  0  0  0
  189.7440  172.1180  139.5300 C   0  0  0  0  0  1  0  0  0  0  0  0
  190.6000  171.6230  140.5910 N   0  0  0  0  0  2  0  0  0  0  0  0
  1 19  2  0  0  0  0
  1  4  1  0  0  0  0
  2 13  1  0  0  0  0
  2 19  1  0  0  0  0
  3 10  1  0  0  0  0
  4 20  2  0  0  0  0
  5  1  1  0  0  0  0
  6  8  2  0  0  0  0
  7 15  1  1  0  0  0
  7  9  1  0  0  0  0
  8 12  1  0  0  0  0
  9 14  1  6  0  0  0
 10 21  2  0  0  0  0
 11 28  1  1  0  0  0
 11  5  1  0  0  0  0
 11  8  1  0  0  0  0
 12 27  1  0  0  0  0
 12  4  1  0  0  0  0
 13 18  1  0  0  0  0
 15 23  1  0  0  0  0
 16  2  2  0  0  0  0
 17  3  1  0  0  0  0
 18 25  2  0  0  0  0
 19 26  1  0  0  0  0
 20 17  1  0  0  0  0
 20 22  1  0  0  0  0
 22  9  1  0  0  0  0
 22 10  1  0  0  0  0
 23 14  1  0  0  0  0
 26 25  1  0  0  0  0
 26 17  2  0  0  0  0
 27 24  1  1  0  0  0
 27  7  1  0  0  0  0
 29 30  1  0  0  0  0
 30 28  1  0  0  0  0
M  END
>  <MODEL>
6

>  <REMARK>
 VINA RESULT:      -7.2      2.617      4.002
  Name = 
  2 active torsions:
  status: ('A' for Active; 'I' for Inactive)
    1  A    between atoms: C_11  and  C_28
    2  A    between atoms: C_28  and  N_30
                            x       y       z     vdW  Elec       q    Type
                         _______ _______ _______ _____ _____    ______ ____

>  <TORSDO>
F 2

$$$$
=
 OpenBabel11112416203D

 30 35  0  0  1  0  0  0  0  0999 V2000
  188.8100  175.1580  141.6690 C   0  0  0  0  0  0  0  0  0  0  0  0
  188.4910  173.9760  139.4270 C   0  0  0  0  0  0  0  0  0  0  0  0
  191.5790  172.3860  142.9080 N   0  0  0  0  0  2  0  0  0  0  0  0
  189.4730  175.2670  142.9200 C   0  0  0  0  0  0  0  0  0  0  0  0
  187.8170  176.1310  141.3250 N   0  0  0  0  0  2  0  0  0  0  0  0
  188.0620  178.4430  144.0270 O   0  0  0  0  0  0  0  0  0  0  0  0
  190.1430  175.8710  145.9250 C   0  0  1  0  0  3  0  0  0  0  0  0
  188.2020  177.3650  143.3890 C   0  0  0  0  0  0  0  0  0  0  0  0
  190.9720  174.6050  145.7610 C   0  0  2  0  0  3  0  0  0  0  0  0
  191.7900  172.9000  144.1390 C   0  0  0  0  0  0  0  0  0  0  0  0
  187.2210  177.0270  142.3100 C   0  0  2  0  0  3  0  0  0  0  0  0
  189.2690  176.4550  143.7160 N   0  0  0  0  0  0  0  0  0  0  0  0
  188.6060  172.6900  138.6580 C   0  0  0  0  0  2  0  0  0  0  0  0
  192.3160  174.9160  146.3870 C   0  0  0  0  0  2  0  0  0  0  0  0
  190.6840  176.5440  147.1780 C   0  0  0  0  0  2  0  0  0  0  0  0
  187.8160  174.9160  138.9310 O   0  0  0  0  0  0  0  0  0  0  0  0
  190.6890  173.2440  142.3810 C   0  0  0  0  0  0  0  0  0  0  0  0
  189.8060  171.8730  139.0530 C   0  0  0  0  0  3  0  0  0  0  0  0
  189.1270  174.1060  140.7650 C   0  0  0  0  0  0  0  0  0  0  0  0
  190.3880  174.2480  143.2670 C   0  0  0  0  0  0  0  0  0  0  0  0
  192.5410  172.3340  144.9780 O   0  0  0  0  0  0  0  0  0  0  0  0
  191.0990  174.0400  144.4050 N   0  0  0  0  0  0  0  0  0  0  0  0
  192.0050  175.8720  147.5190 C   0  0  0  0  0  2  0  0  0  0  0  0
  191.5920  177.1460  144.2070 C   0  0  0  0  0  1  0  0  0  0  0  0
  190.4590  172.0590  140.2000 C   0  0  0  0  0  3  0  0  0  0  0  0
  190.0860  173.1400  141.1300 C   0  0  0  0  0  0  0  0  0  0  0  0
  190.2000  176.8500  144.7610 C   0  0  2  0  0  3  0  0  0  0  0  0
  185.9410  176.4240  142.8860 C   0  0  0  0  0  2  0  0  0  0  0  0
  184.8250  178.2350  141.9310 C   0  0  0  0  0  1  0  0  0  0  0  0
  184.9420  177.4490  143.1440 N   0  0  0  0  0  2  0  0  0  0  0  0
  1  4  1  0  0  0  0
  2 19  1  0  0  0  0
  3 10  1  0  0  0  0
  4 20  2  0  0  0  0
  4 12  1  0  0  0  0
  5  1  1  0  0  0  0
  5 11  1  0  0  0  0
  7 15  1  1  0  0  0
  8 12  1  0  0  0  0
  8  6  2  0  0  0  0
  9  7  1  0  0  0  0
  9 14  1  6  0  0  0
 10 22  1  0  0  0  0
 10 21  2  0  0  0  0
 11 28  1  1  0  0  0
 11  8  1  0  0  0  0
 12 27  1  0  0  0  0
 13 18  1  0  0  0  0
 13  2  1  0  0  0  0
 14 23  1  0  0  0  0
 15 23  1  0  0  0  0
 16  2  2  0  0  0  0
 17  3  1  0  0  0  0
 17 20  1  0  0  0  0
 18 25  2  0  0  0  0
 19 26  1  0  0  0  0
 19  1  2  0  0  0  0
 20 22  1  0  0  0  0
 22  9  1  0  0  0  0
 25 26  1  0  0  0  0
 26 17  2  0  0  0  0
 27 24  1  6  0  0  0
 27  7  1  0  0  0  0
 28 30  1  0  0  0  0
 29 30  1  0  0  0  0
M  END
>  <MODEL>
7

>  <REMARK>
 VINA RESULT:      -7.1      1.998      6.345
  Name = 
  2 active torsions:
  status: ('A' for Active; 'I' for Inactive)
    1  A    between atoms: C_11  and  C_28
    2  A    between atoms: C_28  and  N_30
                            x       y       z     vdW  Elec       q    Type
                         _______ _______ _______ _____ _____    ______ ____

>  <TORSDO>
F 2

$$$$
=
 OpenBabel11112416203D

 30 35  0  0  1  0  0  0  0  0999 V2000
  190.3190  175.6500  144.4310 C   0  0  0  0  0  0  0  0  0  0  0  0
  191.7760  176.4080  146.3870 C   0  0  0  0  0  0  0  0  0  0  0  0
  193.4370  173.6000  142.7080 N   0  0  0  0  0  2  0  0  0  0  0  0
  190.1550  174.8980  143.2370 C   0  0  0  0  0  0  0  0  0  0  0  0
  189.2020  176.3830  144.9470 N   0  0  0  0  0  2  0  0  0  0  0  0
  186.5700  175.3770  142.7640 O   0  0  0  0  0  0  0  0  0  0  0  0
  189.1940  173.8970  140.4230 C   0  0  1  0  0  3  0  0  0  0  0  0
  187.7470  175.5590  143.1760 C   0  0  0  0  0  0  0  0  0  0  0  0
  190.6410  173.4310  140.3450 C   0  0  2  0  0  3  0  0  0  0  0  0
  192.7740  173.1840  141.6070 C   0  0  0  0  0  0  0  0  0  0  0  0
  188.0130  176.6640  144.1510 C   0  0  2  0  0  3  0  0  0  0  0  0
  188.8270  174.7400  142.6910 N   0  0  0  0  0  0  0  0  0  0  0  0
  193.1680  176.6750  146.8860 C   0  0  0  0  0  2  0  0  0  0  0  0
  190.5820  172.0130  139.8140 C   0  0  0  0  0  2  0  0  0  0  0  0
  188.4630  173.1200  139.3390 C   0  0  0  0  0  2  0  0  0  0  0  0
  190.8030  176.8530  147.0510 O   0  0  0  0  0  0  0  0  0  0  0  0
  192.4910  174.2760  143.3810 C   0  0  0  0  0  0  0  0  0  0  0  0
  194.1820  175.7000  146.3560 C   0  0  0  0  0  3  0  0  0  0  0  0
  191.5680  175.6710  145.1130 C   0  0  0  0  0  0  0  0  0  0  0  0
  191.2940  174.2520  142.7090 C   0  0  0  0  0  0  0  0  0  0  0  0
  193.3490  172.5470  140.6840 O   0  0  0  0  0  0  0  0  0  0  0  0
  191.4640  173.5430  141.5630 N   0  0  0  0  0  0  0  0  0  0  0  0
  189.3820  171.9930  138.8900 C   0  0  0  0  0  2  0  0  0  0  0  0
  188.6910  172.2900  142.3830 C   0  0  0  0  0  1  0  0  0  0  0  0
  193.9620  174.9450  145.2790 C   0  0  0  0  0  3  0  0  0  0  0  0
  192.6660  174.9680  144.5770 C   0  0  0  0  0  0  0  0  0  0  0  0
  188.5010  173.6710  141.7600 C   0  0  2  0  0  3  0  0  0  0  0  0
  188.1390  178.0130  143.4460 C   0  0  0  0  0  2  0  0  0  0  0  0
  186.2360  178.6670  144.6260 C   0  0  0  0  0  1  0  0  0  0  0  0
  186.8450  178.6630  143.3090 N   0  0  0  0  0  2  0  0  0  0  0  0
  1  5  1  0  0  0  0
  1 19  1  0  0  0  0
  2 13  1  0  0  0  0
  2 16  2  0  0  0  0
  3 17  1  0  0  0  0
  4  1  2  0  0  0  0
  6  8  2  0  0  0  0
  7 15  1  6  0  0  0
  7 27  1  0  0  0  0
  8 11  1  0  0  0  0
  9 14  1  1  0  0  0
  9  7  1  0  0  0  0
  9 22  1  0  0  0  0
 10  3  1  0  0  0  0
 11 28  1  6  0  0  0
 11  5  1  0  0  0  0
 12  8  1  0  0  0  0
 12  4  1  0  0  0  0
 17 26  1  0  0  0  0
 18 13  1  0  0  0  0
 19  2  1  0  0  0  0
 20  4  1  0  0  0  0
 20 17  2  0  0  0  0
 21 10  2  0  0  0  0
 22 10  1  0  0  0  0
 22 20  1  0  0  0  0
 23 15  1  0  0  0  0
 23 14  1  0  0  0  0
 25 18  2  0  0  0  0
 26 19  2  0  0  0  0
 26 25  1  0  0  0  0
 27 24  1  1  0  0  0
 27 12  1  0  0  0  0
 30 28  1  0  0  0  0
 30 29  1  0  0  0  0
M  END
>  <MODEL>
8

>  <REMARK>
 VINA RESULT:      -6.6      2.189      5.985
  Name = 
  2 active torsions:
  status: ('A' for Active; 'I' for Inactive)
    1  A    between atoms: C_11  and  C_28
    2  A    between atoms: C_28  and  N_30
                            x       y       z     vdW  Elec       q    Type
                         _______ _______ _______ _____ _____    ______ ____

>  <TORSDO>
F 2

$$$$
=
 OpenBabel11112416203D

 30 35  0  0  1  0  0  0  0  0999 V2000
  189.2440  175.8220  143.0990 C   0  0  0  0  0  0  0  0  0  0  0  0
  187.6560  177.8110  143.3060 C   0  0  0  0  0  0  0  0  0  0  0  0
  187.8070  174.8690  139.3690 N   0  0  0  0  0  2  0  0  0  0  0  0
  189.7810  174.7490  142.3390 C   0  0  0  0  0  0  0  0  0  0  0  0
  189.7580  176.0640  144.4140 N   0  0  0  0  0  2  0  0  0  0  0  0
  192.4500  173.7360  144.6100 O   0  0  0  0  0  0  0  0  0  0  0  0
  191.0830  172.0240  141.4870 C   0  0  1  0  0  3  0  0  0  0  0  0
  191.3860  174.2670  144.1910 C   0  0  0  0  0  0  0  0  0  0  0  0
  190.1550  172.2130  140.2950 C   0  0  2  0  0  3  0  0  0  0  0  0
  188.5660  173.7690  139.1740 C   0  0  0  0  0  0  0  0  0  0  0  0
  190.5610  175.0830  145.1360 C   0  0  2  0  0  3  0  0  0  0  0  0
  190.9530  174.0640  142.8330 N   0  0  0  0  0  0  0  0  0  0  0  0
  186.3680  178.4420  142.8550 C   0  0  0  0  0  2  0  0  0  0  0  0
  190.9980  171.9070  139.0730 C   0  0  0  0  0  2  0  0  0  0  0  0
  192.1030  170.9880  141.0420 C   0  0  0  0  0  2  0  0  0  0  0  0
  188.2170  178.2620  144.3390 O   0  0  0  0  0  0  0  0  0  0  0  0
  188.2150  175.2970  140.5750 C   0  0  0  0  0  0  0  0  0  0  0  0
  186.0770  178.2100  141.3980 C   0  0  0  0  0  3  0  0  0  0  0  0
  188.2180  176.6510  142.5660 C   0  0  0  0  0  0  0  0  0  0  0  0
  189.2000  174.4840  141.0790 C   0  0  0  0  0  0  0  0  0  0  0  0
  188.4350  173.0410  138.1530 O   0  0  0  0  0  0  0  0  0  0  0  0
  189.4400  173.4960  140.1790 N   0  0  0  0  0  0  0  0  0  0  0  0
  191.9770  170.8470  139.5320 C   0  0  0  0  0  2  0  0  0  0  0  0
  192.4490  174.1270  140.8650 C   0  0  0  0  0  1  0  0  0  0  0  0
  186.6640  177.2440  140.6900 C   0  0  0  0  0  3  0  0  0  0  0  0
  187.7040  176.3820  141.2810 C   0  0  0  0  0  0  0  0  0  0  0  0
  191.8090  173.2760  141.9590 C   0  0  2  0  0  3  0  0  0  0  0  0
  189.6760  174.2000  146.0130 C   0  0  0  0  0  2  0  0  0  0  0  0
  190.7880  175.2910  147.7480 C   0  0  0  0  0  1  0  0  0  0  0  0
  189.4960  174.7770  147.3360 N   0  0  0  0  0  2  0  0  0  0  0  0
  1  5  1  0  0  0  0
  2 16  2  0  0  0  0
  3 17  1  0  0  0  0
  4 12  1  0  0  0  0
  4  1  2  0  0  0  0
  5 11  1  0  0  0  0
  7 15  1  6  0  0  0
  7 27  1  0  0  0  0
  8  6  2  0  0  0  0
  8 11  1  0  0  0  0
  9 14  1  6  0  0  0
  9  7  1  0  0  0  0
 10  3  1  0  0  0  0
 10 22  1  0  0  0  0
 11 28  1  6  0  0  0
 12  8  1  0  0  0  0
 13  2  1  0  0  0  0
 14 23  1  0  0  0  0
 17 20  2  0  0  0  0
 17 26  1  0  0  0  0
 18 13  1  0  0  0  0
 19  1  1  0  0  0  0
 19  2  1  0  0  0  0
 20  4  1  0  0  0  0
 21 10  2  0  0  0  0
 22  9  1  0  0  0  0
 22 20  1  0  0  0  0
 23 15  1  0  0  0  0
 25 26  1  0  0  0  0
 25 18  2  0  0  0  0
 26 19  2  0  0  0  0
 27 24  1  6  0  0  0
 27 12  1  0  0  0  0
 28 30  1  0  0  0  0
 30 29  1  0  0  0  0
M  END
>  <MODEL>
9

>  <REMARK>
 VINA RESULT:      -6.6      2.303      7.226
  Name = 
  2 active torsions:
  status: ('A' for Active; 'I' for Inactive)
    1  A    between atoms: C_11  and  C_28
    2  A    between atoms: C_28  and  N_30
                            x       y       z     vdW  Elec       q    Type
                         _______ _______ _______ _____ _____    ______ ____

>  <TORSDO>
F 2

$$$$
