=
 OpenBabel11112417353D

 28 32  0  0  1  0  0  0  0  0999 V2000
  187.7630  176.3270  146.3000 C   0  0  0  0  0  0  0  0  0  0  0  0
  186.0830  177.1220  141.9210 O   0  0  0  0  0  0  0  0  0  0  0  0
  193.4060  175.9790  143.7660 O   0  0  0  0  0  0  0  0  0  0  0  0
  186.1240  178.4550  145.4880 C   0  0  0  0  0  3  0  0  0  0  0  0
  191.6430  174.7180  142.8570 N   0  0  0  0  0  0  0  0  0  0  0  0
  188.6710  175.2940  146.8880 C   0  0  0  0  0  2  0  0  0  0  0  0
  188.2980  178.0810  141.4100 O   0  0  0  0  0  0  0  0  0  0  0  0
  187.5020  176.8120  141.5400 S   0  0  0  0  0  0  0  0  0  0  0  0
  188.1800  174.6720  139.9070 C   0  0  0  0  0  0  0  0  0  0  0  0
  188.2380  175.7310  142.7450 C   0  0  1  0  0  3  0  0  0  0  0  0
  191.7490  176.9490  147.9870 O   0  0  0  0  0  0  0  0  0  0  0  0
  189.9360  175.3670  144.3810 C   0  0  1  0  0  3  0  0  0  0  0  0
  188.8510  173.9970  141.0740 C   0  0  0  0  0  2  0  0  0  0  0  0
  187.5240  175.9430  140.0390 N   0  0  0  0  0  2  0  0  0  0  0  0
  191.0300  176.1530  147.3270 C   0  0  0  0  0  0  0  0  0  0  0  0
  187.9170  176.8730  144.9910 C   0  0  0  0  0  0  0  0  0  0  0  0
  192.2040  175.6010  143.8060 C   0  0  0  0  0  0  0  0  0  0  0  0
  188.1640  174.0870  138.7930 O   0  0  0  0  0  0  0  0  0  0  0  0
  191.6390  175.4170  146.1760 C   0  0  0  0  0  2  0  0  0  0  0  0
  187.0950  177.9500  144.6250 C   0  0  0  0  0  3  0  0  0  0  0  0
  186.7820  176.8440  147.1550 C   0  0  0  0  0  3  0  0  0  0  0  0
  185.9600  177.8960  146.7520 C   0  0  0  0  0  3  0  0  0  0  0  0
  189.6700  175.9530  147.7200 N   0  0  0  0  0  2  0  0  0  0  0  0
  190.2460  174.4800  143.1580 C   0  0  1  0  0  3  0  0  0  0  0  0
  191.2390  176.0290  144.8430 C   0  0  2  0  0  3  0  0  0  0  0  0
  189.3770  175.0350  142.0520 C   0  0  2  0  0  3  0  0  0  0  0  0
  192.3940  174.0230  141.8240 C   0  0  0  0  0  1  0  0  0  0  0  0
  188.9070  176.4040  143.9340 C   0  0  2  0  0  3  0  0  0  0  0  0
  1  6  1  0  0  0  0
  1 21  1  0  0  0  0
  3 17  2  0  0  0  0
  4 22  1  0  0  0  0
  5 24  1  0  0  0  0
  5 17  1  0  0  0  0
  6 23  1  0  0  0  0
  7  8  2  0  0  0  0
  8  2  2  0  0  0  0
  9 14  1  0  0  0  0
  9 13  1  0  0  0  0
 10  8  1  6  0  0  0
 10 28  1  0  0  0  0
 12 25  1  0  0  0  0
 13 26  1  0  0  0  0
 14  8  1  0  0  0  0
 15 23  1  0  0  0  0
 15 11  2  0  0  0  0
 16  1  2  0  0  0  0
 17 25  1  0  0  0  0
 18  9  2  0  0  0  0
 19 15  1  0  0  0  0
 20 16  1  0  0  0  0
 20  4  2  0  0  0  0
 22 21  2  0  0  0  0
 24 12  1  0  0  0  0
 25 19  1  0  0  0  0
 26 10  1  0  0  0  0
 26 24  1  0  0  0  0
 27  5  1  0  0  0  0
 28 12  1  0  0  0  0
 28 16  1  0  0  0  0
M  END
>  <MODEL>
1

>  <REMARK>
 VINA RESULT:      -8.6      0.000      0.000
  Name = 
  0 active torsions:
  status: ('A' for Active; 'I' for Inactive)
                            x       y       z     vdW  Elec       q    Type
                         _______ _______ _______ _____ _____    ______ ____

>  <TORSDO>
F 0

$$$$
=
 OpenBabel11112417353D

 28 32  0  0  1  0  0  0  0  0999 V2000
  186.2720  177.5550  145.7760 C   0  0  0  0  0  0  0  0  0  0  0  0
  185.7430  177.3320  141.0540 O   0  0  0  0  0  0  0  0  0  0  0  0
  192.3690  176.9880  144.8380 O   0  0  0  0  0  0  0  0  0  0  0  0
  184.8900  179.3770  144.1510 C   0  0  0  0  0  3  0  0  0  0  0  0
  190.8900  175.4740  143.8170 N   0  0  0  0  0  0  0  0  0  0  0  0
  187.0020  176.7170  146.7760 C   0  0  0  0  0  2  0  0  0  0  0  0
  188.0160  178.2800  140.9070 O   0  0  0  0  0  0  0  0  0  0  0  0
  187.2120  177.0250  141.1080 S   0  0  0  0  0  0  0  0  0  0  0  0
  188.2770  174.6320  140.1890 C   0  0  0  0  0  0  0  0  0  0  0  0
  187.6220  176.2590  142.6590 C   0  0  1  0  0  3  0  0  0  0  0  0
  189.7070  178.7240  148.2140 O   0  0  0  0  0  0  0  0  0  0  0  0
  188.8560  176.3340  144.7000 C   0  0  1  0  0  3  0  0  0  0  0  0
  188.6340  174.2500  141.6020 C   0  0  0  0  0  2  0  0  0  0  0  0
  187.6090  175.8650  139.8810 N   0  0  0  0  0  2  0  0  0  0  0  0
  189.1770  177.7720  147.5850 C   0  0  0  0  0  0  0  0  0  0  0  0
  186.7490  177.8240  144.4600 C   0  0  0  0  0  0  0  0  0  0  0  0
  191.1950  176.5630  144.6620 C   0  0  0  0  0  0  0  0  0  0  0  0
  188.5400  173.8280  139.2580 O   0  0  0  0  0  0  0  0  0  0  0  0
  190.0540  176.8470  146.8040 C   0  0  0  0  0  2  0  0  0  0  0  0
  186.0460  178.7560  143.6800 C   0  0  0  0  0  3  0  0  0  0  0  0
  185.1080  178.1860  146.2340 C   0  0  0  0  0  3  0  0  0  0  0  0
  184.4140  179.0850  145.4250 C   0  0  0  0  0  3  0  0  0  0  0  0
  187.7610  177.5860  147.6660 N   0  0  0  0  0  2  0  0  0  0  0  0
  189.4620  175.2290  143.8100 C   0  0  1  0  0  3  0  0  0  0  0  0
  190.0020  177.1450  145.3140 C   0  0  2  0  0  3  0  0  0  0  0  0
  188.8980  175.4950  142.4320 C   0  0  2  0  0  3  0  0  0  0  0  0
  191.8750  174.6200  143.1740 C   0  0  0  0  0  1  0  0  0  0  0  0
  187.9720  177.1990  143.8030 C   0  0  2  0  0  3  0  0  0  0  0  0
  1 21  1  0  0  0  0
  1  6  1  0  0  0  0
  2  8  2  0  0  0  0
  4 22  1  0  0  0  0
  5 17  1  0  0  0  0
  6 23  1  0  0  0  0
  7  8  2  0  0  0  0
  9 13  1  0  0  0  0
 10  8  1  6  0  0  0
 10 28  1  0  0  0  0
 12 25  1  0  0  0  0
 13 26  1  0  0  0  0
 14  9  1  0  0  0  0
 14  8  1  0  0  0  0
 15 23  1  0  0  0  0
 15 11  2  0  0  0  0
 16  1  2  0  0  0  0
 17  3  2  0  0  0  0
 17 25  1  0  0  0  0
 18  9  2  0  0  0  0
 19 15  1  0  0  0  0
 20  4  2  0  0  0  0
 20 16  1  0  0  0  0
 22 21  2  0  0  0  0
 24  5  1  0  0  0  0
 24 12  1  0  0  0  0
 25 19  1  0  0  0  0
 26 10  1  0  0  0  0
 26 24  1  0  0  0  0
 27  5  1  0  0  0  0
 28 16  1  0  0  0  0
 28 12  1  0  0  0  0
M  END
>  <MODEL>
2

>  <REMARK>
 VINA RESULT:      -8.6      1.339      1.653
  Name = 
  0 active torsions:
  status: ('A' for Active; 'I' for Inactive)
                            x       y       z     vdW  Elec       q    Type
                         _______ _______ _______ _____ _____    ______ ____

>  <TORSDO>
F 0

$$$$
=
 OpenBabel11112417353D

 28 32  0  0  1  0  0  0  0  0999 V2000
  185.5390  177.4690  144.5250 C   0  0  0  0  0  0  0  0  0  0  0  0
  188.5480  175.6920  141.2970 O   0  0  0  0  0  0  0  0  0  0  0  0
  190.4080  178.1010  148.3020 O   0  0  0  0  0  0  0  0  0  0  0  0
  185.8570  178.3250  141.8710 C   0  0  0  0  0  3  0  0  0  0  0  0
  190.0230  176.0420  147.2360 N   0  0  0  0  0  0  0  0  0  0  0  0
  185.2770  177.1750  145.9680 C   0  0  0  0  0  2  0  0  0  0  0  0
  190.2870  177.0580  142.3890 O   0  0  0  0  0  0  0  0  0  0  0  0
  189.5090  175.7730  142.4470 S   0  0  0  0  0  0  0  0  0  0  0  0
  190.7630  173.5360  143.5120 C   0  0  0  0  0  0  0  0  0  0  0  0
  188.6340  175.6390  143.9900 C   0  0  1  0  0  3  0  0  0  0  0  0
  186.2440  180.1070  147.9390 O   0  0  0  0  0  0  0  0  0  0  0  0
  188.0300  176.6250  146.0770 C   0  0  1  0  0  3  0  0  0  0  0  0
  189.9730  173.7020  144.7840 C   0  0  0  0  0  2  0  0  0  0  0  0
  190.5950  174.4210  142.3930 N   0  0  0  0  0  2  0  0  0  0  0  0
  186.2690  178.9110  147.5490 C   0  0  0  0  0  0  0  0  0  0  0  0
  186.8310  177.4270  143.9230 C   0  0  0  0  0  0  0  0  0  0  0  0
  189.6940  177.3780  147.5560 C   0  0  0  0  0  0  0  0  0  0  0  0
  191.5650  172.5720  143.4160 O   0  0  0  0  0  0  0  0  0  0  0  0
  187.3820  178.0260  148.0120 C   0  0  0  0  0  2  0  0  0  0  0  0
  186.9590  177.8810  142.6010 C   0  0  0  0  0  3  0  0  0  0  0  0
  184.4410  177.9160  143.7780 C   0  0  0  0  0  3  0  0  0  0  0  0
  184.5950  178.3330  142.4570 C   0  0  0  0  0  3  0  0  0  0  0  0
  185.2180  178.4290  146.7080 N   0  0  0  0  0  2  0  0  0  0  0  0
  189.0220  175.4770  146.3540 C   0  0  1  0  0  3  0  0  0  0  0  0
  188.4330  177.8320  146.9300 C   0  0  2  0  0  3  0  0  0  0  0  0
  189.6360  175.1670  145.0070 C   0  0  2  0  0  3  0  0  0  0  0  0
  191.1160  175.2910  147.8310 C   0  0  0  0  0  1  0  0  0  0  0  0
  188.1130  176.9390  144.5840 C   0  0  2  0  0  3  0  0  0  0  0  0
  1  6  1  0  0  0  0
  2  8  2  0  0  0  0
  4 22  2  0  0  0  0
  4 20  1  0  0  0  0
  5 17  1  0  0  0  0
  5 27  1  0  0  0  0
  6 23  1  0  0  0  0
  7  8  2  0  0  0  0
  9 13  1  0  0  0  0
 10  8  1  6  0  0  0
 10 28  1  0  0  0  0
 10 26  1  0  0  0  0
 12 24  1  0  0  0  0
 12 25  1  0  0  0  0
 13 26  1  0  0  0  0
 14  8  1  0  0  0  0
 14  9  1  0  0  0  0
 15 11  2  0  0  0  0
 15 19  1  0  0  0  0
 16  1  1  0  0  0  0
 16 28  1  0  0  0  0
 17  3  2  0  0  0  0
 18  9  2  0  0  0  0
 20 16  2  0  0  0  0
 21  1  2  0  0  0  0
 22 21  1  0  0  0  0
 23 15  1  0  0  0  0
 24  5  1  0  0  0  0
 25 17  1  0  0  0  0
 25 19  1  0  0  0  0
 26 24  1  0  0  0  0
 28 12  1  0  0  0  0
M  END
>  <MODEL>
3

>  <REMARK>
 VINA RESULT:      -8.3      2.377      4.172
  Name = 
  0 active torsions:
  status: ('A' for Active; 'I' for Inactive)
                            x       y       z     vdW  Elec       q    Type
                         _______ _______ _______ _____ _____    ______ ____

>  <TORSDO>
F 0

$$$$
=
 OpenBabel11112417353D

 28 32  0  0  1  0  0  0  0  0999 V2000
  189.7490  173.1200  143.3680 C   0  0  0  0  0  0  0  0  0  0  0  0
  189.6610  176.0730  147.0970 O   0  0  0  0  0  0  0  0  0  0  0  0
  187.1830  177.6820  140.0540 O   0  0  0  0  0  0  0  0  0  0  0  0
  191.9080  173.8000  145.0260 C   0  0  0  0  0  3  0  0  0  0  0  0
  186.2330  177.0650  142.1130 N   0  0  0  0  0  0  0  0  0  0  0  0
  188.7270  172.6910  142.3640 C   0  0  0  0  0  2  0  0  0  0  0  0
  189.8000  177.9080  145.4540 O   0  0  0  0  0  0  0  0  0  0  0  0
  188.8860  176.9320  146.1410 S   0  0  0  0  0  0  0  0  0  0  0  0
  186.2640  177.7130  146.6160 C   0  0  0  0  0  0  0  0  0  0  0  0
  188.0440  175.9160  144.9480 C   0  0  1  0  0  3  0  0  0  0  0  0
  189.7410  173.9410  139.0740 O   0  0  0  0  0  0  0  0  0  0  0  0
  187.7290  175.2990  142.6640 C   0  0  1  0  0  3  0  0  0  0  0  0
  185.8020  176.8530  145.4690 C   0  0  0  0  0  2  0  0  0  0  0  0
  187.6460  177.7870  147.0010 N   0  0  0  0  0  2  0  0  0  0  0  0
  189.0120  173.8080  140.0910 C   0  0  0  0  0  0  0  0  0  0  0  0
  189.8300  174.4360  143.9120 C   0  0  0  0  0  0  0  0  0  0  0  0
  187.1690  176.9290  141.0650 C   0  0  0  0  0  0  0  0  0  0  0  0
  185.4090  178.3550  147.2780 O   0  0  0  0  0  0  0  0  0  0  0  0
  187.8390  174.7200  140.2610 C   0  0  0  0  0  2  0  0  0  0  0  0
  190.9340  174.7500  144.7210 C   0  0  0  0  0  3  0  0  0  0  0  0
  190.7350  172.1780  143.6860 C   0  0  0  0  0  3  0  0  0  0  0  0
  191.8040  172.5100  144.5170 C   0  0  0  0  0  3  0  0  0  0  0  0
  189.3060  172.7690  141.0290 N   0  0  0  0  0  2  0  0  0  0  0  0
  186.4760  176.0660  143.1350 C   0  0  1  0  0  3  0  0  0  0  0  0
  188.1210  175.8160  141.2760 C   0  0  2  0  0  3  0  0  0  0  0  0
  186.8980  176.7370  144.4230 C   0  0  2  0  0  3  0  0  0  0  0  0
  185.0940  177.9680  142.0980 C   0  0  0  0  0  1  0  0  0  0  0  0
  188.8280  175.5610  143.6930 C   0  0  2  0  0  3  0  0  0  0  0  0
  1 21  2  0  0  0  0
  1 16  1  0  0  0  0
  3 17  2  0  0  0  0
  5 24  1  0  0  0  0
  6  1  1  0  0  0  0
  7  8  2  0  0  0  0
  8 14  1  0  0  0  0
  8  2  2  0  0  0  0
  9 14  1  0  0  0  0
  9 18  2  0  0  0  0
 10  8  1  1  0  0  0
 11 15  2  0  0  0  0
 12 24  1  0  0  0  0
 12 28  1  0  0  0  0
 13  9  1  0  0  0  0
 15 19  1  0  0  0  0
 15 23  1  0  0  0  0
 16 20  2  0  0  0  0
 17 25  1  0  0  0  0
 17  5  1  0  0  0  0
 19 25  1  0  0  0  0
 20  4  1  0  0  0  0
 21 22  1  0  0  0  0
 22  4  2  0  0  0  0
 23  6  1  0  0  0  0
 24 26  1  0  0  0  0
 25 12  1  0  0  0  0
 26 10  1  0  0  0  0
 26 13  1  0  0  0  0
 27  5  1  0  0  0  0
 28 16  1  0  0  0  0
 28 10  1  0  0  0  0
M  END
>  <MODEL>
4

>  <REMARK>
 VINA RESULT:      -8.3      2.384      6.287
  Name = 
  0 active torsions:
  status: ('A' for Active; 'I' for Inactive)
                            x       y       z     vdW  Elec       q    Type
                         _______ _______ _______ _____ _____    ______ ____

>  <TORSDO>
F 0

$$$$
=
 OpenBabel11112417353D

 28 32  0  0  1  0  0  0  0  0999 V2000
  192.2930  175.4800  144.2940 C   0  0  0  0  0  0  0  0  0  0  0  0
  189.6650  174.3760  140.4840 O   0  0  0  0  0  0  0  0  0  0  0  0
  186.9970  176.8600  147.1960 O   0  0  0  0  0  0  0  0  0  0  0  0
  192.3670  173.0830  142.8360 C   0  0  0  0  0  3  0  0  0  0  0  0
  187.4300  177.7710  145.0730 N   0  0  0  0  0  0  0  0  0  0  0  0
  192.3470  176.6640  145.2050 C   0  0  0  0  0  2  0  0  0  0  0  0
  187.8570  173.8430  142.0760 O   0  0  0  0  0  0  0  0  0  0  0  0
  188.5630  174.9430  141.3330 S   0  0  0  0  0  0  0  0  0  0  0  0
  187.0840  177.1670  140.5770 C   0  0  0  0  0  0  0  0  0  0  0  0
  189.2190  176.1440  142.4680 C   0  0  1  0  0  3  0  0  0  0  0  0
  191.2550  175.6120  148.5380 O   0  0  0  0  0  0  0  0  0  0  0  0
  189.5830  176.8210  144.7270 C   0  0  1  0  0  3  0  0  0  0  0  0
  187.7040  177.9580  141.6990 C   0  0  0  0  0  2  0  0  0  0  0  0
  187.4370  175.7970  140.3290 N   0  0  0  0  0  2  0  0  0  0  0  0
  191.2300  176.2590  147.4600 C   0  0  0  0  0  0  0  0  0  0  0  0
  191.0910  174.9690  143.7200 C   0  0  0  0  0  0  0  0  0  0  0  0
  187.7710  177.0100  146.2130 C   0  0  0  0  0  0  0  0  0  0  0  0
  186.2610  177.7360  139.8150 O   0  0  0  0  0  0  0  0  0  0  0  0
  190.0280  177.0920  147.1470 C   0  0  0  0  0  2  0  0  0  0  0  0
  191.1590  173.7570  143.0150 C   0  0  0  0  0  3  0  0  0  0  0  0
  193.4980  174.7920  144.1040 C   0  0  0  0  0  3  0  0  0  0  0  0
  193.5390  173.6060  143.3730 C   0  0  0  0  0  3  0  0  0  0  0  0
  192.3620  176.2040  146.5870 N   0  0  0  0  0  2  0  0  0  0  0  0
  188.5140  177.7470  144.1120 C   0  0  1  0  0  3  0  0  0  0  0  0
  189.1230  176.4130  146.1310 C   0  0  2  0  0  3  0  0  0  0  0  0
  188.0720  177.0380  142.8510 C   0  0  2  0  0  3  0  0  0  0  0  0
  186.2360  178.5910  144.9490 C   0  0  0  0  0  1  0  0  0  0  0  0
  189.7130  175.6100  143.8050 C   0  0  2  0  0  3  0  0  0  0  0  0
  1  6  1  0  0  0  0
  2  8  2  0  0  0  0
  4 20  2  0  0  0  0
  4 22  1  0  0  0  0
  5 17  1  0  0  0  0
  6 23  1  0  0  0  0
  8  7  2  0  0  0  0
  9 13  1  0  0  0  0
 10  8  1  6  0  0  0
 10 26  1  0  0  0  0
 10 28  1  0  0  0  0
 12 25  1  0  0  0  0
 13 26  1  0  0  0  0
 14  9  1  0  0  0  0
 14  8  1  0  0  0  0
 15 11  2  0  0  0  0
 16 28  1  0  0  0  0
 16  1  2  0  0  0  0
 17  3  2  0  0  0  0
 18  9  2  0  0  0  0
 19 15  1  0  0  0  0
 20 16  1  0  0  0  0
 21  1  1  0  0  0  0
 22 21  2  0  0  0  0
 23 15  1  0  0  0  0
 24 12  1  0  0  0  0
 24  5  1  0  0  0  0
 25 17  1  0  0  0  0
 25 19  1  0  0  0  0
 26 24  1  0  0  0  0
 27  5  1  0  0  0  0
 28 12  1  0  0  0  0
M  END
>  <MODEL>
5

>  <REMARK>
 VINA RESULT:      -8.1      2.022      4.767
  Name = 
  0 active torsions:
  status: ('A' for Active; 'I' for Inactive)
                            x       y       z     vdW  Elec       q    Type
                         _______ _______ _______ _____ _____    ______ ____

>  <TORSDO>
F 0

$$$$
=
 OpenBabel11112417353D

 28 32  0  0  1  0  0  0  0  0999 V2000
  187.5520  176.4320  144.0770 C   0  0  0  0  0  0  0  0  0  0  0  0
  190.2860  177.5410  147.8090 O   0  0  0  0  0  0  0  0  0  0  0  0
  191.5160  171.8180  142.9020 O   0  0  0  0  0  0  0  0  0  0  0  0
  186.7170  176.7570  146.7360 C   0  0  0  0  0  3  0  0  0  0  0  0
  192.3340  173.9940  143.2480 N   0  0  0  0  0  0  0  0  0  0  0  0
  187.8310  176.1750  142.6300 C   0  0  0  0  0  2  0  0  0  0  0  0
  190.9230  175.1580  147.8570 O   0  0  0  0  0  0  0  0  0  0  0  0
  191.1770  176.4910  147.2100 S   0  0  0  0  0  0  0  0  0  0  0  0
  193.7480  177.0390  146.3180 C   0  0  0  0  0  0  0  0  0  0  0  0
  190.9170  176.3940  145.4530 C   0  0  1  0  0  3  0  0  0  0  0  0
  187.0660  172.6660  141.9100 O   0  0  0  0  0  0  0  0  0  0  0  0
  190.2500  175.0970  143.5650 C   0  0  1  0  0  3  0  0  0  0  0  0
  193.3070  176.7900  144.8990 C   0  0  0  0  0  2  0  0  0  0  0  0
  192.8370  176.9450  147.4240 N   0  0  0  0  0  2  0  0  0  0  0  0
  187.7720  173.7020  142.0130 C   0  0  0  0  0  0  0  0  0  0  0  0
  188.4210  176.0420  145.1390 C   0  0  0  0  0  0  0  0  0  0  0  0
  191.3000  173.0430  143.1100 C   0  0  0  0  0  0  0  0  0  0  0  0
  194.9410  177.3730  146.5340 O   0  0  0  0  0  0  0  0  0  0  0  0
  189.2570  173.5790  141.8810 C   0  0  0  0  0  2  0  0  0  0  0  0
  187.9640  176.1990  146.4570 C   0  0  0  0  0  3  0  0  0  0  0  0
  186.3030  176.9920  144.3740 C   0  0  0  0  0  3  0  0  0  0  0  0
  185.8890  177.1620  145.6940 C   0  0  0  0  0  3  0  0  0  0  0  0
  187.1320  174.9650  142.2160 N   0  0  0  0  0  2  0  0  0  0  0  0
  191.7760  175.3090  143.4900 C   0  0  1  0  0  3  0  0  0  0  0  0
  189.9480  173.6310  143.2350 C   0  0  2  0  0  3  0  0  0  0  0  0
  192.1650  175.7890  144.8720 C   0  0  2  0  0  3  0  0  0  0  0  0
  193.7440  173.7270  143.0190 C   0  0  0  0  0  1  0  0  0  0  0  0
  189.8160  175.4530  144.9860 C   0  0  2  0  0  3  0  0  0  0  0  0
  1 21  2  0  0  0  0
  1 16  1  0  0  0  0
  3 17  2  0  0  0  0
  5 24  1  0  0  0  0
  6  1  1  0  0  0  0
  8 14  1  0  0  0  0
  8  2  2  0  0  0  0
  8  7  2  0  0  0  0
  9 18  2  0  0  0  0
  9 14  1  0  0  0  0
 10  8  1  1  0  0  0
 11 15  2  0  0  0  0
 12 28  1  0  0  0  0
 13  9  1  0  0  0  0
 15 23  1  0  0  0  0
 16 20  2  0  0  0  0
 17 25  1  0  0  0  0
 17  5  1  0  0  0  0
 19 15  1  0  0  0  0
 19 25  1  0  0  0  0
 20  4  1  0  0  0  0
 21 22  1  0  0  0  0
 22  4  2  0  0  0  0
 23  6  1  0  0  0  0
 24 12  1  0  0  0  0
 24 26  1  0  0  0  0
 25 12  1  0  0  0  0
 26 13  1  0  0  0  0
 26 10  1  0  0  0  0
 27  5  1  0  0  0  0
 28 16  1  0  0  0  0
 28 10  1  0  0  0  0
M  END
>  <MODEL>
6

>  <REMARK>
 VINA RESULT:      -8.0      2.484      5.319
  Name = 
  0 active torsions:
  status: ('A' for Active; 'I' for Inactive)
                            x       y       z     vdW  Elec       q    Type
                         _______ _______ _______ _____ _____    ______ ____

>  <TORSDO>
F 0

$$$$
=
 OpenBabel11112417353D

 28 32  0  0  1  0  0  0  0  0999 V2000
  189.1300  175.7320  144.5650 C   0  0  0  0  0  0  0  0  0  0  0  0
  193.3030  175.6570  146.8510 O   0  0  0  0  0  0  0  0  0  0  0  0
  191.7680  172.1910  140.2200 O   0  0  0  0  0  0  0  0  0  0  0  0
  189.5690  175.0130  147.2420 C   0  0  0  0  0  3  0  0  0  0  0  0
  192.8410  174.1590  140.9240 N   0  0  0  0  0  0  0  0  0  0  0  0
  188.7280  176.0330  143.1570 C   0  0  0  0  0  2  0  0  0  0  0  0
  193.6860  173.4760  145.7630 O   0  0  0  0  0  0  0  0  0  0  0  0
  193.7480  174.9680  145.5930 S   0  0  0  0  0  0  0  0  0  0  0  0
  195.7110  176.0110  143.9290 C   0  0  0  0  0  0  0  0  0  0  0  0
  192.7410  175.4850  144.2210 C   0  0  1  0  0  3  0  0  0  0  0  0
  187.4230  172.9630  141.6450 O   0  0  0  0  0  0  0  0  0  0  0  0
  191.2090  174.8980  142.4890 C   0  0  1  0  0  3  0  0  0  0  0  0
  194.6760  176.2510  142.8610 C   0  0  0  0  0  2  0  0  0  0  0  0
  195.3680  175.4530  145.2080 N   0  0  0  0  0  2  0  0  0  0  0  0
  188.1910  173.9490  141.7910 C   0  0  0  0  0  0  0  0  0  0  0  0
  190.3380  175.0620  144.9240 C   0  0  0  0  0  0  0  0  0  0  0  0
  191.7720  173.2370  140.9230 C   0  0  0  0  0  0  0  0  0  0  0  0
  196.9030  176.3450  143.7060 O   0  0  0  0  0  0  0  0  0  0  0  0
  189.4530  174.0060  140.9900 C   0  0  0  0  0  2  0  0  0  0  0  0
  190.5160  174.6990  146.2690 C   0  0  0  0  0  3  0  0  0  0  0  0
  188.1900  176.0420  145.5560 C   0  0  0  0  0  3  0  0  0  0  0  0
  188.4090  175.6940  146.8880 C   0  0  0  0  0  3  0  0  0  0  0  0
  187.8160  174.9970  142.6890 N   0  0  0  0  0  2  0  0  0  0  0  0
  192.5620  175.2490  141.8370 C   0  0  1  0  0  3  0  0  0  0  0  0
  190.6660  173.6280  141.8250 C   0  0  2  0  0  3  0  0  0  0  0  0
  193.5530  175.2340  142.9800 C   0  0  2  0  0  3  0  0  0  0  0  0
  193.9820  174.1100  140.0250 C   0  0  0  0  0  1  0  0  0  0  0  0
  191.4700  174.6850  143.9790 C   0  0  2  0  0  3  0  0  0  0  0  0
  1 16  2  0  0  0  0
  1 21  1  0  0  0  0
  3 17  2  0  0  0  0
  5 24  1  0  0  0  0
  6  1  1  0  0  0  0
  8  7  2  0  0  0  0
  8  2  2  0  0  0  0
  9 14  1  0  0  0  0
 10  8  1  1  0  0  0
 11 15  2  0  0  0  0
 12 28  1  0  0  0  0
 13 26  1  0  0  0  0
 13  9  1  0  0  0  0
 14  8  1  0  0  0  0
 15 23  1  0  0  0  0
 16 20  1  0  0  0  0
 17  5  1  0  0  0  0
 17 25  1  0  0  0  0
 18  9  2  0  0  0  0
 19 15  1  0  0  0  0
 19 25  1  0  0  0  0
 20  4  2  0  0  0  0
 21 22  2  0  0  0  0
 22  4  1  0  0  0  0
 23  6  1  0  0  0  0
 24 12  1  0  0  0  0
 24 26  1  0  0  0  0
 25 12  1  0  0  0  0
 26 10  1  0  0  0  0
 27  5  1  0  0  0  0
 28 10  1  0  0  0  0
 28 16  1  0  0  0  0
M  END
>  <MODEL>
7

>  <REMARK>
 VINA RESULT:      -7.4      2.823      5.762
  Name = 
  0 active torsions:
  status: ('A' for Active; 'I' for Inactive)
                            x       y       z     vdW  Elec       q    Type
                         _______ _______ _______ _____ _____    ______ ____

>  <TORSDO>
F 0

$$$$
=
 OpenBabel11112417353D

 28 32  0  0  1  0  0  0  0  0999 V2000
  188.8270  175.4620  146.3340 C   0  0  0  0  0  0  0  0  0  0  0  0
  187.6480  173.9820  141.9690 O   0  0  0  0  0  0  0  0  0  0  0  0
  194.7530  174.9130  144.6130 O   0  0  0  0  0  0  0  0  0  0  0  0
  187.0850  176.7350  144.5390 C   0  0  0  0  0  3  0  0  0  0  0  0
  193.2690  173.1250  144.2590 N   0  0  0  0  0  0  0  0  0  0  0  0
  189.7580  174.9470  147.3840 C   0  0  0  0  0  2  0  0  0  0  0  0
  189.7930  174.9470  141.2270 O   0  0  0  0  0  0  0  0  0  0  0  0
  189.1290  173.7590  141.8650 S   0  0  0  0  0  0  0  0  0  0  0  0
  190.2400  171.2520  141.4280 C   0  0  0  0  0  0  0  0  0  0  0  0
  189.8170  173.4460  143.4750 C   0  0  1  0  0  3  0  0  0  0  0  0
  192.4710  177.3700  147.8150 O   0  0  0  0  0  0  0  0  0  0  0  0
  191.3200  174.1050  145.2070 C   0  0  1  0  0  3  0  0  0  0  0  0
  190.8250  171.2720  142.8160 C   0  0  0  0  0  2  0  0  0  0  0  0
  189.4380  172.3340  140.9260 N   0  0  0  0  0  2  0  0  0  0  0  0
  191.9340  176.2650  147.5420 C   0  0  0  0  0  0  0  0  0  0  0  0
  189.0880  175.3940  144.9330 C   0  0  0  0  0  0  0  0  0  0  0  0
  193.6040  174.4100  144.7400 C   0  0  0  0  0  0  0  0  0  0  0  0
  190.4310  170.2430  140.7020 O   0  0  0  0  0  0  0  0  0  0  0  0
  192.7620  175.2020  146.8930 C   0  0  0  0  0  2  0  0  0  0  0  0
  188.2080  176.0590  144.0640 C   0  0  0  0  0  3  0  0  0  0  0  0
  187.6940  176.1450  146.7940 C   0  0  0  0  0  3  0  0  0  0  0  0
  186.8220  176.7710  145.9040 C   0  0  0  0  0  3  0  0  0  0  0  0
  190.5630  176.0510  147.8920 N   0  0  0  0  0  2  0  0  0  0  0  0
  191.8790  172.8310  144.5430 C   0  0  1  0  0  3  0  0  0  0  0  0
  192.4730  175.0950  145.4040 C   0  0  2  0  0  3  0  0  0  0  0  0
  191.1040  172.7010  143.2500 C   0  0  2  0  0  3  0  0  0  0  0  0
  194.2170  172.1720  143.7070 C   0  0  0  0  0  1  0  0  0  0  0  0
  190.2510  174.6680  144.2720 C   0  0  2  0  0  3  0  0  0  0  0  0
  1 21  1  0  0  0  0
  1  6  1  0  0  0  0
  3 17  2  0  0  0  0
  4 22  1  0  0  0  0
  5 24  1  0  0  0  0
  5 17  1  0  0  0  0
  6 23  1  0  0  0  0
  7  8  2  0  0  0  0
  8  2  2  0  0  0  0
  9 13  1  0  0  0  0
 10  8  1  6  0  0  0
 10 28  1  0  0  0  0
 12 25  1  0  0  0  0
 13 26  1  0  0  0  0
 14  9  1  0  0  0  0
 14  8  1  0  0  0  0
 15 11  2  0  0  0  0
 15 23  1  0  0  0  0
 16  1  2  0  0  0  0
 17 25  1  0  0  0  0
 18  9  2  0  0  0  0
 19 15  1  0  0  0  0
 20  4  2  0  0  0  0
 20 16  1  0  0  0  0
 22 21  2  0  0  0  0
 24 12  1  0  0  0  0
 25 19  1  0  0  0  0
 26 10  1  0  0  0  0
 26 24  1  0  0  0  0
 27  5  1  0  0  0  0
 28 16  1  0  0  0  0
 28 12  1  0  0  0  0
M  END
>  <MODEL>
8

>  <REMARK>
 VINA RESULT:      -7.4      2.259      2.660
  Name = 
  0 active torsions:
  status: ('A' for Active; 'I' for Inactive)
                            x       y       z     vdW  Elec       q    Type
                         _______ _______ _______ _____ _____    ______ ____

>  <TORSDO>
F 0

$$$$
=
 OpenBabel11112417353D

 28 32  0  0  1  0  0  0  0  0999 V2000
  186.3880  177.8120  141.6040 C   0  0  0  0  0  0  0  0  0  0  0  0
  184.2100  179.0800  145.6390 O   0  0  0  0  0  0  0  0  0  0  0  0
  189.4210  173.5430  144.9150 O   0  0  0  0  0  0  0  0  0  0  0  0
  183.6220  178.0310  142.0260 C   0  0  0  0  0  3  0  0  0  0  0  0
  189.3700  175.7720  145.6590 N   0  0  0  0  0  0  0  0  0  0  0  0
  187.8180  177.5980  141.2240 C   0  0  0  0  0  2  0  0  0  0  0  0
  184.5630  176.7550  146.3820 O   0  0  0  0  0  0  0  0  0  0  0  0
  185.1920  178.1120  146.2340 S   0  0  0  0  0  0  0  0  0  0  0  0
  187.1050  178.8750  148.0960 C   0  0  0  0  0  0  0  0  0  0  0  0
  186.6520  178.0200  145.2240 C   0  0  1  0  0  3  0  0  0  0  0  0
  188.2910  174.0500  140.4460 O   0  0  0  0  0  0  0  0  0  0  0  0
  188.1080  176.7010  143.8700 C   0  0  1  0  0  3  0  0  0  0  0  0
  188.1900  178.6120  147.0840 C   0  0  0  0  0  2  0  0  0  0  0  0
  185.7150  178.6940  147.7820 N   0  0  0  0  0  2  0  0  0  0  0  0
  188.4630  175.1380  141.0550 C   0  0  0  0  0  0  0  0  0  0  0  0
  185.8420  177.4770  142.8790 C   0  0  0  0  0  0  0  0  0  0  0  0
  189.0800  174.7430  144.7360 C   0  0  0  0  0  0  0  0  0  0  0  0
  187.4260  179.3000  149.2350 O   0  0  0  0  0  0  0  0  0  0  0  0
  189.2460  175.1340  142.3290 C   0  0  0  0  0  2  0  0  0  0  0  0
  184.4520  177.5790  143.0500 C   0  0  0  0  0  3  0  0  0  0  0  0
  185.5400  178.2670  140.5860 C   0  0  0  0  0  3  0  0  0  0  0  0
  184.1670  178.3850  140.7950 C   0  0  0  0  0  3  0  0  0  0  0  0
  187.9360  176.3420  140.4930 N   0  0  0  0  0  2  0  0  0  0  0  0
  188.8420  177.0350  145.1850 C   0  0  1  0  0  3  0  0  0  0  0  0
  188.3400  175.2210  143.5470 C   0  0  2  0  0  3  0  0  0  0  0  0
  187.7560  177.5240  146.1170 C   0  0  2  0  0  3  0  0  0  0  0  0
  190.2140  175.6200  146.8330 C   0  0  0  0  0  1  0  0  0  0  0  0
  186.6270  177.0020  144.0940 C   0  0  2  0  0  3  0  0  0  0  0  0
  1 16  1  0  0  0  0
  2  8  2  0  0  0  0
  4 20  1  0  0  0  0
  5 27  1  0  0  0  0
  6  1  1  0  0  0  0
  8  7  2  0  0  0  0
  8 14  1  0  0  0  0
  9 18  2  0  0  0  0
 10 26  1  0  0  0  0
 10  8  1  1  0  0  0
 11 15  2  0  0  0  0
 12 28  1  0  0  0  0
 12 24  1  0  0  0  0
 13  9  1  0  0  0  0
 14  9  1  0  0  0  0
 15 19  1  0  0  0  0
 16 20  2  0  0  0  0
 16 28  1  0  0  0  0
 17  3  2  0  0  0  0
 17  5  1  0  0  0  0
 19 25  1  0  0  0  0
 21 22  1  0  0  0  0
 21  1  2  0  0  0  0
 22  4  2  0  0  0  0
 23 15  1  0  0  0  0
 23  6  1  0  0  0  0
 24  5  1  0  0  0  0
 24 26  1  0  0  0  0
 25 12  1  0  0  0  0
 25 17  1  0  0  0  0
 26 13  1  0  0  0  0
 28 10  1  0  0  0  0
M  END
>  <MODEL>
9

>  <REMARK>
 VINA RESULT:      -7.3      3.053      5.927
  Name = 
  0 active torsions:
  status: ('A' for Active; 'I' for Inactive)
                            x       y       z     vdW  Elec       q    Type
                         _______ _______ _______ _____ _____    ______ ____

>  <TORSDO>
F 0

$$$$
