=
 OpenBabel11112416283D

 32 37  0  0  1  0  0  0  0  0999 V2000
  192.4880  174.9070  144.0740 C   0  0  0  0  0  2  0  0  0  0  0  0
  187.9790  177.3860  143.8310 C   0  0  0  0  0  0  0  0  0  0  0  0
  185.9320  178.1290  148.1590 N   0  0  0  0  0  0  0  0  0  0  0  0
  184.7250  178.3560  147.5820 C   0  0  0  0  0  3  0  0  0  0  0  0
  186.5570  177.5680  141.7800 C   0  0  0  0  0  0  0  0  0  0  0  0
  185.2860  177.8100  141.2760 C   0  0  0  0  0  0  0  0  0  0  0  0
  190.4390  177.3330  143.6990 N   0  0  1  0  0  0  0  0  0  0  0  0
  189.4210  177.2740  145.9210 C   0  0  0  0  0  2  0  0  0  0  0  0
  183.1980  178.2680  141.3120 C   0  0  0  0  0  0  0  0  0  0  0  0
  191.8380  176.7620  145.7110 C   0  0  0  0  0  2  0  0  0  0  0  0
  187.0310  177.8350  147.4170 C   0  0  0  0  0  3  0  0  0  0  0  0
  188.0810  177.4450  145.2410 C   0  0  0  0  0  0  0  0  0  0  0  0
  186.9500  177.7540  146.0170 C   0  0  0  0  0  0  0  0  0  0  0  0
  185.5870  177.9220  144.0040 C   0  0  0  0  0  0  0  0  0  0  0  0
  183.5030  178.1180  140.0020 N   0  0  0  0  0  0  0  0  0  0  0  0
  191.8490  175.4370  142.7810 C   0  0  0  0  0  2  0  0  0  0  0  0
  190.4750  176.6600  145.0080 C   0  0  2  0  0  3  0  0  0  0  0  0
  184.8310  177.8270  139.9690 C   0  0  0  0  0  3  0  0  0  0  0  0
  191.5360  176.9460  142.7970 C   0  0  0  0  0  2  0  0  0  0  0  0
  192.9820  176.0200  145.0030 C   0  0  1  0  0  3  0  0  0  0  0  0
  184.5890  178.2890  146.1960 C   0  0  0  0  0  3  0  0  0  0  0  0
  185.7040  177.9870  145.4000 C   0  0  0  0  0  0  0  0  0  0  0  0
  184.3760  178.1480  143.4120 N   0  0  0  0  0  0  0  0  0  0  0  0
  189.1910  176.9540  143.0400 C   0  0  0  0  0  2  0  0  0  0  0  0
  187.5980  177.2960  140.8990 O   0  0  0  0  0  1  0  0  0  0  0  0
  181.8370  178.5990  141.8150 C   0  0  0  0  0  1  0  0  0  0  0  0
  186.7300  177.6180  143.1950 C   0  0  0  0  0  0  0  0  0  0  0  0
  184.2720  178.0830  142.0890 N   0  0  0  0  0  0  0  0  0  0  0  0
  193.8530  175.4900  145.9550 O   0  0  0  0  0  0  0  0  0  0  0  0
  195.3620  175.4490  145.1880 P   0  0  0  0  0  0  0  0  0  0  0  0
  195.6770  176.4350  144.0870 O   0  0  0  0  0  0  0  0  0  0  0  0
  196.3940  174.4260  145.6040 O   0  0  0  0  0  0  0  0  0  0  0  0
  1 20  1  0  0  0  0
  2 12  2  0  0  0  0
  4  3  1  0  0  0  0
  5 27  2  0  0  0  0
  6  5  1  0  0  0  0
  6 28  1  0  0  0  0
  7 19  1  6  0  0  0
  7 17  1  0  0  0  0
  9 26  1  0  0  0  0
  9 28  1  0  0  0  0
 11  3  2  0  0  0  0
 12  8  1  0  0  0  0
 12 13  1  0  0  0  0
 13 11  1  0  0  0  0
 14 22  1  0  0  0  0
 15  9  2  0  0  0  0
 16 19  1  0  0  0  0
 16  1  1  0  0  0  0
 17 10  1  1  0  0  0
 17  8  1  0  0  0  0
 18 15  1  0  0  0  0
 18  6  2  0  0  0  0
 20 10  1  0  0  0  0
 20 29  1  1  0  0  0
 21  4  2  0  0  0  0
 22 13  2  0  0  0  0
 22 21  1  0  0  0  0
 23 14  2  0  0  0  0
 24  7  1  0  0  0  0
 24  2  1  0  0  0  0
 25  5  1  0  0  0  0
 27  2  1  0  0  0  0
 27 14  1  0  0  0  0
 28 23  1  0  0  0  0
 30 32  2  0  0  0  0
 30 29  1  0  0  0  0
 31 30  2  0  0  0  0
M  END
>  <MODEL>
1

>  <REMARK>
 VINA RESULT:      -9.5      0.000      0.000
  Name = 
  2 active torsions:
  status: ('A' for Active; 'I' for Inactive)
    1  A    between atoms: C_20  and  O_29
    2  A    between atoms: O_29  and  P_30
                            x       y       z     vdW  Elec       q    Type
                         _______ _______ _______ _____ _____    ______ ____

>  <TORSDO>
F 2

$$$$
=
 OpenBabel11112416283D

 32 37  0  0  1  0  0  0  0  0999 V2000
  195.1370  176.5270  145.3510 C   0  0  0  0  0  2  0  0  0  0  0  0
  189.9960  176.4300  145.0480 C   0  0  0  0  0  0  0  0  0  0  0  0
  188.3290  175.2060  140.6660 N   0  0  0  0  0  0  0  0  0  0  0  0
  187.1060  175.7210  140.9550 C   0  0  0  0  0  3  0  0  0  0  0  0
  188.4480  177.5710  146.6490 C   0  0  0  0  0  0  0  0  0  0  0  0
  187.1710  178.0740  146.8580 C   0  0  0  0  0  0  0  0  0  0  0  0
  192.1470  175.4790  145.7830 N   0  0  1  0  0  0  0  0  0  0  0  0
  191.5320  175.2080  143.4330 C   0  0  0  0  0  2  0  0  0  0  0  0
  185.1380  178.5590  146.4070 C   0  0  0  0  0  0  0  0  0  0  0  0
  193.8580  174.6880  144.1160 C   0  0  0  0  0  2  0  0  0  0  0  0
  189.3460  175.2410  141.5660 C   0  0  0  0  0  3  0  0  0  0  0  0
  190.2090  175.8600  143.7700 C   0  0  0  0  0  0  0  0  0  0  0  0
  189.1610  175.8160  142.8340 C   0  0  0  0  0  0  0  0  0  0  0  0
  187.6760  176.9310  144.4120 C   0  0  0  0  0  0  0  0  0  0  0  0
  185.3330  178.9980  147.6720 N   0  0  0  0  0  0  0  0  0  0  0  0
  194.1860  176.7880  146.5290 C   0  0  0  0  0  2  0  0  0  0  0  0
  192.6450  175.5870  144.4010 C   0  0  2  0  0  3  0  0  0  0  0  0
  186.6250  178.6940  147.9680 C   0  0  0  0  0  3  0  0  0  0  0  0
  193.1900  175.6460  146.8090 C   0  0  0  0  0  2  0  0  0  0  0  0
  195.1330  175.0690  144.8840 C   0  0  1  0  0  3  0  0  0  0  0  0
  186.8700  176.3030  142.2000 C   0  0  0  0  0  3  0  0  0  0  0  0
  187.8980  176.3550  143.1520 C   0  0  0  0  0  0  0  0  0  0  0  0
  186.4500  177.4530  144.7140 N   0  0  0  0  0  0  0  0  0  0  0  0
  191.1720  176.5480  145.9880 C   0  0  0  0  0  2  0  0  0  0  0  0
  189.3890  177.6570  147.6700 O   0  0  0  0  0  1  0  0  0  0  0  0
  183.8500  178.6860  145.6730 C   0  0  0  0  0  1  0  0  0  0  0  0
  188.7290  176.9770  145.3830 C   0  0  0  0  0  0  0  0  0  0  0  0
  186.2460  177.9980  145.9070 N   0  0  0  0  0  0  0  0  0  0  0  0
  196.2500  174.8240  144.0840 O   0  0  0  0  0  0  0  0  0  0  0  0
  197.1360  173.6490  144.9210 P   0  0  0  0  0  0  0  0  0  0  0  0
  197.9410  172.6230  144.1570 O   0  0  0  0  0  0  0  0  0  0  0  0
  197.1210  173.6250  146.4320 O   0  0  0  0  0  0  0  0  0  0  0  0
  1 16  1  0  0  0  0
  2 27  1  0  0  0  0
  2 24  1  0  0  0  0
  3  4  2  0  0  0  0
  3 11  1  0  0  0  0
  4 21  1  0  0  0  0
  5  6  1  0  0  0  0
  5 25  1  0  0  0  0
  6 18  2  0  0  0  0
  7 24  1  1  0  0  0
  7 19  1  0  0  0  0
  8 12  1  0  0  0  0
  9 15  2  0  0  0  0
 10 17  1  0  0  0  0
 10 20  1  0  0  0  0
 11 13  2  0  0  0  0
 12  2  2  0  0  0  0
 13 22  1  0  0  0  0
 13 12  1  0  0  0  0
 14 23  2  0  0  0  0
 14 27  1  0  0  0  0
 15 18  1  0  0  0  0
 16 19  1  0  0  0  0
 17  8  1  6  0  0  0
 17  7  1  0  0  0  0
 20 29  1  6  0  0  0
 20  1  1  0  0  0  0
 21 22  2  0  0  0  0
 22 14  1  0  0  0  0
 23 28  1  0  0  0  0
 26  9  1  0  0  0  0
 27  5  2  0  0  0  0
 28  9  1  0  0  0  0
 28  6  1  0  0  0  0
 29 30  1  0  0  0  0
 30 32  2  0  0  0  0
 31 30  2  0  0  0  0
M  END
>  <MODEL>
2

>  <REMARK>
 VINA RESULT:      -8.0      2.561      4.769
  Name = 
  2 active torsions:
  status: ('A' for Active; 'I' for Inactive)
    1  A    between atoms: C_20  and  O_29
    2  A    between atoms: O_29  and  P_30
                            x       y       z     vdW  Elec       q    Type
                         _______ _______ _______ _____ _____    ______ ____

>  <TORSDO>
F 2

$$$$
=
 OpenBabel11112416283D

 32 37  0  0  1  0  0  0  0  0999 V2000
  194.5670  176.3290  146.2040 C   0  0  0  0  0  2  0  0  0  0  0  0
  189.8580  175.9000  144.1620 C   0  0  0  0  0  0  0  0  0  0  0  0
  189.7970  173.6640  139.8640 N   0  0  0  0  0  0  0  0  0  0  0  0
  188.5660  174.1650  139.5880 C   0  0  0  0  0  3  0  0  0  0  0  0
  187.8800  177.2810  144.8280 C   0  0  0  0  0  0  0  0  0  0  0  0
  186.6250  177.7510  144.4620 C   0  0  0  0  0  0  0  0  0  0  0  0
  191.5870  175.2470  145.7910 N   0  0  1  0  0  0  0  0  0  0  0  0
  191.8270  174.4370  143.4970 C   0  0  0  0  0  2  0  0  0  0  0  0
  184.8940  178.0190  143.2370 C   0  0  0  0  0  0  0  0  0  0  0  0
  193.7500  174.2010  145.0440 C   0  0  0  0  0  2  0  0  0  0  0  0
  190.4350  173.9470  141.0300 C   0  0  0  0  0  3  0  0  0  0  0  0
  190.4890  175.0770  143.1990 C   0  0  0  0  0  0  0  0  0  0  0  0
  189.8350  174.7750  141.9920 C   0  0  0  0  0  0  0  0  0  0  0  0
  187.9230  176.1290  142.6650 C   0  0  0  0  0  0  0  0  0  0  0  0
  184.6460  178.7340  144.3590 N   0  0  0  0  0  0  0  0  0  0  0  0
  193.2710  176.7910  146.8880 C   0  0  0  0  0  2  0  0  0  0  0  0
  192.5400  175.0760  144.6820 C   0  0  2  0  0  3  0  0  0  0  0  0
  185.7440  178.5690  145.1460 C   0  0  0  0  0  3  0  0  0  0  0  0
  192.2080  175.6880  147.0510 C   0  0  0  0  0  2  0  0  0  0  0  0
  194.6850  174.8060  146.1020 C   0  0  1  0  0  3  0  0  0  0  0  0
  187.9260  174.9920  140.5100 C   0  0  0  0  0  3  0  0  0  0  0  0
  188.5560  175.3040  141.7230 C   0  0  0  0  0  0  0  0  0  0  0  0
  186.6840  176.6400  142.3970 N   0  0  0  0  0  0  0  0  0  0  0  0
  190.6330  176.2820  145.4010 C   0  0  0  0  0  2  0  0  0  0  0  0
  188.4050  177.6370  146.0660 O   0  0  0  0  0  1  0  0  0  0  0  0
  183.9490  177.9160  142.0920 C   0  0  0  0  0  1  0  0  0  0  0  0
  188.5690  176.4410  143.9050 C   0  0  0  0  0  0  0  0  0  0  0  0
  186.0900  177.4210  143.2920 N   0  0  0  0  0  0  0  0  0  0  0  0
  196.0040  174.4510  145.8160 O   0  0  0  0  0  0  0  0  0  0  0  0
  196.2170  174.8490  144.1850 P   0  0  0  0  0  0  0  0  0  0  0  0
  196.2810  173.7560  143.1420 O   0  0  0  0  0  0  0  0  0  0  0  0
  196.3450  176.2960  143.7690 O   0  0  0  0  0  0  0  0  0  0  0  0
  1 16  1  0  0  0  0
  2 24  1  0  0  0  0
  3 11  1  0  0  0  0
  4  3  2  0  0  0  0
  4 21  1  0  0  0  0
  5 25  1  0  0  0  0
  6  5  1  0  0  0  0
  6 18  2  0  0  0  0
  7 24  1  6  0  0  0
  7 19  1  0  0  0  0
  9 28  1  0  0  0  0
  9 15  2  0  0  0  0
 10 20  1  0  0  0  0
 11 13  2  0  0  0  0
 12  8  1  0  0  0  0
 12  2  2  0  0  0  0
 13 12  1  0  0  0  0
 14 27  1  0  0  0  0
 15 18  1  0  0  0  0
 16 19  1  0  0  0  0
 17  8  1  6  0  0  0
 17 10  1  0  0  0  0
 17  7  1  0  0  0  0
 20 29  1  6  0  0  0
 20  1  1  0  0  0  0
 21 22  2  0  0  0  0
 22 13  1  0  0  0  0
 22 14  1  0  0  0  0
 23 14  2  0  0  0  0
 23 28  1  0  0  0  0
 26  9  1  0  0  0  0
 27  2  1  0  0  0  0
 27  5  2  0  0  0  0
 28  6  1  0  0  0  0
 30 29  1  0  0  0  0
 31 30  2  0  0  0  0
 32 30  2  0  0  0  0
M  END
>  <MODEL>
3

>  <REMARK>
 VINA RESULT:      -7.8      2.295      4.616
  Name = 
  2 active torsions:
  status: ('A' for Active; 'I' for Inactive)
    1  A    between atoms: C_20  and  O_29
    2  A    between atoms: O_29  and  P_30
                            x       y       z     vdW  Elec       q    Type
                         _______ _______ _______ _____ _____    ______ ____

>  <TORSDO>
F 2

$$$$
=
 OpenBabel11112416283D

 32 37  0  0  1  0  0  0  0  0999 V2000
  189.2210  171.6110  139.5630 C   0  0  0  0  0  2  0  0  0  0  0  0
  188.7840  175.2920  143.1400 C   0  0  0  0  0  0  0  0  0  0  0  0
  192.1010  174.9890  146.6580 N   0  0  0  0  0  0  0  0  0  0  0  0
  191.3560  175.7820  147.4700 C   0  0  0  0  0  3  0  0  0  0  0  0
  186.7270  176.6600  143.5400 C   0  0  0  0  0  0  0  0  0  0  0  0
  186.0300  177.4590  144.4360 C   0  0  0  0  0  0  0  0  0  0  0  0
  189.4040  174.5170  140.8850 N   0  0  1  0  0  0  0  0  0  0  0  0
  190.9120  173.9660  142.7270 C   0  0  0  0  0  2  0  0  0  0  0  0
  185.6330  178.5060  146.2570 C   0  0  0  0  0  0  0  0  0  0  0  0
  191.2410  172.8320  140.5470 C   0  0  0  0  0  2  0  0  0  0  0  0
  191.6840  174.6580  145.4090 C   0  0  0  0  0  3  0  0  0  0  0  0
  190.0160  174.7900  143.6240 C   0  0  0  0  0  0  0  0  0  0  0  0
  190.4580  175.1310  144.9140 C   0  0  0  0  0  0  0  0  0  0  0  0
  188.4430  176.4530  145.2790 C   0  0  0  0  0  0  0  0  0  0  0  0
  184.5680  178.7630  145.4630 N   0  0  0  0  0  0  0  0  0  0  0  0
  188.1950  172.7540  139.5220 C   0  0  0  0  0  2  0  0  0  0  0  0
  190.1920  173.4340  141.4950 C   0  0  2  0  0  3  0  0  0  0  0  0
  184.8120  178.1010  144.3010 C   0  0  0  0  0  3  0  0  0  0  0  0
  188.8100  174.1660  139.5840 C   0  0  0  0  0  2  0  0  0  0  0  0
  190.6590  172.0840  139.3380 C   0  0  1  0  0  3  0  0  0  0  0  0
  190.1300  176.2790  147.0270 C   0  0  0  0  0  3  0  0  0  0  0  0
  189.6700  175.9570  145.7420 C   0  0  0  0  0  0  0  0  0  0  0  0
  187.6840  177.2520  146.0870 N   0  0  0  0  0  0  0  0  0  0  0  0
  188.2980  174.8240  141.7890 C   0  0  0  0  0  2  0  0  0  0  0  0
  186.1870  176.4190  142.2810 O   0  0  0  0  0  1  0  0  0  0  0  0
  185.7870  179.0400  147.6380 C   0  0  0  0  0  1  0  0  0  0  0  0
  187.9800  176.1250  143.9630 C   0  0  0  0  0  0  0  0  0  0  0  0
  186.5220  177.7180  145.6430 N   0  0  0  0  0  0  0  0  0  0  0  0
  191.4730  170.9930  139.0290 O   0  0  0  0  0  0  0  0  0  0  0  0
  190.8290  170.3620  137.5960 P   0  0  0  0  0  0  0  0  0  0  0  0
  190.3550  168.9280  137.5470 O   0  0  0  0  0  0  0  0  0  0  0  0
  190.7280  171.2330  136.3650 O   0  0  0  0  0  0  0  0  0  0  0  0
  2 12  2  0  0  0  0
  2 27  1  0  0  0  0
  3  4  1  0  0  0  0
  5 27  2  0  0  0  0
  5  6  1  0  0  0  0
  6 28  1  0  0  0  0
  7 19  1  6  0  0  0
  7 17  1  0  0  0  0
  7 24  1  0  0  0  0
  8 12  1  0  0  0  0
  9 26  1  0  0  0  0
 11  3  2  0  0  0  0
 12 13  1  0  0  0  0
 13 11  1  0  0  0  0
 13 22  2  0  0  0  0
 14 22  1  0  0  0  0
 14 23  2  0  0  0  0
 15  9  2  0  0  0  0
 16  1  1  0  0  0  0
 16 19  1  0  0  0  0
 17 10  1  6  0  0  0
 17  8  1  0  0  0  0
 18  6  2  0  0  0  0
 18 15  1  0  0  0  0
 20 29  1  1  0  0  0
 20  1  1  0  0  0  0
 20 10  1  0  0  0  0
 21  4  2  0  0  0  0
 22 21  1  0  0  0  0
 24  2  1  0  0  0  0
 25  5  1  0  0  0  0
 27 14  1  0  0  0  0
 28 23  1  0  0  0  0
 28  9  1  0  0  0  0
 30 29  1  0  0  0  0
 31 30  2  0  0  0  0
 32 30  2  0  0  0  0
M  END
>  <MODEL>
4

>  <REMARK>
 VINA RESULT:      -7.8      4.119      5.945
  Name = 
  2 active torsions:
  status: ('A' for Active; 'I' for Inactive)
    1  A    between atoms: C_20  and  O_29
    2  A    between atoms: O_29  and  P_30
                            x       y       z     vdW  Elec       q    Type
                         _______ _______ _______ _____ _____    ______ ____

>  <TORSDO>
F 2

$$$$
=
 OpenBabel11112416283D

 32 37  0  0  1  0  0  0  0  0999 V2000
  186.0780  178.0780  141.4030 C   0  0  0  0  0  2  0  0  0  0  0  0
  190.1720  176.0890  143.8140 C   0  0  0  0  0  0  0  0  0  0  0  0
  190.5960  177.5130  148.4260 N   0  0  0  0  0  0  0  0  0  0  0  0
  191.9010  177.1410  148.4520 C   0  0  0  0  0  3  0  0  0  0  0  0
  192.1710  175.1120  142.6680 C   0  0  0  0  0  0  0  0  0  0  0  0
  193.5100  174.7630  142.7830 C   0  0  0  0  0  0  0  0  0  0  0  0
  187.9100  175.8980  142.8570 N   0  0  1  0  0  0  0  0  0  0  0  0
  188.1360  177.0190  145.0170 C   0  0  0  0  0  2  0  0  0  0  0  0
  195.4180  174.5240  143.7160 C   0  0  0  0  0  0  0  0  0  0  0  0
  185.9810  177.2050  143.8050 C   0  0  0  0  0  2  0  0  0  0  0  0
  189.8360  177.3640  147.3100 C   0  0  0  0  0  3  0  0  0  0  0  0
  189.6050  176.6600  144.9780 C   0  0  0  0  0  0  0  0  0  0  0  0
  190.3820  176.8150  146.1390 C   0  0  0  0  0  0  0  0  0  0  0  0
  192.3140  175.8630  144.9980 C   0  0  0  0  0  0  0  0  0  0  0  0
  195.5790  174.0480  142.4600 N   0  0  0  0  0  0  0  0  0  0  0  0
  187.0590  177.0730  140.7790 C   0  0  0  0  0  2  0  0  0  0  0  0
  187.5030  177.0810  143.6330 C   0  0  2  0  0  3  0  0  0  0  0  0
  194.3680  174.1960  141.8580 C   0  0  0  0  0  3  0  0  0  0  0  0
  187.2130  175.7590  141.5680 C   0  0  0  0  0  2  0  0  0  0  0  0
  185.2070  177.4660  142.5040 C   0  0  1  0  0  3  0  0  0  0  0  0
  192.4930  176.5900  147.3160 C   0  0  0  0  0  3  0  0  0  0  0  0
  191.7360  176.4210  146.1470 C   0  0  0  0  0  0  0  0  0  0  0  0
  193.6270  175.4850  145.0120 N   0  0  0  0  0  0  0  0  0  0  0  0
  189.3340  176.0310  142.5590 C   0  0  0  0  0  2  0  0  0  0  0  0
  191.5090  174.8840  141.4670 O   0  0  0  0  0  1  0  0  0  0  0  0
  196.5010  174.5530  144.7370 C   0  0  0  0  0  1  0  0  0  0  0  0
  191.5360  175.6880  143.8080 C   0  0  0  0  0  0  0  0  0  0  0  0
  194.1690  174.9580  143.9200 N   0  0  0  0  0  0  0  0  0  0  0  0
  184.1210  178.3010  142.7670 O   0  0  0  0  0  0  0  0  0  0  0  0
  184.5520  179.1480  144.1680 P   0  0  0  0  0  0  0  0  0  0  0  0
  183.9130  178.7940  145.4920 O   0  0  0  0  0  0  0  0  0  0  0  0
  185.5750  180.2580  144.0960 O   0  0  0  0  0  0  0  0  0  0  0  0
  1 20  1  0  0  0  0
  2 12  2  0  0  0  0
  3  4  1  0  0  0  0
  5  6  1  0  0  0  0
  5 27  2  0  0  0  0
  6 28  1  0  0  0  0
  7 19  1  6  0  0  0
  7 17  1  0  0  0  0
  9 28  1  0  0  0  0
  9 26  1  0  0  0  0
 11  3  2  0  0  0  0
 12  8  1  0  0  0  0
 12 13  1  0  0  0  0
 13 22  2  0  0  0  0
 13 11  1  0  0  0  0
 14 23  2  0  0  0  0
 14 22  1  0  0  0  0
 15  9  2  0  0  0  0
 16  1  1  0  0  0  0
 16 19  1  0  0  0  0
 17 10  1  1  0  0  0
 17  8  1  0  0  0  0
 18 15  1  0  0  0  0
 18  6  2  0  0  0  0
 20 29  1  1  0  0  0
 20 10  1  0  0  0  0
 21  4  2  0  0  0  0
 22 21  1  0  0  0  0
 24  7  1  0  0  0  0
 24  2  1  0  0  0  0
 25  5  1  0  0  0  0
 27  2  1  0  0  0  0
 27 14  1  0  0  0  0
 28 23  1  0  0  0  0
 29 30  1  0  0  0  0
 30 31  2  0  0  0  0
 32 30  2  0  0  0  0
M  END
>  <MODEL>
5

>  <REMARK>
 VINA RESULT:      -7.7      3.610      8.109
  Name = 
  2 active torsions:
  status: ('A' for Active; 'I' for Inactive)
    1  A    between atoms: C_20  and  O_29
    2  A    between atoms: O_29  and  P_30
                            x       y       z     vdW  Elec       q    Type
                         _______ _______ _______ _____ _____    ______ ____

>  <TORSDO>
F 2

$$$$
=
 OpenBabel11112416283D

 32 37  0  0  1  0  0  0  0  0999 V2000
  187.7910  176.4160  146.8440 C   0  0  0  0  0  2  0  0  0  0  0  0
  191.4900  175.6670  143.3380 C   0  0  0  0  0  0  0  0  0  0  0  0
  190.1350  172.8190  139.6600 N   0  0  0  0  0  0  0  0  0  0  0  0
  191.4300  172.5910  139.3200 C   0  0  0  0  0  3  0  0  0  0  0  0
  193.9320  176.0410  143.7350 C   0  0  0  0  0  0  0  0  0  0  0  0
  195.2260  175.7510  143.3200 C   0  0  0  0  0  0  0  0  0  0  0  0
  189.7740  177.0650  144.4210 N   0  0  1  0  0  0  0  0  0  0  0  0
  189.0130  175.3310  142.8760 C   0  0  0  0  0  2  0  0  0  0  0  0
  196.7720  174.8740  142.1320 C   0  0  0  0  0  0  0  0  0  0  0  0
  187.3380  176.4430  144.3270 C   0  0  0  0  0  2  0  0  0  0  0  0
  189.8050  173.6130  140.7110 C   0  0  0  0  0  3  0  0  0  0  0  0
  190.4690  175.0450  142.5800 C   0  0  0  0  0  0  0  0  0  0  0  0
  190.8010  174.2260  141.4870 C   0  0  0  0  0  0  0  0  0  0  0  0
  193.1740  174.6040  141.8980 C   0  0  0  0  0  0  0  0  0  0  0  0
  197.4180  175.6120  143.0650 N   0  0  0  0  0  0  0  0  0  0  0  0
  189.1820  177.0670  146.8860 C   0  0  0  0  0  2  0  0  0  0  0  0
  188.8000  175.9770  144.2390 C   0  0  2  0  0  3  0  0  0  0  0  0
  196.4410  176.1740  143.8260 C   0  0  0  0  0  3  0  0  0  0  0  0
  189.5440  177.8790  145.6270 C   0  0  0  0  0  2  0  0  0  0  0  0
  186.9090  176.9500  145.7120 C   0  0  1  0  0  3  0  0  0  0  0  0
  192.4590  173.1770  140.0580 C   0  0  0  0  0  3  0  0  0  0  0  0
  192.1520  174.0020  141.1500 C   0  0  0  0  0  0  0  0  0  0  0  0
  194.4810  174.3820  141.5670 N   0  0  0  0  0  0  0  0  0  0  0  0
  191.0960  176.4580  144.5630 C   0  0  0  0  0  2  0  0  0  0  0  0
  193.7390  176.8880  144.8200 O   0  0  0  0  0  1  0  0  0  0  0  0
  197.4590  174.0810  141.0780 C   0  0  0  0  0  1  0  0  0  0  0  0
  192.8550  175.4500  143.0100 C   0  0  0  0  0  0  0  0  0  0  0  0
  195.4440  174.9540  142.2800 N   0  0  0  0  0  0  0  0  0  0  0  0
  185.5780  176.6010  145.9440 O   0  0  0  0  0  0  0  0  0  0  0  0
  184.7910  178.0680  146.2500 P   0  0  0  0  0  0  0  0  0  0  0  0
  184.0620  178.7810  145.1340 O   0  0  0  0  0  0  0  0  0  0  0  0
  184.8160  178.6660  147.6380 O   0  0  0  0  0  0  0  0  0  0  0  0
  1 16  1  0  0  0  0
  2 24  1  0  0  0  0
  3 11  1  0  0  0  0
  4  3  2  0  0  0  0
  4 21  1  0  0  0  0
  5 25  1  0  0  0  0
  6  5  1  0  0  0  0
  6 18  2  0  0  0  0
  7 24  1  1  0  0  0
  7 19  1  0  0  0  0
  9 28  1  0  0  0  0
  9 15  2  0  0  0  0
 10 20  1  0  0  0  0
 11 13  2  0  0  0  0
 12  8  1  0  0  0  0
 12  2  2  0  0  0  0
 13 12  1  0  0  0  0
 14 27  1  0  0  0  0
 15 18  1  0  0  0  0
 17  8  1  6  0  0  0
 17 10  1  0  0  0  0
 17  7  1  0  0  0  0
 19 16  1  0  0  0  0
 20 29  1  1  0  0  0
 20  1  1  0  0  0  0
 21 22  2  0  0  0  0
 22 13  1  0  0  0  0
 22 14  1  0  0  0  0
 23 14  2  0  0  0  0
 23 28  1  0  0  0  0
 26  9  1  0  0  0  0
 27  2  1  0  0  0  0
 27  5  2  0  0  0  0
 28  6  1  0  0  0  0
 29 30  1  0  0  0  0
 30 32  2  0  0  0  0
 31 30  2  0  0  0  0
M  END
>  <MODEL>
6

>  <REMARK>
 VINA RESULT:      -7.7      4.133      9.144
  Name = 
  2 active torsions:
  status: ('A' for Active; 'I' for Inactive)
    1  A    between atoms: C_20  and  O_29
    2  A    between atoms: O_29  and  P_30
                            x       y       z     vdW  Elec       q    Type
                         _______ _______ _______ _____ _____    ______ ____

>  <TORSDO>
F 2

$$$$
=
 OpenBabel11112416283D

 32 37  0  0  1  0  0  0  0  0999 V2000
  186.4530  178.6660  142.7470 C   0  0  0  0  0  2  0  0  0  0  0  0
  190.3330  175.2880  142.9920 C   0  0  0  0  0  0  0  0  0  0  0  0
  193.5220  176.2410  146.5130 N   0  0  0  0  0  0  0  0  0  0  0  0
  194.4550  175.4490  145.9240 C   0  0  0  0  0  3  0  0  0  0  0  0
  191.0140  173.7550  141.1340 C   0  0  0  0  0  0  0  0  0  0  0  0
  192.0270  172.9690  140.6000 C   0  0  0  0  0  0  0  0  0  0  0  0
  187.9800  175.9220  143.3490 N   0  0  1  0  0  0  0  0  0  0  0  0
  189.6380  176.7860  144.9230 C   0  0  0  0  0  2  0  0  0  0  0  0
  193.9520  172.0510  140.4600 C   0  0  0  0  0  0  0  0  0  0  0  0
  187.3550  177.7520  144.9580 C   0  0  0  0  0  2  0  0  0  0  0  0
  192.2910  176.4160  145.9680 C   0  0  0  0  0  3  0  0  0  0  0  0
  190.6700  175.9550  144.1940 C   0  0  0  0  0  0  0  0  0  0  0  0
  191.9410  175.7770  144.7680 C   0  0  0  0  0  0  0  0  0  0  0  0
  192.5790  174.2900  142.9450 C   0  0  0  0  0  0  0  0  0  0  0  0
  193.2750  171.6160  139.3730 N   0  0  0  0  0  0  0  0  0  0  0  0
  186.5900  177.4230  141.8530 C   0  0  0  0  0  2  0  0  0  0  0  0
  188.4330  177.1300  144.0570 C   0  0  2  0  0  3  0  0  0  0  0  0
  192.0470  172.1960  139.4540 C   0  0  0  0  0  3  0  0  0  0  0  0
  186.7100  176.0940  142.6230 C   0  0  0  0  0  2  0  0  0  0  0  0
  186.1440  178.3270  144.2070 C   0  0  1  0  0  3  0  0  0  0  0  0
  194.1580  174.7920  144.7300 C   0  0  0  0  0  3  0  0  0  0  0  0
  192.8960  174.9500  144.1410 C   0  0  0  0  0  0  0  0  0  0  0  0
  193.5100  173.4910  142.3420 N   0  0  0  0  0  0  0  0  0  0  0  0
  188.9960  175.5830  142.3560 C   0  0  0  0  0  2  0  0  0  0  0  0
  189.7910  173.8270  140.4780 O   0  0  0  0  0  1  0  0  0  0  0  0
  195.3530  171.6600  140.7770 C   0  0  0  0  0  1  0  0  0  0  0  0
  191.2860  174.4510  142.3490 C   0  0  0  0  0  0  0  0  0  0  0  0
  193.2040  172.8700  141.2080 N   0  0  0  0  0  0  0  0  0  0  0  0
  185.6810  179.4640  144.8700 O   0  0  0  0  0  0  0  0  0  0  0  0
  185.1960  178.9120  146.3950 P   0  0  0  0  0  0  0  0  0  0  0  0
  185.8940  179.4160  147.6380 O   0  0  0  0  0  0  0  0  0  0  0  0
  184.0660  177.9160  146.5140 O   0  0  0  0  0  0  0  0  0  0  0  0
  1 20  1  0  0  0  0
  2 12  2  0  0  0  0
  4  3  2  0  0  0  0
  5 27  2  0  0  0  0
  6  5  1  0  0  0  0
  6 28  1  0  0  0  0
  7 24  1  6  0  0  0
  7 17  1  0  0  0  0
  9 26  1  0  0  0  0
  9 28  1  0  0  0  0
 11  3  1  0  0  0  0
 12 13  1  0  0  0  0
 12  8  1  0  0  0  0
 13 11  2  0  0  0  0
 14 22  1  0  0  0  0
 15 18  1  0  0  0  0
 15  9  2  0  0  0  0
 16 19  1  0  0  0  0
 16  1  1  0  0  0  0
 17  8  1  1  0  0  0
 17 10  1  0  0  0  0
 18  6  2  0  0  0  0
 19  7  1  0  0  0  0
 20 29  1  1  0  0  0
 20 10  1  0  0  0  0
 21  4  1  0  0  0  0
 22 21  2  0  0  0  0
 22 13  1  0  0  0  0
 23 14  2  0  0  0  0
 24  2  1  0  0  0  0
 25  5  1  0  0  0  0
 27 14  1  0  0  0  0
 27  2  1  0  0  0  0
 28 23  1  0  0  0  0
 29 30  1  0  0  0  0
 30 32  2  0  0  0  0
 30 31  2  0  0  0  0
M  END
>  <MODEL>
7

>  <REMARK>
 VINA RESULT:      -7.7      4.009      8.184
  Name = 
  2 active torsions:
  status: ('A' for Active; 'I' for Inactive)
    1  A    between atoms: C_20  and  O_29
    2  A    between atoms: O_29  and  P_30
                            x       y       z     vdW  Elec       q    Type
                         _______ _______ _______ _____ _____    ______ ____

>  <TORSDO>
F 2

$$$$
=
 OpenBabel11112416283D

 32 37  0  0  1  0  0  0  0  0999 V2000
  187.3770  177.1000  145.7160 C   0  0  0  0  0  2  0  0  0  0  0  0
  191.4930  174.3410  144.3090 C   0  0  0  0  0  0  0  0  0  0  0  0
  190.3860  170.2870  141.8980 N   0  0  0  0  0  0  0  0  0  0  0  0
  191.6170  169.7690  142.1440 C   0  0  0  0  0  3  0  0  0  0  0  0
  193.7720  174.5540  145.3230 C   0  0  0  0  0  0  0  0  0  0  0  0
  195.0030  173.9470  145.5300 C   0  0  0  0  0  0  0  0  0  0  0  0
  189.9960  176.2840  144.0720 N   0  0  1  0  0  0  0  0  0  0  0  0
  189.2100  174.1340  143.2130 C   0  0  0  0  0  2  0  0  0  0  0  0
  196.5070  172.4320  145.4070 C   0  0  0  0  0  0  0  0  0  0  0  0
  187.5840  175.9950  143.4190 C   0  0  0  0  0  2  0  0  0  0  0  0
  190.0280  171.5160  142.3520 C   0  0  0  0  0  3  0  0  0  0  0  0
  190.5640  173.5670  143.5750 C   0  0  0  0  0  0  0  0  0  0  0  0
  190.9280  172.2950  143.0970 C   0  0  0  0  0  0  0  0  0  0  0  0
  193.1380  172.5280  144.0970 C   0  0  0  0  0  0  0  0  0  0  0  0
  197.0740  173.4360  146.1150 N   0  0  0  0  0  0  0  0  0  0  0  0
  188.8360  177.5190  145.9580 C   0  0  0  0  0  2  0  0  0  0  0  0
  188.8450  175.3670  144.0310 C   0  0  2  0  0  3  0  0  0  0  0  0
  196.1240  174.4060  146.1980 C   0  0  0  0  0  3  0  0  0  0  0  0
  189.6990  177.5900  144.6830 C   0  0  0  0  0  2  0  0  0  0  0  0
  186.9750  177.1420  144.2390 C   0  0  1  0  0  3  0  0  0  0  0  0
  192.5480  170.5020  142.8790 C   0  0  0  0  0  3  0  0  0  0  0  0
  192.2110  171.7750  143.3620 C   0  0  0  0  0  0  0  0  0  0  0  0
  194.3800  172.0170  144.3510 N   0  0  0  0  0  0  0  0  0  0  0  0
  191.0330  175.6570  144.8890 C   0  0  0  0  0  2  0  0  0  0  0  0
  193.5480  175.8290  145.8300 O   0  0  0  0  0  1  0  0  0  0  0  0
  197.1980  171.1580  145.0720 C   0  0  0  0  0  1  0  0  0  0  0  0
  192.7900  173.8290  144.5840 C   0  0  0  0  0  0  0  0  0  0  0  0
  195.2530  172.7340  145.0490 N   0  0  0  0  0  0  0  0  0  0  0  0
  185.5850  177.1100  144.1260 O   0  0  0  0  0  0  0  0  0  0  0  0
  185.0680  178.6240  144.6820 P   0  0  0  0  0  0  0  0  0  0  0  0
  185.6140  179.8860  144.0560 O   0  0  0  0  0  0  0  0  0  0  0  0
  184.0620  178.7130  145.8060 O   0  0  0  0  0  0  0  0  0  0  0  0
  1 16  1  0  0  0  0
  2 27  1  0  0  0  0
  2 24  1  0  0  0  0
  3  4  2  0  0  0  0
  3 11  1  0  0  0  0
  4 21  1  0  0  0  0
  5  6  1  0  0  0  0
  5 25  1  0  0  0  0
  6 18  2  0  0  0  0
  7 19  1  1  0  0  0
  7 24  1  0  0  0  0
  8 12  1  0  0  0  0
  9 15  2  0  0  0  0
 10 17  1  0  0  0  0
 10 20  1  0  0  0  0
 11 13  2  0  0  0  0
 12  2  2  0  0  0  0
 13 22  1  0  0  0  0
 13 12  1  0  0  0  0
 14 23  2  0  0  0  0
 14 27  1  0  0  0  0
 15 18  1  0  0  0  0
 17  8  1  6  0  0  0
 17  7  1  0  0  0  0
 19 16  1  0  0  0  0
 20 29  1  1  0  0  0
 20  1  1  0  0  0  0
 21 22  2  0  0  0  0
 22 14  1  0  0  0  0
 23 28  1  0  0  0  0
 26  9  1  0  0  0  0
 27  5  2  0  0  0  0
 28  9  1  0  0  0  0
 28  6  1  0  0  0  0
 29 30  1  0  0  0  0
 30 32  2  0  0  0  0
 31 30  2  0  0  0  0
M  END
>  <MODEL>
8

>  <REMARK>
 VINA RESULT:      -7.6      4.372      9.600
  Name = 
  2 active torsions:
  status: ('A' for Active; 'I' for Inactive)
    1  A    between atoms: C_20  and  O_29
    2  A    between atoms: O_29  and  P_30
                            x       y       z     vdW  Elec       q    Type
                         _______ _______ _______ _____ _____    ______ ____

>  <TORSDO>
F 2

$$$$
=
 OpenBabel11112416283D

 32 37  0  0  1  0  0  0  0  0999 V2000
  186.4080  179.2020  143.0600 C   0  0  0  0  0  2  0  0  0  0  0  0
  189.0740  174.9270  141.9910 C   0  0  0  0  0  0  0  0  0  0  0  0
  192.3720  173.7980  145.3560 N   0  0  0  0  0  0  0  0  0  0  0  0
  193.0240  172.9830  144.4870 C   0  0  0  0  0  3  0  0  0  0  0  0
  189.2710  173.8960  139.7190 C   0  0  0  0  0  0  0  0  0  0  0  0
  190.0010  173.0470  138.8970 C   0  0  0  0  0  0  0  0  0  0  0  0
  187.0220  176.0830  142.7130 N   0  0  1  0  0  0  0  0  0  0  0  0
  188.8520  175.9080  144.3240 C   0  0  0  0  0  2  0  0  0  0  0  0
  191.5560  171.6920  138.3360 C   0  0  0  0  0  0  0  0  0  0  0  0
  186.9710  177.4430  144.8290 C   0  0  0  0  0  2  0  0  0  0  0  0
  191.2570  174.4810  144.9910 C   0  0  0  0  0  3  0  0  0  0  0  0
  189.5870  175.0710  143.3020 C   0  0  0  0  0  0  0  0  0  0  0  0
  190.7390  174.3650  143.6900 C   0  0  0  0  0  0  0  0  0  0  0  0
  190.9090  173.3780  141.4680 C   0  0  0  0  0  0  0  0  0  0  0  0
  190.7870  171.8230  137.2300 N   0  0  0  0  0  0  0  0  0  0  0  0
  186.1680  178.3040  141.8370 C   0  0  0  0  0  2  0  0  0  0  0  0
  187.8160  176.8340  143.6990 C   0  0  2  0  0  3  0  0  0  0  0  0
  189.7930  172.6840  137.5780 C   0  0  0  0  0  3  0  0  0  0  0  0
  185.8720  176.8300  142.1770 C   0  0  0  0  0  2  0  0  0  0  0  0
  185.9990  178.5450  144.3810 C   0  0  1  0  0  3  0  0  0  0  0  0
  192.5510  172.8330  143.1830 C   0  0  0  0  0  3  0  0  0  0  0  0
  191.4020  173.5230  142.7730 C   0  0  0  0  0  0  0  0  0  0  0  0
  191.5570  172.5610  140.5840 N   0  0  0  0  0  0  0  0  0  0  0  0
  187.8950  175.7770  141.5820 C   0  0  0  0  0  2  0  0  0  0  0  0
  188.1330  174.5170  139.2160 O   0  0  0  0  0  1  0  0  0  0  0  0
  192.7680  170.8310  138.4070 C   0  0  0  0  0  1  0  0  0  0  0  0
  189.7310  174.0820  141.0560 C   0  0  0  0  0  0  0  0  0  0  0  0
  191.0870  172.4290  139.3490 N   0  0  0  0  0  0  0  0  0  0  0  0
  185.8990  179.5140  145.3810 O   0  0  0  0  0  0  0  0  0  0  0  0
  185.3840  178.6690  146.7540 P   0  0  0  0  0  0  0  0  0  0  0  0
  184.0670  177.9290  146.7370 O   0  0  0  0  0  0  0  0  0  0  0  0
  186.2410  178.6560  148.0000 O   0  0  0  0  0  0  0  0  0  0  0  0
  1 20  1  0  0  0  0
  2 12  2  0  0  0  0
  4  3  2  0  0  0  0
  5 27  2  0  0  0  0
  6 28  1  0  0  0  0
  6  5  1  0  0  0  0
  7 24  1  6  0  0  0
  7 17  1  0  0  0  0
  9 26  1  0  0  0  0
  9 28  1  0  0  0  0
 11  3  1  0  0  0  0
 12 13  1  0  0  0  0
 12  8  1  0  0  0  0
 13 11  2  0  0  0  0
 14 22  1  0  0  0  0
 15 18  1  0  0  0  0
 15  9  2  0  0  0  0
 16 19  1  0  0  0  0
 16  1  1  0  0  0  0
 17  8  1  1  0  0  0
 17 10  1  0  0  0  0
 18  6  2  0  0  0  0
 19  7  1  0  0  0  0
 20 10  1  0  0  0  0
 20 29  1  1  0  0  0
 21  4  1  0  0  0  0
 22 21  2  0  0  0  0
 22 13  1  0  0  0  0
 23 14  2  0  0  0  0
 24  2  1  0  0  0  0
 25  5  1  0  0  0  0
 27 14  1  0  0  0  0
 27  2  1  0  0  0  0
 28 23  1  0  0  0  0
 29 30  1  0  0  0  0
 30 32  2  0  0  0  0
 31 30  2  0  0  0  0
M  END
>  <MODEL>
9

>  <REMARK>
 VINA RESULT:      -7.6      4.499      7.801
  Name = 
  2 active torsions:
  status: ('A' for Active; 'I' for Inactive)
    1  A    between atoms: C_20  and  O_29
    2  A    between atoms: O_29  and  P_30
                            x       y       z     vdW  Elec       q    Type
                         _______ _______ _______ _____ _____    ______ ____

>  <TORSDO>
F 2

$$$$
