=
 OpenBabel11112416203D

 30 35  0  0  1  0  0  0  0  0999 V2000
  186.3790  177.3220  143.8070 C   0  0  0  0  0  0  0  0  0  0  0  0
  184.7280  178.4820  145.3530 C   0  0  0  0  0  0  0  0  0  0  0  0
  188.6540  176.0240  147.0780 N   0  0  0  0  0  2  0  0  0  0  0  0
  187.5780  176.5520  143.6610 C   0  0  0  0  0  0  0  0  0  0  0  0
  185.6720  177.6630  142.6490 C   0  0  0  0  0  3  0  0  0  0  0  0
  187.6210  176.0580  139.9750 O   0  0  0  0  0  1  0  0  0  0  0  0
  190.4610  175.8490  142.6190 C   0  0  1  0  0  3  0  0  0  0  0  0
  187.2280  176.4760  141.2440 C   0  0  0  0  0  0  0  0  0  0  0  0
  190.7120  175.8400  144.1290 C   0  0  2  0  0  3  0  0  0  0  0  0
  189.7290  175.3050  146.3970 C   0  0  1  0  0  3  0  0  0  0  0  0
  186.0840  177.2620  141.3770 C   0  0  0  0  0  0  0  0  0  0  0  0
  187.9750  176.1050  142.3730 C   0  0  0  0  0  0  0  0  0  0  0  0
  184.3380  178.7730  146.6640 C   0  0  0  0  0  3  0  0  0  0  0  0
  191.8310  174.8390  144.3480 C   0  0  0  0  0  2  0  0  0  0  0  0
  191.6490  175.1580  141.9690 C   0  0  0  0  0  2  0  0  0  0  0  0
  183.6700  179.1530  144.1140 Cl  0  0  0  0  0  0  0  0  0  0  0  0
  187.8150  176.5390  146.0610 C   0  0  0  0  0  0  0  0  0  0  0  0
  185.0780  178.3260  147.7530 C   0  0  0  0  0  3  0  0  0  0  0  0
  185.9070  177.7060  145.1110 C   0  0  0  0  0  0  0  0  0  0  0  0
  188.2970  176.2300  144.8290 C   0  0  0  0  0  0  0  0  0  0  0  0
  189.6130  173.8230  146.7040 C   0  0  0  0  0  1  0  0  0  0  0  0
  189.5370  175.5290  144.9540 N   0  0  0  0  0  0  0  0  0  0  0  0
  192.6420  174.8730  143.0760 C   0  0  0  0  0  2  0  0  0  0  0  0
  188.9190  173.7850  142.6450 C   0  0  0  0  0  1  0  0  0  0  0  0
  186.2300  177.5800  147.5450 C   0  0  0  0  0  3  0  0  0  0  0  0
  186.6500  177.2720  146.2490 C   0  0  0  0  0  0  0  0  0  0  0  0
  189.1560  175.2090  142.1510 C   0  0  2  0  0  3  0  0  0  0  0  0
  185.3640  177.6250  140.2340 O   0  0  0  0  0  0  0  0  0  0  0  0
  182.9870  177.9160  140.3300 C   0  0  0  0  0  1  0  0  0  0  0  0
  184.3330  178.6030  140.2520 C   0  0  0  0  0  2  0  0  0  0  0  0
  1 19  1  0  0  0  0
  2 13  1  0  0  0  0
  4  1  1  0  0  0  0
  4 20  1  0  0  0  0
  5  1  2  0  0  0  0
  6  8  1  0  0  0  0
  7 15  1  6  0  0  0
  7  9  1  0  0  0  0
  8 11  2  0  0  0  0
  8 12  1  0  0  0  0
  9 14  1  6  0  0  0
  9 22  1  0  0  0  0
 10 21  1  6  0  0  0
 10  3  1  0  0  0  0
 11  5  1  0  0  0  0
 12  4  2  0  0  0  0
 13 18  2  0  0  0  0
 15 23  1  0  0  0  0
 16  2  1  0  0  0  0
 17 26  1  0  0  0  0
 17  3  1  0  0  0  0
 19  2  2  0  0  0  0
 19 26  1  0  0  0  0
 20 22  1  0  0  0  0
 20 17  2  0  0  0  0
 22 10  1  0  0  0  0
 23 14  1  0  0  0  0
 25 18  1  0  0  0  0
 26 25  2  0  0  0  0
 27 12  1  0  0  0  0
 27  7  1  0  0  0  0
 27 24  1  1  0  0  0
 28 30  1  0  0  0  0
 28 11  1  0  0  0  0
 30 29  1  0  0  0  0
M  END
>  <MODEL>
1

>  <REMARK>
 VINA RESULT:      -8.6      0.000      0.000
  Name = 
  2 active torsions:
  status: ('A' for Active; 'I' for Inactive)
    1  A    between atoms: C_11  and  O_28
    2  A    between atoms: O_28  and  C_30
                            x       y       z     vdW  Elec       q    Type
                         _______ _______ _______ _____ _____    ______ ____

>  <TORSDO>
F 2

$$$$
=
 OpenBabel11112416203D

 30 35  0  0  1  0  0  0  0  0999 V2000
  188.5330  177.1510  146.2930 C   0  0  0  0  0  0  0  0  0  0  0  0
  186.5680  178.4650  147.2270 C   0  0  0  0  0  0  0  0  0  0  0  0
  186.3450  176.1680  142.8570 N   0  0  0  0  0  2  0  0  0  0  0  0
  189.0660  176.3390  145.2400 C   0  0  0  0  0  0  0  0  0  0  0  0
  189.3670  177.4560  147.3750 C   0  0  0  0  0  3  0  0  0  0  0  0
  192.5450  175.8460  146.4610 O   0  0  0  0  0  1  0  0  0  0  0  0
  190.4120  173.8210  143.9220 C   0  0  1  0  0  3  0  0  0  0  0  0
  191.2170  176.2620  146.3980 C   0  0  0  0  0  0  0  0  0  0  0  0
  189.0950  173.8610  143.1420 C   0  0  2  0  0  3  0  0  0  0  0  0
  187.3210  175.3550  142.1340 C   0  0  1  0  0  3  0  0  0  0  0  0
  190.6900  177.0150  147.4450 C   0  0  0  0  0  0  0  0  0  0  0  0
  190.4240  175.9270  145.2880 C   0  0  0  0  0  0  0  0  0  0  0  0
  185.2640  178.9350  147.0440 C   0  0  0  0  0  3  0  0  0  0  0  0
  189.4150  173.2750  141.7780 C   0  0  0  0  0  2  0  0  0  0  0  0
  191.3500  172.9000  143.1590 C   0  0  0  0  0  2  0  0  0  0  0  0
  187.3050  178.9460  148.7540 Cl  0  0  0  0  0  0  0  0  0  0  0  0
  186.9680  176.5490  144.0690 C   0  0  0  0  0  0  0  0  0  0  0  0
  184.5420  178.6290  145.8950 C   0  0  0  0  0  3  0  0  0  0  0  0
  187.1880  177.6560  146.2210 C   0  0  0  0  0  0  0  0  0  0  0  0
  188.2150  176.0180  144.1650 C   0  0  0  0  0  0  0  0  0  0  0  0
  187.7500  176.0880  140.8750 C   0  0  0  0  0  1  0  0  0  0  0  0
  188.4780  175.1890  143.0290 N   0  0  0  0  0  0  0  0  0  0  0  0
  190.5440  172.3050  142.0230 C   0  0  0  0  0  2  0  0  0  0  0  0
  191.3160  176.0210  142.9330 C   0  0  0  0  0  1  0  0  0  0  0  0
  185.1170  177.8400  144.9080 C   0  0  0  0  0  3  0  0  0  0  0  0
  186.4170  177.3520  145.0600 C   0  0  0  0  0  0  0  0  0  0  0  0
  191.0840  175.1670  144.1760 C   0  0  2  0  0  3  0  0  0  0  0  0
  191.4990  177.3260  148.5430 O   0  0  0  0  0  0  0  0  0  0  0  0
  191.5860  177.9090  150.8660 C   0  0  0  0  0  1  0  0  0  0  0  0
  191.1710  178.3450  149.4770 C   0  0  0  0  0  2  0  0  0  0  0  0
  1  5  1  0  0  0  0
  2 16  1  0  0  0  0
  3 17  1  0  0  0  0
  4 12  1  0  0  0  0
  4  1  2  0  0  0  0
  5 11  2  0  0  0  0
  7 15  1  6  0  0  0
  7 27  1  0  0  0  0
  8  6  1  0  0  0  0
  8 11  1  0  0  0  0
  9 14  1  6  0  0  0
  9  7  1  0  0  0  0
 10 21  1  6  0  0  0
 10  3  1  0  0  0  0
 10 22  1  0  0  0  0
 11 28  1  0  0  0  0
 12  8  2  0  0  0  0
 13  2  1  0  0  0  0
 14 23  1  0  0  0  0
 17 20  2  0  0  0  0
 17 26  1  0  0  0  0
 18 13  2  0  0  0  0
 19  1  1  0  0  0  0
 19  2  2  0  0  0  0
 20  4  1  0  0  0  0
 22  9  1  0  0  0  0
 22 20  1  0  0  0  0
 23 15  1  0  0  0  0
 25 26  2  0  0  0  0
 25 18  1  0  0  0  0
 26 19  1  0  0  0  0
 27 24  1  6  0  0  0
 27 12  1  0  0  0  0
 28 30  1  0  0  0  0
 30 29  1  0  0  0  0
M  END
>  <MODEL>
2

>  <REMARK>
 VINA RESULT:      -8.4      3.170      5.420
  Name = 
  2 active torsions:
  status: ('A' for Active; 'I' for Inactive)
    1  A    between atoms: C_11  and  O_28
    2  A    between atoms: O_28  and  C_30
                            x       y       z     vdW  Elec       q    Type
                         _______ _______ _______ _____ _____    ______ ____

>  <TORSDO>
F 2

$$$$
=
 OpenBabel11112416203D

 30 35  0  0  1  0  0  0  0  0999 V2000
  187.1300  176.6070  142.8210 C   0  0  0  0  0  0  0  0  0  0  0  0
  185.0980  178.0880  143.1950 C   0  0  0  0  0  0  0  0  0  0  0  0
  188.0240  176.6640  146.9150 N   0  0  0  0  0  2  0  0  0  0  0  0
  188.2620  175.9280  143.3770 C   0  0  0  0  0  0  0  0  0  0  0  0
  186.9000  176.4840  141.4470 C   0  0  0  0  0  3  0  0  0  0  0  0
  189.5900  174.2310  140.3460 O   0  0  0  0  0  1  0  0  0  0  0  0
  191.2880  175.1420  143.7200 C   0  0  1  0  0  3  0  0  0  0  0  0
  188.7920  175.0190  141.1720 C   0  0  0  0  0  0  0  0  0  0  0  0
  190.9850  175.6610  145.1280 C   0  0  2  0  0  3  0  0  0  0  0  0
  189.2330  175.8440  146.9430 C   0  0  1  0  0  3  0  0  0  0  0  0
  187.7170  175.7130  140.6190 C   0  0  0  0  0  0  0  0  0  0  0  0
  189.0690  175.1080  142.5460 C   0  0  0  0  0  0  0  0  0  0  0  0
  184.2820  178.7710  144.1010 C   0  0  0  0  0  3  0  0  0  0  0  0
  191.9010  174.8810  146.0530 C   0  0  0  0  0  2  0  0  0  0  0  0
  192.5940  174.3670  143.8050 C   0  0  0  0  0  2  0  0  0  0  0  0
  184.5850  178.2200  141.5140 Cl  0  0  0  0  0  0  0  0  0  0  0  0
  187.6290  176.7410  145.5580 C   0  0  0  0  0  0  0  0  0  0  0  0
  184.5620  178.7740  145.4630 C   0  0  0  0  0  3  0  0  0  0  0  0
  186.2460  177.3700  143.6610 C   0  0  0  0  0  0  0  0  0  0  0  0
  188.5010  176.0750  144.7570 C   0  0  0  0  0  0  0  0  0  0  0  0
  188.9420  174.5460  147.6750 C   0  0  0  0  0  1  0  0  0  0  0  0
  189.5800  175.5550  145.5410 N   0  0  0  0  0  0  0  0  0  0  0  0
  193.1130  174.5490  145.2160 C   0  0  0  0  0  2  0  0  0  0  0  0
  189.7360  173.0940  143.9050 C   0  0  0  0  0  1  0  0  0  0  0  0
  185.6740  178.0930  145.9410 C   0  0  0  0  0  3  0  0  0  0  0  0
  186.5120  177.4020  145.0630 C   0  0  0  0  0  0  0  0  0  0  0  0
  190.2060  174.2830  143.0720 C   0  0  2  0  0  3  0  0  0  0  0  0
  187.4700  175.6140  139.2450 O   0  0  0  0  0  0  0  0  0  0  0  0
  186.4200  176.0460  137.1350 C   0  0  0  0  0  1  0  0  0  0  0  0
  186.6800  176.5580  138.5350 C   0  0  0  0  0  2  0  0  0  0  0  0
  1  4  1  0  0  0  0
  1 19  1  0  0  0  0
  2 19  2  0  0  0  0
  2 13  1  0  0  0  0
  3 10  1  0  0  0  0
  4 20  1  0  0  0  0
  5  1  2  0  0  0  0
  6  8  1  0  0  0  0
  7 15  1  1  0  0  0
  7  9  1  0  0  0  0
  8 12  1  0  0  0  0
  9 22  1  0  0  0  0
  9 14  1  1  0  0  0
 10 21  1  1  0  0  0
 11  8  2  0  0  0  0
 11  5  1  0  0  0  0
 12 27  1  0  0  0  0
 12  4  2  0  0  0  0
 13 18  2  0  0  0  0
 15 23  1  0  0  0  0
 16  2  1  0  0  0  0
 17  3  1  0  0  0  0
 18 25  1  0  0  0  0
 19 26  1  0  0  0  0
 20 22  1  0  0  0  0
 20 17  2  0  0  0  0
 22 10  1  0  0  0  0
 23 14  1  0  0  0  0
 26 17  1  0  0  0  0
 26 25  2  0  0  0  0
 27  7  1  0  0  0  0
 27 24  1  1  0  0  0
 28 11  1  0  0  0  0
 29 30  1  0  0  0  0
 30 28  1  0  0  0  0
M  END
>  <MODEL>
3

>  <REMARK>
 VINA RESULT:      -8.4      1.527      2.109
  Name = 
  2 active torsions:
  status: ('A' for Active; 'I' for Inactive)
    1  A    between atoms: C_11  and  O_28
    2  A    between atoms: O_28  and  C_30
                            x       y       z     vdW  Elec       q    Type
                         _______ _______ _______ _____ _____    ______ ____

>  <TORSDO>
F 2

$$$$
=
 OpenBabel11112416203D

 30 35  0  0  1  0  0  0  0  0999 V2000
  187.9940  175.9820  142.2060 C   0  0  0  0  0  0  0  0  0  0  0  0
  186.2210  177.7970  142.0500 C   0  0  0  0  0  0  0  0  0  0  0  0
  188.6680  176.8760  146.2440 N   0  0  0  0  0  2  0  0  0  0  0  0
  188.9660  175.2930  143.0010 C   0  0  0  0  0  0  0  0  0  0  0  0
  187.8190  175.5720  140.8800 C   0  0  0  0  0  3  0  0  0  0  0  0
  190.1490  172.7440  140.5650 O   0  0  0  0  0  1  0  0  0  0  0  0
  191.7960  174.1650  143.7840 C   0  0  1  0  0  3  0  0  0  0  0  0
  189.4520  173.8160  141.1150 C   0  0  0  0  0  0  0  0  0  0  0  0
  191.5090  175.0440  145.0050 C   0  0  2  0  0  3  0  0  0  0  0  0
  189.7200  175.9140  146.5660 C   0  0  1  0  0  3  0  0  0  0  0  0
  188.5390  174.5120  140.3250 C   0  0  0  0  0  0  0  0  0  0  0  0
  189.6670  174.1870  142.4530 C   0  0  0  0  0  0  0  0  0  0  0  0
  185.4840  178.7910  142.7010 C   0  0  0  0  0  3  0  0  0  0  0  0
  192.2320  174.3780  146.1620 C   0  0  0  0  0  2  0  0  0  0  0  0
  192.9470  173.2460  144.1610 C   0  0  0  0  0  2  0  0  0  0  0  0
  185.8260  177.6010  140.3440 Cl  0  0  0  0  0  0  0  0  0  0  0  0
  188.3630  176.6870  144.8750 C   0  0  0  0  0  0  0  0  0  0  0  0
  185.6890  179.0760  144.0470 C   0  0  0  0  0  3  0  0  0  0  0  0
  187.2060  177.0470  142.7690 C   0  0  0  0  0  0  0  0  0  0  0  0
  189.1530  175.7260  144.3280 C   0  0  0  0  0  0  0  0  0  0  0  0
  189.1780  174.8870  147.5440 C   0  0  0  0  0  1  0  0  0  0  0  0
  190.0860  175.2510  145.3030 N   0  0  0  0  0  0  0  0  0  0  0  0
  193.4140  173.6780  145.5350 C   0  0  0  0  0  2  0  0  0  0  0  0
  189.9160  172.4770  144.2870 C   0  0  0  0  0  1  0  0  0  0  0  0
  186.6440  178.3690  144.7650 C   0  0  0  0  0  3  0  0  0  0  0  0
  187.4000  177.3710  144.1450 C   0  0  0  0  0  0  0  0  0  0  0  0
  190.6200  173.3490  143.2530 C   0  0  2  0  0  3  0  0  0  0  0  0
  188.3510  174.1280  138.9930 O   0  0  0  0  0  0  0  0  0  0  0  0
  188.4350  174.7880  136.6910 C   0  0  0  0  0  1  0  0  0  0  0  0
  187.7460  174.9740  138.0260 C   0  0  0  0  0  2  0  0  0  0  0  0
  1 19  2  0  0  0  0
  1  4  1  0  0  0  0
  2 13  2  0  0  0  0
  2 19  1  0  0  0  0
  3 10  1  0  0  0  0
  4 20  2  0  0  0  0
  5  1  1  0  0  0  0
  6  8  1  0  0  0  0
  7 15  1  1  0  0  0
  7  9  1  0  0  0  0
  8 12  2  0  0  0  0
  9 22  1  0  0  0  0
  9 14  1  1  0  0  0
 10 21  1  1  0  0  0
 11  5  2  0  0  0  0
 11  8  1  0  0  0  0
 12  4  1  0  0  0  0
 12 27  1  0  0  0  0
 13 18  1  0  0  0  0
 15 23  1  0  0  0  0
 16  2  1  0  0  0  0
 17  3  1  0  0  0  0
 18 25  2  0  0  0  0
 19 26  1  0  0  0  0
 20 17  1  0  0  0  0
 20 22  1  0  0  0  0
 22 10  1  0  0  0  0
 23 14  1  0  0  0  0
 26 25  1  0  0  0  0
 26 17  2  0  0  0  0
 27  7  1  0  0  0  0
 27 24  1  1  0  0  0
 28 11  1  0  0  0  0
 29 30  1  0  0  0  0
 30 28  1  0  0  0  0
M  END
>  <MODEL>
4

>  <REMARK>
 VINA RESULT:      -8.1      2.077      3.247
  Name = 
  2 active torsions:
  status: ('A' for Active; 'I' for Inactive)
    1  A    between atoms: C_11  and  O_28
    2  A    between atoms: O_28  and  C_30
                            x       y       z     vdW  Elec       q    Type
                         _______ _______ _______ _____ _____    ______ ____

>  <TORSDO>
F 2

$$$$
=
 OpenBabel11112416203D

 30 35  0  0  1  0  0  0  0  0999 V2000
  188.6000  176.0550  143.7180 C   0  0  0  0  0  0  0  0  0  0  0  0
  186.3370  177.0810  144.2550 C   0  0  0  0  0  0  0  0  0  0  0  0
  190.0410  177.0440  147.5270 N   0  0  0  0  0  2  0  0  0  0  0  0
  189.9360  175.7600  144.1420 C   0  0  0  0  0  0  0  0  0  0  0  0
  188.2090  175.6390  142.4410 C   0  0  0  0  0  3  0  0  0  0  0  0
  191.1900  173.8920  141.1810 O   0  0  0  0  0  1  0  0  0  0  0  0
  193.0790  175.7520  144.0220 C   0  0  1  0  0  3  0  0  0  0  0  0
  190.3490  174.6140  142.0240 C   0  0  0  0  0  0  0  0  0  0  0  0
  192.8640  176.4320  145.3760 C   0  0  2  0  0  3  0  0  0  0  0  0
  191.4090  176.5370  147.4430 C   0  0  1  0  0  3  0  0  0  0  0  0
  189.0650  174.9370  141.5900 C   0  0  0  0  0  0  0  0  0  0  0  0
  190.7930  175.0080  143.2970 C   0  0  0  0  0  0  0  0  0  0  0  0
  185.5170  177.7130  145.1940 C   0  0  0  0  0  3  0  0  0  0  0  0
  194.0730  176.0570  146.2140 C   0  0  0  0  0  2  0  0  0  0  0  0
  194.5350  175.3200  143.9700 C   0  0  0  0  0  2  0  0  0  0  0  0
  185.5660  176.7910  142.6970 Cl  0  0  0  0  0  0  0  0  0  0  0  0
  189.4450  176.7860  146.2690 C   0  0  0  0  0  0  0  0  0  0  0  0
  185.9840  178.0230  146.4670 C   0  0  0  0  0  3  0  0  0  0  0  0
  187.6850  176.7360  144.5950 C   0  0  0  0  0  0  0  0  0  0  0  0
  190.3300  176.2010  145.4210 C   0  0  0  0  0  0  0  0  0  0  0  0
  191.5660  175.3590  148.3880 C   0  0  0  0  0  1  0  0  0  0  0  0
  191.6080  176.0870  146.0540 N   0  0  0  0  0  0  0  0  0  0  0  0
  195.1930  175.8640  145.2210 C   0  0  0  0  0  2  0  0  0  0  0  0
  192.1400  173.4730  144.7730 C   0  0  0  0  0  1  0  0  0  0  0  0
  187.2900  177.7080  146.8190 C   0  0  0  0  0  3  0  0  0  0  0  0
  188.1360  177.0780  145.9040 C   0  0  0  0  0  0  0  0  0  0  0  0
  192.1660  174.5690  143.7110 C   0  0  2  0  0  3  0  0  0  0  0  0
  188.6510  174.5410  140.3130 O   0  0  0  0  0  0  0  0  0  0  0  0
  188.5600  172.8650  138.6030 C   0  0  0  0  0  1  0  0  0  0  0  0
  188.1920  173.2280  140.0250 C   0  0  0  0  0  2  0  0  0  0  0  0
  1  4  1  0  0  0  0
  1 19  1  0  0  0  0
  2 19  2  0  0  0  0
  2 13  1  0  0  0  0
  4 20  1  0  0  0  0
  5  1  2  0  0  0  0
  6  8  1  0  0  0  0
  7 15  1  1  0  0  0
  7  9  1  0  0  0  0
  8 12  1  0  0  0  0
  9 22  1  0  0  0  0
  9 14  1  1  0  0  0
 10  3  1  0  0  0  0
 10 21  1  1  0  0  0
 11  8  2  0  0  0  0
 11  5  1  0  0  0  0
 12 27  1  0  0  0  0
 12  4  2  0  0  0  0
 13 18  2  0  0  0  0
 15 23  1  0  0  0  0
 16  2  1  0  0  0  0
 17  3  1  0  0  0  0
 18 25  1  0  0  0  0
 19 26  1  0  0  0  0
 20 22  1  0  0  0  0
 20 17  2  0  0  0  0
 22 10  1  0  0  0  0
 23 14  1  0  0  0  0
 26 17  1  0  0  0  0
 26 25  2  0  0  0  0
 27  7  1  0  0  0  0
 27 24  1  1  0  0  0
 28 11  1  0  0  0  0
 29 30  1  0  0  0  0
 30 28  1  0  0  0  0
M  END
>  <MODEL>
5

>  <REMARK>
 VINA RESULT:      -8.1      2.149      3.387
  Name = 
  2 active torsions:
  status: ('A' for Active; 'I' for Inactive)
    1  A    between atoms: C_11  and  O_28
    2  A    between atoms: O_28  and  C_30
                            x       y       z     vdW  Elec       q    Type
                         _______ _______ _______ _____ _____    ______ ____

>  <TORSDO>
F 2

$$$$
=
 OpenBabel11112416203D

 30 35  0  0  1  0  0  0  0  0999 V2000
  188.0040  175.6530  141.6240 C   0  0  0  0  0  0  0  0  0  0  0  0
  189.7080  173.8410  141.1050 C   0  0  0  0  0  0  0  0  0  0  0  0
  188.9030  175.4410  145.7110 N   0  0  0  0  0  2  0  0  0  0  0  0
  187.3470  176.4630  142.6050 C   0  0  0  0  0  0  0  0  0  0  0  0
  187.6580  175.8380  140.2810 C   0  0  0  0  0  3  0  0  0  0  0  0
  185.2010  178.5710  140.4180 O   0  0  0  0  0  1  0  0  0  0  0  0
  184.9320  177.7010  144.1950 C   0  0  1  0  0  3  0  0  0  0  0  0
  186.1160  177.6060  140.8300 C   0  0  0  0  0  0  0  0  0  0  0  0
  185.6970  177.0380  145.3430 C   0  0  2  0  0  3  0  0  0  0  0  0
  187.9830  176.4410  146.2470 C   0  0  1  0  0  3  0  0  0  0  0  0
  186.7210  176.7900  139.8750 C   0  0  0  0  0  0  0  0  0  0  0  0
  186.4260  177.4620  142.1920 C   0  0  0  0  0  0  0  0  0  0  0  0
  190.6930  172.9700  141.5820 C   0  0  0  0  0  3  0  0  0  0  0  0
  185.4050  177.8850  146.5680 C   0  0  0  0  0  2  0  0  0  0  0  0
  183.9410  178.6680  144.8240 C   0  0  0  0  0  2  0  0  0  0  0  0
  189.4420  173.7510  139.3650 Cl  0  0  0  0  0  0  0  0  0  0  0  0
  188.6760  175.4010  144.3140 C   0  0  0  0  0  0  0  0  0  0  0  0
  191.0100  172.9120  142.9340 C   0  0  0  0  0  3  0  0  0  0  0  0
  189.0070  174.6980  142.0120 C   0  0  0  0  0  0  0  0  0  0  0  0
  187.6830  176.2570  143.9570 C   0  0  0  0  0  0  0  0  0  0  0  0
  188.7780  177.6180  146.7850 C   0  0  0  0  0  1  0  0  0  0  0  0
  187.1410  176.8850  145.1230 N   0  0  0  0  0  0  0  0  0  0  0  0
  184.0340  178.4690  146.3230 C   0  0  0  0  0  2  0  0  0  0  0  0
  186.7550  179.4520  143.7030 C   0  0  0  0  0  1  0  0  0  0  0  0
  190.3390  173.7270  143.8370 C   0  0  0  0  0  3  0  0  0  0  0  0
  189.3490  174.6070  143.3940 C   0  0  0  0  0  0  0  0  0  0  0  0
  185.7790  178.4190  143.1480 C   0  0  2  0  0  3  0  0  0  0  0  0
  186.3860  176.9480  138.5260 O   0  0  0  0  0  0  0  0  0  0  0  0
  185.7390  176.0100  136.4180 C   0  0  0  0  0  1  0  0  0  0  0  0
  186.7730  176.0200  137.5230 C   0  0  0  0  0  2  0  0  0  0  0  0
  1 19  2  0  0  0  0
  1  4  1  0  0  0  0
  2 13  2  0  0  0  0
  2 19  1  0  0  0  0
  3 10  1  0  0  0  0
  4 20  2  0  0  0  0
  5  1  1  0  0  0  0
  6  8  1  0  0  0  0
  7 15  1  1  0  0  0
  7  9  1  0  0  0  0
  8 12  2  0  0  0  0
  9 14  1  1  0  0  0
 10 21  1  6  0  0  0
 11  5  2  0  0  0  0
 11  8  1  0  0  0  0
 12  4  1  0  0  0  0
 12 27  1  0  0  0  0
 13 18  1  0  0  0  0
 15 23  1  0  0  0  0
 16  2  1  0  0  0  0
 17  3  1  0  0  0  0
 18 25  2  0  0  0  0
 19 26  1  0  0  0  0
 20 17  1  0  0  0  0
 20 22  1  0  0  0  0
 22  9  1  0  0  0  0
 22 10  1  0  0  0  0
 23 14  1  0  0  0  0
 26 25  1  0  0  0  0
 26 17  2  0  0  0  0
 27 24  1  1  0  0  0
 27  7  1  0  0  0  0
 28 11  1  0  0  0  0
 29 30  1  0  0  0  0
 30 28  1  0  0  0  0
M  END
>  <MODEL>
6

>  <REMARK>
 VINA RESULT:      -8.0      2.417      5.551
  Name = 
  2 active torsions:
  status: ('A' for Active; 'I' for Inactive)
    1  A    between atoms: C_11  and  O_28
    2  A    between atoms: O_28  and  C_30
                            x       y       z     vdW  Elec       q    Type
                         _______ _______ _______ _____ _____    ______ ____

>  <TORSDO>
F 2

$$$$
=
 OpenBabel11112416203D

 30 35  0  0  1  0  0  0  0  0999 V2000
  188.0470  176.1650  142.2340 C   0  0  0  0  0  0  0  0  0  0  0  0
  186.2710  177.1650  140.7140 C   0  0  0  0  0  0  0  0  0  0  0  0
  186.5260  178.2640  145.5260 N   0  0  0  0  0  2  0  0  0  0  0  0
  188.6240  176.0800  143.5420 C   0  0  0  0  0  0  0  0  0  0  0  0
  188.6070  175.3860  141.2160 C   0  0  0  0  0  3  0  0  0  0  0  0
  191.2700  173.5340  142.9490 O   0  0  0  0  0  1  0  0  0  0  0  0
  190.8810  176.2220  145.7270 C   0  0  1  0  0  3  0  0  0  0  0  0
  190.2130  174.4120  142.7240 C   0  0  0  0  0  0  0  0  0  0  0  0
  189.8910  177.2410  146.2980 C   0  0  2  0  0  3  0  0  0  0  0  0
  187.4480  177.8340  146.5750 C   0  0  1  0  0  3  0  0  0  0  0  0
  189.6830  174.5250  141.4410 C   0  0  0  0  0  0  0  0  0  0  0  0
  189.6890  175.1720  143.7830 C   0  0  0  0  0  0  0  0  0  0  0  0
  185.1460  177.9860  140.5890 C   0  0  0  0  0  3  0  0  0  0  0  0
  190.0770  177.1870  147.8030 C   0  0  0  0  0  2  0  0  0  0  0  0
  191.8550  175.8800  146.8430 C   0  0  0  0  0  2  0  0  0  0  0  0
  186.7870  176.4050  139.2100 Cl  0  0  0  0  0  0  0  0  0  0  0  0
  186.9560  177.6290  144.3360 C   0  0  0  0  0  0  0  0  0  0  0  0
  184.6250  178.6670  141.6830 C   0  0  0  0  0  3  0  0  0  0  0  0
  186.9080  177.0090  141.9870 C   0  0  0  0  0  0  0  0  0  0  0  0
  188.0700  176.8830  144.5570 C   0  0  0  0  0  0  0  0  0  0  0  0
  186.7000  176.9800  147.5830 C   0  0  0  0  0  1  0  0  0  0  0  0
  188.4890  177.0260  145.9170 N   0  0  0  0  0  0  0  0  0  0  0  0
  191.5190  176.7890  148.0060 C   0  0  0  0  0  2  0  0  0  0  0  0
  189.3320  174.1940  146.0780 C   0  0  0  0  0  1  0  0  0  0  0  0
  185.2280  178.5400  142.9280 C   0  0  0  0  0  3  0  0  0  0  0  0
  186.3550  177.7300  143.0880 C   0  0  0  0  0  0  0  0  0  0  0  0
  190.2750  174.9480  145.1450 C   0  0  2  0  0  3  0  0  0  0  0  0
  190.2300  173.7640  140.4030 O   0  0  0  0  0  0  0  0  0  0  0  0
  188.6100  172.6720  139.0150 C   0  0  0  0  0  1  0  0  0  0  0  0
  189.7200  172.4920  140.0280 C   0  0  0  0  0  2  0  0  0  0  0  0
  1  4  1  0  0  0  0
  2 19  1  0  0  0  0
  3 10  1  0  0  0  0
  4 12  1  0  0  0  0
  4 20  2  0  0  0  0
  5 11  2  0  0  0  0
  5  1  1  0  0  0  0
  7  9  1  0  0  0  0
  7 15  1  1  0  0  0
  8  6  1  0  0  0  0
  8 12  2  0  0  0  0
  9 14  1  1  0  0  0
 10 21  1  1  0  0  0
 11  8  1  0  0  0  0
 12 27  1  0  0  0  0
 13  2  2  0  0  0  0
 13 18  1  0  0  0  0
 14 23  1  0  0  0  0
 15 23  1  0  0  0  0
 16  2  1  0  0  0  0
 17 20  1  0  0  0  0
 17  3  1  0  0  0  0
 18 25  2  0  0  0  0
 19  1  2  0  0  0  0
 19 26  1  0  0  0  0
 20 22  1  0  0  0  0
 22  9  1  0  0  0  0
 22 10  1  0  0  0  0
 25 26  1  0  0  0  0
 26 17  2  0  0  0  0
 27  7  1  0  0  0  0
 27 24  1  1  0  0  0
 28 11  1  0  0  0  0
 29 30  1  0  0  0  0
 30 28  1  0  0  0  0
M  END
>  <MODEL>
7

>  <REMARK>
 VINA RESULT:      -7.7      2.343      4.521
  Name = 
  2 active torsions:
  status: ('A' for Active; 'I' for Inactive)
    1  A    between atoms: C_11  and  O_28
    2  A    between atoms: O_28  and  C_30
                            x       y       z     vdW  Elec       q    Type
                         _______ _______ _______ _____ _____    ______ ____

>  <TORSDO>
F 2

$$$$
=
 OpenBabel11112416203D

 30 35  0  0  1  0  0  0  0  0999 V2000
  187.8170  175.8780  140.6670 C   0  0  0  0  0  0  0  0  0  0  0  0
  187.8890  174.7490  138.3910 C   0  0  0  0  0  0  0  0  0  0  0  0
  190.8510  173.3680  142.0990 N   0  0  0  0  0  2  0  0  0  0  0  0
  188.3170  175.9530  142.0060 C   0  0  0  0  0  0  0  0  0  0  0  0
  186.8330  176.7950  140.2800 C   0  0  0  0  0  3  0  0  0  0  0  0
  186.4020  178.8750  143.2820 O   0  0  0  0  0  1  0  0  0  0  0  0
  188.1900  175.9750  145.1490 C   0  0  1  0  0  3  0  0  0  0  0  0
  186.8700  177.8760  142.4330 C   0  0  0  0  0  0  0  0  0  0  0  0
  189.1370  174.7920  144.9270 C   0  0  2  0  0  3  0  0  0  0  0  0
  190.9790  173.8480  143.4730 C   0  0  1  0  0  3  0  0  0  0  0  0
  186.3490  177.7800  141.1440 C   0  0  0  0  0  0  0  0  0  0  0  0
  187.8580  176.9800  142.8730 C   0  0  0  0  0  0  0  0  0  0  0  0
  188.4830  173.7900  137.5630 C   0  0  0  0  0  3  0  0  0  0  0  0
  190.0460  174.7670  146.1420 C   0  0  0  0  0  2  0  0  0  0  0  0
  188.3140  176.3710  146.6120 C   0  0  0  0  0  2  0  0  0  0  0  0
  186.6010  175.6740  137.6220 Cl  0  0  0  0  0  0  0  0  0  0  0  0
  189.8210  174.1370  141.5040 C   0  0  0  0  0  0  0  0  0  0  0  0
  189.5050  172.9710  138.0280 C   0  0  0  0  0  3  0  0  0  0  0  0
  188.3330  174.9040  139.7430 C   0  0  0  0  0  0  0  0  0  0  0  0
  189.2900  175.0120  142.3960 C   0  0  0  0  0  0  0  0  0  0  0  0
  192.3290  174.5190  143.6470 C   0  0  0  0  0  1  0  0  0  0  0  0
  189.9050  174.8360  143.6760 N   0  0  0  0  0  0  0  0  0  0  0  0
  189.2180  175.3460  147.2630 C   0  0  0  0  0  2  0  0  0  0  0  0
  189.8330  177.7390  144.2420 C   0  0  0  0  0  1  0  0  0  0  0  0
  189.9490  173.0940  139.3380 C   0  0  0  0  0  3  0  0  0  0  0  0
  189.3770  174.0390  140.1920 C   0  0  0  0  0  0  0  0  0  0  0  0
  188.4100  177.1890  144.2520 C   0  0  2  0  0  3  0  0  0  0  0  0
  185.3590  178.6790  140.7340 O   0  0  0  0  0  0  0  0  0  0  0  0
  183.2620  178.2910  141.8290 C   0  0  0  0  0  1  0  0  0  0  0  0
  184.0100  178.2910  140.5130 C   0  0  0  0  0  2  0  0  0  0  0  0
  1  4  1  0  0  0  0
  2 19  1  0  0  0  0
  3 10  1  0  0  0  0
  4 20  1  0  0  0  0
  4 12  2  0  0  0  0
  5  1  2  0  0  0  0
  5 11  1  0  0  0  0
  7 15  1  1  0  0  0
  8 12  1  0  0  0  0
  8  6  1  0  0  0  0
  9  7  1  0  0  0  0
  9 14  1  1  0  0  0
 10 21  1  6  0  0  0
 10 22  1  0  0  0  0
 11  8  2  0  0  0  0
 12 27  1  0  0  0  0
 13 18  1  0  0  0  0
 13  2  2  0  0  0  0
 14 23  1  0  0  0  0
 15 23  1  0  0  0  0
 16  2  1  0  0  0  0
 17  3  1  0  0  0  0
 17 20  2  0  0  0  0
 18 25  2  0  0  0  0
 19 26  2  0  0  0  0
 19  1  1  0  0  0  0
 20 22  1  0  0  0  0
 22  9  1  0  0  0  0
 25 26  1  0  0  0  0
 26 17  1  0  0  0  0
 27 24  1  6  0  0  0
 27  7  1  0  0  0  0
 28 11  1  0  0  0  0
 30 28  1  0  0  0  0
 30 29  1  0  0  0  0
M  END
>  <MODEL>
8

>  <REMARK>
 VINA RESULT:      -7.6      2.559      5.407
  Name = 
  2 active torsions:
  status: ('A' for Active; 'I' for Inactive)
    1  A    between atoms: C_11  and  O_28
    2  A    between atoms: O_28  and  C_30
                            x       y       z     vdW  Elec       q    Type
                         _______ _______ _______ _____ _____    ______ ____

>  <TORSDO>
F 2

$$$$
=
 OpenBabel11112416203D

 30 35  0  0  1  0  0  0  0  0999 V2000
  189.1770  173.7880  141.4280 C   0  0  0  0  0  0  0  0  0  0  0  0
  190.6420  171.7550  141.8490 C   0  0  0  0  0  0  0  0  0  0  0  0
  189.6180  175.0290  145.4070 N   0  0  0  0  0  2  0  0  0  0  0  0
  188.5500  174.9670  141.9470 C   0  0  0  0  0  0  0  0  0  0  0  0
  189.0000  173.4920  140.0720 C   0  0  0  0  0  3  0  0  0  0  0  0
  186.9680  176.3070  138.8590 O   0  0  0  0  0  1  0  0  0  0  0  0
  186.1930  176.9400  142.6140 C   0  0  1  0  0  3  0  0  0  0  0  0
  187.6860  175.4800  139.7190 C   0  0  0  0  0  0  0  0  0  0  0  0
  186.7330  176.6810  144.0230 C   0  0  2  0  0  3  0  0  0  0  0  0
  188.8040  176.2430  145.4070 C   0  0  1  0  0  3  0  0  0  0  0  0
  188.2580  174.3120  139.2190 C   0  0  0  0  0  0  0  0  0  0  0  0
  187.8320  175.8250  141.0730 C   0  0  0  0  0  0  0  0  0  0  0  0
  191.4350  171.0320  142.7460 C   0  0  0  0  0  3  0  0  0  0  0  0
  186.4460  177.9490  144.8060 C   0  0  0  0  0  2  0  0  0  0  0  0
  185.2960  178.1650  142.7020 C   0  0  0  0  0  2  0  0  0  0  0  0
  190.5430  171.0490  140.2370 Cl  0  0  0  0  0  0  0  0  0  0  0  0
  189.5300  174.4930  144.0990 C   0  0  0  0  0  0  0  0  0  0  0  0
  191.6020  171.4520  144.0610 C   0  0  0  0  0  3  0  0  0  0  0  0
  189.9860  172.9530  142.2760 C   0  0  0  0  0  0  0  0  0  0  0  0
  188.7140  175.2470  143.3170 C   0  0  0  0  0  0  0  0  0  0  0  0
  189.7040  177.4500  145.6010 C   0  0  0  0  0  1  0  0  0  0  0  0
  188.1540  176.3150  144.0870 N   0  0  0  0  0  0  0  0  0  0  0  0
  185.2080  178.5310  144.1690 C   0  0  0  0  0  2  0  0  0  0  0  0
  188.2940  178.1920  141.8040 C   0  0  0  0  0  1  0  0  0  0  0  0
  190.9700  172.6060  144.5030 C   0  0  0  0  0  3  0  0  0  0  0  0
  190.1690  173.3510  143.6340 C   0  0  0  0  0  0  0  0  0  0  0  0
  187.2380  177.1290  141.5170 C   0  0  2  0  0  3  0  0  0  0  0  0
  188.0880  173.9870  137.8690 O   0  0  0  0  0  0  0  0  0  0  0  0
  189.4530  172.5100  136.5660 C   0  0  0  0  0  1  0  0  0  0  0  0
  189.1670  173.9460  136.9460 C   0  0  0  0  0  2  0  0  0  0  0  0
  1  4  1  0  0  0  0
  1 19  1  0  0  0  0
  2 19  2  0  0  0  0
  2 13  1  0  0  0  0
  3 10  1  0  0  0  0
  4 20  1  0  0  0  0
  5  1  2  0  0  0  0
  6  8  1  0  0  0  0
  7 15  1  1  0  0  0
  7  9  1  0  0  0  0
  8 12  1  0  0  0  0
  9 22  1  0  0  0  0
  9 14  1  1  0  0  0
 10 21  1  6  0  0  0
 11  8  2  0  0  0  0
 11  5  1  0  0  0  0
 12 27  1  0  0  0  0
 12  4  2  0  0  0  0
 13 18  2  0  0  0  0
 15 23  1  0  0  0  0
 16  2  1  0  0  0  0
 17  3  1  0  0  0  0
 18 25  1  0  0  0  0
 19 26  1  0  0  0  0
 20 22  1  0  0  0  0
 20 17  2  0  0  0  0
 22 10  1  0  0  0  0
 23 14  1  0  0  0  0
 26 17  1  0  0  0  0
 26 25  2  0  0  0  0
 27 24  1  1  0  0  0
 27  7  1  0  0  0  0
 28 11  1  0  0  0  0
 29 30  1  0  0  0  0
 30 28  1  0  0  0  0
M  END
>  <MODEL>
9

>  <REMARK>
 VINA RESULT:      -7.5      3.131      6.084
  Name = 
  2 active torsions:
  status: ('A' for Active; 'I' for Inactive)
    1  A    between atoms: C_11  and  O_28
    2  A    between atoms: O_28  and  C_30
                            x       y       z     vdW  Elec       q    Type
                         _______ _______ _______ _____ _____    ______ ____

>  <TORSDO>
F 2

$$$$
