=
 OpenBabel11112417393D

 28 32  0  0  1  0  0  0  0  0999 V2000
  189.5110  176.8430  145.1860 C   0  0  0  0  0  0  0  0  0  0  0  0
  194.6220  176.2990  144.3160 C   0  0  0  0  0  1  0  0  0  0  0  0
  189.2730  172.7680  142.7020 O   0  0  0  0  0  0  0  0  0  0  0  0
  188.8820  175.0880  147.2280 N   0  0  0  0  0  0  0  0  0  0  0  0
  191.4200  172.5630  143.7870 C   0  0  2  0  0  3  0  0  0  0  0  0
  189.8040  177.7520  144.0330 C   0  0  0  0  0  2  0  0  0  0  0  0
  194.2200  177.0240  146.6180 C   0  0  0  0  0  1  0  0  0  0  0  0
  194.2590  175.8020  145.7220 C   0  0  0  0  0  0  0  0  0  0  0  0
  195.2980  173.7800  145.4400 C   0  0  1  0  0  3  0  0  0  0  0  0
  192.8550  175.1240  145.8080 C   0  0  2  0  0  3  0  0  0  0  0  0
  187.8950  175.3540  143.1230 O   0  0  0  0  0  1  0  0  0  0  0  0
  191.8630  174.9850  143.6250 C   0  0  1  0  0  3  0  0  0  0  0  0
  194.0550  172.9550  145.7220 C   0  0  0  0  0  2  0  0  0  0  0  0
  195.2690  174.9480  146.2190 O   0  0  0  0  0  0  0  0  0  0  0  0
  188.6900  176.1660  142.3100 C   0  0  2  0  0  3  0  0  0  0  0  0
  190.4500  175.8760  145.5900 C   0  0  0  0  0  0  0  0  0  0  0  0
  190.3180  173.3130  143.1480 C   0  0  0  0  0  0  0  0  0  0  0  0
  196.5300  172.9710  145.7870 C   0  0  0  0  0  1  0  0  0  0  0  0
  190.0250  175.5070  141.9560 C   0  0  0  0  0  2  0  0  0  0  0  0
  190.0910  174.9850  146.6160 C   0  0  0  0  0  3  0  0  0  0  0  0
  188.2810  176.9360  145.8460 C   0  0  0  0  0  3  0  0  0  0  0  0
  187.9820  176.0420  146.8740 C   0  0  0  0  0  3  0  0  0  0  0  0
  188.8110  177.5850  142.8780 C   0  0  0  0  0  2  0  0  0  0  0  0
  192.4890  173.6350  144.0150 C   0  0  1  0  0  3  0  0  0  0  0  0
  190.5580  174.7050  143.0530 N   0  0  0  0  0  0  0  0  0  0  0  0
  192.8260  173.7000  145.4340 N   0  0  2  0  0  0  0  0  0  0  0  0
  191.9120  171.6020  142.9030 O   0  0  0  0  0  1  0  0  0  0  0  0
  191.8130  175.8030  144.9240 C   0  0  1  0  0  3  0  0  0  0  0  0
  1 16  2  0  0  0  0
  1 21  1  0  0  0  0
  2  8  1  0  0  0  0
  3 17  2  0  0  0  0
  5 27  1  6  0  0  0
  5 24  1  0  0  0  0
  6  1  1  0  0  0  0
  8 14  1  0  0  0  0
  8  7  1  0  0  0  0
  9 13  1  0  0  0  0
  9 18  1  1  0  0  0
  9 14  1  0  0  0  0
 10  8  1  6  0  0  0
 12 25  1  1  0  0  0
 12 24  1  0  0  0  0
 12 28  1  0  0  0  0
 15 23  1  0  0  0  0
 15 11  1  1  0  0  0
 16 20  1  0  0  0  0
 17  5  1  0  0  0  0
 19 15  1  0  0  0  0
 19 25  1  0  0  0  0
 20  4  2  0  0  0  0
 21 22  2  0  0  0  0
 22  4  1  0  0  0  0
 23  6  1  0  0  0  0
 24 26  1  0  0  0  0
 25 17  1  0  0  0  0
 26 13  1  0  0  0  0
 26 10  1  0  0  0  0
 28 16  1  0  0  0  0
 28 10  1  0  0  0  0
M  END
>  <MODEL>
1

>  <REMARK>
 VINA RESULT:      -7.9      0.000      0.000
  Name = 
  0 active torsions:
  status: ('A' for Active; 'I' for Inactive)
                            x       y       z     vdW  Elec       q    Type
                         _______ _______ _______ _____ _____    ______ ____

>  <TORSDO>
F 0

$$$$
=
 OpenBabel11112417393D

 28 32  0  0  1  0  0  0  0  0999 V2000
  190.8650  174.2260  143.0730 C   0  0  0  0  0  0  0  0  0  0  0  0
  187.5420  178.2000  143.6490 C   0  0  0  0  0  1  0  0  0  0  0  0
  192.7800  176.0460  147.0560 O   0  0  0  0  0  0  0  0  0  0  0  0
  190.0840  172.2940  144.8910 N   0  0  0  0  0  0  0  0  0  0  0  0
  190.4470  176.6070  147.3240 C   0  0  2  0  0  3  0  0  0  0  0  0
  191.3560  175.2790  142.1280 C   0  0  0  0  0  2  0  0  0  0  0  0
  186.3410  176.1700  143.0000 C   0  0  0  0  0  1  0  0  0  0  0  0
  186.9280  176.9020  144.1910 C   0  0  0  0  0  0  0  0  0  0  0  0
  186.3820  177.8270  146.2140 C   0  0  1  0  0  3  0  0  0  0  0  0
  187.9660  175.9420  144.8540 C   0  0  2  0  0  3  0  0  0  0  0  0
  193.4770  174.7840  144.4680 O   0  0  0  0  0  1  0  0  0  0  0  0
  190.1360  176.9710  144.9040 C   0  0  1  0  0  3  0  0  0  0  0  0
  187.1750  176.8240  147.0340 C   0  0  0  0  0  2  0  0  0  0  0  0
  185.8630  177.1910  145.0740 O   0  0  0  0  0  0  0  0  0  0  0  0
  193.3690  175.9030  143.6380 C   0  0  2  0  0  3  0  0  0  0  0  0
  189.9190  174.5420  144.0650 C   0  0  0  0  0  0  0  0  0  0  0  0
  191.6770  176.3690  146.5390 C   0  0  0  0  0  0  0  0  0  0  0  0
  185.2430  178.3720  147.0500 C   0  0  0  0  0  1  0  0  0  0  0  0
  192.5990  177.0490  144.3010 C   0  0  0  0  0  2  0  0  0  0  0  0
  189.5600  173.5430  144.9870 C   0  0  0  0  0  3  0  0  0  0  0  0
  191.3750  172.9260  142.9880 C   0  0  0  0  0  3  0  0  0  0  0  0
  190.9690  171.9650  143.9140 C   0  0  0  0  0  3  0  0  0  0  0  0
  192.8640  175.5210  142.2420 C   0  0  0  0  0  2  0  0  0  0  0  0
  189.4500  177.1030  146.2740 C   0  0  1  0  0  3  0  0  0  0  0  0
  191.5100  176.5700  145.1480 N   0  0  0  0  0  0  0  0  0  0  0  0
  188.2750  176.2360  146.2630 N   0  0  2  0  0  0  0  0  0  0  0  0
  190.6730  177.6170  148.2600 O   0  0  0  0  0  1  0  0  0  0  0  0
  189.3100  175.9320  144.1310 C   0  0  1  0  0  3  0  0  0  0  0  0
  1 16  1  0  0  0  0
  2  8  1  0  0  0  0
  4 20  1  0  0  0  0
  5 27  1  1  0  0  0
  6 23  1  0  0  0  0
  6  1  1  0  0  0  0
  7  8  1  0  0  0  0
  8 14  1  0  0  0  0
  9 13  1  0  0  0  0
  9 18  1  1  0  0  0
 10  8  1  6  0  0  0
 10 26  1  0  0  0  0
 12 25  1  1  0  0  0
 12 24  1  0  0  0  0
 14  9  1  0  0  0  0
 15 19  1  0  0  0  0
 15 11  1  1  0  0  0
 16 28  1  0  0  0  0
 16 20  2  0  0  0  0
 17  3  2  0  0  0  0
 17  5  1  0  0  0  0
 19 25  1  0  0  0  0
 21  1  2  0  0  0  0
 21 22  1  0  0  0  0
 22  4  2  0  0  0  0
 23 15  1  0  0  0  0
 24  5  1  0  0  0  0
 25 17  1  0  0  0  0
 26 24  1  0  0  0  0
 26 13  1  0  0  0  0
 28 10  1  0  0  0  0
 28 12  1  0  0  0  0
M  END
>  <MODEL>
2

>  <REMARK>
 VINA RESULT:      -7.8      2.475      6.199
  Name = 
  0 active torsions:
  status: ('A' for Active; 'I' for Inactive)
                            x       y       z     vdW  Elec       q    Type
                         _______ _______ _______ _____ _____    ______ ____

>  <TORSDO>
F 0

$$$$
=
 OpenBabel11112417393D

 28 32  0  0  1  0  0  0  0  0999 V2000
  191.6800  174.0490  143.2100 C   0  0  0  0  0  0  0  0  0  0  0  0
  188.8000  178.2340  142.0430 C   0  0  0  0  0  1  0  0  0  0  0  0
  191.9920  176.2060  147.4630 O   0  0  0  0  0  0  0  0  0  0  0  0
  190.0530  172.3810  144.6990 N   0  0  0  0  0  0  0  0  0  0  0  0
  189.8140  176.9180  146.7040 C   0  0  2  0  0  3  0  0  0  0  0  0
  192.6080  174.9600  142.4660 C   0  0  0  0  0  2  0  0  0  0  0  0
  187.7750  176.2100  141.1270 C   0  0  0  0  0  1  0  0  0  0  0  0
  187.8990  177.0410  142.3890 C   0  0  0  0  0  0  0  0  0  0  0  0
  186.6750  178.2170  143.9270 C   0  0  1  0  0  3  0  0  0  0  0  0
  188.4870  176.1080  143.4960 C   0  0  2  0  0  3  0  0  0  0  0  0
  193.5490  174.6230  145.5030 O   0  0  0  0  0  1  0  0  0  0  0  0
  190.5390  177.0200  144.3470 C   0  0  1  0  0  3  0  0  0  0  0  0
  186.9720  177.2730  145.0790 C   0  0  0  0  0  2  0  0  0  0  0  0
  186.6020  177.4850  142.7310 O   0  0  0  0  0  0  0  0  0  0  0  0
  193.8910  175.6450  144.6130 C   0  0  2  0  0  3  0  0  0  0  0  0
  190.4490  174.5260  143.6970 C   0  0  0  0  0  0  0  0  0  0  0  0
  191.2270  176.5270  146.5150 C   0  0  0  0  0  0  0  0  0  0  0  0
  185.3540  178.9140  144.1740 C   0  0  0  0  0  1  0  0  0  0  0  0
  193.0320  176.8970  144.8050 C   0  0  0  0  0  2  0  0  0  0  0  0
  189.6560  173.6590  144.4680 C   0  0  0  0  0  3  0  0  0  0  0  0
  192.0550  172.7220  143.4490 C   0  0  0  0  0  3  0  0  0  0  0  0
  191.2210  171.8960  144.2020 C   0  0  0  0  0  3  0  0  0  0  0  0
  193.9580  175.1330  143.1690 C   0  0  0  0  0  2  0  0  0  0  0  0
  189.3760  177.3430  145.3000 C   0  0  1  0  0  3  0  0  0  0  0  0
  191.6540  176.5770  145.1660 N   0  0  0  0  0  0  0  0  0  0  0  0
  188.2280  176.5440  144.8790 N   0  0  2  0  0  0  0  0  0  0  0  0
  189.7380  178.0140  147.5620 O   0  0  0  0  0  1  0  0  0  0  0  0
  190.0000  175.9450  143.3920 C   0  0  1  0  0  3  0  0  0  0  0  0
  1 21  2  0  0  0  0
  1 16  1  0  0  0  0
  2  8  1  0  0  0  0
  5 27  1  1  0  0  0
  6 23  1  0  0  0  0
  6  1  1  0  0  0  0
  7  8  1  0  0  0  0
  8 14  1  0  0  0  0
  9 18  1  1  0  0  0
  9 13  1  0  0  0  0
 10  8  1  6  0  0  0
 10 26  1  0  0  0  0
 12 25  1  1  0  0  0
 12 24  1  0  0  0  0
 14  9  1  0  0  0  0
 15 19  1  0  0  0  0
 15 11  1  1  0  0  0
 16 20  2  0  0  0  0
 17  5  1  0  0  0  0
 17  3  2  0  0  0  0
 19 25  1  0  0  0  0
 20  4  1  0  0  0  0
 21 22  1  0  0  0  0
 22  4  2  0  0  0  0
 23 15  1  0  0  0  0
 24  5  1  0  0  0  0
 25 17  1  0  0  0  0
 26 13  1  0  0  0  0
 26 24  1  0  0  0  0
 28 10  1  0  0  0  0
 28 16  1  0  0  0  0
 28 12  1  0  0  0  0
M  END
>  <MODEL>
3

>  <REMARK>
 VINA RESULT:      -7.8      2.308      6.297
  Name = 
  0 active torsions:
  status: ('A' for Active; 'I' for Inactive)
                            x       y       z     vdW  Elec       q    Type
                         _______ _______ _______ _____ _____    ______ ____

>  <TORSDO>
F 0

$$$$
=
 OpenBabel11112417393D

 28 32  0  0  1  0  0  0  0  0999 V2000
  190.5030  174.3650  144.0160 C   0  0  0  0  0  0  0  0  0  0  0  0
  185.9760  176.4160  145.5900 C   0  0  0  0  0  1  0  0  0  0  0  0
  188.5030  174.8070  139.6980 O   0  0  0  0  0  0  0  0  0  0  0  0
  192.0010  176.4660  143.0220 N   0  0  0  0  0  0  0  0  0  0  0  0
  187.5180  176.6580  140.8940 C   0  0  2  0  0  3  0  0  0  0  0  0
  189.6910  173.1950  144.4830 C   0  0  0  0  0  2  0  0  0  0  0  0
  187.8410  177.4180  146.8160 C   0  0  0  0  0  1  0  0  0  0  0  0
  187.0620  177.4980  145.5180 C   0  0  0  0  0  0  0  0  0  0  0  0
  185.7850  178.9070  144.2400 C   0  0  1  0  0  3  0  0  0  0  0  0
  188.0840  177.2900  144.3560 C   0  0  2  0  0  3  0  0  0  0  0  0
  190.2120  173.0240  141.3330 O   0  0  0  0  0  1  0  0  0  0  0  0
  187.4460  175.4010  143.0160 C   0  0  1  0  0  3  0  0  0  0  0  0
  186.7860  178.9900  143.1000 C   0  0  0  0  0  2  0  0  0  0  0  0
  186.4750  178.7820  145.4570 O   0  0  0  0  0  0  0  0  0  0  0  0
  189.2170  172.3750  142.0690 C   0  0  2  0  0  3  0  0  0  0  0  0
  189.8940  175.6140  143.7970 C   0  0  0  0  0  0  0  0  0  0  0  0
  188.0700  175.2920  140.7780 C   0  0  0  0  0  0  0  0  0  0  0  0
  184.9420  180.1640  144.2630 C   0  0  0  0  0  1  0  0  0  0  0  0
  187.8770  173.1110  142.0130 C   0  0  0  0  0  2  0  0  0  0  0  0
  190.6790  176.6540  143.2710 C   0  0  0  0  0  3  0  0  0  0  0  0
  191.8700  174.2040  143.7670 C   0  0  0  0  0  3  0  0  0  0  0  0
  192.6090  175.2750  143.2660 C   0  0  0  0  0  3  0  0  0  0  0  0
  189.6980  172.0330  143.4840 C   0  0  0  0  0  2  0  0  0  0  0  0
  187.0090  176.7100  142.3370 C   0  0  1  0  0  3  0  0  0  0  0  0
  188.0390  174.5620  141.9900 N   0  0  0  0  0  0  0  0  0  0  0  0
  187.6550  177.8110  143.0480 N   0  0  2  0  0  0  0  0  0  0  0  0
  186.4420  176.8090  140.0200 O   0  0  0  0  0  1  0  0  0  0  0  0
  188.4250  175.8210  144.1220 C   0  0  1  0  0  3  0  0  0  0  0  0
  1  6  1  0  0  0  0
  3 17  2  0  0  0  0
  4 22  2  0  0  0  0
  4 20  1  0  0  0  0
  5 27  1  6  0  0  0
  5 24  1  0  0  0  0
  8  2  1  0  0  0  0
  8  7  1  0  0  0  0
  9 18  1  1  0  0  0
  9 14  1  0  0  0  0
 10  8  1  1  0  0  0
 12 25  1  6  0  0  0
 12 28  1  0  0  0  0
 13  9  1  0  0  0  0
 14  8  1  0  0  0  0
 15 11  1  1  0  0  0
 15 23  1  0  0  0  0
 16  1  1  0  0  0  0
 16 28  1  0  0  0  0
 17  5  1  0  0  0  0
 17 25  1  0  0  0  0
 19 15  1  0  0  0  0
 20 16  2  0  0  0  0
 21  1  2  0  0  0  0
 22 21  1  0  0  0  0
 23  6  1  0  0  0  0
 24 12  1  0  0  0  0
 24 26  1  0  0  0  0
 25 19  1  0  0  0  0
 26 13  1  0  0  0  0
 26 10  1  0  0  0  0
 28 10  1  0  0  0  0
M  END
>  <MODEL>
4

>  <REMARK>
 VINA RESULT:      -7.8      2.984      6.463
  Name = 
  0 active torsions:
  status: ('A' for Active; 'I' for Inactive)
                            x       y       z     vdW  Elec       q    Type
                         _______ _______ _______ _____ _____    ______ ____

>  <TORSDO>
F 0

$$$$
=
 OpenBabel11112417393D

 28 32  0  0  1  0  0  0  0  0999 V2000
  190.2930  176.3400  145.1170 C   0  0  0  0  0  0  0  0  0  0  0  0
  185.2110  176.7910  144.0490 C   0  0  0  0  0  1  0  0  0  0  0  0
  190.2730  173.7000  141.1340 O   0  0  0  0  0  0  0  0  0  0  0  0
  191.6010  178.0720  143.4040 N   0  0  0  0  0  0  0  0  0  0  0  0
  188.5140  175.2910  140.6840 C   0  0  2  0  0  3  0  0  0  0  0  0
  189.6220  175.3420  146.0100 C   0  0  0  0  0  2  0  0  0  0  0  0
  186.1250  178.9410  144.7740 C   0  0  0  0  0  1  0  0  0  0  0  0
  185.9740  178.0330  143.5700 C   0  0  0  0  0  0  0  0  0  0  0  0
  185.1000  177.9380  141.4540 C   0  0  1  0  0  3  0  0  0  0  0  0
  187.4120  177.7250  143.0430 C   0  0  2  0  0  3  0  0  0  0  0  0
  191.4540  173.8670  143.8450 O   0  0  0  0  0  1  0  0  0  0  0  0
  187.8090  175.3560  143.0480 C   0  0  1  0  0  3  0  0  0  0  0  0
  186.4490  177.8540  140.7600 C   0  0  0  0  0  2  0  0  0  0  0  0
  185.2170  178.7340  142.6050 O   0  0  0  0  0  0  0  0  0  0  0  0
  190.3990  173.3230  144.5810 C   0  0  2  0  0  3  0  0  0  0  0  0
  189.5910  176.9280  144.0490 C   0  0  0  0  0  0  0  0  0  0  0  0
  189.3330  174.4240  141.5580 C   0  0  0  0  0  0  0  0  0  0  0  0
  184.0870  178.5540  140.5130 C   0  0  0  0  0  1  0  0  0  0  0  0
  189.0890  173.2950  143.7910 C   0  0  0  0  0  2  0  0  0  0  0  0
  190.2910  177.7870  143.1850 C   0  0  0  0  0  3  0  0  0  0  0  0
  191.6370  176.6650  145.3290 C   0  0  0  0  0  3  0  0  0  0  0  0
  192.2790  177.5410  144.4540 C   0  0  0  0  0  3  0  0  0  0  0  0
  190.2920  173.9650  145.9690 C   0  0  0  0  0  2  0  0  0  0  0  0
  187.4420  175.8330  141.6330 C   0  0  1  0  0  3  0  0  0  0  0  0
  188.9410  174.4560  142.9180 N   0  0  0  0  0  0  0  0  0  0  0  0
  187.4810  177.2930  141.6370 N   0  0  2  0  0  0  0  0  0  0  0  0
  187.9060  174.5220  139.6920 O   0  0  0  0  0  1  0  0  0  0  0  0
  188.1150  176.6330  143.8440 C   0  0  1  0  0  3  0  0  0  0  0  0
  1 21  1  0  0  0  0
  1  6  1  0  0  0  0
  3 17  2  0  0  0  0
  4 22  1  0  0  0  0
  5 27  1  6  0  0  0
  5 17  1  0  0  0  0
  5 24  1  0  0  0  0
  8  2  1  0  0  0  0
  8  7  1  0  0  0  0
  9 18  1  6  0  0  0
  9 14  1  0  0  0  0
 10  8  1  1  0  0  0
 10 28  1  0  0  0  0
 12 25  1  6  0  0  0
 12 28  1  0  0  0  0
 13  9  1  0  0  0  0
 13 26  1  0  0  0  0
 14  8  1  0  0  0  0
 15 11  1  6  0  0  0
 15 23  1  0  0  0  0
 16  1  2  0  0  0  0
 17 25  1  0  0  0  0
 19 15  1  0  0  0  0
 20  4  2  0  0  0  0
 20 16  1  0  0  0  0
 22 21  2  0  0  0  0
 23  6  1  0  0  0  0
 24 26  1  0  0  0  0
 24 12  1  0  0  0  0
 25 19  1  0  0  0  0
 26 10  1  0  0  0  0
 28 16  1  0  0  0  0
M  END
>  <MODEL>
5

>  <REMARK>
 VINA RESULT:      -7.5      2.815      6.642
  Name = 
  0 active torsions:
  status: ('A' for Active; 'I' for Inactive)
                            x       y       z     vdW  Elec       q    Type
                         _______ _______ _______ _____ _____    ______ ____

>  <TORSDO>
F 0

$$$$
=
 OpenBabel11112417393D

 28 32  0  0  1  0  0  0  0  0999 V2000
  194.1190  174.1280  145.0450 C   0  0  0  0  0  0  0  0  0  0  0  0
  189.4660  174.9040  147.2630 C   0  0  0  0  0  1  0  0  0  0  0  0
  191.4520  173.2940  141.1680 O   0  0  0  0  0  0  0  0  0  0  0  0
  194.6760  176.4160  143.5940 N   0  0  0  0  0  0  0  0  0  0  0  0
  190.1090  174.9100  142.3570 C   0  0  2  0  0  3  0  0  0  0  0  0
  193.8160  172.8490  145.7630 C   0  0  0  0  0  2  0  0  0  0  0  0
  191.0630  176.5990  148.0130 C   0  0  0  0  0  1  0  0  0  0  0  0
  190.1120  176.2440  146.8860 C   0  0  0  0  0  0  0  0  0  0  0  0
  188.2660  176.9880  145.7530 C   0  0  1  0  0  3  0  0  0  0  0  0
  190.9570  176.1890  145.5730 C   0  0  2  0  0  3  0  0  0  0  0  0
  193.8780  172.3820  142.6010 O   0  0  0  0  0  1  0  0  0  0  0  0
  190.7770  174.0190  144.5590 C   0  0  1  0  0  3  0  0  0  0  0  0
  188.9980  177.2050  144.4400 C   0  0  0  0  0  2  0  0  0  0  0  0
  189.1350  177.2620  146.8220 O   0  0  0  0  0  0  0  0  0  0  0  0
  193.2750  171.5760  143.5700 C   0  0  2  0  0  3  0  0  0  0  0  0
  193.1090  175.0840  144.8340 C   0  0  0  0  0  0  0  0  0  0  0  0
  191.0540  173.7770  142.2620 C   0  0  0  0  0  0  0  0  0  0  0  0
  187.0710  177.9160  145.8220 C   0  0  0  0  0  1  0  0  0  0  0  0
  191.7760  171.8490  143.7050 C   0  0  0  0  0  2  0  0  0  0  0  0
  193.4190  176.2250  144.0740 C   0  0  0  0  0  3  0  0  0  0  0  0
  195.4090  174.3590  144.5540 C   0  0  0  0  0  3  0  0  0  0  0  0
  195.6700  175.5190  143.8250 C   0  0  0  0  0  3  0  0  0  0  0  0
  194.0510  171.6110  144.8920 C   0  0  0  0  0  2  0  0  0  0  0  0
  189.8370  175.0160  143.8590 C   0  0  1  0  0  3  0  0  0  0  0  0
  191.4480  173.2600  143.5190 N   0  0  0  0  0  0  0  0  0  0  0  0
  190.1870  176.3540  144.3300 N   0  0  2  0  0  0  0  0  0  0  0  0
  188.9230  174.5930  141.6950 O   0  0  0  0  0  1  0  0  0  0  0  0
  191.7200  174.8770  145.4140 C   0  0  1  0  0  3  0  0  0  0  0  0
  1  6  1  0  0  0  0
  3 17  2  0  0  0  0
  4 22  2  0  0  0  0
  4 20  1  0  0  0  0
  5 27  1  6  0  0  0
  5 24  1  0  0  0  0
  8  2  1  0  0  0  0
  8  7  1  0  0  0  0
  9 18  1  6  0  0  0
  9 14  1  0  0  0  0
 10  8  1  1  0  0  0
 12 25  1  6  0  0  0
 12 28  1  0  0  0  0
 13  9  1  0  0  0  0
 14  8  1  0  0  0  0
 15 11  1  6  0  0  0
 15 19  1  0  0  0  0
 15 23  1  0  0  0  0
 16  1  1  0  0  0  0
 16 28  1  0  0  0  0
 17  5  1  0  0  0  0
 17 25  1  0  0  0  0
 20 16  2  0  0  0  0
 21  1  2  0  0  0  0
 22 21  1  0  0  0  0
 23  6  1  0  0  0  0
 24 26  1  0  0  0  0
 24 12  1  0  0  0  0
 25 19  1  0  0  0  0
 26 13  1  0  0  0  0
 26 10  1  0  0  0  0
 28 10  1  0  0  0  0
M  END
>  <MODEL>
6

>  <REMARK>
 VINA RESULT:      -7.2      1.845      5.525
  Name = 
  0 active torsions:
  status: ('A' for Active; 'I' for Inactive)
                            x       y       z     vdW  Elec       q    Type
                         _______ _______ _______ _____ _____    ______ ____

>  <TORSDO>
F 0

$$$$
=
 OpenBabel11112417393D

 28 32  0  0  1  0  0  0  0  0999 V2000
  187.4760  176.6040  143.3010 C   0  0  0  0  0  0  0  0  0  0  0  0
  189.5770  172.0150  144.6030 C   0  0  0  0  0  1  0  0  0  0  0  0
  189.7060  178.0620  147.2680 O   0  0  0  0  0  0  0  0  0  0  0  0
  189.5120  178.0950  142.1700 N   0  0  0  0  0  0  0  0  0  0  0  0
  191.1670  176.3020  146.4950 C   0  0  2  0  0  3  0  0  0  0  0  0
  186.3690  175.8500  143.9710 C   0  0  0  0  0  2  0  0  0  0  0  0
  189.7710  172.3900  142.1930 C   0  0  0  0  0  1  0  0  0  0  0  0
  190.4220  172.7070  143.5250 C   0  0  0  0  0  0  0  0  0  0  0  0
  192.3760  172.4850  144.7000 C   0  0  1  0  0  3  0  0  0  0  0  0
  190.4610  174.2630  143.6580 C   0  0  2  0  0  3  0  0  0  0  0  0
  187.2120  178.3990  145.7070 O   0  0  0  0  0  1  0  0  0  0  0  0
  189.2850  174.9590  145.6330 C   0  0  1  0  0  3  0  0  0  0  0  0
  192.6810  173.9730  144.7280 C   0  0  0  0  0  2  0  0  0  0  0  0
  191.7260  172.1650  143.4970 O   0  0  0  0  0  0  0  0  0  0  0  0
  186.5230  177.2630  146.1400 C   0  0  2  0  0  3  0  0  0  0  0  0
  188.8070  176.1580  143.4010 C   0  0  0  0  0  0  0  0  0  0  0  0
  189.8530  176.9510  146.6910 C   0  0  0  0  0  0  0  0  0  0  0  0
  193.6690  171.7040  144.8010 C   0  0  0  0  0  1  0  0  0  0  0  0
  187.4440  176.2440  146.8150 C   0  0  0  0  0  2  0  0  0  0  0  0
  189.8200  176.9500  142.8340 C   0  0  0  0  0  3  0  0  0  0  0  0
  187.1870  177.7780  142.5960 C   0  0  0  0  0  3  0  0  0  0  0  0
  188.2280  178.5160  142.0320 C   0  0  0  0  0  3  0  0  0  0  0  0
  185.6390  176.6840  145.0280 C   0  0  0  0  0  2  0  0  0  0  0  0
  190.8010  174.9440  145.8920 C   0  0  1  0  0  3  0  0  0  0  0  0
  188.7650  176.1920  146.1960 N   0  0  0  0  0  0  0  0  0  0  0  0
  191.4650  174.7820  144.6010 N   0  0  2  0  0  0  0  0  0  0  0  0
  191.7860  176.1070  147.7300 O   0  0  0  0  0  1  0  0  0  0  0  0
  189.1280  174.8540  144.1090 C   0  0  1  0  0  3  0  0  0  0  0  0
  1 16  1  0  0  0  0
  1  6  1  0  0  0  0
  4 20  1  0  0  0  0
  5 17  1  0  0  0  0
  5 27  1  1  0  0  0
  6 23  1  0  0  0  0
  7  8  1  0  0  0  0
  8  2  1  0  0  0  0
  9 13  1  0  0  0  0
  9 18  1  6  0  0  0
 10  8  1  1  0  0  0
 10 28  1  0  0  0  0
 10 26  1  0  0  0  0
 12 24  1  0  0  0  0
 12 25  1  6  0  0  0
 14  8  1  0  0  0  0
 14  9  1  0  0  0  0
 15 11  1  6  0  0  0
 15 19  1  0  0  0  0
 16 28  1  0  0  0  0
 17  3  2  0  0  0  0
 20 16  2  0  0  0  0
 21  1  2  0  0  0  0
 22  4  2  0  0  0  0
 22 21  1  0  0  0  0
 23 15  1  0  0  0  0
 24  5  1  0  0  0  0
 25 17  1  0  0  0  0
 25 19  1  0  0  0  0
 26 13  1  0  0  0  0
 26 24  1  0  0  0  0
 28 12  1  0  0  0  0
M  END
>  <MODEL>
7

>  <REMARK>
 VINA RESULT:      -7.1      2.183      4.606
  Name = 
  0 active torsions:
  status: ('A' for Active; 'I' for Inactive)
                            x       y       z     vdW  Elec       q    Type
                         _______ _______ _______ _____ _____    ______ ____

>  <TORSDO>
F 0

$$$$
=
 OpenBabel11112417393D

 28 32  0  0  1  0  0  0  0  0999 V2000
  192.8900  174.0000  143.3540 C   0  0  0  0  0  0  0  0  0  0  0  0
  189.2780  174.5300  147.0740 C   0  0  0  0  0  1  0  0  0  0  0  0
  189.0910  174.3120  140.4720 O   0  0  0  0  0  0  0  0  0  0  0  0
  193.3020  176.5280  142.3100 N   0  0  0  0  0  0  0  0  0  0  0  0
  188.4090  175.6790  142.3410 C   0  0  2  0  0  3  0  0  0  0  0  0
  192.6400  172.6090  143.8480 C   0  0  0  0  0  2  0  0  0  0  0  0
  191.2490  175.8810  147.5990 C   0  0  0  0  0  1  0  0  0  0  0  0
  189.9640  175.8740  146.7950 C   0  0  0  0  0  0  0  0  0  0  0  0
  187.9870  176.9940  146.5050 C   0  0  1  0  0  3  0  0  0  0  0  0
  190.3580  176.0810  145.2980 C   0  0  2  0  0  3  0  0  0  0  0  0
  191.6810  172.9180  140.8140 O   0  0  0  0  0  1  0  0  0  0  0  0
  189.5760  174.2390  143.9700 C   0  0  1  0  0  3  0  0  0  0  0  0
  188.3130  177.4710  145.1010 C   0  0  0  0  0  2  0  0  0  0  0  0
  189.1660  176.9410  147.2650 O   0  0  0  0  0  0  0  0  0  0  0  0
  191.2900  171.9440  141.7370 C   0  0  2  0  0  3  0  0  0  0  0  0
  192.0080  175.0460  143.6860 C   0  0  0  0  0  0  0  0  0  0  0  0
  189.1120  174.5410  141.7100 C   0  0  0  0  0  0  0  0  0  0  0  0
  187.0110  177.9550  147.1510 C   0  0  0  0  0  1  0  0  0  0  0  0
  189.9550  172.2770  142.4060 C   0  0  0  0  0  2  0  0  0  0  0  0
  192.2340  176.3130  143.1220 C   0  0  0  0  0  3  0  0  0  0  0  0
  193.9910  174.2550  142.5290 C   0  0  0  0  0  3  0  0  0  0  0  0
  194.1830  175.5360  142.0130 C   0  0  0  0  0  3  0  0  0  0  0  0
  192.4240  171.6050  142.7120 C   0  0  0  0  0  2  0  0  0  0  0  0
  188.6200  175.4370  143.8370 C   0  0  1  0  0  3  0  0  0  0  0  0
  189.7890  173.7100  142.6340 N   0  0  0  0  0  0  0  0  0  0  0  0
  189.2800  176.5940  144.4360 N   0  0  2  0  0  0  0  0  0  0  0  0
  187.0470  175.6130  142.0500 O   0  0  0  0  0  1  0  0  0  0  0  0
  190.8440  174.7980  144.6300 C   0  0  1  0  0  3  0  0  0  0  0  0
  1 16  1  0  0  0  0
  1  6  1  0  0  0  0
  3 17  2  0  0  0  0
  4 20  1  0  0  0  0
  5 27  1  1  0  0  0
  5 24  1  0  0  0  0
  8  2  1  0  0  0  0
  8 14  1  0  0  0  0
  8  7  1  0  0  0  0
  9 18  1  1  0  0  0
  9 14  1  0  0  0  0
 10  8  1  1  0  0  0
 12 25  1  6  0  0  0
 12 28  1  0  0  0  0
 13  9  1  0  0  0  0
 15 11  1  1  0  0  0
 15 19  1  0  0  0  0
 15 23  1  0  0  0  0
 16 28  1  0  0  0  0
 17  5  1  0  0  0  0
 17 25  1  0  0  0  0
 19 25  1  0  0  0  0
 20 16  2  0  0  0  0
 21  1  2  0  0  0  0
 22  4  2  0  0  0  0
 22 21  1  0  0  0  0
 23  6  1  0  0  0  0
 24 12  1  0  0  0  0
 24 26  1  0  0  0  0
 26 13  1  0  0  0  0
 26 10  1  0  0  0  0
 28 10  1  0  0  0  0
M  END
>  <MODEL>
8

>  <REMARK>
 VINA RESULT:      -7.1      2.487      5.448
  Name = 
  0 active torsions:
  status: ('A' for Active; 'I' for Inactive)
                            x       y       z     vdW  Elec       q    Type
                         _______ _______ _______ _____ _____    ______ ____

>  <TORSDO>
F 0

$$$$
=
 OpenBabel11112417393D

 28 32  0  0  1  0  0  0  0  0999 V2000
  190.9780  173.8560  142.2330 C   0  0  0  0  0  0  0  0  0  0  0  0
  188.2010  178.2090  141.5180 C   0  0  0  0  0  1  0  0  0  0  0  0
  190.6270  175.1140  146.8300 O   0  0  0  0  0  0  0  0  0  0  0  0
  189.1920  171.9340  143.1070 N   0  0  0  0  0  0  0  0  0  0  0  0
  188.5650  175.9780  145.9200 C   0  0  2  0  0  3  0  0  0  0  0  0
  191.9820  174.8910  141.8280 C   0  0  0  0  0  2  0  0  0  0  0  0
  187.3650  176.4170  140.0780 C   0  0  0  0  0  1  0  0  0  0  0  0
  187.2880  176.9770  141.4850 C   0  0  0  0  0  0  0  0  0  0  0  0
  185.8290  177.8290  143.0320 C   0  0  1  0  0  3  0  0  0  0  0  0
  187.7310  175.8380  142.4570 C   0  0  2  0  0  3  0  0  0  0  0  0
  192.4850  173.9460  144.8410 O   0  0  0  0  0  1  0  0  0  0  0  0
  189.6190  176.5460  143.7620 C   0  0  1  0  0  3  0  0  0  0  0  0
  185.9790  176.6710  144.0030 C   0  0  0  0  0  2  0  0  0  0  0  0
  185.9450  177.3520  141.7160 O   0  0  0  0  0  0  0  0  0  0  0  0
  192.9280  175.1230  144.2320 C   0  0  2  0  0  3  0  0  0  0  0  0
  189.6790  174.2340  142.6210 C   0  0  0  0  0  0  0  0  0  0  0  0
  189.9990  175.6230  145.8640 C   0  0  0  0  0  0  0  0  0  0  0  0
  184.4710  178.4720  143.2190 C   0  0  0  0  0  1  0  0  0  0  0  0
  192.0220  176.3170  144.5430 C   0  0  0  0  0  2  0  0  0  0  0  0
  188.8040  173.2350  143.0810 C   0  0  0  0  0  3  0  0  0  0  0  0
  191.3450  172.5060  142.2540 C   0  0  0  0  0  3  0  0  0  0  0  0
  190.4300  171.5510  142.6980 C   0  0  0  0  0  3  0  0  0  0  0  0
  193.2130  174.9110  142.7400 C   0  0  0  0  0  2  0  0  0  0  0  0
  188.3240  176.6790  144.5810 C   0  0  1  0  0  3  0  0  0  0  0  0
  190.6140  175.9400  144.6290 N   0  0  0  0  0  0  0  0  0  0  0  0
  187.2670  175.9890  143.8460 N   0  0  2  0  0  0  0  0  0  0  0  0
  188.3420  176.8800  146.9600 O   0  0  0  0  0  1  0  0  0  0  0  0
  189.2470  175.6880  142.5440 C   0  0  1  0  0  3  0  0  0  0  0  0
  1 21  2  0  0  0  0
  1 16  1  0  0  0  0
  5 27  1  1  0  0  0
  6  1  1  0  0  0  0
  6 23  1  0  0  0  0
  7  8  1  0  0  0  0
  8  2  1  0  0  0  0
  8 14  1  0  0  0  0
  9 18  1  6  0  0  0
  9 13  1  0  0  0  0
 10  8  1  6  0  0  0
 10 28  1  0  0  0  0
 10 26  1  0  0  0  0
 12 24  1  0  0  0  0
 12 25  1  1  0  0  0
 14  9  1  0  0  0  0
 15 19  1  0  0  0  0
 15 11  1  6  0  0  0
 16 20  2  0  0  0  0
 17  5  1  0  0  0  0
 17  3  2  0  0  0  0
 19 25  1  0  0  0  0
 20  4  1  0  0  0  0
 21 22  1  0  0  0  0
 22  4  2  0  0  0  0
 23 15  1  0  0  0  0
 24  5  1  0  0  0  0
 25 17  1  0  0  0  0
 26 13  1  0  0  0  0
 26 24  1  0  0  0  0
 28 16  1  0  0  0  0
 28 12  1  0  0  0  0
M  END
>  <MODEL>
9

>  <REMARK>
 VINA RESULT:      -7.1      2.388      6.579
  Name = 
  0 active torsions:
  status: ('A' for Active; 'I' for Inactive)
                            x       y       z     vdW  Elec       q    Type
                         _______ _______ _______ _____ _____    ______ ____

>  <TORSDO>
F 0

$$$$
