=
 OpenBabel11112416173D

 30 35  0  0  1  0  0  0  0  0999 V2000
  186.2120  177.2960  143.8010 C   0  0  0  0  0  0  0  0  0  0  0  0
  184.5430  178.4860  145.2440 C   0  0  0  0  0  0  0  0  0  0  0  0
  188.3290  176.0160  147.2060 N   0  0  0  0  0  2  0  0  0  0  0  0
  187.4000  176.5080  143.6960 C   0  0  0  0  0  0  0  0  0  0  0  0
  185.5460  177.6670  142.6250 C   0  0  0  0  0  3  0  0  0  0  0  0
  187.6730  176.2090  139.9960 O   0  0  0  0  0  1  0  0  0  0  0  0
  190.3930  176.0450  142.8970 C   0  0  1  0  0  3  0  0  0  0  0  0
  187.1950  176.5530  141.2590 C   0  0  0  0  0  0  0  0  0  0  0  0
  190.4890  175.8620  144.4200 C   0  0  2  0  0  3  0  0  0  0  0  0
  189.3420  175.2500  146.5700 C   0  0  0  0  0  0  0  0  0  0  0  0
  186.0160  177.2930  141.3710 C   0  0  0  0  0  0  0  0  0  0  0  0
  187.9000  176.1580  142.4090 C   0  0  0  0  0  0  0  0  0  0  0  0
  184.1050  178.8470  146.5210 C   0  0  0  0  0  3  0  0  0  0  0  0
  191.7210  175.0060  144.6480 C   0  0  0  0  0  2  0  0  0  0  0  0
  191.6920  175.5260  142.3010 C   0  0  0  0  0  2  0  0  0  0  0  0
  183.8100  178.9190  144.1870 F   0  0  0  0  0  0  0  0  0  0  0  0
  187.5600  176.5160  146.1240 C   0  0  0  0  0  0  0  0  0  0  0  0
  184.8060  178.4410  147.6540 C   0  0  0  0  0  3  0  0  0  0  0  0
  185.7130  177.6970  145.0800 C   0  0  0  0  0  0  0  0  0  0  0  0
  188.0440  176.1260  144.8910 C   0  0  0  0  0  0  0  0  0  0  0  0
  190.2030  174.6020  147.2230 O   0  0  0  0  0  0  0  0  0  0  0  0
  189.2470  175.2460  145.0730 C   0  0  1  0  0  3  0  0  0  0  0  0
  192.6230  175.2820  143.4690 C   0  0  0  0  0  2  0  0  0  0  0  0
  189.0310  173.8980  142.4100 C   0  0  0  0  0  1  0  0  0  0  0  0
  185.9560  177.6670  147.5200 C   0  0  0  0  0  3  0  0  0  0  0  0
  186.4140  177.2950  146.2510 C   0  0  0  0  0  0  0  0  0  0  0  0
  189.1840  175.4010  142.1980 C   0  0  2  0  0  3  0  0  0  0  0  0
  185.2710  177.7400  140.1580 C   0  0  0  0  0  2  0  0  0  0  0  0
  182.9510  177.9160  140.2650 C   0  0  0  0  0  1  0  0  0  0  0  0
  184.1860  178.6240  140.5440 N   0  0  0  0  0  2  0  0  0  0  0  0
  1 19  1  0  0  0  0
  2 13  1  0  0  0  0
  4  1  1  0  0  0  0
  4 20  1  0  0  0  0
  5  1  2  0  0  0  0
  6  8  1  0  0  0  0
  7 15  1  6  0  0  0
  7  9  1  0  0  0  0
  8 11  2  0  0  0  0
  8 12  1  0  0  0  0
  9 14  1  6  0  0  0
  9 22  1  0  0  0  0
 10  3  1  0  0  0  0
 10 21  2  0  0  0  0
 11  5  1  0  0  0  0
 12  4  2  0  0  0  0
 13 18  2  0  0  0  0
 15 23  1  0  0  0  0
 16  2  1  0  0  0  0
 17 26  1  0  0  0  0
 17  3  1  0  0  0  0
 19  2  2  0  0  0  0
 19 26  1  0  0  0  0
 20 17  2  0  0  0  0
 22 20  1  1  0  0  0
 22 10  1  0  0  0  0
 23 14  1  0  0  0  0
 25 18  1  0  0  0  0
 26 25  2  0  0  0  0
 27 12  1  0  0  0  0
 27 24  1  1  0  0  0
 27  7  1  0  0  0  0
 28 30  1  0  0  0  0
 28 11  1  0  0  0  0
 29 30  1  0  0  0  0
M  END
>  <MODEL>
1

>  <REMARK>
 VINA RESULT:      -9.1      0.000      0.000
  Name = 
  2 active torsions:
  status: ('A' for Active; 'I' for Inactive)
    1  A    between atoms: C_11  and  C_28
    2  A    between atoms: C_28  and  N_30
                            x       y       z     vdW  Elec       q    Type
                         _______ _______ _______ _____ _____    ______ ____

>  <TORSDO>
F 2

$$$$
=
 OpenBabel11112416173D

 30 35  0  0  1  0  0  0  0  0999 V2000
  187.5860  176.4720  145.4090 C   0  0  0  0  0  0  0  0  0  0  0  0
  185.7850  177.7000  146.6460 C   0  0  0  0  0  0  0  0  0  0  0  0
  185.8850  177.5720  141.7200 N   0  0  0  0  0  2  0  0  0  0  0  0
  188.1540  176.0550  144.1650 C   0  0  0  0  0  0  0  0  0  0  0  0
  188.2200  176.0870  146.5980 C   0  0  0  0  0  3  0  0  0  0  0  0
  191.0530  174.0680  145.3890 O   0  0  0  0  0  1  0  0  0  0  0  0
  188.9370  173.9090  142.0230 C   0  0  1  0  0  3  0  0  0  0  0  0
  189.9140  174.8710  145.3820 C   0  0  0  0  0  0  0  0  0  0  0  0
  187.9440  174.7530  141.2080 C   0  0  2  0  0  3  0  0  0  0  0  0
  186.8320  176.9770  140.8450 C   0  0  0  0  0  0  0  0  0  0  0  0
  189.3730  175.3100  146.5930 C   0  0  0  0  0  0  0  0  0  0  0  0
  189.3140  175.2290  144.1630 C   0  0  0  0  0  0  0  0  0  0  0  0
  184.6230  178.4740  146.6110 C   0  0  0  0  0  3  0  0  0  0  0  0
  188.3110  174.5210  139.7550 C   0  0  0  0  0  2  0  0  0  0  0  0
  189.6760  173.0150  141.0390 C   0  0  0  0  0  2  0  0  0  0  0  0
  186.2920  177.3910  147.8660 F   0  0  0  0  0  0  0  0  0  0  0  0
  186.3660  177.2360  143.0120 C   0  0  0  0  0  0  0  0  0  0  0  0
  184.0430  178.8320  145.3960 C   0  0  0  0  0  3  0  0  0  0  0  0
  186.3970  177.2650  145.4400 C   0  0  0  0  0  0  0  0  0  0  0  0
  187.5140  176.4710  142.9790 C   0  0  0  0  0  0  0  0  0  0  0  0
  186.7620  177.1030  139.5940 O   0  0  0  0  0  0  0  0  0  0  0  0
  187.9340  176.2450  141.5550 C   0  0  1  0  0  3  0  0  0  0  0  0
  188.9520  173.1530  139.7180 C   0  0  0  0  0  2  0  0  0  0  0  0
  190.8070  175.6920  142.1780 C   0  0  0  0  0  1  0  0  0  0  0  0
  184.6230  178.4180  144.2000 C   0  0  0  0  0  3  0  0  0  0  0  0
  185.7870  177.6410  144.2110 C   0  0  0  0  0  0  0  0  0  0  0  0
  189.9330  174.6760  142.9070 C   0  0  2  0  0  3  0  0  0  0  0  0
  189.9860  174.9180  147.8950 C   0  0  0  0  0  2  0  0  0  0  0  0
  191.2810  176.8260  148.2180 C   0  0  0  0  0  1  0  0  0  0  0  0
  191.3540  175.4000  147.9630 N   0  0  0  0  0  2  0  0  0  0  0  0
  1 19  1  0  0  0  0
  1  5  1  0  0  0  0
  2 16  1  0  0  0  0
  3 17  1  0  0  0  0
  4  1  2  0  0  0  0
  7 15  1  6  0  0  0
  7 27  1  0  0  0  0
  8  6  1  0  0  0  0
  8 11  1  0  0  0  0
  9 14  1  6  0  0  0
  9 22  1  0  0  0  0
  9  7  1  0  0  0  0
 10  3  1  0  0  0  0
 11  5  2  0  0  0  0
 11 28  1  0  0  0  0
 12  4  1  0  0  0  0
 12  8  2  0  0  0  0
 13  2  1  0  0  0  0
 17 26  1  0  0  0  0
 18 13  2  0  0  0  0
 19  2  2  0  0  0  0
 20 17  2  0  0  0  0
 20  4  1  0  0  0  0
 21 10  2  0  0  0  0
 22 10  1  6  0  0  0
 22 20  1  0  0  0  0
 23 14  1  0  0  0  0
 23 15  1  0  0  0  0
 25 26  2  0  0  0  0
 25 18  1  0  0  0  0
 26 19  1  0  0  0  0
 27 24  1  6  0  0  0
 27 12  1  0  0  0  0
 28 30  1  0  0  0  0
 30 29  1  0  0  0  0
M  END
>  <MODEL>
2

>  <REMARK>
 VINA RESULT:      -8.8      1.716      5.308
  Name = 
  2 active torsions:
  status: ('A' for Active; 'I' for Inactive)
    1  A    between atoms: C_11  and  C_28
    2  A    between atoms: C_28  and  N_30
                            x       y       z     vdW  Elec       q    Type
                         _______ _______ _______ _____ _____    ______ ____

>  <TORSDO>
F 2

$$$$
=
 OpenBabel11112416173D

 30 35  0  0  1  0  0  0  0  0999 V2000
  188.3100  175.9970  143.6280 C   0  0  0  0  0  0  0  0  0  0  0  0
  186.0360  177.0140  143.9050 C   0  0  0  0  0  0  0  0  0  0  0  0
  189.4280  177.3070  147.4680 N   0  0  0  0  0  2  0  0  0  0  0  0
  189.6140  175.7480  144.1580 C   0  0  0  0  0  0  0  0  0  0  0  0
  188.0000  175.5120  142.3500 C   0  0  0  0  0  3  0  0  0  0  0  0
  191.1450  173.9010  141.3120 O   0  0  0  0  0  1  0  0  0  0  0  0
  192.7250  176.1010  144.2280 C   0  0  1  0  0  3  0  0  0  0  0  0
  190.2140  174.5860  142.0910 C   0  0  0  0  0  0  0  0  0  0  0  0
  192.3560  176.6900  145.5990 C   0  0  2  0  0  3  0  0  0  0  0  0
  190.7400  176.7660  147.5210 C   0  0  0  0  0  0  0  0  0  0  0  0
  188.9280  174.8050  141.5940 C   0  0  0  0  0  0  0  0  0  0  0  0
  190.5740  175.0550  143.3660 C   0  0  0  0  0  0  0  0  0  0  0  0
  185.1330  177.7330  144.6930 C   0  0  0  0  0  3  0  0  0  0  0  0
  193.6050  176.5540  146.4480 C   0  0  0  0  0  2  0  0  0  0  0  0
  194.2300  175.8830  144.2250 C   0  0  0  0  0  2  0  0  0  0  0  0
  185.6110  176.6080  142.6820 F   0  0  0  0  0  0  0  0  0  0  0  0
  188.9630  176.9310  146.1810 C   0  0  0  0  0  0  0  0  0  0  0  0
  185.4970  178.1840  145.9600 C   0  0  0  0  0  3  0  0  0  0  0  0
  187.3420  176.7290  144.3850 C   0  0  0  0  0  0  0  0  0  0  0  0
  189.8990  176.2250  145.4540 C   0  0  0  0  0  0  0  0  0  0  0  0
  191.4630  176.8580  148.5480 O   0  0  0  0  0  0  0  0  0  0  0  0
  191.1440  176.0380  146.2730 C   0  0  1  0  0  3  0  0  0  0  0  0
  194.7560  176.5640  145.4690 C   0  0  0  0  0  2  0  0  0  0  0  0
  192.1270  173.6430  144.7730 C   0  0  0  0  0  1  0  0  0  0  0  0
  186.7720  177.9170  146.4520 C   0  0  0  0  0  3  0  0  0  0  0  0
  187.6930  177.2000  145.6810 C   0  0  0  0  0  0  0  0  0  0  0  0
  191.9930  174.8160  143.8080 C   0  0  2  0  0  3  0  0  0  0  0  0
  188.5400  174.3340  140.2320 C   0  0  0  0  0  2  0  0  0  0  0  0
  188.5460  172.3480  139.0150 C   0  0  0  0  0  1  0  0  0  0  0  0
  188.1580  172.9340  140.2840 N   0  0  0  0  0  2  0  0  0  0  0  0
  1  4  1  0  0  0  0
  1 19  1  0  0  0  0
  2 19  2  0  0  0  0
  2 13  1  0  0  0  0
  3 10  1  0  0  0  0
  4 20  1  0  0  0  0
  5  1  2  0  0  0  0
  6  8  1  0  0  0  0
  7 15  1  1  0  0  0
  7  9  1  0  0  0  0
  8 12  1  0  0  0  0
  9 22  1  0  0  0  0
  9 14  1  1  0  0  0
 10 21  2  0  0  0  0
 11  8  2  0  0  0  0
 11  5  1  0  0  0  0
 12 27  1  0  0  0  0
 12  4  2  0  0  0  0
 13 18  2  0  0  0  0
 15 23  1  0  0  0  0
 16  2  1  0  0  0  0
 17  3  1  0  0  0  0
 18 25  1  0  0  0  0
 19 26  1  0  0  0  0
 20 17  2  0  0  0  0
 22 20  1  6  0  0  0
 22 10  1  0  0  0  0
 23 14  1  0  0  0  0
 26 17  1  0  0  0  0
 26 25  2  0  0  0  0
 27  7  1  0  0  0  0
 27 24  1  1  0  0  0
 28 30  1  0  0  0  0
 28 11  1  0  0  0  0
 29 30  1  0  0  0  0
M  END
>  <MODEL>
3

>  <REMARK>
 VINA RESULT:      -8.8      2.348      3.388
  Name = 
  2 active torsions:
  status: ('A' for Active; 'I' for Inactive)
    1  A    between atoms: C_11  and  C_28
    2  A    between atoms: C_28  and  N_30
                            x       y       z     vdW  Elec       q    Type
                         _______ _______ _______ _____ _____    ______ ____

>  <TORSDO>
F 2

$$$$
=
 OpenBabel11112416173D

 30 35  0  0  1  0  0  0  0  0999 V2000
  188.3370  176.9830  145.6960 C   0  0  0  0  0  0  0  0  0  0  0  0
  186.5050  178.2710  146.8220 C   0  0  0  0  0  0  0  0  0  0  0  0
  186.3380  177.2530  142.0020 N   0  0  0  0  0  2  0  0  0  0  0  0
  188.8690  176.3910  144.5080 C   0  0  0  0  0  0  0  0  0  0  0  0
  189.0690  176.8720  146.8860 C   0  0  0  0  0  3  0  0  0  0  0  0
  192.0000  174.8960  145.8540 O   0  0  0  0  0  1  0  0  0  0  0  0
  189.7210  173.9580  142.7290 C   0  0  1  0  0  3  0  0  0  0  0  0
  190.7950  175.5910  145.7870 C   0  0  0  0  0  0  0  0  0  0  0  0
  188.6120  174.5590  141.8510 C   0  0  2  0  0  3  0  0  0  0  0  0
  187.2850  176.5840  141.1810 C   0  0  0  0  0  0  0  0  0  0  0  0
  190.2860  176.2010  146.9360 C   0  0  0  0  0  0  0  0  0  0  0  0
  190.0970  175.6730  144.5690 C   0  0  0  0  0  0  0  0  0  0  0  0
  185.2770  178.9310  146.7340 C   0  0  0  0  0  3  0  0  0  0  0  0
  188.9160  174.0950  140.4400 C   0  0  0  0  0  2  0  0  0  0  0  0
  190.4810  172.9610  141.8700 C   0  0  0  0  0  2  0  0  0  0  0  0
  187.1060  178.2300  148.0370 F   0  0  0  0  0  0  0  0  0  0  0  0
  186.9200  177.1980  143.2960 C   0  0  0  0  0  0  0  0  0  0  0  0
  184.6000  179.0150  145.5200 C   0  0  0  0  0  3  0  0  0  0  0  0
  187.0850  177.6720  145.6710 C   0  0  0  0  0  0  0  0  0  0  0  0
  188.1290  176.5320  143.3160 C   0  0  0  0  0  0  0  0  0  0  0  0
  187.1330  176.4740  139.9360 O   0  0  0  0  0  0  0  0  0  0  0  0
  188.4860  176.0840  141.9280 C   0  0  1  0  0  3  0  0  0  0  0  0
  189.6740  172.7980  140.6000 C   0  0  0  0  0  2  0  0  0  0  0  0
  191.4280  175.8810  142.4320 C   0  0  0  0  0  1  0  0  0  0  0  0
  185.1470  178.4360  144.3770 C   0  0  0  0  0  3  0  0  0  0  0  0
  186.3750  177.7680  144.4420 C   0  0  0  0  0  0  0  0  0  0  0  0
  190.6920  174.9500  143.3900 C   0  0  2  0  0  3  0  0  0  0  0  0
  191.0030  176.1020  148.2400 C   0  0  0  0  0  2  0  0  0  0  0  0
  191.4890  177.9640  149.5510 C   0  0  0  0  0  1  0  0  0  0  0  0
  191.9210  177.2180  148.3840 N   0  0  0  0  0  2  0  0  0  0  0  0
  1  5  1  0  0  0  0
  2 16  1  0  0  0  0
  3 17  1  0  0  0  0
  4 12  1  0  0  0  0
  4  1  2  0  0  0  0
  5 11  2  0  0  0  0
  7 15  1  6  0  0  0
  7 27  1  0  0  0  0
  8  6  1  0  0  0  0
  8 11  1  0  0  0  0
  9 14  1  6  0  0  0
  9 22  1  0  0  0  0
  9  7  1  0  0  0  0
 10  3  1  0  0  0  0
 11 28  1  0  0  0  0
 12  8  2  0  0  0  0
 13  2  1  0  0  0  0
 14 23  1  0  0  0  0
 17 20  2  0  0  0  0
 17 26  1  0  0  0  0
 18 13  2  0  0  0  0
 19  1  1  0  0  0  0
 19  2  2  0  0  0  0
 20  4  1  0  0  0  0
 21 10  2  0  0  0  0
 22 10  1  6  0  0  0
 22 20  1  0  0  0  0
 23 15  1  0  0  0  0
 25 26  2  0  0  0  0
 25 18  1  0  0  0  0
 26 19  1  0  0  0  0
 27 24  1  6  0  0  0
 27 12  1  0  0  0  0
 28 30  1  0  0  0  0
 30 29  1  0  0  0  0
M  END
>  <MODEL>
4

>  <REMARK>
 VINA RESULT:      -8.6      1.958      5.400
  Name = 
  2 active torsions:
  status: ('A' for Active; 'I' for Inactive)
    1  A    between atoms: C_11  and  C_28
    2  A    between atoms: C_28  and  N_30
                            x       y       z     vdW  Elec       q    Type
                         _______ _______ _______ _____ _____    ______ ____

>  <TORSDO>
F 2

$$$$
=
 OpenBabel11112416173D

 30 35  0  0  1  0  0  0  0  0999 V2000
  188.2460  175.8850  142.1490 C   0  0  0  0  0  0  0  0  0  0  0  0
  186.6860  176.9430  140.4970 C   0  0  0  0  0  0  0  0  0  0  0  0
  186.6220  178.2090  145.2590 N   0  0  0  0  0  2  0  0  0  0  0  0
  188.7300  175.7900  143.4910 C   0  0  0  0  0  0  0  0  0  0  0  0
  188.8190  175.0640  141.1690 C   0  0  0  0  0  3  0  0  0  0  0  0
  191.3880  173.2210  143.0570 O   0  0  0  0  0  1  0  0  0  0  0  0
  190.9050  176.1420  145.7160 C   0  0  1  0  0  3  0  0  0  0  0  0
  190.3430  174.0970  142.7720 C   0  0  0  0  0  0  0  0  0  0  0  0
  189.8190  177.0900  146.2490 C   0  0  2  0  0  3  0  0  0  0  0  0
  187.3830  177.7020  146.3450 C   0  0  0  0  0  0  0  0  0  0  0  0
  189.8420  174.1720  141.4710 C   0  0  0  0  0  0  0  0  0  0  0  0
  189.8020  174.9020  143.7900 C   0  0  0  0  0  0  0  0  0  0  0  0
  185.6610  177.8560  140.2310 C   0  0  0  0  0  3  0  0  0  0  0  0
  190.0670  177.1940  147.7410 C   0  0  0  0  0  2  0  0  0  0  0  0
  191.9030  175.9290  146.8430 C   0  0  0  0  0  2  0  0  0  0  0  0
  187.1580  176.2140  139.4550 F   0  0  0  0  0  0  0  0  0  0  0  0
  187.1160  177.4910  144.1400 C   0  0  0  0  0  0  0  0  0  0  0  0
  185.1260  178.6400  141.2500 C   0  0  0  0  0  3  0  0  0  0  0  0
  187.2000  176.8000  141.8140 C   0  0  0  0  0  0  0  0  0  0  0  0
  188.1260  176.6090  144.4670 C   0  0  0  0  0  0  0  0  0  0  0  0
  187.1910  178.0750  147.5330 O   0  0  0  0  0  0  0  0  0  0  0  0
  188.3810  176.6540  145.9460 C   0  0  1  0  0  3  0  0  0  0  0  0
  191.5430  176.9290  147.9200 C   0  0  0  0  0  2  0  0  0  0  0  0
  189.6150  173.9340  146.1170 C   0  0  0  0  0  1  0  0  0  0  0  0
  185.6120  178.5190  142.5490 C   0  0  0  0  0  3  0  0  0  0  0  0
  186.6390  177.6130  142.8390 C   0  0  0  0  0  0  0  0  0  0  0  0
  190.4300  174.7930  145.1540 C   0  0  2  0  0  3  0  0  0  0  0  0
  190.4220  173.3410  140.3750 C   0  0  0  0  0  2  0  0  0  0  0  0
  190.5960  171.0220  140.2540 C   0  0  0  0  0  1  0  0  0  0  0  0
  189.6500  172.1210  140.2190 N   0  0  0  0  0  2  0  0  0  0  0  0
  1  4  1  0  0  0  0
  2 19  1  0  0  0  0
  3 10  1  0  0  0  0
  4 12  1  0  0  0  0
  4 20  2  0  0  0  0
  5 11  2  0  0  0  0
  5  1  1  0  0  0  0
  7  9  1  0  0  0  0
  7 15  1  1  0  0  0
  8  6  1  0  0  0  0
  8 12  2  0  0  0  0
  9 14  1  1  0  0  0
 10 21  2  0  0  0  0
 11  8  1  0  0  0  0
 12 27  1  0  0  0  0
 13  2  2  0  0  0  0
 13 18  1  0  0  0  0
 14 23  1  0  0  0  0
 15 23  1  0  0  0  0
 16  2  1  0  0  0  0
 17 20  1  0  0  0  0
 17  3  1  0  0  0  0
 18 25  2  0  0  0  0
 19  1  2  0  0  0  0
 19 26  1  0  0  0  0
 22 20  1  6  0  0  0
 22  9  1  0  0  0  0
 22 10  1  0  0  0  0
 25 26  1  0  0  0  0
 26 17  2  0  0  0  0
 27  7  1  0  0  0  0
 27 24  1  1  0  0  0
 28 11  1  0  0  0  0
 30 29  1  0  0  0  0
 30 28  1  0  0  0  0
M  END
>  <MODEL>
5

>  <REMARK>
 VINA RESULT:      -8.3      2.766      4.809
  Name = 
  2 active torsions:
  status: ('A' for Active; 'I' for Inactive)
    1  A    between atoms: C_11  and  C_28
    2  A    between atoms: C_28  and  N_30
                            x       y       z     vdW  Elec       q    Type
                         _______ _______ _______ _____ _____    ______ ____

>  <TORSDO>
F 2

$$$$
=
 OpenBabel11112416173D

 30 35  0  0  1  0  0  0  0  0999 V2000
  188.0130  176.2950  142.7630 C   0  0  0  0  0  0  0  0  0  0  0  0
  185.9040  177.6340  142.5600 C   0  0  0  0  0  0  0  0  0  0  0  0
  188.6800  177.8230  146.6270 N   0  0  0  0  0  2  0  0  0  0  0  0
  189.1610  175.9250  143.5300 C   0  0  0  0  0  0  0  0  0  0  0  0
  187.8450  175.7290  141.4920 C   0  0  0  0  0  3  0  0  0  0  0  0
  190.8360  173.6090  141.1470 O   0  0  0  0  0  1  0  0  0  0  0  0
  192.2370  175.8580  144.1160 C   0  0  1  0  0  3  0  0  0  0  0  0
  189.9050  174.4890  141.6960 C   0  0  0  0  0  0  0  0  0  0  0  0
  191.7450  176.6270  145.3520 C   0  0  2  0  0  3  0  0  0  0  0  0
  189.8690  177.1170  146.9500 C   0  0  0  0  0  0  0  0  0  0  0  0
  188.7640  174.8290  140.9660 C   0  0  0  0  0  0  0  0  0  0  0  0
  190.1200  175.0320  142.9740 C   0  0  0  0  0  0  0  0  0  0  0  0
  185.0060  178.5460  143.1190 C   0  0  0  0  0  3  0  0  0  0  0  0
  192.8050  176.4100  146.4140 C   0  0  0  0  0  2  0  0  0  0  0  0
  193.6720  175.4380  144.3930 C   0  0  0  0  0  2  0  0  0  0  0  0
  185.6260  177.1680  141.3160 F   0  0  0  0  0  0  0  0  0  0  0  0
  188.3780  177.3850  145.3120 C   0  0  0  0  0  0  0  0  0  0  0  0
  185.2240  179.0690  144.3920 C   0  0  0  0  0  3  0  0  0  0  0  0
  187.0580  177.2240  143.2810 C   0  0  0  0  0  0  0  0  0  0  0  0
  189.3020  176.4890  144.8150 C   0  0  0  0  0  0  0  0  0  0  0  0
  190.4220  177.2130  148.0780 O   0  0  0  0  0  0  0  0  0  0  0  0
  190.3550  176.2180  145.8510 C   0  0  1  0  0  3  0  0  0  0  0  0
  194.0870  176.1640  145.6540 C   0  0  0  0  0  2  0  0  0  0  0  0
  191.1940  173.5720  144.7360 C   0  0  0  0  0  1  0  0  0  0  0  0
  186.3470  178.6830  145.1190 C   0  0  0  0  0  3  0  0  0  0  0  0
  187.2610  177.7720  144.5780 C   0  0  0  0  0  0  0  0  0  0  0  0
  191.3970  174.6480  143.6740 C   0  0  2  0  0  3  0  0  0  0  0  0
  188.5350  174.2800  139.5980 C   0  0  0  0  0  2  0  0  0  0  0  0
  188.7680  172.2330  138.5110 C   0  0  0  0  0  1  0  0  0  0  0  0
  188.1970  172.8700  139.6820 N   0  0  0  0  0  2  0  0  0  0  0  0
  1 19  2  0  0  0  0
  1  4  1  0  0  0  0
  2 13  2  0  0  0  0
  2 19  1  0  0  0  0
  3 10  1  0  0  0  0
  4 20  2  0  0  0  0
  5  1  1  0  0  0  0
  6  8  1  0  0  0  0
  7 15  1  1  0  0  0
  7  9  1  0  0  0  0
  8 12  2  0  0  0  0
  9 22  1  0  0  0  0
  9 14  1  1  0  0  0
 10 21  2  0  0  0  0
 11  5  2  0  0  0  0
 11  8  1  0  0  0  0
 12  4  1  0  0  0  0
 12 27  1  0  0  0  0
 13 18  1  0  0  0  0
 15 23  1  0  0  0  0
 16  2  1  0  0  0  0
 17  3  1  0  0  0  0
 18 25  2  0  0  0  0
 19 26  1  0  0  0  0
 20 17  1  0  0  0  0
 22 20  1  6  0  0  0
 22 10  1  0  0  0  0
 23 14  1  0  0  0  0
 26 25  1  0  0  0  0
 26 17  2  0  0  0  0
 27  7  1  0  0  0  0
 27 24  1  1  0  0  0
 28 30  1  0  0  0  0
 28 11  1  0  0  0  0
 29 30  1  0  0  0  0
M  END
>  <MODEL>
6

>  <REMARK>
 VINA RESULT:      -8.2      2.368      3.393
  Name = 
  2 active torsions:
  status: ('A' for Active; 'I' for Inactive)
    1  A    between atoms: C_11  and  C_28
    2  A    between atoms: C_28  and  N_30
                            x       y       z     vdW  Elec       q    Type
                         _______ _______ _______ _____ _____    ______ ____

>  <TORSDO>
F 2

$$$$
=
 OpenBabel11112416173D

 30 35  0  0  1  0  0  0  0  0999 V2000
  190.3140  175.0080  143.5170 C   0  0  0  0  0  0  0  0  0  0  0  0
  192.4570  173.7200  143.6850 C   0  0  0  0  0  0  0  0  0  0  0  0
  190.9920  176.7420  147.2910 N   0  0  0  0  0  2  0  0  0  0  0  0
  189.3850  175.9230  144.1020 C   0  0  0  0  0  0  0  0  0  0  0  0
  190.0330  174.4870  142.2470 C   0  0  0  0  0  3  0  0  0  0  0  0
  186.7820  176.0200  141.4430 O   0  0  0  0  0  1  0  0  0  0  0  0
  186.6220  176.6880  145.3630 C   0  0  1  0  0  3  0  0  0  0  0  0
  187.9500  175.7010  142.1330 C   0  0  0  0  0  0  0  0  0  0  0  0
  187.5500  176.9760  146.5530 C   0  0  2  0  0  3  0  0  0  0  0  0
  189.8500  177.5810  147.3660 C   0  0  0  0  0  0  0  0  0  0  0  0
  188.8790  174.8340  141.5540 C   0  0  0  0  0  0  0  0  0  0  0  0
  188.1860  176.2480  143.4070 C   0  0  0  0  0  0  0  0  0  0  0  0
  193.6030  173.3900  144.4140 C   0  0  0  0  0  3  0  0  0  0  0  0
  186.8090  177.9850  147.4100 C   0  0  0  0  0  2  0  0  0  0  0  0
  185.2760  177.3190  145.6820 C   0  0  0  0  0  2  0  0  0  0  0  0
  192.3030  173.1380  142.4690 F   0  0  0  0  0  0  0  0  0  0  0  0
  190.8450  176.0860  146.0410 C   0  0  0  0  0  0  0  0  0  0  0  0
  193.8310  173.9470  145.6700 C   0  0  0  0  0  3  0  0  0  0  0  0
  191.5040  174.6300  144.2140 C   0  0  0  0  0  0  0  0  0  0  0  0
  189.6950  176.4530  145.3710 C   0  0  0  0  0  0  0  0  0  0  0  0
  189.6550  178.3660  148.3310 O   0  0  0  0  0  0  0  0  0  0  0  0
  188.9470  177.4790  146.1710 C   0  0  1  0  0  3  0  0  0  0  0  0
  185.3440  177.7450  147.1320 C   0  0  0  0  0  2  0  0  0  0  0  0
  187.4420  178.6220  143.8510 C   0  0  0  0  0  1  0  0  0  0  0  0
  192.9120  174.8420  146.2100 C   0  0  0  0  0  3  0  0  0  0  0  0
  191.7570  175.1860  145.4990 C   0  0  0  0  0  0  0  0  0  0  0  0
  187.1130  177.1380  143.9770 C   0  0  2  0  0  3  0  0  0  0  0  0
  188.6310  174.2270  140.2130 C   0  0  0  0  0  2  0  0  0  0  0  0
  188.7180  172.2770  138.9420 C   0  0  0  0  0  1  0  0  0  0  0  0
  188.7200  172.7800  140.3030 N   0  0  0  0  0  2  0  0  0  0  0  0
  1  4  1  0  0  0  0
  1 19  1  0  0  0  0
  2 19  2  0  0  0  0
  2 13  1  0  0  0  0
  3 10  1  0  0  0  0
  4 20  1  0  0  0  0
  5  1  2  0  0  0  0
  6  8  1  0  0  0  0
  7 15  1  1  0  0  0
  7  9  1  0  0  0  0
  8 12  1  0  0  0  0
  9 14  1  1  0  0  0
 10 21  2  0  0  0  0
 11  8  2  0  0  0  0
 11  5  1  0  0  0  0
 12 27  1  0  0  0  0
 12  4  2  0  0  0  0
 13 18  2  0  0  0  0
 15 23  1  0  0  0  0
 16  2  1  0  0  0  0
 17  3  1  0  0  0  0
 18 25  1  0  0  0  0
 19 26  1  0  0  0  0
 20 17  2  0  0  0  0
 22 20  1  6  0  0  0
 22  9  1  0  0  0  0
 22 10  1  0  0  0  0
 23 14  1  0  0  0  0
 26 17  1  0  0  0  0
 26 25  2  0  0  0  0
 27 24  1  1  0  0  0
 27  7  1  0  0  0  0
 28 30  1  0  0  0  0
 28 11  1  0  0  0  0
 29 30  1  0  0  0  0
M  END
>  <MODEL>
7

>  <REMARK>
 VINA RESULT:      -8.0      3.048      5.988
  Name = 
  2 active torsions:
  status: ('A' for Active; 'I' for Inactive)
    1  A    between atoms: C_11  and  C_28
    2  A    between atoms: C_28  and  N_30
                            x       y       z     vdW  Elec       q    Type
                         _______ _______ _______ _____ _____    ______ ____

>  <TORSDO>
F 2

$$$$
=
 OpenBabel11112416173D

 30 35  0  0  1  0  0  0  0  0999 V2000
  187.4970  176.6460  143.3680 C   0  0  0  0  0  0  0  0  0  0  0  0
  185.3550  177.8800  143.7770 C   0  0  0  0  0  0  0  0  0  0  0  0
  188.8230  177.5410  147.2610 N   0  0  0  0  0  2  0  0  0  0  0  0
  188.7750  176.2170  143.8450 C   0  0  0  0  0  0  0  0  0  0  0  0
  187.1130  176.2920  142.0680 C   0  0  0  0  0  3  0  0  0  0  0  0
  190.0410  174.4290  140.8360 O   0  0  0  0  0  1  0  0  0  0  0  0
  191.9070  176.2250  143.8570 C   0  0  1  0  0  3  0  0  0  0  0  0
  189.2060  175.1520  141.6850 C   0  0  0  0  0  0  0  0  0  0  0  0
  191.6310  176.7480  145.2760 C   0  0  2  0  0  3  0  0  0  0  0  0
  190.0680  176.8580  147.2410 C   0  0  0  0  0  0  0  0  0  0  0  0
  187.9420  175.5450  141.2390 C   0  0  0  0  0  0  0  0  0  0  0  0
  189.6380  175.4840  142.9810 C   0  0  0  0  0  0  0  0  0  0  0  0
  184.5520  178.6340  144.6370 C   0  0  0  0  0  3  0  0  0  0  0  0
  192.8730  176.4160  146.0800 C   0  0  0  0  0  2  0  0  0  0  0  0
  193.3780  175.8450  143.8000 C   0  0  0  0  0  2  0  0  0  0  0  0
  184.8650  177.6130  142.5400 F   0  0  0  0  0  0  0  0  0  0  0  0
  188.2960  177.3130  145.9630 C   0  0  0  0  0  0  0  0  0  0  0  0
  184.9860  178.9480  145.9220 C   0  0  0  0  0  3  0  0  0  0  0  0
  186.6300  177.4200  144.2000 C   0  0  0  0  0  0  0  0  0  0  0  0
  189.1350  176.5650  145.1630 C   0  0  0  0  0  0  0  0  0  0  0  0
  190.8160  176.7960  148.2520 O   0  0  0  0  0  0  0  0  0  0  0  0
  190.3660  176.1840  145.9330 C   0  0  1  0  0  3  0  0  0  0  0  0
  193.9990  176.3720  145.0750 C   0  0  0  0  0  2  0  0  0  0  0  0
  191.0520  173.8130  144.2430 C   0  0  0  0  0  1  0  0  0  0  0  0
  186.2330  178.5090  146.3610 C   0  0  0  0  0  3  0  0  0  0  0  0
  187.0540  177.7540  145.5170 C   0  0  0  0  0  0  0  0  0  0  0  0
  191.0310  175.0610  143.3670 C   0  0  2  0  0  3  0  0  0  0  0  0
  187.4800  175.2200  139.8580 C   0  0  0  0  0  2  0  0  0  0  0  0
  186.6910  176.0520  137.8300 C   0  0  0  0  0  1  0  0  0  0  0  0
  187.0440  176.4310  139.1860 N   0  0  0  0  0  2  0  0  0  0  0  0
  1  4  1  0  0  0  0
  1 19  1  0  0  0  0
  2 19  2  0  0  0  0
  2 13  1  0  0  0  0
  4 20  1  0  0  0  0
  5  1  2  0  0  0  0
  6  8  1  0  0  0  0
  7 15  1  1  0  0  0
  7  9  1  0  0  0  0
  8 12  1  0  0  0  0
  9 22  1  0  0  0  0
  9 14  1  1  0  0  0
 10  3  1  0  0  0  0
 10 21  2  0  0  0  0
 11  8  2  0  0  0  0
 11  5  1  0  0  0  0
 12 27  1  0  0  0  0
 12  4  2  0  0  0  0
 13 18  2  0  0  0  0
 15 23  1  0  0  0  0
 16  2  1  0  0  0  0
 17  3  1  0  0  0  0
 18 25  1  0  0  0  0
 19 26  1  0  0  0  0
 20 17  2  0  0  0  0
 22 20  1  6  0  0  0
 22 10  1  0  0  0  0
 23 14  1  0  0  0  0
 26 17  1  0  0  0  0
 26 25  2  0  0  0  0
 27  7  1  0  0  0  0
 27 24  1  1  0  0  0
 28 11  1  0  0  0  0
 29 30  1  0  0  0  0
 30 28  1  0  0  0  0
M  END
>  <MODEL>
8

>  <REMARK>
 VINA RESULT:      -7.9      1.814      2.295
  Name = 
  2 active torsions:
  status: ('A' for Active; 'I' for Inactive)
    1  A    between atoms: C_11  and  C_28
    2  A    between atoms: C_28  and  N_30
                            x       y       z     vdW  Elec       q    Type
                         _______ _______ _______ _____ _____    ______ ____

>  <TORSDO>
F 2

$$$$
=
 OpenBabel11112416173D

 30 35  0  0  1  0  0  0  0  0999 V2000
  188.1920  175.5670  140.9710 C   0  0  0  0  0  0  0  0  0  0  0  0
  188.1720  174.3180  138.7980 C   0  0  0  0  0  0  0  0  0  0  0  0
  191.2890  173.1140  142.4210 N   0  0  0  0  0  2  0  0  0  0  0  0
  188.7310  175.7340  142.2850 C   0  0  0  0  0  0  0  0  0  0  0  0
  187.1770  176.4350  140.5470 C   0  0  0  0  0  3  0  0  0  0  0  0
  186.6630  178.5810  143.4960 O   0  0  0  0  0  1  0  0  0  0  0  0
  188.5670  175.6580  145.4110 C   0  0  1  0  0  3  0  0  0  0  0  0
  187.1830  177.5890  142.6680 C   0  0  0  0  0  0  0  0  0  0  0  0
  189.6560  174.6010  145.1730 C   0  0  2  0  0  3  0  0  0  0  0  0
  191.4840  173.7190  143.6910 C   0  0  0  0  0  0  0  0  0  0  0  0
  186.6850  177.4410  141.3710 C   0  0  0  0  0  0  0  0  0  0  0  0
  188.2000  176.7410  143.1400 C   0  0  0  0  0  0  0  0  0  0  0  0
  188.6880  173.2930  138.0020 C   0  0  0  0  0  3  0  0  0  0  0  0
  190.4560  174.5450  146.4610 C   0  0  0  0  0  2  0  0  0  0  0  0
  188.5900  175.9980  146.8930 C   0  0  0  0  0  2  0  0  0  0  0  0
  187.1850  175.0830  138.2690 F   0  0  0  0  0  0  0  0  0  0  0  0
  190.2330  173.8700  141.8500 C   0  0  0  0  0  0  0  0  0  0  0  0
  189.7030  172.4660  138.4760 C   0  0  0  0  0  3  0  0  0  0  0  0
  188.6770  174.5350  140.1080 C   0  0  0  0  0  0  0  0  0  0  0  0
  189.7670  174.8650  142.6850 C   0  0  0  0  0  0  0  0  0  0  0  0
  192.3880  173.3420  144.4830 O   0  0  0  0  0  0  0  0  0  0  0  0
  190.5570  174.8670  143.9620 C   0  0  1  0  0  3  0  0  0  0  0  0
  189.4980  174.9780  147.5450 C   0  0  0  0  0  2  0  0  0  0  0  0
  189.9590  177.7120  144.6730 C   0  0  0  0  0  1  0  0  0  0  0  0
  190.2150  172.6580  139.7570 C   0  0  0  0  0  3  0  0  0  0  0  0
  189.7130  173.6780  140.5730 C   0  0  0  0  0  0  0  0  0  0  0  0
  188.6490  176.9380  144.5640 C   0  0  2  0  0  3  0  0  0  0  0  0
  185.5890  178.3180  140.8660 C   0  0  0  0  0  2  0  0  0  0  0  0
  183.2860  178.2890  140.5160 C   0  0  0  0  0  1  0  0  0  0  0  0
  184.3250  177.9200  141.4590 N   0  0  0  0  0  2  0  0  0  0  0  0
  1  4  1  0  0  0  0
  2 19  1  0  0  0  0
  3 10  1  0  0  0  0
  4 20  1  0  0  0  0
  4 12  2  0  0  0  0
  5  1  2  0  0  0  0
  5 11  1  0  0  0  0
  7 15  1  1  0  0  0
  8 12  1  0  0  0  0
  8  6  1  0  0  0  0
  9  7  1  0  0  0  0
  9 14  1  1  0  0  0
 10 22  1  0  0  0  0
 10 21  2  0  0  0  0
 11  8  2  0  0  0  0
 12 27  1  0  0  0  0
 13 18  1  0  0  0  0
 13  2  2  0  0  0  0
 14 23  1  0  0  0  0
 15 23  1  0  0  0  0
 16  2  1  0  0  0  0
 17  3  1  0  0  0  0
 17 20  2  0  0  0  0
 18 25  2  0  0  0  0
 19 26  2  0  0  0  0
 19  1  1  0  0  0  0
 22 20  1  6  0  0  0
 22  9  1  0  0  0  0
 25 26  1  0  0  0  0
 26 17  1  0  0  0  0
 27 24  1  6  0  0  0
 27  7  1  0  0  0  0
 28 11  1  0  0  0  0
 28 30  1  0  0  0  0
 29 30  1  0  0  0  0
M  END
>  <MODEL>
9

>  <REMARK>
 VINA RESULT:      -7.9      2.885      5.405
  Name = 
  2 active torsions:
  status: ('A' for Active; 'I' for Inactive)
    1  A    between atoms: C_11  and  C_28
    2  A    between atoms: C_28  and  N_30
                            x       y       z     vdW  Elec       q    Type
                         _______ _______ _______ _____ _____    ______ ____

>  <TORSDO>
F 2

$$$$
