=
 OpenBabel11112417503D

 34 40  0  0  1  0  0  0  0  0999 V2000
  188.9860  175.3330  142.6710 C   0  0  2  0  0  3  0  0  0  0  0  0
  191.0100  173.5000  142.2980 S   0  0  0  0  0  0  0  0  0  0  0  0
  184.7830  178.5540  146.3800 C   0  0  0  0  0  0  0  0  0  0  0  0
  187.1880  177.1020  143.0050 C   0  0  0  0  0  0  0  0  0  0  0  0
  186.9870  178.2360  145.2510 C   0  0  1  0  0  3  0  0  0  0  0  0
  185.5570  176.3700  145.8530 O   0  0  0  0  0  1  0  0  0  0  0  0
  184.5150  179.0160  147.5190 O   0  0  0  0  0  0  0  0  0  0  0  0
  184.1420  178.4040  143.9750 C   0  0  0  0  0  2  0  0  0  0  0  0
  190.0350  174.2230  144.7500 C   0  0  2  0  0  3  0  0  0  0  0  0
  192.6020  174.8890  146.6780 C   0  0  0  0  0  2  0  0  0  0  0  0
  188.3960  177.6850  145.4710 C   0  0  0  0  0  2  0  0  0  0  0  0
  185.4510  178.8950  143.3730 C   0  0  0  0  0  2  0  0  0  0  0  0
  189.9030  175.6610  145.2950 C   0  0  1  0  0  3  0  0  0  0  0  0
  191.6170  172.6220  143.7540 C   0  0  0  0  0  2  0  0  0  0  0  0
  186.5590  178.0780  143.8580 N   0  0  0  0  0  0  0  0  0  0  0  0
  183.9720  178.9100  145.2970 O   0  0  0  0  0  0  0  0  0  0  0  0
  192.5770  174.4980  145.2030 C   0  0  2  0  0  3  0  0  0  0  0  0
  187.9580  175.9510  143.6260 C   0  0  2  0  0  3  0  0  0  0  0  0
  185.9680  177.6500  146.2350 C   0  0  2  0  0  3  0  0  0  0  0  0
  188.4900  176.2130  145.0580 C   0  0  2  0  0  3  0  0  0  0  0  0
  187.7700  176.2760  140.7080 C   0  0  0  0  0  2  0  0  0  0  0  0
  191.6900  176.0700  146.9720 C   0  0  0  0  0  2  0  0  0  0  0  0
  187.0510  177.1830  141.6710 C   0  0  0  0  0  3  0  0  0  0  0  0
  190.2290  175.7030  146.7810 C   0  0  0  0  0  2  0  0  0  0  0  0
  191.3990  173.5280  144.9570 C   0  0  1  0  0  3  0  0  0  0  0  0
  188.2680  174.9940  141.3700 C   0  0  0  0  0  2  0  0  0  0  0  0
  189.5940  174.0700  143.2810 C   0  0  1  0  0  3  0  0  0  0  0  0
  193.9260  173.8690  144.8660 C   0  0  0  0  0  2  0  0  0  0  0  0
  195.0560  174.7200  145.4190 C   0  0  0  0  0  2  0  0  0  0  0  0
  197.1170  171.6630  145.3280 C   0  0  0  0  0  2  0  0  0  0  0  0
  197.6390  174.1310  144.6800 S   0  0  0  0  0  0  0  0  0  0  0  0
  196.2340  173.8450  145.8010 C   0  0  2  0  0  3  0  0  0  0  0  0
  197.7930  172.4110  144.2820 N   0  0  0  0  0  2  0  0  0  0  0  0
  195.8490  172.3960  145.6770 C   0  0  0  0  0  2  0  0  0  0  0  0
  1 26  1  6  0  0  0
  1 27  1  0  0  0  0
  1 18  1  0  0  0  0
  2 27  1  0  0  0  0
  2 14  1  0  0  0  0
  3  7  2  0  0  0  0
  4 18  1  0  0  0  0
  4 15  1  0  0  0  0
  5 11  1  6  0  0  0
  5 19  1  0  0  0  0
  6 19  1  0  0  0  0
  8 16  1  0  0  0  0
  9 25  1  0  0  0  0
  9 13  1  0  0  0  0
 10 22  1  0  0  0  0
 12 15  1  0  0  0  0
 12  8  1  0  0  0  0
 13 24  1  0  0  0  0
 14 25  1  0  0  0  0
 15  5  1  0  0  0  0
 16  3  1  0  0  0  0
 17 10  1  0  0  0  0
 18 20  1  0  0  0  0
 19  3  1  0  0  0  0
 20 13  1  0  0  0  0
 20 11  1  0  0  0  0
 21 26  1  0  0  0  0
 21 23  1  0  0  0  0
 23  4  2  0  0  0  0
 24 22  1  0  0  0  0
 25 17  1  0  0  0  0
 27  9  1  0  0  0  0
 28 17  1  0  0  0  0
 28 29  1  0  0  0  0
 29 32  1  0  0  0  0
 30 34  1  0  0  0  0
 31 32  1  0  0  0  0
 33 31  1  0  0  0  0
 33 30  1  0  0  0  0
 34 32  1  0  0  0  0
M  END
>  <MODEL>
1

>  <REMARK>
 VINA RESULT:      -9.0      0.000      0.000
  Name = 
  3 active torsions:
  status: ('A' for Active; 'I' for Inactive)
    1  A    between atoms: C_17  and  C_28
    2  A    between atoms: C_28  and  C_29
    3  A    between atoms: C_29  and  C_32
                            x       y       z     vdW  Elec       q    Type
                         _______ _______ _______ _____ _____    ______ ____

>  <TORSDO>
F 3

$$$$
=
 OpenBabel11112417503D

 34 40  0  0  1  0  0  0  0  0999 V2000
  188.6380  175.6900  142.2010 C   0  0  2  0  0  3  0  0  0  0  0  0
  190.4750  173.8140  141.3630 S   0  0  0  0  0  0  0  0  0  0  0  0
  184.9260  178.4600  146.7120 C   0  0  0  0  0  0  0  0  0  0  0  0
  187.0180  177.4930  142.9740 C   0  0  0  0  0  0  0  0  0  0  0  0
  187.0320  178.1970  145.3980 C   0  0  1  0  0  3  0  0  0  0  0  0
  185.4810  176.3620  145.7430 O   0  0  0  0  0  1  0  0  0  0  0  0
  184.7580  178.7180  147.9310 O   0  0  0  0  0  0  0  0  0  0  0  0
  184.1500  178.8130  144.3680 C   0  0  0  0  0  2  0  0  0  0  0  0
  189.6950  174.1340  143.9660 C   0  0  2  0  0  3  0  0  0  0  0  0
  192.4060  174.2320  145.8070 C   0  0  0  0  0  2  0  0  0  0  0  0
  188.3980  177.5100  145.4180 C   0  0  0  0  0  2  0  0  0  0  0  0
  185.4630  179.3100  143.7800 C   0  0  0  0  0  2  0  0  0  0  0  0
  189.7150  175.4500  144.7730 C   0  0  1  0  0  3  0  0  0  0  0  0
  191.0800  172.6350  142.5900 C   0  0  0  0  0  2  0  0  0  0  0  0
  186.5210  178.3360  144.0310 N   0  0  0  0  0  0  0  0  0  0  0  0
  184.0920  179.0730  145.7680 O   0  0  0  0  0  0  0  0  0  0  0  0
  192.2710  174.1280  144.2910 C   0  0  2  0  0  3  0  0  0  0  0  0
  187.7180  176.1920  143.3210 C   0  0  2  0  0  3  0  0  0  0  0  0
  186.0190  177.5140  146.3240 C   0  0  2  0  0  3  0  0  0  0  0  0
  188.3440  176.1390  144.7370 C   0  0  2  0  0  3  0  0  0  0  0  0
  187.4070  177.0730  140.5300 C   0  0  0  0  0  2  0  0  0  0  0  0
  191.6160  175.4010  146.3730 C   0  0  0  0  0  2  0  0  0  0  0  0
  186.8200  177.8340  141.6900 C   0  0  0  0  0  3  0  0  0  0  0  0
  190.1210  175.1860  146.2170 C   0  0  0  0  0  2  0  0  0  0  0  0
  191.0030  173.3120  143.9510 C   0  0  1  0  0  3  0  0  0  0  0  0
  187.8280  175.6560  140.9110 C   0  0  0  0  0  2  0  0  0  0  0  0
  189.1670  174.2930  142.5280 C   0  0  1  0  0  3  0  0  0  0  0  0
  193.5420  173.4750  143.7550 C   0  0  0  0  0  2  0  0  0  0  0  0
  194.7690  174.1540  144.3390 C   0  0  0  0  0  2  0  0  0  0  0  0
  196.9900  176.8600  143.1780 C   0  0  0  0  0  2  0  0  0  0  0  0
  196.9570  174.3030  142.6800 S   0  0  0  0  0  0  0  0  0  0  0  0
  195.4170  175.0490  143.3010 C   0  0  2  0  0  3  0  0  0  0  0  0
  197.9160  175.7490  143.0470 N   0  0  0  0  0  2  0  0  0  0  0  0
  195.7790  176.3690  143.9260 C   0  0  0  0  0  2  0  0  0  0  0  0
  1 26  1  6  0  0  0
  1 27  1  0  0  0  0
  1 18  1  0  0  0  0
  2 27  1  0  0  0  0
  2 14  1  0  0  0  0
  3  7  2  0  0  0  0
  4 18  1  0  0  0  0
  4 15  1  0  0  0  0
  5 11  1  6  0  0  0
  5 19  1  0  0  0  0
  6 19  1  0  0  0  0
  8 16  1  0  0  0  0
  9 13  1  0  0  0  0
 10 22  1  0  0  0  0
 12 15  1  0  0  0  0
 12  8  1  0  0  0  0
 13 24  1  0  0  0  0
 14 25  1  0  0  0  0
 15  5  1  0  0  0  0
 16  3  1  0  0  0  0
 17 10  1  0  0  0  0
 18 20  1  0  0  0  0
 19  3  1  0  0  0  0
 20 13  1  0  0  0  0
 20 11  1  0  0  0  0
 21 26  1  0  0  0  0
 21 23  1  0  0  0  0
 23  4  2  0  0  0  0
 24 22  1  0  0  0  0
 25  9  1  0  0  0  0
 25 17  1  0  0  0  0
 27  9  1  0  0  0  0
 28 17  1  0  0  0  0
 28 29  1  0  0  0  0
 30 34  1  0  0  0  0
 31 33  1  0  0  0  0
 31 32  1  0  0  0  0
 32 34  1  0  0  0  0
 32 29  1  0  0  0  0
 33 30  1  0  0  0  0
M  END
>  <MODEL>
2

>  <REMARK>
 VINA RESULT:      -9.0      1.283      1.659
  Name = 
  3 active torsions:
  status: ('A' for Active; 'I' for Inactive)
    1  A    between atoms: C_17  and  C_28
    2  A    between atoms: C_28  and  C_29
    3  A    between atoms: C_29  and  C_32
                            x       y       z     vdW  Elec       q    Type
                         _______ _______ _______ _____ _____    ______ ____

>  <TORSDO>
F 3

$$$$
=
 OpenBabel11112417503D

 34 40  0  0  1  0  0  0  0  0999 V2000
  190.2920  174.0450  143.4760 C   0  0  2  0  0  3  0  0  0  0  0  0
  192.4010  172.3130  143.0890 S   0  0  0  0  0  0  0  0  0  0  0  0
  186.8000  178.1030  147.1000 C   0  0  0  0  0  0  0  0  0  0  0  0
  188.3970  175.7150  143.7790 C   0  0  0  0  0  0  0  0  0  0  0  0
  188.6370  177.5410  145.5060 C   0  0  1  0  0  3  0  0  0  0  0  0
  187.7350  175.9180  147.0690 O   0  0  0  0  0  1  0  0  0  0  0  0
  186.7810  178.9130  148.0630 O   0  0  0  0  0  0  0  0  0  0  0  0
  185.5630  177.0980  145.1820 C   0  0  0  0  0  2  0  0  0  0  0  0
  192.0250  173.7800  145.3680 C   0  0  2  0  0  3  0  0  0  0  0  0
  194.8810  175.2130  146.1040 C   0  0  0  0  0  2  0  0  0  0  0  0
  190.1210  177.1790  145.4420 C   0  0  0  0  0  2  0  0  0  0  0  0
  186.5660  177.4250  144.0850 C   0  0  0  0  0  2  0  0  0  0  0  0
  191.8220  175.3080  145.4500 C   0  0  1  0  0  3  0  0  0  0  0  0
  193.5100  172.0260  144.4850 C   0  0  0  0  0  2  0  0  0  0  0  0
  187.8780  176.8890  144.4350 N   0  0  0  0  0  0  0  0  0  0  0  0
  185.6800  178.0170  146.2650 O   0  0  0  0  0  0  0  0  0  0  0  0
  194.5200  174.3380  144.9080 C   0  0  2  0  0  3  0  0  0  0  0  0
  189.4780  174.8950  144.4590 C   0  0  2  0  0  3  0  0  0  0  0  0
  188.0270  177.2730  146.8870 C   0  0  2  0  0  3  0  0  0  0  0  0
  190.3300  175.6630  145.5000 C   0  0  2  0  0  3  0  0  0  0  0  0
  188.4580  174.1840  141.7920 C   0  0  0  0  0  2  0  0  0  0  0  0
  193.9100  176.3700  146.2810 C   0  0  0  0  0  2  0  0  0  0  0  0
  187.8940  175.3250  142.5970 C   0  0  0  0  0  3  0  0  0  0  0  0
  192.5280  175.8770  146.6730 C   0  0  0  0  0  2  0  0  0  0  0  0
  193.4860  173.2770  145.3510 C   0  0  1  0  0  3  0  0  0  0  0  0
  189.3120  173.2380  142.6330 C   0  0  0  0  0  2  0  0  0  0  0  0
  191.2340  173.1060  144.2310 C   0  0  1  0  0  3  0  0  0  0  0  0
  195.8080  173.7090  144.3860 C   0  0  0  0  0  2  0  0  0  0  0  0
  197.0020  174.5710  144.7560 C   0  0  0  0  0  2  0  0  0  0  0  0
  197.2840  175.1990  141.1320 C   0  0  0  0  0  2  0  0  0  0  0  0
  196.8200  176.7900  143.1420 S   0  0  0  0  0  0  0  0  0  0  0  0
  197.6080  175.1910  143.5120 C   0  0  2  0  0  3  0  0  0  0  0  0
  196.4250  176.3170  141.4800 N   0  0  0  0  0  2  0  0  0  0  0  0
  197.3710  174.2910  142.3300 C   0  0  0  0  0  2  0  0  0  0  0  0
  1 26  1  1  0  0  0
  1 27  1  0  0  0  0
  1 18  1  0  0  0  0
  2 27  1  0  0  0  0
  2 14  1  0  0  0  0
  3  7  2  0  0  0  0
  4 15  1  0  0  0  0
  4 18  1  0  0  0  0
  5 11  1  1  0  0  0
  5 19  1  0  0  0  0
  8 16  1  0  0  0  0
  9 13  1  0  0  0  0
 10 22  1  0  0  0  0
 11 20  1  0  0  0  0
 12 15  1  0  0  0  0
 12  8  1  0  0  0  0
 13 20  1  0  0  0  0
 13 24  1  0  0  0  0
 14 25  1  0  0  0  0
 15  5  1  0  0  0  0
 16  3  1  0  0  0  0
 17 25  1  0  0  0  0
 17 10  1  0  0  0  0
 18 20  1  0  0  0  0
 19  6  1  0  0  0  0
 19  3  1  0  0  0  0
 21 23  1  0  0  0  0
 21 26  1  0  0  0  0
 22 24  1  0  0  0  0
 23  4  2  0  0  0  0
 25  9  1  0  0  0  0
 27  9  1  0  0  0  0
 28 29  1  0  0  0  0
 28 17  1  0  0  0  0
 30 33  1  0  0  0  0
 30 34  1  0  0  0  0
 31 32  1  0  0  0  0
 32 29  1  0  0  0  0
 33 31  1  0  0  0  0
 34 32  1  0  0  0  0
M  END
>  <MODEL>
3

>  <REMARK>
 VINA RESULT:      -8.9      1.998      2.564
  Name = 
  3 active torsions:
  status: ('A' for Active; 'I' for Inactive)
    1  A    between atoms: C_17  and  C_28
    2  A    between atoms: C_28  and  C_29
    3  A    between atoms: C_29  and  C_32
                            x       y       z     vdW  Elec       q    Type
                         _______ _______ _______ _____ _____    ______ ____

>  <TORSDO>
F 3

$$$$
=
 OpenBabel11112417503D

 34 40  0  0  1  0  0  0  0  0999 V2000
  189.5030  176.2370  145.7600 C   0  0  2  0  0  3  0  0  0  0  0  0
  191.7920  175.5910  147.1530 S   0  0  0  0  0  0  0  0  0  0  0  0
  186.2960  177.5660  140.3060 C   0  0  0  0  0  0  0  0  0  0  0  0
  187.3590  176.7360  144.4850 C   0  0  0  0  0  0  0  0  0  0  0  0
  187.1780  176.0330  142.0680 C   0  0  1  0  0  3  0  0  0  0  0  0
  188.2190  178.1670  141.5670 O   0  0  0  0  0  1  0  0  0  0  0  0
  186.2170  177.4090  139.0600 O   0  0  0  0  0  0  0  0  0  0  0  0
  185.2310  178.4530  142.3780 C   0  0  0  0  0  2  0  0  0  0  0  0
  191.6510  175.7310  144.4240 C   0  0  2  0  0  3  0  0  0  0  0  0
  193.0380  173.0150  143.2200 C   0  0  0  0  0  2  0  0  0  0  0  0
  188.3670  175.1340  142.4120 C   0  0  0  0  0  2  0  0  0  0  0  0
  185.2360  177.1660  143.1910 C   0  0  0  0  0  2  0  0  0  0  0  0
  190.6360  174.9980  143.5200 C   0  0  1  0  0  3  0  0  0  0  0  0
  193.3170  175.3960  146.2050 C   0  0  0  0  0  2  0  0  0  0  0  0
  186.5920  176.6320  143.2700 N   0  0  0  0  0  0  0  0  0  0  0  0
  185.2300  178.1710  140.9820 O   0  0  0  0  0  0  0  0  0  0  0  0
  192.7990  173.4150  144.6730 C   0  0  2  0  0  3  0  0  0  0  0  0
  188.8730  176.6490  144.4240 C   0  0  2  0  0  3  0  0  0  0  0  0
  187.5270  177.0870  141.0110 C   0  0  2  0  0  3  0  0  0  0  0  0
  189.4400  175.9020  143.1910 C   0  0  2  0  0  3  0  0  0  0  0  0
  187.4530  176.9600  146.9830 C   0  0  0  0  0  2  0  0  0  0  0  0
  191.7690  173.0990  142.3870 C   0  0  0  0  0  2  0  0  0  0  0  0
  186.7400  176.9560  145.6570 C   0  0  0  0  0  3  0  0  0  0  0  0
  191.3020  174.5360  142.2320 C   0  0  0  0  0  2  0  0  0  0  0  0
  192.9290  174.9500  144.8030 C   0  0  1  0  0  3  0  0  0  0  0  0
  188.9590  177.1660  146.8390 C   0  0  0  0  0  2  0  0  0  0  0  0
  191.0270  176.3470  145.6910 C   0  0  1  0  0  3  0  0  0  0  0  0
  193.8170  172.6720  145.5330 C   0  0  0  0  0  2  0  0  0  0  0  0
  195.1240  172.5070  144.7780 C   0  0  0  0  0  2  0  0  0  0  0  0
  196.4790  169.6660  146.7000 C   0  0  0  0  0  2  0  0  0  0  0  0
  194.3040  169.9330  145.2920 S   0  0  0  0  0  0  0  0  0  0  0  0
  195.6600  171.1000  144.9560 C   0  0  2  0  0  3  0  0  0  0  0  0
  195.0700  169.3220  146.7690 N   0  0  0  0  0  2  0  0  0  0  0  0
  196.5900  171.0590  146.1390 C   0  0  0  0  0  2  0  0  0  0  0  0
  1 26  1  1  0  0  0
  3 16  1  0  0  0  0
  3 19  1  0  0  0  0
  4 23  2  0  0  0  0
  5 11  1  1  0  0  0
  5 15  1  0  0  0  0
  7  3  2  0  0  0  0
  8 12  1  0  0  0  0
  9 25  1  0  0  0  0
  9 27  1  0  0  0  0
 10 17  1  0  0  0  0
 11 20  1  0  0  0  0
 12 15  1  0  0  0  0
 13  9  1  0  0  0  0
 14  2  1  0  0  0  0
 15  4  1  0  0  0  0
 16  8  1  0  0  0  0
 17 25  1  0  0  0  0
 17 28  1  0  0  0  0
 18  4  1  0  0  0  0
 18  1  1  0  0  0  0
 19  6  1  0  0  0  0
 19  5  1  0  0  0  0
 20 13  1  0  0  0  0
 20 18  1  0  0  0  0
 22 10  1  0  0  0  0
 23 21  1  0  0  0  0
 24 22  1  0  0  0  0
 24 13  1  0  0  0  0
 25 14  1  0  0  0  0
 26 21  1  0  0  0  0
 27  1  1  0  0  0  0
 27  2  1  0  0  0  0
 29 32  1  0  0  0  0
 29 28  1  0  0  0  0
 30 33  1  0  0  0  0
 31 33  1  0  0  0  0
 32 31  1  0  0  0  0
 32 34  1  0  0  0  0
 34 30  1  0  0  0  0
M  END
>  <MODEL>
4

>  <REMARK>
 VINA RESULT:      -8.7      2.608      4.080
  Name = 
  3 active torsions:
  status: ('A' for Active; 'I' for Inactive)
    1  A    between atoms: C_17  and  C_28
    2  A    between atoms: C_28  and  C_29
    3  A    between atoms: C_29  and  C_32
                            x       y       z     vdW  Elec       q    Type
                         _______ _______ _______ _____ _____    ______ ____

>  <TORSDO>
F 3

$$$$
=
 OpenBabel11112417503D

 34 40  0  0  1  0  0  0  0  0999 V2000
  189.4600  176.5800  145.8000 C   0  0  2  0  0  3  0  0  0  0  0  0
  191.7560  176.0840  147.2430 S   0  0  0  0  0  0  0  0  0  0  0  0
  186.2680  177.5410  140.2610 C   0  0  0  0  0  0  0  0  0  0  0  0
  187.3130  176.9390  144.4840 C   0  0  0  0  0  0  0  0  0  0  0  0
  187.1880  176.1230  142.0980 C   0  0  1  0  0  3  0  0  0  0  0  0
  188.1520  178.2710  141.5120 O   0  0  0  0  0  1  0  0  0  0  0  0
  186.2090  177.3260  139.0230 O   0  0  0  0  0  0  0  0  0  0  0  0
  185.1470  178.4780  142.2810 C   0  0  0  0  0  2  0  0  0  0  0  0
  191.6410  176.0980  144.5100 C   0  0  2  0  0  3  0  0  0  0  0  0
  193.1440  173.3870  143.4420 C   0  0  0  0  0  2  0  0  0  0  0  0
  188.4060  175.2870  142.4940 C   0  0  0  0  0  2  0  0  0  0  0  0
  185.1910  177.2290  143.1500 C   0  0  0  0  0  2  0  0  0  0  0  0
  190.6650  175.2880  143.6300 C   0  0  1  0  0  3  0  0  0  0  0  0
  193.2970  175.9070  146.3200 C   0  0  0  0  0  2  0  0  0  0  0  0
  186.5650  176.7520  143.2660 N   0  0  0  0  0  0  0  0  0  0  0  0
  185.1720  178.1340  140.8990 O   0  0  0  0  0  0  0  0  0  0  0  0
  192.8730  173.8410  144.8730 C   0  0  2  0  0  3  0  0  0  0  0  0
  188.8300  176.9070  144.4420 C   0  0  2  0  0  3  0  0  0  0  0  0
  187.5080  177.1420  140.9990 C   0  0  2  0  0  3  0  0  0  0  0  0
  189.4390  176.1290  143.2490 C   0  0  2  0  0  3  0  0  0  0  0  0
  187.3700  177.2770  146.9690 C   0  0  0  0  0  2  0  0  0  0  0  0
  191.8820  173.3850  142.5940 C   0  0  0  0  0  2  0  0  0  0  0  0
  186.6730  177.1870  145.6380 C   0  0  0  0  0  3  0  0  0  0  0  0
  191.3630  174.7940  142.3700 C   0  0  0  0  0  2  0  0  0  0  0  0
  192.9430  175.3840  144.9360 C   0  0  1  0  0  3  0  0  0  0  0  0
  188.8680  177.5340  146.8310 C   0  0  0  0  0  2  0  0  0  0  0  0
  190.9800  176.7450  145.7410 C   0  0  1  0  0  3  0  0  0  0  0  0
  193.9080  173.1770  145.7760 C   0  0  0  0  0  2  0  0  0  0  0  0
  194.5860  172.0310  145.0450 C   0  0  0  0  0  2  0  0  0  0  0  0
  197.9410  172.9650  143.8320 C   0  0  0  0  0  2  0  0  0  0  0  0
  196.5510  173.7620  145.8850 S   0  0  0  0  0  0  0  0  0  0  0  0
  196.0930  172.1650  145.1400 C   0  0  2  0  0  3  0  0  0  0  0  0
  197.6160  174.1930  144.5360 N   0  0  0  0  0  2  0  0  0  0  0  0
  196.6930  172.1260  143.7610 C   0  0  0  0  0  2  0  0  0  0  0  0
  1 26  1  1  0  0  0
  3 16  1  0  0  0  0
  3 19  1  0  0  0  0
  4 23  2  0  0  0  0
  5 11  1  1  0  0  0
  5 15  1  0  0  0  0
  7  3  2  0  0  0  0
  8 12  1  0  0  0  0
  9 25  1  0  0  0  0
  9 27  1  0  0  0  0
 10 17  1  0  0  0  0
 11 20  1  0  0  0  0
 12 15  1  0  0  0  0
 13  9  1  0  0  0  0
 14  2  1  0  0  0  0
 15  4  1  0  0  0  0
 16  8  1  0  0  0  0
 17 25  1  0  0  0  0
 17 28  1  0  0  0  0
 18  4  1  0  0  0  0
 18  1  1  0  0  0  0
 19  6  1  0  0  0  0
 19  5  1  0  0  0  0
 20 13  1  0  0  0  0
 20 18  1  0  0  0  0
 22 10  1  0  0  0  0
 23 21  1  0  0  0  0
 24 22  1  0  0  0  0
 24 13  1  0  0  0  0
 25 14  1  0  0  0  0
 26 21  1  0  0  0  0
 27  1  1  0  0  0  0
 27  2  1  0  0  0  0
 29 32  1  0  0  0  0
 29 28  1  0  0  0  0
 30 33  1  0  0  0  0
 32 31  1  0  0  0  0
 33 31  1  0  0  0  0
 34 30  1  0  0  0  0
 34 32  1  0  0  0  0
M  END
>  <MODEL>
5

>  <REMARK>
 VINA RESULT:      -8.7      2.371      3.918
  Name = 
  3 active torsions:
  status: ('A' for Active; 'I' for Inactive)
    1  A    between atoms: C_17  and  C_28
    2  A    between atoms: C_28  and  C_29
    3  A    between atoms: C_29  and  C_32
                            x       y       z     vdW  Elec       q    Type
                         _______ _______ _______ _____ _____    ______ ____

>  <TORSDO>
F 3

$$$$
=
 OpenBabel11112417503D

 34 40  0  0  1  0  0  0  0  0999 V2000
  189.7480  176.4930  144.8760 C   0  0  2  0  0  3  0  0  0  0  0  0
  192.3170  175.5680  144.5000 S   0  0  0  0  0  0  0  0  0  0  0  0
  183.9590  178.3790  142.7000 C   0  0  0  0  0  0  0  0  0  0  0  0
  187.3490  177.2510  145.2550 C   0  0  0  0  0  0  0  0  0  0  0  0
  185.5980  176.6860  143.5270 C   0  0  1  0  0  3  0  0  0  0  0  0
  186.2930  178.7350  142.4280 O   0  0  0  0  0  1  0  0  0  0  0  0
  183.0890  178.2900  141.7960 O   0  0  0  0  0  0  0  0  0  0  0  0
  184.5580  179.2600  144.9540 C   0  0  0  0  0  2  0  0  0  0  0  0
  190.4840  175.8530  142.4890 C   0  0  2  0  0  3  0  0  0  0  0  0
  190.4970  173.0810  140.7380 C   0  0  0  0  0  2  0  0  0  0  0  0
  186.6330  175.6650  143.0520 C   0  0  0  0  0  2  0  0  0  0  0  0
  184.9470  177.9400  145.6050 C   0  0  0  0  0  2  0  0  0  0  0  0
  189.0580  175.2640  142.4580 C   0  0  1  0  0  3  0  0  0  0  0  0
  192.8570  175.2780  142.8020 C   0  0  0  0  0  2  0  0  0  0  0  0
  185.9780  177.2790  144.8120 N   0  0  0  0  0  0  0  0  0  0  0  0
  183.6380  179.0470  143.8870 O   0  0  0  0  0  0  0  0  0  0  0  0
  191.2810  173.4300  141.9990 C   0  0  2  0  0  3  0  0  0  0  0  0
  188.4580  177.0260  144.2420 C   0  0  2  0  0  3  0  0  0  0  0  0
  185.2990  177.7530  142.4670 C   0  0  2  0  0  3  0  0  0  0  0  0
  188.0270  176.2900  142.9490 C   0  0  2  0  0  3  0  0  0  0  0  0
  189.0360  177.3440  147.1100 C   0  0  0  0  0  2  0  0  0  0  0  0
  189.0050  173.3240  140.9060 C   0  0  0  0  0  2  0  0  0  0  0  0
  187.6460  177.4720  146.5460 C   0  0  0  0  0  3  0  0  0  0  0  0
  188.6980  174.8040  141.0520 C   0  0  0  0  0  2  0  0  0  0  0  0
  191.6210  174.9390  141.9810 C   0  0  1  0  0  3  0  0  0  0  0  0
  190.1150  177.4150  146.0330 C   0  0  0  0  0  2  0  0  0  0  0  0
  190.8790  176.4630  143.8470 C   0  0  1  0  0  3  0  0  0  0  0  0
  192.5300  172.5550  142.0270 C   0  0  0  0  0  2  0  0  0  0  0  0
  192.5370  171.6890  143.2750 C   0  0  0  0  0  2  0  0  0  0  0  0
  196.1010  172.5680  143.6410 C   0  0  0  0  0  2  0  0  0  0  0  0
  194.1900  172.2910  145.3890 S   0  0  0  0  0  0  0  0  0  0  0  0
  193.9580  171.4930  143.7700 C   0  0  2  0  0  3  0  0  0  0  0  0
  195.5930  173.2220  144.8340 N   0  0  0  0  0  2  0  0  0  0  0  0
  194.9210  172.1360  142.8100 C   0  0  0  0  0  2  0  0  0  0  0  0
  1 26  1  1  0  0  0
  3 16  1  0  0  0  0
  4 23  2  0  0  0  0
  5 11  1  6  0  0  0
  5 15  1  0  0  0  0
  6 19  1  0  0  0  0
  7  3  2  0  0  0  0
  8 12  1  0  0  0  0
  9 27  1  0  0  0  0
 10 22  1  0  0  0  0
 10 17  1  0  0  0  0
 13  9  1  0  0  0  0
 13 20  1  0  0  0  0
 14  2  1  0  0  0  0
 15  4  1  0  0  0  0
 15 12  1  0  0  0  0
 16  8  1  0  0  0  0
 17 28  1  0  0  0  0
 18  1  1  0  0  0  0
 18  4  1  0  0  0  0
 19  3  1  0  0  0  0
 19  5  1  0  0  0  0
 20 11  1  0  0  0  0
 20 18  1  0  0  0  0
 22 24  1  0  0  0  0
 23 21  1  0  0  0  0
 24 13  1  0  0  0  0
 25 17  1  0  0  0  0
 25  9  1  0  0  0  0
 25 14  1  0  0  0  0
 26 21  1  0  0  0  0
 27  2  1  0  0  0  0
 27  1  1  0  0  0  0
 28 29  1  0  0  0  0
 29 32  1  0  0  0  0
 30 33  1  0  0  0  0
 32 31  1  0  0  0  0
 33 31  1  0  0  0  0
 34 30  1  0  0  0  0
 34 32  1  0  0  0  0
M  END
>  <MODEL>
6

>  <REMARK>
 VINA RESULT:      -8.3      2.177      3.885
  Name = 
  3 active torsions:
  status: ('A' for Active; 'I' for Inactive)
    1  A    between atoms: C_17  and  C_28
    2  A    between atoms: C_28  and  C_29
    3  A    between atoms: C_29  and  C_32
                            x       y       z     vdW  Elec       q    Type
                         _______ _______ _______ _____ _____    ______ ____

>  <TORSDO>
F 3

$$$$
=
 OpenBabel11112417503D

 34 40  0  0  1  0  0  0  0  0999 V2000
  192.2720  175.9600  145.8170 C   0  0  2  0  0  3  0  0  0  0  0  0
  190.0700  177.4490  146.5490 S   0  0  0  0  0  0  0  0  0  0  0  0
  195.0510  170.6480  143.3980 C   0  0  0  0  0  0  0  0  0  0  0  0
  194.3140  174.6460  145.0570 C   0  0  0  0  0  0  0  0  0  0  0  0
  194.0540  172.9300  143.2250 C   0  0  1  0  0  3  0  0  0  0  0  0
  193.4690  171.3920  145.0080 O   0  0  0  0  0  1  0  0  0  0  0  0
  194.9510  169.6580  142.6280 O   0  0  0  0  0  0  0  0  0  0  0  0
  196.5180  171.9950  144.8990 C   0  0  0  0  0  2  0  0  0  0  0  0
  189.9270  175.0330  145.2710 C   0  0  2  0  0  3  0  0  0  0  0  0
  187.8370  175.3610  142.7660 C   0  0  0  0  0  2  0  0  0  0  0  0
  192.7410  173.6640  142.9490 C   0  0  0  0  0  2  0  0  0  0  0  0
  196.3170  173.3500  144.2360 C   0  0  0  0  0  2  0  0  0  0  0  0
  190.6420  174.6470  143.9580 C   0  0  1  0  0  3  0  0  0  0  0  0
  188.4430  176.7070  146.2990 C   0  0  0  0  0  2  0  0  0  0  0  0
  194.8930  173.6670  144.1730 N   0  0  0  0  0  0  0  0  0  0  0  0
  196.2960  170.9380  143.9690 O   0  0  0  0  0  0  0  0  0  0  0  0
  188.3240  176.4100  143.7610 C   0  0  2  0  0  3  0  0  0  0  0  0
  192.8220  174.6130  145.3350 C   0  0  2  0  0  3  0  0  0  0  0  0
  193.8330  171.4770  143.6610 C   0  0  2  0  0  3  0  0  0  0  0  0
  191.9650  173.9240  144.2430 C   0  0  2  0  0  3  0  0  0  0  0  0
  194.5580  176.6780  146.5100 C   0  0  0  0  0  2  0  0  0  0  0  0
  188.9900  174.6230  142.1020 C   0  0  0  0  0  2  0  0  0  0  0  0
  195.0960  175.5520  145.6680 C   0  0  0  0  0  3  0  0  0  0  0  0
  189.7460  173.7650  143.1010 C   0  0  0  0  0  2  0  0  0  0  0  0
  188.5580  175.7350  145.1330 C   0  0  1  0  0  3  0  0  0  0  0  0
  193.1300  176.4230  146.9880 C   0  0  0  0  0  2  0  0  0  0  0  0
  190.8140  175.8180  146.2570 C   0  0  1  0  0  3  0  0  0  0  0  0
  187.2710  177.5110  143.8290 C   0  0  0  0  0  2  0  0  0  0  0  0
  185.8780  176.9060  143.8460 C   0  0  0  0  0  2  0  0  0  0  0  0
  184.6940  178.2890  147.0530 C   0  0  0  0  0  2  0  0  0  0  0  0
  185.5660  179.4340  144.8830 S   0  0  0  0  0  0  0  0  0  0  0  0
  184.9610  177.7240  144.7350 C   0  0  2  0  0  3  0  0  0  0  0  0
  185.5630  179.3810  146.6550 N   0  0  0  0  0  2  0  0  0  0  0  0
  184.9400  177.1340  146.1190 C   0  0  0  0  0  2  0  0  0  0  0  0
  1 27  1  0  0  0  0
  1 26  1  1  0  0  0
  3 19  1  0  0  0  0
  3 16  1  0  0  0  0
  4 18  1  0  0  0  0
  4 23  2  0  0  0  0
  5 11  1  1  0  0  0
  5 19  1  0  0  0  0
  5 15  1  0  0  0  0
  7  3  2  0  0  0  0
  9 27  1  0  0  0  0
 10 17  1  0  0  0  0
 11 20  1  0  0  0  0
 12  8  1  0  0  0  0
 13 20  1  0  0  0  0
 13  9  1  0  0  0  0
 14  2  1  0  0  0  0
 15 12  1  0  0  0  0
 15  4  1  0  0  0  0
 16  8  1  0  0  0  0
 17 28  1  0  0  0  0
 17 25  1  0  0  0  0
 18  1  1  0  0  0  0
 19  6  1  0  0  0  0
 20 18  1  0  0  0  0
 21 26  1  0  0  0  0
 22 10  1  0  0  0  0
 22 24  1  0  0  0  0
 23 21  1  0  0  0  0
 24 13  1  0  0  0  0
 25  9  1  0  0  0  0
 25 14  1  0  0  0  0
 27  2  1  0  0  0  0
 28 29  1  0  0  0  0
 29 32  1  0  0  0  0
 31 33  1  0  0  0  0
 32 31  1  0  0  0  0
 32 34  1  0  0  0  0
 33 30  1  0  0  0  0
 34 30  1  0  0  0  0
M  END
>  <MODEL>
7

>  <REMARK>
 VINA RESULT:      -8.2      4.047      9.300
  Name = 
  3 active torsions:
  status: ('A' for Active; 'I' for Inactive)
    1  A    between atoms: C_17  and  C_28
    2  A    between atoms: C_28  and  C_29
    3  A    between atoms: C_29  and  C_32
                            x       y       z     vdW  Elec       q    Type
                         _______ _______ _______ _____ _____    ______ ____

>  <TORSDO>
F 3

$$$$
=
 OpenBabel11112417503D

 34 40  0  0  1  0  0  0  0  0999 V2000
  190.3200  173.2890  142.6090 C   0  0  2  0  0  3  0  0  0  0  0  0
  188.1800  174.7200  141.6240 S   0  0  0  0  0  0  0  0  0  0  0  0
  196.1490  172.8680  145.3740 C   0  0  0  0  0  0  0  0  0  0  0  0
  192.2380  171.9450  143.6010 C   0  0  0  0  0  0  0  0  0  0  0  0
  193.6550  172.9850  145.4130 C   0  0  1  0  0  3  0  0  0  0  0  0
  194.9680  173.9090  143.5930 O   0  0  0  0  0  1  0  0  0  0  0  0
  196.9970  173.3950  146.1390 O   0  0  0  0  0  0  0  0  0  0  0  0
  195.4920  170.8750  144.0280 C   0  0  0  0  0  2  0  0  0  0  0  0
  190.3170  175.8510  142.9050 C   0  0  2  0  0  3  0  0  0  0  0  0
  189.1390  177.9160  145.1630 C   0  0  0  0  0  2  0  0  0  0  0  0
  192.4870  173.9640  145.5350 C   0  0  0  0  0  2  0  0  0  0  0  0
  194.1240  170.6360  144.6500 C   0  0  0  0  0  2  0  0  0  0  0  0
  190.8680  175.4570  144.2920 C   0  0  1  0  0  3  0  0  0  0  0  0
  188.2760  176.5210  141.7030 C   0  0  0  0  0  2  0  0  0  0  0  0
  193.3150  171.8480  144.5540 N   0  0  0  0  0  0  0  0  0  0  0  0
  196.3520  171.5530  144.9400 O   0  0  0  0  0  0  0  0  0  0  0  0
  188.3850  176.9880  144.2150 C   0  0  2  0  0  3  0  0  0  0  0  0
  191.7490  173.3130  143.1620 C   0  0  2  0  0  3  0  0  0  0  0  0
  194.9520  173.6720  144.9700 C   0  0  2  0  0  3  0  0  0  0  0  0
  192.0300  174.4630  144.1610 C   0  0  2  0  0  3  0  0  0  0  0  0
  190.5040  170.8420  142.1620 C   0  0  0  0  0  2  0  0  0  0  0  0
  190.2070  177.1790  145.9560 C   0  0  0  0  0  2  0  0  0  0  0  0
  191.7050  170.8320  143.0700 C   0  0  0  0  0  3  0  0  0  0  0  0
  191.3280  176.6900  145.0560 C   0  0  0  0  0  2  0  0  0  0  0  0
  189.1650  176.8800  142.8850 C   0  0  1  0  0  3  0  0  0  0  0  0
  190.2540  172.2100  141.5340 C   0  0  0  0  0  2  0  0  0  0  0  0
  189.9520  174.6490  142.0130 C   0  0  1  0  0  3  0  0  0  0  0  0
  186.9840  177.5600  144.0210 C   0  0  0  0  0  2  0  0  0  0  0  0
  185.9410  176.5870  144.5420 C   0  0  0  0  0  2  0  0  0  0  0  0
  185.8510  177.9510  147.9680 C   0  0  0  0  0  2  0  0  0  0  0  0
  185.1420  178.9620  145.6750 S   0  0  0  0  0  0  0  0  0  0  0  0
  185.2700  177.1500  145.7800 C   0  0  2  0  0  3  0  0  0  0  0  0
  185.9420  179.2040  147.2380 N   0  0  0  0  0  2  0  0  0  0  0  0
  186.0980  176.8290  146.9950 C   0  0  0  0  0  2  0  0  0  0  0  0
  1 26  1  6  0  0  0
  1 18  1  0  0  0  0
  2 14  1  0  0  0  0
  2 27  1  0  0  0  0
  3  7  2  0  0  0  0
  4 15  1  0  0  0  0
  5 11  1  6  0  0  0
  6 19  1  0  0  0  0
  8 12  1  0  0  0  0
  8 16  1  0  0  0  0
  9 13  1  0  0  0  0
 10 22  1  0  0  0  0
 13 24  1  0  0  0  0
 14 25  1  0  0  0  0
 15 12  1  0  0  0  0
 15  5  1  0  0  0  0
 16  3  1  0  0  0  0
 17 10  1  0  0  0  0
 18  4  1  0  0  0  0
 18 20  1  0  0  0  0
 19  3  1  0  0  0  0
 19  5  1  0  0  0  0
 20 13  1  0  0  0  0
 20 11  1  0  0  0  0
 21 23  1  0  0  0  0
 23  4  2  0  0  0  0
 24 22  1  0  0  0  0
 25  9  1  0  0  0  0
 25 17  1  0  0  0  0
 26 21  1  0  0  0  0
 27  1  1  0  0  0  0
 27  9  1  0  0  0  0
 28 17  1  0  0  0  0
 28 29  1  0  0  0  0
 29 32  1  0  0  0  0
 31 32  1  0  0  0  0
 31 33  1  0  0  0  0
 32 34  1  0  0  0  0
 33 30  1  0  0  0  0
 34 30  1  0  0  0  0
M  END
>  <MODEL>
8

>  <REMARK>
 VINA RESULT:      -8.2      4.184      8.681
  Name = 
  3 active torsions:
  status: ('A' for Active; 'I' for Inactive)
    1  A    between atoms: C_17  and  C_28
    2  A    between atoms: C_28  and  C_29
    3  A    between atoms: C_29  and  C_32
                            x       y       z     vdW  Elec       q    Type
                         _______ _______ _______ _____ _____    ______ ____

>  <TORSDO>
F 3

$$$$
=
 OpenBabel11112417503D

 34 40  0  0  1  0  0  0  0  0999 V2000
  189.7140  176.4950  144.9360 C   0  0  2  0  0  3  0  0  0  0  0  0
  192.2810  175.5530  144.5940 S   0  0  0  0  0  0  0  0  0  0  0  0
  183.9560  178.3880  142.6850 C   0  0  0  0  0  0  0  0  0  0  0  0
  187.3160  177.2700  145.2830 C   0  0  0  0  0  0  0  0  0  0  0  0
  185.5780  176.6960  143.5450 C   0  0  1  0  0  3  0  0  0  0  0  0
  186.2940  178.7300  142.4310 O   0  0  0  0  0  1  0  0  0  0  0  0
  183.0940  178.2950  141.7740 O   0  0  0  0  0  0  0  0  0  0  0  0
  184.5390  179.2900  144.9360 C   0  0  0  0  0  2  0  0  0  0  0  0
  190.4690  175.8270  142.5620 C   0  0  2  0  0  3  0  0  0  0  0  0
  190.4840  173.0360  140.8400 C   0  0  0  0  0  2  0  0  0  0  0  0
  186.6120  175.6640  143.0910 C   0  0  0  0  0  2  0  0  0  0  0  0
  184.9140  177.9750  145.6040 C   0  0  0  0  0  2  0  0  0  0  0  0
  189.0400  175.2440  142.5240 C   0  0  1  0  0  3  0  0  0  0  0  0
  192.8360  175.2430  142.9040 C   0  0  0  0  0  2  0  0  0  0  0  0
  185.9490  177.3000  144.8270 N   0  0  0  0  0  0  0  0  0  0  0  0
  183.6270  179.0710  143.8620 O   0  0  0  0  0  0  0  0  0  0  0  0
  191.2580  173.3950  142.1050 C   0  0  2  0  0  3  0  0  0  0  0  0
  188.4330  177.0280  144.2840 C   0  0  2  0  0  3  0  0  0  0  0  0
  185.2950  177.7530  142.4720 C   0  0  2  0  0  3  0  0  0  0  0  0
  188.0110  176.2810  142.9940 C   0  0  2  0  0  3  0  0  0  0  0  0
  188.9850  177.3730  147.1540 C   0  0  0  0  0  2  0  0  0  0  0  0
  188.9920  173.2890  140.9920 C   0  0  0  0  0  2  0  0  0  0  0  0
  187.6010  177.5020  146.5750 C   0  0  0  0  0  3  0  0  0  0  0  0
  188.6910  174.7720  141.1200 C   0  0  0  0  0  2  0  0  0  0  0  0
  191.6060  174.9010  142.0750 C   0  0  1  0  0  3  0  0  0  0  0  0
  190.0750  177.4270  146.0860 C   0  0  0  0  0  2  0  0  0  0  0  0
  190.8540  176.4490  143.9180 C   0  0  1  0  0  3  0  0  0  0  0  0
  192.5020  172.5130  142.1550 C   0  0  0  0  0  2  0  0  0  0  0  0
  192.2760  171.3370  143.0880 C   0  0  0  0  0  2  0  0  0  0  0  0
  190.8340  168.8960  140.7280 C   0  0  0  0  0  2  0  0  0  0  0  0
  193.0600  170.2480  140.6870 S   0  0  0  0  0  0  0  0  0  0  0  0
  192.2420  170.0410  142.3000 C   0  0  2  0  0  3  0  0  0  0  0  0
  191.6540  169.6440  139.7910 N   0  0  0  0  0  2  0  0  0  0  0  0
  190.8150  169.6490  142.0320 C   0  0  0  0  0  2  0  0  0  0  0  0
  1 26  1  1  0  0  0
  3 16  1  0  0  0  0
  4 23  2  0  0  0  0
  5 11  1  6  0  0  0
  5 15  1  0  0  0  0
  6 19  1  0  0  0  0
  7  3  2  0  0  0  0
  8 12  1  0  0  0  0
  9 27  1  0  0  0  0
 10 22  1  0  0  0  0
 10 17  1  0  0  0  0
 13  9  1  0  0  0  0
 13 20  1  0  0  0  0
 14  2  1  0  0  0  0
 15  4  1  0  0  0  0
 15 12  1  0  0  0  0
 16  8  1  0  0  0  0
 17 28  1  0  0  0  0
 18  1  1  0  0  0  0
 18  4  1  0  0  0  0
 19  3  1  0  0  0  0
 19  5  1  0  0  0  0
 20 11  1  0  0  0  0
 20 18  1  0  0  0  0
 22 24  1  0  0  0  0
 23 21  1  0  0  0  0
 24 13  1  0  0  0  0
 25 17  1  0  0  0  0
 25  9  1  0  0  0  0
 25 14  1  0  0  0  0
 26 21  1  0  0  0  0
 27  2  1  0  0  0  0
 27  1  1  0  0  0  0
 28 29  1  0  0  0  0
 30 34  1  0  0  0  0
 31 32  1  0  0  0  0
 32 29  1  0  0  0  0
 33 31  1  0  0  0  0
 33 30  1  0  0  0  0
 34 32  1  0  0  0  0
M  END
>  <MODEL>
9

>  <REMARK>
 VINA RESULT:      -8.1      2.951      4.661
  Name = 
  3 active torsions:
  status: ('A' for Active; 'I' for Inactive)
    1  A    between atoms: C_17  and  C_28
    2  A    between atoms: C_28  and  C_29
    3  A    between atoms: C_29  and  C_32
                            x       y       z     vdW  Elec       q    Type
                         _______ _______ _______ _____ _____    ______ ____

>  <TORSDO>
F 3

$$$$
