=
 OpenBabel11112417403D

 28 32  0  0  1  0  0  0  0  0999 V2000
  190.3100  175.7280  144.9300 C   0  0  0  0  0  0  0  0  0  0  0  0
  185.3840  176.3390  145.7740 F   0  0  0  0  0  0  0  0  0  0  0  0
  188.7580  175.1220  140.4020 O   0  0  0  0  0  0  0  0  0  0  0  0
  191.2150  178.1240  143.7960 C   0  0  0  0  0  3  0  0  0  0  0  0
  187.0670  176.5150  141.3640 C   0  0  0  0  0  0  0  0  0  0  0  0
  189.8470  174.4080  145.4660 C   0  0  0  0  0  2  0  0  0  0  0  0
  186.4110  177.8860  147.0420 F   0  0  0  0  0  0  0  0  0  0  0  0
  185.9280  177.6150  145.7770 C   0  0  0  0  0  0  0  0  0  0  0  0
  184.4450  178.4440  143.9860 C   0  0  1  0  0  3  0  0  0  0  0  0
  187.0850  177.7390  144.7610 C   0  0  2  0  0  3  0  0  0  0  0  0
  190.9240  174.0250  142.2900 C   0  0  0  0  0  1  0  0  0  0  0  0
  187.2210  175.6050  143.5630 C   0  0  1  0  0  3  0  0  0  0  0  0
  185.5170  178.8470  143.1660 O   0  0  0  0  0  0  0  0  0  0  0  0
  184.8250  178.6080  145.4500 C   0  0  0  0  0  2  0  0  0  0  0  0
  189.9550  173.2340  143.1540 C   0  0  2  0  0  3  0  0  0  0  0  0
  189.3760  176.6920  144.5020 C   0  0  0  0  0  0  0  0  0  0  0  0
  188.0840  175.5020  141.3970 C   0  0  0  0  0  0  0  0  0  0  0  0
  183.3280  179.2280  143.7060 O   0  0  0  0  0  1  0  0  0  0  0  0
  188.4750  173.5030  142.8640 C   0  0  0  0  0  2  0  0  0  0  0  0
  189.8460  177.8790  143.9140 C   0  0  0  0  0  3  0  0  0  0  0  0
  191.6830  175.9890  144.8290 C   0  0  0  0  0  3  0  0  0  0  0  0
  192.1340  177.1850  144.2640 C   0  0  0  0  0  3  0  0  0  0  0  0
  190.3450  173.2210  144.6360 C   0  0  0  0  0  2  0  0  0  0  0  0
  186.4020  176.5890  142.6900 C   0  0  1  0  0  3  0  0  0  0  0  0
  188.1800  174.9240  142.6880 N   0  0  0  0  0  0  0  0  0  0  0  0
  186.6060  177.9560  143.3220 C   0  0  2  0  0  3  0  0  0  0  0  0
  186.7550  177.1980  140.3530 O   0  0  0  0  0  0  0  0  0  0  0  0
  187.8880  176.4420  144.6790 C   0  0  1  0  0  3  0  0  0  0  0  0
  1  6  1  0  0  0  0
  2  8  1  0  0  0  0
  3 17  2  0  0  0  0
  4 20  2  0  0  0  0
  4 22  1  0  0  0  0
  5 17  1  0  0  0  0
  8  7  1  0  0  0  0
  9 18  1  6  0  0  0
  9 14  1  0  0  0  0
 10  8  1  1  0  0  0
 12 25  1  6  0  0  0
 12 28  1  0  0  0  0
 13  9  1  0  0  0  0
 14  8  1  0  0  0  0
 15 11  1  6  0  0  0
 15 23  1  0  0  0  0
 16  1  2  0  0  0  0
 17 25  1  0  0  0  0
 19 15  1  0  0  0  0
 20 16  1  0  0  0  0
 21  1  1  0  0  0  0
 22 21  2  0  0  0  0
 23  6  1  0  0  0  0
 24  5  1  6  0  0  0
 24 26  1  0  0  0  0
 24 12  1  0  0  0  0
 25 19  1  0  0  0  0
 26 13  1  1  0  0  0
 26 10  1  0  0  0  0
 27  5  2  0  0  0  0
 28 16  1  6  0  0  0
 28 10  1  0  0  0  0
M  END
>  <MODEL>
1

>  <REMARK>
 VINA RESULT:      -9.0      0.000      0.000
  Name = 
  0 active torsions:
  status: ('A' for Active; 'I' for Inactive)
                            x       y       z     vdW  Elec       q    Type
                         _______ _______ _______ _____ _____    ______ ____

>  <TORSDO>
F 0

$$$$
=
 OpenBabel11112417403D

 28 32  0  0  1  0  0  0  0  0999 V2000
  189.5180  176.9000  145.2770 C   0  0  0  0  0  0  0  0  0  0  0  0
  194.4620  176.3360  144.5060 F   0  0  0  0  0  0  0  0  0  0  0  0
  189.3400  172.9040  142.5790 O   0  0  0  0  0  0  0  0  0  0  0  0
  188.8130  175.0320  147.2430 C   0  0  0  0  0  3  0  0  0  0  0  0
  191.5030  172.7680  143.5910 C   0  0  0  0  0  0  0  0  0  0  0  0
  189.8450  177.8580  144.1740 C   0  0  0  0  0  2  0  0  0  0  0  0
  194.2530  176.9640  146.6550 F   0  0  0  0  0  0  0  0  0  0  0  0
  194.2280  175.8820  145.7950 C   0  0  0  0  0  0  0  0  0  0  0  0
  195.1810  173.6450  145.3740 C   0  0  1  0  0  3  0  0  0  0  0  0
  192.8540  175.1840  145.9100 C   0  0  2  0  0  3  0  0  0  0  0  0
  187.7320  175.4880  143.0270 C   0  0  0  0  0  1  0  0  0  0  0  0
  191.8920  175.1200  143.6570 C   0  0  1  0  0  3  0  0  0  0  0  0
  194.0090  172.9750  145.7740 O   0  0  0  0  0  0  0  0  0  0  0  0
  195.3440  174.9250  146.1790 C   0  0  0  0  0  2  0  0  0  0  0  0
  188.7440  176.3900  142.3380 C   0  0  2  0  0  3  0  0  0  0  0  0
  190.4400  175.9020  145.6530 C   0  0  0  0  0  0  0  0  0  0  0  0
  190.3650  173.4600  143.0540 C   0  0  0  0  0  0  0  0  0  0  0  0
  196.2820  172.8190  145.5880 O   0  0  0  0  0  1  0  0  0  0  0  0
  190.0690  175.7100  141.9810 C   0  0  0  0  0  2  0  0  0  0  0  0
  190.0620  174.9590  146.6240 C   0  0  0  0  0  3  0  0  0  0  0  0
  188.2740  176.9810  145.9180 C   0  0  0  0  0  3  0  0  0  0  0  0
  187.9230  176.0500  146.8980 C   0  0  0  0  0  3  0  0  0  0  0  0
  188.8670  177.7680  142.9990 C   0  0  0  0  0  2  0  0  0  0  0  0
  192.5670  173.7510  143.9240 C   0  0  1  0  0  3  0  0  0  0  0  0
  190.5790  174.8620  143.0570 N   0  0  0  0  0  0  0  0  0  0  0  0
  192.8700  173.7340  145.4130 C   0  0  2  0  0  3  0  0  0  0  0  0
  191.6030  171.5190  143.7110 O   0  0  0  0  0  0  0  0  0  0  0  0
  191.8170  175.8580  145.0130 C   0  0  1  0  0  3  0  0  0  0  0  0
  1 16  2  0  0  0  0
  1 21  1  0  0  0  0
  2  8  1  0  0  0  0
  3 17  2  0  0  0  0
  5 27  2  0  0  0  0
  6  1  1  0  0  0  0
  8 14  1  0  0  0  0
  8  7  1  0  0  0  0
  9 18  1  1  0  0  0
  9 13  1  0  0  0  0
  9 14  1  0  0  0  0
 10  8  1  6  0  0  0
 12 25  1  1  0  0  0
 12 24  1  0  0  0  0
 12 28  1  0  0  0  0
 15 23  1  0  0  0  0
 15 11  1  1  0  0  0
 16 20  1  0  0  0  0
 17 25  1  0  0  0  0
 17  5  1  0  0  0  0
 19 15  1  0  0  0  0
 19 25  1  0  0  0  0
 20  4  2  0  0  0  0
 21 22  2  0  0  0  0
 22  4  1  0  0  0  0
 23  6  1  0  0  0  0
 24  5  1  1  0  0  0
 24 26  1  0  0  0  0
 26 13  1  6  0  0  0
 26 10  1  0  0  0  0
 28 16  1  1  0  0  0
 28 10  1  0  0  0  0
M  END
>  <MODEL>
2

>  <REMARK>
 VINA RESULT:      -8.3      3.869      6.791
  Name = 
  0 active torsions:
  status: ('A' for Active; 'I' for Inactive)
                            x       y       z     vdW  Elec       q    Type
                         _______ _______ _______ _____ _____    ______ ____

>  <TORSDO>
F 0

$$$$
=
 OpenBabel11112417403D

 28 32  0  0  1  0  0  0  0  0999 V2000
  191.4860  174.0870  143.1570 C   0  0  0  0  0  0  0  0  0  0  0  0
  188.5660  177.7580  141.3270 F   0  0  0  0  0  0  0  0  0  0  0  0
  190.9540  176.6310  147.2220 O   0  0  0  0  0  0  0  0  0  0  0  0
  189.7880  172.3670  144.5730 C   0  0  0  0  0  3  0  0  0  0  0  0
  188.9700  177.1640  145.9950 C   0  0  0  0  0  0  0  0  0  0  0  0
  192.4330  175.0230  142.4710 C   0  0  0  0  0  2  0  0  0  0  0  0
  187.8160  175.8610  140.3810 F   0  0  0  0  0  0  0  0  0  0  0  0
  187.7310  176.6650  141.5020 C   0  0  0  0  0  0  0  0  0  0  0  0
  186.1650  177.8710  142.9790 C   0  0  1  0  0  3  0  0  0  0  0  0
  188.1340  175.8380  142.7420 C   0  0  2  0  0  3  0  0  0  0  0  0
  193.0980  174.9620  145.7800 C   0  0  0  0  0  1  0  0  0  0  0  0
  189.9730  177.0320  143.8360 C   0  0  1  0  0  3  0  0  0  0  0  0
  186.2960  176.9380  144.0250 O   0  0  0  0  0  0  0  0  0  0  0  0
  186.3030  177.1670  141.6380 C   0  0  0  0  0  2  0  0  0  0  0  0
  193.3570  175.9940  144.6940 C   0  0  2  0  0  3  0  0  0  0  0  0
  190.1610  174.4830  143.4260 C   0  0  0  0  0  0  0  0  0  0  0  0
  190.3540  176.8040  146.1270 C   0  0  0  0  0  0  0  0  0  0  0  0
  184.9140  178.4800  143.0560 O   0  0  0  0  0  1  0  0  0  0  0  0
  192.3710  177.1670  144.6790 C   0  0  0  0  0  2  0  0  0  0  0  0
  189.3280  173.6180  144.1580 C   0  0  0  0  0  3  0  0  0  0  0  0
  191.9340  172.8210  143.5570 C   0  0  0  0  0  3  0  0  0  0  0  0
  191.0870  171.9640  144.2630 C   0  0  0  0  0  3  0  0  0  0  0  0
  193.6550  175.3660  143.3280 C   0  0  0  0  0  2  0  0  0  0  0  0
  188.6600  177.4140  144.5640 C   0  0  1  0  0  3  0  0  0  0  0  0
  190.9840  176.7440  144.8590 N   0  0  0  0  0  0  0  0  0  0  0  0
  187.6170  176.4310  144.0580 C   0  0  2  0  0  3  0  0  0  0  0  0
  188.1600  177.2960  146.9500 O   0  0  0  0  0  0  0  0  0  0  0  0
  189.6500  175.8240  142.9280 C   0  0  1  0  0  3  0  0  0  0  0  0
  1 16  2  0  0  0  0
  1 21  1  0  0  0  0
  2  8  1  0  0  0  0
  5 17  1  0  0  0  0
  5 27  2  0  0  0  0
  6  1  1  0  0  0  0
  6 23  1  0  0  0  0
  7  8  1  0  0  0  0
  8 14  1  0  0  0  0
  9 18  1  6  0  0  0
  9 13  1  0  0  0  0
 10  8  1  6  0  0  0
 10 28  1  0  0  0  0
 10 26  1  0  0  0  0
 12 24  1  0  0  0  0
 12 25  1  1  0  0  0
 14  9  1  0  0  0  0
 15 11  1  1  0  0  0
 16 20  1  0  0  0  0
 17  3  2  0  0  0  0
 19 15  1  0  0  0  0
 19 25  1  0  0  0  0
 20  4  2  0  0  0  0
 21 22  2  0  0  0  0
 22  4  1  0  0  0  0
 23 15  1  0  0  0  0
 24  5  1  1  0  0  0
 25 17  1  0  0  0  0
 26 13  1  6  0  0  0
 26 24  1  0  0  0  0
 28 16  1  1  0  0  0
 28 12  1  0  0  0  0
M  END
>  <MODEL>
3

>  <REMARK>
 VINA RESULT:      -8.0      2.709      4.460
  Name = 
  0 active torsions:
  status: ('A' for Active; 'I' for Inactive)
                            x       y       z     vdW  Elec       q    Type
                         _______ _______ _______ _____ _____    ______ ____

>  <TORSDO>
F 0

$$$$
=
 OpenBabel11112417403D

 28 32  0  0  1  0  0  0  0  0999 V2000
  190.7380  175.2600  142.7320 C   0  0  0  0  0  0  0  0  0  0  0  0
  187.5360  179.0440  141.8530 F   0  0  0  0  0  0  0  0  0  0  0  0
  189.0900  175.8230  147.2320 O   0  0  0  0  0  0  0  0  0  0  0  0
  189.1760  172.9450  142.9560 C   0  0  0  0  0  3  0  0  0  0  0  0
  187.2710  176.6120  145.8940 C   0  0  0  0  0  0  0  0  0  0  0  0
  191.5970  176.4860  142.6910 C   0  0  0  0  0  2  0  0  0  0  0  0
  187.3110  177.6450  140.1080 F   0  0  0  0  0  0  0  0  0  0  0  0
  186.8980  177.8990  141.4010 C   0  0  0  0  0  0  0  0  0  0  0  0
  184.9160  178.2190  142.8370 C   0  0  1  0  0  3  0  0  0  0  0  0
  187.2360  176.6770  142.2840 C   0  0  2  0  0  3  0  0  0  0  0  0
  191.7110  175.1270  145.7790 C   0  0  0  0  0  1  0  0  0  0  0  0
  188.6210  177.4900  144.1350 C   0  0  1  0  0  3  0  0  0  0  0  0
  185.0430  176.9550  143.4430 O   0  0  0  0  0  0  0  0  0  0  0  0
  185.3990  178.1520  141.3970 C   0  0  0  0  0  2  0  0  0  0  0  0
  191.9510  176.5360  145.2620 C   0  0  2  0  0  3  0  0  0  0  0  0
  189.3370  175.3730  142.8280 C   0  0  0  0  0  0  0  0  0  0  0  0
  188.6570  176.3720  146.1840 C   0  0  0  0  0  0  0  0  0  0  0  0
  183.5800  178.6110  142.8610 O   0  0  0  0  0  1  0  0  0  0  0  0
  190.7830  177.5040  145.4790 C   0  0  0  0  0  2  0  0  0  0  0  0
  188.5690  174.2030  142.9630 C   0  0  0  0  0  3  0  0  0  0  0  0
  191.3390  173.9940  142.7030 C   0  0  0  0  0  3  0  0  0  0  0  0
  190.5590  172.8400  142.8150 C   0  0  0  0  0  3  0  0  0  0  0  0
  192.5790  176.5640  143.8640 C   0  0  0  0  0  2  0  0  0  0  0  0
  187.1590  177.4000  144.6400 C   0  0  1  0  0  3  0  0  0  0  0  0
  189.4860  176.9070  145.1660 N   0  0  0  0  0  0  0  0  0  0  0  0
  186.4110  176.6160  143.5740 C   0  0  2  0  0  3  0  0  0  0  0  0
  186.3050  176.2550  146.6180 O   0  0  0  0  0  0  0  0  0  0  0  0
  188.6780  176.7410  142.7840 C   0  0  1  0  0  3  0  0  0  0  0  0
  1 16  1  0  0  0  0
  4 20  1  0  0  0  0
  5 17  1  0  0  0  0
  5 27  2  0  0  0  0
  6  1  1  0  0  0  0
  6 23  1  0  0  0  0
  7  8  1  0  0  0  0
  8  2  1  0  0  0  0
  9 18  1  6  0  0  0
  9 13  1  0  0  0  0
 10  8  1  1  0  0  0
 10 28  1  0  0  0  0
 10 26  1  0  0  0  0
 12 24  1  0  0  0  0
 12 25  1  1  0  0  0
 14  8  1  0  0  0  0
 14  9  1  0  0  0  0
 15 19  1  0  0  0  0
 15 11  1  6  0  0  0
 16 20  2  0  0  0  0
 17  3  2  0  0  0  0
 21  1  2  0  0  0  0
 21 22  1  0  0  0  0
 22  4  2  0  0  0  0
 23 15  1  0  0  0  0
 24  5  1  1  0  0  0
 25 19  1  0  0  0  0
 25 17  1  0  0  0  0
 26 13  1  6  0  0  0
 26 24  1  0  0  0  0
 28 16  1  1  0  0  0
 28 12  1  0  0  0  0
M  END
>  <MODEL>
4

>  <REMARK>
 VINA RESULT:      -8.0      2.511      4.103
  Name = 
  0 active torsions:
  status: ('A' for Active; 'I' for Inactive)
                            x       y       z     vdW  Elec       q    Type
                         _______ _______ _______ _____ _____    ______ ____

>  <TORSDO>
F 0

$$$$
=
 OpenBabel11112417403D

 28 32  0  0  1  0  0  0  0  0999 V2000
  190.7320  174.1850  143.0300 C   0  0  0  0  0  0  0  0  0  0  0  0
  187.7560  178.1600  143.8590 F   0  0  0  0  0  0  0  0  0  0  0  0
  193.0940  176.0340  146.8100 O   0  0  0  0  0  0  0  0  0  0  0  0
  190.0670  172.2860  144.9790 C   0  0  0  0  0  3  0  0  0  0  0  0
  190.8530  176.7980  147.1550 C   0  0  0  0  0  0  0  0  0  0  0  0
  191.1650  175.2030  142.0210 C   0  0  0  0  0  2  0  0  0  0  0  0
  186.3700  176.4590  143.3680 F   0  0  0  0  0  0  0  0  0  0  0  0
  187.0810  177.0690  144.3840 C   0  0  0  0  0  0  0  0  0  0  0  0
  186.8960  178.0430  146.6440 C   0  0  1  0  0  3  0  0  0  0  0  0
  188.0570  176.0410  144.9980 C   0  0  2  0  0  3  0  0  0  0  0  0
  193.6990  174.5860  144.1650 C   0  0  0  0  0  1  0  0  0  0  0  0
  190.3050  177.0050  144.8430 C   0  0  1  0  0  3  0  0  0  0  0  0
  187.5280  176.9480  147.2630 O   0  0  0  0  0  0  0  0  0  0  0  0
  186.1040  177.5670  145.4360 C   0  0  0  0  0  2  0  0  0  0  0  0
  193.3590  175.7780  143.2840 C   0  0  2  0  0  3  0  0  0  0  0  0
  189.9050  174.5550  144.1090 C   0  0  0  0  0  0  0  0  0  0  0  0
  191.9760  176.3960  146.3550 C   0  0  0  0  0  0  0  0  0  0  0  0
  186.0340  178.6540  147.5530 O   0  0  0  0  0  1  0  0  0  0  0  0
  192.7140  176.9550  144.0230 C   0  0  0  0  0  2  0  0  0  0  0  0
  189.5990  173.5970  145.0910 C   0  0  0  0  0  3  0  0  0  0  0  0
  191.1810  172.8620  142.9130 C   0  0  0  0  0  3  0  0  0  0  0  0
  190.8480  171.9160  143.8850 C   0  0  0  0  0  3  0  0  0  0  0  0
  192.6850  175.3780  141.9660 C   0  0  0  0  0  2  0  0  0  0  0  0
  189.7650  177.2860  146.2680 C   0  0  1  0  0  3  0  0  0  0  0  0
  191.6870  176.5340  144.9740 N   0  0  0  0  0  0  0  0  0  0  0  0
  188.5240  176.4180  146.4080 C   0  0  2  0  0  3  0  0  0  0  0  0
  190.8160  176.7860  148.4130 O   0  0  0  0  0  0  0  0  0  0  0  0
  189.3570  175.9690  144.1980 C   0  0  1  0  0  3  0  0  0  0  0  0
  1 16  1  0  0  0  0
  2  8  1  0  0  0  0
  4 20  1  0  0  0  0
  5 27  2  0  0  0  0
  6  1  1  0  0  0  0
  7  8  1  0  0  0  0
  8 14  1  0  0  0  0
  9 13  1  0  0  0  0
  9 18  1  1  0  0  0
 10  8  1  6  0  0  0
 10 26  1  0  0  0  0
 12 25  1  1  0  0  0
 12 24  1  0  0  0  0
 14  9  1  0  0  0  0
 15 19  1  0  0  0  0
 15 11  1  1  0  0  0
 16 20  2  0  0  0  0
 17  3  2  0  0  0  0
 17  5  1  0  0  0  0
 19 25  1  0  0  0  0
 21  1  2  0  0  0  0
 21 22  1  0  0  0  0
 22  4  2  0  0  0  0
 23  6  1  0  0  0  0
 23 15  1  0  0  0  0
 24 26  1  0  0  0  0
 24  5  1  1  0  0  0
 25 17  1  0  0  0  0
 26 13  1  6  0  0  0
 28 16  1  1  0  0  0
 28 12  1  0  0  0  0
 28 10  1  0  0  0  0
M  END
>  <MODEL>
5

>  <REMARK>
 VINA RESULT:      -7.9      2.992      4.662
  Name = 
  0 active torsions:
  status: ('A' for Active; 'I' for Inactive)
                            x       y       z     vdW  Elec       q    Type
                         _______ _______ _______ _____ _____    ______ ____

>  <TORSDO>
F 0

$$$$
=
 OpenBabel11112417403D

 28 32  0  0  1  0  0  0  0  0999 V2000
  190.5010  175.4890  144.6650 C   0  0  0  0  0  0  0  0  0  0  0  0
  185.6640  176.7050  143.9760 F   0  0  0  0  0  0  0  0  0  0  0  0
  189.7940  173.1590  140.4990 O   0  0  0  0  0  0  0  0  0  0  0  0
  191.9770  177.1360  142.9460 C   0  0  0  0  0  3  0  0  0  0  0  0
  188.1880  174.9290  140.4000 C   0  0  0  0  0  0  0  0  0  0  0  0
  189.7400  174.5430  145.5420 C   0  0  0  0  0  2  0  0  0  0  0  0
  186.6520  178.5710  144.7510 F   0  0  0  0  0  0  0  0  0  0  0  0
  186.3900  177.8300  143.6140 C   0  0  0  0  0  0  0  0  0  0  0  0
  185.4380  177.9330  141.3390 C   0  0  1  0  0  3  0  0  0  0  0  0
  187.7300  177.4480  142.9460 C   0  0  2  0  0  3  0  0  0  0  0  0
  191.3470  172.8100  143.1320 C   0  0  0  0  0  1  0  0  0  0  0  0
  187.7610  175.0060  142.7450 C   0  0  1  0  0  3  0  0  0  0  0  0
  186.7000  177.8910  140.7160 O   0  0  0  0  0  0  0  0  0  0  0  0
  185.5430  178.6660  142.6680 C   0  0  0  0  0  2  0  0  0  0  0  0
  190.1140  172.5110  143.9700 C   0  0  2  0  0  3  0  0  0  0  0  0
  189.8320  176.2450  143.6820 C   0  0  0  0  0  0  0  0  0  0  0  0
  189.0070  173.9590  141.0710 C   0  0  0  0  0  0  0  0  0  0  0  0
  184.5360  178.6000  140.5130 O   0  0  0  0  0  1  0  0  0  0  0  0
  188.7810  172.7290  143.2470 C   0  0  0  0  0  2  0  0  0  0  0  0
  190.5900  177.0490  142.8120 C   0  0  0  0  0  3  0  0  0  0  0  0
  191.8910  175.5980  144.8080 C   0  0  0  0  0  3  0  0  0  0  0  0
  192.6260  176.4200  143.9510 C   0  0  0  0  0  3  0  0  0  0  0  0
  190.1980  173.0900  145.3880 C   0  0  0  0  0  2  0  0  0  0  0  0
  187.2950  175.5890  141.3870 C   0  0  1  0  0  3  0  0  0  0  0  0
  188.7550  173.9640  142.4660 N   0  0  0  0  0  0  0  0  0  0  0  0
  187.5830  177.0790  141.4660 C   0  0  2  0  0  3  0  0  0  0  0  0
  188.1920  175.1490  139.1600 O   0  0  0  0  0  0  0  0  0  0  0  0
  188.3180  176.1860  143.5730 C   0  0  1  0  0  3  0  0  0  0  0  0
  1 21  1  0  0  0  0
  1  6  1  0  0  0  0
  3 17  2  0  0  0  0
  4 22  1  0  0  0  0
  5 17  1  0  0  0  0
  8  2  1  0  0  0  0
  8  7  1  0  0  0  0
  9 18  1  6  0  0  0
  9 14  1  0  0  0  0
 10 28  1  0  0  0  0
 10  8  1  1  0  0  0
 12 25  1  6  0  0  0
 12 28  1  0  0  0  0
 13  9  1  0  0  0  0
 14  8  1  0  0  0  0
 15 11  1  6  0  0  0
 15 23  1  0  0  0  0
 16  1  2  0  0  0  0
 17 25  1  0  0  0  0
 19 15  1  0  0  0  0
 20  4  2  0  0  0  0
 20 16  1  0  0  0  0
 22 21  2  0  0  0  0
 23  6  1  0  0  0  0
 24  5  1  6  0  0  0
 24 26  1  0  0  0  0
 24 12  1  0  0  0  0
 25 19  1  0  0  0  0
 26 13  1  1  0  0  0
 26 10  1  0  0  0  0
 27  5  2  0  0  0  0
 28 16  1  6  0  0  0
M  END
>  <MODEL>
6

>  <REMARK>
 VINA RESULT:      -7.6      1.558      1.894
  Name = 
  0 active torsions:
  status: ('A' for Active; 'I' for Inactive)
                            x       y       z     vdW  Elec       q    Type
                         _______ _______ _______ _____ _____    ______ ____

>  <TORSDO>
F 0

$$$$
=
 OpenBabel11112417403D

 28 32  0  0  1  0  0  0  0  0999 V2000
  188.8930  175.5180  145.8950 C   0  0  0  0  0  0  0  0  0  0  0  0
  190.2600  171.5630  143.0950 F   0  0  0  0  0  0  0  0  0  0  0  0
  193.3470  176.9870  144.7630 O   0  0  0  0  0  0  0  0  0  0  0  0
  188.2700  177.5740  144.0980 C   0  0  0  0  0  3  0  0  0  0  0  0
  192.7740  175.5590  142.9310 C   0  0  0  0  0  0  0  0  0  0  0  0
  189.2870  174.4660  146.8860 C   0  0  0  0  0  2  0  0  0  0  0  0
  188.1230  171.9860  142.5400 F   0  0  0  0  0  0  0  0  0  0  0  0
  189.4360  172.3310  142.2850 C   0  0  0  0  0  0  0  0  0  0  0  0
  191.1240  172.5850  140.5020 C   0  0  1  0  0  3  0  0  0  0  0  0
  189.6200  173.8400  142.5590 C   0  0  2  0  0  3  0  0  0  0  0  0
  191.3880  177.0970  147.1310 C   0  0  0  0  0  1  0  0  0  0  0  0
  191.4270  174.0570  144.2010 C   0  0  1  0  0  3  0  0  0  0  0  0
  191.0740  173.9910  140.5350 O   0  0  0  0  0  0  0  0  0  0  0  0
  189.7540  172.0110  140.8340 C   0  0  0  0  0  2  0  0  0  0  0  0
  191.5310  175.6250  147.4860 C   0  0  2  0  0  3  0  0  0  0  0  0
  189.2240  175.3750  144.5330 C   0  0  0  0  0  0  0  0  0  0  0  0
  192.7290  175.9910  144.2990 C   0  0  0  0  0  0  0  0  0  0  0  0
  191.5060  172.1650  139.2300 O   0  0  0  0  0  1  0  0  0  0  0  0
  192.3190  174.7960  146.4670 C   0  0  0  0  0  2  0  0  0  0  0  0
  188.9250  176.4260  143.6480 C   0  0  0  0  0  3  0  0  0  0  0  0
  188.2160  176.6630  146.3360 C   0  0  0  0  0  3  0  0  0  0  0  0
  187.9050  177.6880  145.4390 C   0  0  0  0  0  3  0  0  0  0  0  0
  190.2210  174.9970  147.9770 C   0  0  0  0  0  2  0  0  0  0  0  0
  192.0350  174.2770  142.7930 C   0  0  1  0  0  3  0  0  0  0  0  0
  191.9550  175.1010  145.0850 N   0  0  0  0  0  0  0  0  0  0  0  0
  190.8460  174.4360  141.8600 C   0  0  2  0  0  3  0  0  0  0  0  0
  193.3870  176.1490  142.0030 O   0  0  0  0  0  0  0  0  0  0  0  0
  189.8900  174.1030  144.0390 C   0  0  1  0  0  3  0  0  0  0  0  0
  1 21  1  0  0  0  0
  1  6  1  0  0  0  0
  4 22  1  0  0  0  0
  5 17  1  0  0  0  0
  6 23  1  0  0  0  0
  8  7  1  0  0  0  0
  8  2  1  0  0  0  0
  9 18  1  6  0  0  0
  9 13  1  0  0  0  0
  9 14  1  0  0  0  0
 10  8  1  1  0  0  0
 10 28  1  0  0  0  0
 12 25  1  1  0  0  0
 14  8  1  0  0  0  0
 15 11  1  6  0  0  0
 15 23  1  0  0  0  0
 16  1  2  0  0  0  0
 17  3  2  0  0  0  0
 17 25  1  0  0  0  0
 19 15  1  0  0  0  0
 20  4  2  0  0  0  0
 20 16  1  0  0  0  0
 22 21  2  0  0  0  0
 24  5  1  1  0  0  0
 24 12  1  0  0  0  0
 25 19  1  0  0  0  0
 26 13  1  6  0  0  0
 26 10  1  0  0  0  0
 26 24  1  0  0  0  0
 27  5  2  0  0  0  0
 28 12  1  0  0  0  0
 28 16  1  6  0  0  0
M  END
>  <MODEL>
7

>  <REMARK>
 VINA RESULT:      -7.6      3.739      5.988
  Name = 
  0 active torsions:
  status: ('A' for Active; 'I' for Inactive)
                            x       y       z     vdW  Elec       q    Type
                         _______ _______ _______ _____ _____    ______ ____

>  <TORSDO>
F 0

$$$$
=
 OpenBabel11112417403D

 28 32  0  0  1  0  0  0  0  0999 V2000
  196.1890  174.7040  144.9470 C   0  0  0  0  0  0  0  0  0  0  0  0
  192.0780  175.0010  147.8370 F   0  0  0  0  0  0  0  0  0  0  0  0
  193.4280  171.5660  142.5360 O   0  0  0  0  0  0  0  0  0  0  0  0
  195.6470  176.2170  142.6520 C   0  0  0  0  0  3  0  0  0  0  0  0
  191.8220  173.0150  143.5590 C   0  0  0  0  0  0  0  0  0  0  0  0
  196.4860  173.8280  146.1240 C   0  0  0  0  0  2  0  0  0  0  0  0
  192.8400  177.1080  147.6530 F   0  0  0  0  0  0  0  0  0  0  0  0
  192.0640  176.1400  147.0460 C   0  0  0  0  0  0  0  0  0  0  0  0
  189.8330  175.6730  146.0990 C   0  0  1  0  0  3  0  0  0  0  0  0
  192.6300  175.8560  145.6360 C   0  0  2  0  0  3  0  0  0  0  0  0
  196.3770  171.9540  143.3190 C   0  0  0  0  0  1  0  0  0  0  0  0
  193.1020  173.4540  145.5230 C   0  0  1  0  0  3  0  0  0  0  0  0
  190.2930  175.7140  144.7690 O   0  0  0  0  0  0  0  0  0  0  0  0
  190.6340  176.6440  146.9530 C   0  0  0  0  0  2  0  0  0  0  0  0
  196.1650  171.6260  144.7880 C   0  0  2  0  0  3  0  0  0  0  0  0
  194.8760  175.1530  144.7030 C   0  0  0  0  0  0  0  0  0  0  0  0
  193.0790  172.3250  143.4800 C   0  0  0  0  0  0  0  0  0  0  0  0
  188.4860  176.0260  146.1330 O   0  0  0  0  0  1  0  0  0  0  0  0
  194.6980  171.4960  145.2090 C   0  0  0  0  0  2  0  0  0  0  0  0
  194.6160  175.8910  143.5360 C   0  0  0  0  0  3  0  0  0  0  0  0
  197.2230  175.0530  144.0670 C   0  0  0  0  0  3  0  0  0  0  0  0
  196.9520  175.8080  142.9240 C   0  0  0  0  0  3  0  0  0  0  0  0
  197.0480  172.4610  145.7230 C   0  0  0  0  0  2  0  0  0  0  0  0
  191.7160  173.6960  144.8750 C   0  0  1  0  0  3  0  0  0  0  0  0
  193.8510  172.5470  144.6470 N   0  0  0  0  0  0  0  0  0  0  0  0
  191.6110  175.2020  144.6960 C   0  0  2  0  0  3  0  0  0  0  0  0
  190.9290  173.0010  142.6720 O   0  0  0  0  0  0  0  0  0  0  0  0
  193.7680  174.8380  145.6930 C   0  0  1  0  0  3  0  0  0  0  0  0
  1  6  1  0  0  0  0
  3 17  2  0  0  0  0
  4 22  2  0  0  0  0
  4 20  1  0  0  0  0
  8  7  1  0  0  0  0
  8  2  1  0  0  0  0
  9 18  1  6  0  0  0
  9 14  1  0  0  0  0
 10 28  1  0  0  0  0
 10  8  1  1  0  0  0
 12 25  1  6  0  0  0
 12 28  1  0  0  0  0
 13  9  1  0  0  0  0
 14  8  1  0  0  0  0
 15 11  1  6  0  0  0
 15 19  1  0  0  0  0
 15 23  1  0  0  0  0
 16  1  1  0  0  0  0
 17  5  1  0  0  0  0
 17 25  1  0  0  0  0
 20 16  2  0  0  0  0
 21  1  2  0  0  0  0
 22 21  1  0  0  0  0
 23  6  1  0  0  0  0
 24  5  1  6  0  0  0
 24 12  1  0  0  0  0
 25 19  1  0  0  0  0
 26 13  1  1  0  0  0
 26 24  1  0  0  0  0
 26 10  1  0  0  0  0
 27  5  2  0  0  0  0
 28 16  1  6  0  0  0
M  END
>  <MODEL>
8

>  <REMARK>
 VINA RESULT:      -7.5      4.427      6.220
  Name = 
  0 active torsions:
  status: ('A' for Active; 'I' for Inactive)
                            x       y       z     vdW  Elec       q    Type
                         _______ _______ _______ _____ _____    ______ ____

>  <TORSDO>
F 0

$$$$
=
 OpenBabel11112417403D

 28 32  0  0  1  0  0  0  0  0999 V2000
  190.7420  176.1490  145.1630 C   0  0  0  0  0  0  0  0  0  0  0  0
  192.7360  173.2050  141.5980 F   0  0  0  0  0  0  0  0  0  0  0  0
  186.7610  175.4800  142.5200 O   0  0  0  0  0  0  0  0  0  0  0  0
  189.3160  174.4520  146.8760 C   0  0  0  0  0  3  0  0  0  0  0  0
  188.0450  173.5150  142.0580 C   0  0  0  0  0  0  0  0  0  0  0  0
  191.4320  177.0940  144.2280 C   0  0  0  0  0  2  0  0  0  0  0  0
  193.6450  172.5110  143.5340 F   0  0  0  0  0  0  0  0  0  0  0  0
  192.5490  172.3860  142.7010 C   0  0  0  0  0  0  0  0  0  0  0  0
  191.1400  170.7650  141.4860 C   0  0  1  0  0  3  0  0  0  0  0  0
  191.2770  172.7760  143.4870 C   0  0  2  0  0  3  0  0  0  0  0  0
  188.1090  177.6860  144.1870 C   0  0  0  0  0  1  0  0  0  0  0  0
  190.1770  174.5680  142.2290 C   0  0  1  0  0  3  0  0  0  0  0  0
  190.0660  170.8900  142.3880 O   0  0  0  0  0  0  0  0  0  0  0  0
  192.4580  170.9460  142.2230 C   0  0  0  0  0  2  0  0  0  0  0  0
  189.2170  177.9500  143.1800 C   0  0  2  0  0  3  0  0  0  0  0  0
  190.5130  174.8110  144.7850 C   0  0  0  0  0  0  0  0  0  0  0  0
  187.8730  174.9020  142.3880 C   0  0  0  0  0  0  0  0  0  0  0  0
  191.1070  169.5020  140.8990 O   0  0  0  0  0  1  0  0  0  0  0  0
  189.2860  176.9440  142.0270 C   0  0  0  0  0  2  0  0  0  0  0  0
  189.7760  173.9780  145.6450 C   0  0  0  0  0  3  0  0  0  0  0  0
  190.2970  176.6110  146.4090 C   0  0  0  0  0  3  0  0  0  0  0  0
  189.5870  175.7640  147.2630 C   0  0  0  0  0  3  0  0  0  0  0  0
  190.5590  178.2900  143.8400 C   0  0  0  0  0  2  0  0  0  0  0  0
  189.4890  173.2320  141.8530 C   0  0  1  0  0  3  0  0  0  0  0  0
  189.1250  175.5610  142.4700 N   0  0  0  0  0  0  0  0  0  0  0  0
  189.9900  172.2190  142.8690 C   0  0  2  0  0  3  0  0  0  0  0  0
  187.1120  172.6810  141.9150 O   0  0  0  0  0  0  0  0  0  0  0  0
  191.0590  174.2870  143.4670 C   0  0  1  0  0  3  0  0  0  0  0  0
  1 21  1  0  0  0  0
  2  8  1  0  0  0  0
  4 22  1  0  0  0  0
  5 17  1  0  0  0  0
  6  1  1  0  0  0  0
  8  7  1  0  0  0  0
  9 18  1  1  0  0  0
  9 14  1  0  0  0  0
  9 13  1  0  0  0  0
 10  8  1  6  0  0  0
 12 25  1  1  0  0  0
 12 28  1  0  0  0  0
 14  8  1  0  0  0  0
 15 23  1  0  0  0  0
 15 11  1  1  0  0  0
 16  1  2  0  0  0  0
 16 20  1  0  0  0  0
 17 25  1  0  0  0  0
 17  3  2  0  0  0  0
 19 25  1  0  0  0  0
 19 15  1  0  0  0  0
 20  4  2  0  0  0  0
 21 22  2  0  0  0  0
 23  6  1  0  0  0  0
 24  5  1  1  0  0  0
 24 12  1  0  0  0  0
 24 26  1  0  0  0  0
 26 13  1  6  0  0  0
 26 10  1  0  0  0  0
 27  5  2  0  0  0  0
 28 10  1  0  0  0  0
 28 16  1  1  0  0  0
M  END
>  <MODEL>
9

>  <REMARK>
 VINA RESULT:      -7.4      3.308      6.250
  Name = 
  0 active torsions:
  status: ('A' for Active; 'I' for Inactive)
                            x       y       z     vdW  Elec       q    Type
                         _______ _______ _______ _____ _____    ______ ____

>  <TORSDO>
F 0

$$$$
