=
 OpenBabel11112416533D

 31 35  0  0  1  0  0  0  0  0999 V2000
  184.5350  178.4390  146.4720 C   0  0  0  0  0  0  0  0  0  0  0  0
  186.7010  176.6460  143.8570 C   0  0  2  0  0  3  0  0  0  0  0  0
  186.1880  177.2230  142.5510 C   0  0  0  0  0  0  0  0  0  0  0  0
  190.4790  175.3880  147.4740 O   0  0  0  0  0  0  0  0  0  0  0  0
  190.9270  175.1830  146.3160 C   0  0  0  0  0  0  0  0  0  0  0  0
  184.3540  177.9550  141.1280 C   0  0  0  0  0  0  0  0  0  0  0  0
  186.2330  177.3040  145.1480 C   0  0  0  0  0  0  0  0  0  0  0  0
  185.3090  178.2760  147.6210 C   0  0  0  0  0  3  0  0  0  0  0  0
  184.8280  177.5160  142.3670 C   0  0  0  0  0  3  0  0  0  0  0  0
  188.8570  176.1350  145.1560 C   0  0  0  0  0  0  0  0  0  0  0  0
  183.3360  179.0650  146.5470 F   0  0  0  0  0  0  0  0  0  0  0  0
  188.3890  176.9300  141.5760 O   0  0  0  0  0  0  0  0  0  0  0  0
  182.6600  178.3450  140.9300 Cl  0  0  0  0  0  0  0  0  0  0  0  0
  188.2770  176.4700  146.2720 N   0  0  0  0  0  0  0  0  0  0  0  0
  188.2030  176.4430  143.8730 C   0  0  0  0  0  0  0  0  0  0  0  0
  190.1570  175.5300  145.1570 N   0  0  0  0  0  2  0  0  0  0  0  0
  184.9880  177.9420  145.2480 C   0  0  0  0  0  3  0  0  0  0  0  0
  185.2300  178.0710  140.0470 C   0  0  0  0  0  3  0  0  0  0  0  0
  187.0040  177.1300  146.3220 C   0  0  0  0  0  0  0  0  0  0  0  0
  186.5390  177.6210  147.5450 C   0  0  0  0  0  3  0  0  0  0  0  0
  188.9200  176.5510  142.7940 N   0  0  0  0  0  0  0  0  0  0  0  0
  187.0520  177.3010  141.4440 C   0  0  0  0  0  0  0  0  0  0  0  0
  186.5760  177.7380  140.2040 C   0  0  0  0  0  3  0  0  0  0  0  0
  193.6320  175.4230  143.6740 C   0  0  1  0  0  3  0  0  0  0  0  0
  193.3960  175.6300  146.1650 C   0  0  0  0  0  2  0  0  0  0  0  0
  191.3690  172.7200  144.9030 O   0  0  0  0  0  1  0  0  0  0  0  0
  193.6680  176.2010  142.3760 C   0  0  0  0  0  1  0  0  0  0  0  0
  193.4510  176.3920  144.8400 C   0  0  0  0  0  2  0  0  0  0  0  0
  192.4180  173.6400  144.9430 C   0  0  2  0  0  3  0  0  0  0  0  0
  192.2890  174.5700  146.1610 C   0  0  2  0  0  3  0  0  0  0  0  0
  192.4810  174.4230  143.6320 C   0  0  0  0  0  2  0  0  0  0  0  0
  1 11  1  0  0  0  0
  1  8  1  0  0  0  0
  2  3  1  6  0  0  0
  2 15  1  0  0  0  0
  2  7  1  0  0  0  0
  5  4  2  0  0  0  0
  6  9  2  0  0  0  0
  7 17  1  0  0  0  0
  7 19  2  0  0  0  0
  9  3  1  0  0  0  0
 10 16  1  0  0  0  0
 10 14  2  0  0  0  0
 12 21  1  0  0  0  0
 13  6  1  0  0  0  0
 14 19  1  0  0  0  0
 15 10  1  0  0  0  0
 16  5  1  0  0  0  0
 17  1  2  0  0  0  0
 18 23  2  0  0  0  0
 18  6  1  0  0  0  0
 19 20  1  0  0  0  0
 20  8  2  0  0  0  0
 21 15  2  0  0  0  0
 22 12  1  0  0  0  0
 22  3  2  0  0  0  0
 23 22  1  0  0  0  0
 24 27  1  6  0  0  0
 24 28  1  0  0  0  0
 28 25  1  0  0  0  0
 29 26  1  6  0  0  0
 29 30  1  0  0  0  0
 30 25  1  0  0  0  0
 30  5  1  6  0  0  0
 31 24  1  0  0  0  0
 31 29  1  0  0  0  0
M  END
>  <MODEL>
1

>  <REMARK>
 VINA RESULT:      -9.9      0.000      0.000
  Name = 
  1 active torsions:
  status: ('A' for Active; 'I' for Inactive)
    1  A    between atoms: C_5  and  C_30
                            x       y       z     vdW  Elec       q    Type
                         _______ _______ _______ _____ _____    ______ ____

>  <TORSDO>
F 1

$$$$
=
 OpenBabel11112416533D

 31 35  0  0  1  0  0  0  0  0999 V2000
  184.5850  178.4000  146.6090 C   0  0  0  0  0  0  0  0  0  0  0  0
  186.4350  176.6840  143.7140 C   0  0  2  0  0  3  0  0  0  0  0  0
  185.7940  177.3160  142.4910 C   0  0  0  0  0  0  0  0  0  0  0  0
  190.5570  175.2480  146.8570 O   0  0  0  0  0  0  0  0  0  0  0  0
  190.8760  175.0830  145.6510 C   0  0  0  0  0  0  0  0  0  0  0  0
  183.8290  178.1210  141.3010 C   0  0  0  0  0  0  0  0  0  0  0  0
  186.1160  177.2970  145.0700 C   0  0  0  0  0  0  0  0  0  0  0  0
  185.4750  178.1840  147.6620 C   0  0  0  0  0  3  0  0  0  0  0  0
  184.4270  177.6300  142.4660 C   0  0  0  0  0  3  0  0  0  0  0  0
  188.7090  176.1000  144.7550 C   0  0  0  0  0  0  0  0  0  0  0  0
  183.4110  179.0350  146.8350 F   0  0  0  0  0  0  0  0  0  0  0  0
  187.8740  177.0370  141.2770 O   0  0  0  0  0  0  0  0  0  0  0  0
  182.1300  178.5370  141.3000 Cl  0  0  0  0  0  0  0  0  0  0  0  0
  188.2560  176.3990  145.9380 N   0  0  0  0  0  0  0  0  0  0  0  0
  187.9260  176.4640  143.5620 C   0  0  0  0  0  0  0  0  0  0  0  0
  189.9920  175.4820  144.5950 N   0  0  0  0  0  2  0  0  0  0  0  0
  184.8980  177.9450  145.3260 C   0  0  0  0  0  3  0  0  0  0  0  0
  184.5870  178.2690  140.1380 C   0  0  0  0  0  3  0  0  0  0  0  0
  187.0050  177.0710  146.1480 C   0  0  0  0  0  0  0  0  0  0  0  0
  186.6810  177.5190  147.4310 C   0  0  0  0  0  3  0  0  0  0  0  0
  188.5260  176.6060  142.4170 N   0  0  0  0  0  0  0  0  0  0  0  0
  186.5360  177.4270  141.3030 C   0  0  0  0  0  0  0  0  0  0  0  0
  185.9370  177.9160  140.1370 C   0  0  0  0  0  3  0  0  0  0  0  0
  194.4100  176.4230  145.3970 C   0  0  1  0  0  3  0  0  0  0  0  0
  193.1750  174.5430  146.5120 C   0  0  0  0  0  2  0  0  0  0  0  0
  191.9440  174.9970  142.9850 O   0  0  0  0  0  1  0  0  0  0  0  0
  194.9420  177.8280  145.5900 C   0  0  0  0  0  1  0  0  0  0  0  0
  193.7360  175.9560  146.6840 C   0  0  0  0  0  2  0  0  0  0  0  0
  192.8510  175.0080  144.0450 C   0  0  2  0  0  3  0  0  0  0  0  0
  192.2040  174.4620  145.3290 C   0  0  2  0  0  3  0  0  0  0  0  0
  193.4130  176.4140  144.2430 C   0  0  0  0  0  2  0  0  0  0  0  0
  1 11  1  0  0  0  0
  1  8  1  0  0  0  0
  2  3  1  6  0  0  0
  2  7  1  0  0  0  0
  5  4  2  0  0  0  0
  6  9  2  0  0  0  0
  7 17  1  0  0  0  0
  7 19  2  0  0  0  0
  9  3  1  0  0  0  0
 10 14  2  0  0  0  0
 12 22  1  0  0  0  0
 12 21  1  0  0  0  0
 13  6  1  0  0  0  0
 14 19  1  0  0  0  0
 15  2  1  0  0  0  0
 15 10  1  0  0  0  0
 16 10  1  0  0  0  0
 16  5  1  0  0  0  0
 17  1  2  0  0  0  0
 18  6  1  0  0  0  0
 19 20  1  0  0  0  0
 20  8  2  0  0  0  0
 21 15  2  0  0  0  0
 22  3  2  0  0  0  0
 23 18  2  0  0  0  0
 23 22  1  0  0  0  0
 24 27  1  1  0  0  0
 24 28  1  0  0  0  0
 25 28  1  0  0  0  0
 29 26  1  6  0  0  0
 29 31  1  0  0  0  0
 29 30  1  0  0  0  0
 30  5  1  1  0  0  0
 30 25  1  0  0  0  0
 31 24  1  0  0  0  0
M  END
>  <MODEL>
2

>  <REMARK>
 VINA RESULT:      -9.7      0.869      1.234
  Name = 
  1 active torsions:
  status: ('A' for Active; 'I' for Inactive)
    1  A    between atoms: C_5  and  C_30
                            x       y       z     vdW  Elec       q    Type
                         _______ _______ _______ _____ _____    ______ ____

>  <TORSDO>
F 1

$$$$
=
 OpenBabel11112416533D

 31 35  0  0  1  0  0  0  0  0999 V2000
  185.2030  178.2740  146.8660 C   0  0  0  0  0  0  0  0  0  0  0  0
  186.9640  177.1400  143.6480 C   0  0  2  0  0  3  0  0  0  0  0  0
  186.0150  177.6200  142.5650 C   0  0  0  0  0  0  0  0  0  0  0  0
  191.7300  176.7060  146.1030 O   0  0  0  0  0  0  0  0  0  0  0  0
  191.8980  176.6530  144.8570 C   0  0  0  0  0  0  0  0  0  0  0  0
  183.7590  177.9370  141.7070 C   0  0  0  0  0  0  0  0  0  0  0  0
  186.7100  177.6240  145.0690 C   0  0  0  0  0  0  0  0  0  0  0  0
  186.2640  178.2630  147.7730 C   0  0  0  0  0  3  0  0  0  0  0  0
  184.6240  177.5840  142.7470 C   0  0  0  0  0  3  0  0  0  0  0  0
  189.4400  177.1180  144.3290 C   0  0  0  0  0  0  0  0  0  0  0  0
  183.9560  178.5910  147.2890 F   0  0  0  0  0  0  0  0  0  0  0  0
  187.8960  177.8960  141.0610 O   0  0  0  0  0  0  0  0  0  0  0  0
  182.0290  177.9160  141.9640 Cl  0  0  0  0  0  0  0  0  0  0  0  0
  189.1080  177.2680  145.5790 N   0  0  0  0  0  0  0  0  0  0  0  0
  188.4250  177.3030  143.2790 C   0  0  0  0  0  0  0  0  0  0  0  0
  190.7960  176.8430  143.9580 N   0  0  0  0  0  2  0  0  0  0  0  0
  185.4230  177.9410  145.5290 C   0  0  0  0  0  3  0  0  0  0  0  0
  184.2780  178.2960  140.4600 C   0  0  0  0  0  3  0  0  0  0  0  0
  187.7770  177.6010  145.9990 C   0  0  0  0  0  0  0  0  0  0  0  0
  187.5470  177.9250  147.3390 C   0  0  0  0  0  3  0  0  0  0  0  0
  188.7950  177.6160  142.0730 N   0  0  0  0  0  0  0  0  0  0  0  0
  186.5230  177.9400  141.2940 C   0  0  0  0  0  0  0  0  0  0  0  0
  185.6570  178.2910  140.2530 C   0  0  0  0  0  3  0  0  0  0  0  0
  194.1710  173.6230  144.8240 C   0  0  1  0  0  3  0  0  0  0  0  0
  193.2640  175.3250  143.2170 C   0  0  0  0  0  2  0  0  0  0  0  0
  194.2710  176.9860  146.4410 O   0  0  0  0  0  1  0  0  0  0  0  0
  193.9610  172.2330  145.3880 C   0  0  0  0  0  1  0  0  0  0  0  0
  193.0850  173.9200  143.7930 C   0  0  0  0  0  2  0  0  0  0  0  0
  194.3120  176.0530  145.4040 C   0  0  2  0  0  3  0  0  0  0  0  0
  193.2750  176.3900  144.3190 C   0  0  2  0  0  3  0  0  0  0  0  0
  194.1190  174.6420  145.9570 C   0  0  0  0  0  2  0  0  0  0  0  0
  1 11  1  0  0  0  0
  1  8  1  0  0  0  0
  2  3  1  6  0  0  0
  2  7  1  0  0  0  0
  3  9  1  0  0  0  0
  5  4  2  0  0  0  0
  6 13  1  0  0  0  0
  6  9  2  0  0  0  0
  7 17  1  0  0  0  0
  7 19  2  0  0  0  0
 10 14  2  0  0  0  0
 12 22  1  0  0  0  0
 12 21  1  0  0  0  0
 14 19  1  0  0  0  0
 15  2  1  0  0  0  0
 15 10  1  0  0  0  0
 16 10  1  0  0  0  0
 16  5  1  0  0  0  0
 17  1  2  0  0  0  0
 18  6  1  0  0  0  0
 19 20  1  0  0  0  0
 20  8  2  0  0  0  0
 21 15  2  0  0  0  0
 22  3  2  0  0  0  0
 23 18  2  0  0  0  0
 23 22  1  0  0  0  0
 24 27  1  1  0  0  0
 24 31  1  0  0  0  0
 25 28  1  0  0  0  0
 25 30  1  0  0  0  0
 28 24  1  0  0  0  0
 29 31  1  0  0  0  0
 29 26  1  1  0  0  0
 30  5  1  1  0  0  0
 30 29  1  0  0  0  0
M  END
>  <MODEL>
3

>  <REMARK>
 VINA RESULT:      -9.4      1.376      2.078
  Name = 
  1 active torsions:
  status: ('A' for Active; 'I' for Inactive)
    1  A    between atoms: C_5  and  C_30
                            x       y       z     vdW  Elec       q    Type
                         _______ _______ _______ _____ _____    ______ ____

>  <TORSDO>
F 1

$$$$
=
 OpenBabel11112416533D

 31 35  0  0  1  0  0  0  0  0999 V2000
  185.2010  178.0970  146.8490 C   0  0  0  0  0  0  0  0  0  0  0  0
  186.4970  176.7360  143.5010 C   0  0  2  0  0  3  0  0  0  0  0  0
  185.6230  177.4580  142.4900 C   0  0  0  0  0  0  0  0  0  0  0  0
  191.1680  175.1630  145.6540 O   0  0  0  0  0  0  0  0  0  0  0  0
  191.2550  175.1260  144.3980 C   0  0  0  0  0  0  0  0  0  0  0  0
  183.4530  178.2980  141.7770 C   0  0  0  0  0  0  0  0  0  0  0  0
  186.4310  177.2050  144.9480 C   0  0  0  0  0  0  0  0  0  0  0  0
  186.2790  177.8160  147.6900 C   0  0  0  0  0  3  0  0  0  0  0  0
  184.2700  177.7210  142.7530 C   0  0  0  0  0  3  0  0  0  0  0  0
  188.9380  176.1420  144.0320 C   0  0  0  0  0  0  0  0  0  0  0  0
  184.0790  178.6630  147.3540 F   0  0  0  0  0  0  0  0  0  0  0  0
  187.4380  177.3740  140.8850 O   0  0  0  0  0  0  0  0  0  0  0  0
  181.7770  178.6480  142.1370 Cl  0  0  0  0  0  0  0  0  0  0  0  0
  188.7130  176.3090  145.3030 N   0  0  0  0  0  0  0  0  0  0  0  0
  187.9360  176.5890  143.0500 C   0  0  0  0  0  0  0  0  0  0  0  0
  190.1780  175.5910  143.5720 N   0  0  0  0  0  2  0  0  0  0  0  0
  185.2720  177.7790  145.4920 C   0  0  0  0  0  3  0  0  0  0  0  0
  183.9720  178.5850  140.5130 C   0  0  0  0  0  3  0  0  0  0  0  0
  187.5130  176.9100  145.8110 C   0  0  0  0  0  0  0  0  0  0  0  0
  187.4300  177.2210  147.1710 C   0  0  0  0  0  3  0  0  0  0  0  0
  188.3040  176.8620  141.8330 N   0  0  0  0  0  0  0  0  0  0  0  0
  186.1230  177.7100  141.2010 C   0  0  0  0  0  0  0  0  0  0  0  0
  185.3040  178.2850  140.2240 C   0  0  0  0  0  3  0  0  0  0  0  0
  191.9670  173.0240  141.3280 C   0  0  1  0  0  3  0  0  0  0  0  0
  192.7440  175.1700  142.3730 C   0  0  0  0  0  2  0  0  0  0  0  0
  192.3030  172.5220  145.0110 O   0  0  0  0  0  1  0  0  0  0  0  0
  191.0210  172.4280  140.3060 C   0  0  0  0  0  1  0  0  0  0  0  0
  191.8100  174.5420  141.3380 C   0  0  0  0  0  2  0  0  0  0  0  0
  192.5860  173.0530  143.7520 C   0  0  2  0  0  3  0  0  0  0  0  0
  192.5090  174.5890  143.7720 C   0  0  2  0  0  3  0  0  0  0  0  0
  191.6520  172.4490  142.7050 C   0  0  0  0  0  2  0  0  0  0  0  0
  1 11  1  0  0  0  0
  1  8  1  0  0  0  0
  2  3  1  6  0  0  0
  2  7  1  0  0  0  0
  3  9  1  0  0  0  0
  5  4  2  0  0  0  0
  6 13  1  0  0  0  0
  6  9  2  0  0  0  0
  7 17  1  0  0  0  0
  7 19  2  0  0  0  0
 10 14  2  0  0  0  0
 12 22  1  0  0  0  0
 12 21  1  0  0  0  0
 14 19  1  0  0  0  0
 15  2  1  0  0  0  0
 15 10  1  0  0  0  0
 16 10  1  0  0  0  0
 16  5  1  0  0  0  0
 17  1  2  0  0  0  0
 18  6  1  0  0  0  0
 19 20  1  0  0  0  0
 20  8  2  0  0  0  0
 21 15  2  0  0  0  0
 22  3  2  0  0  0  0
 23 18  2  0  0  0  0
 23 22  1  0  0  0  0
 24 27  1  6  0  0  0
 24 28  1  0  0  0  0
 24 31  1  0  0  0  0
 25 30  1  0  0  0  0
 28 25  1  0  0  0  0
 29 30  1  0  0  0  0
 29 26  1  1  0  0  0
 30  5  1  6  0  0  0
 31 29  1  0  0  0  0
M  END
>  <MODEL>
4

>  <REMARK>
 VINA RESULT:      -8.8      1.456      1.952
  Name = 
  1 active torsions:
  status: ('A' for Active; 'I' for Inactive)
    1  A    between atoms: C_5  and  C_30
                            x       y       z     vdW  Elec       q    Type
                         _______ _______ _______ _____ _____    ______ ____

>  <TORSDO>
F 1

$$$$
=
 OpenBabel11112416533D

 31 35  0  0  1  0  0  0  0  0999 V2000
  188.0990  177.3270  141.6220 C   0  0  0  0  0  0  0  0  0  0  0  0
  185.3120  177.6560  144.2440 C   0  0  2  0  0  3  0  0  0  0  0  0
  186.0890  177.9320  145.5190 C   0  0  0  0  0  0  0  0  0  0  0  0
  181.5660  178.6490  140.5130 O   0  0  0  0  0  0  0  0  0  0  0  0
  181.1020  178.9200  141.6520 C   0  0  0  0  0  0  0  0  0  0  0  0
  187.9820  177.5010  146.9870 C   0  0  0  0  0  0  0  0  0  0  0  0
  186.0800  177.7020  142.9300 C   0  0  0  0  0  0  0  0  0  0  0  0
  187.3870  177.5520  140.4430 C   0  0  0  0  0  3  0  0  0  0  0  0
  187.3240  177.3150  145.7670 C   0  0  0  0  0  3  0  0  0  0  0  0
  183.3140  178.4750  142.8540 C   0  0  0  0  0  0  0  0  0  0  0  0
  189.4200  177.0340  141.5700 F   0  0  0  0  0  0  0  0  0  0  0  0
  184.2180  179.2260  146.3590 O   0  0  0  0  0  0  0  0  0  0  0  0
  189.5360  176.7480  147.2640 Cl  0  0  0  0  0  0  0  0  0  0  0  0
  183.9630  178.2250  141.7540 N   0  0  0  0  0  0  0  0  0  0  0  0
  184.0270  178.4530  144.1420 C   0  0  0  0  0  0  0  0  0  0  0  0
  181.9280  178.8390  142.8220 N   0  0  0  0  0  2  0  0  0  0  0  0
  187.4450  177.3860  142.8550 C   0  0  0  0  0  3  0  0  0  0  0  0
  187.3920  178.2790  147.9850 C   0  0  0  0  0  3  0  0  0  0  0  0
  185.3640  177.9150  141.7280 C   0  0  0  0  0  0  0  0  0  0  0  0
  186.0230  177.8430  140.4970 C   0  0  0  0  0  3  0  0  0  0  0  0
  183.5550  179.1240  145.1510 N   0  0  0  0  0  0  0  0  0  0  0  0
  185.4850  178.6760  146.5470 C   0  0  0  0  0  0  0  0  0  0  0  0
  186.1430  178.8600  147.7680 C   0  0  0  0  0  3  0  0  0  0  0  0
  177.9160  177.8950  139.8780 C   0  0  1  0  0  3  0  0  0  0  0  0
  178.7690  178.1770  142.2220 C   0  0  0  0  0  2  0  0  0  0  0  0
  179.9570  181.0160  140.0550 O   0  0  0  0  0  1  0  0  0  0  0  0
  177.6920  176.8930  138.7650 C   0  0  0  0  0  1  0  0  0  0  0  0
  178.5180  177.1840  141.0860 C   0  0  0  0  0  2  0  0  0  0  0  0
  179.1050  180.0060  140.5040 C   0  0  2  0  0  3  0  0  0  0  0  0
  179.6640  179.3360  141.7710 C   0  0  2  0  0  3  0  0  0  0  0  0
  178.8530  178.9940  139.3880 C   0  0  0  0  0  2  0  0  0  0  0  0
  1 17  1  0  0  0  0
  2  7  1  6  0  0  0
  2  3  1  0  0  0  0
  3  9  2  0  0  0  0
  3 22  1  0  0  0  0
  4  5  2  0  0  0  0
  5 16  1  0  0  0  0
  6 13  1  0  0  0  0
  6 18  2  0  0  0  0
  8 20  1  0  0  0  0
  8  1  2  0  0  0  0
  9  6  1  0  0  0  0
 10 15  1  0  0  0  0
 11  1  1  0  0  0  0
 12 22  1  0  0  0  0
 14 10  2  0  0  0  0
 15  2  1  0  0  0  0
 15 21  2  0  0  0  0
 16 10  1  0  0  0  0
 17  7  2  0  0  0  0
 19 14  1  0  0  0  0
 19  7  1  0  0  0  0
 20 19  2  0  0  0  0
 21 12  1  0  0  0  0
 22 23  2  0  0  0  0
 23 18  1  0  0  0  0
 24 27  1  6  0  0  0
 24 28  1  0  0  0  0
 28 25  1  0  0  0  0
 29 26  1  6  0  0  0
 29 30  1  0  0  0  0
 30  5  1  6  0  0  0
 30 25  1  0  0  0  0
 31 24  1  0  0  0  0
 31 29  1  0  0  0  0
M  END
>  <MODEL>
5

>  <REMARK>
 VINA RESULT:      -8.7      4.887      9.868
  Name = 
  1 active torsions:
  status: ('A' for Active; 'I' for Inactive)
    1  A    between atoms: C_5  and  C_30
                            x       y       z     vdW  Elec       q    Type
                         _______ _______ _______ _____ _____    ______ ____

>  <TORSDO>
F 1

$$$$
=
 OpenBabel11112416533D

 31 35  0  0  1  0  0  0  0  0999 V2000
  194.7630  175.8020  145.0730 C   0  0  0  0  0  0  0  0  0  0  0  0
  191.4000  175.7790  143.2200 C   0  0  2  0  0  3  0  0  0  0  0  0
  191.6870  174.8890  142.0240 C   0  0  0  0  0  0  0  0  0  0  0  0
  188.6850  177.3260  147.5980 O   0  0  0  0  0  0  0  0  0  0  0  0
  187.8720  176.9310  146.7220 C   0  0  0  0  0  0  0  0  0  0  0  0
  193.1520  174.1640  140.2210 C   0  0  0  0  0  0  0  0  0  0  0  0
  192.4470  175.8330  144.3240 C   0  0  0  0  0  0  0  0  0  0  0  0
  194.3640  176.1970  146.3510 C   0  0  0  0  0  3  0  0  0  0  0  0
  192.9330  174.9160  141.3790 C   0  0  0  0  0  3  0  0  0  0  0  0
  189.7050  176.1770  145.1080 C   0  0  0  0  0  0  0  0  0  0  0  0
  196.0750  175.5950  144.8080 F   0  0  0  0  0  0  0  0  0  0  0  0
  189.3670  174.1850  142.0120 O   0  0  0  0  0  0  0  0  0  0  0  0
  194.7220  174.1860  139.4500 Cl  0  0  0  0  0  0  0  0  0  0  0  0
  190.6720  176.4750  145.9270 N   0  0  0  0  0  0  0  0  0  0  0  0
  190.0170  175.5700  143.8030 C   0  0  0  0  0  0  0  0  0  0  0  0
  188.3370  176.3690  145.4870 N   0  0  0  0  0  2  0  0  0  0  0  0
  193.8120  175.6370  144.0640 C   0  0  0  0  0  3  0  0  0  0  0  0
  192.1150  173.4050  139.6760 C   0  0  0  0  0  3  0  0  0  0  0  0
  192.0540  176.2470  145.6180 C   0  0  0  0  0  0  0  0  0  0  0  0
  193.0130  176.4210  146.6210 C   0  0  0  0  0  3  0  0  0  0  0  0
  189.1160  174.8600  143.1910 N   0  0  0  0  0  0  0  0  0  0  0  0
  190.6390  174.1560  141.4420 C   0  0  0  0  0  0  0  0  0  0  0  0
  190.8580  173.4070  140.2820 C   0  0  0  0  0  3  0  0  0  0  0  0
  185.0520  178.8520  145.0750 C   0  0  1  0  0  3  0  0  0  0  0  0
  185.5600  176.5110  145.8260 C   0  0  0  0  0  2  0  0  0  0  0  0
  186.7620  178.9900  148.3910 O   0  0  0  0  0  1  0  0  0  0  0  0
  185.0670  179.7910  143.8880 C   0  0  0  0  0  1  0  0  0  0  0  0
  185.5510  177.4770  144.6410 C   0  0  0  0  0  2  0  0  0  0  0  0
  185.9530  178.4720  147.3790 C   0  0  2  0  0  3  0  0  0  0  0  0
  186.3990  177.0520  146.9890 C   0  0  2  0  0  3  0  0  0  0  0  0
  185.9420  179.4160  146.1780 C   0  0  0  0  0  2  0  0  0  0  0  0
  1  8  1  0  0  0  0
  2  3  1  6  0  0  0
  2 15  1  0  0  0  0
  2  7  1  0  0  0  0
  5  4  2  0  0  0  0
  6  9  1  0  0  0  0
  7 19  2  0  0  0  0
  8 20  2  0  0  0  0
  9  3  2  0  0  0  0
 10 16  1  0  0  0  0
 10 14  2  0  0  0  0
 11  1  1  0  0  0  0
 12 21  1  0  0  0  0
 13  6  1  0  0  0  0
 15 10  1  0  0  0  0
 16  5  1  0  0  0  0
 17  7  1  0  0  0  0
 17  1  2  0  0  0  0
 18  6  2  0  0  0  0
 18 23  1  0  0  0  0
 19 14  1  0  0  0  0
 19 20  1  0  0  0  0
 21 15  2  0  0  0  0
 22 12  1  0  0  0  0
 22  3  1  0  0  0  0
 23 22  2  0  0  0  0
 24 27  1  6  0  0  0
 24 31  1  0  0  0  0
 25 30  1  0  0  0  0
 28 24  1  0  0  0  0
 28 25  1  0  0  0  0
 29 26  1  1  0  0  0
 30  5  1  6  0  0  0
 30 29  1  0  0  0  0
 31 29  1  0  0  0  0
M  END
>  <MODEL>
6

>  <REMARK>
 VINA RESULT:      -8.6      3.947      7.412
  Name = 
  1 active torsions:
  status: ('A' for Active; 'I' for Inactive)
    1  A    between atoms: C_5  and  C_30
                            x       y       z     vdW  Elec       q    Type
                         _______ _______ _______ _____ _____    ______ ____

>  <TORSDO>
F 1

$$$$
=
 OpenBabel11112416533D

 31 35  0  0  1  0  0  0  0  0999 V2000
  190.4240  175.8700  146.7550 C   0  0  0  0  0  0  0  0  0  0  0  0
  187.6120  175.9490  144.1420 C   0  0  2  0  0  3  0  0  0  0  0  0
  186.9310  177.2750  144.4290 C   0  0  0  0  0  0  0  0  0  0  0  0
  190.0470  172.2970  141.0330 O   0  0  0  0  0  0  0  0  0  0  0  0
  189.1090  172.8340  140.3880 C   0  0  0  0  0  0  0  0  0  0  0  0
  186.0770  178.9280  145.9980 C   0  0  0  0  0  0  0  0  0  0  0  0
  188.9390  175.6750  144.8370 C   0  0  0  0  0  0  0  0  0  0  0  0
  191.2910  174.9330  146.1900 C   0  0  0  0  0  3  0  0  0  0  0  0
  186.7910  177.7540  145.7400 C   0  0  0  0  0  3  0  0  0  0  0  0
  188.5610  174.5110  142.2380 C   0  0  0  0  0  0  0  0  0  0  0  0
  190.7150  176.4220  147.9570 F   0  0  0  0  0  0  0  0  0  0  0  0
  186.3230  177.4500  142.0880 O   0  0  0  0  0  0  0  0  0  0  0  0
  185.9410  179.5240  147.6380 Cl  0  0  0  0  0  0  0  0  0  0  0  0
  189.5320  174.1140  143.0080 N   0  0  0  0  0  0  0  0  0  0  0  0
  187.7050  175.6310  142.6630 C   0  0  0  0  0  0  0  0  0  0  0  0
  188.3550  173.9170  140.9500 N   0  0  0  0  0  2  0  0  0  0  0  0
  189.2500  176.2260  146.0900 C   0  0  0  0  0  3  0  0  0  0  0  0
  185.4650  179.6170  144.9490 C   0  0  0  0  0  3  0  0  0  0  0  0
  189.8160  174.7160  144.2790 C   0  0  0  0  0  0  0  0  0  0  0  0
  190.9850  174.3560  144.9560 C   0  0  0  0  0  3  0  0  0  0  0  0
  187.0670  176.3300  141.7720 N   0  0  0  0  0  0  0  0  0  0  0  0
  186.2740  177.9530  143.3870 C   0  0  0  0  0  0  0  0  0  0  0  0
  185.5590  179.1260  143.6470 C   0  0  0  0  0  3  0  0  0  0  0  0
  191.0850  172.5530  137.1680 C   0  0  1  0  0  3  0  0  0  0  0  0
  189.6470  171.1120  138.6370 C   0  0  0  0  0  2  0  0  0  0  0  0
  188.1320  174.5410  138.2920 O   0  0  0  0  0  1  0  0  0  0  0  0
  192.5130  172.9490  136.8560 C   0  0  0  0  0  1  0  0  0  0  0  0
  191.0800  171.5190  138.2910 C   0  0  0  0  0  2  0  0  0  0  0  0
  188.8570  173.4080  137.9190 C   0  0  2  0  0  3  0  0  0  0  0  0
  188.7900  172.3270  139.0110 C   0  0  2  0  0  3  0  0  0  0  0  0
  190.2970  173.7910  137.5830 C   0  0  0  0  0  2  0  0  0  0  0  0
  1 11  1  0  0  0  0
  2 15  1  6  0  0  0
  2  3  1  0  0  0  0
  2  7  1  0  0  0  0
  3  9  1  0  0  0  0
  5 16  1  0  0  0  0
  5  4  2  0  0  0  0
  6 13  1  0  0  0  0
  7 17  1  0  0  0  0
  8  1  1  0  0  0  0
  9  6  2  0  0  0  0
 10 15  1  0  0  0  0
 10 14  2  0  0  0  0
 12 22  1  0  0  0  0
 14 19  1  0  0  0  0
 16 10  1  0  0  0  0
 17  1  2  0  0  0  0
 18  6  1  0  0  0  0
 19  7  2  0  0  0  0
 19 20  1  0  0  0  0
 20  8  2  0  0  0  0
 21 12  1  0  0  0  0
 21 15  2  0  0  0  0
 22 23  1  0  0  0  0
 22  3  2  0  0  0  0
 23 18  2  0  0  0  0
 24 27  1  1  0  0  0
 24 31  1  0  0  0  0
 24 28  1  0  0  0  0
 25 30  1  0  0  0  0
 28 25  1  0  0  0  0
 29 26  1  1  0  0  0
 29 30  1  0  0  0  0
 30  5  1  1  0  0  0
 31 29  1  0  0  0  0
M  END
>  <MODEL>
7

>  <REMARK>
 VINA RESULT:      -8.5      4.046      5.804
  Name = 
  1 active torsions:
  status: ('A' for Active; 'I' for Inactive)
    1  A    between atoms: C_5  and  C_30
                            x       y       z     vdW  Elec       q    Type
                         _______ _______ _______ _____ _____    ______ ____

>  <TORSDO>
F 1

$$$$
=
 OpenBabel11112416533D

 31 35  0  0  1  0  0  0  0  0999 V2000
  189.6730  177.4380  146.9650 C   0  0  0  0  0  0  0  0  0  0  0  0
  188.0020  175.8610  143.8880 C   0  0  2  0  0  3  0  0  0  0  0  0
  186.8410  176.8030  143.6230 C   0  0  0  0  0  0  0  0  0  0  0  0
  192.4280  173.0990  142.5790 O   0  0  0  0  0  0  0  0  0  0  0  0
  191.6170  173.0670  141.6160 C   0  0  0  0  0  0  0  0  0  0  0  0
  185.0050  178.1870  144.4210 C   0  0  0  0  0  0  0  0  0  0  0  0
  189.0450  176.3010  144.9060 C   0  0  0  0  0  0  0  0  0  0  0  0
  190.9470  176.8720  146.8990 C   0  0  0  0  0  3  0  0  0  0  0  0
  186.1310  177.3990  144.6760 C   0  0  0  0  0  3  0  0  0  0  0  0
  189.9520  174.6500  142.7360 C   0  0  0  0  0  0  0  0  0  0  0  0
  189.3510  178.2620  147.9900 F   0  0  0  0  0  0  0  0  0  0  0  0
  186.9870  176.2910  141.2580 O   0  0  0  0  0  0  0  0  0  0  0  0
  184.1530  178.9470  145.7470 Cl  0  0  0  0  0  0  0  0  0  0  0  0
  190.7030  174.8430  143.7820 N   0  0  0  0  0  0  0  0  0  0  0  0
  188.6660  175.3590  142.6220 C   0  0  0  0  0  0  0  0  0  0  0  0
  190.3910  173.8090  141.6620 N   0  0  0  0  0  2  0  0  0  0  0  0
  188.7250  177.1410  145.9830 C   0  0  0  0  0  3  0  0  0  0  0  0
  184.5550  178.3570  143.1100 C   0  0  0  0  0  3  0  0  0  0  0  0
  190.3350  175.7200  144.8560 C   0  0  0  0  0  0  0  0  0  0  0  0
  191.2750  176.0140  145.8480 C   0  0  0  0  0  3  0  0  0  0  0  0
  188.1400  175.5540  141.4490 N   0  0  0  0  0  0  0  0  0  0  0  0
  186.3530  176.9460  142.3120 C   0  0  0  0  0  0  0  0  0  0  0  0
  185.2250  177.7320  142.0580 C   0  0  0  0  0  3  0  0  0  0  0  0
  189.9930  172.5780  138.2290 C   0  0  1  0  0  3  0  0  0  0  0  0
  192.2520  173.1110  139.1840 C   0  0  0  0  0  2  0  0  0  0  0  0
  190.5830  170.4160  141.2140 O   0  0  0  0  0  1  0  0  0  0  0  0
  188.7310  173.1820  137.6500 C   0  0  0  0  0  1  0  0  0  0  0  0
  190.9730  173.6930  138.5820 C   0  0  0  0  0  2  0  0  0  0  0  0
  190.9050  171.1640  140.0810 C   0  0  2  0  0  3  0  0  0  0  0  0
  191.9540  172.2390  140.4100 C   0  0  2  0  0  3  0  0  0  0  0  0
  189.6410  171.7670  139.4720 C   0  0  0  0  0  2  0  0  0  0  0  0
  1 11  1  0  0  0  0
  2 15  1  6  0  0  0
  2  7  1  0  0  0  0
  3  2  1  0  0  0  0
  3  9  1  0  0  0  0
  5 16  1  0  0  0  0
  5  4  2  0  0  0  0
  6  9  2  0  0  0  0
  6 13  1  0  0  0  0
  7 17  1  0  0  0  0
  8  1  1  0  0  0  0
 10 14  2  0  0  0  0
 12 21  1  0  0  0  0
 12 22  1  0  0  0  0
 14 19  1  0  0  0  0
 15 10  1  0  0  0  0
 16 10  1  0  0  0  0
 17  1  2  0  0  0  0
 18  6  1  0  0  0  0
 19  7  2  0  0  0  0
 19 20  1  0  0  0  0
 20  8  2  0  0  0  0
 21 15  2  0  0  0  0
 22  3  2  0  0  0  0
 23 22  1  0  0  0  0
 23 18  2  0  0  0  0
 24 27  1  1  0  0  0
 24 28  1  0  0  0  0
 24 31  1  0  0  0  0
 25 30  1  0  0  0  0
 28 25  1  0  0  0  0
 29 30  1  0  0  0  0
 29 26  1  1  0  0  0
 30  5  1  1  0  0  0
 31 29  1  0  0  0  0
M  END
>  <MODEL>
8

>  <REMARK>
 VINA RESULT:      -8.4      3.304      4.681
  Name = 
  1 active torsions:
  status: ('A' for Active; 'I' for Inactive)
    1  A    between atoms: C_5  and  C_30
                            x       y       z     vdW  Elec       q    Type
                         _______ _______ _______ _____ _____    ______ ____

>  <TORSDO>
F 1

$$$$
=
 OpenBabel11112416533D

 31 35  0  0  1  0  0  0  0  0999 V2000
  185.9500  178.8690  143.6040 C   0  0  0  0  0  0  0  0  0  0  0  0
  188.9540  176.5040  143.2430 C   0  0  2  0  0  3  0  0  0  0  0  0
  189.3830  176.2930  144.6840 C   0  0  0  0  0  0  0  0  0  0  0  0
  187.4420  174.9170  138.3310 O   0  0  0  0  0  0  0  0  0  0  0  0
  188.3400  174.1460  138.7590 C   0  0  0  0  0  0  0  0  0  0  0  0
  189.8080  177.1540  146.9200 C   0  0  0  0  0  0  0  0  0  0  0  0
  187.6260  177.2090  143.0020 C   0  0  0  0  0  0  0  0  0  0  0  0
  185.3020  178.6700  142.3840 C   0  0  0  0  0  3  0  0  0  0  0  0
  189.3190  177.3330  145.6230 C   0  0  0  0  0  3  0  0  0  0  0  0
  188.4330  175.2490  141.0640 C   0  0  0  0  0  0  0  0  0  0  0  0
  185.4610  179.7680  144.4910 F   0  0  0  0  0  0  0  0  0  0  0  0
  190.1790  174.0770  144.1040 O   0  0  0  0  0  0  0  0  0  0  0  0
  189.6890  178.4530  148.0850 Cl  0  0  0  0  0  0  0  0  0  0  0  0
  187.4680  176.0810  140.8020 N   0  0  0  0  0  0  0  0  0  0  0  0
  189.0550  175.2490  142.3980 C   0  0  0  0  0  0  0  0  0  0  0  0
  188.8540  174.2840  140.0910 N   0  0  0  0  0  2  0  0  0  0  0  0
  187.1120  178.1550  143.9020 C   0  0  0  0  0  3  0  0  0  0  0  0
  190.4010  175.9420  147.2810 C   0  0  0  0  0  3  0  0  0  0  0  0
  186.9710  177.0260  141.7610 C   0  0  0  0  0  0  0  0  0  0  0  0
  185.8140  177.7520  141.4650 C   0  0  0  0  0  3  0  0  0  0  0  0
  189.6570  174.1810  142.8290 N   0  0  0  0  0  0  0  0  0  0  0  0
  190.0210  175.0930  145.0450 C   0  0  0  0  0  0  0  0  0  0  0  0
  190.5130  174.9160  146.3420 C   0  0  0  0  0  3  0  0  0  0  0  0
  191.7200  172.4850  138.3420 C   0  0  1  0  0  3  0  0  0  0  0  0
  189.3140  171.8320  138.6380 C   0  0  0  0  0  2  0  0  0  0  0  0
  189.5930  174.7170  136.2370 O   0  0  0  0  0  1  0  0  0  0  0  0
  193.0250  172.7230  139.0700 C   0  0  0  0  0  1  0  0  0  0  0  0
  190.6490  172.0640  139.3450 C   0  0  0  0  0  2  0  0  0  0  0  0
  189.9740  173.5490  136.8990 C   0  0  2  0  0  3  0  0  0  0  0  0
  188.8670  173.0700  137.8540 C   0  0  2  0  0  3  0  0  0  0  0  0
  191.3000  173.7650  137.6250 C   0  0  0  0  0  2  0  0  0  0  0  0
  1 17  1  0  0  0  0
  1 11  1  0  0  0  0
  2 15  1  1  0  0  0
  2  3  1  0  0  0  0
  3 22  2  0  0  0  0
  3  9  1  0  0  0  0
  4  5  2  0  0  0  0
  5 16  1  0  0  0  0
  6 18  1  0  0  0  0
  6 13  1  0  0  0  0
  7  2  1  0  0  0  0
  7 17  2  0  0  0  0
  8  1  2  0  0  0  0
  9  6  2  0  0  0  0
 10 15  1  0  0  0  0
 12 22  1  0  0  0  0
 14 10  2  0  0  0  0
 14 19  1  0  0  0  0
 15 21  2  0  0  0  0
 16 10  1  0  0  0  0
 19  7  1  0  0  0  0
 20 19  2  0  0  0  0
 20  8  1  0  0  0  0
 21 12  1  0  0  0  0
 22 23  1  0  0  0  0
 23 18  2  0  0  0  0
 24 27  1  1  0  0  0
 24 28  1  0  0  0  0
 25 28  1  0  0  0  0
 29 26  1  1  0  0  0
 29 31  1  0  0  0  0
 29 30  1  0  0  0  0
 30 25  1  0  0  0  0
 30  5  1  1  0  0  0
 31 24  1  0  0  0  0
M  END
>  <MODEL>
9

>  <REMARK>
 VINA RESULT:      -8.3      3.908      6.356
  Name = 
  1 active torsions:
  status: ('A' for Active; 'I' for Inactive)
    1  A    between atoms: C_5  and  C_30
                            x       y       z     vdW  Elec       q    Type
                         _______ _______ _______ _____ _____    ______ ____

>  <TORSDO>
F 1

$$$$
