=
 OpenBabel11112416123D

 30 35  0  0  1  0  0  0  0  0999 V2000
  187.0660  177.3600  143.8980 C   0  0  1  0  0  3  0  0  0  0  0  0
  185.1470  178.3010  145.3300 C   0  0  0  0  0  0  0  0  0  0  0  0
  189.4150  177.1210  147.3290 N   0  0  0  0  0  2  0  0  0  0  0  0
  188.3850  176.5610  144.0080 C   0  0  1  0  0  3  0  0  0  0  0  0
  186.1460  176.5850  143.1580 O   0  0  0  0  0  0  0  0  0  0  0  0
  188.2760  175.5260  140.5640 O   0  0  0  0  0  0  0  0  0  0  0  0
  191.5490  176.4580  143.0030 C   0  0  1  0  0  3  0  0  0  0  0  0
  187.9660  176.1130  141.5910 C   0  0  0  0  0  0  0  0  0  0  0  0
  191.7370  176.6040  144.5280 C   0  0  2  0  0  3  0  0  0  0  0  0
  190.5930  176.5270  146.8150 C   0  0  0  0  0  0  0  0  0  0  0  0
  186.5360  176.5580  141.7930 C   0  0  2  0  0  3  0  0  0  0  0  0
  189.0100  176.5100  142.6050 C   0  0  2  0  0  3  0  0  0  0  0  0
  184.6400  178.7310  146.5600 C   0  0  0  0  0  3  0  0  0  0  0  0
  192.8990  175.6990  144.8770 C   0  0  0  0  0  2  0  0  0  0  0  0
  192.8190  175.8170  142.4680 C   0  0  0  0  0  2  0  0  0  0  0  0
  184.2450  178.4020  144.1460 C   0  0  0  0  0  1  0  0  0  0  0  0
  188.6880  177.4300  146.3070 C   0  0  1  0  0  3  0  0  0  0  0  0
  185.4380  178.7140  147.7020 C   0  0  0  0  0  3  0  0  0  0  0  0
  186.4750  177.8150  145.2360 C   0  0  0  0  0  0  0  0  0  0  0  0
  189.3450  177.2030  144.9920 C   0  0  1  0  0  3  0  0  0  0  0  0
  191.5440  176.1510  147.5480 O   0  0  0  0  0  0  0  0  0  0  0  0
  190.4940  176.2710  145.3500 C   0  0  1  0  0  3  0  0  0  0  0  0
  193.7700  175.6870  143.6420 C   0  0  0  0  0  2  0  0  0  0  0  0
  190.1820  174.2650  143.0400 C   0  0  0  0  0  1  0  0  0  0  0  0
  186.7600  178.2850  147.6190 C   0  0  0  0  0  3  0  0  0  0  0  0
  187.2890  177.8610  146.3950 C   0  0  0  0  0  0  0  0  0  0  0  0
  190.3080  175.6870  142.4990 C   0  0  2  0  0  3  0  0  0  0  0  0
  186.2630  177.8820  141.0880 C   0  0  0  0  0  2  0  0  0  0  0  0
  184.2050  178.3920  140.4810 C   0  0  0  0  0  1  0  0  0  0  0  0
  185.3360  177.6920  140.0640 O   0  0  0  0  0  0  0  0  0  0  0  0
  1  5  1  1  0  0  0
  1  4  1  0  0  0  0
  1 19  1  0  0  0  0
  2 13  1  0  0  0  0
  4 20  1  0  0  0  0
  6  8  2  0  0  0  0
  7  9  1  0  0  0  0
  8 11  1  0  0  0  0
  8 12  1  0  0  0  0
  9 14  1  0  0  0  0
  9 22  1  0  0  0  0
 10  3  1  0  0  0  0
 10 21  2  0  0  0  0
 11  5  1  0  0  0  0
 12  4  1  0  0  0  0
 13 18  2  0  0  0  0
 15  7  1  0  0  0  0
 15 23  1  0  0  0  0
 16  2  1  0  0  0  0
 17 26  1  0  0  0  0
 17  3  1  0  0  0  0
 19  2  2  0  0  0  0
 19 26  1  0  0  0  0
 20 22  1  0  0  0  0
 20 17  1  0  0  0  0
 22 10  1  0  0  0  0
 23 14  1  0  0  0  0
 25 18  1  0  0  0  0
 26 25  2  0  0  0  0
 27 12  1  0  0  0  0
 27  7  1  0  0  0  0
 27 24  1  0  0  0  0
 28 11  1  0  0  0  0
 30 29  1  0  0  0  0
 30 28  1  0  0  0  0
M  END
>  <MODEL>
1

>  <REMARK>
 VINA RESULT:      -9.2      0.000      0.000
  Name = 
  2 active torsions:
  status: ('A' for Active; 'I' for Inactive)
    1  A    between atoms: C_11  and  C_28
    2  A    between atoms: C_28  and  O_30
                            x       y       z     vdW  Elec       q    Type
                         _______ _______ _______ _____ _____    ______ ____

>  <TORSDO>
F 2

$$$$
=
 OpenBabel11112416123D

 30 35  0  0  1  0  0  0  0  0999 V2000
  190.0640  175.1220  143.8830 C   0  0  1  0  0  3  0  0  0  0  0  0
  192.4910  174.2710  143.9530 C   0  0  0  0  0  0  0  0  0  0  0  0
  190.7490  177.1560  147.4520 N   0  0  0  0  0  2  0  0  0  0  0  0
  189.1470  176.2270  144.4570 C   0  0  1  0  0  3  0  0  0  0  0  0
  190.1630  175.3180  142.4880 O   0  0  0  0  0  0  0  0  0  0  0  0
  186.7710  175.9240  141.7720 O   0  0  0  0  0  0  0  0  0  0  0  0
  186.1740  176.8020  145.8220 C   0  0  1  0  0  3  0  0  0  0  0  0
  187.7420  175.6740  142.4720 C   0  0  0  0  0  0  0  0  0  0  0  0
  187.1070  177.2520  146.9650 C   0  0  2  0  0  3  0  0  0  0  0  0
  189.5110  177.8210  147.6320 C   0  0  0  0  0  0  0  0  0  0  0  0
  188.9340  174.9670  141.8690 C   0  0  2  0  0  3  0  0  0  0  0  0
  187.7210  175.9470  143.9560 C   0  0  2  0  0  3  0  0  0  0  0  0
  193.7350  174.1820  144.5860 C   0  0  0  0  0  3  0  0  0  0  0  0
  186.4620  178.4950  147.5430 C   0  0  0  0  0  2  0  0  0  0  0  0
  184.8530  177.5250  146.0280 C   0  0  0  0  0  2  0  0  0  0  0  0
  192.3220  173.5290  142.6700 C   0  0  0  0  0  1  0  0  0  0  0  0
  190.5780  176.3290  146.4750 C   0  0  1  0  0  3  0  0  0  0  0  0
  193.9550  174.8060  145.8100 C   0  0  0  0  0  3  0  0  0  0  0  0
  191.4450  175.0260  144.5400 C   0  0  0  0  0  0  0  0  0  0  0  0
  189.1800  176.2470  145.9740 C   0  0  1  0  0  3  0  0  0  0  0  0
  189.3160  178.6660  148.5440 O   0  0  0  0  0  0  0  0  0  0  0  0
  188.5500  177.5130  146.5360 C   0  0  1  0  0  3  0  0  0  0  0  0
  184.9790  178.3030  147.3230 C   0  0  0  0  0  2  0  0  0  0  0  0
  187.0490  178.4260  144.0120 C   0  0  0  0  0  1  0  0  0  0  0  0
  192.9240  175.5120  146.4260 C   0  0  0  0  0  3  0  0  0  0  0  0
  191.6690  175.6040  145.8140 C   0  0  0  0  0  0  0  0  0  0  0  0
  186.6680  176.9910  144.3700 C   0  0  2  0  0  3  0  0  0  0  0  0
  188.7200  173.4590  141.8240 C   0  0  0  0  0  2  0  0  0  0  0  0
  189.1760  173.4540  139.6670 C   0  0  0  0  0  1  0  0  0  0  0  0
  188.1930  173.0910  140.5870 O   0  0  0  0  0  0  0  0  0  0  0  0
  1  5  1  6  0  0  0
  1  4  1  0  0  0  0
  1 19  1  0  0  0  0
  2 19  2  0  0  0  0
  2 13  1  0  0  0  0
  3 10  1  0  0  0  0
  4 20  1  0  0  0  0
  6  8  2  0  0  0  0
  7 15  1  0  0  0  0
  7  9  1  0  0  0  0
  8 12  1  0  0  0  0
  9 14  1  0  0  0  0
 10 21  2  0  0  0  0
 11  8  1  0  0  0  0
 11  5  1  0  0  0  0
 12 27  1  0  0  0  0
 12  4  1  0  0  0  0
 13 18  2  0  0  0  0
 15 23  1  0  0  0  0
 16  2  1  0  0  0  0
 17  3  1  0  0  0  0
 18 25  1  0  0  0  0
 19 26  1  0  0  0  0
 20 17  1  0  0  0  0
 20 22  1  0  0  0  0
 22  9  1  0  0  0  0
 22 10  1  0  0  0  0
 23 14  1  0  0  0  0
 24 27  1  0  0  0  0
 26 25  2  0  0  0  0
 26 17  1  0  0  0  0
 27  7  1  0  0  0  0
 28 11  1  0  0  0  0
 29 30  1  0  0  0  0
 30 28  1  0  0  0  0
M  END
>  <MODEL>
2

>  <REMARK>
 VINA RESULT:      -8.4      1.817      5.767
  Name = 
  2 active torsions:
  status: ('A' for Active; 'I' for Inactive)
    1  A    between atoms: C_11  and  C_28
    2  A    between atoms: C_28  and  O_30
                            x       y       z     vdW  Elec       q    Type
                         _______ _______ _______ _____ _____    ______ ____

>  <TORSDO>
F 2

$$$$
=
 OpenBabel11112416123D

 30 35  0  0  1  0  0  0  0  0999 V2000
  187.8370  176.7300  144.0970 C   0  0  1  0  0  3  0  0  0  0  0  0
  186.1090  178.3910  143.1630 C   0  0  0  0  0  0  0  0  0  0  0  0
  188.1910  175.0670  140.2950 N   0  0  0  0  0  2  0  0  0  0  0  0
  188.9760  175.7820  143.6530 C   0  0  1  0  0  3  0  0  0  0  0  0
  188.4040  177.7510  144.8910 O   0  0  0  0  0  0  0  0  0  0  0  0
  190.5120  175.7820  146.9060 O   0  0  0  0  0  0  0  0  0  0  0  0
  190.2350  172.7350  144.0490 C   0  0  1  0  0  3  0  0  0  0  0  0
  189.6880  176.0090  146.0330 C   0  0  0  0  0  0  0  0  0  0  0  0
  189.8890  172.7090  142.5450 C   0  0  2  0  0  3  0  0  0  0  0  0
  189.2040  174.1010  140.5110 C   0  0  0  0  0  0  0  0  0  0  0  0
  188.7900  177.2180  146.1490 C   0  0  2  0  0  3  0  0  0  0  0  0
  189.4650  175.0330  144.9030 C   0  0  2  0  0  3  0  0  0  0  0  0
  185.3340  178.8800  142.1070 C   0  0  0  0  0  3  0  0  0  0  0  0
  191.0360  171.9750  141.8830 C   0  0  0  0  0  2  0  0  0  0  0  0
  191.3230  171.6950  144.2630 C   0  0  0  0  0  2  0  0  0  0  0  0
  185.9410  179.0440  144.4930 C   0  0  0  0  0  1  0  0  0  0  0  0
  187.8550  175.5070  141.4620 C   0  0  1  0  0  3  0  0  0  0  0  0
  185.3990  178.2910  140.8470 C   0  0  0  0  0  3  0  0  0  0  0  0
  186.9940  177.3030  142.9550 C   0  0  0  0  0  0  0  0  0  0  0  0
  188.5030  174.7990  142.5980 C   0  0  1  0  0  3  0  0  0  0  0  0
  189.7230  173.4360  139.5770 O   0  0  0  0  0  0  0  0  0  0  0  0
  189.6690  174.0880  141.9260 C   0  0  1  0  0  3  0  0  0  0  0  0
  191.5350  171.0050  142.9290 C   0  0  0  0  0  2  0  0  0  0  0  0
  191.8500  174.7520  143.9910 C   0  0  0  0  0  1  0  0  0  0  0  0
  186.2260  177.1900  140.6350 C   0  0  0  0  0  3  0  0  0  0  0  0
  187.0020  176.6790  141.6820 C   0  0  0  0  0  0  0  0  0  0  0  0
  190.6560  174.0850  144.6710 C   0  0  2  0  0  3  0  0  0  0  0  0
  187.5920  176.9370  147.0480 C   0  0  0  0  0  2  0  0  0  0  0  0
  185.8340  177.8590  148.0080 C   0  0  0  0  0  1  0  0  0  0  0  0
  187.1520  178.1210  147.6380 O   0  0  0  0  0  0  0  0  0  0  0  0
  1 19  1  6  0  0  0
  1  5  1  0  0  0  0
  2 16  1  0  0  0  0
  3 10  1  0  0  0  0
  3 17  1  0  0  0  0
  4  1  1  0  0  0  0
  4 12  1  0  0  0  0
  5 11  1  0  0  0  0
  7 15  1  0  0  0  0
  7 27  1  0  0  0  0
  8 11  1  0  0  0  0
  8  6  2  0  0  0  0
  9  7  1  0  0  0  0
 10 22  1  0  0  0  0
 11 28  1  0  0  0  0
 12  8  1  0  0  0  0
 13  2  2  0  0  0  0
 14  9  1  0  0  0  0
 14 23  1  0  0  0  0
 17 26  1  0  0  0  0
 17 20  1  0  0  0  0
 18 13  1  0  0  0  0
 19  2  1  0  0  0  0
 20  4  1  0  0  0  0
 21 10  2  0  0  0  0
 22  9  1  0  0  0  0
 22 20  1  0  0  0  0
 23 15  1  0  0  0  0
 24 27  1  0  0  0  0
 25 18  2  0  0  0  0
 25 26  1  0  0  0  0
 26 19  2  0  0  0  0
 27 12  1  0  0  0  0
 28 30  1  0  0  0  0
 30 29  1  0  0  0  0
M  END
>  <MODEL>
3

>  <REMARK>
 VINA RESULT:      -7.8      2.363      5.124
  Name = 
  2 active torsions:
  status: ('A' for Active; 'I' for Inactive)
    1  A    between atoms: C_11  and  C_28
    2  A    between atoms: C_28  and  O_30
                            x       y       z     vdW  Elec       q    Type
                         _______ _______ _______ _____ _____    ______ ____

>  <TORSDO>
F 2

$$$$
=
 OpenBabel11112416123D

 30 35  0  0  1  0  0  0  0  0999 V2000
  188.0720  176.3840  143.4330 C   0  0  1  0  0  3  0  0  0  0  0  0
  185.8140  177.5570  143.8170 C   0  0  0  0  0  0  0  0  0  0  0  0
  189.2440  177.5410  147.2580 N   0  0  0  0  0  2  0  0  0  0  0  0
  189.2840  175.8020  144.1960 C   0  0  1  0  0  3  0  0  0  0  0  0
  187.4180  175.3190  142.7750 O   0  0  0  0  0  0  0  0  0  0  0  0
  190.2330  173.6670  141.4600 O   0  0  0  0  0  0  0  0  0  0  0  0
  192.6020  175.6790  144.2640 C   0  0  1  0  0  3  0  0  0  0  0  0
  189.6270  174.5300  142.0780 C   0  0  0  0  0  0  0  0  0  0  0  0
  192.3120  176.3460  145.6250 C   0  0  2  0  0  3  0  0  0  0  0  0
  190.5170  176.9270  147.3530 C   0  0  0  0  0  0  0  0  0  0  0  0
  188.2100  174.8750  141.6830 C   0  0  2  0  0  3  0  0  0  0  0  0
  190.3110  175.3450  143.1480 C   0  0  2  0  0  3  0  0  0  0  0  0
  184.9570  178.3220  144.6130 C   0  0  0  0  0  3  0  0  0  0  0  0
  193.3000  175.7290  146.5920 C   0  0  0  0  0  2  0  0  0  0  0  0
  193.9690  175.0240  144.3830 C   0  0  0  0  0  2  0  0  0  0  0  0
  185.3230  177.1660  142.4640 C   0  0  0  0  0  1  0  0  0  0  0  0
  188.8720  177.4160  146.0280 C   0  0  1  0  0  3  0  0  0  0  0  0
  185.3630  178.7670  145.8690 C   0  0  0  0  0  3  0  0  0  0  0  0
  187.1010  177.2000  144.2920 C   0  0  0  0  0  0  0  0  0  0  0  0
  189.9010  176.8270  145.1280 C   0  0  1  0  0  3  0  0  0  0  0  0
  191.1910  176.9150  148.4150 O   0  0  0  0  0  0  0  0  0  0  0  0
  190.8720  176.1870  146.1090 C   0  0  1  0  0  3  0  0  0  0  0  0
  194.5090  175.3900  145.7520 C   0  0  0  0  0  2  0  0  0  0  0  0
  191.2670  173.5020  144.6620 C   0  0  0  0  0  1  0  0  0  0  0  0
  186.6420  178.4680  146.3330 C   0  0  0  0  0  3  0  0  0  0  0  0
  187.5190  177.7120  145.5460 C   0  0  0  0  0  0  0  0  0  0  0  0
  191.5700  174.6660  143.7210 C   0  0  2  0  0  3  0  0  0  0  0  0
  188.1810  175.8520  140.5140 C   0  0  0  0  0  2  0  0  0  0  0  0
  188.1910  174.5080  138.7660 C   0  0  0  0  0  1  0  0  0  0  0  0
  187.3630  175.3560  139.5000 O   0  0  0  0  0  0  0  0  0  0  0  0
  1  5  1  1  0  0  0
  1  4  1  0  0  0  0
  1 19  1  0  0  0  0
  2 19  2  0  0  0  0
  2 13  1  0  0  0  0
  3 10  1  0  0  0  0
  4 20  1  0  0  0  0
  6  8  2  0  0  0  0
  7 15  1  0  0  0  0
  7  9  1  0  0  0  0
  8 12  1  0  0  0  0
  9 22  1  0  0  0  0
  9 14  1  0  0  0  0
 10 21  2  0  0  0  0
 11  8  1  0  0  0  0
 11  5  1  0  0  0  0
 12 27  1  0  0  0  0
 12  4  1  0  0  0  0
 13 18  2  0  0  0  0
 15 23  1  0  0  0  0
 16  2  1  0  0  0  0
 17  3  1  0  0  0  0
 18 25  1  0  0  0  0
 19 26  1  0  0  0  0
 20 17  1  0  0  0  0
 20 22  1  0  0  0  0
 22 10  1  0  0  0  0
 23 14  1  0  0  0  0
 26 17  1  0  0  0  0
 26 25  2  0  0  0  0
 27  7  1  0  0  0  0
 27 24  1  0  0  0  0
 28 11  1  0  0  0  0
 29 30  1  0  0  0  0
 30 28  1  0  0  0  0
M  END
>  <MODEL>
4

>  <REMARK>
 VINA RESULT:      -7.8      1.380      2.102
  Name = 
  2 active torsions:
  status: ('A' for Active; 'I' for Inactive)
    1  A    between atoms: C_11  and  C_28
    2  A    between atoms: C_28  and  O_30
                            x       y       z     vdW  Elec       q    Type
                         _______ _______ _______ _____ _____    ______ ____

>  <TORSDO>
F 2

$$$$
=
 OpenBabel11112416123D

 30 35  0  0  1  0  0  0  0  0999 V2000
  189.6280  174.9840  144.5850 C   0  0  1  0  0  3  0  0  0  0  0  0
  191.2440  173.4150  143.3410 C   0  0  0  0  0  0  0  0  0  0  0  0
  187.8680  175.9500  140.9360 N   0  0  0  0  0  2  0  0  0  0  0  0
  188.2670  175.7010  144.4260 C   0  0  1  0  0  3  0  0  0  0  0  0
  189.5060  174.0440  145.6320 O   0  0  0  0  0  0  0  0  0  0  0  0
  187.8100  176.0440  147.9790 O   0  0  0  0  0  0  0  0  0  0  0  0
  186.6980  178.5960  144.8530 C   0  0  1  0  0  3  0  0  0  0  0  0
  188.3570  175.7800  146.9180 C   0  0  0  0  0  0  0  0  0  0  0  0
  186.5630  178.4190  143.3260 C   0  0  2  0  0  3  0  0  0  0  0  0
  186.8220  176.8090  141.3550 C   0  0  0  0  0  0  0  0  0  0  0  0
  189.4360  174.7230  146.8770 C   0  0  2  0  0  3  0  0  0  0  0  0
  188.0620  176.5780  145.6720 C   0  0  2  0  0  3  0  0  0  0  0  0
  191.7330  172.8590  142.1550 C   0  0  0  0  0  3  0  0  0  0  0  0
  185.1630  178.8910  142.9900 C   0  0  0  0  0  2  0  0  0  0  0  0
  185.5670  179.5170  145.2850 C   0  0  0  0  0  2  0  0  0  0  0  0
  191.9130  173.0130  144.6120 C   0  0  0  0  0  1  0  0  0  0  0  0
  188.6100  175.7500  141.9740 C   0  0  1  0  0  3  0  0  0  0  0  0
  191.1930  173.2230  140.9240 C   0  0  0  0  0  3  0  0  0  0  0  0
  190.1690  174.3390  143.3060 C   0  0  0  0  0  0  0  0  0  0  0  0
  188.2280  176.5500  143.1690 C   0  0  1  0  0  3  0  0  0  0  0  0
  185.9410  177.2450  140.5690 O   0  0  0  0  0  0  0  0  0  0  0  0
  186.8120  176.9950  142.8330 C   0  0  1  0  0  3  0  0  0  0  0  0
  184.8500  179.9500  144.0210 C   0  0  0  0  0  2  0  0  0  0  0  0
  185.5000  176.4160  145.5540 C   0  0  0  0  0  1  0  0  0  0  0  0
  190.1690  174.1660  140.8660 C   0  0  0  0  0  3  0  0  0  0  0  0
  189.6730  174.7420  142.0400 C   0  0  0  0  0  0  0  0  0  0  0  0
  186.7150  177.3240  145.7290 C   0  0  2  0  0  3  0  0  0  0  0  0
  190.7860  175.2910  147.3010 C   0  0  0  0  0  2  0  0  0  0  0  0
  191.5590  177.0470  148.3880 C   0  0  0  0  0  1  0  0  0  0  0  0
  190.7260  176.6840  147.3300 O   0  0  0  0  0  0  0  0  0  0  0  0
  1 19  1  6  0  0  0
  1  5  1  0  0  0  0
  2 16  1  0  0  0  0
  3 10  1  0  0  0  0
  3 17  1  0  0  0  0
  4  1  1  0  0  0  0
  4 12  1  0  0  0  0
  5 11  1  0  0  0  0
  7 15  1  0  0  0  0
  7 27  1  0  0  0  0
  8  6  2  0  0  0  0
  9  7  1  0  0  0  0
 10 22  1  0  0  0  0
 11  8  1  0  0  0  0
 11 28  1  0  0  0  0
 12 27  1  0  0  0  0
 12  8  1  0  0  0  0
 13  2  2  0  0  0  0
 14  9  1  0  0  0  0
 14 23  1  0  0  0  0
 17 26  1  0  0  0  0
 17 20  1  0  0  0  0
 18 13  1  0  0  0  0
 19  2  1  0  0  0  0
 20  4  1  0  0  0  0
 21 10  2  0  0  0  0
 22 20  1  0  0  0  0
 22  9  1  0  0  0  0
 23 15  1  0  0  0  0
 24 27  1  0  0  0  0
 25 18  2  0  0  0  0
 25 26  1  0  0  0  0
 26 19  2  0  0  0  0
 28 30  1  0  0  0  0
 30 29  1  0  0  0  0
M  END
>  <MODEL>
5

>  <REMARK>
 VINA RESULT:      -7.8      2.218      7.132
  Name = 
  2 active torsions:
  status: ('A' for Active; 'I' for Inactive)
    1  A    between atoms: C_11  and  C_28
    2  A    between atoms: C_28  and  O_30
                            x       y       z     vdW  Elec       q    Type
                         _______ _______ _______ _____ _____    ______ ____

>  <TORSDO>
F 2

$$$$
=
 OpenBabel11112416123D

 30 35  0  0  1  0  0  0  0  0999 V2000
  188.0090  176.4670  144.6280 C   0  0  1  0  0  3  0  0  0  0  0  0
  186.5550  178.3350  145.6360 C   0  0  0  0  0  0  0  0  0  0  0  0
  186.3560  177.2900  140.8950 N   0  0  0  0  0  2  0  0  0  0  0  0
  188.5800  175.9640  143.2820 C   0  0  1  0  0  3  0  0  0  0  0  0
  189.0940  176.8590  145.4430 O   0  0  0  0  0  0  0  0  0  0  0  0
  191.2350  174.1250  144.8680 O   0  0  0  0  0  0  0  0  0  0  0  0
  189.0420  173.2610  141.4080 C   0  0  1  0  0  3  0  0  0  0  0  0
  190.2200  174.7980  144.7550 C   0  0  0  0  0  0  0  0  0  0  0  0
  188.1280  174.0970  140.4870 C   0  0  2  0  0  3  0  0  0  0  0  0
  187.0760  176.3910  140.0710 C   0  0  0  0  0  0  0  0  0  0  0  0
  189.7980  175.7080  145.8850 C   0  0  2  0  0  3  0  0  0  0  0  0
  189.3140  174.6430  143.5580 C   0  0  2  0  0  3  0  0  0  0  0  0
  185.5800  179.3280  145.5020 C   0  0  0  0  0  3  0  0  0  0  0  0
  188.6750  173.8930  139.0890 C   0  0  0  0  0  2  0  0  0  0  0  0
  189.8090  172.3050  140.5090 C   0  0  0  0  0  2  0  0  0  0  0  0
  187.1140  178.1050  146.9990 C   0  0  0  0  0  1  0  0  0  0  0  0
  186.6450  176.9760  142.1140 C   0  0  1  0  0  3  0  0  0  0  0  0
  184.9750  179.5680  144.2710 C   0  0  0  0  0  3  0  0  0  0  0  0
  186.9610  177.5780  144.5080 C   0  0  0  0  0  0  0  0  0  0  0  0
  187.4840  175.7550  142.2540 C   0  0  1  0  0  3  0  0  0  0  0  0
  186.9810  176.3900  138.8160 O   0  0  0  0  0  0  0  0  0  0  0  0
  188.0490  175.5770  140.8530 C   0  0  1  0  0  3  0  0  0  0  0  0
  189.2780  172.5080  139.1030 C   0  0  0  0  0  2  0  0  0  0  0  0
  190.9660  174.9740  141.6190 C   0  0  0  0  0  1  0  0  0  0  0  0
  185.3270  178.8020  143.1620 C   0  0  0  0  0  3  0  0  0  0  0  0
  186.2930  177.7960  143.2770 C   0  0  0  0  0  0  0  0  0  0  0  0
  190.0170  174.0190  142.3380 C   0  0  2  0  0  3  0  0  0  0  0  0
  189.0340  174.9410  146.9590 C   0  0  0  0  0  2  0  0  0  0  0  0
  190.8740  175.5930  147.9840 C   0  0  0  0  0  1  0  0  0  0  0  0
  189.8950  174.6010  148.0020 O   0  0  0  0  0  0  0  0  0  0  0  0
  1 19  1  6  0  0  0
  1  5  1  0  0  0  0
  2 16  1  0  0  0  0
  3 17  1  0  0  0  0
  4 12  1  0  0  0  0
  4  1  1  0  0  0  0
  5 11  1  0  0  0  0
  7 27  1  0  0  0  0
  8  6  2  0  0  0  0
  8 11  1  0  0  0  0
  9 22  1  0  0  0  0
  9  7  1  0  0  0  0
 10 22  1  0  0  0  0
 10  3  1  0  0  0  0
 11 28  1  0  0  0  0
 12  8  1  0  0  0  0
 13  2  1  0  0  0  0
 14 23  1  0  0  0  0
 14  9  1  0  0  0  0
 15  7  1  0  0  0  0
 17 20  1  0  0  0  0
 17 26  1  0  0  0  0
 18 13  2  0  0  0  0
 19  2  2  0  0  0  0
 20  4  1  0  0  0  0
 21 10  2  0  0  0  0
 22 20  1  0  0  0  0
 23 15  1  0  0  0  0
 24 27  1  0  0  0  0
 25 26  2  0  0  0  0
 25 18  1  0  0  0  0
 26 19  1  0  0  0  0
 27 12  1  0  0  0  0
 28 30  1  0  0  0  0
 29 30  1  0  0  0  0
M  END
>  <MODEL>
6

>  <REMARK>
 VINA RESULT:      -7.6      2.343      5.400
  Name = 
  2 active torsions:
  status: ('A' for Active; 'I' for Inactive)
    1  A    between atoms: C_11  and  C_28
    2  A    between atoms: C_28  and  O_30
                            x       y       z     vdW  Elec       q    Type
                         _______ _______ _______ _____ _____    ______ ____

>  <TORSDO>
F 2

$$$$
=
 OpenBabel11112416123D

 30 35  0  0  1  0  0  0  0  0999 V2000
  187.3910  176.3670  141.1540 C   0  0  1  0  0  3  0  0  0  0  0  0
  187.3200  175.6660  138.6800 C   0  0  0  0  0  0  0  0  0  0  0  0
  190.3920  173.5520  141.7940 N   0  0  0  0  0  2  0  0  0  0  0  0
  188.2960  176.3150  142.4070 C   0  0  1  0  0  3  0  0  0  0  0  0
  187.2360  177.7220  140.7850 O   0  0  0  0  0  0  0  0  0  0  0  0
  186.6360  179.1000  143.9670 O   0  0  0  0  0  0  0  0  0  0  0  0
  188.3300  175.6680  145.6640 C   0  0  1  0  0  3  0  0  0  0  0  0
  186.8660  178.2180  143.1530 C   0  0  0  0  0  0  0  0  0  0  0  0
  189.3110  174.5940  145.1480 C   0  0  2  0  0  3  0  0  0  0  0  0
  190.6980  173.7810  143.1580 C   0  0  0  0  0  0  0  0  0  0  0  0
  186.3990  178.3800  141.7250 C   0  0  2  0  0  3  0  0  0  0  0  0
  187.4990  176.9150  143.5760 C   0  0  2  0  0  3  0  0  0  0  0  0
  187.7580  174.8550  137.6290 C   0  0  0  0  0  3  0  0  0  0  0  0
  190.4220  174.5400  146.1760 C   0  0  0  0  0  2  0  0  0  0  0  0
  188.6720  175.9030  147.1270 C   0  0  0  0  0  2  0  0  0  0  0  0
  186.2530  176.6630  138.3750 C   0  0  0  0  0  1  0  0  0  0  0  0
  189.3260  174.2360  141.5410 C   0  0  1  0  0  3  0  0  0  0  0  0
  188.7160  173.8680  137.8460 C   0  0  0  0  0  3  0  0  0  0  0  0
  187.8680  175.5110  139.9780 C   0  0  0  0  0  0  0  0  0  0  0  0
  188.7190  174.8940  142.7290 C   0  0  1  0  0  3  0  0  0  0  0  0
  191.6580  173.2190  143.7460 O   0  0  0  0  0  0  0  0  0  0  0  0
  189.8520  174.8580  143.7450 C   0  0  1  0  0  3  0  0  0  0  0  0
  189.7630  174.9120  147.4840 C   0  0  0  0  0  2  0  0  0  0  0  0
  189.6060  177.7390  144.7930 C   0  0  0  0  0  1  0  0  0  0  0  0
  189.2320  173.6690  139.1240 C   0  0  0  0  0  3  0  0  0  0  0  0
  188.7980  174.4630  140.1920 C   0  0  0  0  0  0  0  0  0  0  0  0
  188.2680  177.0140  144.9070 C   0  0  2  0  0  3  0  0  0  0  0  0
  184.9350  177.9830  141.5710 C   0  0  0  0  0  2  0  0  0  0  0  0
  183.0260  178.2900  140.5110 C   0  0  0  0  0  1  0  0  0  0  0  0
  184.3690  178.6660  140.4960 O   0  0  0  0  0  0  0  0  0  0  0  0
  1 19  1  6  0  0  0
  1  4  1  0  0  0  0
  2 19  1  0  0  0  0
  3 10  1  0  0  0  0
  4 20  1  0  0  0  0
  4 12  1  0  0  0  0
  5  1  1  0  0  0  0
  5 11  1  0  0  0  0
  7 15  1  0  0  0  0
  8 12  1  0  0  0  0
  8  6  2  0  0  0  0
  9  7  1  0  0  0  0
  9 14  1  0  0  0  0
 10 22  1  0  0  0  0
 10 21  2  0  0  0  0
 11  8  1  0  0  0  0
 12 27  1  0  0  0  0
 13 18  1  0  0  0  0
 13  2  2  0  0  0  0
 14 23  1  0  0  0  0
 15 23  1  0  0  0  0
 16  2  1  0  0  0  0
 17  3  1  0  0  0  0
 17 20  1  0  0  0  0
 18 25  2  0  0  0  0
 19 26  2  0  0  0  0
 20 22  1  0  0  0  0
 22  9  1  0  0  0  0
 24 27  1  0  0  0  0
 25 26  1  0  0  0  0
 26 17  1  0  0  0  0
 27  7  1  0  0  0  0
 28 11  1  0  0  0  0
 30 29  1  0  0  0  0
 30 28  1  0  0  0  0
M  END
>  <MODEL>
7

>  <REMARK>
 VINA RESULT:      -7.5      2.663      5.348
  Name = 
  2 active torsions:
  status: ('A' for Active; 'I' for Inactive)
    1  A    between atoms: C_11  and  C_28
    2  A    between atoms: C_28  and  O_30
                            x       y       z     vdW  Elec       q    Type
                         _______ _______ _______ _____ _____    ______ ____

>  <TORSDO>
F 2

$$$$
=
 OpenBabel11112416123D

 30 35  0  0  1  0  0  0  0  0999 V2000
  190.2570  175.0520  143.9080 C   0  0  1  0  0  3  0  0  0  0  0  0
  190.8560  173.9260  141.6730 C   0  0  0  0  0  0  0  0  0  0  0  0
  186.5850  176.1610  142.2860 N   0  0  0  0  0  2  0  0  0  0  0  0
  189.0480  175.5560  144.7300 C   0  0  1  0  0  3  0  0  0  0  0  0
  190.8520  173.9840  144.6160 O   0  0  0  0  0  0  0  0  0  0  0  0
  190.8410  175.3850  147.8440 O   0  0  0  0  0  0  0  0  0  0  0  0
  187.9160  178.0880  146.5550 C   0  0  1  0  0  3  0  0  0  0  0  0
  190.6390  175.3440  146.6400 C   0  0  0  0  0  0  0  0  0  0  0  0
  186.8850  178.0790  145.4070 C   0  0  2  0  0  3  0  0  0  0  0  0
  185.9700  176.7840  143.4000 C   0  0  0  0  0  0  0  0  0  0  0  0
  191.5210  174.4870  145.7630 C   0  0  2  0  0  3  0  0  0  0  0  0
  189.6010  176.2300  145.9950 C   0  0  2  0  0  3  0  0  0  0  0  0
  190.5460  173.6050  140.3480 C   0  0  0  0  0  3  0  0  0  0  0  0
  185.5490  178.3580  146.0650 C   0  0  0  0  0  2  0  0  0  0  0  0
  187.2390  178.7560  147.7420 C   0  0  0  0  0  2  0  0  0  0  0  0
  192.1820  173.4850  142.1920 C   0  0  0  0  0  1  0  0  0  0  0  0
  187.8160  175.9570  142.6190 C   0  0  1  0  0  3  0  0  0  0  0  0
  189.3480  174.0250  139.7770 C   0  0  0  0  0  3  0  0  0  0  0  0
  189.9370  174.6630  142.4620 C   0  0  0  0  0  0  0  0  0  0  0  0
  188.2030  176.5340  143.9350 C   0  0  1  0  0  3  0  0  0  0  0  0
  184.7710  177.1660  143.3920 O   0  0  0  0  0  0  0  0  0  0  0  0
  186.8560  176.7840  144.5980 C   0  0  1  0  0  3  0  0  0  0  0  0
  185.8770  179.2190  147.2630 C   0  0  0  0  0  2  0  0  0  0  0  0
  187.5150  175.6750  147.3900 C   0  0  0  0  0  1  0  0  0  0  0  0
  188.4540  174.7910  140.5210 C   0  0  0  0  0  3  0  0  0  0  0  0
  188.7490  175.1320  141.8450 C   0  0  0  0  0  0  0  0  0  0  0  0
  188.5340  176.7380  146.9830 C   0  0  2  0  0  3  0  0  0  0  0  0
  192.8160  175.2080  145.4050 C   0  0  0  0  0  2  0  0  0  0  0  0
  194.1910  176.5280  146.5130 C   0  0  0  0  0  1  0  0  0  0  0  0
  193.6630  175.2380  146.5130 O   0  0  0  0  0  0  0  0  0  0  0  0
  1 19  1  6  0  0  0
  1  5  1  0  0  0  0
  1  4  1  0  0  0  0
  2 16  1  0  0  0  0
  2 19  1  0  0  0  0
  3 17  1  0  0  0  0
  3 10  1  0  0  0  0
  4 12  1  0  0  0  0
  5 11  1  0  0  0  0
  7 27  1  0  0  0  0
  7 15  1  0  0  0  0
  8  6  2  0  0  0  0
  9 14  1  0  0  0  0
  9  7  1  0  0  0  0
 10 22  1  0  0  0  0
 11  8  1  0  0  0  0
 12  8  1  0  0  0  0
 12 27  1  0  0  0  0
 13  2  2  0  0  0  0
 14 23  1  0  0  0  0
 17 20  1  0  0  0  0
 18 13  1  0  0  0  0
 18 25  2  0  0  0  0
 20 22  1  0  0  0  0
 20  4  1  0  0  0  0
 21 10  2  0  0  0  0
 22  9  1  0  0  0  0
 23 15  1  0  0  0  0
 25 26  1  0  0  0  0
 26 19  2  0  0  0  0
 26 17  1  0  0  0  0
 27 24  1  0  0  0  0
 28 11  1  0  0  0  0
 28 30  1  0  0  0  0
 29 30  1  0  0  0  0
M  END
>  <MODEL>
8

>  <REMARK>
 VINA RESULT:      -7.4      2.124      7.060
  Name = 
  2 active torsions:
  status: ('A' for Active; 'I' for Inactive)
    1  A    between atoms: C_11  and  C_28
    2  A    between atoms: C_28  and  O_30
                            x       y       z     vdW  Elec       q    Type
                         _______ _______ _______ _____ _____    ______ ____

>  <TORSDO>
F 2

$$$$
=
 OpenBabel11112416123D

 30 35  0  0  1  0  0  0  0  0999 V2000
  190.5170  175.7090  145.1950 C   0  0  1  0  0  3  0  0  0  0  0  0
  192.5850  174.1790  145.1780 C   0  0  0  0  0  0  0  0  0  0  0  0
  189.7110  174.5450  141.2780 N   0  0  0  0  0  2  0  0  0  0  0  0
  189.1750  175.9460  144.4640 C   0  0  1  0  0  3  0  0  0  0  0  0
  190.2290  175.3220  146.5220 O   0  0  0  0  0  0  0  0  0  0  0  0
  187.7330  177.6890  147.2620 O   0  0  0  0  0  0  0  0  0  0  0  0
  187.2140  178.2830  143.1500 C   0  0  1  0  0  3  0  0  0  0  0  0
  188.5750  177.1240  146.5790 C   0  0  0  0  0  0  0  0  0  0  0  0
  187.5210  177.4300  141.9010 C   0  0  2  0  0  3  0  0  0  0  0  0
  188.4960  175.2300  141.0320 C   0  0  0  0  0  0  0  0  0  0  0  0
  189.7420  176.4390  147.2500 C   0  0  2  0  0  3  0  0  0  0  0  0
  188.5360  177.2050  145.0730 C   0  0  2  0  0  3  0  0  0  0  0  0
  193.4400  173.2920  144.5180 C   0  0  0  0  0  3  0  0  0  0  0  0
  186.2190  177.3680  141.1290 C   0  0  0  0  0  2  0  0  0  0  0  0
  185.9070  179.0090  142.8710 C   0  0  0  0  0  2  0  0  0  0  0  0
  192.9270  174.5400  146.5840 C   0  0  0  0  0  1  0  0  0  0  0  0
  190.1610  174.9970  142.4010 C   0  0  1  0  0  3  0  0  0  0  0  0
  193.2150  172.9450  143.1890 C   0  0  0  0  0  3  0  0  0  0  0  0
  191.4580  174.7160  144.5070 C   0  0  0  0  0  0  0  0  0  0  0  0
  189.3770  176.1250  142.9710 C   0  0  1  0  0  3  0  0  0  0  0  0
  187.8160  175.0610  139.9870 O   0  0  0  0  0  0  0  0  0  0  0  0
  188.0630  176.0360  142.2090 C   0  0  1  0  0  3  0  0  0  0  0  0
  185.5140  178.6660  141.4480 C   0  0  0  0  0  2  0  0  0  0  0  0
  186.1410  176.4160  144.5790 C   0  0  0  0  0  1  0  0  0  0  0  0
  192.1410  173.4990  142.4980 C   0  0  0  0  0  3  0  0  0  0  0  0
  191.2790  174.3980  143.1370 C   0  0  0  0  0  0  0  0  0  0  0  0
  187.1450  177.5640  144.5170 C   0  0  2  0  0  3  0  0  0  0  0  0
  190.8480  177.4320  147.5890 C   0  0  0  0  0  2  0  0  0  0  0  0
  191.5440  178.0550  149.5870 C   0  0  0  0  0  1  0  0  0  0  0  0
  191.5670  176.9820  148.6970 O   0  0  0  0  0  0  0  0  0  0  0  0
  1 19  1  6  0  0  0
  1  5  1  0  0  0  0
  2 16  1  0  0  0  0
  3 17  1  0  0  0  0
  4 12  1  0  0  0  0
  4  1  1  0  0  0  0
  5 11  1  0  0  0  0
  7 27  1  0  0  0  0
  8 11  1  0  0  0  0
  8  6  2  0  0  0  0
  9 22  1  0  0  0  0
  9  7  1  0  0  0  0
 10  3  1  0  0  0  0
 10 22  1  0  0  0  0
 11 28  1  0  0  0  0
 12  8  1  0  0  0  0
 13  2  1  0  0  0  0
 14 23  1  0  0  0  0
 14  9  1  0  0  0  0
 15  7  1  0  0  0  0
 17 20  1  0  0  0  0
 17 26  1  0  0  0  0
 18 13  2  0  0  0  0
 19  2  2  0  0  0  0
 20  4  1  0  0  0  0
 21 10  2  0  0  0  0
 22 20  1  0  0  0  0
 23 15  1  0  0  0  0
 25 26  2  0  0  0  0
 25 18  1  0  0  0  0
 26 19  1  0  0  0  0
 27 24  1  0  0  0  0
 27 12  1  0  0  0  0
 28 30  1  0  0  0  0
 30 29  1  0  0  0  0
M  END
>  <MODEL>
9

>  <REMARK>
 VINA RESULT:      -7.4      2.229      7.116
  Name = 
  2 active torsions:
  status: ('A' for Active; 'I' for Inactive)
    1  A    between atoms: C_11  and  C_28
    2  A    between atoms: C_28  and  O_30
                            x       y       z     vdW  Elec       q    Type
                         _______ _______ _______ _____ _____    ______ ____

>  <TORSDO>
F 2

$$$$
