=
 OpenBabel11112417293D

 37 45  0  0  1  0  0  0  0  0999 V2000
  189.8910  173.6020  140.5250 C   0  0  2  0  0  3  0  0  0  0  0  0
  187.8230  177.1560  142.4120 C   0  0  0  0  0  0  0  0  0  0  0  0
  190.9870  175.6690  144.8160 C   0  0  1  0  0  3  0  0  0  0  0  0
  189.1650  172.3970  139.9070 C   0  0  1  0  0  0  0  0  0  0  0  0
  193.3160  172.9920  143.2360 C   0  0  0  0  0  2  0  0  0  0  0  0
  189.1200  177.3020  144.6200 C   0  0  2  0  0  3  0  0  0  0  0  0
  191.4080  174.4340  144.0490 C   0  0  2  0  0  3  0  0  0  0  0  0
  191.4860  171.6040  140.3060 C   0  0  2  0  0  3  0  0  0  0  0  0
  189.6740  175.9600  144.1960 C   0  0  1  0  0  3  0  0  0  0  0  0
  192.9490  174.2970  143.9570 C   0  0  1  0  0  3  0  0  0  0  0  0
  188.9430  177.2730  146.1450 C   0  0  0  0  0  2  0  0  0  0  0  0
  190.6570  172.6930  139.6350 C   0  0  2  0  0  3  0  0  0  0  0  0
  189.9070  175.8910  142.7770 N   0  0  2  0  0  0  0  0  0  0  0  0
  188.4860  178.3070  141.6750 C   0  0  0  0  0  1  0  0  0  0  0  0
  192.0660  175.1240  147.0570 C   0  0  0  0  0  2  0  0  0  0  0  0
  190.2400  176.8460  146.8650 C   0  0  0  0  0  2  0  0  0  0  0  0
  188.5880  175.8450  142.1370 C   0  0  0  0  0  2  0  0  0  0  0  0
  191.8440  171.9300  141.7500 C   0  0  1  0  0  3  0  0  0  0  0  0
  192.8540  172.9850  141.8570 N   0  0  0  0  0  2  0  0  0  0  0  0
  190.7840  175.5150  146.3180 C   0  0  1  0  0  3  0  0  0  0  0  0
  190.7710  174.6940  142.6540 C   0  0  2  0  0  3  0  0  0  0  0  0
  187.7630  177.4690  143.9250 C   0  0  0  0  0  2  0  0  0  0  0  0
  193.6700  174.2730  145.3330 C   0  0  2  0  0  3  0  0  0  0  0  0
  186.4090  177.0070  141.8930 C   0  0  0  0  0  1  0  0  0  0  0  0
  190.6740  172.2260  142.4850 O   0  0  0  0  0  0  0  0  0  0  0  0
  192.7170  171.2840  139.4780 C   0  0  0  0  0  1  0  0  0  0  0  0
  190.0860  173.4450  142.0530 C   0  0  2  0  0  3  0  0  0  0  0  0
  193.3380  175.4300  146.2750 C   0  0  0  0  0  2  0  0  0  0  0  0
  187.9480  173.1720  139.5690 C   0  0  0  0  0  2  0  0  0  0  0  0
  188.6550  172.5020  138.5140 N   0  0  0  0  0  2  0  0  0  0  0  0
  195.9180  173.2590  145.8970 C   0  0  0  0  0  3  0  0  0  0  0  0
  195.1610  174.1950  145.1750 C   0  0  0  0  0  0  0  0  0  0  0  0
  195.8030  175.0680  144.2890 C   0  0  0  0  0  3  0  0  0  0  0  0
  197.8230  175.8790  143.2480 O   0  0  0  0  0  1  0  0  0  0  0  0
  197.9410  174.0770  144.8490 C   0  0  0  0  0  3  0  0  0  0  0  0
  197.1900  175.0100  144.1270 C   0  0  0  0  0  0  0  0  0  0  0  0
  197.3060  173.2010  145.7330 C   0  0  0  0  0  3  0  0  0  0  0  0
  1 27  1  0  0  0  0
  2 22  1  0  0  0  0
  3 20  1  0  0  0  0
  4  1  1  0  0  0  0
  5 10  1  0  0  0  0
  6 11  1  0  0  0  0
  7  3  1  0  0  0  0
  8 18  1  0  0  0  0
  9  6  1  0  0  0  0
  9  3  1  0  0  0  0
 10  7  1  0  0  0  0
 10 23  1  0  0  0  0
 11 16  1  0  0  0  0
 12  4  1  0  0  0  0
 12  8  1  0  0  0  0
 12  1  1  0  0  0  0
 13  9  1  0  0  0  0
 14  2  1  0  0  0  0
 17  2  1  0  0  0  0
 17 13  1  0  0  0  0
 18 19  1  0  0  0  0
 18 25  1  0  0  0  0
 19  5  1  0  0  0  0
 20 16  1  0  0  0  0
 20 15  1  0  0  0  0
 21 13  1  0  0  0  0
 21  7  1  0  0  0  0
 22  6  1  0  0  0  0
 23 28  1  0  0  0  0
 24  2  1  0  0  0  0
 26  8  1  0  0  0  0
 27 25  1  0  0  0  0
 27 21  1  0  0  0  0
 28 15  1  0  0  0  0
 29  4  1  0  0  0  0
 30 29  1  0  0  0  0
 30  4  1  0  0  0  0
 32 23  1  0  0  0  0
 32 31  2  0  0  0  0
 33 32  1  0  0  0  0
 34 36  1  0  0  0  0
 35 37  2  0  0  0  0
 36 33  2  0  0  0  0
 36 35  1  0  0  0  0
 37 31  1  0  0  0  0
M  END
>  <MODEL>
1

>  <REMARK>
 VINA RESULT:      -9.3      0.000      0.000
  Name = 
  1 active torsions:
  status: ('A' for Active; 'I' for Inactive)
    1  A    between atoms: C_23  and  C_30
                            x       y       z     vdW  Elec       q    Type
                         _______ _______ _______ _____ _____    ______ ____

>  <TORSDO>
F 1

$$$$
=
 OpenBabel11112417293D

 37 45  0  0  1  0  0  0  0  0999 V2000
  190.2850  176.7900  147.1800 C   0  0  2  0  0  3  0  0  0  0  0  0
  186.0370  178.3330  146.9750 C   0  0  0  0  0  0  0  0  0  0  0  0
  187.4290  176.9420  143.2160 C   0  0  1  0  0  3  0  0  0  0  0  0
  191.4470  177.5210  147.8690 C   0  0  1  0  0  0  0  0  0  0  0  0
  190.8170  175.0430  143.1640 C   0  0  0  0  0  2  0  0  0  0  0  0
  185.5760  178.0320  144.4710 C   0  0  2  0  0  3  0  0  0  0  0  0
  188.8770  176.6220  143.5180 C   0  0  2  0  0  3  0  0  0  0  0  0
  192.5390  175.8770  146.3580 C   0  0  2  0  0  3  0  0  0  0  0  0
  187.0630  177.7610  144.3950 C   0  0  1  0  0  3  0  0  0  0  0  0
  189.3250  175.2790  142.8890 C   0  0  1  0  0  3  0  0  0  0  0  0
  185.1760  178.7980  143.2010 C   0  0  0  0  0  2  0  0  0  0  0  0
  191.5220  176.0260  147.4840 C   0  0  2  0  0  3  0  0  0  0  0  0
  187.5390  177.0160  145.5310 N   0  0  2  0  0  0  0  0  0  0  0  0
  185.2650  177.1350  147.5010 C   0  0  0  0  0  1  0  0  0  0  0  0
  187.5730  177.0420  140.6760 C   0  0  0  0  0  2  0  0  0  0  0  0
  185.6420  178.0720  141.9210 C   0  0  0  0  0  2  0  0  0  0  0  0
  187.4960  177.9280  146.6790 C   0  0  0  0  0  2  0  0  0  0  0  0
  191.9260  176.0430  144.9730 C   0  0  1  0  0  3  0  0  0  0  0  0
  191.0910  174.9030  144.5850 N   0  0  0  0  0  2  0  0  0  0  0  0
  187.1490  177.7580  141.9600 C   0  0  1  0  0  3  0  0  0  0  0  0
  188.8700  176.5530  145.0720 C   0  0  2  0  0  3  0  0  0  0  0  0
  185.3390  178.8940  145.7160 C   0  0  0  0  0  2  0  0  0  0  0  0
  189.1300  175.2000  141.3490 C   0  0  2  0  0  3  0  0  0  0  0  0
  186.0420  179.4050  148.0440 C   0  0  0  0  0  1  0  0  0  0  0  0
  191.2320  177.2710  144.8950 O   0  0  0  0  0  0  0  0  0  0  0  0
  193.2900  174.5650  146.4880 C   0  0  0  0  0  1  0  0  0  0  0  0
  190.0770  177.2680  145.7220 C   0  0  2  0  0  3  0  0  0  0  0  0
  187.7280  175.5340  140.8410 C   0  0  0  0  0  2  0  0  0  0  0  0
  190.5680  178.2300  148.8270 C   0  0  0  0  0  2  0  0  0  0  0  0
  191.6100  177.3850  149.3410 N   0  0  0  0  0  2  0  0  0  0  0  0
  189.7210  173.6590  139.4320 C   0  0  0  0  0  3  0  0  0  0  0  0
  189.5290  173.8570  140.8080 C   0  0  0  0  0  0  0  0  0  0  0  0
  189.7190  172.7910  141.6950 C   0  0  0  0  0  3  0  0  0  0  0  0
  190.2780  170.4780  142.0930 O   0  0  0  0  0  1  0  0  0  0  0  0
  190.2810  171.3390  139.8390 C   0  0  0  0  0  3  0  0  0  0  0  0
  190.0930  171.5340  141.2110 C   0  0  0  0  0  0  0  0  0  0  0  0
  190.0960  172.4010  138.9500 C   0  0  0  0  0  3  0  0  0  0  0  0
  1 12  1  0  0  0  0
  1  4  1  0  0  0  0
  2 14  1  0  0  0  0
  2 24  1  0  0  0  0
  3  7  1  0  0  0  0
  3  9  1  0  0  0  0
  4 29  1  0  0  0  0
  4 30  1  0  0  0  0
  5 19  1  0  0  0  0
  6 22  1  0  0  0  0
  7 21  1  0  0  0  0
  8 26  1  0  0  0  0
  8 12  1  0  0  0  0
  9  6  1  0  0  0  0
  9 13  1  0  0  0  0
 10  5  1  0  0  0  0
 10  7  1  0  0  0  0
 11  6  1  0  0  0  0
 12  4  1  0  0  0  0
 13 17  1  0  0  0  0
 15 28  1  0  0  0  0
 15 20  1  0  0  0  0
 16 20  1  0  0  0  0
 16 11  1  0  0  0  0
 17  2  1  0  0  0  0
 18  8  1  0  0  0  0
 19 18  1  0  0  0  0
 20  3  1  0  0  0  0
 21 13  1  0  0  0  0
 21 27  1  0  0  0  0
 22  2  1  0  0  0  0
 23 10  1  0  0  0  0
 25 18  1  0  0  0  0
 25 27  1  0  0  0  0
 27  1  1  0  0  0  0
 28 23  1  0  0  0  0
 29 30  1  0  0  0  0
 31 32  1  0  0  0  0
 32 23  1  0  0  0  0
 32 33  2  0  0  0  0
 35 36  2  0  0  0  0
 36 33  1  0  0  0  0
 36 34  1  0  0  0  0
 37 31  2  0  0  0  0
 37 35  1  0  0  0  0
M  END
>  <MODEL>
2

>  <REMARK>
 VINA RESULT:      -9.1      2.664      6.908
  Name = 
  1 active torsions:
  status: ('A' for Active; 'I' for Inactive)
    1  A    between atoms: C_23  and  C_30
                            x       y       z     vdW  Elec       q    Type
                         _______ _______ _______ _____ _____    ______ ____

>  <TORSDO>
F 1

$$$$
=
 OpenBabel11112417293D

 37 45  0  0  1  0  0  0  0  0999 V2000
  190.2840  176.8470  147.2120 C   0  0  2  0  0  3  0  0  0  0  0  0
  186.0240  178.3490  146.9500 C   0  0  0  0  0  0  0  0  0  0  0  0
  187.4460  176.8800  143.2320 C   0  0  1  0  0  3  0  0  0  0  0  0
  191.4360  177.6050  147.8890 C   0  0  1  0  0  0  0  0  0  0  0  0
  190.8500  175.0100  143.2420 C   0  0  0  0  0  2  0  0  0  0  0  0
  185.5780  177.9840  144.4520 C   0  0  2  0  0  3  0  0  0  0  0  0
  188.8950  176.5800  143.5490 C   0  0  2  0  0  3  0  0  0  0  0  0
  192.5490  175.9350  146.4230 C   0  0  2  0  0  3  0  0  0  0  0  0
  187.0670  177.7240  144.3890 C   0  0  1  0  0  3  0  0  0  0  0  0
  189.3580  175.2260  142.9540 C   0  0  1  0  0  3  0  0  0  0  0  0
  185.1770  178.7160  143.1620 C   0  0  0  0  0  2  0  0  0  0  0  0
  191.5250  176.1020  147.5400 C   0  0  2  0  0  3  0  0  0  0  0  0
  187.5430  177.0110  145.5450 N   0  0  2  0  0  0  0  0  0  0  0  0
  185.2590  177.1570  147.5010 C   0  0  0  0  0  1  0  0  0  0  0  0
  187.6010  176.9210  140.6910 C   0  0  0  0  0  2  0  0  0  0  0  0
  185.6560  177.9630  141.9020 C   0  0  0  0  0  2  0  0  0  0  0  0
  187.4870  177.9490  146.6710 C   0  0  0  0  0  2  0  0  0  0  0  0
  191.9410  176.0620  145.0320 C   0  0  1  0  0  3  0  0  0  0  0  0
  191.1180  174.9060  144.6680 N   0  0  0  0  0  2  0  0  0  0  0  0
  187.1650  177.6640  141.9560 C   0  0  1  0  0  3  0  0  0  0  0  0
  188.8800  176.5480  145.1040 C   0  0  2  0  0  3  0  0  0  0  0  0
  185.3270  178.8740  145.6750 C   0  0  0  0  0  2  0  0  0  0  0  0
  189.1700  175.1090  141.4160 C   0  0  2  0  0  3  0  0  0  0  0  0
  186.0140  179.4460  147.9930 C   0  0  0  0  0  1  0  0  0  0  0  0
  191.2370  177.2820  144.9210 O   0  0  0  0  0  0  0  0  0  0  0  0
  193.3110  174.6320  146.5880 C   0  0  0  0  0  1  0  0  0  0  0  0
  190.0780  177.2890  145.7420 C   0  0  2  0  0  3  0  0  0  0  0  0
  187.7680  175.4180  140.8930 C   0  0  0  0  0  2  0  0  0  0  0  0
  190.5460  178.3290  148.8260 C   0  0  0  0  0  2  0  0  0  0  0  0
  191.5920  177.5060  149.3640 N   0  0  0  0  0  2  0  0  0  0  0  0
  189.5870  172.6360  141.7540 C   0  0  0  0  0  3  0  0  0  0  0  0
  189.5840  173.7570  140.9090 C   0  0  0  0  0  0  0  0  0  0  0  0
  189.9660  173.6150  139.5700 C   0  0  0  0  0  3  0  0  0  0  0  0
  190.7330  172.2300  137.7510 O   0  0  0  0  0  1  0  0  0  0  0  0
  190.3570  171.2510  139.9240 C   0  0  0  0  0  3  0  0  0  0  0  0
  190.3530  172.3650  139.0790 C   0  0  0  0  0  0  0  0  0  0  0  0
  189.9730  171.3860  141.2610 C   0  0  0  0  0  3  0  0  0  0  0  0
  1 12  1  0  0  0  0
  1  4  1  0  0  0  0
  2 14  1  0  0  0  0
  2 24  1  0  0  0  0
  3  7  1  0  0  0  0
  3  9  1  0  0  0  0
  4 29  1  0  0  0  0
  4 30  1  0  0  0  0
  5 19  1  0  0  0  0
  6 22  1  0  0  0  0
  7 21  1  0  0  0  0
  8 26  1  0  0  0  0
  8 12  1  0  0  0  0
  9  6  1  0  0  0  0
  9 13  1  0  0  0  0
 10  5  1  0  0  0  0
 10  7  1  0  0  0  0
 11  6  1  0  0  0  0
 12  4  1  0  0  0  0
 13 17  1  0  0  0  0
 15 28  1  0  0  0  0
 15 20  1  0  0  0  0
 16 20  1  0  0  0  0
 16 11  1  0  0  0  0
 17  2  1  0  0  0  0
 18  8  1  0  0  0  0
 19 18  1  0  0  0  0
 20  3  1  0  0  0  0
 21 13  1  0  0  0  0
 21 27  1  0  0  0  0
 22  2  1  0  0  0  0
 23 10  1  0  0  0  0
 25 18  1  0  0  0  0
 25 27  1  0  0  0  0
 27  1  1  0  0  0  0
 28 23  1  0  0  0  0
 29 30  1  0  0  0  0
 32 23  1  0  0  0  0
 32 31  2  0  0  0  0
 33 32  1  0  0  0  0
 34 36  1  0  0  0  0
 35 37  2  0  0  0  0
 36 33  2  0  0  0  0
 36 35  1  0  0  0  0
 37 31  1  0  0  0  0
M  END
>  <MODEL>
3

>  <REMARK>
 VINA RESULT:      -9.0      2.782      6.872
  Name = 
  1 active torsions:
  status: ('A' for Active; 'I' for Inactive)
    1  A    between atoms: C_23  and  C_30
                            x       y       z     vdW  Elec       q    Type
                         _______ _______ _______ _____ _____    ______ ____

>  <TORSDO>
F 1

$$$$
=
 OpenBabel11112417293D

 37 45  0  0  1  0  0  0  0  0999 V2000
  194.5470  174.9960  143.5900 C   0  0  2  0  0  3  0  0  0  0  0  0
  193.9380  173.6200  139.3230 C   0  0  0  0  0  0  0  0  0  0  0  0
  190.2710  174.0740  141.4090 C   0  0  1  0  0  3  0  0  0  0  0  0
  195.5690  174.3910  144.5640 C   0  0  1  0  0  0  0  0  0  0  0  0
  190.4070  175.7730  144.8990 C   0  0  0  0  0  2  0  0  0  0  0  0
  191.3860  173.3700  139.2980 C   0  0  2  0  0  3  0  0  0  0  0  0
  190.7460  174.3940  142.8090 C   0  0  2  0  0  3  0  0  0  0  0  0
  193.9560  175.6080  146.0110 C   0  0  2  0  0  3  0  0  0  0  0  0
  191.5150  173.5560  140.7940 C   0  0  1  0  0  3  0  0  0  0  0  0
  189.9320  175.5420  143.4580 C   0  0  1  0  0  3  0  0  0  0  0  0
  190.2600  172.3550  139.0500 C   0  0  0  0  0  2  0  0  0  0  0  0
  194.8920  175.7570  144.8170 C   0  0  2  0  0  3  0  0  0  0  0  0
  192.5300  174.5170  141.1370 N   0  0  2  0  0  0  0  0  0  0  0  0
  194.0510  174.9370  138.5720 C   0  0  0  0  0  1  0  0  0  0  0  0
  187.8760  173.4000  141.9530 C   0  0  0  0  0  2  0  0  0  0  0  0
  188.9560  172.7560  139.7720 C   0  0  0  0  0  2  0  0  0  0  0  0
  193.8210  173.8890  140.8380 C   0  0  0  0  0  2  0  0  0  0  0  0
  192.5540  175.1610  145.6190 C   0  0  1  0  0  3  0  0  0  0  0  0
  191.7910  176.2170  144.9500 N   0  0  0  0  0  2  0  0  0  0  0  0
  189.1900  173.0090  141.2720 C   0  0  1  0  0  3  0  0  0  0  0  0
  192.2230  174.8110  142.5570 C   0  0  2  0  0  3  0  0  0  0  0  0
  192.7260  172.8190  138.7960 C   0  0  0  0  0  2  0  0  0  0  0  0
  188.4010  175.2810  143.5200 C   0  0  2  0  0  3  0  0  0  0  0  0
  195.1950  172.8170  139.0700 C   0  0  0  0  0  1  0  0  0  0  0  0
  192.6200  173.9750  144.8530 O   0  0  0  0  0  0  0  0  0  0  0  0
  193.9310  176.8840  146.8320 C   0  0  0  0  0  1  0  0  0  0  0  0
  193.2120  174.2110  143.5830 C   0  0  2  0  0  3  0  0  0  0  0  0
  187.7390  174.8990  142.1970 C   0  0  0  0  0  2  0  0  0  0  0  0
  196.4880  173.9520  143.4890 C   0  0  0  0  0  2  0  0  0  0  0  0
  196.9830  174.8470  144.4970 N   0  0  0  0  0  2  0  0  0  0  0  0
  187.3420  177.5710  143.3230 C   0  0  0  0  0  3  0  0  0  0  0  0
  187.6640  176.4510  144.1060 C   0  0  0  0  0  0  0  0  0  0  0  0
  187.2870  176.4170  145.4540 C   0  0  0  0  0  3  0  0  0  0  0  0
  186.2290  177.4590  147.3550 O   0  0  0  0  0  1  0  0  0  0  0  0
  186.2810  178.6100  145.2360 C   0  0  0  0  0  3  0  0  0  0  0  0
  186.5980  177.4950  146.0180 C   0  0  0  0  0  0  0  0  0  0  0  0
  186.6520  178.6470  143.8890 C   0  0  0  0  0  3  0  0  0  0  0  0
  1  4  1  0  0  0  0
  1 12  1  0  0  0  0
  2 17  1  0  0  0  0
  3  7  1  0  0  0  0
  4 12  1  0  0  0  0
  5 19  1  0  0  0  0
  6  9  1  0  0  0  0
  7 10  1  0  0  0  0
  8 26  1  0  0  0  0
  9 13  1  0  0  0  0
  9  3  1  0  0  0  0
 10 23  1  0  0  0  0
 10  5  1  0  0  0  0
 11  6  1  0  0  0  0
 11 16  1  0  0  0  0
 12  8  1  0  0  0  0
 13 21  1  0  0  0  0
 14  2  1  0  0  0  0
 15 28  1  0  0  0  0
 16 20  1  0  0  0  0
 17 13  1  0  0  0  0
 18  8  1  0  0  0  0
 19 18  1  0  0  0  0
 20  3  1  0  0  0  0
 20 15  1  0  0  0  0
 21  7  1  0  0  0  0
 21 27  1  0  0  0  0
 22  6  1  0  0  0  0
 22  2  1  0  0  0  0
 23 32  1  0  0  0  0
 24  2  1  0  0  0  0
 25 18  1  0  0  0  0
 27  1  1  0  0  0  0
 27 25  1  0  0  0  0
 28 23  1  0  0  0  0
 29 30  1  0  0  0  0
 29  4  1  0  0  0  0
 30  4  1  0  0  0  0
 31 37  2  0  0  0  0
 31 32  1  0  0  0  0
 32 33  2  0  0  0  0
 33 36  1  0  0  0  0
 35 36  2  0  0  0  0
 36 34  1  0  0  0  0
 37 35  1  0  0  0  0
M  END
>  <MODEL>
4

>  <REMARK>
 VINA RESULT:      -8.7      2.393      7.603
  Name = 
  1 active torsions:
  status: ('A' for Active; 'I' for Inactive)
    1  A    between atoms: C_23  and  C_30
                            x       y       z     vdW  Elec       q    Type
                         _______ _______ _______ _____ _____    ______ ____

>  <TORSDO>
F 1

$$$$
=
 OpenBabel11112417293D

 37 45  0  0  1  0  0  0  0  0999 V2000
  195.0210  175.4510  142.8940 C   0  0  2  0  0  3  0  0  0  0  0  0
  194.1220  173.7770  138.7870 C   0  0  0  0  0  0  0  0  0  0  0  0
  190.6690  173.9560  141.2460 C   0  0  1  0  0  3  0  0  0  0  0  0
  196.2010  175.0150  143.7750 C   0  0  1  0  0  0  0  0  0  0  0  0
  190.9820  175.8570  144.6190 C   0  0  0  0  0  2  0  0  0  0  0  0
  191.6260  173.2560  139.0580 C   0  0  2  0  0  3  0  0  0  0  0  0
  191.2500  174.4050  142.5690 C   0  0  2  0  0  3  0  0  0  0  0  0
  194.6240  176.1340  145.3350 C   0  0  2  0  0  3  0  0  0  0  0  0
  191.8910  173.5400  140.5200 C   0  0  1  0  0  3  0  0  0  0  0  0
  190.3850  175.4940  143.2510 C   0  0  1  0  0  3  0  0  0  0  0  0
  190.6000  172.1140  138.9820 C   0  0  0  0  0  2  0  0  0  0  0  0
  195.4060  176.3130  144.0390 C   0  0  2  0  0  3  0  0  0  0  0  0
  192.8230  174.6210  140.7040 N   0  0  2  0  0  0  0  0  0  0  0  0
  194.0070  175.0530  137.9700 C   0  0  0  0  0  1  0  0  0  0  0  0
  188.4350  173.0640  142.0830 C   0  0  0  0  0  2  0  0  0  0  0  0
  189.3440  172.4150  139.8270 C   0  0  0  0  0  2  0  0  0  0  0  0
  194.1370  174.1170  140.2920 C   0  0  0  0  0  2  0  0  0  0  0  0
  193.2470  175.5180  145.1220 C   0  0  1  0  0  3  0  0  0  0  0  0
  192.3040  176.4480  144.4950 N   0  0  0  0  0  2  0  0  0  0  0  0
  189.7050  172.7760  141.2780 C   0  0  1  0  0  3  0  0  0  0  0  0
  192.6360  174.9610  142.1350 C   0  0  2  0  0  3  0  0  0  0  0  0
  192.9580  172.8230  138.4350 C   0  0  0  0  0  2  0  0  0  0  0  0
  188.9090  175.0770  143.4950 C   0  0  2  0  0  3  0  0  0  0  0  0
  195.4280  173.0990  138.4330 C   0  0  0  0  0  1  0  0  0  0  0  0
  193.3650  174.3050  144.4080 O   0  0  0  0  0  0  0  0  0  0  0  0
  194.5440  177.4450  146.0960 C   0  0  0  0  0  1  0  0  0  0  0  0
  193.7890  174.5290  143.0710 C   0  0  2  0  0  3  0  0  0  0  0  0
  188.1580  174.5510  142.2730 C   0  0  0  0  0  2  0  0  0  0  0  0
  197.0450  174.6150  142.6240 C   0  0  0  0  0  2  0  0  0  0  0  0
  197.5400  175.6140  143.5300 N   0  0  0  0  0  2  0  0  0  0  0  0
  187.9280  176.2760  145.4960 C   0  0  0  0  0  3  0  0  0  0  0  0
  188.1110  176.1930  144.1060 C   0  0  0  0  0  0  0  0  0  0  0  0
  187.5470  177.1660  143.2740 C   0  0  0  0  0  3  0  0  0  0  0  0
  186.2430  179.1760  142.9940 O   0  0  0  0  0  1  0  0  0  0  0  0
  186.6210  178.2930  145.2070 C   0  0  0  0  0  3  0  0  0  0  0  0
  186.8030  178.2140  143.8230 C   0  0  0  0  0  0  0  0  0  0  0  0
  187.1840  177.3260  146.0430 C   0  0  0  0  0  3  0  0  0  0  0  0
  1 27  1  0  0  0  0
  1  4  1  0  0  0  0
  1 12  1  0  0  0  0
  2 17  1  0  0  0  0
  3 20  1  0  0  0  0
  3  7  1  0  0  0  0
  4 12  1  0  0  0  0
  6  9  1  0  0  0  0
  7 10  1  0  0  0  0
  8 26  1  0  0  0  0
  9 13  1  0  0  0  0
  9  3  1  0  0  0  0
 10 23  1  0  0  0  0
 10  5  1  0  0  0  0
 11  6  1  0  0  0  0
 11 16  1  0  0  0  0
 12  8  1  0  0  0  0
 13 21  1  0  0  0  0
 14  2  1  0  0  0  0
 15 28  1  0  0  0  0
 16 20  1  0  0  0  0
 17 13  1  0  0  0  0
 18  8  1  0  0  0  0
 19  5  1  0  0  0  0
 19 18  1  0  0  0  0
 20 15  1  0  0  0  0
 21  7  1  0  0  0  0
 21 27  1  0  0  0  0
 22  2  1  0  0  0  0
 22  6  1  0  0  0  0
 23 32  1  0  0  0  0
 24  2  1  0  0  0  0
 25 18  1  0  0  0  0
 27 25  1  0  0  0  0
 28 23  1  0  0  0  0
 29 30  1  0  0  0  0
 29  4  1  0  0  0  0
 30  4  1  0  0  0  0
 31 37  1  0  0  0  0
 32 31  2  0  0  0  0
 33 36  2  0  0  0  0
 33 32  1  0  0  0  0
 34 36  1  0  0  0  0
 35 37  2  0  0  0  0
 36 35  1  0  0  0  0
M  END
>  <MODEL>
5

>  <REMARK>
 VINA RESULT:      -8.6      2.506      7.527
  Name = 
  1 active torsions:
  status: ('A' for Active; 'I' for Inactive)
    1  A    between atoms: C_23  and  C_30
                            x       y       z     vdW  Elec       q    Type
                         _______ _______ _______ _____ _____    ______ ____

>  <TORSDO>
F 1

$$$$
=
 OpenBabel11112417293D

 37 45  0  0  1  0  0  0  0  0999 V2000
  191.6270  171.5640  141.0350 C   0  0  2  0  0  3  0  0  0  0  0  0
  195.0530  170.7740  143.8830 C   0  0  0  0  0  0  0  0  0  0  0  0
  193.0400  174.4070  144.7510 C   0  0  1  0  0  3  0  0  0  0  0  0
  191.7130  171.4290  139.5080 C   0  0  1  0  0  0  0  0  0  0  0  0
  189.7200  175.0990  142.8580 C   0  0  0  0  0  2  0  0  0  0  0  0
  194.9390  172.9000  145.3130 C   0  0  2  0  0  3  0  0  0  0  0  0
  192.0590  174.5020  143.6030 C   0  0  2  0  0  3  0  0  0  0  0  0
  189.6990  172.8280  139.9090 C   0  0  2  0  0  3  0  0  0  0  0  0
  193.9700  173.3690  144.2500 C   0  0  1  0  0  3  0  0  0  0  0  0
  190.6500  174.9480  144.0700 C   0  0  1  0  0  3  0  0  0  0  0  0
  195.7630  174.1160  145.7630 C   0  0  0  0  0  2  0  0  0  0  0  0
  190.3640  171.5010  140.2580 C   0  0  2  0  0  3  0  0  0  0  0  0
  193.1240  172.3040  143.7790 N   0  0  2  0  0  0  0  0  0  0  0  0
  194.4070  169.8030  144.8560 C   0  0  0  0  0  1  0  0  0  0  0  0
  192.9770  176.8330  145.5220 C   0  0  0  0  0  2  0  0  0  0  0  0
  194.8610  175.2980  146.1780 C   0  0  0  0  0  2  0  0  0  0  0  0
  193.9740  171.4120  142.9840 C   0  0  0  0  0  2  0  0  0  0  0  0
  190.1010  173.9620  140.8430 C   0  0  1  0  0  3  0  0  0  0  0  0
  189.5080  173.8320  142.1760 N   0  0  0  0  0  2  0  0  0  0  0  0
  193.8490  175.6570  145.0760 C   0  0  1  0  0  3  0  0  0  0  0  0
  192.0510  173.0410  143.0700 C   0  0  2  0  0  3  0  0  0  0  0  0
  195.8450  171.8480  144.6630 C   0  0  0  0  0  2  0  0  0  0  0  0
  190.6290  176.3030  144.8300 C   0  0  2  0  0  3  0  0  0  0  0  0
  196.0170  170.0030  143.0070 C   0  0  0  0  0  1  0  0  0  0  0  0
  191.5090  174.0760  140.8870 O   0  0  0  0  0  0  0  0  0  0  0  0
  188.1910  172.6660  139.8360 C   0  0  0  0  0  1  0  0  0  0  0  0
  192.1000  172.9540  141.5270 C   0  0  2  0  0  3  0  0  0  0  0  0
  191.5930  176.4160  146.0100 C   0  0  0  0  0  2  0  0  0  0  0  0
  192.7930  170.4150  139.5550 C   0  0  0  0  0  2  0  0  0  0  0  0
  191.5620  170.0820  138.8950 N   0  0  0  0  0  2  0  0  0  0  0  0
  188.7110  176.0680  146.4630 C   0  0  0  0  0  3  0  0  0  0  0  0
  189.2480  176.6510  145.3040 C   0  0  0  0  0  0  0  0  0  0  0  0
  188.4880  177.5770  144.5800 C   0  0  0  0  0  3  0  0  0  0  0  0
  186.4500  178.8330  144.2830 O   0  0  0  0  0  1  0  0  0  0  0  0
  186.6680  177.3310  146.1580 C   0  0  0  0  0  3  0  0  0  0  0  0
  187.2010  177.9160  145.0050 C   0  0  0  0  0  0  0  0  0  0  0  0
  187.4230  176.4090  146.8880 C   0  0  0  0  0  3  0  0  0  0  0  0
  1 27  1  0  0  0  0
  2 22  1  0  0  0  0
  2 14  1  0  0  0  0
  3 20  1  0  0  0  0
  4 29  1  0  0  0  0
  4 12  1  0  0  0  0
  4  1  1  0  0  0  0
  5 10  1  0  0  0  0
  6 11  1  0  0  0  0
  7 10  1  0  0  0  0
  7  3  1  0  0  0  0
  8 12  1  0  0  0  0
  8 18  1  0  0  0  0
  9  3  1  0  0  0  0
  9  6  1  0  0  0  0
 10 23  1  0  0  0  0
 11 16  1  0  0  0  0
 12  1  1  0  0  0  0
 13  9  1  0  0  0  0
 15 28  1  0  0  0  0
 17 13  1  0  0  0  0
 17  2  1  0  0  0  0
 18 25  1  0  0  0  0
 18 19  1  0  0  0  0
 19  5  1  0  0  0  0
 20 15  1  0  0  0  0
 20 16  1  0  0  0  0
 21  7  1  0  0  0  0
 21 13  1  0  0  0  0
 22  6  1  0  0  0  0
 23 32  1  0  0  0  0
 23 28  1  0  0  0  0
 24  2  1  0  0  0  0
 25 27  1  0  0  0  0
 26  8  1  0  0  0  0
 27 21  1  0  0  0  0
 30  4  1  0  0  0  0
 30 29  1  0  0  0  0
 31 37  1  0  0  0  0
 32 31  2  0  0  0  0
 33 36  2  0  0  0  0
 33 32  1  0  0  0  0
 34 36  1  0  0  0  0
 35 37  2  0  0  0  0
 36 35  1  0  0  0  0
M  END
>  <MODEL>
6

>  <REMARK>
 VINA RESULT:      -8.6      2.185      6.439
  Name = 
  1 active torsions:
  status: ('A' for Active; 'I' for Inactive)
    1  A    between atoms: C_23  and  C_30
                            x       y       z     vdW  Elec       q    Type
                         _______ _______ _______ _____ _____    ______ ____

>  <TORSDO>
F 1

$$$$
=
 OpenBabel11112417293D

 37 45  0  0  1  0  0  0  0  0999 V2000
  188.3450  176.9970  144.0250 C   0  0  2  0  0  3  0  0  0  0  0  0
  192.1570  175.9370  146.2190 C   0  0  0  0  0  0  0  0  0  0  0  0
  191.4240  173.3650  142.9250 C   0  0  1  0  0  3  0  0  0  0  0  0
  186.9970  177.2840  144.7060 C   0  0  1  0  0  0  0  0  0  0  0  0
  188.5470  174.3450  140.5070 C   0  0  0  0  0  2  0  0  0  0  0  0
  192.8820  173.8760  144.8760 C   0  0  2  0  0  3  0  0  0  0  0  0
  190.0600  173.8300  142.4630 C   0  0  2  0  0  3  0  0  0  0  0  0
  186.4220  176.7920  142.3390 C   0  0  2  0  0  3  0  0  0  0  0  0
  191.5020  173.9880  144.2660 C   0  0  1  0  0  3  0  0  0  0  0  0
  189.9690  173.9420  140.9210 C   0  0  1  0  0  3  0  0  0  0  0  0
  193.2120  172.3820  145.0130 C   0  0  0  0  0  2  0  0  0  0  0  0
  187.2830  177.6720  143.2370 C   0  0  2  0  0  3  0  0  0  0  0  0
  191.1060  175.3570  144.0670 N   0  0  2  0  0  0  0  0  0  0  0  0
  193.1250  176.9510  145.6320 C   0  0  0  0  0  1  0  0  0  0  0  0
  191.4770  171.0980  141.7660 C   0  0  0  0  0  2  0  0  0  0  0  0
  193.0250  171.6280  143.6790 C   0  0  0  0  0  2  0  0  0  0  0  0
  190.8520  175.9200  145.3970 C   0  0  0  0  0  2  0  0  0  0  0  0
  187.0990  175.4810  141.9610 C   0  0  1  0  0  3  0  0  0  0  0  0
  188.1910  175.6650  141.0020 N   0  0  0  0  0  2  0  0  0  0  0  0
  191.6250  171.8620  143.0830 C   0  0  1  0  0  3  0  0  0  0  0  0
  189.9510  175.2230  143.1470 C   0  0  2  0  0  3  0  0  0  0  0  0
  192.8200  174.5410  146.2560 C   0  0  0  0  0  2  0  0  0  0  0  0
  190.3070  172.6270  140.1650 C   0  0  2  0  0  3  0  0  0  0  0  0
  191.8290  176.3540  147.6360 C   0  0  0  0  0  1  0  0  0  0  0  0
  187.5130  174.7960  143.1260 O   0  0  0  0  0  0  0  0  0  0  0  0
  185.9650  177.5630  141.1150 C   0  0  0  0  0  1  0  0  0  0  0  0
  188.5670  175.4840  143.7850 C   0  0  2  0  0  3  0  0  0  0  0  0
  191.6400  171.9760  140.5290 C   0  0  0  0  0  2  0  0  0  0  0  0
  187.6170  177.7520  145.9670 C   0  0  0  0  0  2  0  0  0  0  0  0
  186.7450  178.6430  145.2550 N   0  0  0  0  0  2  0  0  0  0  0  0
  189.4080  172.0340  137.8750 C   0  0  0  0  0  3  0  0  0  0  0  0
  190.2560  172.8160  138.6760 C   0  0  0  0  0  0  0  0  0  0  0  0
  191.0650  173.7910  138.0810 C   0  0  0  0  0  3  0  0  0  0  0  0
  191.8360  174.9500  136.1110 O   0  0  0  0  0  1  0  0  0  0  0  0
  190.1860  173.2010  135.9020 C   0  0  0  0  0  3  0  0  0  0  0  0
  191.0310  173.9830  136.6970 C   0  0  0  0  0  0  0  0  0  0  0  0
  189.3740  172.2280  136.4910 C   0  0  0  0  0  3  0  0  0  0  0  0
  1  4  1  0  0  0  0
  2 22  1  0  0  0  0
  2 24  1  0  0  0  0
  3 20  1  0  0  0  0
  3  9  1  0  0  0  0
  4 30  1  0  0  0  0
  4 29  1  0  0  0  0
  5 10  1  0  0  0  0
  5 19  1  0  0  0  0
  6 11  1  0  0  0  0
  6 22  1  0  0  0  0
  7  3  1  0  0  0  0
  7 21  1  0  0  0  0
  8 12  1  0  0  0  0
  9  6  1  0  0  0  0
 10  7  1  0  0  0  0
 12  1  1  0  0  0  0
 12  4  1  0  0  0  0
 13  9  1  0  0  0  0
 13 17  1  0  0  0  0
 14  2  1  0  0  0  0
 15 20  1  0  0  0  0
 16 11  1  0  0  0  0
 17  2  1  0  0  0  0
 18  8  1  0  0  0  0
 18 25  1  0  0  0  0
 19 18  1  0  0  0  0
 20 16  1  0  0  0  0
 21 27  1  0  0  0  0
 21 13  1  0  0  0  0
 23 28  1  0  0  0  0
 23 10  1  0  0  0  0
 25 27  1  0  0  0  0
 26  8  1  0  0  0  0
 27  1  1  0  0  0  0
 28 15  1  0  0  0  0
 30 29  1  0  0  0  0
 31 32  1  0  0  0  0
 32 23  1  0  0  0  0
 33 32  2  0  0  0  0
 34 36  1  0  0  0  0
 35 37  1  0  0  0  0
 35 36  2  0  0  0  0
 36 33  1  0  0  0  0
 37 31  2  0  0  0  0
M  END
>  <MODEL>
7

>  <REMARK>
 VINA RESULT:      -8.1      2.657      6.902
  Name = 
  1 active torsions:
  status: ('A' for Active; 'I' for Inactive)
    1  A    between atoms: C_23  and  C_30
                            x       y       z     vdW  Elec       q    Type
                         _______ _______ _______ _____ _____    ______ ____

>  <TORSDO>
F 1

$$$$
=
 OpenBabel11112417293D

 37 45  0  0  1  0  0  0  0  0999 V2000
  193.5070  174.8240  144.4750 C   0  0  2  0  0  3  0  0  0  0  0  0
  189.6900  176.0300  146.5820 C   0  0  0  0  0  0  0  0  0  0  0  0
  189.0550  175.1430  142.4820 C   0  0  1  0  0  3  0  0  0  0  0  0
  194.8430  175.5740  144.5910 C   0  0  1  0  0  0  0  0  0  0  0  0
  192.0070  173.5400  140.5300 C   0  0  0  0  0  2  0  0  0  0  0  0
  188.0500  175.9470  144.6120 C   0  0  2  0  0  3  0  0  0  0  0  0
  190.4680  174.9130  141.9900 C   0  0  2  0  0  3  0  0  0  0  0  0
  195.0710  174.1850  142.5440 C   0  0  2  0  0  3  0  0  0  0  0  0
  189.3080  175.8060  143.7820 C   0  0  1  0  0  3  0  0  0  0  0  0
  190.5710  173.6810  141.0560 C   0  0  1  0  0  3  0  0  0  0  0  0
  187.0560  176.8020  143.8120 C   0  0  0  0  0  2  0  0  0  0  0  0
  194.7460  174.1360  144.0320 C   0  0  2  0  0  3  0  0  0  0  0  0
  190.3000  174.9920  144.4320 N   0  0  2  0  0  0  0  0  0  0  0  0
  189.3050  174.7260  147.2610 C   0  0  0  0  0  1  0  0  0  0  0  0
  187.9150  175.5100  140.2350 C   0  0  0  0  0  2  0  0  0  0  0  0
  186.8390  176.2490  142.3880 C   0  0  0  0  0  2  0  0  0  0  0  0
  190.8150  175.7770  145.5590 C   0  0  0  0  0  2  0  0  0  0  0  0
  193.8480  174.4390  141.6730 C   0  0  1  0  0  3  0  0  0  0  0  0
  192.9540  173.2800  141.6030 N   0  0  0  0  0  2  0  0  0  0  0  0
  188.1710  176.0560  141.6420 C   0  0  1  0  0  3  0  0  0  0  0  0
  191.2360  174.6860  143.3240 C   0  0  2  0  0  3  0  0  0  0  0  0
  188.4460  176.6570  145.9120 C   0  0  0  0  0  2  0  0  0  0  0  0
  189.6380  173.7420  139.8150 C   0  0  2  0  0  3  0  0  0  0  0  0
  190.2030  176.9850  147.6380 C   0  0  0  0  0  1  0  0  0  0  0  0
  193.1820  175.6090  142.1030 O   0  0  0  0  0  0  0  0  0  0  0  0
  195.8140  172.9310  142.1190 C   0  0  0  0  0  1  0  0  0  0  0  0
  192.5910  175.4290  143.3820 C   0  0  2  0  0  3  0  0  0  0  0  0
  188.1620  174.0110  140.1080 C   0  0  0  0  0  2  0  0  0  0  0  0
  194.5420  176.1090  145.9400 C   0  0  0  0  0  2  0  0  0  0  0  0
  195.7180  175.3040  145.7630 N   0  0  0  0  0  2  0  0  0  0  0  0
  189.9750  171.2460  139.5730 C   0  0  0  0  0  3  0  0  0  0  0  0
  189.7420  172.4980  138.9810 C   0  0  0  0  0  0  0  0  0  0  0  0
  189.5990  172.5910  137.5920 C   0  0  0  0  0  3  0  0  0  0  0  0
  189.5510  171.5410  135.4210 O   0  0  0  0  0  1  0  0  0  0  0  0
  189.9260  170.1990  137.3910 C   0  0  0  0  0  3  0  0  0  0  0  0
  189.6910  171.4440  136.7980 C   0  0  0  0  0  0  0  0  0  0  0  0
  190.0660  170.1000  138.7770 C   0  0  0  0  0  3  0  0  0  0  0  0
  1  4  1  0  0  0  0
  2 14  1  0  0  0  0
  2 24  1  0  0  0  0
  3  9  1  0  0  0  0
  4 30  1  0  0  0  0
  4 29  1  0  0  0  0
  5 10  1  0  0  0  0
  5 19  1  0  0  0  0
  6 22  1  0  0  0  0
  7  3  1  0  0  0  0
  7 21  1  0  0  0  0
  8 12  1  0  0  0  0
  9 13  1  0  0  0  0
  9  6  1  0  0  0  0
 10  7  1  0  0  0  0
 11  6  1  0  0  0  0
 12  1  1  0  0  0  0
 12  4  1  0  0  0  0
 13 17  1  0  0  0  0
 15 20  1  0  0  0  0
 16 11  1  0  0  0  0
 17  2  1  0  0  0  0
 18 25  1  0  0  0  0
 18  8  1  0  0  0  0
 19 18  1  0  0  0  0
 20 16  1  0  0  0  0
 20  3  1  0  0  0  0
 21 27  1  0  0  0  0
 21 13  1  0  0  0  0
 22  2  1  0  0  0  0
 23 28  1  0  0  0  0
 23 10  1  0  0  0  0
 25 27  1  0  0  0  0
 26  8  1  0  0  0  0
 27  1  1  0  0  0  0
 28 15  1  0  0  0  0
 30 29  1  0  0  0  0
 32 31  1  0  0  0  0
 32 23  1  0  0  0  0
 33 32  2  0  0  0  0
 34 36  1  0  0  0  0
 35 37  1  0  0  0  0
 36 35  2  0  0  0  0
 36 33  1  0  0  0  0
 37 31  2  0  0  0  0
M  END
>  <MODEL>
8

>  <REMARK>
 VINA RESULT:      -8.0      2.253      6.588
  Name = 
  1 active torsions:
  status: ('A' for Active; 'I' for Inactive)
    1  A    between atoms: C_23  and  C_30
                            x       y       z     vdW  Elec       q    Type
                         _______ _______ _______ _____ _____    ______ ____

>  <TORSDO>
F 1

$$$$
=
 OpenBabel11112417293D

 37 45  0  0  1  0  0  0  0  0999 V2000
  191.4590  175.8050  143.9540 C   0  0  2  0  0  3  0  0  0  0  0  0
  188.8960  173.4800  141.0390 C   0  0  0  0  0  0  0  0  0  0  0  0
  192.4970  171.4490  141.9960 C   0  0  1  0  0  3  0  0  0  0  0  0
  191.7830  177.3020  143.8290 C   0  0  1  0  0  0  0  0  0  0  0  0
  194.6460  172.9030  144.8860 C   0  0  0  0  0  2  0  0  0  0  0  0
  190.4180  171.4570  140.6270 C   0  0  2  0  0  3  0  0  0  0  0  0
  193.2140  172.4720  142.8500 C   0  0  2  0  0  3  0  0  0  0  0  0
  193.4980  176.4080  145.3890 C   0  0  2  0  0  3  0  0  0  0  0  0
  191.4460  172.2840  141.3700 C   0  0  1  0  0  3  0  0  0  0  0  0
  193.8730  171.8350  144.1000 C   0  0  1  0  0  3  0  0  0  0  0  0
  191.1520  170.6850  139.5200 C   0  0  0  0  0  2  0  0  0  0  0  0
  191.9980  176.5140  145.1420 C   0  0  2  0  0  3  0  0  0  0  0  0
  190.8630  173.0290  142.4540 N   0  0  2  0  0  0  0  0  0  0  0  0
  187.8960  172.8310  141.9810 C   0  0  0  0  0  1  0  0  0  0  0  0
  194.4810  169.9620  141.4170 C   0  0  0  0  0  2  0  0  0  0  0  0
  192.3530  169.8890  140.0750 C   0  0  0  0  0  2  0  0  0  0  0  0
  190.0570  174.0940  141.8480 C   0  0  0  0  0  2  0  0  0  0  0  0
  194.1270  175.1850  144.7350 C   0  0  1  0  0  3  0  0  0  0  0  0
  193.7660  173.9360  145.4090 N   0  0  0  0  0  2  0  0  0  0  0  0
  193.3040  170.7850  140.8870 C   0  0  1  0  0  3  0  0  0  0  0  0
  192.0540  173.4320  143.2390 C   0  0  2  0  0  3  0  0  0  0  0  0
  189.4070  172.4370  140.0190 C   0  0  0  0  0  2  0  0  0  0  0  0
  194.8750  170.6920  143.7800 C   0  0  2  0  0  3  0  0  0  0  0  0
  188.1940  174.5880  140.2860 C   0  0  0  0  0  1  0  0  0  0  0  0
  193.8200  175.1630  143.3560 O   0  0  0  0  0  0  0  0  0  0  0  0
  193.7990  176.4690  146.8760 C   0  0  0  0  0  1  0  0  0  0  0  0
  192.4360  174.9260  143.1360 C   0  0  2  0  0  3  0  0  0  0  0  0
  194.3420  169.5730  142.8850 C   0  0  0  0  0  2  0  0  0  0  0  0
  190.5430  177.6140  143.0810 C   0  0  0  0  0  2  0  0  0  0  0  0
  190.7910  178.2950  144.3200 N   0  0  0  0  0  2  0  0  0  0  0  0
  196.8120  170.1160  145.3020 C   0  0  0  0  0  3  0  0  0  0  0  0
  195.4350  170.0790  145.0310 C   0  0  0  0  0  0  0  0  0  0  0  0
  194.5660  169.4680  145.9430 C   0  0  0  0  0  3  0  0  0  0  0  0
  194.2030  168.2880  148.0150 O   0  0  0  0  0  1  0  0  0  0  0  0
  196.4400  168.9310  147.3800 C   0  0  0  0  0  3  0  0  0  0  0  0
  195.0680  168.8950  147.1140 C   0  0  0  0  0  0  0  0  0  0  0  0
  197.3120  169.5420  146.4750 C   0  0  0  0  0  3  0  0  0  0  0  0
  1 12  1  0  0  0  0
  2 17  1  0  0  0  0
  2 14  1  0  0  0  0
  3  7  1  0  0  0  0
  4  1  1  0  0  0  0
  4 30  1  0  0  0  0
  4 12  1  0  0  0  0
  5 19  1  0  0  0  0
  6  9  1  0  0  0  0
  7 21  1  0  0  0  0
  7 10  1  0  0  0  0
  8 26  1  0  0  0  0
  9  3  1  0  0  0  0
  9 13  1  0  0  0  0
 10  5  1  0  0  0  0
 11 16  1  0  0  0  0
 11  6  1  0  0  0  0
 12  8  1  0  0  0  0
 13 21  1  0  0  0  0
 15 28  1  0  0  0  0
 16 20  1  0  0  0  0
 17 13  1  0  0  0  0
 18  8  1  0  0  0  0
 18 19  1  0  0  0  0
 20 15  1  0  0  0  0
 20  3  1  0  0  0  0
 22  6  1  0  0  0  0
 22  2  1  0  0  0  0
 23 10  1  0  0  0  0
 23 32  1  0  0  0  0
 24  2  1  0  0  0  0
 25 18  1  0  0  0  0
 27 21  1  0  0  0  0
 27 25  1  0  0  0  0
 27  1  1  0  0  0  0
 28 23  1  0  0  0  0
 29  4  1  0  0  0  0
 29 30  1  0  0  0  0
 31 37  1  0  0  0  0
 32 31  2  0  0  0  0
 32 33  1  0  0  0  0
 33 36  2  0  0  0  0
 36 35  1  0  0  0  0
 36 34  1  0  0  0  0
 37 35  2  0  0  0  0
M  END
>  <MODEL>
9

>  <REMARK>
 VINA RESULT:      -7.7      2.695      5.937
  Name = 
  1 active torsions:
  status: ('A' for Active; 'I' for Inactive)
    1  A    between atoms: C_23  and  C_30
                            x       y       z     vdW  Elec       q    Type
                         _______ _______ _______ _____ _____    ______ ____

>  <TORSDO>
F 1

$$$$
