=
 OpenBabel11112416543D

 31 35  0  0  1  0  0  0  0  0999 V2000
  184.9500  178.0590  146.8390 C   0  0  0  0  0  0  0  0  0  0  0  0
  186.8850  177.6330  143.6370 C   0  0  0  0  0  0  0  0  0  0  0  0
  185.9650  177.8010  142.5600 C   0  0  0  0  0  0  0  0  0  0  0  0
  191.4760  176.7800  146.0940 O   0  0  0  0  0  0  0  0  0  0  0  0
  191.6490  176.7080  144.8490 C   0  0  0  0  0  0  0  0  0  0  0  0
  183.7340  178.2330  141.6670 C   0  0  0  0  0  0  0  0  0  0  0  0
  186.5450  177.7190  145.0200 C   0  0  0  0  0  0  0  0  0  0  0  0
  185.9630  177.8710  147.7780 C   0  0  0  0  0  3  0  0  0  0  0  0
  184.5990  178.0760  142.7510 C   0  0  0  0  0  3  0  0  0  0  0  0
  189.1970  177.1840  144.3040 C   0  0  0  0  0  0  0  0  0  0  0  0
  183.6850  178.3160  147.2470 F   0  0  0  0  0  0  0  0  0  0  0  0
  187.7460  177.4280  140.9990 N   0  0  0  0  0  0  0  0  0  0  0  0
  182.0400  178.5720  141.9440 Cl  0  0  0  0  0  0  0  0  0  0  0  0
  188.8350  177.2720  145.6080 N   0  0  0  0  0  0  0  0  0  0  0  0
  188.2360  177.3610  143.2990 C   0  0  0  0  0  0  0  0  0  0  0  0
  190.5570  176.9080  143.9410 N   0  0  0  0  0  2  0  0  0  0  0  0
  185.2410  177.9840  145.4740 C   0  0  0  0  0  3  0  0  0  0  0  0
  184.2190  178.1190  140.3640 C   0  0  0  0  0  3  0  0  0  0  0  0
  187.5620  177.5300  145.9900 C   0  0  0  0  0  0  0  0  0  0  0  0
  187.2650  177.6070  147.3540 C   0  0  0  0  0  3  0  0  0  0  0  0
  188.6120  177.2690  141.9960 N   0  0  0  0  0  0  0  0  0  0  0  0
  186.4390  177.6900  141.2300 C   0  0  0  0  0  0  0  0  0  0  0  0
  185.5700  177.8490  140.1470 C   0  0  0  0  0  3  0  0  0  0  0  0
  193.7140  173.6160  144.5540 C   0  0  1  0  0  3  0  0  0  0  0  0
  192.9800  175.4100  143.1690 C   0  0  0  0  0  2  0  0  0  0  0  0
  194.0550  176.8500  146.6100 C   0  0  0  0  0  1  0  0  0  0  0  0
  193.4510  172.1820  144.9620 C   0  0  0  0  0  1  0  0  0  0  0  0
  192.6510  174.0700  143.6600 N   0  0  0  0  0  2  0  0  0  0  0  0
  194.0220  175.9410  145.3940 C   0  0  2  0  0  3  0  0  0  0  0  0
  193.0260  176.4180  144.3220 C   0  0  2  0  0  3  0  0  0  0  0  0
  193.7630  174.4940  145.8030 C   0  0  0  0  0  2  0  0  0  0  0  0
  1 11  1  0  0  0  0
  1  8  1  0  0  0  0
  2  7  1  0  0  0  0
  3  9  1  0  0  0  0
  3  2  2  0  0  0  0
  5  4  2  0  0  0  0
  6 13  1  0  0  0  0
  6  9  2  0  0  0  0
  7 17  1  0  0  0  0
  7 19  2  0  0  0  0
 10 14  2  0  0  0  0
 12 22  2  0  0  0  0
 12 21  1  0  0  0  0
 14 19  1  0  0  0  0
 15  2  1  0  0  0  0
 15 10  1  0  0  0  0
 16 10  1  0  0  0  0
 16  5  1  0  0  0  0
 17  1  2  0  0  0  0
 18  6  1  0  0  0  0
 19 20  1  0  0  0  0
 20  8  2  0  0  0  0
 21 15  2  0  0  0  0
 22  3  1  0  0  0  0
 23 18  2  0  0  0  0
 23 22  1  0  0  0  0
 24 27  1  1  0  0  0
 24 31  1  0  0  0  0
 25 28  1  0  0  0  0
 25 30  1  0  0  0  0
 28 24  1  0  0  0  0
 29 31  1  0  0  0  0
 29 26  1  1  0  0  0
 30  5  1  1  0  0  0
 30 29  1  0  0  0  0
M  END
>  <MODEL>
1

>  <REMARK>
 VINA RESULT:     -10.3      0.000      0.000
  Name = 
  1 active torsions:
  status: ('A' for Active; 'I' for Inactive)
    1  A    between atoms: C_5  and  C_30
                            x       y       z     vdW  Elec       q    Type
                         _______ _______ _______ _____ _____    ______ ____

>  <TORSDO>
F 1

$$$$
=
 OpenBabel11112416543D

 31 35  0  0  1  0  0  0  0  0999 V2000
  184.5460  178.4530  146.1330 C   0  0  0  0  0  0  0  0  0  0  0  0
  187.0510  177.1040  143.6660 C   0  0  0  0  0  0  0  0  0  0  0  0
  186.5100  177.2990  142.3620 C   0  0  0  0  0  0  0  0  0  0  0  0
  190.4910  175.6530  147.3950 O   0  0  0  0  0  0  0  0  0  0  0  0
  190.9490  175.3470  146.2630 C   0  0  0  0  0  0  0  0  0  0  0  0
  184.7660  178.0680  140.8350 C   0  0  0  0  0  0  0  0  0  0  0  0
  186.4060  177.4810  144.8820 C   0  0  0  0  0  0  0  0  0  0  0  0
  185.2050  178.1950  147.3340 C   0  0  0  0  0  3  0  0  0  0  0  0
  185.2580  177.8970  142.1310 C   0  0  0  0  0  3  0  0  0  0  0  0
  188.9230  176.2630  145.0020 C   0  0  0  0  0  0  0  0  0  0  0  0
  183.3290  179.0460  146.1390 F   0  0  0  0  0  0  0  0  0  0  0  0
  188.4700  176.2950  141.4130 N   0  0  0  0  0  0  0  0  0  0  0  0
  183.2030  178.8150  140.5870 Cl  0  0  0  0  0  0  0  0  0  0  0  0
  188.2780  176.6360  146.1350 N   0  0  0  0  0  0  0  0  0  0  0  0
  188.3270  176.4880  143.7540 C   0  0  0  0  0  0  0  0  0  0  0  0
  190.2120  175.6380  145.0680 N   0  0  0  0  0  2  0  0  0  0  0  0
  185.1440  178.0980  144.9210 C   0  0  0  0  0  3  0  0  0  0  0  0
  185.5180  177.6440  139.7400 C   0  0  0  0  0  3  0  0  0  0  0  0
  187.0610  177.2280  146.1140 C   0  0  0  0  0  0  0  0  0  0  0  0
  186.4590  177.5850  147.3250 C   0  0  0  0  0  3  0  0  0  0  0  0
  188.9830  176.1090  142.6260 N   0  0  0  0  0  0  0  0  0  0  0  0
  187.2590  176.8750  141.2380 C   0  0  0  0  0  0  0  0  0  0  0  0
  186.7640  177.0490  139.9430 C   0  0  0  0  0  3  0  0  0  0  0  0
  193.7810  175.5180  143.8410 C   0  0  1  0  0  3  0  0  0  0  0  0
  193.4280  175.7080  146.1890 C   0  0  0  0  0  2  0  0  0  0  0  0
  191.3100  172.7450  144.8460 C   0  0  0  0  0  1  0  0  0  0  0  0
  193.9640  176.2910  142.5530 C   0  0  0  0  0  1  0  0  0  0  0  0
  193.4750  176.4480  144.9270 N   0  0  0  0  0  2  0  0  0  0  0  0
  192.4510  173.7390  144.9690 C   0  0  2  0  0  3  0  0  0  0  0  0
  192.2920  174.6780  146.1780 C   0  0  2  0  0  3  0  0  0  0  0  0
  192.6420  174.5150  143.6700 C   0  0  0  0  0  2  0  0  0  0  0  0
  1 11  1  0  0  0  0
  1  8  1  0  0  0  0
  2 15  1  0  0  0  0
  2  7  1  0  0  0  0
  3  2  2  0  0  0  0
  5  4  2  0  0  0  0
  6  9  2  0  0  0  0
  7 17  1  0  0  0  0
  7 19  2  0  0  0  0
  9  3  1  0  0  0  0
 10 16  1  0  0  0  0
 10 14  2  0  0  0  0
 12 21  1  0  0  0  0
 13  6  1  0  0  0  0
 15 10  1  0  0  0  0
 16  5  1  0  0  0  0
 17  1  2  0  0  0  0
 18 23  2  0  0  0  0
 18  6  1  0  0  0  0
 19 14  1  0  0  0  0
 19 20  1  0  0  0  0
 20  8  2  0  0  0  0
 21 15  2  0  0  0  0
 22 12  2  0  0  0  0
 22  3  1  0  0  0  0
 23 22  1  0  0  0  0
 24 27  1  6  0  0  0
 24 28  1  0  0  0  0
 28 25  1  0  0  0  0
 29 26  1  6  0  0  0
 29 30  1  0  0  0  0
 30 25  1  0  0  0  0
 30  5  1  6  0  0  0
 31 24  1  0  0  0  0
 31 29  1  0  0  0  0
M  END
>  <MODEL>
2

>  <REMARK>
 VINA RESULT:      -9.7      1.315      2.034
  Name = 
  1 active torsions:
  status: ('A' for Active; 'I' for Inactive)
    1  A    between atoms: C_5  and  C_30
                            x       y       z     vdW  Elec       q    Type
                         _______ _______ _______ _____ _____    ______ ____

>  <TORSDO>
F 1

$$$$
=
 OpenBabel11112416543D

 31 35  0  0  1  0  0  0  0  0999 V2000
  186.7260  176.7910  141.4980 C   0  0  0  0  0  0  0  0  0  0  0  0
  188.0900  177.0840  144.9950 C   0  0  0  0  0  0  0  0  0  0  0  0
  187.0690  177.6650  145.8020 C   0  0  0  0  0  0  0  0  0  0  0  0
  192.7610  174.9720  143.7430 O   0  0  0  0  0  0  0  0  0  0  0  0
  192.7570  175.2820  144.9640 C   0  0  0  0  0  0  0  0  0  0  0  0
  184.8340  178.5970  146.1260 C   0  0  0  0  0  0  0  0  0  0  0  0
  187.9690  176.8050  143.6010 C   0  0  0  0  0  0  0  0  0  0  0  0
  187.8160  176.2190  140.8440 C   0  0  0  0  0  3  0  0  0  0  0  0
  185.8070  178.0300  145.3000 C   0  0  0  0  0  3  0  0  0  0  0  0
  190.3670  176.1890  144.9050 C   0  0  0  0  0  0  0  0  0  0  0  0
  185.5910  177.0660  140.8120 F   0  0  0  0  0  0  0  0  0  0  0  0
  188.5240  177.5500  147.7040 N   0  0  0  0  0  0  0  0  0  0  0  0
  183.2770  179.0410  145.4650 Cl  0  0  0  0  0  0  0  0  0  0  0  0
  190.2140  175.9390  143.5800 N   0  0  0  0  0  0  0  0  0  0  0  0
  189.3170  176.7620  145.6340 C   0  0  0  0  0  0  0  0  0  0  0  0
  191.5980  175.8720  145.5690 N   0  0  0  0  0  2  0  0  0  0  0  0
  186.8040  177.0790  142.8630 C   0  0  0  0  0  3  0  0  0  0  0  0
  185.1050  178.8090  147.4780 C   0  0  0  0  0  3  0  0  0  0  0  0
  189.0670  176.2240  142.9190 C   0  0  0  0  0  0  0  0  0  0  0  0
  188.9840  175.9370  141.5520 C   0  0  0  0  0  3  0  0  0  0  0  0
  189.4840  177.0080  146.9600 N   0  0  0  0  0  0  0  0  0  0  0  0
  187.3240  177.8870  147.1770 C   0  0  0  0  0  0  0  0  0  0  0  0
  186.3480  178.4540  148.0020 C   0  0  0  0  0  3  0  0  0  0  0  0
  196.4070  175.1600  144.2090 C   0  0  1  0  0  3  0  0  0  0  0  0
  194.9420  176.2090  145.7660 C   0  0  0  0  0  2  0  0  0  0  0  0
  193.8330  172.5180  145.3030 C   0  0  0  0  0  1  0  0  0  0  0  0
  197.1800  175.3460  142.9210 C   0  0  0  0  0  1  0  0  0  0  0  0
  195.5840  176.3420  144.4570 N   0  0  0  0  0  2  0  0  0  0  0  0
  194.7410  173.7330  145.3880 C   0  0  2  0  0  3  0  0  0  0  0  0
  193.9850  175.0130  145.7870 C   0  0  2  0  0  3  0  0  0  0  0  0
  195.5260  173.9180  144.0930 C   0  0  0  0  0  2  0  0  0  0  0  0
  1 17  1  0  0  0  0
  2 15  2  0  0  0  0
  2  3  1  0  0  0  0
  3 22  1  0  0  0  0
  4  5  2  0  0  0  0
  5 16  1  0  0  0  0
  6 18  2  0  0  0  0
  7  2  1  0  0  0  0
  8  1  2  0  0  0  0
  8 20  1  0  0  0  0
  9  3  2  0  0  0  0
  9  6  1  0  0  0  0
 10 16  1  0  0  0  0
 10 15  1  0  0  0  0
 11  1  1  0  0  0  0
 13  6  1  0  0  0  0
 14 10  2  0  0  0  0
 15 21  1  0  0  0  0
 17  7  2  0  0  0  0
 18 23  1  0  0  0  0
 19 14  1  0  0  0  0
 19  7  1  0  0  0  0
 20 19  2  0  0  0  0
 21 12  2  0  0  0  0
 22 12  1  0  0  0  0
 22 23  2  0  0  0  0
 24 27  1  6  0  0  0
 24 28  1  0  0  0  0
 25 30  1  0  0  0  0
 28 25  1  0  0  0  0
 29 26  1  6  0  0  0
 29 30  1  0  0  0  0
 30  5  1  6  0  0  0
 31 24  1  0  0  0  0
 31 29  1  0  0  0  0
M  END
>  <MODEL>
3

>  <REMARK>
 VINA RESULT:      -8.7      2.241      4.469
  Name = 
  1 active torsions:
  status: ('A' for Active; 'I' for Inactive)
    1  A    between atoms: C_5  and  C_30
                            x       y       z     vdW  Elec       q    Type
                         _______ _______ _______ _____ _____    ______ ____

>  <TORSDO>
F 1

$$$$
=
 OpenBabel11112416543D

 31 35  0  0  1  0  0  0  0  0999 V2000
  190.7100  176.2070  146.8660 C   0  0  0  0  0  0  0  0  0  0  0  0
  187.8890  176.3240  144.3740 C   0  0  0  0  0  0  0  0  0  0  0  0
  186.9190  177.2410  144.8740 C   0  0  0  0  0  0  0  0  0  0  0  0
  190.1500  172.8580  141.1000 O   0  0  0  0  0  0  0  0  0  0  0  0
  189.0360  173.2090  140.6310 C   0  0  0  0  0  0  0  0  0  0  0  0
  186.0940  178.8240  146.5410 C   0  0  0  0  0  0  0  0  0  0  0  0
  189.1150  175.9960  145.0280 C   0  0  0  0  0  0  0  0  0  0  0  0
  191.5590  175.2890  146.2500 C   0  0  0  0  0  3  0  0  0  0  0  0
  187.0700  177.9340  146.0890 C   0  0  0  0  0  3  0  0  0  0  0  0
  188.5150  174.7820  142.5790 C   0  0  0  0  0  0  0  0  0  0  0  0
  191.0550  176.7610  148.0520 F   0  0  0  0  0  0  0  0  0  0  0  0
  185.5560  176.8300  142.9450 N   0  0  0  0  0  0  0  0  0  0  0  0
  186.3160  179.6670  148.0580 Cl  0  0  0  0  0  0  0  0  0  0  0  0
  189.6690  174.4950  143.2310 N   0  0  0  0  0  0  0  0  0  0  0  0
  187.6080  175.6950  143.1330 C   0  0  0  0  0  0  0  0  0  0  0  0
  188.2110  174.1560  141.3250 N   0  0  0  0  0  2  0  0  0  0  0  0
  189.5010  176.5550  146.2590 C   0  0  0  0  0  3  0  0  0  0  0  0
  184.9420  179.0400  145.7850 C   0  0  0  0  0  3  0  0  0  0  0  0
  189.9910  175.0640  144.4160 C   0  0  0  0  0  0  0  0  0  0  0  0
  191.2000  174.7190  145.0280 C   0  0  0  0  0  3  0  0  0  0  0  0
  186.4550  175.9720  142.4700 N   0  0  0  0  0  0  0  0  0  0  0  0
  185.7440  177.4740  144.1200 C   0  0  0  0  0  0  0  0  0  0  0  0
  184.7690  178.3660  144.5760 C   0  0  0  0  0  3  0  0  0  0  0  0
  190.6890  172.6400  137.3370 C   0  0  1  0  0  3  0  0  0  0  0  0
  189.4220  171.4070  138.9340 C   0  0  0  0  0  2  0  0  0  0  0  0
  187.8160  174.9150  138.5070 C   0  0  0  0  0  1  0  0  0  0  0  0
  192.0850  172.9480  136.8400 C   0  0  0  0  0  1  0  0  0  0  0  0
  190.7730  171.8070  138.5360 N   0  0  0  0  0  2  0  0  0  0  0  0
  188.5610  173.6380  138.1600 C   0  0  2  0  0  3  0  0  0  0  0  0
  188.5820  172.6290  139.3220 C   0  0  2  0  0  3  0  0  0  0  0  0
  189.9660  173.9470  137.6530 C   0  0  0  0  0  2  0  0  0  0  0  0
  1 11  1  0  0  0  0
  2  3  1  0  0  0  0
  2  7  1  0  0  0  0
  3  9  1  0  0  0  0
  5  4  2  0  0  0  0
  5 16  1  0  0  0  0
  6 13  1  0  0  0  0
  7 17  2  0  0  0  0
  8  1  2  0  0  0  0
  9  6  2  0  0  0  0
 10 15  1  0  0  0  0
 10 14  2  0  0  0  0
 12 22  1  0  0  0  0
 14 19  1  0  0  0  0
 15  2  2  0  0  0  0
 16 10  1  0  0  0  0
 17  1  1  0  0  0  0
 18  6  1  0  0  0  0
 19 20  2  0  0  0  0
 19  7  1  0  0  0  0
 20  8  1  0  0  0  0
 21 12  2  0  0  0  0
 21 15  1  0  0  0  0
 22 23  1  0  0  0  0
 22  3  2  0  0  0  0
 23 18  2  0  0  0  0
 24 27  1  1  0  0  0
 24 31  1  0  0  0  0
 24 28  1  0  0  0  0
 25 30  1  0  0  0  0
 28 25  1  0  0  0  0
 29 26  1  1  0  0  0
 29 30  1  0  0  0  0
 30  5  1  1  0  0  0
 31 29  1  0  0  0  0
M  END
>  <MODEL>
4

>  <REMARK>
 VINA RESULT:      -8.7      4.224      5.878
  Name = 
  1 active torsions:
  status: ('A' for Active; 'I' for Inactive)
    1  A    between atoms: C_5  and  C_30
                            x       y       z     vdW  Elec       q    Type
                         _______ _______ _______ _____ _____    ______ ____

>  <TORSDO>
F 1

$$$$
=
 OpenBabel11112416543D

 31 35  0  0  1  0  0  0  0  0999 V2000
  185.4650  177.8730  141.0230 C   0  0  0  0  0  0  0  0  0  0  0  0
  187.3330  176.7140  144.0810 C   0  0  0  0  0  0  0  0  0  0  0  0
  186.5720  177.1110  145.2190 C   0  0  0  0  0  0  0  0  0  0  0  0
  191.2610  174.5410  141.3080 O   0  0  0  0  0  0  0  0  0  0  0  0
  191.4890  174.3970  142.5380 C   0  0  0  0  0  0  0  0  0  0  0  0
  184.6390  178.1750  146.2660 C   0  0  0  0  0  0  0  0  0  0  0  0
  186.9660  176.9660  142.7250 C   0  0  0  0  0  0  0  0  0  0  0  0
  186.3160  177.4210  140.0160 C   0  0  0  0  0  3  0  0  0  0  0  0
  185.3520  177.8060  145.1240 C   0  0  0  0  0  3  0  0  0  0  0  0
  189.3470  175.5950  143.2530 C   0  0  0  0  0  0  0  0  0  0  0  0
  184.3260  178.5310  140.7040 F   0  0  0  0  0  0  0  0  0  0  0  0
  188.2240  176.1260  146.6510 N   0  0  0  0  0  0  0  0  0  0  0  0
  183.1270  179.0410  146.1080 Cl  0  0  0  0  0  0  0  0  0  0  0  0
  188.9640  175.8540  141.9780 N   0  0  0  0  0  0  0  0  0  0  0  0
  188.5460  176.0170  144.3220 C   0  0  0  0  0  0  0  0  0  0  0  0
  190.5690  174.8930  143.5190 N   0  0  0  0  0  2  0  0  0  0  0  0
  185.7890  177.6460  142.3630 C   0  0  0  0  0  3  0  0  0  0  0  0
  185.1320  177.8560  147.5310 C   0  0  0  0  0  3  0  0  0  0  0  0
  187.8180  176.5140  141.6870 C   0  0  0  0  0  0  0  0  0  0  0  0
  187.4900  176.7430  140.3470 C   0  0  0  0  0  3  0  0  0  0  0  0
  188.9410  175.7520  145.5950 N   0  0  0  0  0  0  0  0  0  0  0  0
  187.0550  176.7950  146.5110 C   0  0  0  0  0  0  0  0  0  0  0  0
  186.3380  177.1650  147.6520 C   0  0  0  0  0  3  0  0  0  0  0  0
  193.8910  174.8440  145.3560 C   0  0  1  0  0  3  0  0  0  0  0  0
  192.5920  173.1020  144.3770 C   0  0  0  0  0  2  0  0  0  0  0  0
  194.1780  175.2220  141.5390 C   0  0  0  0  0  1  0  0  0  0  0  0
  193.9530  175.8550  146.4800 C   0  0  0  0  0  1  0  0  0  0  0  0
  192.5950  174.1660  145.3840 N   0  0  0  0  0  2  0  0  0  0  0  0
  194.0130  174.5430  142.8870 C   0  0  2  0  0  3  0  0  0  0  0  0
  192.7400  173.6830  142.9670 C   0  0  2  0  0  3  0  0  0  0  0  0
  194.0830  175.5600  144.0220 C   0  0  0  0  0  2  0  0  0  0  0  0
  1 17  1  0  0  0  0
  2 15  2  0  0  0  0
  2  3  1  0  0  0  0
  3 22  1  0  0  0  0
  4  5  2  0  0  0  0
  5 16  1  0  0  0  0
  6 18  2  0  0  0  0
  7  2  1  0  0  0  0
  8 20  1  0  0  0  0
  8  1  2  0  0  0  0
  9  3  2  0  0  0  0
  9  6  1  0  0  0  0
 10 16  1  0  0  0  0
 10 15  1  0  0  0  0
 11  1  1  0  0  0  0
 13  6  1  0  0  0  0
 14 10  2  0  0  0  0
 15 21  1  0  0  0  0
 17  7  2  0  0  0  0
 18 23  1  0  0  0  0
 19 14  1  0  0  0  0
 19  7  1  0  0  0  0
 20 19  2  0  0  0  0
 21 12  2  0  0  0  0
 22 12  1  0  0  0  0
 22 23  2  0  0  0  0
 24 28  1  0  0  0  0
 24 27  1  1  0  0  0
 25 28  1  0  0  0  0
 29 26  1  6  0  0  0
 29 30  1  0  0  0  0
 29 31  1  0  0  0  0
 30  5  1  1  0  0  0
 30 25  1  0  0  0  0
 31 24  1  0  0  0  0
M  END
>  <MODEL>
5

>  <REMARK>
 VINA RESULT:      -8.7      2.143      4.440
  Name = 
  1 active torsions:
  status: ('A' for Active; 'I' for Inactive)
    1  A    between atoms: C_5  and  C_30
                            x       y       z     vdW  Elec       q    Type
                         _______ _______ _______ _____ _____    ______ ____

>  <TORSDO>
F 1

$$$$
=
 OpenBabel11112416543D

 31 35  0  0  1  0  0  0  0  0999 V2000
  190.9580  176.8160  147.5190 C   0  0  0  0  0  0  0  0  0  0  0  0
  189.0010  176.0020  144.4060 C   0  0  0  0  0  0  0  0  0  0  0  0
  187.7390  176.6560  144.5150 C   0  0  0  0  0  0  0  0  0  0  0  0
  192.8490  173.0570  142.3150 O   0  0  0  0  0  0  0  0  0  0  0  0
  191.8580  173.0640  141.5380 C   0  0  0  0  0  0  0  0  0  0  0  0
  186.1280  178.0690  145.6870 C   0  0  0  0  0  0  0  0  0  0  0  0
  190.0380  176.0600  145.3860 C   0  0  0  0  0  0  0  0  0  0  0  0
  192.1400  176.1210  147.2690 C   0  0  0  0  0  3  0  0  0  0  0  0
  187.3750  177.4450  145.6210 C   0  0  0  0  0  3  0  0  0  0  0  0
  190.4540  174.5670  143.0560 C   0  0  0  0  0  0  0  0  0  0  0  0
  190.8160  177.5220  148.6650 F   0  0  0  0  0  0  0  0  0  0  0  0
  187.1080  175.7640  142.3810 N   0  0  0  0  0  0  0  0  0  0  0  0
  185.7090  179.0410  147.0800 Cl  0  0  0  0  0  0  0  0  0  0  0  0
  191.4150  174.6450  144.0110 N   0  0  0  0  0  0  0  0  0  0  0  0
  189.2370  175.2380  143.2340 C   0  0  0  0  0  0  0  0  0  0  0  0
  190.6710  173.7990  141.8650 N   0  0  0  0  0  2  0  0  0  0  0  0
  189.9200  176.7850  146.5850 C   0  0  0  0  0  3  0  0  0  0  0  0
  185.2150  177.9160  144.6430 C   0  0  0  0  0  3  0  0  0  0  0  0
  191.2470  175.3590  145.1490 C   0  0  0  0  0  0  0  0  0  0  0  0
  192.2840  175.3940  146.0860 C   0  0  0  0  0  3  0  0  0  0  0  0
  188.2830  175.1500  142.2700 N   0  0  0  0  0  0  0  0  0  0  0  0
  186.8000  176.5130  143.4660 C   0  0  0  0  0  0  0  0  0  0  0  0
  185.5530  177.1390  143.5340 C   0  0  0  0  0  3  0  0  0  0  0  0
  189.6060  172.7030  138.5870 C   0  0  1  0  0  3  0  0  0  0  0  0
  191.8840  173.2330  139.0380 C   0  0  0  0  0  2  0  0  0  0  0  0
  190.8160  170.2750  141.3150 C   0  0  0  0  0  1  0  0  0  0  0  0
  188.2410  173.2810  138.2810 C   0  0  0  0  0  1  0  0  0  0  0  0
  190.5410  173.7910  138.8710 N   0  0  0  0  0  2  0  0  0  0  0  0
  190.8760  171.1930  140.1060 C   0  0  2  0  0  3  0  0  0  0  0  0
  191.9410  172.2950  140.2490 C   0  0  2  0  0  3  0  0  0  0  0  0
  189.5000  171.7710  139.7920 C   0  0  0  0  0  2  0  0  0  0  0  0
  1 11  1  0  0  0  0
  2  3  1  0  0  0  0
  2  7  1  0  0  0  0
  3  9  1  0  0  0  0
  5 16  1  0  0  0  0
  5  4  2  0  0  0  0
  6 13  1  0  0  0  0
  7 17  1  0  0  0  0
  8  1  1  0  0  0  0
  9  6  2  0  0  0  0
 10 15  1  0  0  0  0
 10 14  2  0  0  0  0
 12 22  1  0  0  0  0
 14 19  1  0  0  0  0
 15  2  2  0  0  0  0
 16 10  1  0  0  0  0
 17  1  2  0  0  0  0
 18  6  1  0  0  0  0
 19  7  2  0  0  0  0
 19 20  1  0  0  0  0
 20  8  2  0  0  0  0
 21 12  2  0  0  0  0
 21 15  1  0  0  0  0
 22 23  1  0  0  0  0
 22  3  2  0  0  0  0
 23 18  2  0  0  0  0
 24 27  1  1  0  0  0
 24 28  1  0  0  0  0
 24 31  1  0  0  0  0
 25 30  1  0  0  0  0
 28 25  1  0  0  0  0
 29 30  1  0  0  0  0
 29 26  1  1  0  0  0
 30  5  1  1  0  0  0
 31 29  1  0  0  0  0
M  END
>  <MODEL>
6

>  <REMARK>
 VINA RESULT:      -8.6      3.720      5.330
  Name = 
  1 active torsions:
  status: ('A' for Active; 'I' for Inactive)
    1  A    between atoms: C_5  and  C_30
                            x       y       z     vdW  Elec       q    Type
                         _______ _______ _______ _____ _____    ______ ____

>  <TORSDO>
F 1

$$$$
=
 OpenBabel11112416543D

 31 35  0  0  1  0  0  0  0  0999 V2000
  190.7640  176.7900  147.1410 C   0  0  0  0  0  0  0  0  0  0  0  0
  188.3910  176.5140  144.2310 C   0  0  0  0  0  0  0  0  0  0  0  0
  187.2110  177.2370  144.5750 C   0  0  0  0  0  0  0  0  0  0  0  0
  191.6980  173.5940  141.3370 O   0  0  0  0  0  0  0  0  0  0  0  0
  190.6270  173.7680  140.6980 C   0  0  0  0  0  0  0  0  0  0  0  0
  185.8760  178.6000  146.0990 C   0  0  0  0  0  0  0  0  0  0  0  0
  189.5370  176.3760  145.0700 C   0  0  0  0  0  0  0  0  0  0  0  0
  191.8450  176.0500  146.6620 C   0  0  0  0  0  3  0  0  0  0  0  0
  187.0490  177.9040  145.8030 C   0  0  0  0  0  3  0  0  0  0  0  0
  189.5460  175.1620  142.5480 C   0  0  0  0  0  0  0  0  0  0  0  0
  190.8200  177.3540  148.3710 F   0  0  0  0  0  0  0  0  0  0  0  0
  186.2580  176.6680  142.4500 N   0  0  0  0  0  0  0  0  0  0  0  0
  185.7090  179.4160  147.6380 Cl  0  0  0  0  0  0  0  0  0  0  0  0
  190.6160  175.0520  143.3740 N   0  0  0  0  0  0  0  0  0  0  0  0
  188.4200  175.8890  142.9560 C   0  0  0  0  0  0  0  0  0  0  0  0
  189.5540  174.5370  141.2570 N   0  0  0  0  0  2  0  0  0  0  0  0
  189.6240  176.9500  146.3500 C   0  0  0  0  0  3  0  0  0  0  0  0
  184.8360  178.6440  145.1700 C   0  0  0  0  0  3  0  0  0  0  0  0
  190.6450  175.6270  144.6000 C   0  0  0  0  0  0  0  0  0  0  0  0
  191.7850  175.4700  145.3950 C   0  0  0  0  0  3  0  0  0  0  0  0
  187.3540  175.9910  142.1190 N   0  0  0  0  0  0  0  0  0  0  0  0
  186.1460  177.2940  143.6450 C   0  0  0  0  0  0  0  0  0  0  0  0
  184.9730  177.9920  143.9440 C   0  0  0  0  0  3  0  0  0  0  0  0
  191.6500  170.5150  139.1860 C   0  0  1  0  0  3  0  0  0  0  0  0
  189.6910  171.8570  139.3740 C   0  0  0  0  0  2  0  0  0  0  0  0
  192.7150  174.1650  138.6020 C   0  0  0  0  0  1  0  0  0  0  0  0
  192.3910  169.3240  139.7550 C   0  0  0  0  0  1  0  0  0  0  0  0
  190.4700  170.7890  140.0040 N   0  0  0  0  0  2  0  0  0  0  0  0
  191.8310  172.9310  138.6080 C   0  0  2  0  0  3  0  0  0  0  0  0
  190.4910  173.1640  139.3290 C   0  0  2  0  0  3  0  0  0  0  0  0
  192.5780  171.7280  139.1750 C   0  0  0  0  0  2  0  0  0  0  0  0
  1 11  1  0  0  0  0
  2  3  1  0  0  0  0
  2  7  1  0  0  0  0
  3  9  1  0  0  0  0
  5 16  1  0  0  0  0
  5  4  2  0  0  0  0
  6 13  1  0  0  0  0
  7 17  1  0  0  0  0
  8  1  1  0  0  0  0
  9  6  2  0  0  0  0
 10 15  1  0  0  0  0
 10 14  2  0  0  0  0
 12 22  1  0  0  0  0
 14 19  1  0  0  0  0
 15  2  2  0  0  0  0
 16 10  1  0  0  0  0
 17  1  2  0  0  0  0
 18  6  1  0  0  0  0
 19  7  2  0  0  0  0
 19 20  1  0  0  0  0
 20  8  2  0  0  0  0
 21 12  2  0  0  0  0
 21 15  1  0  0  0  0
 22 23  1  0  0  0  0
 22  3  2  0  0  0  0
 23 18  2  0  0  0  0
 24 27  1  1  0  0  0
 24 28  1  0  0  0  0
 25 28  1  0  0  0  0
 29 26  1  1  0  0  0
 29 31  1  0  0  0  0
 29 30  1  0  0  0  0
 30 25  1  0  0  0  0
 30  5  1  1  0  0  0
 31 24  1  0  0  0  0
M  END
>  <MODEL>
7

>  <REMARK>
 VINA RESULT:      -8.5      3.819      5.151
  Name = 
  1 active torsions:
  status: ('A' for Active; 'I' for Inactive)
    1  A    between atoms: C_5  and  C_30
                            x       y       z     vdW  Elec       q    Type
                         _______ _______ _______ _____ _____    ______ ____

>  <TORSDO>
F 1

$$$$
=
 OpenBabel11112416543D

 31 35  0  0  1  0  0  0  0  0999 V2000
  190.0980  177.9940  148.0130 C   0  0  0  0  0  0  0  0  0  0  0  0
  189.4620  175.9590  144.9090 C   0  0  0  0  0  0  0  0  0  0  0  0
  188.2940  176.4870  144.2870 C   0  0  0  0  0  0  0  0  0  0  0  0
  193.6570  172.8440  145.6490 O   0  0  0  0  0  0  0  0  0  0  0  0
  193.0480  172.4840  144.6070 C   0  0  0  0  0  0  0  0  0  0  0  0
  186.4310  178.0620  144.1640 C   0  0  0  0  0  0  0  0  0  0  0  0
  190.0390  176.4540  146.1170 C   0  0  0  0  0  0  0  0  0  0  0  0
  191.2460  177.3700  148.4990 C   0  0  0  0  0  3  0  0  0  0  0  0
  187.5710  177.5760  144.8070 C   0  0  0  0  0  3  0  0  0  0  0  0
  191.2460  174.2840  144.8270 C   0  0  0  0  0  0  0  0  0  0  0  0
  189.5600  179.0410  148.6820 F   0  0  0  0  0  0  0  0  0  0  0  0
  188.4930  174.8480  142.5490 N   0  0  0  0  0  0  0  0  0  0  0  0
  185.5570  179.4180  144.8430 Cl  0  0  0  0  0  0  0  0  0  0  0  0
  191.7640  174.7830  145.9770 N   0  0  0  0  0  0  0  0  0  0  0  0
  190.0940  174.8570  144.2740 C   0  0  0  0  0  0  0  0  0  0  0  0
  191.8680  173.1710  144.1700 N   0  0  0  0  0  2  0  0  0  0  0  0
  189.5030  177.5390  146.8330 C   0  0  0  0  0  3  0  0  0  0  0  0
  185.9880  177.4680  142.9830 C   0  0  0  0  0  3  0  0  0  0  0  0
  191.2060  175.8320  146.6260 C   0  0  0  0  0  0  0  0  0  0  0  0
  191.7980  176.2920  147.8070 C   0  0  0  0  0  3  0  0  0  0  0  0
  189.5850  174.3470  143.1220 N   0  0  0  0  0  0  0  0  0  0  0  0
  187.8290  175.8970  143.0870 C   0  0  0  0  0  0  0  0  0  0  0  0
  186.6880  176.3870  142.4450 C   0  0  0  0  0  3  0  0  0  0  0  0
  195.8920  170.1170  145.0800 C   0  0  1  0  0  3  0  0  0  0  0  0
  193.5530  170.0300  144.6380 C   0  0  0  0  0  2  0  0  0  0  0  0
  195.1230  172.8600  142.4940 C   0  0  0  0  0  1  0  0  0  0  0  0
  196.9500  170.0110  146.1570 C   0  0  0  0  0  1  0  0  0  0  0  0
  194.5670  170.0570  145.6940 N   0  0  0  0  0  2  0  0  0  0  0  0
  194.9960  171.5480  143.2490 C   0  0  2  0  0  3  0  0  0  0  0  0
  193.5830  171.3230  143.8170 C   0  0  2  0  0  3  0  0  0  0  0  0
  196.0660  171.4360  144.3300 C   0  0  0  0  0  2  0  0  0  0  0  0
  1  8  1  0  0  0  0
  1 11  1  0  0  0  0
  2  7  1  0  0  0  0
  3  9  1  0  0  0  0
  3  2  1  0  0  0  0
  5  4  2  0  0  0  0
  6  9  2  0  0  0  0
  6 13  1  0  0  0  0
  7 19  2  0  0  0  0
  7 17  1  0  0  0  0
 10 14  2  0  0  0  0
 12 22  1  0  0  0  0
 12 21  2  0  0  0  0
 14 19  1  0  0  0  0
 15 10  1  0  0  0  0
 15  2  2  0  0  0  0
 16  5  1  0  0  0  0
 16 10  1  0  0  0  0
 17  1  2  0  0  0  0
 18  6  1  0  0  0  0
 19 20  1  0  0  0  0
 20  8  2  0  0  0  0
 21 15  1  0  0  0  0
 22  3  2  0  0  0  0
 23 18  2  0  0  0  0
 23 22  1  0  0  0  0
 24 28  1  0  0  0  0
 24 27  1  1  0  0  0
 25 28  1  0  0  0  0
 29 26  1  1  0  0  0
 29 30  1  0  0  0  0
 29 31  1  0  0  0  0
 30  5  1  1  0  0  0
 30 25  1  0  0  0  0
 31 24  1  0  0  0  0
M  END
>  <MODEL>
8

>  <REMARK>
 VINA RESULT:      -8.5      2.807      4.300
  Name = 
  1 active torsions:
  status: ('A' for Active; 'I' for Inactive)
    1  A    between atoms: C_5  and  C_30
                            x       y       z     vdW  Elec       q    Type
                         _______ _______ _______ _____ _____    ______ ____

>  <TORSDO>
F 1

$$$$
=
 OpenBabel11112416543D

 31 35  0  0  1  0  0  0  0  0999 V2000
  194.3250  175.9350  145.2610 C   0  0  0  0  0  0  0  0  0  0  0  0
  190.9350  175.3560  143.7280 C   0  0  0  0  0  0  0  0  0  0  0  0
  191.1410  174.7060  142.4760 C   0  0  0  0  0  0  0  0  0  0  0  0
  188.3300  177.5400  147.7630 O   0  0  0  0  0  0  0  0  0  0  0  0
  187.5060  177.1670  146.8880 C   0  0  0  0  0  0  0  0  0  0  0  0
  192.5720  173.7390  140.7490 C   0  0  0  0  0  0  0  0  0  0  0  0
  191.9740  175.7500  144.6230 C   0  0  0  0  0  0  0  0  0  0  0  0
  193.9640  176.5640  146.4520 C   0  0  0  0  0  3  0  0  0  0  0  0
  192.4160  174.3760  141.9810 C   0  0  0  0  0  3  0  0  0  0  0  0
  189.3130  176.2640  145.3210 C   0  0  0  0  0  0  0  0  0  0  0  0
  195.6310  175.7140  144.9800 F   0  0  0  0  0  0  0  0  0  0  0  0
  188.7700  174.6660  142.1210 N   0  0  0  0  0  0  0  0  0  0  0  0
  194.1740  173.3470  140.1650 Cl  0  0  0  0  0  0  0  0  0  0  0  0
  190.3290  176.6250  146.1450 N   0  0  0  0  0  0  0  0  0  0  0  0
  189.5940  175.6280  144.1050 C   0  0  0  0  0  0  0  0  0  0  0  0
  187.9510  176.5310  145.6820 N   0  0  0  0  0  2  0  0  0  0  0  0
  193.3380  175.5330  144.3580 C   0  0  0  0  0  3  0  0  0  0  0  0
  191.4520  173.4160  139.9830 C   0  0  0  0  0  3  0  0  0  0  0  0
  191.6270  176.3900  145.8390 C   0  0  0  0  0  0  0  0  0  0  0  0
  192.6180  176.7910  146.7400 C   0  0  0  0  0  3  0  0  0  0  0  0
  188.5680  175.2720  143.2880 N   0  0  0  0  0  0  0  0  0  0  0  0
  190.0170  174.3690  141.6850 C   0  0  0  0  0  0  0  0  0  0  0  0
  190.1760  173.7300  140.4520 C   0  0  0  0  0  3  0  0  0  0  0  0
  184.7100  178.4980  144.8080 C   0  0  1  0  0  3  0  0  0  0  0  0
  185.1870  176.5820  146.1420 C   0  0  0  0  0  2  0  0  0  0  0  0
  186.4760  179.7410  147.9920 C   0  0  0  0  0  1  0  0  0  0  0  0
  184.6700  179.0410  143.3970 C   0  0  0  0  0  1  0  0  0  0  0  0
  185.2710  177.1480  144.7940 N   0  0  0  0  0  2  0  0  0  0  0  0
  185.6130  178.8660  147.1010 C   0  0  2  0  0  3  0  0  0  0  0  0
  186.0390  177.3870  147.1280 C   0  0  2  0  0  3  0  0  0  0  0  0
  185.5660  179.4160  145.6780 C   0  0  0  0  0  2  0  0  0  0  0  0
  1  8  1  0  0  0  0
  2 15  1  0  0  0  0
  2  7  1  0  0  0  0
  3  2  2  0  0  0  0
  5  4  2  0  0  0  0
  6  9  2  0  0  0  0
  7 19  2  0  0  0  0
  8 20  2  0  0  0  0
  9  3  1  0  0  0  0
 10 16  1  0  0  0  0
 10 14  2  0  0  0  0
 11  1  1  0  0  0  0
 12 21  1  0  0  0  0
 13  6  1  0  0  0  0
 15 10  1  0  0  0  0
 16  5  1  0  0  0  0
 17  7  1  0  0  0  0
 17  1  2  0  0  0  0
 18 23  2  0  0  0  0
 18  6  1  0  0  0  0
 19 14  1  0  0  0  0
 19 20  1  0  0  0  0
 21 15  2  0  0  0  0
 22 12  2  0  0  0  0
 22  3  1  0  0  0  0
 23 22  1  0  0  0  0
 24 27  1  6  0  0  0
 24 31  1  0  0  0  0
 25 30  1  0  0  0  0
 28 24  1  0  0  0  0
 28 25  1  0  0  0  0
 29 30  1  0  0  0  0
 29 26  1  1  0  0  0
 30  5  1  6  0  0  0
 31 29  1  0  0  0  0
M  END
>  <MODEL>
9

>  <REMARK>
 VINA RESULT:      -8.5      3.903      7.525
  Name = 
  1 active torsions:
  status: ('A' for Active; 'I' for Inactive)
    1  A    between atoms: C_5  and  C_30
                            x       y       z     vdW  Elec       q    Type
                         _______ _______ _______ _____ _____    ______ ____

>  <TORSDO>
F 1

$$$$
