=
 OpenBabel11112416123D

 30 35  0  0  1  0  0  0  0  0999 V2000
  187.2930  176.5830  144.4390 C   0  0  0  0  0  0  0  0  0  0  0  0
  185.4950  178.0600  145.3770 C   0  0  0  0  0  0  0  0  0  0  0  0
  189.7900  177.3530  147.7300 N   0  0  0  0  0  2  0  0  0  0  0  0
  188.5560  175.9610  144.6000 C   0  0  0  0  0  0  0  0  0  0  0  0
  186.5680  176.3440  143.2620 O   0  0  0  0  0  0  0  0  0  0  0  0
  188.2600  173.7880  141.6820 O   0  0  0  0  0  0  0  0  0  0  0  0
  191.1790  176.1770  143.4800 C   0  0  1  0  0  3  0  0  0  0  0  0
  188.1550  174.7630  142.4090 C   0  0  0  0  0  0  0  0  0  0  0  0
  191.6120  176.4440  144.9340 C   0  0  2  0  0  3  0  0  0  0  0  0
  190.9100  176.5710  147.3210 C   0  0  0  0  0  0  0  0  0  0  0  0
  187.1710  175.8370  142.0710 C   0  0  2  0  0  3  0  0  0  0  0  0
  189.0290  174.8910  143.6270 C   0  0  1  0  0  3  0  0  0  0  0  0
  185.0660  178.9150  146.3960 C   0  0  0  0  0  3  0  0  0  0  0  0
  193.0430  175.9680  145.0290 C   0  0  0  0  0  2  0  0  0  0  0  0
  192.4660  176.2020  142.6660 C   0  0  0  0  0  2  0  0  0  0  0  0
  184.5390  177.8290  144.2550 C   0  0  0  0  0  1  0  0  0  0  0  0
  188.8400  177.1270  146.6990 C   0  0  0  0  0  0  0  0  0  0  0  0
  185.8750  179.1800  147.4980 C   0  0  0  0  0  3  0  0  0  0  0  0
  186.7760  177.4460  145.4550 C   0  0  0  0  0  0  0  0  0  0  0  0
  189.3020  176.2620  145.7390 C   0  0  0  0  0  0  0  0  0  0  0  0
  191.9620  176.4910  148.0070 O   0  0  0  0  0  0  0  0  0  0  0  0
  190.7060  175.8530  146.0180 C   0  0  1  0  0  3  0  0  0  0  0  0
  193.6250  176.2230  143.6530 C   0  0  0  0  0  2  0  0  0  0  0  0
  191.1150  173.7460  143.8360 C   0  0  0  0  0  1  0  0  0  0  0  0
  187.1300  178.5860  147.5990 C   0  0  0  0  0  3  0  0  0  0  0  0
  187.5830  177.7220  146.5990 C   0  0  0  0  0  0  0  0  0  0  0  0
  190.4550  174.9070  143.2470 N   0  0  0  0  0  0  0  0  0  0  0  0
  187.8770  176.9510  141.3040 C   0  0  0  0  0  2  0  0  0  0  0  0
  185.7940  177.8270  140.2580 C   0  0  0  0  0  1  0  0  0  0  0  0
  186.9780  178.1640  141.1430 C   0  0  0  0  0  2  0  0  0  0  0  0
  1  4  2  0  0  0  0
  1 19  1  0  0  0  0
  2 19  2  0  0  0  0
  2 13  1  0  0  0  0
  4 20  1  0  0  0  0
  5  1  1  0  0  0  0
  6  8  2  0  0  0  0
  7 15  1  6  0  0  0
  7  9  1  0  0  0  0
  9 14  1  6  0  0  0
  9 22  1  0  0  0  0
 10  3  1  0  0  0  0
 10 21  2  0  0  0  0
 11 28  1  1  0  0  0
 11  8  1  0  0  0  0
 11  5  1  0  0  0  0
 12  8  1  6  0  0  0
 12  4  1  0  0  0  0
 13 18  2  0  0  0  0
 15 23  1  0  0  0  0
 16  2  1  0  0  0  0
 17  3  1  0  0  0  0
 18 25  1  0  0  0  0
 19 26  1  0  0  0  0
 20 17  2  0  0  0  0
 22 20  1  6  0  0  0
 22 10  1  0  0  0  0
 23 14  1  0  0  0  0
 26 17  1  0  0  0  0
 26 25  2  0  0  0  0
 27  7  1  0  0  0  0
 27 12  1  0  0  0  0
 27 24  1  0  0  0  0
 29 30  1  0  0  0  0
 30 28  1  0  0  0  0
M  END
>  <MODEL>
1

>  <REMARK>
 VINA RESULT:      -8.4      0.000      0.000
  Name = 
  2 active torsions:
  status: ('A' for Active; 'I' for Inactive)
    1  A    between atoms: C_11  and  C_28
    2  A    between atoms: C_28  and  C_30
                            x       y       z     vdW  Elec       q    Type
                         _______ _______ _______ _____ _____    ______ ____

>  <TORSDO>
F 2

$$$$
=
 OpenBabel11112416123D

 30 35  0  0  1  0  0  0  0  0999 V2000
  187.8580  177.3580  143.6630 C   0  0  0  0  0  0  0  0  0  0  0  0
  185.8960  178.6350  142.7620 C   0  0  0  0  0  0  0  0  0  0  0  0
  188.1790  175.1340  140.1120 N   0  0  0  0  0  2  0  0  0  0  0  0
  188.8900  176.4110  143.4470 C   0  0  0  0  0  0  0  0  0  0  0  0
  187.7680  177.9840  144.9150 O   0  0  0  0  0  0  0  0  0  0  0  0
  190.6710  177.1040  146.5570 O   0  0  0  0  0  0  0  0  0  0  0  0
  189.5480  173.7640  144.3100 C   0  0  1  0  0  3  0  0  0  0  0  0
  189.7590  176.9490  145.7600 C   0  0  0  0  0  0  0  0  0  0  0  0
  189.5240  173.4320  142.8070 C   0  0  2  0  0  3  0  0  0  0  0  0
  189.2800  174.3120  140.4880 C   0  0  0  0  0  0  0  0  0  0  0  0
  188.3930  177.4620  146.0890 C   0  0  2  0  0  3  0  0  0  0  0  0
  190.0070  176.2270  144.4640 C   0  0  1  0  0  3  0  0  0  0  0  0
  184.9980  178.8560  141.7140 C   0  0  0  0  0  3  0  0  0  0  0  0
  190.4740  172.2710  142.6280 C   0  0  0  0  0  2  0  0  0  0  0  0
  189.9340  172.4650  145.0040 C   0  0  0  0  0  2  0  0  0  0  0  0
  185.7200  179.4790  143.9790 C   0  0  0  0  0  1  0  0  0  0  0  0
  188.0050  175.9820  141.2380 C   0  0  0  0  0  0  0  0  0  0  0  0
  185.0880  178.1340  140.5270 C   0  0  0  0  0  3  0  0  0  0  0  0
  186.9220  177.6580  142.6260 C   0  0  0  0  0  0  0  0  0  0  0  0
  188.9280  175.7400  142.2250 C   0  0  0  0  0  0  0  0  0  0  0  0
  189.7580  173.4350  139.7220 O   0  0  0  0  0  0  0  0  0  0  0  0
  189.8150  174.6010  141.8610 C   0  0  1  0  0  3  0  0  0  0  0  0
  190.3690  171.4860  143.9200 C   0  0  0  0  0  2  0  0  0  0  0  0
  191.8180  174.6970  144.1740 C   0  0  0  0  0  1  0  0  0  0  0  0
  186.0880  177.1790  140.3680 C   0  0  0  0  0  3  0  0  0  0  0  0
  187.0040  176.9400  141.3960 C   0  0  0  0  0  0  0  0  0  0  0  0
  190.4710  174.8490  144.7150 N   0  0  0  0  0  0  0  0  0  0  0  0
  187.5590  176.3360  146.6910 C   0  0  0  0  0  2  0  0  0  0  0  0
  185.1180  176.7510  146.4230 C   0  0  0  0  0  1  0  0  0  0  0  0
  186.3050  176.8740  147.3580 C   0  0  0  0  0  2  0  0  0  0  0  0
  1  5  1  0  0  0  0
  2 16  1  0  0  0  0
  3 10  1  0  0  0  0
  3 17  1  0  0  0  0
  4  1  1  0  0  0  0
  5 11  1  0  0  0  0
  7 27  1  0  0  0  0
  7 15  1  1  0  0  0
  8 11  1  0  0  0  0
  8  6  2  0  0  0  0
  9 14  1  1  0  0  0
  9  7  1  0  0  0  0
 11 28  1  6  0  0  0
 12  4  1  6  0  0  0
 12 27  1  0  0  0  0
 12  8  1  0  0  0  0
 13  2  2  0  0  0  0
 14 23  1  0  0  0  0
 17 26  2  0  0  0  0
 17 20  1  0  0  0  0
 18 13  1  0  0  0  0
 19  2  1  0  0  0  0
 19  1  2  0  0  0  0
 20  4  2  0  0  0  0
 21 10  2  0  0  0  0
 22 10  1  6  0  0  0
 22 20  1  0  0  0  0
 22  9  1  0  0  0  0
 23 15  1  0  0  0  0
 24 27  1  0  0  0  0
 25 18  2  0  0  0  0
 25 26  1  0  0  0  0
 26 19  1  0  0  0  0
 28 30  1  0  0  0  0
 29 30  1  0  0  0  0
M  END
>  <MODEL>
2

>  <REMARK>
 VINA RESULT:      -8.2      1.826      5.036
  Name = 
  2 active torsions:
  status: ('A' for Active; 'I' for Inactive)
    1  A    between atoms: C_11  and  C_28
    2  A    between atoms: C_28  and  C_30
                            x       y       z     vdW  Elec       q    Type
                         _______ _______ _______ _____ _____    ______ ____

>  <TORSDO>
F 2

$$$$
=
 OpenBabel11112416123D

 30 35  0  0  1  0  0  0  0  0999 V2000
  187.2260  177.7460  145.0500 C   0  0  0  0  0  0  0  0  0  0  0  0
  185.0570  178.7490  145.8110 C   0  0  0  0  0  0  0  0  0  0  0  0
  185.8300  177.4600  141.0970 N   0  0  0  0  0  2  0  0  0  0  0  0
  188.0390  177.2820  143.9860 C   0  0  0  0  0  0  0  0  0  0  0  0
  187.7410  177.7160  146.3540 O   0  0  0  0  0  0  0  0  0  0  0  0
  191.0860  176.9680  145.9710 O   0  0  0  0  0  0  0  0  0  0  0  0
  189.0630  174.7850  143.0390 C   0  0  1  0  0  3  0  0  0  0  0  0
  189.9050  176.9540  145.6610 C   0  0  0  0  0  0  0  0  0  0  0  0
  188.3240  175.1500  141.7370 C   0  0  2  0  0  3  0  0  0  0  0  0
  186.9870  176.8620  140.5170 C   0  0  0  0  0  0  0  0  0  0  0  0
  188.8590  176.9090  146.7280 C   0  0  2  0  0  3  0  0  0  0  0  0
  189.5090  176.9600  144.2100 C   0  0  1  0  0  3  0  0  0  0  0  0
  183.7630  179.1730  145.4940 C   0  0  0  0  0  3  0  0  0  0  0  0
  189.0860  174.4640  140.6280 C   0  0  0  0  0  2  0  0  0  0  0  0
  189.7500  173.4560  142.7530 C   0  0  0  0  0  2  0  0  0  0  0  0
  185.4760  178.9030  147.2340 C   0  0  0  0  0  1  0  0  0  0  0  0
  186.2080  177.6560  142.4520 C   0  0  0  0  0  0  0  0  0  0  0  0
  183.2820  179.0920  144.1890 C   0  0  0  0  0  3  0  0  0  0  0  0
  185.9040  178.2240  144.7950 C   0  0  0  0  0  0  0  0  0  0  0  0
  187.4940  177.2470  142.7030 C   0  0  0  0  0  0  0  0  0  0  0  0
  187.0490  176.5600  139.2970 O   0  0  0  0  0  0  0  0  0  0  0  0
  188.1120  176.6460  141.4890 C   0  0  1  0  0  3  0  0  0  0  0  0
  189.6240  173.1950  141.2570 C   0  0  0  0  0  2  0  0  0  0  0  0
  190.9770  176.2210  142.4760 C   0  0  0  0  0  1  0  0  0  0  0  0
  184.0940  178.5880  143.1770 C   0  0  0  0  0  3  0  0  0  0  0  0
  185.3940  178.1620  143.4640 C   0  0  0  0  0  0  0  0  0  0  0  0
  190.0540  175.7760  143.5160 N   0  0  0  0  0  0  0  0  0  0  0  0
  188.4290  175.4640  146.9600 C   0  0  0  0  0  2  0  0  0  0  0  0
  189.7200  173.4640  146.2300 C   0  0  0  0  0  1  0  0  0  0  0  0
  189.6230  174.5750  147.2570 C   0  0  0  0  0  2  0  0  0  0  0  0
  1  5  1  0  0  0  0
  2 16  1  0  0  0  0
  3 17  1  0  0  0  0
  4  1  2  0  0  0  0
  5 11  1  0  0  0  0
  7 15  1  6  0  0  0
  7 27  1  0  0  0  0
  8  6  2  0  0  0  0
  8 11  1  0  0  0  0
  9 14  1  6  0  0  0
  9  7  1  0  0  0  0
 10  3  1  0  0  0  0
 11 28  1  6  0  0  0
 12  4  1  1  0  0  0
 12  8  1  0  0  0  0
 13  2  1  0  0  0  0
 14 23  1  0  0  0  0
 17 20  2  0  0  0  0
 17 26  1  0  0  0  0
 18 13  2  0  0  0  0
 19  1  1  0  0  0  0
 19  2  2  0  0  0  0
 20  4  1  0  0  0  0
 21 10  2  0  0  0  0
 22 10  1  6  0  0  0
 22  9  1  0  0  0  0
 22 20  1  0  0  0  0
 23 15  1  0  0  0  0
 24 27  1  0  0  0  0
 25 26  2  0  0  0  0
 25 18  1  0  0  0  0
 26 19  1  0  0  0  0
 27 12  1  0  0  0  0
 28 30  1  0  0  0  0
 29 30  1  0  0  0  0
M  END
>  <MODEL>
3

>  <REMARK>
 VINA RESULT:      -8.1      1.974      5.004
  Name = 
  2 active torsions:
  status: ('A' for Active; 'I' for Inactive)
    1  A    between atoms: C_11  and  C_28
    2  A    between atoms: C_28  and  C_30
                            x       y       z     vdW  Elec       q    Type
                         _______ _______ _______ _____ _____    ______ ____

>  <TORSDO>
F 2

$$$$
=
 OpenBabel11112416123D

 30 35  0  0  1  0  0  0  0  0999 V2000
  189.1600  177.1090  145.5150 C   0  0  0  0  0  0  0  0  0  0  0  0
  187.0450  177.9060  146.6040 C   0  0  0  0  0  0  0  0  0  0  0  0
  187.0830  176.0410  142.0220 N   0  0  0  0  0  2  0  0  0  0  0  0
  189.8140  176.6070  144.3630 C   0  0  0  0  0  0  0  0  0  0  0  0
  189.9170  177.3470  146.6710 O   0  0  0  0  0  0  0  0  0  0  0  0
  193.1990  177.0190  145.6630 O   0  0  0  0  0  0  0  0  0  0  0  0
  191.0330  174.1610  143.5180 C   0  0  1  0  0  3  0  0  0  0  0  0
  192.0000  176.7950  145.6190 C   0  0  0  0  0  0  0  0  0  0  0  0
  190.0040  174.2200  142.3740 C   0  0  2  0  0  3  0  0  0  0  0  0
  188.1870  175.5280  141.2800 C   0  0  0  0  0  0  0  0  0  0  0  0
  191.2050  176.7680  146.8860 C   0  0  2  0  0  3  0  0  0  0  0  0
  191.3320  176.5280  144.2980 C   0  0  1  0  0  3  0  0  0  0  0  0
  185.6620  178.0950  146.5270 C   0  0  0  0  0  3  0  0  0  0  0  0
  190.6360  173.4880  141.2150 C   0  0  0  0  0  2  0  0  0  0  0  0
  191.8620  172.9130  143.2490 C   0  0  0  0  0  2  0  0  0  0  0  0
  187.7040  178.3280  147.8750 C   0  0  0  0  0  1  0  0  0  0  0  0
  187.6810  176.4890  143.2290 C   0  0  0  0  0  0  0  0  0  0  0  0
  184.9550  177.7520  145.3770 C   0  0  0  0  0  3  0  0  0  0  0  0
  187.7520  177.3560  145.4990 C   0  0  0  0  0  0  0  0  0  0  0  0
  189.0410  176.3040  143.2420 C   0  0  0  0  0  0  0  0  0  0  0  0
  188.0580  175.0570  140.1190 O   0  0  0  0  0  0  0  0  0  0  0  0
  189.5000  175.6180  142.0020 C   0  0  1  0  0  3  0  0  0  0  0  0
  191.4910  172.4140  141.8590 C   0  0  0  0  0  2  0  0  0  0  0  0
  192.5340  175.7470  142.3880 C   0  0  0  0  0  1  0  0  0  0  0  0
  185.6260  177.2180  144.2810 C   0  0  0  0  0  3  0  0  0  0  0  0
  187.0090  177.0250  144.3270 C   0  0  0  0  0  0  0  0  0  0  0  0
  191.9190  175.3400  143.6480 N   0  0  0  0  0  0  0  0  0  0  0  0
  191.0760  175.3290  147.3750 C   0  0  0  0  0  2  0  0  0  0  0  0
  189.3160  173.7930  146.5130 C   0  0  0  0  0  1  0  0  0  0  0  0
  189.6210  174.9130  147.4880 C   0  0  0  0  0  2  0  0  0  0  0  0
  1  5  1  0  0  0  0
  2 16  1  0  0  0  0
  3 17  1  0  0  0  0
  4  1  2  0  0  0  0
  5 11  1  0  0  0  0
  7 15  1  6  0  0  0
  7 27  1  0  0  0  0
  8  6  2  0  0  0  0
  8 11  1  0  0  0  0
  9 14  1  6  0  0  0
  9  7  1  0  0  0  0
 10  3  1  0  0  0  0
 11 28  1  6  0  0  0
 12  4  1  1  0  0  0
 12  8  1  0  0  0  0
 13  2  1  0  0  0  0
 14 23  1  0  0  0  0
 17 20  2  0  0  0  0
 17 26  1  0  0  0  0
 18 13  2  0  0  0  0
 19  1  1  0  0  0  0
 19  2  2  0  0  0  0
 20  4  1  0  0  0  0
 21 10  2  0  0  0  0
 22 10  1  6  0  0  0
 22  9  1  0  0  0  0
 22 20  1  0  0  0  0
 23 15  1  0  0  0  0
 24 27  1  0  0  0  0
 25 26  2  0  0  0  0
 25 18  1  0  0  0  0
 26 19  1  0  0  0  0
 27 12  1  0  0  0  0
 28 30  1  0  0  0  0
 29 30  1  0  0  0  0
M  END
>  <MODEL>
4

>  <REMARK>
 VINA RESULT:      -7.5      1.830      4.781
  Name = 
  2 active torsions:
  status: ('A' for Active; 'I' for Inactive)
    1  A    between atoms: C_11  and  C_28
    2  A    between atoms: C_28  and  C_30
                            x       y       z     vdW  Elec       q    Type
                         _______ _______ _______ _____ _____    ______ ____

>  <TORSDO>
F 2

$$$$
=
 OpenBabel11112416123D

 30 35  0  0  1  0  0  0  0  0999 V2000
  190.1020  176.3150  144.2540 C   0  0  0  0  0  0  0  0  0  0  0  0
  187.7840  177.1080  144.7880 C   0  0  0  0  0  0  0  0  0  0  0  0
  188.7300  174.2500  140.8610 N   0  0  0  0  0  2  0  0  0  0  0  0
  190.9760  175.6340  143.3700 C   0  0  0  0  0  0  0  0  0  0  0  0
  190.6340  176.8940  145.4150 O   0  0  0  0  0  0  0  0  0  0  0  0
  194.0550  176.6990  145.0180 O   0  0  0  0  0  0  0  0  0  0  0  0
  192.4890  173.2060  143.3430 C   0  0  1  0  0  3  0  0  0  0  0  0
  192.8990  176.3430  144.8530 C   0  0  0  0  0  0  0  0  0  0  0  0
  191.6670  172.8880  142.0790 C   0  0  2  0  0  3  0  0  0  0  0  0
  189.9770  173.7030  140.4400 C   0  0  0  0  0  0  0  0  0  0  0  0
  191.9040  176.5220  145.9550 C   0  0  2  0  0  3  0  0  0  0  0  0
  192.4860  175.7070  143.5540 C   0  0  1  0  0  3  0  0  0  0  0  0
  186.4240  177.1230  144.4620 C   0  0  0  0  0  3  0  0  0  0  0  0
  192.5370  171.9800  141.2420 C   0  0  0  0  0  2  0  0  0  0  0  0
  193.4360  172.0260  143.5140 C   0  0  0  0  0  2  0  0  0  0  0  0
  188.1860  177.8810  145.9990 C   0  0  0  0  0  1  0  0  0  0  0  0
  189.0810  175.0270  141.9960 C   0  0  0  0  0  0  0  0  0  0  0  0
  185.9480  176.4490  143.3400 C   0  0  0  0  0  3  0  0  0  0  0  0
  188.7050  176.3970  143.9690 C   0  0  0  0  0  0  0  0  0  0  0  0
  190.4290  174.9980  142.2560 C   0  0  0  0  0  0  0  0  0  0  0  0
  190.0800  172.9660  139.4250 O   0  0  0  0  0  0  0  0  0  0  0  0
  191.1390  174.0990  141.3050 C   0  0  1  0  0  3  0  0  0  0  0  0
  193.3420  171.1830  142.2490 C   0  0  0  0  0  2  0  0  0  0  0  0
  194.0460  174.6400  142.0940 C   0  0  0  0  0  1  0  0  0  0  0  0
  186.8320  175.7530  142.5200 C   0  0  0  0  0  3  0  0  0  0  0  0
  188.1970  175.7260  142.8170 C   0  0  0  0  0  0  0  0  0  0  0  0
  193.2560  174.4720  143.3090 N   0  0  0  0  0  0  0  0  0  0  0  0
  191.7940  175.2300  146.7570 C   0  0  0  0  0  2  0  0  0  0  0  0
  189.4560  174.6360  147.3740 C   0  0  0  0  0  1  0  0  0  0  0  0
  190.7220  175.3340  147.8280 C   0  0  0  0  0  2  0  0  0  0  0  0
  1  5  1  0  0  0  0
  2 16  1  0  0  0  0
  3 17  1  0  0  0  0
  4  1  2  0  0  0  0
  5 11  1  0  0  0  0
  7 15  1  6  0  0  0
  8  6  2  0  0  0  0
  8 11  1  0  0  0  0
  9 14  1  6  0  0  0
  9  7  1  0  0  0  0
 10  3  1  0  0  0  0
 11 28  1  6  0  0  0
 12  4  1  1  0  0  0
 12  8  1  0  0  0  0
 13  2  1  0  0  0  0
 14 23  1  0  0  0  0
 17 20  2  0  0  0  0
 17 26  1  0  0  0  0
 18 13  2  0  0  0  0
 19  1  1  0  0  0  0
 19  2  2  0  0  0  0
 20  4  1  0  0  0  0
 21 10  2  0  0  0  0
 22 10  1  6  0  0  0
 22  9  1  0  0  0  0
 22 20  1  0  0  0  0
 23 15  1  0  0  0  0
 24 27  1  0  0  0  0
 25 26  2  0  0  0  0
 25 18  1  0  0  0  0
 26 19  1  0  0  0  0
 27  7  1  0  0  0  0
 27 12  1  0  0  0  0
 28 30  1  0  0  0  0
 29 30  1  0  0  0  0
M  END
>  <MODEL>
5

>  <REMARK>
 VINA RESULT:      -7.4      2.306      5.406
  Name = 
  2 active torsions:
  status: ('A' for Active; 'I' for Inactive)
    1  A    between atoms: C_11  and  C_28
    2  A    between atoms: C_28  and  C_30
                            x       y       z     vdW  Elec       q    Type
                         _______ _______ _______ _____ _____    ______ ____

>  <TORSDO>
F 2

$$$$
=
 OpenBabel11112416123D

 30 35  0  0  1  0  0  0  0  0999 V2000
  190.4260  175.3730  143.2920 C   0  0  0  0  0  0  0  0  0  0  0  0
  192.4690  173.9250  143.4260 C   0  0  0  0  0  0  0  0  0  0  0  0
  191.0520  176.8010  147.1950 N   0  0  0  0  0  2  0  0  0  0  0  0
  189.6010  176.3620  143.8840 C   0  0  0  0  0  0  0  0  0  0  0  0
  190.0860  174.8830  142.0240 O   0  0  0  0  0  0  0  0  0  0  0  0
  187.5770  176.9710  140.9080 O   0  0  0  0  0  0  0  0  0  0  0  0
  186.9810  176.5310  145.0200 C   0  0  1  0  0  3  0  0  0  0  0  0
  188.2410  176.3900  141.7520 C   0  0  0  0  0  0  0  0  0  0  0  0
  187.7240  177.0190  146.2780 C   0  0  2  0  0  3  0  0  0  0  0  0
  189.9130  177.6540  147.2820 C   0  0  0  0  0  0  0  0  0  0  0  0
  188.7800  175.0260  141.4620 C   0  0  2  0  0  3  0  0  0  0  0  0
  188.4970  177.0390  143.0850 C   0  0  1  0  0  3  0  0  0  0  0  0
  193.5580  173.4660  144.1730 C   0  0  0  0  0  3  0  0  0  0  0  0
  186.7470  177.9070  147.0120 C   0  0  0  0  0  2  0  0  0  0  0  0
  185.5030  176.5770  145.3820 C   0  0  0  0  0  2  0  0  0  0  0  0
  192.3320  173.3780  142.0450 C   0  0  0  0  0  1  0  0  0  0  0  0
  190.9760  176.2890  145.8720 C   0  0  0  0  0  0  0  0  0  0  0  0
  193.7870  173.9300  145.4660 C   0  0  0  0  0  3  0  0  0  0  0  0
  191.5740  174.8800  143.9850 C   0  0  0  0  0  0  0  0  0  0  0  0
  189.9040  176.7910  145.1760 C   0  0  0  0  0  0  0  0  0  0  0  0
  189.6520  178.3230  148.3160 O   0  0  0  0  0  0  0  0  0  0  0  0
  189.0800  177.6870  146.0340 C   0  0  1  0  0  3  0  0  0  0  0  0
  185.3860  177.3120  146.7110 C   0  0  0  0  0  2  0  0  0  0  0  0
  187.0860  178.7510  143.9700 C   0  0  0  0  0  1  0  0  0  0  0  0
  192.9290  174.8680  146.0310 C   0  0  0  0  0  3  0  0  0  0  0  0
  191.8360  175.3500  145.3060 C   0  0  0  0  0  0  0  0  0  0  0  0
  187.2260  177.3100  143.7850 N   0  0  0  0  0  0  0  0  0  0  0  0
  187.8300  173.9730  142.0250 C   0  0  0  0  0  2  0  0  0  0  0  0
  188.2950  172.7750  139.8920 C   0  0  0  0  0  1  0  0  0  0  0  0
  188.0660  172.6180  141.3820 C   0  0  0  0  0  2  0  0  0  0  0  0
  1  4  2  0  0  0  0
  1 19  1  0  0  0  0
  2 19  2  0  0  0  0
  2 13  1  0  0  0  0
  3 10  1  0  0  0  0
  4 20  1  0  0  0  0
  5  1  1  0  0  0  0
  6  8  2  0  0  0  0
  7 15  1  1  0  0  0
  7  9  1  0  0  0  0
  9 14  1  6  0  0  0
 10 21  2  0  0  0  0
 11  8  1  0  0  0  0
 11  5  1  0  0  0  0
 11 28  1  1  0  0  0
 12  8  1  6  0  0  0
 12 27  1  0  0  0  0
 12  4  1  0  0  0  0
 13 18  2  0  0  0  0
 15 23  1  0  0  0  0
 16  2  1  0  0  0  0
 17  3  1  0  0  0  0
 18 25  1  0  0  0  0
 19 26  1  0  0  0  0
 20 17  2  0  0  0  0
 22 20  1  6  0  0  0
 22  9  1  0  0  0  0
 22 10  1  0  0  0  0
 23 14  1  0  0  0  0
 26 17  1  0  0  0  0
 26 25  2  0  0  0  0
 27 24  1  0  0  0  0
 27  7  1  0  0  0  0
 29 30  1  0  0  0  0
 30 28  1  0  0  0  0
M  END
>  <MODEL>
6

>  <REMARK>
 VINA RESULT:      -7.4      1.842      5.456
  Name = 
  2 active torsions:
  status: ('A' for Active; 'I' for Inactive)
    1  A    between atoms: C_11  and  C_28
    2  A    between atoms: C_28  and  C_30
                            x       y       z     vdW  Elec       q    Type
                         _______ _______ _______ _____ _____    ______ ____

>  <TORSDO>
F 2

$$$$
=
 OpenBabel11112416123D

 30 35  0  0  1  0  0  0  0  0999 V2000
  188.3520  175.9170  144.8820 C   0  0  0  0  0  0  0  0  0  0  0  0
  186.1600  177.1260  145.0460 C   0  0  0  0  0  0  0  0  0  0  0  0
  189.7970  177.8500  148.3220 N   0  0  0  0  0  2  0  0  0  0  0  0
  189.6210  175.6280  145.4430 C   0  0  0  0  0  0  0  0  0  0  0  0
  187.9910  175.2970  143.6770 O   0  0  0  0  0  0  0  0  0  0  0  0
  190.4180  172.9050  143.1470 O   0  0  0  0  0  0  0  0  0  0  0  0
  192.3670  176.1800  144.8610 C   0  0  1  0  0  3  0  0  0  0  0  0
  189.9780  173.9600  143.5770 C   0  0  0  0  0  0  0  0  0  0  0  0
  192.3780  176.8180  146.2630 C   0  0  2  0  0  3  0  0  0  0  0  0
  191.0960  177.2640  148.3520 C   0  0  0  0  0  0  0  0  0  0  0  0
  188.9440  174.7050  142.7940 C   0  0  2  0  0  3  0  0  0  0  0  0
  190.4900  174.5140  144.8780 C   0  0  1  0  0  3  0  0  0  0  0  0
  185.3580  178.0530  145.7160 C   0  0  0  0  0  3  0  0  0  0  0  0
  193.7980  176.6930  146.7600 C   0  0  0  0  0  2  0  0  0  0  0  0
  193.7930  176.3190  144.3450 C   0  0  0  0  0  2  0  0  0  0  0  0
  185.5630  176.4750  143.8440 C   0  0  0  0  0  1  0  0  0  0  0  0
  189.1810  177.2230  147.2070 C   0  0  0  0  0  0  0  0  0  0  0  0
  185.8150  178.7020  146.8610 C   0  0  0  0  0  3  0  0  0  0  0  0
  187.4660  176.8320  145.5300 C   0  0  0  0  0  0  0  0  0  0  0  0
  190.0030  176.3050  146.6020 C   0  0  0  0  0  0  0  0  0  0  0  0
  191.9440  177.5530  149.2370 O   0  0  0  0  0  0  0  0  0  0  0  0
  191.3420  176.2740  147.2510 C   0  0  1  0  0  3  0  0  0  0  0  0
  194.6520  176.7880  145.5120 C   0  0  0  0  0  2  0  0  0  0  0  0
  192.6190  173.9130  145.7790 C   0  0  0  0  0  1  0  0  0  0  0  0
  187.0860  178.4260  147.3570 C   0  0  0  0  0  3  0  0  0  0  0  0
  187.9080  177.4990  146.7110 C   0  0  0  0  0  0  0  0  0  0  0  0
  191.9430  174.7630  144.8030 N   0  0  0  0  0  0  0  0  0  0  0  0
  189.6240  175.7700  141.9390 C   0  0  0  0  0  2  0  0  0  0  0  0
  189.8690  178.1220  142.7160 C   0  0  0  0  0  1  0  0  0  0  0  0
  188.9330  177.1140  142.0800 C   0  0  0  0  0  2  0  0  0  0  0  0
  1  4  2  0  0  0  0
  1 19  1  0  0  0  0
  2 19  2  0  0  0  0
  2 13  1  0  0  0  0
  3 10  1  0  0  0  0
  4 20  1  0  0  0  0
  5  1  1  0  0  0  0
  6  8  2  0  0  0  0
  7 15  1  1  0  0  0
  7  9  1  0  0  0  0
  9 14  1  1  0  0  0
  9 22  1  0  0  0  0
 10 21  2  0  0  0  0
 11 28  1  1  0  0  0
 11  8  1  0  0  0  0
 11  5  1  0  0  0  0
 12  8  1  6  0  0  0
 12  4  1  0  0  0  0
 13 18  2  0  0  0  0
 15 23  1  0  0  0  0
 16  2  1  0  0  0  0
 17  3  1  0  0  0  0
 18 25  1  0  0  0  0
 19 26  1  0  0  0  0
 20 17  2  0  0  0  0
 22 20  1  6  0  0  0
 22 10  1  0  0  0  0
 23 14  1  0  0  0  0
 26 17  1  0  0  0  0
 26 25  2  0  0  0  0
 27  7  1  0  0  0  0
 27 12  1  0  0  0  0
 27 24  1  0  0  0  0
 28 30  1  0  0  0  0
 30 29  1  0  0  0  0
M  END
>  <MODEL>
7

>  <REMARK>
 VINA RESULT:      -7.3      1.473      1.899
  Name = 
  2 active torsions:
  status: ('A' for Active; 'I' for Inactive)
    1  A    between atoms: C_11  and  C_28
    2  A    between atoms: C_28  and  C_30
                            x       y       z     vdW  Elec       q    Type
                         _______ _______ _______ _____ _____    ______ ____

>  <TORSDO>
F 2

$$$$
=
 OpenBabel11112416123D

 30 35  0  0  1  0  0  0  0  0999 V2000
  189.6060  174.5970  141.6030 C   0  0  0  0  0  0  0  0  0  0  0  0
  189.5260  172.4580  140.2970 C   0  0  0  0  0  0  0  0  0  0  0  0
  192.9780  173.2890  143.7430 N   0  0  0  0  0  2  0  0  0  0  0  0
  190.2730  175.4150  142.5500 C   0  0  0  0  0  0  0  0  0  0  0  0
  188.4310  175.0770  141.0080 O   0  0  0  0  0  0  0  0  0  0  0  0
  188.2530  178.3930  141.9400 O   0  0  0  0  0  0  0  0  0  0  0  0
  189.8400  176.3470  145.2190 C   0  0  1  0  0  3  0  0  0  0  0  0
  188.5690  177.2210  142.0710 C   0  0  0  0  0  0  0  0  0  0  0  0
  191.1860  175.6580  145.5150 C   0  0  2  0  0  3  0  0  0  0  0  0
  193.1420  174.4320  144.5790 C   0  0  0  0  0  0  0  0  0  0  0  0
  187.6630  176.1470  141.5610 C   0  0  2  0  0  3  0  0  0  0  0  0
  189.8560  176.8630  142.7630 C   0  0  1  0  0  3  0  0  0  0  0  0
  190.0660  171.1930  140.0460 C   0  0  0  0  0  3  0  0  0  0  0  0
  191.7870  176.4160  146.6760 C   0  0  0  0  0  2  0  0  0  0  0  0
  189.4130  176.9790  146.5370 C   0  0  0  0  0  2  0  0  0  0  0  0
  188.3400  172.8480  139.4810 C   0  0  0  0  0  1  0  0  0  0  0  0
  191.8750  173.6420  142.9210 C   0  0  0  0  0  0  0  0  0  0  0  0
  191.1870  170.7420  140.7400 C   0  0  0  0  0  3  0  0  0  0  0  0
  190.1190  173.3050  141.2740 C   0  0  0  0  0  0  0  0  0  0  0  0
  191.4000  174.9010  143.1910 C   0  0  0  0  0  0  0  0  0  0  0  0
  194.0580  174.5110  145.4390 O   0  0  0  0  0  0  0  0  0  0  0  0
  192.1400  175.5210  144.3250 C   0  0  1  0  0  3  0  0  0  0  0  0
  190.5970  176.8790  147.4910 C   0  0  0  0  0  2  0  0  0  0  0  0
  190.9450  178.3380  144.2940 C   0  0  0  0  0  1  0  0  0  0  0  0
  191.7880  171.5550  141.6960 C   0  0  0  0  0  3  0  0  0  0  0  0
  191.2740  172.8270  141.9630 C   0  0  0  0  0  0  0  0  0  0  0  0
  189.8620  177.3700  144.1490 N   0  0  0  0  0  0  0  0  0  0  0  0
  186.7770  175.6460  142.6970 C   0  0  0  0  0  2  0  0  0  0  0  0
  186.0700  176.7910  144.7920 C   0  0  0  0  0  1  0  0  0  0  0  0
  185.9410  176.7710  143.2820 C   0  0  0  0  0  2  0  0  0  0  0  0
  1  4  1  0  0  0  0
  2 19  1  0  0  0  0
  3 10  1  0  0  0  0
  4 12  1  0  0  0  0
  4 20  2  0  0  0  0
  5 11  1  0  0  0  0
  5  1  1  0  0  0  0
  6  8  2  0  0  0  0
  7  9  1  0  0  0  0
  7 15  1  1  0  0  0
  9 14  1  1  0  0  0
 10 21  2  0  0  0  0
 11  8  1  0  0  0  0
 11 28  1  1  0  0  0
 12  8  1  1  0  0  0
 12 27  1  0  0  0  0
 13  2  2  0  0  0  0
 13 18  1  0  0  0  0
 14 23  1  0  0  0  0
 15 23  1  0  0  0  0
 16  2  1  0  0  0  0
 17 20  1  0  0  0  0
 17  3  1  0  0  0  0
 18 25  2  0  0  0  0
 19  1  2  0  0  0  0
 19 26  1  0  0  0  0
 22 20  1  6  0  0  0
 22 10  1  0  0  0  0
 22  9  1  0  0  0  0
 25 26  1  0  0  0  0
 26 17  2  0  0  0  0
 27 24  1  0  0  0  0
 27  7  1  0  0  0  0
 28 30  1  0  0  0  0
 30 29  1  0  0  0  0
M  END
>  <MODEL>
8

>  <REMARK>
 VINA RESULT:      -7.0      2.292      5.583
  Name = 
  2 active torsions:
  status: ('A' for Active; 'I' for Inactive)
    1  A    between atoms: C_11  and  C_28
    2  A    between atoms: C_28  and  C_30
                            x       y       z     vdW  Elec       q    Type
                         _______ _______ _______ _____ _____    ______ ____

>  <TORSDO>
F 2

$$$$
=
 OpenBabel11112416123D

 30 35  0  0  1  0  0  0  0  0999 V2000
  188.2540  175.5200  144.1350 C   0  0  0  0  0  0  0  0  0  0  0  0
  186.7400  177.0770  145.3900 C   0  0  0  0  0  0  0  0  0  0  0  0
  191.4010  176.2410  146.8250 N   0  0  0  0  0  2  0  0  0  0  0  0
  189.5010  174.8530  144.0470 C   0  0  0  0  0  0  0  0  0  0  0  0
  187.2950  175.2920  143.1380 O   0  0  0  0  0  0  0  0  0  0  0  0
  188.5360  172.6510  141.3000 O   0  0  0  0  0  0  0  0  0  0  0  0
  191.8440  174.9530  142.4070 C   0  0  1  0  0  3  0  0  0  0  0  0
  188.6170  173.6400  142.0110 C   0  0  0  0  0  0  0  0  0  0  0  0
  192.5760  175.2230  143.7350 C   0  0  2  0  0  3  0  0  0  0  0  0
  192.3850  175.4110  146.2120 C   0  0  0  0  0  0  0  0  0  0  0  0
  187.6220  174.7450  141.8590 C   0  0  2  0  0  3  0  0  0  0  0  0
  189.7270  173.7510  143.0210 C   0  0  1  0  0  3  0  0  0  0  0  0
  186.5600  177.9630  146.4570 C   0  0  0  0  0  3  0  0  0  0  0  0
  193.9780  174.6950  143.5450 C   0  0  0  0  0  2  0  0  0  0  0  0
  192.9340  174.9160  141.3460 C   0  0  0  0  0  2  0  0  0  0  0  0
  185.5660  176.8670  144.4940 C   0  0  0  0  0  1  0  0  0  0  0  0
  190.2520  176.0370  146.0170 C   0  0  0  0  0  0  0  0  0  0  0  0
  187.5880  178.2130  147.3630 C   0  0  0  0  0  3  0  0  0  0  0  0
  187.9880  176.4160  145.2160 C   0  0  0  0  0  0  0  0  0  0  0  0
  190.4760  175.1410  145.0010 C   0  0  0  0  0  0  0  0  0  0  0  0
  193.5520  175.3010  146.6690 O   0  0  0  0  0  0  0  0  0  0  0  0
  191.8930  174.6820  144.9950 C   0  0  1  0  0  3  0  0  0  0  0  0
  194.2730  174.9080  142.0730 C   0  0  0  0  0  2  0  0  0  0  0  0
  191.7700  172.5300  142.8220 C   0  0  0  0  0  1  0  0  0  0  0  0
  188.8150  177.5720  147.2170 C   0  0  0  0  0  3  0  0  0  0  0  0
  189.0220  176.6770  146.1640 C   0  0  0  0  0  0  0  0  0  0  0  0
  191.0430  173.7080  142.3560 N   0  0  0  0  0  0  0  0  0  0  0  0
  188.1920  175.8210  140.9400 C   0  0  0  0  0  2  0  0  0  0  0  0
  188.1980  178.2110  141.6380 C   0  0  0  0  0  1  0  0  0  0  0  0
  187.3770  177.0990  141.0150 C   0  0  0  0  0  2  0  0  0  0  0  0
  1 19  1  0  0  0  0
  2 13  1  0  0  0  0
  4  1  2  0  0  0  0
  4 20  1  0  0  0  0
  5  1  1  0  0  0  0
  6  8  2  0  0  0  0
  7 15  1  6  0  0  0
  7  9  1  0  0  0  0
  9 14  1  6  0  0  0
  9 22  1  0  0  0  0
 10 21  2  0  0  0  0
 10  3  1  0  0  0  0
 11 28  1  6  0  0  0
 11  8  1  0  0  0  0
 11  5  1  0  0  0  0
 12  8  1  6  0  0  0
 12  4  1  0  0  0  0
 13 18  2  0  0  0  0
 15 23  1  0  0  0  0
 16  2  1  0  0  0  0
 17 26  1  0  0  0  0
 17  3  1  0  0  0  0
 19  2  2  0  0  0  0
 19 26  1  0  0  0  0
 20 17  2  0  0  0  0
 22 20  1  6  0  0  0
 22 10  1  0  0  0  0
 23 14  1  0  0  0  0
 25 18  1  0  0  0  0
 26 25  2  0  0  0  0
 27  7  1  0  0  0  0
 27 24  1  0  0  0  0
 27 12  1  0  0  0  0
 28 30  1  0  0  0  0
 30 29  1  0  0  0  0
M  END
>  <MODEL>
9

>  <REMARK>
 VINA RESULT:      -7.0      1.361      1.792
  Name = 
  2 active torsions:
  status: ('A' for Active; 'I' for Inactive)
    1  A    between atoms: C_11  and  C_28
    2  A    between atoms: C_28  and  C_30
                            x       y       z     vdW  Elec       q    Type
                         _______ _______ _______ _____ _____    ______ ____

>  <TORSDO>
F 2

$$$$
