=
 OpenBabel11112417483D

 34 40  0  0  1  0  0  0  0  0999 V2000
  189.6180  174.8440  143.4740 C   0  0  0  0  0  0  0  0  0  0  0  0
  191.9990  174.5380  142.7490 C   0  0  0  0  0  2  0  0  0  0  0  0
  185.8300  179.3680  146.3310 C   0  0  1  0  0  3  0  0  0  0  0  0
  187.6520  176.1580  144.0170 C   0  0  0  0  0  0  0  0  0  0  0  0
  187.5680  177.4040  146.2710 C   0  0  2  0  0  3  0  0  0  0  0  0
  187.1030  178.6710  148.3900 C   0  0  0  0  0  1  0  0  0  0  0  0
  185.9840  179.7750  145.0180 F   0  0  0  0  0  0  0  0  0  0  0  0
  184.7670  177.0060  146.4130 C   0  0  0  0  0  2  0  0  0  0  0  0
  191.5490  174.6240  145.1230 N   0  0  2  0  0  0  0  0  0  0  0  0
  193.8510  175.9620  146.8250 C   0  0  0  0  0  2  0  0  0  0  0  0
  189.0850  177.3780  146.1510 C   0  0  0  0  0  2  0  0  0  0  0  0
  185.4460  176.5460  145.1210 C   0  0  0  0  0  2  0  0  0  0  0  0
  191.0650  175.9100  145.6830 C   0  0  1  0  0  3  0  0  0  0  0  0
  193.2810  174.2120  143.4500 C   0  0  0  0  0  2  0  0  0  0  0  0
  186.8740  177.0810  144.9270 C   0  0  2  0  0  3  0  0  0  0  0  0
  184.5590  178.5190  146.4890 C   0  0  0  0  0  2  0  0  0  0  0  0
  193.8530  175.7950  145.3150 C   0  0  2  0  0  3  0  0  0  0  0  0
  188.9390  175.6840  144.3620 C   0  0  0  0  0  0  0  0  0  0  0  0
  187.1350  178.7550  146.8740 C   0  0  2  0  0  3  0  0  0  0  0  0
  189.5350  175.9920  145.7000 C   0  0  2  0  0  3  0  0  0  0  0  0
  187.7630  175.0100  141.9370 C   0  0  0  0  0  3  0  0  0  0  0  0
  192.7420  176.8130  147.2230 N   0  0  0  0  0  2  0  0  0  0  0  0
  187.1170  175.8230  142.8110 N   0  0  0  0  0  0  0  0  0  0  0  0
  191.5250  176.0230  147.1380 C   0  0  0  0  0  2  0  0  0  0  0  0
  193.0240  174.5530  144.9100 C   0  0  1  0  0  3  0  0  0  0  0  0
  189.0190  174.5000  142.2570 C   0  0  0  0  0  3  0  0  0  0  0  0
  190.9670  174.2670  143.8120 C   0  0  1  0  0  3  0  0  0  0  0  0
  195.1780  175.6540  144.8890 O   0  0  0  0  0  0  0  0  0  0  0  0
  195.4880  176.8730  144.2790 C   0  0  0  0  0  2  0  0  0  0  0  0
  196.7420  174.5490  142.2930 O   0  0  0  0  0  0  0  0  0  0  0  0
  196.0710  176.7550  141.9290 N   0  0  0  0  0  2  0  0  0  0  0  0
  196.6040  176.6740  143.2690 C   0  0  2  0  0  3  0  0  0  0  0  0
  196.4880  175.5100  141.3030 C   0  0  0  0  0  2  0  0  0  0  0  0
  197.1620  175.2830  143.4050 C   0  0  0  0  0  2  0  0  0  0  0  0
  1 27  1  0  0  0  0
  1 18  1  0  0  0  0
  2 14  1  0  0  0  0
  2 27  1  0  0  0  0
  3  7  1  6  0  0  0
  3 16  1  0  0  0  0
  3 19  1  0  0  0  0
  4 18  2  0  0  0  0
  4 15  1  0  0  0  0
  5 11  1  6  0  0  0
  5 19  1  0  0  0  0
  8 16  1  0  0  0  0
  9 13  1  0  0  0  0
 10 22  1  0  0  0  0
 12  8  1  0  0  0  0
 13 20  1  0  0  0  0
 13 24  1  0  0  0  0
 14 25  1  0  0  0  0
 15 12  1  0  0  0  0
 15  5  1  0  0  0  0
 17 10  1  0  0  0  0
 18 20  1  0  0  0  0
 19  6  1  0  0  0  0
 20 11  1  0  0  0  0
 21 26  1  0  0  0  0
 21 23  2  0  0  0  0
 23  4  1  0  0  0  0
 24 22  1  0  0  0  0
 25  9  1  0  0  0  0
 25 17  1  0  0  0  0
 26  1  2  0  0  0  0
 27  9  1  0  0  0  0
 28 17  1  0  0  0  0
 29 28  1  0  0  0  0
 30 34  1  0  0  0  0
 31 32  1  0  0  0  0
 32 34  1  0  0  0  0
 32 29  1  0  0  0  0
 33 31  1  0  0  0  0
 33 30  1  0  0  0  0
M  END
>  <MODEL>
1

>  <REMARK>
 VINA RESULT:      -8.4      0.000      0.000
  Name = 
  3 active torsions:
  status: ('A' for Active; 'I' for Inactive)
    1  A    between atoms: C_17  and  O_28
    2  A    between atoms: O_28  and  C_29
    3  A    between atoms: C_29  and  C_32
                            x       y       z     vdW  Elec       q    Type
                         _______ _______ _______ _____ _____    ______ ____

>  <TORSDO>
F 3

$$$$
=
 OpenBabel11112417483D

 34 40  0  0  1  0  0  0  0  0999 V2000
  192.1430  176.0520  145.8690 C   0  0  0  0  0  0  0  0  0  0  0  0
  189.9290  176.9750  146.6000 C   0  0  0  0  0  2  0  0  0  0  0  0
  196.0620  176.0960  140.6130 C   0  0  1  0  0  3  0  0  0  0  0  0
  194.1720  176.0370  144.5380 C   0  0  0  0  0  0  0  0  0  0  0  0
  194.0440  175.2800  142.0780 C   0  0  2  0  0  3  0  0  0  0  0  0
  194.3150  174.5320  139.6950 C   0  0  0  0  0  1  0  0  0  0  0  0
  196.2380  177.3220  141.2300 F   0  0  0  0  0  0  0  0  0  0  0  0
  196.6490  174.1810  142.2570 C   0  0  0  0  0  2  0  0  0  0  0  0
  189.9250  175.2630  144.8920 N   0  0  2  0  0  0  0  0  0  0  0  0
  187.6170  175.5770  142.7560 C   0  0  0  0  0  2  0  0  0  0  0  0
  192.5990  175.7440  142.1850 C   0  0  0  0  0  2  0  0  0  0  0  0
  196.1590  174.9500  143.4860 C   0  0  0  0  0  2  0  0  0  0  0  0
  190.5150  175.6070  143.5750 C   0  0  1  0  0  3  0  0  0  0  0  0
  188.5000  176.6050  146.3540 C   0  0  0  0  0  2  0  0  0  0  0  0
  194.9130  175.8170  143.2390 C   0  0  2  0  0  3  0  0  0  0  0  0
  197.1070  175.0850  141.1120 C   0  0  0  0  0  2  0  0  0  0  0  0
  187.8740  176.5160  143.9220 C   0  0  2  0  0  3  0  0  0  0  0  0
  192.7790  175.8170  144.6460 C   0  0  0  0  0  0  0  0  0  0  0  0
  194.5890  175.6500  140.6840 C   0  0  2  0  0  3  0  0  0  0  0  0
  192.0030  175.2490  143.4990 C   0  0  2  0  0  3  0  0  0  0  0  0
  194.2570  176.7450  146.8070 C   0  0  0  0  0  3  0  0  0  0  0  0
  188.7640  175.5790  141.8630 N   0  0  0  0  0  2  0  0  0  0  0  0
  194.8590  176.5120  145.6130 N   0  0  0  0  0  0  0  0  0  0  0  0
  189.8130  174.7900  142.4870 C   0  0  0  0  0  2  0  0  0  0  0  0
  188.5290  175.7500  145.0950 C   0  0  1  0  0  3  0  0  0  0  0  0
  192.8920  176.5110  146.9570 C   0  0  0  0  0  3  0  0  0  0  0  0
  190.6730  175.7840  146.0550 C   0  0  1  0  0  3  0  0  0  0  0  0
  186.6520  177.0660  144.3230 O   0  0  0  0  0  0  0  0  0  0  0  0
  186.6370  178.3480  143.7670 C   0  0  0  0  0  2  0  0  0  0  0  0
  183.6720  178.7350  145.1720 O   0  0  0  0  0  0  0  0  0  0  0  0
  185.8460  178.7530  146.0220 N   0  0  0  0  0  2  0  0  0  0  0  0
  185.8930  179.3000  144.6850 C   0  0  2  0  0  3  0  0  0  0  0  0
  184.4300  178.7390  146.3530 C   0  0  0  0  0  2  0  0  0  0  0  0
  184.4610  179.4120  144.2380 C   0  0  0  0  0  2  0  0  0  0  0  0
  1 27  1  0  0  0  0
  1 26  1  0  0  0  0
  3 19  1  0  0  0  0
  3 16  1  0  0  0  0
  3  7  1  1  0  0  0
  4 18  1  0  0  0  0
  4 23  2  0  0  0  0
  5 11  1  1  0  0  0
  5 15  1  0  0  0  0
  6 19  1  0  0  0  0
  8 12  1  0  0  0  0
  9 25  1  0  0  0  0
  9 27  1  0  0  0  0
 10 17  1  0  0  0  0
 11 20  1  0  0  0  0
 13  9  1  0  0  0  0
 14  2  1  0  0  0  0
 15 12  1  0  0  0  0
 15  4  1  0  0  0  0
 16  8  1  0  0  0  0
 17 28  1  0  0  0  0
 17 25  1  0  0  0  0
 18  1  2  0  0  0  0
 19  5  1  0  0  0  0
 20 13  1  0  0  0  0
 20 18  1  0  0  0  0
 21 26  2  0  0  0  0
 22 24  1  0  0  0  0
 22 10  1  0  0  0  0
 23 21  1  0  0  0  0
 24 13  1  0  0  0  0
 25 14  1  0  0  0  0
 27  2  1  0  0  0  0
 29 28  1  0  0  0  0
 29 32  1  0  0  0  0
 30 33  1  0  0  0  0
 31 33  1  0  0  0  0
 32 31  1  0  0  0  0
 34 32  1  0  0  0  0
 34 30  1  0  0  0  0
M  END
>  <MODEL>
2

>  <REMARK>
 VINA RESULT:      -8.3      3.547      8.842
  Name = 
  3 active torsions:
  status: ('A' for Active; 'I' for Inactive)
    1  A    between atoms: C_17  and  O_28
    2  A    between atoms: O_28  and  C_29
    3  A    between atoms: C_29  and  C_32
                            x       y       z     vdW  Elec       q    Type
                         _______ _______ _______ _____ _____    ______ ____

>  <TORSDO>
F 3

$$$$
=
 OpenBabel11112417483D

 34 40  0  0  1  0  0  0  0  0999 V2000
  190.7250  176.1730  146.3320 C   0  0  0  0  0  0  0  0  0  0  0  0
  188.4240  177.0910  145.9430 C   0  0  0  0  0  2  0  0  0  0  0  0
  196.5030  175.7630  143.2600 C   0  0  1  0  0  3  0  0  0  0  0  0
  193.1260  176.0820  145.9950 C   0  0  0  0  0  0  0  0  0  0  0  0
  194.0420  175.0440  143.8210 C   0  0  2  0  0  3  0  0  0  0  0  0
  195.2870  174.0390  141.8840 C   0  0  0  0  0  1  0  0  0  0  0  0
  196.4190  177.0570  143.7420 F   0  0  0  0  0  0  0  0  0  0  0  0
  196.3090  174.0710  145.2140 C   0  0  0  0  0  2  0  0  0  0  0  0
  189.1190  175.1950  144.6110 N   0  0  2  0  0  0  0  0  0  0  0  0
  187.9390  175.1770  141.6800 C   0  0  0  0  0  2  0  0  0  0  0  0
  192.6950  175.4630  143.2520 C   0  0  0  0  0  2  0  0  0  0  0  0
  195.3560  174.9570  146.0190 C   0  0  0  0  0  2  0  0  0  0  0  0
  190.2160  175.4080  143.6360 C   0  0  1  0  0  3  0  0  0  0  0  0
  187.2290  176.6420  145.1630 C   0  0  0  0  0  2  0  0  0  0  0  0
  194.3450  175.7430  145.1680 C   0  0  2  0  0  3  0  0  0  0  0  0
  197.2220  174.8550  144.2710 C   0  0  0  0  0  2  0  0  0  0  0  0
  187.6910  176.2520  142.7240 C   0  0  2  0  0  3  0  0  0  0  0  0
  191.8160  175.8240  145.5300 C   0  0  0  0  0  0  0  0  0  0  0  0
  195.1320  175.2730  142.7550 C   0  0  2  0  0  3  0  0  0  0  0  0
  191.5910  175.0990  144.2390 C   0  0  2  0  0  3  0  0  0  0  0  0
  192.2530  177.0470  147.9860 C   0  0  0  0  0  3  0  0  0  0  0  0
  189.3560  175.1190  141.3620 N   0  0  0  0  0  2  0  0  0  0  0  0
  193.3000  176.7020  147.1950 N   0  0  0  0  0  0  0  0  0  0  0  0
  190.0290  174.4470  142.4600 C   0  0  0  0  0  2  0  0  0  0  0  0
  187.7760  175.6510  144.1470 C   0  0  1  0  0  3  0  0  0  0  0  0
  190.9490  176.7810  147.5720 C   0  0  0  0  0  3  0  0  0  0  0  0
  189.3110  175.8730  145.9110 C   0  0  1  0  0  3  0  0  0  0  0  0
  186.4230  176.7980  142.5030 O   0  0  0  0  0  0  0  0  0  0  0  0
  186.6610  178.1380  142.1820 C   0  0  0  0  0  2  0  0  0  0  0  0
  184.2070  178.2080  144.3930 O   0  0  0  0  0  0  0  0  0  0  0  0
  185.7880  179.7890  143.7260 N   0  0  0  0  0  2  0  0  0  0  0  0
  185.4620  178.9820  142.5730 C   0  0  2  0  0  3  0  0  0  0  0  0
  184.7530  179.4640  144.6950 C   0  0  0  0  0  2  0  0  0  0  0  0
  184.3360  178.0840  143.0070 C   0  0  0  0  0  2  0  0  0  0  0  0
  1 26  1  0  0  0  0
  3  7  1  1  0  0  0
  3 16  1  0  0  0  0
  4 23  2  0  0  0  0
  5 11  1  6  0  0  0
  5 15  1  0  0  0  0
  6 19  1  0  0  0  0
  8 12  1  0  0  0  0
  9 27  1  0  0  0  0
 10 17  1  0  0  0  0
 11 20  1  0  0  0  0
 13 20  1  0  0  0  0
 13  9  1  0  0  0  0
 14  2  1  0  0  0  0
 15  4  1  0  0  0  0
 15 12  1  0  0  0  0
 16  8  1  0  0  0  0
 17 25  1  0  0  0  0
 18  4  1  0  0  0  0
 18  1  2  0  0  0  0
 19  3  1  0  0  0  0
 19  5  1  0  0  0  0
 20 18  1  0  0  0  0
 22 10  1  0  0  0  0
 22 24  1  0  0  0  0
 23 21  1  0  0  0  0
 24 13  1  0  0  0  0
 25  9  1  0  0  0  0
 25 14  1  0  0  0  0
 26 21  2  0  0  0  0
 27  2  1  0  0  0  0
 27  1  1  0  0  0  0
 28 17  1  0  0  0  0
 29 28  1  0  0  0  0
 29 32  1  0  0  0  0
 30 33  1  0  0  0  0
 31 33  1  0  0  0  0
 32 34  1  0  0  0  0
 32 31  1  0  0  0  0
 34 30  1  0  0  0  0
M  END
>  <MODEL>
3

>  <REMARK>
 VINA RESULT:      -8.1      3.541      8.561
  Name = 
  3 active torsions:
  status: ('A' for Active; 'I' for Inactive)
    1  A    between atoms: C_17  and  O_28
    2  A    between atoms: O_28  and  C_29
    3  A    between atoms: C_29  and  C_32
                            x       y       z     vdW  Elec       q    Type
                         _______ _______ _______ _____ _____    ______ ____

>  <TORSDO>
F 3

$$$$
=
 OpenBabel11112417483D

 34 40  0  0  1  0  0  0  0  0999 V2000
  188.9810  175.0480  142.6070 C   0  0  0  0  0  0  0  0  0  0  0  0
  191.3620  174.2610  142.6670 C   0  0  0  0  0  2  0  0  0  0  0  0
  185.3680  180.1270  144.6380 C   0  0  1  0  0  3  0  0  0  0  0  0
  187.2360  176.7330  142.6450 C   0  0  0  0  0  0  0  0  0  0  0  0
  186.6120  177.8320  144.8920 C   0  0  2  0  0  3  0  0  0  0  0  0
  185.6890  179.0440  146.8890 C   0  0  0  0  0  1  0  0  0  0  0  0
  186.0420  180.5660  143.5130 F   0  0  0  0  0  0  0  0  0  0  0  0
  183.9150  178.0620  144.0560 C   0  0  0  0  0  2  0  0  0  0  0  0
  190.1390  174.3060  144.7530 N   0  0  2  0  0  0  0  0  0  0  0  0
  191.9160  174.9940  147.2750 C   0  0  0  0  0  2  0  0  0  0  0  0
  188.0420  177.4750  145.2710 C   0  0  0  0  0  2  0  0  0  0  0  0
  184.9000  177.5390  143.0090 C   0  0  0  0  0  2  0  0  0  0  0  0
  189.7440  175.6320  145.2880 C   0  0  1  0  0  3  0  0  0  0  0  0
  192.2330  173.6170  143.6990 C   0  0  0  0  0  2  0  0  0  0  0  0
  186.3810  177.7520  143.3650 C   0  0  2  0  0  3  0  0  0  0  0  0
  183.9840  179.5750  144.2590 C   0  0  0  0  0  2  0  0  0  0  0  0
  192.4110  174.9190  145.8400 C   0  0  2  0  0  3  0  0  0  0  0  0
  188.2080  175.9640  143.3270 C   0  0  0  0  0  0  0  0  0  0  0  0
  186.2610  179.2070  145.4920 C   0  0  2  0  0  3  0  0  0  0  0  0
  188.3490  176.0520  144.8140 C   0  0  2  0  0  3  0  0  0  0  0  0
  187.8430  175.7140  140.5840 C   0  0  0  0  0  3  0  0  0  0  0  0
  190.9200  176.0460  147.3960 N   0  0  0  0  0  2  0  0  0  0  0  0
  187.1000  176.5980  141.2980 N   0  0  0  0  0  0  0  0  0  0  0  0
  189.6820  175.5530  146.8150 C   0  0  0  0  0  2  0  0  0  0  0  0
  191.5540  173.9200  145.0260 C   0  0  1  0  0  3  0  0  0  0  0  0
  188.7890  174.9190  141.2270 C   0  0  0  0  0  3  0  0  0  0  0  0
  189.9930  174.1660  143.2890 C   0  0  1  0  0  3  0  0  0  0  0  0
  193.7480  174.5120  145.8560 O   0  0  0  0  0  0  0  0  0  0  0  0
  194.4760  175.6840  146.0810 C   0  0  0  0  0  2  0  0  0  0  0  0
  195.8350  174.0170  143.5730 O   0  0  0  0  0  0  0  0  0  0  0  0
  194.9260  176.1590  143.7480 N   0  0  0  0  0  2  0  0  0  0  0  0
  195.5440  175.8410  145.0140 C   0  0  2  0  0  3  0  0  0  0  0  0
  195.4270  175.1400  142.8390 C   0  0  0  0  0  2  0  0  0  0  0  0
  196.2450  174.5260  144.8090 C   0  0  0  0  0  2  0  0  0  0  0  0
  1 27  1  0  0  0  0
  1 18  1  0  0  0  0
  2 27  1  0  0  0  0
  2 14  1  0  0  0  0
  3  7  1  6  0  0  0
  3 19  1  0  0  0  0
  4 18  2  0  0  0  0
  4 15  1  0  0  0  0
  5 11  1  6  0  0  0
  5 19  1  0  0  0  0
  8 16  1  0  0  0  0
  9 25  1  0  0  0  0
  9 13  1  0  0  0  0
 10 22  1  0  0  0  0
 12 15  1  0  0  0  0
 12  8  1  0  0  0  0
 13 24  1  0  0  0  0
 14 25  1  0  0  0  0
 15  5  1  0  0  0  0
 16  3  1  0  0  0  0
 17 28  1  0  0  0  0
 17 10  1  0  0  0  0
 18 20  1  0  0  0  0
 19  6  1  0  0  0  0
 20 11  1  0  0  0  0
 20 13  1  0  0  0  0
 21 26  1  0  0  0  0
 21 23  2  0  0  0  0
 23  4  1  0  0  0  0
 24 22  1  0  0  0  0
 25 17  1  0  0  0  0
 26  1  2  0  0  0  0
 27  9  1  0  0  0  0
 28 29  1  0  0  0  0
 30 34  1  0  0  0  0
 31 32  1  0  0  0  0
 32 29  1  0  0  0  0
 33 30  1  0  0  0  0
 33 31  1  0  0  0  0
 34 32  1  0  0  0  0
M  END
>  <MODEL>
4

>  <REMARK>
 VINA RESULT:      -8.0      1.516      1.804
  Name = 
  3 active torsions:
  status: ('A' for Active; 'I' for Inactive)
    1  A    between atoms: C_17  and  O_28
    2  A    between atoms: O_28  and  C_29
    3  A    between atoms: C_29  and  C_32
                            x       y       z     vdW  Elec       q    Type
                         _______ _______ _______ _____ _____    ______ ____

>  <TORSDO>
F 3

$$$$
=
 OpenBabel11112417483D

 34 40  0  0  1  0  0  0  0  0999 V2000
  189.6120  174.7010  144.6890 C   0  0  0  0  0  0  0  0  0  0  0  0
  190.3290  172.8650  143.1380 C   0  0  0  0  0  2  0  0  0  0  0  0
  184.2000  178.0410  146.2810 C   0  0  1  0  0  3  0  0  0  0  0  0
  188.0010  175.9270  146.0260 C   0  0  0  0  0  0  0  0  0  0  0  0
  186.3190  177.4790  144.8400 C   0  0  2  0  0  3  0  0  0  0  0  0
  184.6020  179.1310  144.0460 C   0  0  0  0  0  1  0  0  0  0  0  0
  184.0900  176.8150  146.9120 F   0  0  0  0  0  0  0  0  0  0  0  0
  186.3590  179.2480  147.0520 C   0  0  0  0  0  2  0  0  0  0  0  0
  189.7090  174.9880  142.1580 N   0  0  2  0  0  0  0  0  0  0  0  0
  188.3230  174.7460  139.3280 C   0  0  0  0  0  2  0  0  0  0  0  0
  186.5420  176.5420  143.6620 C   0  0  0  0  0  2  0  0  0  0  0  0
  187.1470  177.9480  147.2190 C   0  0  0  0  0  2  0  0  0  0  0  0
  188.2900  175.4050  142.2670 C   0  0  1  0  0  3  0  0  0  0  0  0
  190.6480  172.7840  141.6780 C   0  0  0  0  0  2  0  0  0  0  0  0
  186.8290  176.8710  146.1680 C   0  0  2  0  0  3  0  0  0  0  0  0
  184.8490  179.0740  147.2150 C   0  0  0  0  0  2  0  0  0  0  0  0
  188.7940  173.5810  140.1830 C   0  0  2  0  0  3  0  0  0  0  0  0
  188.5380  175.5930  144.7610 C   0  0  0  0  0  0  0  0  0  0  0  0
  184.8340  177.8870  144.8840 C   0  0  2  0  0  3  0  0  0  0  0  0
  188.0330  176.2540  143.5170 C   0  0  2  0  0  3  0  0  0  0  0  0
  189.5540  174.4750  147.0930 C   0  0  0  0  0  3  0  0  0  0  0  0
  187.2880  175.4850  140.0340 N   0  0  0  0  0  2  0  0  0  0  0  0
  188.5120  175.3430  147.1450 N   0  0  0  0  0  0  0  0  0  0  0  0
  187.9360  176.2810  141.0630 C   0  0  0  0  0  2  0  0  0  0  0  0
  189.9890  174.0110  141.0660 C   0  0  1  0  0  3  0  0  0  0  0  0
  190.1270  174.1470  145.8660 C   0  0  0  0  0  3  0  0  0  0  0  0
  190.2580  174.3520  143.3750 C   0  0  1  0  0  3  0  0  0  0  0  0
  189.1680  172.5350  139.3340 O   0  0  0  0  0  0  0  0  0  0  0  0
  189.2990  173.1270  138.0740 C   0  0  0  0  0  2  0  0  0  0  0  0
  192.5380  173.6270  138.4890 O   0  0  0  0  0  0  0  0  0  0  0  0
  191.2490  171.6970  138.2460 N   0  0  0  0  0  2  0  0  0  0  0  0
  190.6310  172.7390  137.4590 C   0  0  2  0  0  3  0  0  0  0  0  0
  192.5630  172.2270  138.5730 C   0  0  0  0  0  2  0  0  0  0  0  0
  191.5720  173.9110  137.5200 C   0  0  0  0  0  2  0  0  0  0  0  0
  1 18  2  0  0  0  0
  1 26  1  0  0  0  0
  2 27  1  0  0  0  0
  3  7  1  1  0  0  0
  3 16  1  0  0  0  0
  4 15  1  0  0  0  0
  4 23  2  0  0  0  0
  5 11  1  6  0  0  0
  5 19  1  0  0  0  0
  5 15  1  0  0  0  0
  6 19  1  0  0  0  0
  8 16  1  0  0  0  0
  8 12  1  0  0  0  0
  9 13  1  0  0  0  0
  9 27  1  0  0  0  0
 10 22  1  0  0  0  0
 10 17  1  0  0  0  0
 13 20  1  0  0  0  0
 14  2  1  0  0  0  0
 15 12  1  0  0  0  0
 17 25  1  0  0  0  0
 18  4  1  0  0  0  0
 19  3  1  0  0  0  0
 20 11  1  0  0  0  0
 20 18  1  0  0  0  0
 21 23  1  0  0  0  0
 22 24  1  0  0  0  0
 24 13  1  0  0  0  0
 25 14  1  0  0  0  0
 25  9  1  0  0  0  0
 26 21  2  0  0  0  0
 27  1  1  0  0  0  0
 28 17  1  0  0  0  0
 29 28  1  0  0  0  0
 30 33  1  0  0  0  0
 31 33  1  0  0  0  0
 32 34  1  0  0  0  0
 32 29  1  0  0  0  0
 32 31  1  0  0  0  0
 34 30  1  0  0  0  0
M  END
>  <MODEL>
5

>  <REMARK>
 VINA RESULT:      -8.0      3.565      5.350
  Name = 
  3 active torsions:
  status: ('A' for Active; 'I' for Inactive)
    1  A    between atoms: C_17  and  O_28
    2  A    between atoms: O_28  and  C_29
    3  A    between atoms: C_29  and  C_32
                            x       y       z     vdW  Elec       q    Type
                         _______ _______ _______ _____ _____    ______ ____

>  <TORSDO>
F 3

$$$$
=
 OpenBabel11112417483D

 34 40  0  0  1  0  0  0  0  0999 V2000
  189.9420  174.6650  141.9490 C   0  0  0  0  0  0  0  0  0  0  0  0
  187.5150  175.1070  142.3980 C   0  0  0  0  0  2  0  0  0  0  0  0
  195.3030  172.6410  145.1330 C   0  0  1  0  0  3  0  0  0  0  0  0
  192.0800  173.5960  142.3610 C   0  0  0  0  0  0  0  0  0  0  0  0
  193.5070  174.3880  144.3570 C   0  0  2  0  0  3  0  0  0  0  0  0
  195.1880  174.9480  146.1380 C   0  0  0  0  0  1  0  0  0  0  0  0
  194.5580  171.5030  144.8810 F   0  0  0  0  0  0  0  0  0  0  0  0
  195.8780  173.8380  142.9080 C   0  0  0  0  0  2  0  0  0  0  0  0
  189.1340  176.5930  143.4060 N   0  0  2  0  0  0  0  0  0  0  0  0
  188.2790  177.7020  146.2400 C   0  0  0  0  0  2  0  0  0  0  0  0
  192.1630  174.8060  144.9350 C   0  0  0  0  0  2  0  0  0  0  0  0
  194.5690  173.4280  142.2320 C   0  0  0  0  0  2  0  0  0  0  0  0
  190.0280  176.0300  144.4480 C   0  0  1  0  0  3  0  0  0  0  0  0
  186.7470  176.2200  143.0400 C   0  0  0  0  0  2  0  0  0  0  0  0
  193.3470  173.4130  143.1660 C   0  0  2  0  0  3  0  0  0  0  0  0
  196.3260  172.8780  144.0100 C   0  0  0  0  0  2  0  0  0  0  0  0
  187.4710  176.7360  145.3890 C   0  0  2  0  0  3  0  0  0  0  0  0
  191.1010  174.5510  142.7220 C   0  0  0  0  0  0  0  0  0  0  0  0
  194.3900  173.8300  145.4890 C   0  0  2  0  0  3  0  0  0  0  0  0
  191.3380  175.4990  143.8560 C   0  0  2  0  0  3  0  0  0  0  0  0
  190.7360  172.8750  140.5360 C   0  0  0  0  0  3  0  0  0  0  0  0
  189.5490  177.0950  146.6000 N   0  0  0  0  0  2  0  0  0  0  0  0
  191.8570  172.7780  141.2970 N   0  0  0  0  0  0  0  0  0  0  0  0
  190.4090  177.1400  145.4290 C   0  0  0  0  0  2  0  0  0  0  0  0
  187.7700  176.9600  143.8890 C   0  0  1  0  0  3  0  0  0  0  0  0
  189.7650  173.8250  140.8440 C   0  0  0  0  0  3  0  0  0  0  0  0
  188.8920  175.7000  142.2540 C   0  0  1  0  0  3  0  0  0  0  0  0
  186.1140  176.9470  145.6520 O   0  0  0  0  0  0  0  0  0  0  0  0
  186.0540  178.2190  146.2260 C   0  0  0  0  0  2  0  0  0  0  0  0
  185.2450  179.4020  143.2490 O   0  0  0  0  0  0  0  0  0  0  0  0
  184.0660  178.1670  144.8410 N   0  0  0  0  0  2  0  0  0  0  0  0
  184.9740  179.0410  145.5480 C   0  0  2  0  0  3  0  0  0  0  0  0
  184.0660  178.6780  143.4790 C   0  0  0  0  0  2  0  0  0  0  0  0
  185.5970  179.9210  144.4990 C   0  0  0  0  0  2  0  0  0  0  0  0
  1 27  1  0  0  0  0
  1 18  1  0  0  0  0
  2 14  1  0  0  0  0
  3  7  1  6  0  0  0
  3 19  1  0  0  0  0
  4 18  2  0  0  0  0
  4 15  1  0  0  0  0
  5 11  1  1  0  0  0
  5 19  1  0  0  0  0
  8 16  1  0  0  0  0
  9 25  1  0  0  0  0
  9 13  1  0  0  0  0
 10 22  1  0  0  0  0
 12  8  1  0  0  0  0
 12 15  1  0  0  0  0
 13 24  1  0  0  0  0
 14 25  1  0  0  0  0
 15  5  1  0  0  0  0
 16  3  1  0  0  0  0
 17 28  1  0  0  0  0
 17 10  1  0  0  0  0
 18 20  1  0  0  0  0
 19  6  1  0  0  0  0
 20 13  1  0  0  0  0
 20 11  1  0  0  0  0
 21 26  1  0  0  0  0
 21 23  2  0  0  0  0
 23  4  1  0  0  0  0
 24 22  1  0  0  0  0
 25 17  1  0  0  0  0
 26  1  2  0  0  0  0
 27  2  1  0  0  0  0
 27  9  1  0  0  0  0
 28 29  1  0  0  0  0
 30 33  1  0  0  0  0
 30 34  1  0  0  0  0
 31 32  1  0  0  0  0
 32 29  1  0  0  0  0
 33 31  1  0  0  0  0
 34 32  1  0  0  0  0
M  END
>  <MODEL>
6

>  <REMARK>
 VINA RESULT:      -7.8      3.791      8.168
  Name = 
  3 active torsions:
  status: ('A' for Active; 'I' for Inactive)
    1  A    between atoms: C_17  and  O_28
    2  A    between atoms: O_28  and  C_29
    3  A    between atoms: C_29  and  C_32
                            x       y       z     vdW  Elec       q    Type
                         _______ _______ _______ _____ _____    ______ ____

>  <TORSDO>
F 3

$$$$
=
 OpenBabel11112417483D

 34 40  0  0  1  0  0  0  0  0999 V2000
  192.1330  175.7430  145.6600 C   0  0  0  0  0  0  0  0  0  0  0  0
  190.4290  177.5330  145.2290 C   0  0  0  0  0  2  0  0  0  0  0  0
  195.7960  171.4540  142.3180 C   0  0  1  0  0  3  0  0  0  0  0  0
  194.0100  174.3260  145.0650 C   0  0  0  0  0  0  0  0  0  0  0  0
  193.6150  172.3310  143.4820 C   0  0  2  0  0  3  0  0  0  0  0  0
  193.5910  170.2680  142.0480 C   0  0  0  0  0  1  0  0  0  0  0  0
  196.4200  172.6810  142.1750 F   0  0  0  0  0  0  0  0  0  0  0  0
  195.6110  170.8380  144.8280 C   0  0  0  0  0  2  0  0  0  0  0  0
  189.7840  175.2410  144.8060 N   0  0  2  0  0  0  0  0  0  0  0  0
  187.7730  174.8910  142.3930 C   0  0  0  0  0  2  0  0  0  0  0  0
  192.4520  173.1740  142.9820 C   0  0  0  0  0  2  0  0  0  0  0  0
  195.4430  172.2910  145.2760 C   0  0  0  0  0  2  0  0  0  0  0  0
  190.4650  174.5310  143.6950 C   0  0  1  0  0  3  0  0  0  0  0  0
  188.9670  177.5410  144.9100 C   0  0  0  0  0  2  0  0  0  0  0  0
  194.6180  173.1630  144.3140 C   0  0  2  0  0  3  0  0  0  0  0  0
  196.3800  170.6870  143.5160 C   0  0  0  0  0  2  0  0  0  0  0  0
  188.3620  176.2090  142.8680 C   0  0  2  0  0  3  0  0  0  0  0  0
  192.6370  174.6460  144.9540 C   0  0  0  0  0  0  0  0  0  0  0  0
  194.2630  171.6090  142.2850 C   0  0  2  0  0  3  0  0  0  0  0  0
  191.7080  173.7720  144.1720 C   0  0  2  0  0  3  0  0  0  0  0  0
  194.3490  176.1830  146.5120 C   0  0  0  0  0  3  0  0  0  0  0  0
  188.8390  174.0130  141.9390 N   0  0  0  0  0  2  0  0  0  0  0  0
  194.8220  175.1150  145.8210 N   0  0  0  0  0  0  0  0  0  0  0  0
  189.5100  173.4850  143.1140 C   0  0  0  0  0  2  0  0  0  0  0  0
  188.6760  176.1440  144.3810 C   0  0  1  0  0  3  0  0  0  0  0  0
  192.9960  176.5100  146.4500 C   0  0  0  0  0  3  0  0  0  0  0  0
  190.6700  176.0980  145.6220 C   0  0  1  0  0  3  0  0  0  0  0  0
  187.4370  177.2250  142.6060 O   0  0  0  0  0  0  0  0  0  0  0  0
  186.1870  176.6170  142.7550 C   0  0  0  0  0  2  0  0  0  0  0  0
  185.7460  178.9420  145.0610 O   0  0  0  0  0  0  0  0  0  0  0  0
  185.5560  178.9570  142.7350 N   0  0  0  0  0  2  0  0  0  0  0  0
  185.1640  177.6460  143.1980 C   0  0  2  0  0  3  0  0  0  0  0  0
  185.5810  179.7700  143.9400 C   0  0  0  0  0  2  0  0  0  0  0  0
  185.1530  177.7290  144.7010 C   0  0  0  0  0  2  0  0  0  0  0  0
  1 26  1  0  0  0  0
  2 27  1  0  0  0  0
  3  7  1  1  0  0  0
  3 16  1  0  0  0  0
  4 23  2  0  0  0  0
  5 11  1  6  0  0  0
  5 15  1  0  0  0  0
  6 19  1  0  0  0  0
  8 12  1  0  0  0  0
  9 27  1  0  0  0  0
 10 17  1  0  0  0  0
 11 20  1  0  0  0  0
 13 20  1  0  0  0  0
 13  9  1  0  0  0  0
 14  2  1  0  0  0  0
 15  4  1  0  0  0  0
 15 12  1  0  0  0  0
 16  8  1  0  0  0  0
 17 25  1  0  0  0  0
 18  4  1  0  0  0  0
 18  1  2  0  0  0  0
 19  3  1  0  0  0  0
 19  5  1  0  0  0  0
 20 18  1  0  0  0  0
 22 10  1  0  0  0  0
 22 24  1  0  0  0  0
 23 21  1  0  0  0  0
 24 13  1  0  0  0  0
 25  9  1  0  0  0  0
 25 14  1  0  0  0  0
 26 21  2  0  0  0  0
 27  1  1  0  0  0  0
 28 29  1  0  0  0  0
 28 17  1  0  0  0  0
 29 32  1  0  0  0  0
 31 32  1  0  0  0  0
 31 33  1  0  0  0  0
 32 34  1  0  0  0  0
 33 30  1  0  0  0  0
 34 30  1  0  0  0  0
M  END
>  <MODEL>
7

>  <REMARK>
 VINA RESULT:      -7.6      3.835      8.838
  Name = 
  3 active torsions:
  status: ('A' for Active; 'I' for Inactive)
    1  A    between atoms: C_17  and  O_28
    2  A    between atoms: O_28  and  C_29
    3  A    between atoms: C_29  and  C_32
                            x       y       z     vdW  Elec       q    Type
                         _______ _______ _______ _____ _____    ______ ____

>  <TORSDO>
F 3

$$$$
=
 OpenBabel11112417483D

 34 40  0  0  1  0  0  0  0  0999 V2000
  189.7670  175.6880  146.2670 C   0  0  0  0  0  0  0  0  0  0  0  0
  187.6030  176.9400  146.4620 C   0  0  0  0  0  2  0  0  0  0  0  0
  195.6750  176.3650  143.5070 C   0  0  1  0  0  3  0  0  0  0  0  0
  192.1640  175.5080  145.9400 C   0  0  0  0  0  0  0  0  0  0  0  0
  193.1220  175.7650  143.5610 C   0  0  2  0  0  3  0  0  0  0  0  0
  194.3910  175.8750  141.3960 C   0  0  0  0  0  1  0  0  0  0  0  0
  195.6880  177.1650  144.6350 F   0  0  0  0  0  0  0  0  0  0  0  0
  195.1760  173.9090  144.1630 C   0  0  0  0  0  2  0  0  0  0  0  0
  188.1950  176.0500  144.2930 N   0  0  2  0  0  0  0  0  0  0  0  0
  187.2280  177.8230  141.8630 C   0  0  0  0  0  2  0  0  0  0  0  0
  191.8670  176.5920  143.3270 C   0  0  0  0  0  2  0  0  0  0  0  0
  194.2620  174.2990  145.3260 C   0  0  0  0  0  2  0  0  0  0  0  0
  189.3740  176.6360  143.6100 C   0  0  1  0  0  3  0  0  0  0  0  0
  186.4260  177.1570  145.5630 C   0  0  0  0  0  2  0  0  0  0  0  0
  193.3980  175.5450  145.0670 C   0  0  2  0  0  3  0  0  0  0  0  0
  196.2270  174.9670  143.8280 C   0  0  0  0  0  2  0  0  0  0  0  0
  187.0170  178.1490  143.3320 C   0  0  2  0  0  3  0  0  0  0  0  0
  190.8700  175.7180  145.4090 C   0  0  0  0  0  0  0  0  0  0  0  0
  194.3010  176.4160  142.8120 C   0  0  2  0  0  3  0  0  0  0  0  0
  190.6650  175.8760  143.9350 C   0  0  2  0  0  3  0  0  0  0  0  0
  191.2540  175.2900  148.1270 C   0  0  0  0  0  3  0  0  0  0  0  0
  188.6510  177.7800  141.5690 N   0  0  0  0  0  2  0  0  0  0  0  0
  192.3150  175.3210  147.2800 N   0  0  0  0  0  0  0  0  0  0  0  0
  189.1740  176.5310  142.0960 C   0  0  0  0  0  2  0  0  0  0  0  0
  186.9410  176.8480  144.1650 C   0  0  1  0  0  3  0  0  0  0  0  0
  189.9630  175.4640  147.6340 C   0  0  0  0  0  3  0  0  0  0  0  0
  188.3630  175.8530  145.7480 C   0  0  1  0  0  3  0  0  0  0  0  0
  185.8290  178.8760  143.4560 O   0  0  0  0  0  0  0  0  0  0  0  0
  185.2270  178.7950  142.1970 C   0  0  0  0  0  2  0  0  0  0  0  0
  181.9520  179.1860  142.3910 O   0  0  0  0  0  0  0  0  0  0  0  0
  183.3190  177.9160  140.9890 N   0  0  0  0  0  2  0  0  0  0  0  0
  183.9540  177.9740  142.2850 C   0  0  2  0  0  3  0  0  0  0  0  0
  181.9680  178.3980  141.2310 C   0  0  0  0  0  2  0  0  0  0  0  0
  182.9730  178.6660  143.1920 C   0  0  0  0  0  2  0  0  0  0  0  0
  1 26  1  0  0  0  0
  3 16  1  0  0  0  0
  3  7  1  1  0  0  0
  4 23  2  0  0  0  0
  5 11  1  1  0  0  0
  5 15  1  0  0  0  0
  6 19  1  0  0  0  0
  8 12  1  0  0  0  0
  9 27  1  0  0  0  0
 10 17  1  0  0  0  0
 11 20  1  0  0  0  0
 13 20  1  0  0  0  0
 13  9  1  0  0  0  0
 14  2  1  0  0  0  0
 15 12  1  0  0  0  0
 15  4  1  0  0  0  0
 16  8  1  0  0  0  0
 17 28  1  0  0  0  0
 17 25  1  0  0  0  0
 18  4  1  0  0  0  0
 18  1  2  0  0  0  0
 19  3  1  0  0  0  0
 19  5  1  0  0  0  0
 20 18  1  0  0  0  0
 22 10  1  0  0  0  0
 22 24  1  0  0  0  0
 23 21  1  0  0  0  0
 24 13  1  0  0  0  0
 25  9  1  0  0  0  0
 25 14  1  0  0  0  0
 26 21  2  0  0  0  0
 27  1  1  0  0  0  0
 27  2  1  0  0  0  0
 29 32  1  0  0  0  0
 29 28  1  0  0  0  0
 30 34  1  0  0  0  0
 31 33  1  0  0  0  0
 31 32  1  0  0  0  0
 32 34  1  0  0  0  0
 33 30  1  0  0  0  0
M  END
>  <MODEL>
8

>  <REMARK>
 VINA RESULT:      -7.6      4.031      8.797
  Name = 
  3 active torsions:
  status: ('A' for Active; 'I' for Inactive)
    1  A    between atoms: C_17  and  O_28
    2  A    between atoms: O_28  and  C_29
    3  A    between atoms: C_29  and  C_32
                            x       y       z     vdW  Elec       q    Type
                         _______ _______ _______ _____ _____    ______ ____

>  <TORSDO>
F 3

$$$$
=
 OpenBabel11112417483D

 34 40  0  0  1  0  0  0  0  0999 V2000
  191.3500  175.6140  146.3630 C   0  0  0  0  0  0  0  0  0  0  0  0
  193.5240  174.3660  146.3920 C   0  0  0  0  0  2  0  0  0  0  0  0
  186.2780  176.6830  142.3490 C   0  0  1  0  0  3  0  0  0  0  0  0
  189.0760  176.0250  145.6230 C   0  0  0  0  0  0  0  0  0  0  0  0
  188.6910  177.0750  143.3010 C   0  0  2  0  0  3  0  0  0  0  0  0
  187.9420  178.1510  141.1580 C   0  0  0  0  0  1  0  0  0  0  0  0
  186.0910  175.4150  142.8680 F   0  0  0  0  0  0  0  0  0  0  0  0
  186.3930  178.4220  144.2670 C   0  0  0  0  0  2  0  0  0  0  0  0
  193.3420  176.2730  144.9170 N   0  0  2  0  0  0  0  0  0  0  0  0
  194.9770  175.9860  142.2280 C   0  0  0  0  0  2  0  0  0  0  0  0
  190.0370  176.4450  142.9780 C   0  0  0  0  0  2  0  0  0  0  0  0
  187.0610  177.4510  145.2420 C   0  0  0  0  0  2  0  0  0  0  0  0
  192.4000  176.1700  143.7750 C   0  0  1  0  0  3  0  0  0  0  0  0
  194.8840  174.6040  145.8140 C   0  0  0  0  0  2  0  0  0  0  0  0
  188.0720  176.4910  144.5930 C   0  0  2  0  0  3  0  0  0  0  0  0
  185.5430  177.7300  143.2010 C   0  0  0  0  0  2  0  0  0  0  0  0
  194.8900  174.9380  143.3240 C   0  0  2  0  0  3  0  0  0  0  0  0
  190.4690  176.0740  145.3800 C   0  0  0  0  0  0  0  0  0  0  0  0
  187.7700  176.9510  142.0720 C   0  0  2  0  0  3  0  0  0  0  0  0
  191.0050  176.6970  144.1290 C   0  0  2  0  0  3  0  0  0  0  0  0
  189.4600  175.0430  147.7550 C   0  0  0  0  0  3  0  0  0  0  0  0
  193.6550  176.2270  141.6730 N   0  0  0  0  0  2  0  0  0  0  0  0
  188.6190  175.4940  146.7900 N   0  0  0  0  0  0  0  0  0  0  0  0
  192.9160  177.0380  142.6250 C   0  0  0  0  0  2  0  0  0  0  0  0
  194.6620  175.6130  144.6970 C   0  0  1  0  0  3  0  0  0  0  0  0
  190.8390  175.1040  147.5610 C   0  0  0  0  0  3  0  0  0  0  0  0
  192.8420  175.6920  146.1810 C   0  0  1  0  0  3  0  0  0  0  0  0
  196.0840  174.2100  143.3330 O   0  0  0  0  0  0  0  0  0  0  0  0
  195.7670  172.9960  142.7170 C   0  0  0  0  0  2  0  0  0  0  0  0
  197.3470  172.2560  145.5230 O   0  0  0  0  0  0  0  0  0  0  0  0
  195.7380  171.1290  144.2620 N   0  0  0  0  0  2  0  0  0  0  0  0
  196.5720  171.8730  143.3460 C   0  0  2  0  0  3  0  0  0  0  0  0
  196.4720  171.1590  145.5180 C   0  0  0  0  0  2  0  0  0  0  0  0
  197.6790  172.4560  144.1800 C   0  0  0  0  0  2  0  0  0  0  0  0
  1 26  1  0  0  0  0
  3  7  1  1  0  0  0
  3 16  1  0  0  0  0
  4 23  2  0  0  0  0
  5 11  1  6  0  0  0
  5 15  1  0  0  0  0
  6 19  1  0  0  0  0
  8 12  1  0  0  0  0
  9 27  1  0  0  0  0
 10 17  1  0  0  0  0
 11 20  1  0  0  0  0
 13 20  1  0  0  0  0
 13  9  1  0  0  0  0
 14  2  1  0  0  0  0
 15 12  1  0  0  0  0
 15  4  1  0  0  0  0
 16  8  1  0  0  0  0
 17 28  1  0  0  0  0
 17 25  1  0  0  0  0
 18  4  1  0  0  0  0
 18  1  2  0  0  0  0
 19  3  1  0  0  0  0
 19  5  1  0  0  0  0
 20 18  1  0  0  0  0
 22 10  1  0  0  0  0
 22 24  1  0  0  0  0
 23 21  1  0  0  0  0
 24 13  1  0  0  0  0
 25  9  1  0  0  0  0
 25 14  1  0  0  0  0
 26 21  2  0  0  0  0
 27  1  1  0  0  0  0
 27  2  1  0  0  0  0
 29 28  1  0  0  0  0
 29 32  1  0  0  0  0
 31 33  1  0  0  0  0
 32 34  1  0  0  0  0
 32 31  1  0  0  0  0
 33 30  1  0  0  0  0
 34 30  1  0  0  0  0
M  END
>  <MODEL>
9

>  <REMARK>
 VINA RESULT:      -7.6      2.520      4.082
  Name = 
  3 active torsions:
  status: ('A' for Active; 'I' for Inactive)
    1  A    between atoms: C_17  and  O_28
    2  A    between atoms: O_28  and  C_29
    3  A    between atoms: C_29  and  C_32
                            x       y       z     vdW  Elec       q    Type
                         _______ _______ _______ _____ _____    ______ ____

>  <TORSDO>
F 3

$$$$
