=
 OpenBabel11112417273D

 37 44  0  0  1  0  0  0  0  0999 V2000
  193.3780  173.9820  144.4110 C   0  0  2  0  0  3  0  0  0  0  0  0
  192.5980  172.7280  139.8710 C   0  0  0  0  0  0  0  0  0  0  0  0
  189.4870  174.8060  141.6600 C   0  0  0  0  0  0  0  0  0  0  0  0
  193.8100  173.4300  145.7520 C   0  0  2  0  0  3  0  0  0  0  0  0
  190.5230  177.2950  144.3590 N   0  0  0  0  0  2  0  0  0  0  0  0
  190.1230  173.2240  139.9670 C   0  0  0  0  0  0  0  0  0  0  0  0
  190.1730  175.4670  142.7780 C   0  0  0  0  0  0  0  0  0  0  0  0
  193.1830  175.7350  146.3770 C   0  0  2  0  0  3  0  0  0  0  0  0
  190.3320  173.8470  141.1830 C   0  0  0  0  0  0  0  0  0  0  0  0
  189.6850  176.5100  143.4840 C   0  0  0  0  0  0  0  0  0  0  0  0
  189.0130  173.5470  139.2480 N   0  0  0  0  0  0  0  0  0  0  0  0
  194.0650  174.9010  145.4360 C   0  0  2  0  0  3  0  0  0  0  0  0
  191.5680  173.8190  141.8510 N   0  0  0  0  0  0  0  0  0  0  0  0
  193.0100  173.9720  139.1010 C   0  0  0  0  0  1  0  0  0  0  0  0
  187.5810  176.3980  141.1650 C   0  0  0  0  0  3  0  0  0  0  0  0
  188.1560  174.5230  139.6770 C   0  0  0  0  0  3  0  0  0  0  0  0
  192.6930  173.0060  141.3880 C   0  0  0  0  0  2  0  0  0  0  0  0
  191.7880  176.0480  145.8450 C   0  0  1  0  0  3  0  0  0  0  0  0
  191.8430  176.9670  144.7060 N   0  0  0  0  0  2  0  0  0  0  0  0
  188.3910  175.2110  140.8850 C   0  0  0  0  0  0  0  0  0  0  0  0
  191.5620  174.8280  142.9080 C   0  0  2  0  0  3  0  0  0  0  0  0
  191.1760  172.2920  139.4440 C   0  0  0  0  0  2  0  0  0  0  0  0
  188.2710  176.7990  143.4960 N   0  0  0  0  0  0  0  0  0  0  0  0
  193.5650  171.6160  139.5270 C   0  0  0  0  0  1  0  0  0  0  0  0
  191.1320  174.7350  145.4580 C   0  0  0  0  0  2  0  0  0  0  0  0
  193.9110  176.9950  146.8070 C   0  0  0  0  0  1  0  0  0  0  0  0
  191.8470  174.1200  144.2520 C   0  0  2  0  0  3  0  0  0  0  0  0
  187.5300  177.0910  142.2990 C   0  0  0  0  0  3  0  0  0  0  0  0
  187.8460  176.2200  145.8720 C   0  0  0  0  0  3  0  0  0  0  0  0
  187.6200  177.0540  144.7620 C   0  0  0  0  0  0  0  0  0  0  0  0
  186.7710  178.1640  144.9160 C   0  0  0  0  0  3  0  0  0  0  0  0
  185.3350  179.4970  146.2720 F   0  0  0  0  0  0  0  0  0  0  0  0
  186.3820  177.5840  147.2320 C   0  0  0  0  0  3  0  0  0  0  0  0
  186.1540  178.4260  146.1420 C   0  0  0  0  0  0  0  0  0  0  0  0
  187.2290  176.4820  147.0980 C   0  0  0  0  0  3  0  0  0  0  0  0
  196.0580  173.5710  145.7440 O   0  0  0  0  0  1  0  0  0  0  0  0
  195.0450  172.6860  145.5860 N   0  0  0  0  0  2  0  0  0  0  0  0
  1 12  1  0  0  0  0
  1  4  1  0  0  0  0
  2 17  1  0  0  0  0
  3  7  1  0  0  0  0
  5 19  1  0  0  0  0
  6  9  2  0  0  0  0
  7 21  1  0  0  0  0
  7 10  2  0  0  0  0
  8 26  1  0  0  0  0
  9  3  1  0  0  0  0
  9 13  1  0  0  0  0
 10 23  1  0  0  0  0
 10  5  1  0  0  0  0
 11 16  2  0  0  0  0
 11  6  1  0  0  0  0
 12  4  1  0  0  0  0
 12  8  1  0  0  0  0
 13 21  1  0  0  0  0
 14  2  1  0  0  0  0
 15 28  2  0  0  0  0
 16 20  1  0  0  0  0
 17 13  1  0  0  0  0
 18  8  1  0  0  0  0
 19 18  1  0  0  0  0
 20 15  1  0  0  0  0
 20  3  2  0  0  0  0
 21 27  1  0  0  0  0
 22  2  1  0  0  0  0
 22  6  1  0  0  0  0
 23 30  1  0  0  0  0
 24  2  1  0  0  0  0
 25 18  1  0  0  0  0
 27  1  1  0  0  0  0
 27 25  1  0  0  0  0
 28 23  1  0  0  0  0
 29 35  1  0  0  0  0
 30 31  1  0  0  0  0
 30 29  2  0  0  0  0
 31 34  2  0  0  0  0
 34 32  1  0  0  0  0
 34 33  1  0  0  0  0
 35 33  2  0  0  0  0
 37 36  1  0  0  0  0
 37  4  1  0  0  0  0
M  END
>  <MODEL>
1

>  <REMARK>
 VINA RESULT:      -9.0      0.000      0.000
  Name = 
  2 active torsions:
  status: ('A' for Active; 'I' for Inactive)
    1  A    between atoms: C_4  and  N_37
    2  A    between atoms: N_23  and  C_30
                            x       y       z     vdW  Elec       q    Type
                         _______ _______ _______ _____ _____    ______ ____

>  <TORSDO>
F 2

$$$$
=
 OpenBabel11112417273D

 37 44  0  0  1  0  0  0  0  0999 V2000
  189.5350  173.7660  140.9970 C   0  0  2  0  0  3  0  0  0  0  0  0
  187.0270  176.9450  143.5250 C   0  0  0  0  0  0  0  0  0  0  0  0
  190.5740  175.7240  145.2950 C   0  0  0  0  0  0  0  0  0  0  0  0
  189.4140  172.4420  140.2730 C   0  0  2  0  0  3  0  0  0  0  0  0
  193.3590  174.7560  142.8750 N   0  0  0  0  0  2  0  0  0  0  0  0
  188.3570  176.5850  145.6430 C   0  0  0  0  0  0  0  0  0  0  0  0
  191.3200  175.2050  144.1420 C   0  0  0  0  0  0  0  0  0  0  0  0
  191.8470  172.8390  140.1150 C   0  0  2  0  0  3  0  0  0  0  0  0
  189.2750  175.8660  144.9010 C   0  0  0  0  0  0  0  0  0  0  0  0
  192.6510  174.9770  144.1130 C   0  0  0  0  0  0  0  0  0  0  0  0
  188.7530  177.1270  146.8270 N   0  0  0  0  0  0  0  0  0  0  0  0
  190.4680  173.4460  139.8160 C   0  0  2  0  0  3  0  0  0  0  0  0
  189.0680  175.5290  143.5520 N   0  0  0  0  0  0  0  0  0  0  0  0
  187.6600  178.2680  143.1280 C   0  0  0  0  0  1  0  0  0  0  0  0
  192.4210  176.4960  146.8440 C   0  0  0  0  0  3  0  0  0  0  0  0
  190.0530  177.0320  147.2440 C   0  0  0  0  0  3  0  0  0  0  0  0
  187.8030  175.7830  142.8640 C   0  0  0  0  0  2  0  0  0  0  0  0
  192.4040  173.1570  141.4990 C   0  0  1  0  0  3  0  0  0  0  0  0
  192.7460  174.5760  141.6260 N   0  0  0  0  0  2  0  0  0  0  0  0
  191.0140  176.3550  146.4660 C   0  0  0  0  0  0  0  0  0  0  0  0
  190.3330  175.0820  142.9720 C   0  0  2  0  0  3  0  0  0  0  0  0
  186.9910  176.8210  145.0670 C   0  0  0  0  0  2  0  0  0  0  0  0
  193.4000  174.8110  145.3360 N   0  0  0  0  0  0  0  0  0  0  0  0
  185.6050  176.9260  143.0090 C   0  0  0  0  0  1  0  0  0  0  0  0
  191.3620  172.7500  142.5260 C   0  0  0  0  0  2  0  0  0  0  0  0
  192.8340  173.1990  139.0200 C   0  0  0  0  0  1  0  0  0  0  0  0
  190.1310  173.6540  142.4180 C   0  0  2  0  0  3  0  0  0  0  0  0
  193.4600  175.8280  146.3510 C   0  0  0  0  0  3  0  0  0  0  0  0
  195.7080  173.9230  145.5560 C   0  0  0  0  0  3  0  0  0  0  0  0
  194.3220  173.7030  145.4460 C   0  0  0  0  0  0  0  0  0  0  0  0
  193.8460  172.3800  145.4770 C   0  0  0  0  0  3  0  0  0  0  0  0
  194.2560  170.0380  145.6240 F   0  0  0  0  0  0  0  0  0  0  0  0
  196.1030  171.5400  145.7000 C   0  0  0  0  0  3  0  0  0  0  0  0
  194.7310  171.3060  145.6000 C   0  0  0  0  0  0  0  0  0  0  0  0
  196.5920  172.8480  145.6800 C   0  0  0  0  0  3  0  0  0  0  0  0
  188.2760  173.7320  138.8210 O   0  0  0  0  0  1  0  0  0  0  0  0
  188.2810  172.4940  139.3690 N   0  0  0  0  0  2  0  0  0  0  0  0
  1 27  1  0  0  0  0
  2 22  1  0  0  0  0
  3 20  1  0  0  0  0
  4  1  1  0  0  0  0
  5 10  1  0  0  0  0
  6 11  2  0  0  0  0
  7  3  1  0  0  0  0
  8 18  1  0  0  0  0
  9  3  2  0  0  0  0
  9  6  1  0  0  0  0
 10  7  2  0  0  0  0
 10 23  1  0  0  0  0
 11 16  1  0  0  0  0
 12  8  1  0  0  0  0
 12  4  1  0  0  0  0
 12  1  1  0  0  0  0
 13  9  1  0  0  0  0
 14  2  1  0  0  0  0
 17  2  1  0  0  0  0
 17 13  1  0  0  0  0
 18 19  1  0  0  0  0
 18 25  1  0  0  0  0
 19  5  1  0  0  0  0
 20 15  1  0  0  0  0
 20 16  2  0  0  0  0
 21 13  1  0  0  0  0
 21  7  1  0  0  0  0
 22  6  1  0  0  0  0
 23 30  1  0  0  0  0
 23 28  1  0  0  0  0
 24  2  1  0  0  0  0
 26  8  1  0  0  0  0
 27 25  1  0  0  0  0
 27 21  1  0  0  0  0
 28 15  2  0  0  0  0
 29 35  1  0  0  0  0
 30 31  1  0  0  0  0
 30 29  2  0  0  0  0
 31 34  2  0  0  0  0
 34 32  1  0  0  0  0
 34 33  1  0  0  0  0
 35 33  2  0  0  0  0
 36 37  1  0  0  0  0
 37  4  1  0  0  0  0
M  END
>  <MODEL>
2

>  <REMARK>
 VINA RESULT:      -8.9      3.154      7.390
  Name = 
  2 active torsions:
  status: ('A' for Active; 'I' for Inactive)
    1  A    between atoms: C_4  and  N_37
    2  A    between atoms: N_23  and  C_30
                            x       y       z     vdW  Elec       q    Type
                         _______ _______ _______ _____ _____    ______ ____

>  <TORSDO>
F 2

$$$$
=
 OpenBabel11112417273D

 37 44  0  0  1  0  0  0  0  0999 V2000
  193.0530  173.8940  144.4010 C   0  0  2  0  0  3  0  0  0  0  0  0
  192.2780  172.5680  139.8820 C   0  0  0  0  0  0  0  0  0  0  0  0
  189.2530  174.8490  141.5680 C   0  0  0  0  0  0  0  0  0  0  0  0
  193.4360  173.3550  145.7630 C   0  0  2  0  0  3  0  0  0  0  0  0
  190.3760  177.3480  144.2220 N   0  0  0  0  0  2  0  0  0  0  0  0
  189.8310  173.1940  139.9240 C   0  0  0  0  0  0  0  0  0  0  0  0
  189.9550  175.5010  142.6800 C   0  0  0  0  0  0  0  0  0  0  0  0
  192.9200  175.7040  146.3210 C   0  0  2  0  0  3  0  0  0  0  0  0
  190.0530  173.8360  141.1280 C   0  0  0  0  0  0  0  0  0  0  0  0
  189.5120  176.5860  143.3520 C   0  0  0  0  0  0  0  0  0  0  0  0
  188.7500  173.5550  139.1790 N   0  0  0  0  0  0  0  0  0  0  0  0
  193.7710  174.8020  145.4150 C   0  0  2  0  0  3  0  0  0  0  0  0
  191.2760  173.7600  141.8170 N   0  0  0  0  0  0  0  0  0  0  0  0
  192.7660  173.7680  139.0880 C   0  0  0  0  0  1  0  0  0  0  0  0
  187.4410  176.5250  141.0020 C   0  0  0  0  0  3  0  0  0  0  0  0
  187.9400  174.5860  139.5710 C   0  0  0  0  0  3  0  0  0  0  0  0
  192.3630  172.8780  141.3930 C   0  0  0  0  0  2  0  0  0  0  0  0
  191.5520  176.0760  145.7580 C   0  0  1  0  0  3  0  0  0  0  0  0
  191.6720  176.9620  144.5980 N   0  0  0  0  0  2  0  0  0  0  0  0
  188.1920  175.2910  140.7650 C   0  0  0  0  0  0  0  0  0  0  0  0
  191.3070  174.7950  142.8480 C   0  0  2  0  0  3  0  0  0  0  0  0
  190.8420  172.1950  139.4420 C   0  0  0  0  0  2  0  0  0  0  0  0
  188.1150  176.9490  143.3330 N   0  0  0  0  0  0  0  0  0  0  0  0
  193.1910  171.3980  139.5810 C   0  0  0  0  0  1  0  0  0  0  0  0
  190.8340  174.7880  145.3930 C   0  0  0  0  0  2  0  0  0  0  0  0
  193.7060  176.9350  146.7320 C   0  0  0  0  0  1  0  0  0  0  0  0
  191.5340  174.1070  144.2140 C   0  0  2  0  0  3  0  0  0  0  0  0
  187.4090  177.2480  142.1180 C   0  0  0  0  0  3  0  0  0  0  0  0
  186.6570  178.4180  144.7040 C   0  0  0  0  0  3  0  0  0  0  0  0
  187.4600  177.2690  144.5820 C   0  0  0  0  0  0  0  0  0  0  0  0
  187.5860  176.4160  145.6930 C   0  0  0  0  0  3  0  0  0  0  0  0
  187.0770  175.8800  147.9580 F   0  0  0  0  0  0  0  0  0  0  0  0
  186.1550  177.8580  147.0050 C   0  0  0  0  0  3  0  0  0  0  0  0
  186.9410  176.7100  146.8970 C   0  0  0  0  0  0  0  0  0  0  0  0
  186.0120  178.7120  145.9090 C   0  0  0  0  0  3  0  0  0  0  0  0
  195.6860  173.3890  145.7180 O   0  0  0  0  0  1  0  0  0  0  0  0
  194.6320  172.5440  145.6360 N   0  0  0  0  0  2  0  0  0  0  0  0
  1 12  1  0  0  0  0
  1  4  1  0  0  0  0
  2 17  1  0  0  0  0
  3  7  1  0  0  0  0
  5 19  1  0  0  0  0
  6  9  2  0  0  0  0
  7 21  1  0  0  0  0
  7 10  2  0  0  0  0
  8 26  1  0  0  0  0
  9  3  1  0  0  0  0
  9 13  1  0  0  0  0
 10  5  1  0  0  0  0
 11 16  2  0  0  0  0
 11  6  1  0  0  0  0
 12  4  1  0  0  0  0
 12  8  1  0  0  0  0
 13 21  1  0  0  0  0
 14  2  1  0  0  0  0
 15 28  2  0  0  0  0
 16 20  1  0  0  0  0
 17 13  1  0  0  0  0
 18  8  1  0  0  0  0
 19 18  1  0  0  0  0
 20 15  1  0  0  0  0
 20  3  2  0  0  0  0
 21 27  1  0  0  0  0
 22  2  1  0  0  0  0
 22  6  1  0  0  0  0
 23 10  1  0  0  0  0
 23 30  1  0  0  0  0
 24  2  1  0  0  0  0
 25 18  1  0  0  0  0
 27  1  1  0  0  0  0
 27 25  1  0  0  0  0
 28 23  1  0  0  0  0
 29 35  1  0  0  0  0
 30 29  2  0  0  0  0
 30 31  1  0  0  0  0
 31 34  2  0  0  0  0
 34 33  1  0  0  0  0
 34 32  1  0  0  0  0
 35 33  2  0  0  0  0
 37 36  1  0  0  0  0
 37  4  1  0  0  0  0
M  END
>  <MODEL>
3

>  <REMARK>
 VINA RESULT:      -8.8      0.782      1.114
  Name = 
  2 active torsions:
  status: ('A' for Active; 'I' for Inactive)
    1  A    between atoms: C_4  and  N_37
    2  A    between atoms: N_23  and  C_30
                            x       y       z     vdW  Elec       q    Type
                         _______ _______ _______ _____ _____    ______ ____

>  <TORSDO>
F 2

$$$$
=
 OpenBabel11112417273D

 37 44  0  0  1  0  0  0  0  0999 V2000
  191.0200  173.3700  143.3710 C   0  0  2  0  0  3  0  0  0  0  0  0
  190.5450  173.0020  138.6360 C   0  0  0  0  0  0  0  0  0  0  0  0
  187.8990  175.6300  140.4510 C   0  0  0  0  0  0  0  0  0  0  0  0
  191.1060  172.5460  144.6380 C   0  0  2  0  0  3  0  0  0  0  0  0
  189.1970  177.3390  143.6040 N   0  0  0  0  0  2  0  0  0  0  0  0
  188.3060  174.1700  138.5850 C   0  0  0  0  0  0  0  0  0  0  0  0
  188.5820  175.9130  141.7190 C   0  0  0  0  0  0  0  0  0  0  0  0
  191.0440  174.8300  145.5730 C   0  0  2  0  0  3  0  0  0  0  0  0
  188.5100  174.5410  139.9010 C   0  0  0  0  0  0  0  0  0  0  0  0
  188.3030  176.9490  142.5400 C   0  0  0  0  0  0  0  0  0  0  0  0
  187.4290  174.8890  137.8310 N   0  0  0  0  0  0  0  0  0  0  0  0
  191.7860  173.9100  144.5920 C   0  0  2  0  0  3  0  0  0  0  0  0
  189.5920  174.0710  140.6650 N   0  0  0  0  0  0  0  0  0  0  0  0
  191.3760  174.1660  138.1210 C   0  0  0  0  0  1  0  0  0  0  0  0
  186.5760  177.7510  140.0520 C   0  0  0  0  0  3  0  0  0  0  0  0
  186.8180  176.0040  138.3350 C   0  0  0  0  0  3  0  0  0  0  0  0
  190.5070  173.0390  140.1800 C   0  0  0  0  0  2  0  0  0  0  0  0
  189.8700  175.5970  144.9740 C   0  0  1  0  0  3  0  0  0  0  0  0
  190.3210  176.6040  144.0120 N   0  0  0  0  0  2  0  0  0  0  0  0
  187.0660  176.4300  139.6560 C   0  0  0  0  0  0  0  0  0  0  0  0
  189.7180  174.8920  141.8690 C   0  0  2  0  0  3  0  0  0  0  0  0
  189.1290  173.0520  138.0150 C   0  0  0  0  0  2  0  0  0  0  0  0
  187.0310  177.6270  142.4690 N   0  0  0  0  0  0  0  0  0  0  0  0
  191.2140  171.7150  138.2040 C   0  0  0  0  0  1  0  0  0  0  0  0
  188.9410  174.5890  144.3190 C   0  0  0  0  0  2  0  0  0  0  0  0
  192.0210  175.7610  146.2680 C   0  0  0  0  0  1  0  0  0  0  0  0
  189.6190  173.9610  143.0980 C   0  0  2  0  0  3  0  0  0  0  0  0
  186.5630  178.2740  141.2740 C   0  0  0  0  0  3  0  0  0  0  0  0
  185.9420  179.1980  144.0540 C   0  0  0  0  0  3  0  0  0  0  0  0
  186.3100  177.8880  143.6950 C   0  0  0  0  0  0  0  0  0  0  0  0
  185.9340  176.8290  144.5400 C   0  0  0  0  0  3  0  0  0  0  0  0
  184.8710  176.0410  146.5220 F   0  0  0  0  0  0  0  0  0  0  0  0
  184.8710  178.3790  146.0630 C   0  0  0  0  0  3  0  0  0  0  0  0
  185.2210  177.0720  145.7180 C   0  0  0  0  0  0  0  0  0  0  0  0
  185.2290  179.4420  145.2310 C   0  0  0  0  0  3  0  0  0  0  0  0
  192.0370  171.1120  143.1730 O   0  0  0  0  0  1  0  0  0  0  0  0
  192.1050  171.5080  144.4660 N   0  0  0  0  0  2  0  0  0  0  0  0
  1 12  1  0  0  0  0
  1  4  1  0  0  0  0
  2 17  1  0  0  0  0
  3  7  1  0  0  0  0
  5 19  1  0  0  0  0
  6  9  2  0  0  0  0
  7 21  1  0  0  0  0
  7 10  2  0  0  0  0
  8 26  1  0  0  0  0
  9  3  1  0  0  0  0
  9 13  1  0  0  0  0
 10  5  1  0  0  0  0
 11 16  2  0  0  0  0
 11  6  1  0  0  0  0
 12  4  1  0  0  0  0
 12  8  1  0  0  0  0
 13 21  1  0  0  0  0
 14  2  1  0  0  0  0
 15 28  2  0  0  0  0
 16 20  1  0  0  0  0
 17 13  1  0  0  0  0
 18  8  1  0  0  0  0
 19 18  1  0  0  0  0
 20 15  1  0  0  0  0
 20  3  2  0  0  0  0
 21 27  1  0  0  0  0
 22  6  1  0  0  0  0
 22  2  1  0  0  0  0
 23 10  1  0  0  0  0
 23 30  1  0  0  0  0
 24  2  1  0  0  0  0
 25 18  1  0  0  0  0
 27  1  1  0  0  0  0
 27 25  1  0  0  0  0
 28 23  1  0  0  0  0
 29 35  1  0  0  0  0
 30 29  2  0  0  0  0
 30 31  1  0  0  0  0
 31 34  2  0  0  0  0
 34 33  1  0  0  0  0
 34 32  1  0  0  0  0
 35 33  2  0  0  0  0
 36 37  1  0  0  0  0
 37  4  1  0  0  0  0
M  END
>  <MODEL>
4

>  <REMARK>
 VINA RESULT:      -8.5      1.966      2.574
  Name = 
  2 active torsions:
  status: ('A' for Active; 'I' for Inactive)
    1  A    between atoms: C_4  and  N_37
    2  A    between atoms: N_23  and  C_30
                            x       y       z     vdW  Elec       q    Type
                         _______ _______ _______ _____ _____    ______ ____

>  <TORSDO>
F 2

$$$$
=
 OpenBabel11112417273D

 37 44  0  0  1  0  0  0  0  0999 V2000
  191.0420  173.6500  141.0390 C   0  0  2  0  0  3  0  0  0  0  0  0
  195.4290  173.9110  142.9030 C   0  0  0  0  0  0  0  0  0  0  0  0
  192.5140  175.9620  145.0240 C   0  0  0  0  0  0  0  0  0  0  0  0
  190.2710  173.8410  139.7510 C   0  0  2  0  0  3  0  0  0  0  0  0
  189.0010  174.4880  144.8160 N   0  0  0  0  0  2  0  0  0  0  0  0
  194.8480  175.8010  144.4750 C   0  0  0  0  0  0  0  0  0  0  0  0
  191.2870  175.3090  144.5510 C   0  0  0  0  0  0  0  0  0  0  0  0
  188.4280  173.4130  141.3380 C   0  0  2  0  0  3  0  0  0  0  0  0
  193.5150  175.5950  144.1730 C   0  0  0  0  0  0  0  0  0  0  0  0
  190.0820  175.3820  145.1580 C   0  0  0  0  0  0  0  0  0  0  0  0
  195.1650  176.4340  145.6380 N   0  0  0  0  0  0  0  0  0  0  0  0
  189.7500  172.8530  140.7910 C   0  0  2  0  0  3  0  0  0  0  0  0
  193.0900  174.7040  143.1720 N   0  0  0  0  0  0  0  0  0  0  0  0
  195.4240  172.7980  143.9380 C   0  0  0  0  0  1  0  0  0  0  0  0
  191.8750  176.7150  147.3550 C   0  0  0  0  0  3  0  0  0  0  0  0
  194.1930  176.7920  146.5320 C   0  0  0  0  0  3  0  0  0  0  0  0
  194.0250  174.0330  142.2690 C   0  0  0  0  0  2  0  0  0  0  0  0
  188.5690  174.3330  142.5460 C   0  0  1  0  0  3  0  0  0  0  0  0
  189.0150  173.5980  143.7310 N   0  0  0  0  0  2  0  0  0  0  0  0
  192.8340  176.5300  146.2650 C   0  0  0  0  0  0  0  0  0  0  0  0
  191.6580  174.4600  143.3280 C   0  0  2  0  0  3  0  0  0  0  0  0
  195.8920  175.2350  143.5570 C   0  0  0  0  0  2  0  0  0  0  0  0
  189.7820  176.4500  146.0820 N   0  0  0  0  0  0  0  0  0  0  0  0
  196.4150  173.5420  141.8160 C   0  0  0  0  0  1  0  0  0  0  0  0
  189.5510  175.4330  142.1820 C   0  0  0  0  0  2  0  0  0  0  0  0
  187.4460  172.2880  141.6060 C   0  0  0  0  0  1  0  0  0  0  0  0
  190.9570  174.8510  142.0070 C   0  0  2  0  0  3  0  0  0  0  0  0
  190.5480  176.6770  147.2770 C   0  0  0  0  0  3  0  0  0  0  0  0
  188.1180  177.6680  144.6990 C   0  0  0  0  0  3  0  0  0  0  0  0
  188.5310  177.1610  145.9460 C   0  0  0  0  0  0  0  0  0  0  0  0
  187.6830  177.3320  147.0550 C   0  0  0  0  0  3  0  0  0  0  0  0
  185.6620  178.1610  148.0050 F   0  0  0  0  0  0  0  0  0  0  0  0
  186.0730  178.5070  145.6840 C   0  0  0  0  0  3  0  0  0  0  0  0
  186.4640  178.0020  146.9260 C   0  0  0  0  0  0  0  0  0  0  0  0
  186.8990  178.3390  144.5710 C   0  0  0  0  0  3  0  0  0  0  0  0
  190.4660  171.8380  138.7400 O   0  0  0  0  0  1  0  0  0  0  0  0
  190.9320  173.1080  138.6870 N   0  0  0  0  0  2  0  0  0  0  0  0
  1 27  1  0  0  0  0
  2 22  1  0  0  0  0
  2 14  1  0  0  0  0
  3 20  1  0  0  0  0
  4 12  1  0  0  0  0
  4  1  1  0  0  0  0
  5 10  1  0  0  0  0
  6 11  2  0  0  0  0
  7  3  1  0  0  0  0
  7 10  2  0  0  0  0
  8 26  1  0  0  0  0
  8 18  1  0  0  0  0
  9  6  1  0  0  0  0
  9  3  2  0  0  0  0
 10 23  1  0  0  0  0
 11 16  1  0  0  0  0
 12  1  1  0  0  0  0
 12  8  1  0  0  0  0
 13 21  1  0  0  0  0
 13  9  1  0  0  0  0
 17  2  1  0  0  0  0
 17 13  1  0  0  0  0
 18 19  1  0  0  0  0
 19  5  1  0  0  0  0
 20 16  2  0  0  0  0
 20 15  1  0  0  0  0
 21  7  1  0  0  0  0
 22  6  1  0  0  0  0
 23 28  1  0  0  0  0
 24  2  1  0  0  0  0
 25 18  1  0  0  0  0
 27 25  1  0  0  0  0
 27 21  1  0  0  0  0
 28 15  2  0  0  0  0
 29 30  1  0  0  0  0
 30 23  1  0  0  0  0
 30 31  2  0  0  0  0
 33 34  2  0  0  0  0
 34 31  1  0  0  0  0
 34 32  1  0  0  0  0
 35 29  2  0  0  0  0
 35 33  1  0  0  0  0
 37 36  1  0  0  0  0
 37  4  1  0  0  0  0
M  END
>  <MODEL>
5

>  <REMARK>
 VINA RESULT:      -8.2      2.365      5.350
  Name = 
  2 active torsions:
  status: ('A' for Active; 'I' for Inactive)
    1  A    between atoms: C_4  and  N_37
    2  A    between atoms: N_23  and  C_30
                            x       y       z     vdW  Elec       q    Type
                         _______ _______ _______ _____ _____    ______ ____

>  <TORSDO>
F 2

$$$$
=
 OpenBabel11112417273D

 37 44  0  0  1  0  0  0  0  0999 V2000
  192.8620  172.1320  144.5890 C   0  0  2  0  0  3  0  0  0  0  0  0
  190.4770  175.6760  146.7190 C   0  0  0  0  0  0  0  0  0  0  0  0
  189.7020  175.2460  142.6670 C   0  0  0  0  0  0  0  0  0  0  0  0
  194.2500  171.5570  144.4080 C   0  0  2  0  0  3  0  0  0  0  0  0
  189.9960  171.6910  141.3150 N   0  0  0  0  0  2  0  0  0  0  0  0
  189.7580  176.7440  144.5460 C   0  0  0  0  0  0  0  0  0  0  0  0
  190.1280  173.8620  142.4270 C   0  0  0  0  0  0  0  0  0  0  0  0
  192.9510  170.1300  142.8670 C   0  0  2  0  0  3  0  0  0  0  0  0
  190.1950  175.6110  143.8860 C   0  0  0  0  0  0  0  0  0  0  0  0
  189.7960  173.1210  141.3470 C   0  0  0  0  0  0  0  0  0  0  0  0
  188.8400  177.5440  143.9360 N   0  0  0  0  0  0  0  0  0  0  0  0
  193.0440  170.6280  144.3170 C   0  0  2  0  0  3  0  0  0  0  0  0
  190.8930  174.5760  144.5310 N   0  0  0  0  0  0  0  0  0  0  0  0
  189.1450  175.0300  147.0610 C   0  0  0  0  0  1  0  0  0  0  0  0
  187.9060  175.5820  140.9140 C   0  0  0  0  0  3  0  0  0  0  0  0
  188.2990  177.1990  142.7280 C   0  0  0  0  0  3  0  0  0  0  0  0
  191.3440  174.6780  145.9190 C   0  0  0  0  0  2  0  0  0  0  0  0
  192.1180  171.0070  141.9370 C   0  0  1  0  0  3  0  0  0  0  0  0
  190.6970  170.9610  142.2870 N   0  0  0  0  0  2  0  0  0  0  0  0
  188.6900  176.0130  142.0730 C   0  0  0  0  0  0  0  0  0  0  0  0
  190.9110  173.4000  143.6640 C   0  0  2  0  0  3  0  0  0  0  0  0
  190.2390  176.9950  145.9450 C   0  0  0  0  0  2  0  0  0  0  0  0
  189.3520  173.7490  140.1260 N   0  0  0  0  0  0  0  0  0  0  0  0
  191.1910  176.0010  148.0130 C   0  0  0  0  0  1  0  0  0  0  0  0
  192.6590  172.4230  142.0240 C   0  0  0  0  0  2  0  0  0  0  0  0
  192.4900  168.6850  142.8310 C   0  0  0  0  0  1  0  0  0  0  0  0
  192.3850  173.0100  143.4110 C   0  0  2  0  0  3  0  0  0  0  0  0
  188.1910  174.5950  140.0690 C   0  0  0  0  0  3  0  0  0  0  0  0
  191.2900  173.5520  138.5870 C   0  0  0  0  0  3  0  0  0  0  0  0
  189.9310  173.3250  138.8720 C   0  0  0  0  0  0  0  0  0  0  0  0
  189.1510  172.6430  137.9210 C   0  0  0  0  0  3  0  0  0  0  0  0
  188.9410  171.5630  135.8070 F   0  0  0  0  0  0  0  0  0  0  0  0
  191.0570  172.4550  136.4430 C   0  0  0  0  0  3  0  0  0  0  0  0
  189.7090  172.2140  136.7130 C   0  0  0  0  0  0  0  0  0  0  0  0
  191.8480  173.1230  137.3800 C   0  0  0  0  0  3  0  0  0  0  0  0
  194.5880  170.1490  146.1310 O   0  0  0  0  0  1  0  0  0  0  0  0
  194.8760  171.4020  145.7070 N   0  0  0  0  0  2  0  0  0  0  0  0
  2 14  1  0  0  0  0
  2 24  1  0  0  0  0
  3  9  1  0  0  0  0
  4  1  1  0  0  0  0
  4 37  1  0  0  0  0
  5 10  1  0  0  0  0
  5 19  1  0  0  0  0
  6 22  1  0  0  0  0
  7  3  1  0  0  0  0
  7 21  1  0  0  0  0
  8 12  1  0  0  0  0
  9 13  1  0  0  0  0
  9  6  2  0  0  0  0
 10  7  2  0  0  0  0
 11  6  1  0  0  0  0
 12  4  1  0  0  0  0
 12  1  1  0  0  0  0
 13 17  1  0  0  0  0
 15 20  1  0  0  0  0
 16 11  2  0  0  0  0
 17  2  1  0  0  0  0
 18 25  1  0  0  0  0
 18 19  1  0  0  0  0
 18  8  1  0  0  0  0
 20  3  2  0  0  0  0
 20 16  1  0  0  0  0
 21 13  1  0  0  0  0
 22  2  1  0  0  0  0
 23 10  1  0  0  0  0
 25 27  1  0  0  0  0
 26  8  1  0  0  0  0
 27 21  1  0  0  0  0
 27  1  1  0  0  0  0
 28 23  1  0  0  0  0
 28 15  2  0  0  0  0
 29 30  1  0  0  0  0
 30 23  1  0  0  0  0
 31 30  2  0  0  0  0
 32 34  1  0  0  0  0
 33 34  2  0  0  0  0
 33 35  1  0  0  0  0
 34 31  1  0  0  0  0
 35 29  2  0  0  0  0
 37 36  1  0  0  0  0
M  END
>  <MODEL>
6

>  <REMARK>
 VINA RESULT:      -7.9      3.047      6.666
  Name = 
  2 active torsions:
  status: ('A' for Active; 'I' for Inactive)
    1  A    between atoms: C_4  and  N_37
    2  A    between atoms: N_23  and  C_30
                            x       y       z     vdW  Elec       q    Type
                         _______ _______ _______ _____ _____    ______ ____

>  <TORSDO>
F 2

$$$$
=
 OpenBabel11112417273D

 37 44  0  0  1  0  0  0  0  0999 V2000
  193.9030  171.8150  143.5790 C   0  0  2  0  0  3  0  0  0  0  0  0
  192.5070  170.5480  139.1940 C   0  0  0  0  0  0  0  0  0  0  0  0
  189.9520  173.1710  141.1420 C   0  0  0  0  0  0  0  0  0  0  0  0
  194.3660  171.2480  144.9030 C   0  0  2  0  0  3  0  0  0  0  0  0
  191.6240  175.5490  143.6120 N   0  0  0  0  0  2  0  0  0  0  0  0
  190.1630  171.4470  139.4800 C   0  0  0  0  0  0  0  0  0  0  0  0
  190.8380  173.7480  142.1600 C   0  0  0  0  0  0  0  0  0  0  0  0
  194.1780  173.6450  145.4640 C   0  0  2  0  0  3  0  0  0  0  0  0
  190.5830  172.0700  140.6410 C   0  0  0  0  0  0  0  0  0  0  0  0
  190.5920  174.8820  142.8540 C   0  0  0  0  0  0  0  0  0  0  0  0
  189.0560  171.9220  138.8460 N   0  0  0  0  0  0  0  0  0  0  0  0
  194.8220  172.6450  144.4930 C   0  0  2  0  0  3  0  0  0  0  0  0
  191.8560  171.8620  141.1990 N   0  0  0  0  0  0  0  0  0  0  0  0
  193.0370  171.6790  138.3290 C   0  0  0  0  0  1  0  0  0  0  0  0
  188.2880  175.0350  140.7370 C   0  0  0  0  0  3  0  0  0  0  0  0
  188.4120  173.0410  139.3000 C   0  0  0  0  0  3  0  0  0  0  0  0
  192.7870  170.8600  140.6800 C   0  0  0  0  0  2  0  0  0  0  0  0
  192.8080  174.1640  145.0410 C   0  0  1  0  0  3  0  0  0  0  0  0
  192.9010  175.0210  143.8580 N   0  0  0  0  0  2  0  0  0  0  0  0
  188.8670  173.7230  140.4470 C   0  0  0  0  0  0  0  0  0  0  0  0
  192.1130  172.8950  142.2000 C   0  0  2  0  0  3  0  0  0  0  0  0
  190.9990  170.3360  138.9150 C   0  0  0  0  0  2  0  0  0  0  0  0
  189.2500  175.4000  142.9750 N   0  0  0  0  0  0  0  0  0  0  0  0
  193.2460  169.2810  138.8220 C   0  0  0  0  0  1  0  0  0  0  0  0
  191.9160  172.9630  144.7800 C   0  0  0  0  0  2  0  0  0  0  0  0
  195.1360  174.7830  145.7650 C   0  0  0  0  0  1  0  0  0  0  0  0
  192.4060  172.1980  143.5470 C   0  0  2  0  0  3  0  0  0  0  0  0
  188.4570  175.7670  141.8340 C   0  0  0  0  0  3  0  0  0  0  0  0
  189.1320  175.0860  145.4350 C   0  0  0  0  0  3  0  0  0  0  0  0
  188.7720  175.8020  144.2780 C   0  0  0  0  0  0  0  0  0  0  0  0
  187.9610  176.9420  144.4200 C   0  0  0  0  0  3  0  0  0  0  0  0
  186.7250  178.4440  145.7960 F   0  0  0  0  0  0  0  0  0  0  0  0
  187.8690  176.6200  146.8150 C   0  0  0  0  0  3  0  0  0  0  0  0
  187.5100  177.3470  145.6790 C   0  0  0  0  0  0  0  0  0  0  0  0
  188.6810  175.4900  146.6940 C   0  0  0  0  0  3  0  0  0  0  0  0
  195.7530  170.3870  143.3510 O   0  0  0  0  0  1  0  0  0  0  0  0
  195.4440  170.3060  144.6670 N   0  0  0  0  0  2  0  0  0  0  0  0
  1 12  1  0  0  0  0
  1  4  1  0  0  0  0
  2 17  1  0  0  0  0
  3  7  1  0  0  0  0
  5 19  1  0  0  0  0
  6  9  2  0  0  0  0
  7 21  1  0  0  0  0
  7 10  2  0  0  0  0
  8 26  1  0  0  0  0
  9  3  1  0  0  0  0
  9 13  1  0  0  0  0
 10 23  1  0  0  0  0
 10  5  1  0  0  0  0
 11 16  2  0  0  0  0
 11  6  1  0  0  0  0
 12  4  1  0  0  0  0
 12  8  1  0  0  0  0
 13 21  1  0  0  0  0
 14  2  1  0  0  0  0
 15 28  2  0  0  0  0
 16 20  1  0  0  0  0
 17 13  1  0  0  0  0
 18  8  1  0  0  0  0
 19 18  1  0  0  0  0
 20 15  1  0  0  0  0
 20  3  2  0  0  0  0
 21 27  1  0  0  0  0
 22  2  1  0  0  0  0
 22  6  1  0  0  0  0
 23 30  1  0  0  0  0
 24  2  1  0  0  0  0
 25 18  1  0  0  0  0
 27  1  1  0  0  0  0
 27 25  1  0  0  0  0
 28 23  1  0  0  0  0
 29 35  1  0  0  0  0
 30 31  1  0  0  0  0
 30 29  2  0  0  0  0
 31 34  2  0  0  0  0
 34 32  1  0  0  0  0
 34 33  1  0  0  0  0
 35 33  2  0  0  0  0
 36 37  1  0  0  0  0
 37  4  1  0  0  0  0
M  END
>  <MODEL>
7

>  <REMARK>
 VINA RESULT:      -7.5      1.693      2.147
  Name = 
  2 active torsions:
  status: ('A' for Active; 'I' for Inactive)
    1  A    between atoms: C_4  and  N_37
    2  A    between atoms: N_23  and  C_30
                            x       y       z     vdW  Elec       q    Type
                         _______ _______ _______ _____ _____    ______ ____

>  <TORSDO>
F 2

$$$$
=
 OpenBabel11112417273D

 37 44  0  0  1  0  0  0  0  0999 V2000
  194.0290  173.0830  144.9830 C   0  0  2  0  0  3  0  0  0  0  0  0
  190.8430  176.0210  146.9810 C   0  0  0  0  0  0  0  0  0  0  0  0
  189.8040  174.6320  143.2140 C   0  0  0  0  0  0  0  0  0  0  0  0
  195.5000  172.9520  144.6500 C   0  0  2  0  0  3  0  0  0  0  0  0
  191.1300  171.1670  142.3270 N   0  0  0  0  0  2  0  0  0  0  0  0
  189.5620  176.3900  144.8350 C   0  0  0  0  0  0  0  0  0  0  0  0
  190.6440  173.4340  143.0960 C   0  0  0  0  0  0  0  0  0  0  0  0
  194.5950  170.9310  143.5580 C   0  0  2  0  0  3  0  0  0  0  0  0
  190.2800  175.3520  144.2710 C   0  0  0  0  0  0  0  0  0  0  0  0
  190.4630  172.4410  142.1980 C   0  0  0  0  0  0  0  0  0  0  0  0
  188.3650  176.7330  144.2840 N   0  0  0  0  0  0  0  0  0  0  0  0
  194.6780  171.6900  144.8910 C   0  0  2  0  0  3  0  0  0  0  0  0
  191.3560  174.7270  144.9240 N   0  0  0  0  0  0  0  0  0  0  0  0
  189.8560  175.0630  147.6260 C   0  0  0  0  0  1  0  0  0  0  0  0
  187.8150  174.0560  141.7580 C   0  0  0  0  0  3  0  0  0  0  0  0
  187.8400  176.0190  143.2430 C   0  0  0  0  0  3  0  0  0  0  0  0
  191.8990  175.2190  146.1900 C   0  0  0  0  0  2  0  0  0  0  0  0
  193.4150  171.3130  142.6710 C   0  0  1  0  0  3  0  0  0  0  0  0
  192.1430  170.8870  143.2570 N   0  0  0  0  0  2  0  0  0  0  0  0
  188.5320  174.9180  142.6990 C   0  0  0  0  0  0  0  0  0  0  0  0
  191.6730  173.4780  144.2340 C   0  0  2  0  0  3  0  0  0  0  0  0
  190.0860  177.0320  146.0860 C   0  0  0  0  0  2  0  0  0  0  0  0
  189.6960  172.6610  140.9950 N   0  0  0  0  0  0  0  0  0  0  0  0
  191.5470  176.7870  148.0800 C   0  0  0  0  0  1  0  0  0  0  0  0
  193.4500  172.8180  142.4720 C   0  0  0  0  0  2  0  0  0  0  0  0
  194.6500  169.4330  143.7970 C   0  0  0  0  0  1  0  0  0  0  0  0
  193.1530  173.5330  143.7930 C   0  0  2  0  0  3  0  0  0  0  0  0
  188.3190  173.0730  141.0190 C   0  0  0  0  0  3  0  0  0  0  0  0
  191.3980  172.8070  139.1930 C   0  0  0  0  0  3  0  0  0  0  0  0
  190.2390  172.2180  139.7300 C   0  0  0  0  0  0  0  0  0  0  0  0
  189.6340  171.1620  139.0260 C   0  0  0  0  0  3  0  0  0  0  0  0
  189.5650  169.7010  137.1440 F   0  0  0  0  0  0  0  0  0  0  0  0
  191.3090  171.3180  137.2880 C   0  0  0  0  0  3  0  0  0  0  0  0
  190.1630  170.7160  137.8110 C   0  0  0  0  0  0  0  0  0  0  0  0
  191.9280  172.3620  137.9790 C   0  0  0  0  0  3  0  0  0  0  0  0
  196.0630  174.5440  146.1400 O   0  0  0  0  0  1  0  0  0  0  0  0
  196.2850  173.2430  145.8350 N   0  0  0  0  0  2  0  0  0  0  0  0
  2 14  1  0  0  0  0
  2 24  1  0  0  0  0
  3  9  1  0  0  0  0
  4 12  1  0  0  0  0
  4  1  1  0  0  0  0
  4 37  1  0  0  0  0
  5 19  1  0  0  0  0
  6 22  1  0  0  0  0
  7  3  1  0  0  0  0
  7 21  1  0  0  0  0
  8 26  1  0  0  0  0
  8 12  1  0  0  0  0
  9  6  2  0  0  0  0
  9 13  1  0  0  0  0
 10  5  1  0  0  0  0
 10  7  2  0  0  0  0
 11  6  1  0  0  0  0
 12  1  1  0  0  0  0
 13 17  1  0  0  0  0
 15 20  1  0  0  0  0
 16 11  2  0  0  0  0
 17  2  1  0  0  0  0
 18 19  1  0  0  0  0
 18  8  1  0  0  0  0
 20  3  2  0  0  0  0
 20 16  1  0  0  0  0
 21 13  1  0  0  0  0
 22  2  1  0  0  0  0
 23 28  1  0  0  0  0
 23 10  1  0  0  0  0
 25 18  1  0  0  0  0
 25 27  1  0  0  0  0
 27 21  1  0  0  0  0
 27  1  1  0  0  0  0
 28 15  2  0  0  0  0
 29 30  1  0  0  0  0
 30 23  1  0  0  0  0
 31 30  2  0  0  0  0
 32 34  1  0  0  0  0
 33 34  2  0  0  0  0
 33 35  1  0  0  0  0
 34 31  1  0  0  0  0
 35 29  2  0  0  0  0
 37 36  1  0  0  0  0
M  END
>  <MODEL>
8

>  <REMARK>
 VINA RESULT:      -7.5      3.024      6.653
  Name = 
  2 active torsions:
  status: ('A' for Active; 'I' for Inactive)
    1  A    between atoms: C_4  and  N_37
    2  A    between atoms: N_23  and  C_30
                            x       y       z     vdW  Elec       q    Type
                         _______ _______ _______ _____ _____    ______ ____

>  <TORSDO>
F 2

$$$$
=
 OpenBabel11112417273D

 37 44  0  0  1  0  0  0  0  0999 V2000
  193.3620  176.2250  145.1530 C   0  0  2  0  0  3  0  0  0  0  0  0
  188.7680  176.9780  146.2050 C   0  0  0  0  0  0  0  0  0  0  0  0
  189.4300  175.0270  142.6060 C   0  0  0  0  0  0  0  0  0  0  0  0
  194.7000  176.9230  145.0460 C   0  0  2  0  0  3  0  0  0  0  0  0
  192.5660  172.8590  142.4760 N   0  0  0  0  0  2  0  0  0  0  0  0
  187.9550  176.4370  143.8750 C   0  0  0  0  0  0  0  0  0  0  0  0
  190.7880  174.5030  142.7970 C   0  0  0  0  0  0  0  0  0  0  0  0
  195.2750  174.6830  144.1830 C   0  0  2  0  0  3  0  0  0  0  0  0
  189.2160  175.9500  143.5880 C   0  0  0  0  0  0  0  0  0  0  0  0
  191.3580  173.5280  142.0550 C   0  0  0  0  0  0  0  0  0  0  0  0
  186.9020  176.0150  143.1220 N   0  0  0  0  0  0  0  0  0  0  0  0
  194.6640  175.4340  145.3750 C   0  0  2  0  0  3  0  0  0  0  0  0
  190.3010  176.0770  144.4720 N   0  0  0  0  0  0  0  0  0  0  0  0
  188.3510  175.6710  146.8580 C   0  0  0  0  0  1  0  0  0  0  0  0
  188.4100  173.3480  141.0090 C   0  0  0  0  0  3  0  0  0  0  0  0
  187.0700  175.0690  142.1480 C   0  0  0  0  0  3  0  0  0  0  0  0
  190.2240  176.8630  145.7030 C   0  0  0  0  0  2  0  0  0  0  0  0
  194.2830  174.2830  143.0950 C   0  0  1  0  0  3  0  0  0  0  0  0
  193.3570  173.2510  143.5670 N   0  0  0  0  0  2  0  0  0  0  0  0
  188.3400  174.5170  141.8860 C   0  0  0  0  0  0  0  0  0  0  0  0
  191.3750  175.1830  144.0410 C   0  0  2  0  0  3  0  0  0  0  0  0
  187.7820  177.3340  145.0660 C   0  0  0  0  0  2  0  0  0  0  0  0
  190.8550  173.2090  140.7400 N   0  0  0  0  0  0  0  0  0  0  0  0
  188.7070  178.0700  147.2510 C   0  0  0  0  0  1  0  0  0  0  0  0
  193.5370  175.5340  142.6630 C   0  0  0  0  0  2  0  0  0  0  0  0
  196.0830  173.4920  144.6650 C   0  0  0  0  0  1  0  0  0  0  0  0
  192.6420  176.0350  143.8000 C   0  0  2  0  0  3  0  0  0  0  0  0
  189.5030  172.7760  140.5120 C   0  0  0  0  0  3  0  0  0  0  0  0
  191.9110  171.8620  138.9410 C   0  0  0  0  0  3  0  0  0  0  0  0
  191.7920  173.0730  139.6480 C   0  0  0  0  0  0  0  0  0  0  0  0
  192.5840  174.1650  139.2470 C   0  0  0  0  0  3  0  0  0  0  0  0
  194.2360  175.1050  137.8110 F   0  0  0  0  0  0  0  0  0  0  0  0
  193.5910  172.8340  137.4960 C   0  0  0  0  0  3  0  0  0  0  0  0
  193.4790  174.0450  138.1810 C   0  0  0  0  0  0  0  0  0  0  0  0
  192.8060  171.7420  137.8750 C   0  0  0  0  0  3  0  0  0  0  0  0
  194.1010  177.1830  147.2010 O   0  0  0  0  0  1  0  0  0  0  0  0
  194.9450  177.6750  146.2630 N   0  0  0  0  0  2  0  0  0  0  0  0
  1 12  1  0  0  0  0
  2 14  1  0  0  0  0
  2 24  1  0  0  0  0
  3  7  1  0  0  0  0
  3  9  1  0  0  0  0
  4  1  1  0  0  0  0
  4 12  1  0  0  0  0
  4 37  1  0  0  0  0
  5 19  1  0  0  0  0
  6 22  1  0  0  0  0
  7 21  1  0  0  0  0
  8 26  1  0  0  0  0
  8 12  1  0  0  0  0
  9  6  2  0  0  0  0
  9 13  1  0  0  0  0
 10  5  1  0  0  0  0
 10  7  2  0  0  0  0
 11  6  1  0  0  0  0
 13 17  1  0  0  0  0
 15 20  1  0  0  0  0
 16 11  2  0  0  0  0
 17  2  1  0  0  0  0
 18 19  1  0  0  0  0
 18  8  1  0  0  0  0
 20 16  1  0  0  0  0
 20  3  2  0  0  0  0
 21 13  1  0  0  0  0
 22  2  1  0  0  0  0
 23 10  1  0  0  0  0
 25 18  1  0  0  0  0
 25 27  1  0  0  0  0
 27 21  1  0  0  0  0
 27  1  1  0  0  0  0
 28 23  1  0  0  0  0
 28 15  2  0  0  0  0
 29 30  1  0  0  0  0
 30 23  1  0  0  0  0
 31 30  2  0  0  0  0
 32 34  1  0  0  0  0
 33 35  1  0  0  0  0
 33 34  2  0  0  0  0
 34 31  1  0  0  0  0
 35 29  2  0  0  0  0
 37 36  1  0  0  0  0
M  END
>  <MODEL>
9

>  <REMARK>
 VINA RESULT:      -7.4      2.750      6.528
  Name = 
  2 active torsions:
  status: ('A' for Active; 'I' for Inactive)
    1  A    between atoms: C_4  and  N_37
    2  A    between atoms: N_23  and  C_30
                            x       y       z     vdW  Elec       q    Type
                         _______ _______ _______ _____ _____    ______ ____

>  <TORSDO>
F 2

$$$$
