=
 OpenBabel11112417433D

 28 32  0  0  1  0  0  0  0  0999 V2000
  186.1250  178.3570  144.5600 C   0  0  0  0  0  0  0  0  0  0  0  0
  189.2360  178.2030  145.4700 F   0  0  0  0  0  0  0  0  0  0  0  0
  187.9190  173.2350  141.4440 C   0  0  0  0  0  1  0  0  0  0  0  0
  184.3750  177.6750  146.6470 C   0  0  0  0  0  3  0  0  0  0  0  0
  189.5320  174.4800  142.8750 C   0  0  2  0  0  3  0  0  0  0  0  0
  186.9970  178.8030  143.4210 C   0  0  0  0  0  2  0  0  0  0  0  0
  188.2740  177.8800  147.6000 C   0  0  0  0  0  1  0  0  0  0  0  0
  189.1380  177.2870  146.5040 C   0  0  1  0  0  0  0  0  0  0  0  0
  191.4470  176.4320  146.0620 C   0  0  1  0  0  3  0  0  0  0  0  0
  188.5180  175.9440  146.0160 C   0  0  2  0  0  3  0  0  0  0  0  0
  187.7160  177.5150  140.4810 O   0  0  0  0  0  0  0  0  0  0  0  0
  188.0840  176.1500  143.6510 C   0  0  1  0  0  3  0  0  0  0  0  0
  190.9220  175.0490  145.7190 C   0  0  0  0  0  2  0  0  0  0  0  0
  190.5280  177.0690  147.0920 C   0  0  0  0  0  2  0  0  0  0  0  0
  186.8550  177.3860  141.3900 C   0  0  0  0  0  0  0  0  0  0  0  0
  186.3110  177.1370  145.2710 C   0  0  0  0  0  0  0  0  0  0  0  0
  188.4010  174.6070  141.8700 C   0  0  2  0  0  3  0  0  0  0  0  0
  192.7310  176.3220  146.5900 O   0  0  0  0  0  1  0  0  0  0  0  0
  186.4800  176.1150  141.8290 O   0  0  0  0  0  0  0  0  0  0  0  0
  185.4190  176.8160  146.3020 C   0  0  0  0  0  3  0  0  0  0  0  0
  185.0740  179.2100  144.9200 C   0  0  0  0  0  3  0  0  0  0  0  0
  184.2040  178.8730  145.9580 C   0  0  0  0  0  3  0  0  0  0  0  0
  186.3060  178.5940  142.0750 C   0  0  0  0  0  2  0  0  0  0  0  0
  189.4360  175.6060  143.8030 N   0  0  1  0  0  0  0  0  0  0  0  0
  187.3250  175.3080  142.6500 C   0  0  2  0  0  3  0  0  0  0  0  0
  189.4920  175.1050  145.1770 C   0  0  2  0  0  3  0  0  0  0  0  0
  190.8670  174.5190  142.1550 C   0  0  0  0  0  1  0  0  0  0  0  0
  187.3990  176.1170  144.9990 C   0  0  2  0  0  3  0  0  0  0  0  0
  1 21  2  0  0  0  0
  1 16  1  0  0  0  0
  2  8  1  0  0  0  0
  3 17  1  0  0  0  0
  5 27  1  6  0  0  0
  5 24  1  0  0  0  0
  6  1  1  0  0  0  0
  8 14  1  0  0  0  0
  8  7  1  1  0  0  0
  9 18  1  1  0  0  0
  9 14  1  0  0  0  0
 10  8  1  0  0  0  0
 11 15  2  0  0  0  0
 12 24  1  0  0  0  0
 12 28  1  0  0  0  0
 13  9  1  0  0  0  0
 15 19  1  0  0  0  0
 15 23  1  0  0  0  0
 16 20  2  0  0  0  0
 17 25  1  0  0  0  0
 17  5  1  0  0  0  0
 19 25  1  0  0  0  0
 20  4  1  0  0  0  0
 21 22  1  0  0  0  0
 22  4  2  0  0  0  0
 23  6  1  0  0  0  0
 24 26  1  0  0  0  0
 25 12  1  0  0  0  0
 26 13  1  0  0  0  0
 26 10  1  0  0  0  0
 28 16  1  0  0  0  0
 28 10  1  0  0  0  0
M  END
>  <MODEL>
1

>  <REMARK>
 VINA RESULT:      -9.3      0.000      0.000
  Name = 
  0 active torsions:
  status: ('A' for Active; 'I' for Inactive)
                            x       y       z     vdW  Elec       q    Type
                         _______ _______ _______ _____ _____    ______ ____

>  <TORSDO>
F 0

$$$$
=
 OpenBabel11112417433D

 28 32  0  0  1  0  0  0  0  0999 V2000
  187.9420  177.2120  144.9770 C   0  0  0  0  0  0  0  0  0  0  0  0
  191.1650  177.2680  145.3460 F   0  0  0  0  0  0  0  0  0  0  0  0
  189.4190  171.6520  142.5100 C   0  0  0  0  0  1  0  0  0  0  0  0
  186.6010  176.8760  147.4220 C   0  0  0  0  0  3  0  0  0  0  0  0
  191.1900  173.1540  143.4080 C   0  0  2  0  0  3  0  0  0  0  0  0
  188.5890  177.4660  143.6460 C   0  0  0  0  0  2  0  0  0  0  0  0
  190.5910  177.3060  147.6350 C   0  0  0  0  0  1  0  0  0  0  0  0
  191.2840  176.5450  146.5220 C   0  0  1  0  0  0  0  0  0  0  0  0
  193.5230  175.6630  145.8380 C   0  0  1  0  0  3  0  0  0  0  0  0
  190.6530  175.1280  146.3840 C   0  0  2  0  0  3  0  0  0  0  0  0
  188.8620  175.6950  140.8870 O   0  0  0  0  0  0  0  0  0  0  0  0
  189.8190  174.9110  144.1300 C   0  0  1  0  0  3  0  0  0  0  0  0
  193.0110  174.2330  145.8300 C   0  0  0  0  0  2  0  0  0  0  0  0
  192.7630  176.4560  146.8880 C   0  0  0  0  0  2  0  0  0  0  0  0
  188.1720  175.7140  141.9400 C   0  0  0  0  0  0  0  0  0  0  0  0
  188.3000  176.1370  145.8420 C   0  0  0  0  0  0  0  0  0  0  0  0
  189.9020  173.0860  142.6080 C   0  0  2  0  0  3  0  0  0  0  0  0
  194.8820  175.6670  146.1450 O   0  0  0  0  0  1  0  0  0  0  0  0
  187.9340  174.5320  142.6460 O   0  0  0  0  0  0  0  0  0  0  0  0
  187.6100  175.9870  147.0510 C   0  0  0  0  0  3  0  0  0  0  0  0
  186.9280  178.0970  145.3650 C   0  0  0  0  0  3  0  0  0  0  0  0
  186.2620  177.9330  146.5800 C   0  0  0  0  0  3  0  0  0  0  0  0
  187.6920  177.0130  142.4950 C   0  0  0  0  0  2  0  0  0  0  0  0
  191.2000  174.4230  144.1340 N   0  0  1  0  0  0  0  0  0  0  0  0
  188.9410  173.8950  143.4330 C   0  0  2  0  0  3  0  0  0  0  0  0
  191.5090  174.1710  145.5420 C   0  0  2  0  0  3  0  0  0  0  0  0
  192.3820  173.0880  142.4710 C   0  0  0  0  0  1  0  0  0  0  0  0
  189.3720  175.1020  145.5610 C   0  0  2  0  0  3  0  0  0  0  0  0
  1 21  2  0  0  0  0
  1 16  1  0  0  0  0
  2  8  1  0  0  0  0
  3 17  1  0  0  0  0
  5 27  1  6  0  0  0
  5 24  1  0  0  0  0
  6  1  1  0  0  0  0
  8 14  1  0  0  0  0
  8  7  1  1  0  0  0
  9 18  1  1  0  0  0
  9 14  1  0  0  0  0
 10  8  1  0  0  0  0
 11 15  2  0  0  0  0
 12 24  1  0  0  0  0
 12 28  1  0  0  0  0
 13  9  1  0  0  0  0
 15 23  1  0  0  0  0
 15 19  1  0  0  0  0
 16 20  2  0  0  0  0
 17  5  1  0  0  0  0
 17 25  1  0  0  0  0
 19 25  1  0  0  0  0
 20  4  1  0  0  0  0
 21 22  1  0  0  0  0
 22  4  2  0  0  0  0
 23  6  1  0  0  0  0
 24 26  1  0  0  0  0
 25 12  1  0  0  0  0
 26 13  1  0  0  0  0
 26 10  1  0  0  0  0
 28 16  1  0  0  0  0
 28 10  1  0  0  0  0
M  END
>  <MODEL>
2

>  <REMARK>
 VINA RESULT:      -8.2      1.664      2.262
  Name = 
  0 active torsions:
  status: ('A' for Active; 'I' for Inactive)
                            x       y       z     vdW  Elec       q    Type
                         _______ _______ _______ _____ _____    ______ ____

>  <TORSDO>
F 0

$$$$
=
 OpenBabel11112417433D

 28 32  0  0  1  0  0  0  0  0999 V2000
  190.6560  174.8370  144.4820 C   0  0  0  0  0  0  0  0  0  0  0  0
  188.1830  175.8360  146.3290 F   0  0  0  0  0  0  0  0  0  0  0  0
  187.0660  177.5400  140.1260 C   0  0  0  0  0  1  0  0  0  0  0  0
  192.9820  176.3500  144.9150 C   0  0  0  0  0  3  0  0  0  0  0  0
  186.3540  177.4990  142.5110 C   0  0  2  0  0  3  0  0  0  0  0  0
  189.4730  173.9410  144.2520 C   0  0  0  0  0  2  0  0  0  0  0  0
  189.8630  177.1700  147.3120 C   0  0  0  0  0  1  0  0  0  0  0  0
  188.5580  177.1530  146.5390 C   0  0  1  0  0  0  0  0  0  0  0  0
  186.1710  177.8850  146.6890 C   0  0  1  0  0  3  0  0  0  0  0  0
  188.7360  177.9160  145.1930 C   0  0  2  0  0  3  0  0  0  0  0  0
  187.4630  173.4560  141.6940 O   0  0  0  0  0  0  0  0  0  0  0  0
  188.2100  176.3820  143.4050 C   0  0  1  0  0  3  0  0  0  0  0  0
  186.3150  178.7730  145.4650 C   0  0  0  0  0  2  0  0  0  0  0  0
  187.5040  177.8230  147.4160 C   0  0  0  0  0  2  0  0  0  0  0  0
  188.5890  173.9650  141.9350 C   0  0  0  0  0  0  0  0  0  0  0  0
  190.6020  176.2580  144.4060 C   0  0  0  0  0  0  0  0  0  0  0  0
  186.9930  176.7030  141.3870 C   0  0  2  0  0  3  0  0  0  0  0  0
  185.2040  178.4200  147.5370 O   0  0  0  0  0  1  0  0  0  0  0  0
  188.9270  175.2110  141.4020 O   0  0  0  0  0  0  0  0  0  0  0  0
  191.7780  176.9900  144.6170 C   0  0  0  0  0  3  0  0  0  0  0  0
  191.8720  174.2110  144.7840 C   0  0  0  0  0  3  0  0  0  0  0  0
  193.0280  174.9610  145.0010 C   0  0  0  0  0  3  0  0  0  0  0  0
  189.5290  173.2850  142.8740 C   0  0  0  0  0  2  0  0  0  0  0  0
  186.9710  177.0750  143.7670 N   0  0  1  0  0  0  0  0  0  0  0  0
  188.3780  176.4310  141.9020 C   0  0  2  0  0  3  0  0  0  0  0  0
  187.4000  178.2560  144.5170 C   0  0  2  0  0  3  0  0  0  0  0  0
  184.8620  177.2250  142.5520 C   0  0  0  0  0  1  0  0  0  0  0  0
  189.3660  177.0770  144.0900 C   0  0  2  0  0  3  0  0  0  0  0  0
  1 21  1  0  0  0  0
  2  8  1  0  0  0  0
  3 17  1  0  0  0  0
  4 22  1  0  0  0  0
  5 27  1  1  0  0  0
  5 24  1  0  0  0  0
  6  1  1  0  0  0  0
  8  7  1  1  0  0  0
  8 14  1  0  0  0  0
  9 14  1  0  0  0  0
  9 18  1  1  0  0  0
 10  8  1  0  0  0  0
 11 15  2  0  0  0  0
 12 24  1  0  0  0  0
 12 28  1  0  0  0  0
 13  9  1  0  0  0  0
 15 23  1  0  0  0  0
 16  1  2  0  0  0  0
 16 20  1  0  0  0  0
 17 25  1  0  0  0  0
 17  5  1  0  0  0  0
 19 25  1  0  0  0  0
 19 15  1  0  0  0  0
 20  4  2  0  0  0  0
 21 22  2  0  0  0  0
 23  6  1  0  0  0  0
 24 26  1  0  0  0  0
 25 12  1  0  0  0  0
 26 10  1  0  0  0  0
 26 13  1  0  0  0  0
 28 16  1  0  0  0  0
 28 10  1  0  0  0  0
M  END
>  <MODEL>
3

>  <REMARK>
 VINA RESULT:      -8.1      2.022      5.088
  Name = 
  0 active torsions:
  status: ('A' for Active; 'I' for Inactive)
                            x       y       z     vdW  Elec       q    Type
                         _______ _______ _______ _____ _____    ______ ____

>  <TORSDO>
F 0

$$$$
=
 OpenBabel11112417433D

 28 32  0  0  1  0  0  0  0  0999 V2000
  188.4160  176.5300  144.5140 C   0  0  0  0  0  0  0  0  0  0  0  0
  188.9410  173.4880  143.5130 F   0  0  0  0  0  0  0  0  0  0  0  0
  194.5360  176.0260  145.7240 C   0  0  0  0  0  1  0  0  0  0  0  0
  187.9810  178.2910  142.3700 C   0  0  0  0  0  3  0  0  0  0  0  0
  193.2770  174.1200  144.7340 C   0  0  2  0  0  3  0  0  0  0  0  0
  188.5680  175.6340  145.7100 C   0  0  0  0  0  2  0  0  0  0  0  0
  188.3340  174.4010  141.4240 C   0  0  0  0  0  1  0  0  0  0  0  0
  189.4260  173.7360  142.2390 C   0  0  1  0  0  0  0  0  0  0  0  0
  190.8600  171.6880  142.3080 C   0  0  1  0  0  3  0  0  0  0  0  0
  190.6840  174.6520  142.2770 C   0  0  2  0  0  3  0  0  0  0  0  0
  190.8680  175.3420  148.0430 O   0  0  0  0  0  0  0  0  0  0  0  0
  191.1700  175.1370  144.5910 C   0  0  1  0  0  3  0  0  0  0  0  0
  192.1300  172.5140  142.1940 C   0  0  0  0  0  2  0  0  0  0  0  0
  189.7380  172.4000  141.5710 C   0  0  0  0  0  2  0  0  0  0  0  0
  190.5020  176.1690  147.1670 C   0  0  0  0  0  0  0  0  0  0  0  0
  189.3470  176.5800  143.4370 C   0  0  0  0  0  0  0  0  0  0  0  0
  193.2400  175.2410  145.7570 C   0  0  2  0  0  3  0  0  0  0  0  0
  191.0700  170.4350  141.7360 O   0  0  0  0  0  1  0  0  0  0  0  0
  191.4470  176.7910  146.3470 O   0  0  0  0  0  0  0  0  0  0  0  0
  189.1110  177.4740  142.3830 C   0  0  0  0  0  3  0  0  0  0  0  0
  187.2850  177.3550  144.4830 C   0  0  0  0  0  3  0  0  0  0  0  0
  187.0660  178.2300  143.4190 C   0  0  0  0  0  3  0  0  0  0  0  0
  189.0480  176.4130  146.9320 C   0  0  0  0  0  2  0  0  0  0  0  0
  191.9180  173.9290  144.2300 N   0  0  1  0  0  0  0  0  0  0  0  0
  192.1060  176.1040  145.2820 C   0  0  2  0  0  3  0  0  0  0  0  0
  191.9420  173.9210  142.7670 C   0  0  2  0  0  3  0  0  0  0  0  0
  193.7670  172.8420  145.3880 C   0  0  0  0  0  1  0  0  0  0  0  0
  190.6120  175.7520  143.3270 C   0  0  2  0  0  3  0  0  0  0  0  0
  1  6  1  0  0  0  0
  3 17  1  0  0  0  0
  4 20  2  0  0  0  0
  4 22  1  0  0  0  0
  5 27  1  1  0  0  0
  5 17  1  0  0  0  0
  6 23  1  0  0  0  0
  8  7  1  6  0  0  0
  8 10  1  0  0  0  0
  8  2  1  0  0  0  0
  9 18  1  6  0  0  0
 10 26  1  0  0  0  0
 10 28  1  0  0  0  0
 12 25  1  0  0  0  0
 13  9  1  0  0  0  0
 13 26  1  0  0  0  0
 14  8  1  0  0  0  0
 14  9  1  0  0  0  0
 15 11  2  0  0  0  0
 16  1  2  0  0  0  0
 19 15  1  0  0  0  0
 20 16  1  0  0  0  0
 21  1  1  0  0  0  0
 22 21  2  0  0  0  0
 23 15  1  0  0  0  0
 24 12  1  0  0  0  0
 24  5  1  0  0  0  0
 25 17  1  0  0  0  0
 25 19  1  0  0  0  0
 26 24  1  0  0  0  0
 28 16  1  0  0  0  0
 28 12  1  0  0  0  0
M  END
>  <MODEL>
4

>  <REMARK>
 VINA RESULT:      -7.8      2.676      5.509
  Name = 
  0 active torsions:
  status: ('A' for Active; 'I' for Inactive)
                            x       y       z     vdW  Elec       q    Type
                         _______ _______ _______ _____ _____    ______ ____

>  <TORSDO>
F 0

$$$$
=
 OpenBabel11112417433D

 28 32  0  0  1  0  0  0  0  0999 V2000
  188.7120  176.1100  144.9910 C   0  0  0  0  0  0  0  0  0  0  0  0
  191.7360  176.9900  144.2090 F   0  0  0  0  0  0  0  0  0  0  0  0
  190.0670  171.7090  140.7520 C   0  0  0  0  0  1  0  0  0  0  0  0
  188.5660  174.9870  147.5610 C   0  0  0  0  0  3  0  0  0  0  0  0
  191.7370  173.4570  141.3450 C   0  0  2  0  0  3  0  0  0  0  0  0
  188.7030  176.7660  143.6400 C   0  0  0  0  0  2  0  0  0  0  0  0
  192.1430  176.4600  146.4720 C   0  0  0  0  0  1  0  0  0  0  0  0
  192.4540  176.1310  145.0250 C   0  0  1  0  0  0  0  0  0  0  0  0
  194.3440  176.0400  143.3880 C   0  0  1  0  0  3  0  0  0  0  0  0
  192.0970  174.6430  144.7370 C   0  0  2  0  0  3  0  0  0  0  0  0
  188.1570  175.6610  140.5900 O   0  0  0  0  0  0  0  0  0  0  0  0
  190.4750  174.6090  142.9490 C   0  0  1  0  0  3  0  0  0  0  0  0
  194.1490  174.5490  143.1720 C   0  0  0  0  0  2  0  0  0  0  0  0
  193.9420  176.3910  144.8120 C   0  0  0  0  0  2  0  0  0  0  0  0
  187.9640  175.3000  141.7810 C   0  0  0  0  0  0  0  0  0  0  0  0
  189.5830  175.0410  145.3490 C   0  0  0  0  0  0  0  0  0  0  0  0
  190.2720  173.1790  141.0600 C   0  0  2  0  0  3  0  0  0  0  0  0
  195.6830  176.3660  143.1900 O   0  0  0  0  0  1  0  0  0  0  0  0
  188.2580  173.9930  142.1760 O   0  0  0  0  0  0  0  0  0  0  0  0
  189.4850  174.4930  146.6340 C   0  0  0  0  0  3  0  0  0  0  0  0
  187.7980  176.5960  145.9340 C   0  0  0  0  0  3  0  0  0  0  0  0
  187.7250  176.0400  147.2120 C   0  0  0  0  0  3  0  0  0  0  0  0
  187.5180  176.2960  142.8000 C   0  0  0  0  0  2  0  0  0  0  0  0
  191.8050  174.5290  142.3370 N   0  0  1  0  0  0  0  0  0  0  0  0
  189.5970  173.5300  142.3550 C   0  0  2  0  0  3  0  0  0  0  0  0
  192.6990  174.1260  143.4230 C   0  0  2  0  0  3  0  0  0  0  0  0
  192.4350  173.8920  140.0700 C   0  0  0  0  0  1  0  0  0  0  0  0
  190.6210  174.4110  144.4410 C   0  0  2  0  0  3  0  0  0  0  0  0
  1 16  2  0  0  0  0
  1 21  1  0  0  0  0
  2  8  1  0  0  0  0
  3 17  1  0  0  0  0
  5 27  1  6  0  0  0
  5 24  1  0  0  0  0
  6  1  1  0  0  0  0
  8  7  1  1  0  0  0
  9 18  1  1  0  0  0
  9 14  1  0  0  0  0
 10  8  1  0  0  0  0
 11 15  2  0  0  0  0
 12 28  1  0  0  0  0
 13  9  1  0  0  0  0
 13 26  1  0  0  0  0
 14  8  1  0  0  0  0
 15 19  1  0  0  0  0
 15 23  1  0  0  0  0
 16 20  1  0  0  0  0
 17  5  1  0  0  0  0
 17 25  1  0  0  0  0
 19 25  1  0  0  0  0
 20  4  2  0  0  0  0
 21 22  2  0  0  0  0
 22  4  1  0  0  0  0
 23  6  1  0  0  0  0
 24 12  1  0  0  0  0
 24 26  1  0  0  0  0
 25 12  1  0  0  0  0
 26 10  1  0  0  0  0
 28 10  1  0  0  0  0
 28 16  1  0  0  0  0
M  END
>  <MODEL>
5

>  <REMARK>
 VINA RESULT:      -7.8      2.318      3.561
  Name = 
  0 active torsions:
  status: ('A' for Active; 'I' for Inactive)
                            x       y       z     vdW  Elec       q    Type
                         _______ _______ _______ _____ _____    ______ ____

>  <TORSDO>
F 0

$$$$
=
 OpenBabel11112417433D

 28 32  0  0  1  0  0  0  0  0999 V2000
  190.4120  175.2010  143.5260 C   0  0  0  0  0  0  0  0  0  0  0  0
  188.5940  177.2450  141.7810 F   0  0  0  0  0  0  0  0  0  0  0  0
  186.1000  176.7380  147.7940 C   0  0  0  0  0  1  0  0  0  0  0  0
  190.0840  172.5330  142.7140 C   0  0  0  0  0  3  0  0  0  0  0  0
  186.0160  177.7020  145.5000 C   0  0  2  0  0  3  0  0  0  0  0  0
  190.6920  176.6100  143.9640 C   0  0  0  0  0  2  0  0  0  0  0  0
  188.1910  175.3030  140.5020 C   0  0  0  0  0  1  0  0  0  0  0  0
  187.5860  176.3840  141.3770 C   0  0  1  0  0  0  0  0  0  0  0  0
  185.9140  178.2430  141.3360 C   0  0  1  0  0  3  0  0  0  0  0  0
  186.8730  175.7310  142.5980 C   0  0  2  0  0  3  0  0  0  0  0  0
  190.0660  178.2910  146.7210 O   0  0  0  0  0  0  0  0  0  0  0  0
  187.8880  176.6160  144.6010 C   0  0  1  0  0  3  0  0  0  0  0  0
  185.0830  177.5850  142.4240 C   0  0  0  0  0  2  0  0  0  0  0  0
  186.5990  177.1640  140.5150 C   0  0  0  0  0  2  0  0  0  0  0  0
  190.1110  177.0960  146.3250 C   0  0  0  0  0  0  0  0  0  0  0  0
  189.1040  174.6450  143.4280 C   0  0  0  0  0  0  0  0  0  0  0  0
  186.9200  177.3160  146.6570 C   0  0  2  0  0  3  0  0  0  0  0  0
  185.0830  178.9980  140.5110 O   0  0  0  0  0  1  0  0  0  0  0  0
  189.0940  176.2030  146.6680 O   0  0  0  0  0  0  0  0  0  0  0  0
  188.9680  173.3090  143.0290 C   0  0  0  0  0  3  0  0  0  0  0  0
  191.5220  174.4090  143.2030 C   0  0  0  0  0  3  0  0  0  0  0  0
  191.3600  173.0830  142.7990 C   0  0  0  0  0  3  0  0  0  0  0  0
  191.1990  176.6560  145.4030 C   0  0  0  0  0  2  0  0  0  0  0  0
  186.7600  177.4870  144.2600 N   0  0  1  0  0  0  0  0  0  0  0  0
  187.7990  176.2500  146.0670 C   0  0  2  0  0  3  0  0  0  0  0  0
  185.9400  176.7030  143.3350 C   0  0  2  0  0  3  0  0  0  0  0  0
  185.6250  179.1630  145.6180 C   0  0  0  0  0  1  0  0  0  0  0  0
  187.8130  175.3740  143.7410 C   0  0  2  0  0  3  0  0  0  0  0  0
  1  6  1  0  0  0  0
  4 22  2  0  0  0  0
  4 20  1  0  0  0  0
  5 27  1  1  0  0  0
  5 17  1  0  0  0  0
  6 23  1  0  0  0  0
  8  7  1  6  0  0  0
  8  2  1  0  0  0  0
  8 10  1  0  0  0  0
  9 18  1  6  0  0  0
  9 13  1  0  0  0  0
 10 26  1  0  0  0  0
 10 28  1  0  0  0  0
 12 25  1  0  0  0  0
 13 26  1  0  0  0  0
 14  9  1  0  0  0  0
 14  8  1  0  0  0  0
 15 19  1  0  0  0  0
 15 11  2  0  0  0  0
 16  1  1  0  0  0  0
 16 28  1  0  0  0  0
 17  3  1  0  0  0  0
 20 16  2  0  0  0  0
 21  1  2  0  0  0  0
 22 21  1  0  0  0  0
 23 15  1  0  0  0  0
 24 12  1  0  0  0  0
 24  5  1  0  0  0  0
 25 17  1  0  0  0  0
 25 19  1  0  0  0  0
 26 24  1  0  0  0  0
 28 12  1  0  0  0  0
M  END
>  <MODEL>
6

>  <REMARK>
 VINA RESULT:      -7.7      1.879      6.258
  Name = 
  0 active torsions:
  status: ('A' for Active; 'I' for Inactive)
                            x       y       z     vdW  Elec       q    Type
                         _______ _______ _______ _____ _____    ______ ____

>  <TORSDO>
F 0

$$$$
=
 OpenBabel11112417433D

 28 32  0  0  1  0  0  0  0  0999 V2000
  190.7770  174.4930  141.7030 C   0  0  0  0  0  0  0  0  0  0  0  0
  188.9400  177.1670  141.7510 F   0  0  0  0  0  0  0  0  0  0  0  0
  188.9480  174.4490  147.6880 C   0  0  0  0  0  1  0  0  0  0  0  0
  189.5580  172.3960  140.2880 C   0  0  0  0  0  3  0  0  0  0  0  0
  188.1980  176.2530  146.1450 C   0  0  2  0  0  3  0  0  0  0  0  0
  191.5190  175.5900  142.4100 C   0  0  0  0  0  2  0  0  0  0  0  0
  187.6390  175.9260  140.2240 C   0  0  0  0  0  1  0  0  0  0  0  0
  187.6880  176.6010  141.5810 C   0  0  1  0  0  0  0  0  0  0  0  0
  186.6050  178.4170  142.9170 C   0  0  1  0  0  3  0  0  0  0  0  0
  187.3790  175.5580  142.6970 C   0  0  2  0  0  3  0  0  0  0  0  0
  192.4210  176.0630  145.5380 O   0  0  0  0  0  0  0  0  0  0  0  0
  189.2680  175.5070  144.1980 C   0  0  1  0  0  3  0  0  0  0  0  0
  186.1370  177.4290  143.9720 C   0  0  0  0  0  2  0  0  0  0  0  0
  186.6480  177.7170  141.5680 C   0  0  0  0  0  2  0  0  0  0  0  0
  192.0340  175.1260  144.7910 C   0  0  0  0  0  0  0  0  0  0  0  0
  189.4450  174.1010  142.0230 C   0  0  0  0  0  0  0  0  0  0  0  0
  189.3670  175.3830  146.5700 C   0  0  2  0  0  3  0  0  0  0  0  0
  185.7130  179.4860  142.8570 O   0  0  0  0  0  1  0  0  0  0  0  0
  191.0560  174.2320  145.2340 O   0  0  0  0  0  0  0  0  0  0  0  0
  188.8630  173.0460  141.3080 C   0  0  0  0  0  3  0  0  0  0  0  0
  191.4600  173.8310  140.6740 C   0  0  0  0  0  3  0  0  0  0  0  0
  190.8550  172.7900  139.9690 C   0  0  0  0  0  3  0  0  0  0  0  0
  192.5440  175.0270  143.3920 C   0  0  0  0  0  2  0  0  0  0  0  0
  188.3280  176.5070  144.7100 N   0  0  1  0  0  0  0  0  0  0  0  0
  189.6780  174.5930  145.3310 C   0  0  2  0  0  3  0  0  0  0  0  0
  187.0570  176.2080  144.0500 C   0  0  2  0  0  3  0  0  0  0  0  0
  188.2290  177.5650  146.9050 C   0  0  0  0  0  1  0  0  0  0  0  0
  188.5820  174.7190  143.1040 C   0  0  2  0  0  3  0  0  0  0  0  0
  1 16  1  0  0  0  0
  1  6  1  0  0  0  0
  4 20  1  0  0  0  0
  5 17  1  0  0  0  0
  5 27  1  1  0  0  0
  6 23  1  0  0  0  0
  8  7  1  6  0  0  0
  8  2  1  0  0  0  0
  8 10  1  0  0  0  0
  9 18  1  6  0  0  0
  9 13  1  0  0  0  0
 10 28  1  0  0  0  0
 10 26  1  0  0  0  0
 12 24  1  0  0  0  0
 12 25  1  0  0  0  0
 13 26  1  0  0  0  0
 14  8  1  0  0  0  0
 14  9  1  0  0  0  0
 15 19  1  0  0  0  0
 15 11  2  0  0  0  0
 16 28  1  0  0  0  0
 17  3  1  0  0  0  0
 19 25  1  0  0  0  0
 20 16  2  0  0  0  0
 21  1  2  0  0  0  0
 22  4  2  0  0  0  0
 22 21  1  0  0  0  0
 23 15  1  0  0  0  0
 24  5  1  0  0  0  0
 25 17  1  0  0  0  0
 26 24  1  0  0  0  0
 28 12  1  0  0  0  0
M  END
>  <MODEL>
7

>  <REMARK>
 VINA RESULT:      -7.7      1.888      6.251
  Name = 
  0 active torsions:
  status: ('A' for Active; 'I' for Inactive)
                            x       y       z     vdW  Elec       q    Type
                         _______ _______ _______ _____ _____    ______ ____

>  <TORSDO>
F 0

$$$$
=
 OpenBabel11112417433D

 28 32  0  0  1  0  0  0  0  0999 V2000
  192.2420  174.6430  145.1390 C   0  0  0  0  0  0  0  0  0  0  0  0
  189.0640  175.2480  144.8900 F   0  0  0  0  0  0  0  0  0  0  0  0
  191.3500  173.3070  139.0900 C   0  0  0  0  0  1  0  0  0  0  0  0
  193.7500  176.9960  145.4130 C   0  0  0  0  0  3  0  0  0  0  0  0
  189.4550  174.0650  140.5150 C   0  0  2  0  0  3  0  0  0  0  0  0
  191.4940  173.3420  145.0690 C   0  0  0  0  0  2  0  0  0  0  0  0
  189.7570  177.4420  145.4120 C   0  0  0  0  0  1  0  0  0  0  0  0
  189.1040  176.5370  144.3840 C   0  0  1  0  0  0  0  0  0  0  0  0
  186.9620  176.1940  143.1400 C   0  0  1  0  0  3  0  0  0  0  0  0
  189.9030  176.5990  143.0490 C   0  0  2  0  0  3  0  0  0  0  0  0
  191.2950  170.9640  142.8050 O   0  0  0  0  0  0  0  0  0  0  0  0
  190.6300  174.3590  142.5210 C   0  0  1  0  0  3  0  0  0  0  0  0
  187.6510  176.3970  141.8010 C   0  0  0  0  0  2  0  0  0  0  0  0
  187.6730  177.0280  144.1940 C   0  0  0  0  0  2  0  0  0  0  0  0
  192.0350  171.9410  143.0950 C   0  0  0  0  0  0  0  0  0  0  0  0
  192.0730  175.7070  144.2070 C   0  0  0  0  0  0  0  0  0  0  0  0
  190.6950  173.1910  140.4510 C   0  0  2  0  0  3  0  0  0  0  0  0
  185.6330  176.6020  143.0440 O   0  0  0  0  0  1  0  0  0  0  0  0
  192.4610  172.8220  142.0980 O   0  0  0  0  0  0  0  0  0  0  0  0
  192.8440  176.8670  144.3610 C   0  0  0  0  0  3  0  0  0  0  0  0
  193.1550  174.7900  146.1910 C   0  0  0  0  0  3  0  0  0  0  0  0
  193.9040  175.9590  146.3300 C   0  0  0  0  0  3  0  0  0  0  0  0
  192.3750  172.2220  144.5210 C   0  0  0  0  0  2  0  0  0  0  0  0
  189.3240  174.5570  141.8860 N   0  0  1  0  0  0  0  0  0  0  0  0
  191.5890  173.7840  141.5030 C   0  0  2  0  0  3  0  0  0  0  0  0
  189.1300  176.0070  141.8620 C   0  0  2  0  0  3  0  0  0  0  0  0
  188.2310  173.2500  140.1420 C   0  0  0  0  0  1  0  0  0  0  0  0
  191.1280  175.6960  143.0210 C   0  0  2  0  0  3  0  0  0  0  0  0
  1 21  1  0  0  0  0
  3 17  1  0  0  0  0
  4 22  1  0  0  0  0
  5 27  1  1  0  0  0
  5 24  1  0  0  0  0
  6  1  1  0  0  0  0
  8  2  1  0  0  0  0
  8  7  1  1  0  0  0
  9 18  1  6  0  0  0
  9 14  1  0  0  0  0
 10  8  1  0  0  0  0
 11 15  2  0  0  0  0
 12 28  1  0  0  0  0
 13 26  1  0  0  0  0
 13  9  1  0  0  0  0
 14  8  1  0  0  0  0
 15 23  1  0  0  0  0
 16 20  1  0  0  0  0
 16  1  2  0  0  0  0
 17  5  1  0  0  0  0
 17 25  1  0  0  0  0
 19 15  1  0  0  0  0
 20  4  2  0  0  0  0
 21 22  2  0  0  0  0
 23  6  1  0  0  0  0
 24 12  1  0  0  0  0
 25 19  1  0  0  0  0
 25 12  1  0  0  0  0
 26 24  1  0  0  0  0
 26 10  1  0  0  0  0
 28 10  1  0  0  0  0
 28 16  1  0  0  0  0
M  END
>  <MODEL>
8

>  <REMARK>
 VINA RESULT:      -7.3      2.575      6.007
  Name = 
  0 active torsions:
  status: ('A' for Active; 'I' for Inactive)
                            x       y       z     vdW  Elec       q    Type
                         _______ _______ _______ _____ _____    ______ ____

>  <TORSDO>
F 0

$$$$
=
 OpenBabel11112417433D

 28 32  0  0  1  0  0  0  0  0999 V2000
  185.9750  177.6230  144.9950 C   0  0  0  0  0  0  0  0  0  0  0  0
  186.6660  175.4050  142.7300 F   0  0  0  0  0  0  0  0  0  0  0  0
  192.0720  176.7730  146.1250 C   0  0  0  0  0  1  0  0  0  0  0  0
  185.5260  180.1640  143.8880 C   0  0  0  0  0  3  0  0  0  0  0  0
  190.9300  175.5110  144.3090 C   0  0  2  0  0  3  0  0  0  0  0  0
  186.1300  176.2800  145.6480 C   0  0  0  0  0  2  0  0  0  0  0  0
  186.0810  177.1660  141.2710 C   0  0  0  0  0  1  0  0  0  0  0  0
  187.1770  176.2260  141.7380 C   0  0  1  0  0  0  0  0  0  0  0  0
  188.6990  174.4170  140.9220 C   0  0  1  0  0  3  0  0  0  0  0  0
  188.3910  177.0530  142.2550 C   0  0  2  0  0  3  0  0  0  0  0  0
  188.3700  175.0000  147.6890 O   0  0  0  0  0  0  0  0  0  0  0  0
  188.7850  176.4240  144.5510 C   0  0  1  0  0  3  0  0  0  0  0  0
  189.9330  175.2350  141.2630 C   0  0  0  0  0  2  0  0  0  0  0  0
  187.5680  175.3600  140.5450 C   0  0  0  0  0  2  0  0  0  0  0  0
  187.9940  176.1290  147.2780 C   0  0  0  0  0  0  0  0  0  0  0  0
  186.9350  178.1900  144.1080 C   0  0  0  0  0  0  0  0  0  0  0  0
  190.8120  176.0290  145.7310 C   0  0  2  0  0  3  0  0  0  0  0  0
  188.9820  173.5770  139.8470 O   0  0  0  0  0  1  0  0  0  0  0  0
  188.9340  177.0830  146.8830 O   0  0  0  0  0  0  0  0  0  0  0  0
  186.6910  179.4630  143.5760 C   0  0  0  0  0  3  0  0  0  0  0  0
  184.8090  178.3390  145.2950 C   0  0  0  0  0  3  0  0  0  0  0  0
  184.5840  179.6010  144.7450 C   0  0  0  0  0  3  0  0  0  0  0  0
  186.5380  176.4160  147.1130 C   0  0  0  0  0  2  0  0  0  0  0  0
  189.5960  175.5400  143.7090 N   0  0  1  0  0  0  0  0  0  0  0  0
  189.6550  176.9850  145.6550 C   0  0  2  0  0  3  0  0  0  0  0  0
  189.6650  176.2110  142.4110 C   0  0  2  0  0  3  0  0  0  0  0  0
  191.4560  174.0880  144.3210 C   0  0  0  0  0  1  0  0  0  0  0  0
  188.2380  177.5400  143.6890 C   0  0  2  0  0  3  0  0  0  0  0  0
  1 21  1  0  0  0  0
  1  6  1  0  0  0  0
  4 22  1  0  0  0  0
  5 27  1  1  0  0  0
  5 17  1  0  0  0  0
  6 23  1  0  0  0  0
  8  7  1  6  0  0  0
  8 10  1  0  0  0  0
  8  2  1  0  0  0  0
  9 18  1  6  0  0  0
  9 13  1  0  0  0  0
 10 26  1  0  0  0  0
 10 28  1  0  0  0  0
 12 25  1  0  0  0  0
 13 26  1  0  0  0  0
 14  9  1  0  0  0  0
 14  8  1  0  0  0  0
 15 11  2  0  0  0  0
 16  1  2  0  0  0  0
 17  3  1  0  0  0  0
 19 15  1  0  0  0  0
 20  4  2  0  0  0  0
 20 16  1  0  0  0  0
 22 21  2  0  0  0  0
 23 15  1  0  0  0  0
 24  5  1  0  0  0  0
 24 12  1  0  0  0  0
 25 17  1  0  0  0  0
 25 19  1  0  0  0  0
 26 24  1  0  0  0  0
 28 16  1  0  0  0  0
 28 12  1  0  0  0  0
M  END
>  <MODEL>
9

>  <REMARK>
 VINA RESULT:      -7.3      1.995      4.693
  Name = 
  0 active torsions:
  status: ('A' for Active; 'I' for Inactive)
                            x       y       z     vdW  Elec       q    Type
                         _______ _______ _______ _____ _____    ______ ____

>  <TORSDO>
F 0

$$$$
