=
 OpenBabel11112416163D

 30 35  0  0  1  0  0  0  0  0999 V2000
  187.1530  176.7550  144.3450 C   0  0  2  0  0  3  0  0  0  0  0  0
  185.5700  177.9860  145.9270 C   0  0  0  0  0  0  0  0  0  0  0  0
  190.0700  176.7510  147.4860 N   0  0  0  0  0  2  0  0  0  0  0  0
  188.6150  176.3290  144.1500 C   0  0  2  0  0  3  0  0  0  0  0  0
  186.7900  177.5550  143.1050 C   0  0  0  0  0  2  0  0  0  0  0  0
  187.8960  174.7830  140.9140 O   0  0  0  0  0  0  0  0  0  0  0  0
  191.2210  175.9130  143.1120 C   0  0  1  0  0  3  0  0  0  0  0  0
  187.8500  175.5420  141.8710 C   0  0  0  0  0  0  0  0  0  0  0  0
  191.6020  175.9290  144.5990 C   0  0  2  0  0  3  0  0  0  0  0  0
  190.9200  175.7280  146.9780 C   0  0  0  0  0  0  0  0  0  0  0  0
  186.8470  176.6870  141.8350 C   0  0  2  0  0  3  0  0  0  0  0  0
  188.7070  175.2340  143.0840 C   0  0  1  0  0  3  0  0  0  0  0  0
  185.2950  178.6120  147.1470 C   0  0  0  0  0  3  0  0  0  0  0  0
  192.8600  175.3250  144.7340 O   0  0  0  0  0  0  0  0  0  0  0  0
  192.5240  175.6520  142.4140 C   0  0  0  0  0  2  0  0  0  0  0  0
  184.5440  177.8350  145.0020 O   0  0  0  0  0  1  0  0  0  0  0  0
  189.2510  177.1450  146.3570 C   0  0  1  0  0  3  0  0  0  0  0  0
  186.2940  178.7540  148.1110 C   0  0  0  0  0  3  0  0  0  0  0  0
  186.8680  177.5090  145.6510 C   0  0  0  0  0  0  0  0  0  0  0  0
  189.1950  175.9140  145.4850 C   0  0  2  0  0  3  0  0  0  0  0  0
  191.8450  175.2190  147.6630 O   0  0  0  0  0  0  0  0  0  0  0  0
  190.5920  175.3060  145.5830 C   0  0  1  0  0  3  0  0  0  0  0  0
  193.5350  175.6180  143.5400 C   0  0  0  0  0  2  0  0  0  0  0  0
  190.4890  173.4530  143.0550 C   0  0  0  0  0  1  0  0  0  0  0  0
  187.5750  178.2600  147.8690 C   0  0  0  0  0  3  0  0  0  0  0  0
  187.8620  177.6100  146.6640 C   0  0  0  0  0  0  0  0  0  0  0  0
  190.1510  174.8880  142.6750 C   0  0  2  0  0  3  0  0  0  0  0  0
  187.0970  177.5720  140.6190 C   0  0  0  0  0  2  0  0  0  0  0  0
  184.7070  178.2420  140.3680 C   0  0  0  0  0  1  0  0  0  0  0  0
  185.8940  177.5880  139.6880 C   0  0  0  0  0  2  0  0  0  0  0  0
  1  5  1  6  0  0  0
  1 19  1  0  0  0  0
  2 13  1  0  0  0  0
  4  1  1  0  0  0  0
  4 20  1  0  0  0  0
  6  8  2  0  0  0  0
  7  9  1  0  0  0  0
  8 12  1  0  0  0  0
  9 14  1  0  0  0  0
  9 22  1  0  0  0  0
 10  3  1  0  0  0  0
 10 21  2  0  0  0  0
 11  8  1  0  0  0  0
 11  5  1  0  0  0  0
 12  4  1  0  0  0  0
 13 18  2  0  0  0  0
 15  7  1  0  0  0  0
 15 23  1  0  0  0  0
 16  2  1  0  0  0  0
 17 26  1  0  0  0  0
 17  3  1  0  0  0  0
 19  2  2  0  0  0  0
 19 26  1  0  0  0  0
 20 22  1  0  0  0  0
 20 17  1  0  0  0  0
 22 10  1  0  0  0  0
 23 14  1  0  0  0  0
 25 18  1  0  0  0  0
 26 25  2  0  0  0  0
 27 24  1  0  0  0  0
 27 12  1  0  0  0  0
 27  7  1  0  0  0  0
 28 11  1  0  0  0  0
 30 29  1  0  0  0  0
 30 28  1  0  0  0  0
M  END
>  <MODEL>
1

>  <REMARK>
 VINA RESULT:      -8.4      0.000      0.000
  Name = 
  2 active torsions:
  status: ('A' for Active; 'I' for Inactive)
    1  A    between atoms: C_11  and  C_28
    2  A    between atoms: C_28  and  C_30
                            x       y       z     vdW  Elec       q    Type
                         _______ _______ _______ _____ _____    ______ ____

>  <TORSDO>
F 2

$$$$
=
 OpenBabel11112416163D

 30 35  0  0  1  0  0  0  0  0999 V2000
  187.9210  177.6580  145.8200 C   0  0  2  0  0  3  0  0  0  0  0  0
  185.9010  178.6660  147.0150 C   0  0  0  0  0  0  0  0  0  0  0  0
  185.5410  177.4530  142.2600 N   0  0  0  0  0  2  0  0  0  0  0  0
  188.3580  176.9270  144.5420 C   0  0  2  0  0  3  0  0  0  0  0  0
  188.3580  176.7680  146.9710 C   0  0  0  0  0  2  0  0  0  0  0  0
  191.8260  176.6880  145.6800 O   0  0  0  0  0  0  0  0  0  0  0  0
  189.4490  175.0680  142.7000 C   0  0  1  0  0  3  0  0  0  0  0  0
  190.6050  176.7320  145.6890 C   0  0  0  0  0  0  0  0  0  0  0  0
  188.3000  175.5710  141.8140 C   0  0  2  0  0  3  0  0  0  0  0  0
  186.5940  177.3050  141.3150 C   0  0  0  0  0  0  0  0  0  0  0  0
  189.8890  176.6270  147.0280 C   0  0  2  0  0  3  0  0  0  0  0  0
  189.8790  177.0060  144.3850 C   0  0  1  0  0  3  0  0  0  0  0  0
  184.5610  179.0630  147.0380 C   0  0  0  0  0  3  0  0  0  0  0  0
  188.5960  175.2400  140.4840 O   0  0  0  0  0  0  0  0  0  0  0  0
  190.1660  174.0810  141.8240 C   0  0  0  0  0  2  0  0  0  0  0  0
  186.6980  178.9210  148.1250 O   0  0  0  0  0  1  0  0  0  0  0  0
  186.1480  177.1460  143.5400 C   0  0  1  0  0  3  0  0  0  0  0  0
  183.7390  178.8490  145.9300 C   0  0  0  0  0  3  0  0  0  0  0  0
  186.4330  178.0260  145.8760 C   0  0  0  0  0  0  0  0  0  0  0  0
  187.6050  177.4960  143.3600 C   0  0  2  0  0  3  0  0  0  0  0  0
  186.4040  177.3950  140.0740 O   0  0  0  0  0  0  0  0  0  0  0  0
  187.9330  177.0640  141.9330 C   0  0  1  0  0  3  0  0  0  0  0  0
  189.3330  174.0490  140.5610 C   0  0  0  0  0  2  0  0  0  0  0  0
  191.0610  176.9920  142.1590 C   0  0  0  0  0  1  0  0  0  0  0  0
  184.2550  178.2480  144.7830 C   0  0  0  0  0  3  0  0  0  0  0  0
  185.6000  177.8650  144.7330 C   0  0  0  0  0  0  0  0  0  0  0  0
  190.4300  176.1290  143.2440 C   0  0  2  0  0  3  0  0  0  0  0  0
  190.2590  175.3230  147.7250 C   0  0  0  0  0  2  0  0  0  0  0  0
  189.6990  173.5590  146.0520 C   0  0  0  0  0  1  0  0  0  0  0  0
  189.2930  174.2050  147.3620 C   0  0  0  0  0  2  0  0  0  0  0  0
  1 19  1  0  0  0  0
  1  5  1  1  0  0  0
  2 13  1  0  0  0  0
  2 16  1  0  0  0  0
  3 17  1  0  0  0  0
  4  1  1  0  0  0  0
  5 11  1  0  0  0  0
  6  8  2  0  0  0  0
  7 27  1  0  0  0  0
  8 11  1  0  0  0  0
  9 22  1  0  0  0  0
  9  7  1  0  0  0  0
 10 22  1  0  0  0  0
 10  3  1  0  0  0  0
 11 28  1  0  0  0  0
 12  4  1  0  0  0  0
 12  8  1  0  0  0  0
 14 23  1  0  0  0  0
 14  9  1  0  0  0  0
 15  7  1  0  0  0  0
 17 26  1  0  0  0  0
 18 13  2  0  0  0  0
 19  2  2  0  0  0  0
 20 17  1  0  0  0  0
 20  4  1  0  0  0  0
 21 10  2  0  0  0  0
 22 20  1  0  0  0  0
 23 15  1  0  0  0  0
 24 27  1  0  0  0  0
 25 18  1  0  0  0  0
 26 25  2  0  0  0  0
 26 19  1  0  0  0  0
 27 12  1  0  0  0  0
 29 30  1  0  0  0  0
 30 28  1  0  0  0  0
M  END
>  <MODEL>
2

>  <REMARK>
 VINA RESULT:      -8.4      2.023      5.073
  Name = 
  2 active torsions:
  status: ('A' for Active; 'I' for Inactive)
    1  A    between atoms: C_11  and  C_28
    2  A    between atoms: C_28  and  C_30
                            x       y       z     vdW  Elec       q    Type
                         _______ _______ _______ _____ _____    ______ ____

>  <TORSDO>
F 2

$$$$
=
 OpenBabel11112416163D

 30 35  0  0  1  0  0  0  0  0999 V2000
  190.6390  175.3300  143.4470 C   0  0  2  0  0  3  0  0  0  0  0  0
  193.0040  174.3840  143.6320 C   0  0  0  0  0  0  0  0  0  0  0  0
  191.0440  176.7640  147.4660 N   0  0  0  0  0  2  0  0  0  0  0  0
  189.4790  175.9150  144.2640 C   0  0  2  0  0  3  0  0  0  0  0  0
  190.0540  174.1450  142.6960 C   0  0  0  0  0  2  0  0  0  0  0  0
  187.3670  176.2750  141.3000 O   0  0  0  0  0  0  0  0  0  0  0  0
  186.9400  176.4310  145.4170 C   0  0  1  0  0  3  0  0  0  0  0  0
  188.1980  175.8420  142.0840 C   0  0  0  0  0  0  0  0  0  0  0  0
  187.7940  176.9250  146.5930 C   0  0  2  0  0  3  0  0  0  0  0  0
  189.9840  177.7140  147.4550 C   0  0  0  0  0  0  0  0  0  0  0  0
  188.9700  174.5890  141.6970 C   0  0  2  0  0  3  0  0  0  0  0  0
  188.4960  176.6390  143.3400 C   0  0  1  0  0  3  0  0  0  0  0  0
  194.1660  174.1170  144.3640 C   0  0  0  0  0  3  0  0  0  0  0  0
  186.9910  177.7440  147.4020 O   0  0  0  0  0  0  0  0  0  0  0  0
  185.5310  176.6840  145.8700 C   0  0  0  0  0  2  0  0  0  0  0  0
  192.9770  174.0760  142.2780 O   0  0  0  0  0  1  0  0  0  0  0  0
  190.7940  175.9190  146.3160 C   0  0  1  0  0  3  0  0  0  0  0  0
  194.2390  174.4390  145.7200 C   0  0  0  0  0  3  0  0  0  0  0  0
  191.8860  174.9660  144.2640 C   0  0  0  0  0  0  0  0  0  0  0  0
  190.0370  176.8030  145.3560 C   0  0  2  0  0  3  0  0  0  0  0  0
  189.8210  178.5530  148.3790 O   0  0  0  0  0  0  0  0  0  0  0  0
  189.1150  177.6370  146.2420 C   0  0  1  0  0  3  0  0  0  0  0  0
  185.6950  177.2230  147.2740 C   0  0  0  0  0  2  0  0  0  0  0  0
  187.0850  178.6010  144.0540 C   0  0  0  0  0  1  0  0  0  0  0  0
  193.1560  175.0460  146.3530 C   0  0  0  0  0  3  0  0  0  0  0  0
  191.9940  175.3420  145.6320 C   0  0  0  0  0  0  0  0  0  0  0  0
  187.1980  177.0820  144.0410 C   0  0  2  0  0  3  0  0  0  0  0  0
  188.0100  173.4340  141.4360 C   0  0  0  0  0  2  0  0  0  0  0  0
  188.4920  173.8380  139.0220 C   0  0  0  0  0  1  0  0  0  0  0  0
  188.2790  172.7810  140.0880 C   0  0  0  0  0  2  0  0  0  0  0  0
  1  5  1  1  0  0  0
  1 19  1  0  0  0  0
  1  4  1  0  0  0  0
  2 19  2  0  0  0  0
  2 13  1  0  0  0  0
  4 20  1  0  0  0  0
  6  8  2  0  0  0  0
  7 15  1  0  0  0  0
  7  9  1  0  0  0  0
  8 12  1  0  0  0  0
  9 14  1  0  0  0  0
 10  3  1  0  0  0  0
 10 21  2  0  0  0  0
 11  8  1  0  0  0  0
 11  5  1  0  0  0  0
 12 27  1  0  0  0  0
 12  4  1  0  0  0  0
 13 18  2  0  0  0  0
 15 23  1  0  0  0  0
 16  2  1  0  0  0  0
 17  3  1  0  0  0  0
 18 25  1  0  0  0  0
 19 26  1  0  0  0  0
 20 22  1  0  0  0  0
 20 17  1  0  0  0  0
 22  9  1  0  0  0  0
 22 10  1  0  0  0  0
 23 14  1  0  0  0  0
 26 17  1  0  0  0  0
 26 25  2  0  0  0  0
 27 24  1  0  0  0  0
 27  7  1  0  0  0  0
 28 11  1  0  0  0  0
 29 30  1  0  0  0  0
 30 28  1  0  0  0  0
M  END
>  <MODEL>
3

>  <REMARK>
 VINA RESULT:      -8.1      1.908      5.528
  Name = 
  2 active torsions:
  status: ('A' for Active; 'I' for Inactive)
    1  A    between atoms: C_11  and  C_28
    2  A    between atoms: C_28  and  C_30
                            x       y       z     vdW  Elec       q    Type
                         _______ _______ _______ _____ _____    ______ ____

>  <TORSDO>
F 2

$$$$
=
 OpenBabel11112416163D

 30 35  0  0  1  0  0  0  0  0999 V2000
  188.7330  175.3670  142.5320 C   0  0  2  0  0  3  0  0  0  0  0  0
  187.5170  176.0310  140.3850 C   0  0  0  0  0  0  0  0  0  0  0  0
  186.6340  178.5230  144.5350 N   0  0  0  0  0  2  0  0  0  0  0  0
  189.0500  175.8290  143.9610 C   0  0  2  0  0  3  0  0  0  0  0  0
  190.0790  175.1070  141.8770 C   0  0  0  0  0  2  0  0  0  0  0  0
  191.0630  172.8520  144.6430 O   0  0  0  0  0  0  0  0  0  0  0  0
  190.3650  176.5540  146.3660 C   0  0  1  0  0  3  0  0  0  0  0  0
  190.5380  173.7860  144.0540 C   0  0  0  0  0  0  0  0  0  0  0  0
  189.1550  177.4870  146.5150 C   0  0  2  0  0  3  0  0  0  0  0  0
  186.8320  178.0860  145.8750 C   0  0  0  0  0  0  0  0  0  0  0  0
  190.8340  173.9590  142.5710 C   0  0  2  0  0  3  0  0  0  0  0  0
  189.5360  174.6450  144.8010 C   0  0  1  0  0  3  0  0  0  0  0  0
  186.6540  176.8680  139.6730 C   0  0  0  0  0  3  0  0  0  0  0  0
  189.0610  177.8680  147.8620 O   0  0  0  0  0  0  0  0  0  0  0  0
  191.1570  176.7970  147.6180 C   0  0  0  0  0  2  0  0  0  0  0  0
  188.0330  174.9040  139.7570 O   0  0  0  0  0  1  0  0  0  0  0  0
  187.6070  177.7820  143.7570 C   0  0  1  0  0  3  0  0  0  0  0  0
  186.0950  177.9930  140.2810 C   0  0  0  0  0  3  0  0  0  0  0  0
  187.8470  176.3250  141.7240 C   0  0  0  0  0  0  0  0  0  0  0  0
  187.8330  176.5150  144.5440 C   0  0  2  0  0  3  0  0  0  0  0  0
  186.2230  178.5990  146.8490 O   0  0  0  0  0  0  0  0  0  0  0  0
  187.8010  176.9560  146.0060 C   0  0  1  0  0  3  0  0  0  0  0  0
  190.3830  177.8860  148.3280 C   0  0  0  0  0  2  0  0  0  0  0  0
  189.2010  174.4610  147.2920 C   0  0  0  0  0  1  0  0  0  0  0  0
  186.3830  178.2820  141.6140 C   0  0  0  0  0  3  0  0  0  0  0  0
  187.2260  177.4420  142.3500 C   0  0  0  0  0  0  0  0  0  0  0  0
  190.0710  175.0480  146.1880 C   0  0  2  0  0  3  0  0  0  0  0  0
  192.3330  174.1190  142.3440 C   0  0  0  0  0  2  0  0  0  0  0  0
  193.3150  175.9850  143.6780 C   0  0  0  0  0  1  0  0  0  0  0  0
  192.7390  175.5860  142.3330 C   0  0  0  0  0  2  0  0  0  0  0  0
  1  5  1  6  0  0  0
  1  4  1  0  0  0  0
  2 19  1  0  0  0  0
  3 10  1  0  0  0  0
  4 20  1  0  0  0  0
  4 12  1  0  0  0  0
  5 11  1  0  0  0  0
  7  9  1  0  0  0  0
  7 15  1  0  0  0  0
  8  6  2  0  0  0  0
  8 12  1  0  0  0  0
  9 14  1  0  0  0  0
 10 22  1  0  0  0  0
 10 21  2  0  0  0  0
 11  8  1  0  0  0  0
 12 27  1  0  0  0  0
 13 18  1  0  0  0  0
 13  2  2  0  0  0  0
 14 23  1  0  0  0  0
 15 23  1  0  0  0  0
 16  2  1  0  0  0  0
 17  3  1  0  0  0  0
 17 20  1  0  0  0  0
 18 25  2  0  0  0  0
 19 26  2  0  0  0  0
 19  1  1  0  0  0  0
 20 22  1  0  0  0  0
 22  9  1  0  0  0  0
 25 26  1  0  0  0  0
 26 17  1  0  0  0  0
 27  7  1  0  0  0  0
 27 24  1  0  0  0  0
 28 11  1  0  0  0  0
 30 28  1  0  0  0  0
 30 29  1  0  0  0  0
M  END
>  <MODEL>
4

>  <REMARK>
 VINA RESULT:      -8.0      1.766      5.305
  Name = 
  2 active torsions:
  status: ('A' for Active; 'I' for Inactive)
    1  A    between atoms: C_11  and  C_28
    2  A    between atoms: C_28  and  C_30
                            x       y       z     vdW  Elec       q    Type
                         _______ _______ _______ _____ _____    ______ ____

>  <TORSDO>
F 2

$$$$
=
 OpenBabel11112416163D

 30 35  0  0  1  0  0  0  0  0999 V2000
  189.5710  174.7980  141.5560 C   0  0  2  0  0  3  0  0  0  0  0  0
  189.6490  172.6430  140.1870 C   0  0  0  0  0  0  0  0  0  0  0  0
  192.2580  172.9620  144.3460 N   0  0  0  0  0  2  0  0  0  0  0  0
  189.9300  175.4050  142.9200 C   0  0  2  0  0  3  0  0  0  0  0  0
  188.0820  175.0460  141.3760 C   0  0  0  0  0  2  0  0  0  0  0  0
  188.5420  178.6640  142.0100 O   0  0  0  0  0  0  0  0  0  0  0  0
  189.8390  176.7210  145.4300 C   0  0  1  0  0  3  0  0  0  0  0  0
  188.7100  177.4560  142.0800 C   0  0  0  0  0  0  0  0  0  0  0  0
  190.9550  175.7230  145.7720 C   0  0  2  0  0  3  0  0  0  0  0  0
  192.7080  174.1400  145.0070 C   0  0  0  0  0  0  0  0  0  0  0  0
  187.7640  176.5500  141.3050 C   0  0  2  0  0  3  0  0  0  0  0  0
  189.9170  176.9330  142.8360 C   0  0  1  0  0  3  0  0  0  0  0  0
  190.0640  171.3210  140.0020 C   0  0  0  0  0  3  0  0  0  0  0  0
  191.6440  176.2050  146.8940 O   0  0  0  0  0  0  0  0  0  0  0  0
  189.7010  177.5410  146.6810 C   0  0  0  0  0  2  0  0  0  0  0  0
  188.9360  173.2730  139.1740 O   0  0  0  0  0  1  0  0  0  0  0  0
  191.0590  173.3690  143.6410 C   0  0  1  0  0  3  0  0  0  0  0  0
  190.8060  170.6670  140.9860 C   0  0  0  0  0  3  0  0  0  0  0  0
  189.9600  173.3240  141.3820 C   0  0  0  0  0  0  0  0  0  0  0  0
  191.2570  174.8430  143.3810 C   0  0  2  0  0  3  0  0  0  0  0  0
  193.6800  174.1350  145.8060 O   0  0  0  0  0  0  0  0  0  0  0  0
  191.9410  175.3690  144.6410 C   0  0  1  0  0  3  0  0  0  0  0  0
  190.6810  176.9020  147.6400 C   0  0  0  0  0  2  0  0  0  0  0  0
  191.3600  178.4280  144.2630 C   0  0  0  0  0  1  0  0  0  0  0  0
  191.1520  171.3340  142.1600 C   0  0  0  0  0  3  0  0  0  0  0  0
  190.7650  172.6650  142.3530 C   0  0  0  0  0  0  0  0  0  0  0  0
  190.0650  177.6300  144.2020 C   0  0  2  0  0  3  0  0  0  0  0  0
  186.3240  176.7910  141.7410 C   0  0  0  0  0  2  0  0  0  0  0  0
  185.5780  177.6010  143.9800 C   0  0  0  0  0  1  0  0  0  0  0  0
  186.1160  176.4160  143.2010 C   0  0  0  0  0  2  0  0  0  0  0  0
  1  5  1  1  0  0  0
  1  4  1  0  0  0  0
  2 19  1  0  0  0  0
  3 10  1  0  0  0  0
  4 20  1  0  0  0  0
  6  8  2  0  0  0  0
  7  9  1  0  0  0  0
  7 15  1  0  0  0  0
  8 12  1  0  0  0  0
  9 14  1  0  0  0  0
 10 21  2  0  0  0  0
 11  5  1  0  0  0  0
 11 28  1  0  0  0  0
 11  8  1  0  0  0  0
 12  4  1  0  0  0  0
 12 27  1  0  0  0  0
 13  2  2  0  0  0  0
 13 18  1  0  0  0  0
 14 23  1  0  0  0  0
 15 23  1  0  0  0  0
 16  2  1  0  0  0  0
 17  3  1  0  0  0  0
 18 25  2  0  0  0  0
 19  1  1  0  0  0  0
 19 26  2  0  0  0  0
 20 17  1  0  0  0  0
 20 22  1  0  0  0  0
 22 10  1  0  0  0  0
 22  9  1  0  0  0  0
 25 26  1  0  0  0  0
 26 17  1  0  0  0  0
 27 24  1  0  0  0  0
 27  7  1  0  0  0  0
 28 30  1  0  0  0  0
 30 29  1  0  0  0  0
M  END
>  <MODEL>
5

>  <REMARK>
 VINA RESULT:      -7.5      2.213      5.445
  Name = 
  2 active torsions:
  status: ('A' for Active; 'I' for Inactive)
    1  A    between atoms: C_11  and  C_28
    2  A    between atoms: C_28  and  C_30
                            x       y       z     vdW  Elec       q    Type
                         _______ _______ _______ _____ _____    ______ ____

>  <TORSDO>
F 2

$$$$
=
 OpenBabel11112416163D

 30 35  0  0  1  0  0  0  0  0999 V2000
  192.7460  175.3910  144.5460 C   0  0  2  0  0  3  0  0  0  0  0  0
  195.0620  176.4670  144.5070 C   0  0  0  0  0  0  0  0  0  0  0  0
  193.5070  173.9320  140.5880 N   0  0  0  0  0  2  0  0  0  0  0  0
  191.6790  174.7300  143.6610 C   0  0  2  0  0  3  0  0  0  0  0  0
  192.0450  176.5500  145.2370 C   0  0  0  0  0  2  0  0  0  0  0  0
  189.3910  174.2880  146.4800 O   0  0  0  0  0  0  0  0  0  0  0  0
  189.2590  174.0570  142.3470 C   0  0  1  0  0  3  0  0  0  0  0  0
  190.2500  174.7580  145.7480 C   0  0  0  0  0  0  0  0  0  0  0  0
  190.2180  173.5970  141.2400 C   0  0  2  0  0  3  0  0  0  0  0  0
  192.5030  172.9230  140.5420 C   0  0  0  0  0  0  0  0  0  0  0  0
  190.9210  176.0580  146.1660 C   0  0  2  0  0  3  0  0  0  0  0  0
  190.6770  173.9640  144.5280 C   0  0  1  0  0  3  0  0  0  0  0  0
  196.2540  176.7910  143.8520 C   0  0  0  0  0  3  0  0  0  0  0  0
  189.5200  172.7240  140.3920 O   0  0  0  0  0  0  0  0  0  0  0  0
  187.9010  173.7180  141.8030 C   0  0  0  0  0  2  0  0  0  0  0  0
  194.9240  176.7900  145.8520 O   0  0  0  0  0  1  0  0  0  0  0  0
  193.1310  174.7760  141.7050 C   0  0  1  0  0  3  0  0  0  0  0  0
  196.4390  176.4560  142.5100 C   0  0  0  0  0  3  0  0  0  0  0  0
  194.0240  175.8150  143.8110 C   0  0  0  0  0  0  0  0  0  0  0  0
  192.3600  173.8620  142.6250 C   0  0  2  0  0  3  0  0  0  0  0  0
  192.4510  172.0650  139.6230 O   0  0  0  0  0  0  0  0  0  0  0  0
  191.5490  172.9660  141.6920 C   0  0  1  0  0  3  0  0  0  0  0  0
  188.1920  173.1720  140.4230 C   0  0  0  0  0  2  0  0  0  0  0  0
  189.4300  171.9160  143.7520 C   0  0  0  0  0  1  0  0  0  0  0  0
  195.4370  175.7810  141.8140 C   0  0  0  0  0  3  0  0  0  0  0  0
  194.2470  175.4290  142.4590 C   0  0  0  0  0  0  0  0  0  0  0  0
  189.4580  173.4380  143.7480 C   0  0  2  0  0  3  0  0  0  0  0  0
  189.8820  177.1590  146.3420 C   0  0  0  0  0  2  0  0  0  0  0  0
  187.7500  177.3270  145.0570 C   0  0  0  0  0  1  0  0  0  0  0  0
  189.2510  177.5440  145.0130 C   0  0  0  0  0  2  0  0  0  0  0  0
  1  5  1  6  0  0  0
  2 16  1  0  0  0  0
  3 17  1  0  0  0  0
  4 12  1  0  0  0  0
  4  1  1  0  0  0  0
  5 11  1  0  0  0  0
  7 27  1  0  0  0  0
  8 11  1  0  0  0  0
  8  6  2  0  0  0  0
  9 22  1  0  0  0  0
  9  7  1  0  0  0  0
 10  3  1  0  0  0  0
 10 22  1  0  0  0  0
 11 28  1  0  0  0  0
 12  8  1  0  0  0  0
 13  2  1  0  0  0  0
 14 23  1  0  0  0  0
 14  9  1  0  0  0  0
 15  7  1  0  0  0  0
 17 26  1  0  0  0  0
 17 20  1  0  0  0  0
 18 13  2  0  0  0  0
 19  2  2  0  0  0  0
 19  1  1  0  0  0  0
 20  4  1  0  0  0  0
 21 10  2  0  0  0  0
 22 20  1  0  0  0  0
 23 15  1  0  0  0  0
 25 26  2  0  0  0  0
 25 18  1  0  0  0  0
 26 19  1  0  0  0  0
 27 24  1  0  0  0  0
 27 12  1  0  0  0  0
 30 29  1  0  0  0  0
 30 28  1  0  0  0  0
M  END
>  <MODEL>
6

>  <REMARK>
 VINA RESULT:      -7.4      3.063      6.864
  Name = 
  2 active torsions:
  status: ('A' for Active; 'I' for Inactive)
    1  A    between atoms: C_11  and  C_28
    2  A    between atoms: C_28  and  C_30
                            x       y       z     vdW  Elec       q    Type
                         _______ _______ _______ _____ _____    ______ ____

>  <TORSDO>
F 2

$$$$
=
 OpenBabel11112416163D

 30 35  0  0  1  0  0  0  0  0999 V2000
  187.9430  176.0540  143.3040 C   0  0  2  0  0  3  0  0  0  0  0  0
  187.7520  175.9860  140.7570 C   0  0  0  0  0  0  0  0  0  0  0  0
  184.6390  178.7860  143.3430 N   0  0  0  0  0  2  0  0  0  0  0  0
  187.4820  176.8160  144.5540 C   0  0  2  0  0  3  0  0  0  0  0  0
  189.4620  176.0760  143.3480 C   0  0  0  0  0  2  0  0  0  0  0  0
  189.4470  174.6760  146.7750 O   0  0  0  0  0  0  0  0  0  0  0  0
  187.3960  178.2680  146.9880 C   0  0  1  0  0  3  0  0  0  0  0  0
  189.0960  175.3150  145.7940 C   0  0  0  0  0  0  0  0  0  0  0  0
  186.1090  178.8380  146.3740 C   0  0  2  0  0  3  0  0  0  0  0  0
  184.2750  178.6500  144.7120 C   0  0  0  0  0  0  0  0  0  0  0  0
  190.0030  175.3160  144.5710 C   0  0  2  0  0  3  0  0  0  0  0  0
  187.7290  175.9720  145.8060 C   0  0  1  0  0  3  0  0  0  0  0  0
  187.1790  176.4200  139.5580 C   0  0  0  0  0  3  0  0  0  0  0  0
  185.3420  179.3950  147.4080 O   0  0  0  0  0  0  0  0  0  0  0  0
  187.4690  178.9270  148.3350 C   0  0  0  0  0  2  0  0  0  0  0  0
  188.6880  174.9600  140.7240 O   0  0  0  0  0  1  0  0  0  0  0  0
  185.9740  178.2280  143.2600 C   0  0  1  0  0  3  0  0  0  0  0  0
  186.2140  177.4280  139.5560 C   0  0  0  0  0  3  0  0  0  0  0  0
  187.3730  176.5790  141.9790 C   0  0  0  0  0  0  0  0  0  0  0  0
  186.0340  177.2230  144.3830 C   0  0  2  0  0  3  0  0  0  0  0  0
  183.2060  179.1270  145.1760 O   0  0  0  0  0  0  0  0  0  0  0  0
  185.2570  177.8730  145.5260 C   0  0  1  0  0  3  0  0  0  0  0  0
  186.2770  179.8590  148.3450 C   0  0  0  0  0  2  0  0  0  0  0  0
  186.3270  176.1180  147.8960 C   0  0  0  0  0  1  0  0  0  0  0  0
  185.8030  178.0030  140.7570 C   0  0  0  0  0  3  0  0  0  0  0  0
  186.3470  177.5660  141.9700 C   0  0  0  0  0  0  0  0  0  0  0  0
  187.4870  176.7330  147.1240 C   0  0  2  0  0  3  0  0  0  0  0  0
  191.3840  175.8480  144.9360 C   0  0  0  0  0  2  0  0  0  0  0  0
  193.3460  176.0070  143.4040 C   0  0  0  0  0  1  0  0  0  0  0  0
  192.0080  176.6130  143.7790 C   0  0  0  0  0  2  0  0  0  0  0  0
  1  5  1  6  0  0  0
  1  4  1  0  0  0  0
  2 19  1  0  0  0  0
  3 10  1  0  0  0  0
  4 12  1  0  0  0  0
  5 11  1  0  0  0  0
  7 27  1  0  0  0  0
  7 15  1  0  0  0  0
  8 12  1  0  0  0  0
  8  6  2  0  0  0  0
  9  7  1  0  0  0  0
  9 14  1  0  0  0  0
 10 21  2  0  0  0  0
 10 22  1  0  0  0  0
 11 28  1  0  0  0  0
 11  8  1  0  0  0  0
 12 27  1  0  0  0  0
 13  2  2  0  0  0  0
 14 23  1  0  0  0  0
 15 23  1  0  0  0  0
 16  2  1  0  0  0  0
 17  3  1  0  0  0  0
 17 20  1  0  0  0  0
 18 13  1  0  0  0  0
 18 25  2  0  0  0  0
 19  1  1  0  0  0  0
 20  4  1  0  0  0  0
 20 22  1  0  0  0  0
 22  9  1  0  0  0  0
 25 26  1  0  0  0  0
 26 19  2  0  0  0  0
 26 17  1  0  0  0  0
 27 24  1  0  0  0  0
 29 30  1  0  0  0  0
 30 28  1  0  0  0  0
M  END
>  <MODEL>
7

>  <REMARK>
 VINA RESULT:      -7.3      1.960      6.498
  Name = 
  2 active torsions:
  status: ('A' for Active; 'I' for Inactive)
    1  A    between atoms: C_11  and  C_28
    2  A    between atoms: C_28  and  C_30
                            x       y       z     vdW  Elec       q    Type
                         _______ _______ _______ _____ _____    ______ ____

>  <TORSDO>
F 2

$$$$
=
 OpenBabel11112416163D

 30 35  0  0  1  0  0  0  0  0999 V2000
  192.3410  175.0170  141.6440 C   0  0  2  0  0  3  0  0  0  0  0  0
  194.3410  174.6400  140.1010 C   0  0  0  0  0  0  0  0  0  0  0  0
  195.1010  176.1700  144.7150 N   0  0  0  0  0  2  0  0  0  0  0  0
  191.9400  175.2460  143.1080 C   0  0  2  0  0  3  0  0  0  0  0  0
  191.5590  173.7950  141.1900 C   0  0  0  0  0  2  0  0  0  0  0  0
  188.3790  175.3450  142.2810 O   0  0  0  0  0  0  0  0  0  0  0  0
  190.7420  175.0550  145.6710 C   0  0  1  0  0  3  0  0  0  0  0  0
  189.5660  175.0550  142.2560 C   0  0  0  0  0  0  0  0  0  0  0  0
  192.0880  175.6370  146.1260 C   0  0  2  0  0  3  0  0  0  0  0  0
  194.1860  176.8430  145.5730 C   0  0  0  0  0  0  0  0  0  0  0  0
  190.0420  174.0540  141.2140 C   0  0  2  0  0  3  0  0  0  0  0  0
  190.5130  175.7930  143.1840 C   0  0  1  0  0  3  0  0  0  0  0  0
  195.7190  174.5930  139.8660 C   0  0  0  0  0  3  0  0  0  0  0  0
  191.9190  176.1750  147.4100 O   0  0  0  0  0  0  0  0  0  0  0  0
  189.9580  174.9330  146.9460 C   0  0  0  0  0  2  0  0  0  0  0  0
  193.4700  174.4470  139.0350 O   0  0  0  0  0  1  0  0  0  0  0  0
  194.2650  175.3870  143.8260 C   0  0  1  0  0  3  0  0  0  0  0  0
  196.6230  174.8100  140.9070 C   0  0  0  0  0  3  0  0  0  0  0  0
  193.8500  174.8890  141.3990 C   0  0  0  0  0  0  0  0  0  0  0  0
  192.9620  176.1460  143.7690 C   0  0  2  0  0  3  0  0  0  0  0  0
  194.5660  177.5410  146.5490 O   0  0  0  0  0  0  0  0  0  0  0  0
  192.7530  176.6650  145.1900 C   0  0  1  0  0  3  0  0  0  0  0  0
  190.9340  175.3780  148.0120 C   0  0  0  0  0  2  0  0  0  0  0  0
  189.6870  177.3040  145.0240 C   0  0  0  0  0  1  0  0  0  0  0  0
  196.1560  175.0910  142.1900 C   0  0  0  0  0  3  0  0  0  0  0  0
  194.7810  175.1650  142.4390 C   0  0  0  0  0  0  0  0  0  0  0  0
  189.9510  175.8610  144.6170 C   0  0  2  0  0  3  0  0  0  0  0  0
  189.2990  172.7320  141.3700 C   0  0  0  0  0  2  0  0  0  0  0  0
  189.3200  171.9160  143.7280 C   0  0  0  0  0  1  0  0  0  0  0  0
  189.9920  171.8200  142.3710 C   0  0  0  0  0  2  0  0  0  0  0  0
  1  5  1  1  0  0  0
  1  4  1  0  0  0  0
  2 19  1  0  0  0  0
  3 10  1  0  0  0  0
  4 12  1  0  0  0  0
  4 20  1  0  0  0  0
  5 11  1  0  0  0  0
  7  9  1  0  0  0  0
  7 15  1  0  0  0  0
  8  6  2  0  0  0  0
  8 12  1  0  0  0  0
  9 14  1  0  0  0  0
 10 21  2  0  0  0  0
 11 28  1  0  0  0  0
 11  8  1  0  0  0  0
 12 27  1  0  0  0  0
 13  2  2  0  0  0  0
 13 18  1  0  0  0  0
 14 23  1  0  0  0  0
 15 23  1  0  0  0  0
 16  2  1  0  0  0  0
 17  3  1  0  0  0  0
 18 25  2  0  0  0  0
 19  1  1  0  0  0  0
 19 26  2  0  0  0  0
 20 17  1  0  0  0  0
 20 22  1  0  0  0  0
 22 10  1  0  0  0  0
 22  9  1  0  0  0  0
 25 26  1  0  0  0  0
 26 17  1  0  0  0  0
 27 24  1  0  0  0  0
 27  7  1  0  0  0  0
 28 30  1  0  0  0  0
 30 29  1  0  0  0  0
M  END
>  <MODEL>
8

>  <REMARK>
 VINA RESULT:      -7.3      3.147      6.723
  Name = 
  2 active torsions:
  status: ('A' for Active; 'I' for Inactive)
    1  A    between atoms: C_11  and  C_28
    2  A    between atoms: C_28  and  C_30
                            x       y       z     vdW  Elec       q    Type
                         _______ _______ _______ _____ _____    ______ ____

>  <TORSDO>
F 2

$$$$
=
 OpenBabel11112416163D

 30 35  0  0  1  0  0  0  0  0999 V2000
  192.5600  173.0740  145.1050 C   0  0  2  0  0  3  0  0  0  0  0  0
  193.6480  170.7940  144.7280 C   0  0  0  0  0  0  0  0  0  0  0  0
  189.7170  172.0700  142.0580 N   0  0  0  0  0  2  0  0  0  0  0  0
  191.5560  174.0740  144.5130 C   0  0  2  0  0  3  0  0  0  0  0  0
  193.8600  173.8450  145.2650 C   0  0  0  0  0  2  0  0  0  0  0  0
  192.1320  176.4840  147.2030 O   0  0  0  0  0  0  0  0  0  0  0  0
  190.3090  176.4030  143.4840 C   0  0  1  0  0  3  0  0  0  0  0  0
  192.3220  175.6060  146.3740 C   0  0  0  0  0  0  0  0  0  0  0  0
  189.5020  175.3750  142.6770 C   0  0  2  0  0  3  0  0  0  0  0  0
  188.7220  173.0380  142.3750 C   0  0  0  0  0  0  0  0  0  0  0  0
  193.7140  174.9970  146.2750 C   0  0  2  0  0  3  0  0  0  0  0  0
  191.1390  175.0930  145.5760 C   0  0  1  0  0  3  0  0  0  0  0  0
  193.7490  169.5820  144.0390 C   0  0  0  0  0  3  0  0  0  0  0  0
  188.3360  176.0020  142.2150 O   0  0  0  0  0  0  0  0  0  0  0  0
  189.7200  177.7210  143.0710 C   0  0  0  0  0  2  0  0  0  0  0  0
  194.4600  171.0100  145.8350 O   0  0  0  0  0  1  0  0  0  0  0  0
  190.9090  172.5280  142.7430 C   0  0  1  0  0  3  0  0  0  0  0  0
  192.9290  169.3200  142.9400 C   0  0  0  0  0  3  0  0  0  0  0  0
  192.7270  171.7750  144.3060 C   0  0  0  0  0  0  0  0  0  0  0  0
  190.3890  173.3150  143.9210 C   0  0  2  0  0  3  0  0  0  0  0  0
  187.5730  173.0170  141.8630 O   0  0  0  0  0  0  0  0  0  0  0  0
  189.1620  174.0490  143.3840 C   0  0  1  0  0  3  0  0  0  0  0  0
  188.6950  177.3440  142.0230 C   0  0  0  0  0  2  0  0  0  0  0  0
  188.8920  176.2340  145.6180 C   0  0  0  0  0  1  0  0  0  0  0  0
  191.9890  170.2630  142.5290 C   0  0  0  0  0  3  0  0  0  0  0  0
  191.8570  171.4730  143.2200 C   0  0  0  0  0  0  0  0  0  0  0  0
  190.2930  176.2550  145.0210 C   0  0  2  0  0  3  0  0  0  0  0  0
  194.7440  176.0790  145.9720 C   0  0  0  0  0  2  0  0  0  0  0  0
  196.0150  176.5350  143.8740 C   0  0  0  0  0  1  0  0  0  0  0  0
  194.6470  176.5510  144.5290 C   0  0  0  0  0  2  0  0  0  0  0  0
  1  5  1  6  0  0  0
  2 16  1  0  0  0  0
  3 10  1  0  0  0  0
  3 17  1  0  0  0  0
  4  1  1  0  0  0  0
  4 12  1  0  0  0  0
  5 11  1  0  0  0  0
  7 27  1  0  0  0  0
  8  6  2  0  0  0  0
  9 22  1  0  0  0  0
  9  7  1  0  0  0  0
 10 22  1  0  0  0  0
 11  8  1  0  0  0  0
 12  8  1  0  0  0  0
 13  2  2  0  0  0  0
 14  9  1  0  0  0  0
 15  7  1  0  0  0  0
 17 26  1  0  0  0  0
 17 20  1  0  0  0  0
 18 13  1  0  0  0  0
 19  2  1  0  0  0  0
 19  1  1  0  0  0  0
 20  4  1  0  0  0  0
 21 10  2  0  0  0  0
 22 20  1  0  0  0  0
 23 14  1  0  0  0  0
 23 15  1  0  0  0  0
 25 18  2  0  0  0  0
 25 26  1  0  0  0  0
 26 19  2  0  0  0  0
 27 12  1  0  0  0  0
 27 24  1  0  0  0  0
 28 11  1  0  0  0  0
 29 30  1  0  0  0  0
 30 28  1  0  0  0  0
M  END
>  <MODEL>
9

>  <REMARK>
 VINA RESULT:      -7.3      2.865      7.692
  Name = 
  2 active torsions:
  status: ('A' for Active; 'I' for Inactive)
    1  A    between atoms: C_11  and  C_28
    2  A    between atoms: C_28  and  C_30
                            x       y       z     vdW  Elec       q    Type
                         _______ _______ _______ _____ _____    ______ ____

>  <TORSDO>
F 2

$$$$
