=
 OpenBabel11112416343D

 32 38  0  0  1  0  0  0  0  0999 V2000
  185.2130  179.1130  143.9220 C   0  0  1  0  0  3  0  0  0  0  0  0
  188.9250  175.5060  143.0850 C   0  0  0  0  0  0  0  0  0  0  0  0
  191.8230  176.0820  146.9710 C   0  0  0  0  0  3  0  0  0  0  0  0
  192.6080  175.0080  146.5560 C   0  0  0  0  0  3  0  0  0  0  0  0
  189.4190  173.6820  141.4460 C   0  0  0  0  0  0  0  0  0  0  0  0
  190.2450  172.6200  141.0790 C   0  0  0  0  0  0  0  0  0  0  0  0
  186.7050  176.6820  143.1750 C   0  0  1  0  0  3  0  0  0  0  0  0
  188.4690  177.2940  144.7350 N   0  0  0  0  0  2  0  0  0  0  0  0
  191.9980  171.1630  141.2600 N   0  0  0  0  0  0  0  0  0  0  0  0
  186.4450  178.7130  144.7350 C   0  0  2  0  0  3  0  0  0  0  0  0
  190.7190  176.4730  146.2110 C   0  0  0  0  0  3  0  0  0  0  0  0
  189.2790  176.1970  144.2720 C   0  0  0  0  0  0  0  0  0  0  0  0
  190.3880  175.7930  145.0280 C   0  0  0  0  0  0  0  0  0  0  0  0
  190.8540  174.0160  143.4180 C   0  0  0  0  0  0  0  0  0  0  0  0
  191.3180  170.7610  140.0350 C   0  0  0  0  0  3  0  0  0  0  0  0
  185.2090  178.5240  142.4890 C   0  0  0  0  0  2  0  0  0  0  0  0
  187.3960  177.8300  143.9130 C   0  0  2  0  0  3  0  0  0  0  0  0
  190.1250  171.7300  139.8860 C   0  0  0  0  0  3  0  0  0  0  0  0
  185.5160  177.0860  142.4100 N   0  0  0  0  0  2  0  0  0  0  0  0
  185.0920  178.0730  145.0280 C   0  0  1  0  0  3  0  0  0  0  0  0
  192.2900  174.3230  145.3820 C   0  0  0  0  0  3  0  0  0  0  0  0
  191.1800  174.7030  144.6030 C   0  0  0  0  0  0  0  0  0  0  0  0
  191.6530  172.9310  142.9980 C   0  0  0  0  0  3  0  0  0  0  0  0
  187.7320  175.9970  142.2870 C   0  0  0  0  0  2  0  0  0  0  0  0
  188.3330  173.9870  140.6320 O   0  0  0  0  0  1  0  0  0  0  0  0
  193.1860  170.5210  141.7970 C   0  0  0  0  0  1  0  0  0  0  0  0
  189.7160  174.4110  142.6400 C   0  0  0  0  0  0  0  0  0  0  0  0
  191.3210  172.2610  141.8280 C   0  0  0  0  0  0  0  0  0  0  0  0
  184.4910  178.7190  146.2600 C   0  0  0  0  0  2  0  0  0  0  0  0
  185.4730  178.6860  147.3790 C   0  0  0  0  0  0  0  0  0  0  0  0
  185.8880  177.4390  147.9230 N   0  0  0  0  0  1  0  0  0  0  0  0
  185.9100  179.7610  147.8650 O   0  0  0  0  0  0  0  0  0  0  0  0
  1 16  1  6  0  0  0
  1 10  1  0  0  0  0
  1 20  1  0  0  0  0
  2 12  1  0  0  0  0
  4  3  1  0  0  0  0
  5 27  1  0  0  0  0
  6  5  2  0  0  0  0
  6 28  1  0  0  0  0
  7 24  1  6  0  0  0
  7 17  1  0  0  0  0
  9 26  1  0  0  0  0
  9 28  1  0  0  0  0
 10 20  1  0  0  0  0
 11  3  2  0  0  0  0
 12  8  1  0  0  0  0
 12 13  2  0  0  0  0
 13 11  1  0  0  0  0
 14 22  2  0  0  0  0
 15  9  1  0  0  0  0
 17 10  1  0  0  0  0
 17  8  1  0  0  0  0
 18 15  2  0  0  0  0
 18  6  1  0  0  0  0
 19 16  1  0  0  0  0
 19  7  1  0  0  0  0
 20 29  1  0  0  0  0
 21  4  2  0  0  0  0
 22 13  1  0  0  0  0
 22 21  1  0  0  0  0
 23 14  1  0  0  0  0
 24  2  1  0  0  0  0
 25  5  1  0  0  0  0
 27  2  2  0  0  0  0
 27 14  1  0  0  0  0
 28 23  2  0  0  0  0
 29 30  1  0  0  0  0
 30 32  2  0  0  0  0
 30 31  1  0  0  0  0
M  END
>  <MODEL>
1

>  <REMARK>
 VINA RESULT:      -8.9      0.000      0.000
  Name = 
  2 active torsions:
  status: ('A' for Active; 'I' for Inactive)
    1  A    between atoms: C_20  and  C_29
    2  A    between atoms: C_29  and  C_30
                            x       y       z     vdW  Elec       q    Type
                         _______ _______ _______ _____ _____    ______ ____

>  <TORSDO>
F 2

$$$$
=
 OpenBabel11112416343D

 32 38  0  0  1  0  0  0  0  0999 V2000
  185.0850  177.8310  146.5030 C   0  0  1  0  0  3  0  0  0  0  0  0
  189.6900  175.8770  144.9330 C   0  0  0  0  0  0  0  0  0  0  0  0
  188.6040  174.0810  140.5260 C   0  0  0  0  0  3  0  0  0  0  0  0
  189.9400  173.7370  140.3270 C   0  0  0  0  0  3  0  0  0  0  0  0
  192.0550  175.7930  145.7430 C   0  0  0  0  0  0  0  0  0  0  0  0
  193.3750  175.4210  145.4900 C   0  0  0  0  0  0  0  0  0  0  0  0
  187.9480  177.3510  145.9890 C   0  0  1  0  0  3  0  0  0  0  0  0
  187.3640  175.9460  144.0900 N   0  0  0  0  0  2  0  0  0  0  0  0
  195.1160  174.5400  144.2970 N   0  0  0  0  0  0  0  0  0  0  0  0
  185.5040  177.1250  145.2140 C   0  0  2  0  0  3  0  0  0  0  0  0
  188.2120  174.6920  141.7180 C   0  0  0  0  0  3  0  0  0  0  0  0
  188.7450  175.5790  143.9180 C   0  0  0  0  0  0  0  0  0  0  0  0
  189.1510  174.9670  142.7250 C   0  0  0  0  0  0  0  0  0  0  0  0
  191.4560  174.8950  143.5310 C   0  0  0  0  0  0  0  0  0  0  0  0
  195.7230  174.9950  145.5420 C   0  0  0  0  0  3  0  0  0  0  0  0
  186.1400  177.7200  147.6310 C   0  0  0  0  0  2  0  0  0  0  0  0
  186.8780  176.4550  145.3620 C   0  0  2  0  0  3  0  0  0  0  0  0
  194.5670  175.5970  146.3710 C   0  0  0  0  0  3  0  0  0  0  0  0
  187.5210  178.0300  147.2210 N   0  0  0  0  0  2  0  0  0  0  0  0
  185.5370  178.6480  145.3000 C   0  0  1  0  0  3  0  0  0  0  0  0
  190.8840  174.0050  141.3190 C   0  0  0  0  0  3  0  0  0  0  0  0
  190.5070  174.6210  142.5280 C   0  0  0  0  0  0  0  0  0  0  0  0
  192.8080  174.5420  143.3290 C   0  0  0  0  0  3  0  0  0  0  0  0
  189.1980  176.5150  146.2180 C   0  0  0  0  0  2  0  0  0  0  0  0
  191.7640  176.4110  146.9550 O   0  0  0  0  0  1  0  0  0  0  0  0
  195.8370  173.9040  143.2080 C   0  0  0  0  0  1  0  0  0  0  0  0
  191.0580  175.5300  144.7540 C   0  0  0  0  0  0  0  0  0  0  0  0
  193.7340  174.8180  144.3250 C   0  0  0  0  0  0  0  0  0  0  0  0
  184.3210  179.2130  144.5930 C   0  0  0  0  0  2  0  0  0  0  0  0
  184.3150  178.7770  143.1690 C   0  0  0  0  0  0  0  0  0  0  0  0
  185.5040  178.8630  142.3940 N   0  0  0  0  0  1  0  0  0  0  0  0
  183.2490  178.3630  142.6430 O   0  0  0  0  0  0  0  0  0  0  0  0
  1 16  1  1  0  0  0
  2 24  1  0  0  0  0
  3 11  1  0  0  0  0
  4  3  2  0  0  0  0
  4 21  1  0  0  0  0
  5 25  1  0  0  0  0
  6  5  1  0  0  0  0
  6 18  1  0  0  0  0
  7 24  1  1  0  0  0
  7 19  1  0  0  0  0
  8 17  1  0  0  0  0
  9 28  1  0  0  0  0
  9 15  1  0  0  0  0
 10 20  1  0  0  0  0
 10 17  1  0  0  0  0
 10  1  1  0  0  0  0
 11 13  2  0  0  0  0
 12  8  1  0  0  0  0
 12  2  2  0  0  0  0
 13 12  1  0  0  0  0
 14 27  1  0  0  0  0
 15 18  2  0  0  0  0
 17  7  1  0  0  0  0
 19 16  1  0  0  0  0
 20  1  1  0  0  0  0
 21 22  2  0  0  0  0
 22 13  1  0  0  0  0
 22 14  1  0  0  0  0
 23 14  2  0  0  0  0
 23 28  1  0  0  0  0
 26  9  1  0  0  0  0
 27  2  1  0  0  0  0
 27  5  2  0  0  0  0
 28  6  2  0  0  0  0
 29 20  1  0  0  0  0
 30 29  1  0  0  0  0
 31 30  1  0  0  0  0
 32 30  2  0  0  0  0
M  END
>  <MODEL>
2

>  <REMARK>
 VINA RESULT:      -8.9      2.500      4.728
  Name = 
  2 active torsions:
  status: ('A' for Active; 'I' for Inactive)
    1  A    between atoms: C_20  and  C_29
    2  A    between atoms: C_29  and  C_30
                            x       y       z     vdW  Elec       q    Type
                         _______ _______ _______ _____ _____    ______ ____

>  <TORSDO>
F 2

$$$$
=
 OpenBabel11112416343D

 32 38  0  0  1  0  0  0  0  0999 V2000
  192.4990  175.2550  144.3660 C   0  0  1  0  0  3  0  0  0  0  0  0
  187.5560  176.8770  143.7090 C   0  0  0  0  0  0  0  0  0  0  0  0
  186.2910  178.2000  148.2340 C   0  0  0  0  0  3  0  0  0  0  0  0
  185.0550  178.6440  147.7690 C   0  0  0  0  0  3  0  0  0  0  0  0
  185.9430  177.2330  141.8310 C   0  0  0  0  0  0  0  0  0  0  0  0
  184.6890  177.6890  141.4250 C   0  0  0  0  0  0  0  0  0  0  0  0
  190.0000  176.4280  143.3290 C   0  0  1  0  0  3  0  0  0  0  0  0
  189.1250  176.5490  145.5960 N   0  0  0  0  0  2  0  0  0  0  0  0
  182.6080  178.6060  141.6690 N   0  0  0  0  0  0  0  0  0  0  0  0
  191.4750  175.8200  145.3500 C   0  0  2  0  0  3  0  0  0  0  0  0
  187.2140  177.6490  147.3440 C   0  0  0  0  0  3  0  0  0  0  0  0
  187.8460  176.9790  145.0940 C   0  0  0  0  0  0  0  0  0  0  0  0
  186.9120  177.5370  145.9770 C   0  0  0  0  0  0  0  0  0  0  0  0
  185.3490  177.8780  144.1310 C   0  0  0  0  0  0  0  0  0  0  0  0
  182.7130  178.3180  140.2430 C   0  0  0  0  0  3  0  0  0  0  0  0
  191.8810  174.8610  143.0000 C   0  0  0  0  0  2  0  0  0  0  0  0
  190.0640  175.8420  144.7400 C   0  0  2  0  0  3  0  0  0  0  0  0
  184.1130  177.6950  140.0470 C   0  0  0  0  0  3  0  0  0  0  0  0
  191.0020  175.8800  142.4020 N   0  0  0  0  0  2  0  0  0  0  0  0
  192.4690  176.7480  144.6600 C   0  0  1  0  0  3  0  0  0  0  0  0
  184.7410  178.5380  146.4130 C   0  0  0  0  0  3  0  0  0  0  0  0
  185.6600  177.9860  145.5000 C   0  0  0  0  0  0  0  0  0  0  0  0
  184.0950  178.3250  143.6620 C   0  0  0  0  0  3  0  0  0  0  0  0
  188.5880  176.2420  142.7960 C   0  0  0  0  0  2  0  0  0  0  0  0
  186.8010  176.7130  140.8670 O   0  0  0  0  0  1  0  0  0  0  0  0
  181.4500  179.2050  142.3090 C   0  0  0  0  0  1  0  0  0  0  0  0
  186.2990  177.3190  143.2130 C   0  0  0  0  0  0  0  0  0  0  0  0
  183.8010  178.2140  142.3110 C   0  0  0  0  0  0  0  0  0  0  0  0
  193.5850  177.0900  145.6280 C   0  0  0  0  0  2  0  0  0  0  0  0
  194.8290  176.3710  145.2410 C   0  0  0  0  0  0  0  0  0  0  0  0
  195.3030  175.2910  146.0370 N   0  0  0  0  0  1  0  0  0  0  0  0
  195.4790  176.7380  144.2290 O   0  0  0  0  0  0  0  0  0  0  0  0
  1 16  1  6  0  0  0
  1 20  1  0  0  0  0
  1 10  1  0  0  0  0
  2 12  1  0  0  0  0
  4  3  1  0  0  0  0
  5 27  1  0  0  0  0
  6  5  2  0  0  0  0
  6 28  1  0  0  0  0
  7 24  1  6  0  0  0
  7 17  1  0  0  0  0
  9 26  1  0  0  0  0
  9 28  1  0  0  0  0
 11  3  2  0  0  0  0
 12  8  1  0  0  0  0
 12 13  2  0  0  0  0
 13 11  1  0  0  0  0
 14 22  2  0  0  0  0
 15  9  1  0  0  0  0
 17 10  1  0  0  0  0
 17  8  1  0  0  0  0
 18 15  2  0  0  0  0
 18  6  1  0  0  0  0
 19 16  1  0  0  0  0
 19  7  1  0  0  0  0
 20 10  1  0  0  0  0
 20 29  1  0  0  0  0
 21  4  2  0  0  0  0
 22 13  1  0  0  0  0
 22 21  1  0  0  0  0
 23 14  1  0  0  0  0
 24  2  1  0  0  0  0
 25  5  1  0  0  0  0
 27  2  2  0  0  0  0
 27 14  1  0  0  0  0
 28 23  2  0  0  0  0
 30 29  1  0  0  0  0
 30 31  1  0  0  0  0
 32 30  2  0  0  0  0
M  END
>  <MODEL>
3

>  <REMARK>
 VINA RESULT:      -8.6      2.826      7.560
  Name = 
  2 active torsions:
  status: ('A' for Active; 'I' for Inactive)
    1  A    between atoms: C_20  and  C_29
    2  A    between atoms: C_29  and  C_30
                            x       y       z     vdW  Elec       q    Type
                         _______ _______ _______ _____ _____    ______ ____

>  <TORSDO>
F 2

$$$$
=
 OpenBabel11112416343D

 32 38  0  0  1  0  0  0  0  0999 V2000
  190.5600  172.3050  139.4390 C   0  0  1  0  0  3  0  0  0  0  0  0
  188.6550  175.2190  143.3580 C   0  0  0  0  0  0  0  0  0  0  0  0
  192.2690  175.0380  146.6340 C   0  0  0  0  0  3  0  0  0  0  0  0
  191.5720  175.9130  147.4650 C   0  0  0  0  0  3  0  0  0  0  0  0
  186.6440  176.6320  143.8270 C   0  0  0  0  0  0  0  0  0  0  0  0
  185.9920  177.5000  144.7030 C   0  0  0  0  0  0  0  0  0  0  0  0
  189.1980  174.3560  141.0610 C   0  0  1  0  0  3  0  0  0  0  0  0
  190.6650  173.8400  142.9320 N   0  0  0  0  0  2  0  0  0  0  0  0
  185.7040  178.7440  146.6000 N   0  0  0  0  0  0  0  0  0  0  0  0
  191.1490  172.6990  140.7920 C   0  0  2  0  0  3  0  0  0  0  0  0
  191.7160  174.6470  145.4140 C   0  0  0  0  0  3  0  0  0  0  0  0
  189.9140  174.7260  143.7830 C   0  0  0  0  0  0  0  0  0  0  0  0
  190.4600  175.1280  145.0100 C   0  0  0  0  0  0  0  0  0  0  0  0
  188.4900  176.5030  145.4510 C   0  0  0  0  0  0  0  0  0  0  0  0
  184.4970  178.9890  145.8200 C   0  0  0  0  0  3  0  0  0  0  0  0
  189.0450  172.6110  139.3190 C   0  0  0  0  0  2  0  0  0  0  0  0
  190.0770  173.2920  141.7200 C   0  0  2  0  0  3  0  0  0  0  0  0
  184.6630  178.1590  144.5280 C   0  0  0  0  0  3  0  0  0  0  0  0
  188.6500  173.9620  139.7540 N   0  0  0  0  0  2  0  0  0  0  0  0
  191.4420  173.5410  139.5540 C   0  0  1  0  0  3  0  0  0  0  0  0
  190.3220  176.3990  147.0760 C   0  0  0  0  0  3  0  0  0  0  0  0
  189.7500  176.0160  145.8480 C   0  0  0  0  0  0  0  0  0  0  0  0
  187.7840  177.3860  146.2960 C   0  0  0  0  0  3  0  0  0  0  0  0
  188.0930  174.7350  142.0350 C   0  0  0  0  0  2  0  0  0  0  0  0
  186.0190  176.3130  142.6260 O   0  0  0  0  0  1  0  0  0  0  0  0
  185.9810  179.3280  147.9010 C   0  0  0  0  0  1  0  0  0  0  0  0
  187.9230  176.1090  144.1930 C   0  0  0  0  0  0  0  0  0  0  0  0
  186.5440  177.8610  145.8920 C   0  0  0  0  0  0  0  0  0  0  0  0
  192.8320  173.2130  139.0470 C   0  0  0  0  0  2  0  0  0  0  0  0
  193.7160  174.4020  139.1880 C   0  0  0  0  0  0  0  0  0  0  0  0
  194.2480  175.0340  138.0300 N   0  0  0  0  0  1  0  0  0  0  0  0
  194.0190  174.8280  140.3320 O   0  0  0  0  0  0  0  0  0  0  0  0
  1 16  1  1  0  0  0
  1 20  1  0  0  0  0
  1 10  1  0  0  0  0
  2 12  2  0  0  0  0
  2 27  1  0  0  0  0
  3  4  1  0  0  0  0
  5 27  2  0  0  0  0
  5  6  1  0  0  0  0
  6 28  2  0  0  0  0
  7 17  1  0  0  0  0
  7 24  1  1  0  0  0
  8 12  1  0  0  0  0
  9 26  1  0  0  0  0
 10 17  1  0  0  0  0
 11  3  2  0  0  0  0
 12 13  1  0  0  0  0
 13 11  1  0  0  0  0
 13 22  2  0  0  0  0
 14 22  1  0  0  0  0
 14 23  2  0  0  0  0
 15  9  1  0  0  0  0
 16 19  1  0  0  0  0
 17  8  1  0  0  0  0
 18  6  1  0  0  0  0
 18 15  2  0  0  0  0
 19  7  1  0  0  0  0
 20 10  1  0  0  0  0
 21  4  2  0  0  0  0
 22 21  1  0  0  0  0
 24  2  1  0  0  0  0
 25  5  1  0  0  0  0
 27 14  1  0  0  0  0
 28 23  1  0  0  0  0
 28  9  1  0  0  0  0
 29 30  1  0  0  0  0
 29 20  1  0  0  0  0
 30 32  2  0  0  0  0
 31 30  1  0  0  0  0
M  END
>  <MODEL>
4

>  <REMARK>
 VINA RESULT:      -8.5      2.328      7.576
  Name = 
  2 active torsions:
  status: ('A' for Active; 'I' for Inactive)
    1  A    between atoms: C_20  and  C_29
    2  A    between atoms: C_29  and  C_30
                            x       y       z     vdW  Elec       q    Type
                         _______ _______ _______ _____ _____    ______ ____

>  <TORSDO>
F 2

$$$$
=
 OpenBabel11112416343D

 32 38  0  0  1  0  0  0  0  0999 V2000
  185.9840  177.6140  146.0760 C   0  0  1  0  0  3  0  0  0  0  0  0
  190.5260  175.5050  144.5230 C   0  0  0  0  0  0  0  0  0  0  0  0
  189.4320  173.8640  140.0570 C   0  0  0  0  0  3  0  0  0  0  0  0
  190.7550  173.4690  139.8680 C   0  0  0  0  0  3  0  0  0  0  0  0
  192.8730  175.3010  145.3630 C   0  0  0  0  0  0  0  0  0  0  0  0
  194.1800  174.8800  145.1180 C   0  0  0  0  0  0  0  0  0  0  0  0
  188.8320  177.0250  145.5900 C   0  0  1  0  0  3  0  0  0  0  0  0
  188.2180  175.6930  143.6490 N   0  0  0  0  0  2  0  0  0  0  0  0
  195.9010  173.9560  143.9280 N   0  0  0  0  0  0  0  0  0  0  0  0
  186.3920  176.9220  144.7760 C   0  0  2  0  0  3  0  0  0  0  0  0
  189.0480  174.4620  141.2590 C   0  0  0  0  0  3  0  0  0  0  0  0
  189.5850  175.2720  143.4880 C   0  0  0  0  0  0  0  0  0  0  0  0
  189.9830  174.6730  142.2850 C   0  0  0  0  0  0  0  0  0  0  0  0
  192.2710  174.4830  143.1210 C   0  0  0  0  0  0  0  0  0  0  0  0
  196.5070  174.3540  145.1930 C   0  0  0  0  0  3  0  0  0  0  0  0
  187.0170  177.4300  147.2160 C   0  0  0  0  0  2  0  0  0  0  0  0
  187.7350  176.1910  144.9270 C   0  0  2  0  0  3  0  0  0  0  0  0
  195.3650  174.9840  146.0210 C   0  0  0  0  0  3  0  0  0  0  0  0
  188.4160  177.6920  146.8330 N   0  0  0  0  0  2  0  0  0  0  0  0
  186.4880  178.4390  144.9000 C   0  0  1  0  0  3  0  0  0  0  0  0
  191.6950  173.6720  140.8800 C   0  0  0  0  0  3  0  0  0  0  0  0
  191.3260  174.2750  142.0980 C   0  0  0  0  0  0  0  0  0  0  0  0
  193.6090  174.0790  142.9290 C   0  0  0  0  0  3  0  0  0  0  0  0
  190.0420  176.1320  145.8160 C   0  0  0  0  0  2  0  0  0  0  0  0
  192.5910  175.9020  146.5860 O   0  0  0  0  0  1  0  0  0  0  0  0
  196.6100  173.3160  142.8350 C   0  0  0  0  0  1  0  0  0  0  0  0
  191.8810  175.1050  144.3540 C   0  0  0  0  0  0  0  0  0  0  0  0
  194.5310  174.2910  143.9450 C   0  0  0  0  0  0  0  0  0  0  0  0
  185.3080  179.0730  144.1910 C   0  0  0  0  0  2  0  0  0  0  0  0
  185.2810  178.6390  142.7670 C   0  0  0  0  0  0  0  0  0  0  0  0
  184.1140  178.0270  142.2310 N   0  0  0  0  0  1  0  0  0  0  0  0
  186.3020  178.7850  142.0460 O   0  0  0  0  0  0  0  0  0  0  0  0
  1 16  1  1  0  0  0
  2 24  1  0  0  0  0
  3 11  1  0  0  0  0
  4  3  2  0  0  0  0
  4 21  1  0  0  0  0
  5 25  1  0  0  0  0
  6  5  1  0  0  0  0
  6 18  1  0  0  0  0
  7 24  1  1  0  0  0
  7 19  1  0  0  0  0
  8 17  1  0  0  0  0
  9 28  1  0  0  0  0
  9 15  1  0  0  0  0
 10 20  1  0  0  0  0
 10 17  1  0  0  0  0
 10  1  1  0  0  0  0
 11 13  2  0  0  0  0
 12  8  1  0  0  0  0
 12  2  2  0  0  0  0
 13 12  1  0  0  0  0
 14 27  1  0  0  0  0
 15 18  2  0  0  0  0
 17  7  1  0  0  0  0
 19 16  1  0  0  0  0
 20  1  1  0  0  0  0
 21 22  2  0  0  0  0
 22 13  1  0  0  0  0
 22 14  1  0  0  0  0
 23 14  2  0  0  0  0
 23 28  1  0  0  0  0
 26  9  1  0  0  0  0
 27  2  1  0  0  0  0
 27  5  2  0  0  0  0
 28  6  2  0  0  0  0
 29 20  1  0  0  0  0
 30 29  1  0  0  0  0
 31 30  1  0  0  0  0
 32 30  2  0  0  0  0
M  END
>  <MODEL>
5

>  <REMARK>
 VINA RESULT:      -8.4      2.628      4.794
  Name = 
  2 active torsions:
  status: ('A' for Active; 'I' for Inactive)
    1  A    between atoms: C_20  and  C_29
    2  A    between atoms: C_29  and  C_30
                            x       y       z     vdW  Elec       q    Type
                         _______ _______ _______ _____ _____    ______ ____

>  <TORSDO>
F 2

$$$$
=
 OpenBabel11112416343D

 32 38  0  0  1  0  0  0  0  0999 V2000
  195.1460  174.6150  145.6160 C   0  0  1  0  0  3  0  0  0  0  0  0
  190.3810  176.0650  143.9790 C   0  0  0  0  0  0  0  0  0  0  0  0
  189.9390  173.6140  139.7810 C   0  0  0  0  0  3  0  0  0  0  0  0
  188.6360  174.0860  139.6320 C   0  0  0  0  0  3  0  0  0  0  0  0
  188.4560  177.4270  144.8130 C   0  0  0  0  0  0  0  0  0  0  0  0
  187.1500  177.8710  144.6070 C   0  0  0  0  0  0  0  0  0  0  0  0
  192.3100  175.4050  145.4490 C   0  0  1  0  0  3  0  0  0  0  0  0
  192.2580  174.6990  143.1210 N   0  0  0  0  0  2  0  0  0  0  0  0
  185.1450  178.0680  143.5250 N   0  0  0  0  0  0  0  0  0  0  0  0
  194.3360  174.2330  144.3780 C   0  0  2  0  0  3  0  0  0  0  0  0
  190.6940  173.9920  140.8920 C   0  0  0  0  0  3  0  0  0  0  0  0
  190.9240  175.2190  142.9790 C   0  0  0  0  0  0  0  0  0  0  0  0
  190.1540  174.8440  141.8690 C   0  0  0  0  0  0  0  0  0  0  0  0
  188.2840  176.1790  142.6980 C   0  0  0  0  0  0  0  0  0  0  0  0
  184.9920  178.8840  144.7230 C   0  0  0  0  0  3  0  0  0  0  0  0
  194.5590  175.8290  146.3800 C   0  0  0  0  0  2  0  0  0  0  0  0
  193.1340  175.1700  144.1820 C   0  0  2  0  0  3  0  0  0  0  0  0
  186.3350  178.7700  145.4770 C   0  0  0  0  0  3  0  0  0  0  0  0
  193.1090  175.7590  146.6320 N   0  0  0  0  0  2  0  0  0  0  0  0
  194.2640  173.3750  145.6370 C   0  0  1  0  0  3  0  0  0  0  0  0
  188.0860  174.9340  140.5950 C   0  0  0  0  0  3  0  0  0  0  0  0
  188.8330  175.3240  141.7230 C   0  0  0  0  0  0  0  0  0  0  0  0
  186.9650  176.6580  142.5440 C   0  0  0  0  0  3  0  0  0  0  0  0
  191.2610  176.4640  145.1490 C   0  0  0  0  0  2  0  0  0  0  0  0
  189.1230  177.8460  145.9600 O   0  0  0  0  0  1  0  0  0  0  0  0
  184.1190  177.8820  142.5140 C   0  0  0  0  0  1  0  0  0  0  0  0
  189.0550  176.5620  143.8460 C   0  0  0  0  0  0  0  0  0  0  0  0
  186.4350  177.4990  143.5130 C   0  0  0  0  0  0  0  0  0  0  0  0
  195.1270  172.1430  145.4500 C   0  0  0  0  0  2  0  0  0  0  0  0
  194.2690  170.9290  145.3810 C   0  0  0  0  0  0  0  0  0  0  0  0
  194.6380  169.7550  146.0940 N   0  0  0  0  0  1  0  0  0  0  0  0
  193.2330  170.9300  144.6660 O   0  0  0  0  0  0  0  0  0  0  0  0
  1 20  1  0  0  0  0
  1 16  1  1  0  0  0
  2 24  1  0  0  0  0
  3 11  1  0  0  0  0
  4  3  2  0  0  0  0
  4 21  1  0  0  0  0
  5 25  1  0  0  0  0
  6  5  1  0  0  0  0
  6 18  1  0  0  0  0
  7 24  1  6  0  0  0
  7 19  1  0  0  0  0
  8 17  1  0  0  0  0
  9 15  1  0  0  0  0
 10  1  1  0  0  0  0
 10 20  1  0  0  0  0
 11 13  2  0  0  0  0
 12  8  1  0  0  0  0
 12  2  2  0  0  0  0
 13 12  1  0  0  0  0
 14 27  1  0  0  0  0
 15 18  2  0  0  0  0
 16 19  1  0  0  0  0
 17 10  1  0  0  0  0
 17  7  1  0  0  0  0
 21 22  2  0  0  0  0
 22 13  1  0  0  0  0
 22 14  1  0  0  0  0
 23 14  2  0  0  0  0
 23 28  1  0  0  0  0
 26  9  1  0  0  0  0
 27  2  1  0  0  0  0
 27  5  2  0  0  0  0
 28  9  1  0  0  0  0
 28  6  2  0  0  0  0
 29 20  1  0  0  0  0
 30 29  1  0  0  0  0
 30 31  1  0  0  0  0
 32 30  2  0  0  0  0
M  END
>  <MODEL>
6

>  <REMARK>
 VINA RESULT:      -8.1      2.658      8.146
  Name = 
  2 active torsions:
  status: ('A' for Active; 'I' for Inactive)
    1  A    between atoms: C_20  and  C_29
    2  A    between atoms: C_29  and  C_30
                            x       y       z     vdW  Elec       q    Type
                         _______ _______ _______ _____ _____    ______ ____

>  <TORSDO>
F 2

$$$$
=
 OpenBabel11112416343D

 32 38  0  0  1  0  0  0  0  0999 V2000
  185.8360  178.8530  142.5530 C   0  0  1  0  0  3  0  0  0  0  0  0
  189.3820  175.1030  143.4760 C   0  0  0  0  0  0  0  0  0  0  0  0
  191.4970  176.6680  147.5870 C   0  0  0  0  0  3  0  0  0  0  0  0
  192.2730  175.5100  147.6390 C   0  0  0  0  0  3  0  0  0  0  0  0
  190.0590  172.8970  142.5110 C   0  0  0  0  0  0  0  0  0  0  0  0
  190.8650  171.7630  142.6130 C   0  0  0  0  0  0  0  0  0  0  0  0
  187.2730  176.2910  142.7940 C   0  0  1  0  0  3  0  0  0  0  0  0
  188.7370  177.2770  144.4690 N   0  0  0  0  0  2  0  0  0  0  0  0
  192.4440  170.3850  143.5280 N   0  0  0  0  0  0  0  0  0  0  0  0
  186.8540  178.6710  143.6780 C   0  0  2  0  0  3  0  0  0  0  0  0
  190.5930  176.8540  146.5400 C   0  0  0  0  0  3  0  0  0  0  0  0
  189.5430  176.0840  144.4870 C   0  0  0  0  0  0  0  0  0  0  0  0
  190.4530  175.8850  145.5340 C   0  0  0  0  0  0  0  0  0  0  0  0
  191.1010  173.7310  144.5790 C   0  0  0  0  0  0  0  0  0  0  0  0
  191.9900  169.6760  142.3380 C   0  0  0  0  0  3  0  0  0  0  0  0
  186.0710  177.8990  141.3550 C   0  0  0  0  0  2  0  0  0  0  0  0
  187.8850  177.5850  143.3320 C   0  0  2  0  0  3  0  0  0  0  0  0
  190.9190  170.5850  141.6960 C   0  0  0  0  0  3  0  0  0  0  0  0
  186.2870  176.4890  141.7210 N   0  0  0  0  0  2  0  0  0  0  0  0
  185.4290  178.1530  143.8420 C   0  0  1  0  0  3  0  0  0  0  0  0
  192.1430  174.5390  146.6460 C   0  0  0  0  0  3  0  0  0  0  0  0
  191.2360  174.7090  145.5830 C   0  0  0  0  0  0  0  0  0  0  0  0
  191.8890  172.5620  144.6310 C   0  0  0  0  0  3  0  0  0  0  0  0
  188.4040  175.3760  142.3480 C   0  0  0  0  0  2  0  0  0  0  0  0
  189.1760  172.9850  141.4390 O   0  0  0  0  0  1  0  0  0  0  0  0
  193.4560  169.8960  144.4470 C   0  0  0  0  0  1  0  0  0  0  0  0
  190.1660  173.9170  143.5060 C   0  0  0  0  0  0  0  0  0  0  0  0
  191.7460  171.6060  143.6360 C   0  0  0  0  0  0  0  0  0  0  0  0
  184.6460  179.1170  144.7110 C   0  0  0  0  0  2  0  0  0  0  0  0
  184.7510  178.7130  146.1400 C   0  0  0  0  0  0  0  0  0  0  0  0
  185.6530  179.3910  147.0060 N   0  0  0  0  0  1  0  0  0  0  0  0
  184.0670  177.7500  146.5730 O   0  0  0  0  0  0  0  0  0  0  0  0
  1 16  1  6  0  0  0
  1 10  1  0  0  0  0
  1 20  1  0  0  0  0
  2 27  2  0  0  0  0
  2 12  1  0  0  0  0
  3  4  1  0  0  0  0
  5  6  2  0  0  0  0
  5 27  1  0  0  0  0
  6 28  1  0  0  0  0
  7 24  1  6  0  0  0
  7 17  1  0  0  0  0
  8 12  1  0  0  0  0
  9 28  1  0  0  0  0
  9 26  1  0  0  0  0
 10 20  1  0  0  0  0
 11  3  2  0  0  0  0
 12 13  2  0  0  0  0
 13 22  1  0  0  0  0
 13 11  1  0  0  0  0
 14 23  1  0  0  0  0
 14 22  2  0  0  0  0
 15  9  1  0  0  0  0
 16 19  1  0  0  0  0
 17 10  1  0  0  0  0
 17  8  1  0  0  0  0
 18 15  2  0  0  0  0
 18  6  1  0  0  0  0
 19  7  1  0  0  0  0
 20 29  1  0  0  0  0
 21  4  2  0  0  0  0
 22 21  1  0  0  0  0
 24  2  1  0  0  0  0
 25  5  1  0  0  0  0
 27 14  1  0  0  0  0
 28 23  2  0  0  0  0
 29 30  1  0  0  0  0
 30 32  2  0  0  0  0
 30 31  1  0  0  0  0
M  END
>  <MODEL>
7

>  <REMARK>
 VINA RESULT:      -8.1      1.354      1.570
  Name = 
  2 active torsions:
  status: ('A' for Active; 'I' for Inactive)
    1  A    between atoms: C_20  and  C_29
    2  A    between atoms: C_29  and  C_30
                            x       y       z     vdW  Elec       q    Type
                         _______ _______ _______ _____ _____    ______ ____

>  <TORSDO>
F 2

$$$$
=
 OpenBabel11112416343D

 32 38  0  0  1  0  0  0  0  0999 V2000
  194.4190  173.0900  141.6440 C   0  0  1  0  0  3  0  0  0  0  0  0
  190.2350  175.6740  143.4630 C   0  0  0  0  0  0  0  0  0  0  0  0
  191.6070  176.7910  148.0130 C   0  0  0  0  0  3  0  0  0  0  0  0
  190.4240  177.5030  148.2050 C   0  0  0  0  0  3  0  0  0  0  0  0
  188.0350  176.5000  142.6080 C   0  0  0  0  0  0  0  0  0  0  0  0
  186.8680  177.2210  142.8600 C   0  0  0  0  0  0  0  0  0  0  0  0
  192.0400  174.8060  141.9440 C   0  0  1  0  0  3  0  0  0  0  0  0
  192.4070  174.8820  144.3480 N   0  0  0  0  0  2  0  0  0  0  0  0
  185.4050  178.4910  144.0770 N   0  0  0  0  0  0  0  0  0  0  0  0
  194.1380  173.7470  142.9950 C   0  0  2  0  0  3  0  0  0  0  0  0
  191.8500  176.1590  146.7930 C   0  0  0  0  0  3  0  0  0  0  0  0
  191.1670  175.5910  144.5290 C   0  0  0  0  0  0  0  0  0  0  0  0
  190.9130  176.2320  145.7490 C   0  0  0  0  0  0  0  0  0  0  0  0
  188.7680  177.0320  144.8970 C   0  0  0  0  0  0  0  0  0  0  0  0
  184.7500  178.3200  142.7860 C   0  0  0  0  0  3  0  0  0  0  0  0
  193.1550  172.9480  140.7590 C   0  0  0  0  0  2  0  0  0  0  0  0
  192.6490  174.0920  143.1520 C   0  0  2  0  0  3  0  0  0  0  0  0
  185.7180  177.4640  141.9390 C   0  0  0  0  0  3  0  0  0  0  0  0
  192.3330  174.1660  140.6530 N   0  0  0  0  0  2  0  0  0  0  0  0
  194.8490  174.5280  141.8960 C   0  0  1  0  0  3  0  0  0  0  0  0
  189.4840  177.5830  147.1760 C   0  0  0  0  0  3  0  0  0  0  0  0
  189.7120  176.9530  145.9380 C   0  0  0  0  0  0  0  0  0  0  0  0
  187.5690  177.7500  145.0940 C   0  0  0  0  0  3  0  0  0  0  0  0
  190.5430  174.9410  142.1710 C   0  0  0  0  0  2  0  0  0  0  0  0
  188.1940  175.9180  141.3540 O   0  0  0  0  0  1  0  0  0  0  0  0
  184.8530  179.2360  145.1940 C   0  0  0  0  0  1  0  0  0  0  0  0
  189.0190  176.3900  143.6390 C   0  0  0  0  0  0  0  0  0  0  0  0
  186.6470  177.8220  144.0600 C   0  0  0  0  0  0  0  0  0  0  0  0
  196.3360  174.5620  142.1920 C   0  0  0  0  0  2  0  0  0  0  0  0
  196.5930  175.3920  143.4000 C   0  0  0  0  0  0  0  0  0  0  0  0
  196.1860  176.7550  143.4270 N   0  0  0  0  0  1  0  0  0  0  0  0
  197.2000  174.8980  144.3860 O   0  0  0  0  0  0  0  0  0  0  0  0
  1 16  1  6  0  0  0
  1 20  1  0  0  0  0
  1 10  1  0  0  0  0
  2 27  2  0  0  0  0
  2 12  1  0  0  0  0
  3  4  1  0  0  0  0
  5  6  2  0  0  0  0
  5 27  1  0  0  0  0
  6 28  1  0  0  0  0
  7 24  1  1  0  0  0
  7 17  1  0  0  0  0
  8 12  1  0  0  0  0
  9 26  1  0  0  0  0
 10 17  1  0  0  0  0
 11  3  2  0  0  0  0
 12 13  2  0  0  0  0
 13 22  1  0  0  0  0
 13 11  1  0  0  0  0
 14 23  1  0  0  0  0
 14 22  2  0  0  0  0
 15  9  1  0  0  0  0
 17  8  1  0  0  0  0
 18 15  2  0  0  0  0
 18  6  1  0  0  0  0
 19 16  1  0  0  0  0
 19  7  1  0  0  0  0
 20 29  1  0  0  0  0
 20 10  1  0  0  0  0
 21  4  2  0  0  0  0
 22 21  1  0  0  0  0
 24  2  1  0  0  0  0
 25  5  1  0  0  0  0
 27 14  1  0  0  0  0
 28  9  1  0  0  0  0
 28 23  2  0  0  0  0
 29 30  1  0  0  0  0
 30 31  1  0  0  0  0
 30 32  2  0  0  0  0
M  END
>  <MODEL>
8

>  <REMARK>
 VINA RESULT:      -7.9      3.064      7.628
  Name = 
  2 active torsions:
  status: ('A' for Active; 'I' for Inactive)
    1  A    between atoms: C_20  and  C_29
    2  A    between atoms: C_29  and  C_30
                            x       y       z     vdW  Elec       q    Type
                         _______ _______ _______ _____ _____    ______ ____

>  <TORSDO>
F 2

$$$$
=
 OpenBabel11112416343D

 32 38  0  0  1  0  0  0  0  0999 V2000
  195.3510  174.5330  145.0820 C   0  0  1  0  0  3  0  0  0  0  0  0
  190.3960  176.2470  145.0630 C   0  0  0  0  0  0  0  0  0  0  0  0
  188.7120  174.4990  140.8280 C   0  0  0  0  0  3  0  0  0  0  0  0
  187.4410  174.9930  141.1190 C   0  0  0  0  0  3  0  0  0  0  0  0
  188.8370  177.4680  146.5930 C   0  0  0  0  0  0  0  0  0  0  0  0
  187.5480  177.9450  146.8250 C   0  0  0  0  0  0  0  0  0  0  0  0
  192.6180  175.3520  145.8260 C   0  0  1  0  0  3  0  0  0  0  0  0
  191.9010  175.0270  143.5240 N   0  0  0  0  0  2  0  0  0  0  0  0
  185.3360  178.3210  146.3810 N   0  0  0  0  0  0  0  0  0  0  0  0
  194.2170  174.3570  144.0720 C   0  0  2  0  0  3  0  0  0  0  0  0
  189.7580  174.6910  141.7320 C   0  0  0  0  0  3  0  0  0  0  0  0
  190.6040  175.5680  143.8360 C   0  0  0  0  0  0  0  0  0  0  0  0
  189.5450  175.3790  142.9370 C   0  0  0  0  0  0  0  0  0  0  0  0
  188.0370  176.5730  144.4440 C   0  0  0  0  0  0  0  0  0  0  0  0
  185.5540  178.9370  147.6850 C   0  0  0  0  0  3  0  0  0  0  0  0
  195.0520  175.6130  146.1530 C   0  0  0  0  0  2  0  0  0  0  0  0
  193.0540  175.3180  144.3600 C   0  0  2  0  0  3  0  0  0  0  0  0
  187.0440  178.6980  148.0130 C   0  0  0  0  0  3  0  0  0  0  0  0
  193.7240  175.5100  146.7820 N   0  0  0  0  0  2  0  0  0  0  0  0
  194.4480  173.3100  145.1560 C   0  0  1  0  0  3  0  0  0  0  0  0
  187.2160  175.6800  142.3130 C   0  0  0  0  0  3  0  0  0  0  0  0
  188.2590  175.8820  143.2370 C   0  0  0  0  0  0  0  0  0  0  0  0
  186.7510  177.0770  144.7340 C   0  0  0  0  0  3  0  0  0  0  0  0
  191.5790  176.4500  145.9910 C   0  0  0  0  0  2  0  0  0  0  0  0
  189.8100  177.6960  147.5610 O   0  0  0  0  0  1  0  0  0  0  0  0
  184.0660  178.3020  145.6760 C   0  0  0  0  0  1  0  0  0  0  0  0
  189.1090  176.7650  145.3780 C   0  0  0  0  0  0  0  0  0  0  0  0
  186.5450  177.7550  145.9270 C   0  0  0  0  0  0  0  0  0  0  0  0
  195.1680  172.1190  144.5540 C   0  0  0  0  0  2  0  0  0  0  0  0
  195.6790  171.2350  145.6370 C   0  0  0  0  0  0  0  0  0  0  0  0
  194.8670  170.1800  146.1370 N   0  0  0  0  0  1  0  0  0  0  0  0
  196.8170  171.4410  146.1320 O   0  0  0  0  0  0  0  0  0  0  0  0
  1 20  1  0  0  0  0
  1 16  1  1  0  0  0
  2 27  1  0  0  0  0
  2 24  1  0  0  0  0
  3  4  2  0  0  0  0
  3 11  1  0  0  0  0
  4 21  1  0  0  0  0
  5  6  1  0  0  0  0
  5 25  1  0  0  0  0
  6 18  1  0  0  0  0
  7 24  1  6  0  0  0
  7 19  1  0  0  0  0
  8 12  1  0  0  0  0
  8 17  1  0  0  0  0
  9 15  1  0  0  0  0
 10 17  1  0  0  0  0
 10  1  1  0  0  0  0
 10 20  1  0  0  0  0
 11 13  2  0  0  0  0
 12  2  2  0  0  0  0
 13 22  1  0  0  0  0
 13 12  1  0  0  0  0
 14 23  2  0  0  0  0
 14 27  1  0  0  0  0
 15 18  2  0  0  0  0
 16 19  1  0  0  0  0
 17  7  1  0  0  0  0
 21 22  2  0  0  0  0
 22 14  1  0  0  0  0
 23 28  1  0  0  0  0
 26  9  1  0  0  0  0
 27  5  2  0  0  0  0
 28  9  1  0  0  0  0
 28  6  2  0  0  0  0
 29 20  1  0  0  0  0
 29 30  1  0  0  0  0
 30 32  2  0  0  0  0
 30 31  1  0  0  0  0
M  END
>  <MODEL>
9

>  <REMARK>
 VINA RESULT:      -7.9      3.128      8.618
  Name = 
  2 active torsions:
  status: ('A' for Active; 'I' for Inactive)
    1  A    between atoms: C_20  and  C_29
    2  A    between atoms: C_29  and  C_30
                            x       y       z     vdW  Elec       q    Type
                         _______ _______ _______ _____ _____    ______ ____

>  <TORSDO>
F 2

$$$$
