=
 OpenBabel11112418063D

 34 41  0  0  1  0  0  0  0  0999 V2000
  189.0760  176.3040  142.6170 C   0  0  2  0  0  3  0  0  0  0  0  0
  191.4590  175.5780  142.4570 C   0  0  0  0  0  2  0  0  0  0  0  0
  184.4700  178.3470  146.6670 C   0  0  2  0  0  3  0  0  0  0  0  0
  187.0360  177.5850  143.1950 C   0  0  1  0  0  3  0  0  0  0  0  0
  186.7510  177.8630  145.7660 C   0  0  2  0  0  3  0  0  0  0  0  0
  186.3570  178.0850  148.1150 O   0  0  0  0  0  1  0  0  0  0  0  0
  184.1600  176.9840  146.6570 O   0  0  0  0  0  1  0  0  0  0  0  0
  184.8300  178.6740  144.1190 C   0  0  1  0  0  3  0  0  0  0  0  0
  190.4560  175.3150  144.6150 C   0  0  2  0  0  3  0  0  0  0  0  0
  192.1730  175.1800  147.1500 C   0  0  0  0  0  2  0  0  0  0  0  0
  188.1830  178.1860  145.8300 N   0  0  0  0  0  2  0  0  0  0  0  0
  185.9730  179.5030  144.1290 O   0  0  0  0  0  0  0  0  0  0  0  0
  190.1300  176.6220  145.3910 C   0  0  1  0  0  3  0  0  0  0  0  0
  192.4550  175.3750  143.3080 C   0  0  0  0  0  2  0  0  0  0  0  0
  186.2060  178.1340  144.3510 C   0  0  2  0  0  0  0  0  0  0  0  0
  184.0000  179.0070  145.3710 C   0  0  0  0  0  2  0  0  0  0  0  0
  192.7850  175.5350  145.8000 C   0  0  2  0  0  3  0  0  0  0  0  0
  188.1600  176.7130  143.7540 C   0  0  2  0  0  3  0  0  0  0  0  0
  185.9670  178.5700  146.8660 C   0  0  2  0  0  3  0  0  0  0  0  0
  188.9790  177.4690  144.8050 C   0  0  1  0  0  3  0  0  0  0  0  0
  187.0600  176.6050  141.1630 C   0  0  0  0  0  2  0  0  0  0  0  0
  191.2370  176.2850  147.6210 C   0  0  0  0  0  2  0  0  0  0  0  0
  186.2580  176.8210  142.3050 O   0  0  0  0  0  0  0  0  0  0  0  0
  189.9170  176.2740  146.8620 C   0  0  0  0  0  2  0  0  0  0  0  0
  191.9520  174.9490  144.6500 C   0  0  1  0  0  3  0  0  0  0  0  0
  188.2440  175.6830  141.4940 C   0  0  0  0  0  2  0  0  0  0  0  0
  190.1430  175.3220  143.1020 C   0  0  1  0  0  3  0  0  0  0  0  0
  194.2040  174.9880  145.7440 C   0  0  0  0  0  2  0  0  0  0  0  0
  194.1780  173.5920  145.7510 O   0  0  0  0  0  0  0  0  0  0  0  0
  197.0140  172.8500  146.4210 O   0  0  0  0  0  0  0  0  0  0  0  0
  195.3830  171.4130  144.9260 S   0  0  0  0  0  0  0  0  0  0  0  0
  195.2270  173.2120  144.9120 C   0  0  2  0  0  3  0  0  0  0  0  0
  196.9640  171.5950  145.8010 C   0  0  0  0  0  2  0  0  0  0  0  0
  196.5320  173.7460  145.4630 C   0  0  0  0  0  2  0  0  0  0  0  0
  1 26  1  6  0  0  0
  1 27  1  0  0  0  0
  1 18  1  0  0  0  0
  2 27  1  0  0  0  0
  2 14  1  0  0  0  0
  3  7  1  6  0  0  0
  3 19  1  0  0  0  0
  4 23  1  6  0  0  0
  4 18  1  0  0  0  0
  4 15  1  0  0  0  0
  5 11  1  6  0  0  0
  5 19  1  0  0  0  0
  8 12  1  0  0  0  0
  8 15  1  0  0  0  0
  8 16  1  1  0  0  0
  9 25  1  0  0  0  0
  9 13  1  0  0  0  0
 10 22  1  0  0  0  0
 12 15  1  0  0  0  0
 13 24  1  0  0  0  0
 14 25  1  0  0  0  0
 15  5  1  0  0  0  0
 16  3  1  0  0  0  0
 17 10  1  0  0  0  0
 18 20  1  0  0  0  0
 19  6  1  0  0  0  0
 20 13  1  0  0  0  0
 20 11  1  0  0  0  0
 21 26  1  0  0  0  0
 21 23  1  0  0  0  0
 24 22  1  0  0  0  0
 25 17  1  0  0  0  0
 27  9  1  0  0  0  0
 28 29  1  0  0  0  0
 28 17  1  0  0  0  0
 31 33  1  0  0  0  0
 32 31  1  0  0  0  0
 32 34  1  0  0  0  0
 32 29  1  0  0  0  0
 33 30  1  0  0  0  0
 34 30  1  0  0  0  0
M  END
>  <MODEL>
1

>  <REMARK>
 VINA RESULT:      -8.9      0.000      0.000
  Name = 
  3 active torsions:
  status: ('A' for Active; 'I' for Inactive)
    1  A    between atoms: C_17  and  C_28
    2  A    between atoms: C_28  and  O_29
    3  A    between atoms: O_29  and  C_32
                            x       y       z     vdW  Elec       q    Type
                         _______ _______ _______ _____ _____    ______ ____

>  <TORSDO>
F 3

$$$$
=
 OpenBabel11112418063D

 34 41  0  0  1  0  0  0  0  0999 V2000
  192.1320  176.7070  145.4380 C   0  0  2  0  0  3  0  0  0  0  0  0
  189.7540  177.4640  145.4340 C   0  0  0  0  0  2  0  0  0  0  0  0
  196.5420  173.2350  142.2290 C   0  0  2  0  0  3  0  0  0  0  0  0
  194.4390  176.1790  144.7040 C   0  0  1  0  0  3  0  0  0  0  0  0
  194.4720  174.5690  142.6610 C   0  0  2  0  0  3  0  0  0  0  0  0
  194.6010  173.0170  140.8450 O   0  0  0  0  0  1  0  0  0  0  0  0
  196.1250  172.2630  143.1420 O   0  0  0  0  0  1  0  0  0  0  0  0
  196.7440  175.2360  143.8670 C   0  0  1  0  0  3  0  0  0  0  0  0
  190.1850  175.4560  144.2040 C   0  0  2  0  0  3  0  0  0  0  0  0
  188.3060  174.5400  141.9630 C   0  0  0  0  0  2  0  0  0  0  0  0
  193.4020  175.3870  142.0740 N   0  0  0  0  0  2  0  0  0  0  0  0
  196.1820  176.2650  143.0810 O   0  0  0  0  0  0  0  0  0  0  0  0
  191.0130  175.6090  142.8970 C   0  0  1  0  0  3  0  0  0  0  0  0
  188.6850  177.2540  144.6780 C   0  0  0  0  0  2  0  0  0  0  0  0
  195.2660  175.3910  143.6940 C   0  0  2  0  0  0  0  0  0  0  0  0
  197.4500  174.2540  142.9160 C   0  0  0  0  0  2  0  0  0  0  0  0
  188.1450  175.9060  142.6210 C   0  0  2  0  0  3  0  0  0  0  0  0
  192.9650  175.8050  144.5470 C   0  0  2  0  0  3  0  0  0  0  0  0
  195.3470  173.9350  141.5850 C   0  0  2  0  0  3  0  0  0  0  0  0
  192.5020  175.9720  143.0970 C   0  0  1  0  0  3  0  0  0  0  0  0
  194.2040  176.8930  146.8320 C   0  0  0  0  0  2  0  0  0  0  0  0
  189.5950  174.4830  141.1560 C   0  0  0  0  0  2  0  0  0  0  0  0
  194.8420  175.9230  146.0280 O   0  0  0  0  0  0  0  0  0  0  0  0
  190.8210  174.3540  142.0500 C   0  0  0  0  0  2  0  0  0  0  0  0
  188.7180  175.9000  144.0450 C   0  0  1  0  0  3  0  0  0  0  0  0
  192.6850  176.6620  146.8630 C   0  0  0  0  0  2  0  0  0  0  0  0
  190.6620  176.2870  145.4160 C   0  0  1  0  0  3  0  0  0  0  0  0
  186.6650  176.2620  142.6590 C   0  0  0  0  0  2  0  0  0  0  0  0
  186.2690  176.7850  141.4260 O   0  0  0  0  0  0  0  0  0  0  0  0
  183.5220  177.9620  141.0960 O   0  0  0  0  0  0  0  0  0  0  0  0
  184.9540  178.0490  143.3110 S   0  0  0  0  0  0  0  0  0  0  0  0
  185.8030  178.0690  141.7170 C   0  0  2  0  0  3  0  0  0  0  0  0
  183.3890  178.3470  142.4370 C   0  0  0  0  0  2  0  0  0  0  0  0
  184.7600  178.4700  140.6960 C   0  0  0  0  0  2  0  0  0  0  0  0
  1 26  1  1  0  0  0
  3 16  1  0  0  0  0
  3  7  1  1  0  0  0
  4 23  1  1  0  0  0
  5 11  1  6  0  0  0
  5 15  1  0  0  0  0
  6 19  1  0  0  0  0
  8 16  1  6  0  0  0
  9 27  1  0  0  0  0
 10 17  1  0  0  0  0
 11 20  1  0  0  0  0
 12 15  1  0  0  0  0
 12  8  1  0  0  0  0
 13 20  1  0  0  0  0
 13  9  1  0  0  0  0
 14  2  1  0  0  0  0
 15  8  1  0  0  0  0
 15  4  1  0  0  0  0
 17 28  1  0  0  0  0
 17 25  1  0  0  0  0
 18  4  1  0  0  0  0
 18  1  1  0  0  0  0
 19  3  1  0  0  0  0
 19  5  1  0  0  0  0
 20 18  1  0  0  0  0
 21 26  1  0  0  0  0
 22 10  1  0  0  0  0
 22 24  1  0  0  0  0
 23 21  1  0  0  0  0
 24 13  1  0  0  0  0
 25  9  1  0  0  0  0
 25 14  1  0  0  0  0
 27  2  1  0  0  0  0
 27  1  1  0  0  0  0
 29 32  1  0  0  0  0
 29 28  1  0  0  0  0
 30 33  1  0  0  0  0
 32 31  1  0  0  0  0
 33 31  1  0  0  0  0
 34 30  1  0  0  0  0
 34 32  1  0  0  0  0
M  END
>  <MODEL>
2

>  <REMARK>
 VINA RESULT:      -8.1      3.543      9.395
  Name = 
  3 active torsions:
  status: ('A' for Active; 'I' for Inactive)
    1  A    between atoms: C_17  and  C_28
    2  A    between atoms: C_28  and  O_29
    3  A    between atoms: O_29  and  C_32
                            x       y       z     vdW  Elec       q    Type
                         _______ _______ _______ _____ _____    ______ ____

>  <TORSDO>
F 3

$$$$
=
 OpenBabel11112418063D

 34 41  0  0  1  0  0  0  0  0999 V2000
  192.1400  172.9940  144.6220 C   0  0  2  0  0  3  0  0  0  0  0  0
  190.0230  173.6460  145.7740 C   0  0  0  0  0  2  0  0  0  0  0  0
  197.0300  175.1700  140.9980 C   0  0  2  0  0  3  0  0  0  0  0  0
  194.4850  172.9920  143.8250 C   0  0  1  0  0  3  0  0  0  0  0  0
  195.0990  175.1950  142.5850 C   0  0  2  0  0  3  0  0  0  0  0  0
  195.7240  177.1450  141.3470 O   0  0  0  0  0  1  0  0  0  0  0  0
  196.2070  174.6830  139.9790 O   0  0  0  0  0  1  0  0  0  0  0  0
  196.8240  173.1750  142.6410 C   0  0  1  0  0  3  0  0  0  0  0  0
  190.6640  175.0540  143.9460 C   0  0  2  0  0  3  0  0  0  0  0  0
  189.6570  177.9420  143.7460 C   0  0  0  0  0  2  0  0  0  0  0  0
  194.4130  175.9230  143.6610 N   0  0  0  0  0  2  0  0  0  0  0  0
  196.7020  173.8660  143.8660 O   0  0  0  0  0  0  0  0  0  0  0  0
  191.9260  175.9350  144.1610 C   0  0  1  0  0  3  0  0  0  0  0  0
  189.2920  174.7480  145.8780 C   0  0  0  0  0  2  0  0  0  0  0  0
  195.5390  173.8030  143.0780 C   0  0  2  0  0  0  0  0  0  0  0  0
  197.7240  174.0140  141.7170 C   0  0  0  0  0  2  0  0  0  0  0  0
  189.4090  177.1030  144.9950 C   0  0  2  0  0  3  0  0  0  0  0  0
  193.1420  173.7180  143.7440 C   0  0  2  0  0  3  0  0  0  0  0  0
  196.2370  176.0170  141.9900 C   0  0  2  0  0  3  0  0  0  0  0  0
  193.2660  175.1680  144.2220 C   0  0  1  0  0  3  0  0  0  0  0  0
  193.5590  170.9720  144.2160 C   0  0  0  0  0  2  0  0  0  0  0  0
  191.1390  178.2530  143.5960 C   0  0  0  0  0  2  0  0  0  0  0  0
  194.3420  171.6970  143.2920 O   0  0  0  0  0  0  0  0  0  0  0  0
  191.9290  177.0440  143.1120 C   0  0  0  0  0  2  0  0  0  0  0  0
  189.4140  175.6050  144.6590 C   0  0  1  0  0  3  0  0  0  0  0  0
  192.1200  171.5100  144.2530 C   0  0  0  0  0  2  0  0  0  0  0  0
  190.7450  173.6040  144.4740 C   0  0  1  0  0  3  0  0  0  0  0  0
  188.0660  177.4970  145.5930 C   0  0  0  0  0  2  0  0  0  0  0  0
  187.2570  178.0730  144.6110 O   0  0  0  0  0  0  0  0  0  0  0  0
  185.0390  178.4940  146.5970 O   0  0  0  0  0  0  0  0  0  0  0  0
  184.7370  178.4310  143.9760 S   0  0  0  0  0  0  0  0  0  0  0  0
  186.0280  177.4210  144.7340 C   0  0  2  0  0  3  0  0  0  0  0  0
  184.0500  178.7250  145.6320 C   0  0  0  0  0  2  0  0  0  0  0  0
  185.6620  177.3080  146.1980 C   0  0  0  0  0  2  0  0  0  0  0  0
  1 26  1  6  0  0  0
  2 14  1  0  0  0  0
  3  7  1  6  0  0  0
  3 16  1  0  0  0  0
  3 19  1  0  0  0  0
  4 23  1  6  0  0  0
  5 15  1  0  0  0  0
  5 11  1  1  0  0  0
  6 19  1  0  0  0  0
  8 16  1  6  0  0  0
  8 15  1  0  0  0  0
  8 12  1  0  0  0  0
  9 13  1  0  0  0  0
  9 27  1  0  0  0  0
  9 25  1  0  0  0  0
 10 17  1  0  0  0  0
 11 20  1  0  0  0  0
 13 20  1  0  0  0  0
 15  4  1  0  0  0  0
 15 12  1  0  0  0  0
 17 28  1  0  0  0  0
 18  4  1  0  0  0  0
 18 20  1  0  0  0  0
 18  1  1  0  0  0  0
 19  5  1  0  0  0  0
 21 26  1  0  0  0  0
 22 10  1  0  0  0  0
 23 21  1  0  0  0  0
 24 22  1  0  0  0  0
 24 13  1  0  0  0  0
 25 17  1  0  0  0  0
 25 14  1  0  0  0  0
 27  1  1  0  0  0  0
 27  2  1  0  0  0  0
 29 32  1  0  0  0  0
 29 28  1  0  0  0  0
 31 32  1  0  0  0  0
 31 33  1  0  0  0  0
 32 34  1  0  0  0  0
 33 30  1  0  0  0  0
 34 30  1  0  0  0  0
M  END
>  <MODEL>
3

>  <REMARK>
 VINA RESULT:      -8.0      3.609      9.183
  Name = 
  3 active torsions:
  status: ('A' for Active; 'I' for Inactive)
    1  A    between atoms: C_17  and  C_28
    2  A    between atoms: C_28  and  O_29
    3  A    between atoms: O_29  and  C_32
                            x       y       z     vdW  Elec       q    Type
                         _______ _______ _______ _____ _____    ______ ____

>  <TORSDO>
F 3

$$$$
=
 OpenBabel11112418063D

 34 41  0  0  1  0  0  0  0  0999 V2000
  190.8990  172.6680  142.5310 C   0  0  2  0  0  3  0  0  0  0  0  0
  188.5900  173.4070  141.9370 C   0  0  0  0  0  2  0  0  0  0  0  0
  196.3260  174.3630  145.6080 C   0  0  2  0  0  3  0  0  0  0  0  0
  192.9660  172.1950  143.8110 C   0  0  1  0  0  3  0  0  0  0  0  0
  193.9090  174.3240  144.9700 C   0  0  2  0  0  3  0  0  0  0  0  0
  194.9010  176.2470  145.9920 O   0  0  0  0  0  1  0  0  0  0  0  0
  196.6770  174.7630  144.3160 O   0  0  0  0  0  1  0  0  0  0  0  0
  195.2920  172.0570  145.0260 C   0  0  1  0  0  3  0  0  0  0  0  0
  190.1370  175.1750  142.4030 C   0  0  2  0  0  3  0  0  0  0  0  0
  189.1580  177.9420  143.2820 C   0  0  0  0  0  2  0  0  0  0  0  0
  192.5340  174.6390  145.3790 N   0  0  0  0  0  2  0  0  0  0  0  0
  194.1610  172.0660  145.8700 O   0  0  0  0  0  0  0  0  0  0  0  0
  190.6040  175.3150  143.8790 C   0  0  1  0  0  3  0  0  0  0  0  0
  187.8640  174.5030  142.1100 C   0  0  0  0  0  2  0  0  0  0  0  0
  194.0500  172.8170  144.6860 C   0  0  2  0  0  0  0  0  0  0  0  0
  196.4100  172.8420  145.7340 C   0  0  0  0  0  2  0  0  0  0  0  0
  188.1980  176.7640  143.1670 C   0  0  2  0  0  3  0  0  0  0  0  0
  192.0660  173.3020  143.2640 C   0  0  2  0  0  3  0  0  0  0  0  0
  194.9270  174.8520  145.9760 C   0  0  2  0  0  3  0  0  0  0  0  0
  191.5250  174.1850  144.3920 C   0  0  1  0  0  3  0  0  0  0  0  0
  192.4460  170.7320  142.1740 C   0  0  0  0  0  2  0  0  0  0  0  0
  190.1400  177.7230  144.4240 C   0  0  0  0  0  2  0  0  0  0  0  0
  193.5120  171.4690  142.7350 O   0  0  0  0  0  0  0  0  0  0  0  0
  191.2120  176.7030  144.0660 C   0  0  0  0  0  2  0  0  0  0  0  0
  188.7190  175.7270  142.1620 C   0  0  1  0  0  3  0  0  0  0  0  0
  191.4290  171.6680  141.5020 C   0  0  0  0  0  2  0  0  0  0  0  0
  190.0390  173.7340  141.8520 C   0  0  1  0  0  3  0  0  0  0  0  0
  186.8380  177.2810  142.7210 C   0  0  0  0  0  2  0  0  0  0  0  0
  185.8640  176.9310  143.6590 O   0  0  0  0  0  0  0  0  0  0  0  0
  184.1460  179.1630  144.7120 O   0  0  0  0  0  0  0  0  0  0  0  0
  185.1520  177.2060  146.1690 S   0  0  0  0  0  0  0  0  0  0  0  0
  186.0770  177.7960  144.7340 C   0  0  2  0  0  3  0  0  0  0  0  0
  184.0670  178.6550  146.0160 C   0  0  0  0  0  2  0  0  0  0  0  0
  185.5090  179.1590  144.4060 C   0  0  0  0  0  2  0  0  0  0  0  0
  1 26  1  6  0  0  0
  1 18  1  0  0  0  0
  2 14  1  0  0  0  0
  3  7  1  6  0  0  0
  3 16  1  0  0  0  0
  3 19  1  0  0  0  0
  4 23  1  6  0  0  0
  4 15  1  0  0  0  0
  5 11  1  1  0  0  0
  5 19  1  0  0  0  0
  8 16  1  1  0  0  0
  8 12  1  0  0  0  0
  9 13  1  0  0  0  0
 10 22  1  0  0  0  0
 13 24  1  0  0  0  0
 13 20  1  0  0  0  0
 14 25  1  0  0  0  0
 15  5  1  0  0  0  0
 15  8  1  0  0  0  0
 15 12  1  0  0  0  0
 17 10  1  0  0  0  0
 18  4  1  0  0  0  0
 18 20  1  0  0  0  0
 19  6  1  0  0  0  0
 20 11  1  0  0  0  0
 21 23  1  0  0  0  0
 24 22  1  0  0  0  0
 25  9  1  0  0  0  0
 25 17  1  0  0  0  0
 26 21  1  0  0  0  0
 27  2  1  0  0  0  0
 27  9  1  0  0  0  0
 27  1  1  0  0  0  0
 28 17  1  0  0  0  0
 28 29  1  0  0  0  0
 29 32  1  0  0  0  0
 30 33  1  0  0  0  0
 32 31  1  0  0  0  0
 33 31  1  0  0  0  0
 34 30  1  0  0  0  0
 34 32  1  0  0  0  0
M  END
>  <MODEL>
4

>  <REMARK>
 VINA RESULT:      -7.9      2.951      8.714
  Name = 
  3 active torsions:
  status: ('A' for Active; 'I' for Inactive)
    1  A    between atoms: C_17  and  C_28
    2  A    between atoms: C_28  and  O_29
    3  A    between atoms: O_29  and  C_32
                            x       y       z     vdW  Elec       q    Type
                         _______ _______ _______ _____ _____    ______ ____

>  <TORSDO>
F 3

$$$$
=
 OpenBabel11112418063D

 34 41  0  0  1  0  0  0  0  0999 V2000
  192.0810  176.4920  145.2150 C   0  0  2  0  0  3  0  0  0  0  0  0
  189.8500  177.6100  145.2750 C   0  0  0  0  0  2  0  0  0  0  0  0
  195.7450  172.2560  141.9870 C   0  0  2  0  0  3  0  0  0  0  0  0
  194.2410  175.5840  144.4120 C   0  0  1  0  0  3  0  0  0  0  0  0
  193.9280  173.9120  142.4440 C   0  0  2  0  0  3  0  0  0  0  0  0
  193.7300  172.2900  140.6960 O   0  0  0  0  0  1  0  0  0  0  0  0
  195.2270  171.3970  142.9590 O   0  0  0  0  0  1  0  0  0  0  0  0
  196.3310  174.2610  143.5230 C   0  0  1  0  0  3  0  0  0  0  0  0
  189.9080  175.5140  144.1200 C   0  0  2  0  0  3  0  0  0  0  0  0
  187.8050  174.8180  142.0020 C   0  0  0  0  0  2  0  0  0  0  0  0
  192.9710  174.8630  141.8650 N   0  0  0  0  0  2  0  0  0  0  0  0
  195.8970  175.3350  142.7160 O   0  0  0  0  0  0  0  0  0  0  0  0
  190.6870  175.4870  142.7750 C   0  0  1  0  0  3  0  0  0  0  0  0
  188.7270  177.5400  144.5740 C   0  0  0  0  0  2  0  0  0  0  0  0
  194.8880  174.6390  143.4050 C   0  0  2  0  0  0  0  0  0  0  0  0
  196.8320  173.1460  142.5890 C   0  0  0  0  0  2  0  0  0  0  0  0
  187.8880  176.2160  142.6030 C   0  0  2  0  0  3  0  0  0  0  0  0
  192.7210  175.4380  144.3320 C   0  0  2  0  0  3  0  0  0  0  0  0
  194.6430  173.1090  141.3620 C   0  0  2  0  0  3  0  0  0  0  0  0
  192.2210  175.6210  142.8970 C   0  0  1  0  0  3  0  0  0  0  0  0
  194.2210  176.4060  146.5130 C   0  0  0  0  0  2  0  0  0  0  0  0
  189.0310  174.5300  141.1460 C   0  0  0  0  0  2  0  0  0  0  0  0
  194.6620  175.3190  145.7280 O   0  0  0  0  0  0  0  0  0  0  0  0
  190.2630  174.2460  141.9940 C   0  0  0  0  0  2  0  0  0  0  0  0
  188.5210  176.1750  144.0020 C   0  0  1  0  0  3  0  0  0  0  0  0
  192.6870  176.4160  146.6170 C   0  0  0  0  0  2  0  0  0  0  0  0
  190.5640  176.3060  145.2730 C   0  0  1  0  0  3  0  0  0  0  0  0
  186.4850  176.7990  142.6860 C   0  0  0  0  0  2  0  0  0  0  0  0
  185.9260  176.5220  143.9360 O   0  0  0  0  0  0  0  0  0  0  0  0
  185.8030  178.9300  145.7320 O   0  0  0  0  0  0  0  0  0  0  0  0
  185.3280  178.9480  143.1370 S   0  0  0  0  0  0  0  0  0  0  0  0
  184.9150  177.4720  144.0930 C   0  0  2  0  0  3  0  0  0  0  0  0
  185.5660  179.8450  144.6980 C   0  0  0  0  0  2  0  0  0  0  0  0
  184.8600  177.9160  145.5390 C   0  0  0  0  0  2  0  0  0  0  0  0
  1 27  1  0  0  0  0
  1 26  1  1  0  0  0
  3 16  1  0  0  0  0
  3  7  1  1  0  0  0
  4 23  1  1  0  0  0
  5 11  1  6  0  0  0
  5 15  1  0  0  0  0
  6 19  1  0  0  0  0
  8 16  1  6  0  0  0
  9 27  1  0  0  0  0
 10 17  1  0  0  0  0
 11 20  1  0  0  0  0
 12 15  1  0  0  0  0
 12  8  1  0  0  0  0
 13 20  1  0  0  0  0
 13  9  1  0  0  0  0
 14  2  1  0  0  0  0
 15  8  1  0  0  0  0
 15  4  1  0  0  0  0
 17 28  1  0  0  0  0
 17 25  1  0  0  0  0
 18  4  1  0  0  0  0
 18  1  1  0  0  0  0
 19  3  1  0  0  0  0
 19  5  1  0  0  0  0
 20 18  1  0  0  0  0
 21 26  1  0  0  0  0
 22 24  1  0  0  0  0
 22 10  1  0  0  0  0
 23 21  1  0  0  0  0
 24 13  1  0  0  0  0
 25  9  1  0  0  0  0
 25 14  1  0  0  0  0
 27  2  1  0  0  0  0
 28 29  1  0  0  0  0
 29 32  1  0  0  0  0
 31 32  1  0  0  0  0
 31 33  1  0  0  0  0
 32 34  1  0  0  0  0
 33 30  1  0  0  0  0
 34 30  1  0  0  0  0
M  END
>  <MODEL>
5

>  <REMARK>
 VINA RESULT:      -7.9      3.190      9.116
  Name = 
  3 active torsions:
  status: ('A' for Active; 'I' for Inactive)
    1  A    between atoms: C_17  and  C_28
    2  A    between atoms: C_28  and  O_29
    3  A    between atoms: O_29  and  C_32
                            x       y       z     vdW  Elec       q    Type
                         _______ _______ _______ _____ _____    ______ ____

>  <TORSDO>
F 3

$$$$
=
 OpenBabel11112418063D

 34 41  0  0  1  0  0  0  0  0999 V2000
  192.5660  175.9650  145.2700 C   0  0  2  0  0  3  0  0  0  0  0  0
  190.3700  176.9440  145.9420 C   0  0  0  0  0  2  0  0  0  0  0  0
  195.6800  172.7710  140.5900 C   0  0  2  0  0  3  0  0  0  0  0  0
  194.5730  175.3630  143.9480 C   0  0  1  0  0  3  0  0  0  0  0  0
  193.9550  174.1950  141.7080 C   0  0  2  0  0  3  0  0  0  0  0  0
  193.4850  173.0280  139.6730 O   0  0  0  0  0  1  0  0  0  0  0  0
  195.3270  171.6850  141.3950 O   0  0  0  0  0  1  0  0  0  0  0  0
  196.4980  174.3760  142.4560 C   0  0  1  0  0  3  0  0  0  0  0  0
  190.2490  175.1860  144.3200 C   0  0  2  0  0  3  0  0  0  0  0  0
  187.8370  174.9260  142.4470 C   0  0  0  0  0  2  0  0  0  0  0  0
  192.9140  175.2160  141.5300 N   0  0  0  0  0  2  0  0  0  0  0  0
  195.9380  175.5920  142.0070 O   0  0  0  0  0  0  0  0  0  0  0  0
  190.8030  175.5110  142.9050 C   0  0  1  0  0  3  0  0  0  0  0  0
  189.1500  176.9960  145.4260 C   0  0  0  0  0  2  0  0  0  0  0  0
  195.0540  174.7120  142.6550 C   0  0  2  0  0  0  0  0  0  0  0  0
  196.8460  173.5360  141.2150 C   0  0  0  0  0  2  0  0  0  0  0  0
  188.0110  176.1440  143.3480 C   0  0  2  0  0  3  0  0  0  0  0  0
  193.0610  175.1780  144.0720 C   0  0  2  0  0  3  0  0  0  0  0  0
  194.4900  173.7020  140.3670 C   0  0  2  0  0  3  0  0  0  0  0  0
  192.3370  175.6750  142.8170 C   0  0  1  0  0  3  0  0  0  0  0  0
  194.8860  175.6610  146.1630 C   0  0  0  0  0  2  0  0  0  0  0  0
  188.9110  174.9000  141.3690 C   0  0  0  0  0  2  0  0  0  0  0  0
  195.2000  174.8100  145.0810 O   0  0  0  0  0  0  0  0  0  0  0  0
  190.2640  174.4740  141.9230 C   0  0  0  0  0  2  0  0  0  0  0  0
  188.8590  175.7980  144.5810 C   0  0  1  0  0  3  0  0  0  0  0  0
  193.3890  175.5830  146.5020 C   0  0  0  0  0  2  0  0  0  0  0  0
  191.0790  175.7070  145.5150 C   0  0  1  0  0  3  0  0  0  0  0  0
  186.6370  176.6330  143.7840 C   0  0  0  0  0  2  0  0  0  0  0  0
  186.4230  177.9320  143.3190 O   0  0  0  0  0  0  0  0  0  0  0  0
  184.0140  179.4360  144.3070 O   0  0  0  0  0  0  0  0  0  0  0  0
  185.4180  177.7160  145.7320 S   0  0  0  0  0  0  0  0  0  0  0  0
  186.2580  178.7010  144.4730 C   0  0  2  0  0  3  0  0  0  0  0  0
  183.9650  178.7910  145.5500 C   0  0  0  0  0  2  0  0  0  0  0  0
  185.3380  179.8650  144.1750 C   0  0  0  0  0  2  0  0  0  0  0  0
  1 27  1  0  0  0  0
  1 26  1  1  0  0  0
  3 16  1  0  0  0  0
  3  7  1  1  0  0  0
  4 18  1  0  0  0  0
  4 23  1  1  0  0  0
  5 11  1  6  0  0  0
  5 15  1  0  0  0  0
  6 19  1  0  0  0  0
  8 16  1  6  0  0  0
  8 15  1  0  0  0  0
  9 25  1  0  0  0  0
  9 27  1  0  0  0  0
 10 17  1  0  0  0  0
 11 20  1  0  0  0  0
 12  8  1  0  0  0  0
 12 15  1  0  0  0  0
 13  9  1  0  0  0  0
 14  2  1  0  0  0  0
 15  4  1  0  0  0  0
 17 28  1  0  0  0  0
 17 25  1  0  0  0  0
 18  1  1  0  0  0  0
 19  3  1  0  0  0  0
 19  5  1  0  0  0  0
 20 13  1  0  0  0  0
 20 18  1  0  0  0  0
 21 26  1  0  0  0  0
 22 24  1  0  0  0  0
 22 10  1  0  0  0  0
 23 21  1  0  0  0  0
 24 13  1  0  0  0  0
 25 14  1  0  0  0  0
 27  2  1  0  0  0  0
 29 28  1  0  0  0  0
 29 32  1  0  0  0  0
 30 33  1  0  0  0  0
 32 31  1  0  0  0  0
 33 31  1  0  0  0  0
 34 30  1  0  0  0  0
 34 32  1  0  0  0  0
M  END
>  <MODEL>
6

>  <REMARK>
 VINA RESULT:      -7.8      3.326      9.290
  Name = 
  3 active torsions:
  status: ('A' for Active; 'I' for Inactive)
    1  A    between atoms: C_17  and  C_28
    2  A    between atoms: C_28  and  O_29
    3  A    between atoms: O_29  and  C_32
                            x       y       z     vdW  Elec       q    Type
                         _______ _______ _______ _____ _____    ______ ____

>  <TORSDO>
F 3

$$$$
=
 OpenBabel11112418063D

 34 41  0  0  1  0  0  0  0  0999 V2000
  195.0660  175.1770  145.1550 C   0  0  2  0  0  3  0  0  0  0  0  0
  193.4830  176.0110  146.8960 C   0  0  0  0  0  2  0  0  0  0  0  0
  195.7920  174.0340  138.8340 C   0  0  2  0  0  3  0  0  0  0  0  0
  196.3910  174.9880  143.0700 C   0  0  1  0  0  3  0  0  0  0  0  0
  194.8850  175.0110  140.9490 C   0  0  2  0  0  3  0  0  0  0  0  0
  193.5750  174.9270  138.9490 O   0  0  0  0  0  1  0  0  0  0  0  0
  195.4060  172.7540  139.2420 O   0  0  0  0  0  1  0  0  0  0  0  0
  197.4910  174.5410  140.7260 C   0  0  1  0  0  3  0  0  0  0  0  0
  192.4560  175.1780  144.9000 C   0  0  2  0  0  3  0  0  0  0  0  0
  189.6350  176.0590  144.0870 C   0  0  0  0  0  2  0  0  0  0  0  0
  194.1430  176.1210  141.5600 N   0  0  0  0  0  2  0  0  0  0  0  0
  197.1670  175.8870  141.0040 O   0  0  0  0  0  0  0  0  0  0  0  0
  192.6560  176.0260  143.6120 C   0  0  1  0  0  3  0  0  0  0  0  0
  192.2260  176.4300  146.9210 C   0  0  0  0  0  2  0  0  0  0  0  0
  196.3010  174.9220  141.5490 C   0  0  2  0  0  0  0  0  0  0  0  0
  197.2450  174.3000  139.2260 C   0  0  0  0  0  2  0  0  0  0  0  0
  190.3680  176.7240  145.2470 C   0  0  2  0  0  3  0  0  0  0  0  0
  194.9800  174.9480  143.6580 C   0  0  2  0  0  3  0  0  0  0  0  0
  194.8740  175.1010  139.4260 C   0  0  2  0  0  3  0  0  0  0  0  0
  194.0910  176.0300  143.0390 C   0  0  1  0  0  3  0  0  0  0  0  0
  197.3790  174.2380  144.9550 C   0  0  0  0  0  2  0  0  0  0  0  0
  190.3180  176.3860  142.7660 C   0  0  0  0  0  2  0  0  0  0  0  0
  197.1420  173.9210  143.6000 O   0  0  0  0  0  0  0  0  0  0  0  0
  191.6110  175.6020  142.5840 C   0  0  0  0  0  2  0  0  0  0  0  0
  191.4060  175.7720  145.8580 C   0  0  1  0  0  3  0  0  0  0  0  0
  196.0710  174.1960  145.7610 C   0  0  0  0  0  2  0  0  0  0  0  0
  193.6940  175.0160  145.8100 C   0  0  1  0  0  3  0  0  0  0  0  0
  189.3500  177.1290  146.3030 C   0  0  0  0  0  2  0  0  0  0  0  0
  188.1640  177.5400  145.6910 O   0  0  0  0  0  0  0  0  0  0  0  0
  185.9010  179.0310  146.9930 O   0  0  0  0  0  0  0  0  0  0  0  0
  185.6430  176.8280  145.5640 S   0  0  0  0  0  0  0  0  0  0  0  0
  187.1490  177.0750  146.5290 C   0  0  2  0  0  3  0  0  0  0  0  0
  184.8920  178.2230  146.4520 C   0  0  0  0  0  2  0  0  0  0  0  0
  186.8160  178.1360  147.5550 C   0  0  0  0  0  2  0  0  0  0  0  0
  1 26  1  1  0  0  0
  1 27  1  0  0  0  0
  2 14  1  0  0  0  0
  3 16  1  0  0  0  0
  3  7  1  1  0  0  0
  3 19  1  0  0  0  0
  4 23  1  1  0  0  0
  4 18  1  0  0  0  0
  5 15  1  0  0  0  0
  5 11  1  1  0  0  0
  6 19  1  0  0  0  0
  8 16  1  6  0  0  0
  8 12  1  0  0  0  0
  8 15  1  0  0  0  0
  9 27  1  0  0  0  0
  9 25  1  0  0  0  0
 10 17  1  0  0  0  0
 11 20  1  0  0  0  0
 12 15  1  0  0  0  0
 13  9  1  0  0  0  0
 15  4  1  0  0  0  0
 17 25  1  0  0  0  0
 17 28  1  0  0  0  0
 18  1  1  0  0  0  0
 19  5  1  0  0  0  0
 20 13  1  0  0  0  0
 20 18  1  0  0  0  0
 21 26  1  0  0  0  0
 22 10  1  0  0  0  0
 23 21  1  0  0  0  0
 24 22  1  0  0  0  0
 24 13  1  0  0  0  0
 25 14  1  0  0  0  0
 27  2  1  0  0  0  0
 29 28  1  0  0  0  0
 29 32  1  0  0  0  0
 30 34  1  0  0  0  0
 31 33  1  0  0  0  0
 31 32  1  0  0  0  0
 32 34  1  0  0  0  0
 33 30  1  0  0  0  0
M  END
>  <MODEL>
7

>  <REMARK>
 VINA RESULT:      -7.7      3.864      9.404
  Name = 
  3 active torsions:
  status: ('A' for Active; 'I' for Inactive)
    1  A    between atoms: C_17  and  C_28
    2  A    between atoms: C_28  and  O_29
    3  A    between atoms: O_29  and  C_32
                            x       y       z     vdW  Elec       q    Type
                         _______ _______ _______ _____ _____    ______ ____

>  <TORSDO>
F 3

$$$$
=
 OpenBabel11112418063D

 34 41  0  0  1  0  0  0  0  0999 V2000
  192.7390  175.9030  144.6480 C   0  0  2  0  0  3  0  0  0  0  0  0
  191.2980  177.9210  144.3590 C   0  0  0  0  0  2  0  0  0  0  0  0
  193.2550  169.5900  143.3540 C   0  0  2  0  0  3  0  0  0  0  0  0
  194.0100  173.8280  144.1830 C   0  0  1  0  0  3  0  0  0  0  0  0
  192.5060  171.9680  143.1610 C   0  0  2  0  0  3  0  0  0  0  0  0
  191.1810  170.1670  142.3080 O   0  0  0  0  0  1  0  0  0  0  0  0
  192.7020  169.5040  144.6340 O   0  0  0  0  0  1  0  0  0  0  0  0
  195.0220  171.4290  143.8260 C   0  0  1  0  0  3  0  0  0  0  0  0
  190.1520  175.8230  144.2280 C   0  0  2  0  0  3  0  0  0  0  0  0
  187.4710  175.5740  142.7630 C   0  0  0  0  0  2  0  0  0  0  0  0
  191.9260  172.9970  142.2890 N   0  0  0  0  0  2  0  0  0  0  0  0
  194.8860  172.2160  142.6610 O   0  0  0  0  0  0  0  0  0  0  0  0
  190.4550  174.9440  142.9820 C   0  0  1  0  0  3  0  0  0  0  0  0
  190.1090  178.1780  143.8320 C   0  0  0  0  0  2  0  0  0  0  0  0
  193.9010  172.4040  143.6470 C   0  0  2  0  0  0  0  0  0  0  0  0
  194.7330  169.9680  143.4390 C   0  0  0  0  0  2  0  0  0  0  0  0
  188.2960  176.8540  142.6900 C   0  0  2  0  0  3  0  0  0  0  0  0
  192.6120  174.4390  144.2720 C   0  0  2  0  0  3  0  0  0  0  0  0
  192.4960  170.5970  142.4930 C   0  0  2  0  0  3  0  0  0  0  0  0
  191.8730  174.3310  142.9350 C   0  0  1  0  0  3  0  0  0  0  0  0
  194.9010  175.2250  145.7140 C   0  0  0  0  0  2  0  0  0  0  0  0
  188.1820  174.4380  142.0410 C   0  0  0  0  0  2  0  0  0  0  0  0
  194.6130  173.8680  145.4540 O   0  0  0  0  0  0  0  0  0  0  0  0
  189.3540  173.8960  142.8470 C   0  0  0  0  0  2  0  0  0  0  0  0
  189.2000  176.9950  143.9240 C   0  0  1  0  0  3  0  0  0  0  0  0
  193.6060  176.0310  145.9020 C   0  0  0  0  0  2  0  0  0  0  0  0
  191.3630  176.5280  144.8780 C   0  0  1  0  0  3  0  0  0  0  0  0
  187.3510  178.0430  142.6010 C   0  0  0  0  0  2  0  0  0  0  0  0
  186.1880  177.7840  143.3300 O   0  0  0  0  0  0  0  0  0  0  0  0
  183.9260  179.0550  144.8500 O   0  0  0  0  0  0  0  0  0  0  0  0
  185.9810  177.8130  145.9450 S   0  0  0  0  0  0  0  0  0  0  0  0
  186.2190  178.6960  144.3870 C   0  0  2  0  0  3  0  0  0  0  0  0
  184.3610  178.6190  146.1080 C   0  0  0  0  0  2  0  0  0  0  0  0
  185.0490  179.6480  144.2660 C   0  0  0  0  0  2  0  0  0  0  0  0
  1 27  1  0  0  0  0
  1 26  1  1  0  0  0
  2 27  1  0  0  0  0
  3 16  1  0  0  0  0
  3  7  1  1  0  0  0
  4 18  1  0  0  0  0
  4 23  1  1  0  0  0
  5 11  1  6  0  0  0
  5 15  1  0  0  0  0
  6 19  1  0  0  0  0
  8 16  1  6  0  0  0
  9 27  1  0  0  0  0
 11 20  1  0  0  0  0
 12 15  1  0  0  0  0
 12  8  1  0  0  0  0
 13  9  1  0  0  0  0
 14 25  1  0  0  0  0
 14  2  1  0  0  0  0
 15  8  1  0  0  0  0
 15  4  1  0  0  0  0
 17 10  1  0  0  0  0
 17 25  1  0  0  0  0
 18  1  1  0  0  0  0
 19  5  1  0  0  0  0
 19  3  1  0  0  0  0
 20 13  1  0  0  0  0
 20 18  1  0  0  0  0
 21 26  1  0  0  0  0
 22 10  1  0  0  0  0
 22 24  1  0  0  0  0
 23 21  1  0  0  0  0
 24 13  1  0  0  0  0
 25  9  1  0  0  0  0
 28 17  1  0  0  0  0
 28 29  1  0  0  0  0
 29 32  1  0  0  0  0
 30 33  1  0  0  0  0
 31 33  1  0  0  0  0
 32 31  1  0  0  0  0
 34 32  1  0  0  0  0
 34 30  1  0  0  0  0
M  END
>  <MODEL>
8

>  <REMARK>
 VINA RESULT:      -7.5      3.238      9.039
  Name = 
  3 active torsions:
  status: ('A' for Active; 'I' for Inactive)
    1  A    between atoms: C_17  and  C_28
    2  A    between atoms: C_28  and  O_29
    3  A    between atoms: O_29  and  C_32
                            x       y       z     vdW  Elec       q    Type
                         _______ _______ _______ _____ _____    ______ ____

>  <TORSDO>
F 3

$$$$
=
 OpenBabel11112418063D

 34 41  0  0  1  0  0  0  0  0999 V2000
  189.8870  175.4930  145.1530 C   0  0  2  0  0  3  0  0  0  0  0  0
  191.3600  173.7690  144.1110 C   0  0  0  0  0  2  0  0  0  0  0  0
  184.6500  179.1720  144.2400 C   0  0  2  0  0  3  0  0  0  0  0  0
  187.8800  176.7290  145.9170 C   0  0  1  0  0  3  0  0  0  0  0  0
  186.2690  177.2890  143.9530 C   0  0  2  0  0  3  0  0  0  0  0  0
  184.7750  177.9300  142.1980 O   0  0  0  0  0  1  0  0  0  0  0  0
  185.6290  180.0920  143.8590 O   0  0  0  0  0  1  0  0  0  0  0  0
  185.7960  178.2600  146.3800 C   0  0  1  0  0  3  0  0  0  0  0  0
  190.1390  175.1330  142.5680 C   0  0  2  0  0  3  0  0  0  0  0  0
  189.5590  174.1660  139.7180 C   0  0  0  0  0  2  0  0  0  0  0  0
  186.4700  175.9150  143.4740 N   0  0  0  0  0  2  0  0  0  0  0  0
  185.5240  176.8810  146.2460 O   0  0  0  0  0  0  0  0  0  0  0  0
  188.6000  174.9190  142.5220 C   0  0  1  0  0  3  0  0  0  0  0  0
  191.4340  173.1600  142.9350 C   0  0  0  0  0  2  0  0  0  0  0  0
  186.5790  177.3790  145.4590 C   0  0  2  0  0  0  0  0  0  0  0  0
  184.6170  179.0320  145.7610 C   0  0  0  0  0  2  0  0  0  0  0  0
  190.1670  173.2340  140.7600 C   0  0  2  0  0  3  0  0  0  0  0  0
  188.6760  176.2820  144.6910 C   0  0  2  0  0  3  0  0  0  0  0  0
  184.8850  177.8130  143.5840 C   0  0  2  0  0  3  0  0  0  0  0  0
  187.8280  175.3980  143.7720 C   0  0  1  0  0  3  0  0  0  0  0  0
  189.6880  176.8260  147.2640 C   0  0  0  0  0  2  0  0  0  0  0  0
  188.1250  174.5200  140.0880 C   0  0  0  0  0  2  0  0  0  0  0  0
  188.6680  177.6100  146.6830 O   0  0  0  0  0  0  0  0  0  0  0  0
  188.0630  175.5260  141.2290 C   0  0  0  0  0  2  0  0  0  0  0  0
  190.9250  174.0310  141.8320 C   0  0  1  0  0  3  0  0  0  0  0  0
  190.6590  176.3110  146.1890 C   0  0  0  0  0  2  0  0  0  0  0  0
  190.7870  175.1340  143.9700 C   0  0  1  0  0  3  0  0  0  0  0  0
  191.1150  172.2690  140.0640 C   0  0  0  0  0  2  0  0  0  0  0  0
  190.6130  170.9680  140.1400 O   0  0  0  0  0  0  0  0  0  0  0  0
  189.6920  169.6590  137.5950 O   0  0  0  0  0  0  0  0  0  0  0  0
  191.7270  171.3270  137.7930 S   0  0  0  0  0  0  0  0  0  0  0  0
  191.3390  170.2490  139.1890 C   0  0  2  0  0  3  0  0  0  0  0  0
  190.5930  170.3450  136.7690 C   0  0  0  0  0  2  0  0  0  0  0  0
  190.4760  169.1390  138.6290 C   0  0  0  0  0  2  0  0  0  0  0  0
  1 26  1  1  0  0  0
  3  7  1  1  0  0  0
  3 16  1  0  0  0  0
  4 23  1  6  0  0  0
  5 11  1  1  0  0  0
  5 15  1  0  0  0  0
  6 19  1  0  0  0  0
  8 16  1  6  0  0  0
  9 27  1  0  0  0  0
 10 22  1  0  0  0  0
 10 17  1  0  0  0  0
 11 20  1  0  0  0  0
 12  8  1  0  0  0  0
 13  9  1  0  0  0  0
 13 20  1  0  0  0  0
 14  2  1  0  0  0  0
 15  4  1  0  0  0  0
 15 12  1  0  0  0  0
 15  8  1  0  0  0  0
 17 25  1  0  0  0  0
 18  1  1  0  0  0  0
 18  4  1  0  0  0  0
 19  5  1  0  0  0  0
 19  3  1  0  0  0  0
 20 18  1  0  0  0  0
 22 24  1  0  0  0  0
 23 21  1  0  0  0  0
 24 13  1  0  0  0  0
 25  9  1  0  0  0  0
 25 14  1  0  0  0  0
 26 21  1  0  0  0  0
 27  2  1  0  0  0  0
 27  1  1  0  0  0  0
 28 29  1  0  0  0  0
 28 17  1  0  0  0  0
 30 34  1  0  0  0  0
 31 32  1  0  0  0  0
 32 29  1  0  0  0  0
 33 30  1  0  0  0  0
 33 31  1  0  0  0  0
 34 32  1  0  0  0  0
M  END
>  <MODEL>
9

>  <REMARK>
 VINA RESULT:      -7.5      3.605      5.622
  Name = 
  3 active torsions:
  status: ('A' for Active; 'I' for Inactive)
    1  A    between atoms: C_17  and  C_28
    2  A    between atoms: C_28  and  O_29
    3  A    between atoms: O_29  and  C_32
                            x       y       z     vdW  Elec       q    Type
                         _______ _______ _______ _____ _____    ______ ____

>  <TORSDO>
F 3

$$$$
