=
 OpenBabel11112416483D

 31 35  0  0  1  0  0  0  0  0999 V2000
  194.6600  176.3590  144.7850 C   0  0  0  0  0  0  0  0  0  0  0  0
  191.0930  177.1270  143.7200 C   0  0  2  0  0  3  0  0  0  0  0  0
  190.6750  175.9490  142.8550 C   0  0  0  0  0  0  0  0  0  0  0  0
  191.3190  174.1130  141.4770 C   0  0  0  0  0  0  0  0  0  0  0  0
  192.2810  176.8080  144.5960 C   0  0  0  0  0  0  0  0  0  0  0  0
  194.5100  176.1120  146.1510 C   0  0  0  0  0  3  0  0  0  0  0  0
  191.6280  175.1370  142.3140 N   0  0  0  0  0  0  0  0  0  0  0  0
  189.6230  176.8490  145.7630 C   0  0  2  0  0  3  0  0  0  0  0  0
  195.9130  176.2560  144.1940 O   0  0  0  0  0  1  0  0  0  0  0  0
  188.2150  176.5820  143.0690 C   0  0  0  0  0  2  0  0  0  0  0  0
  192.5900  173.1000  140.8310 Cl  0  0  0  0  0  0  0  0  0  0  0  0
  190.8330  176.8000  146.6920 C   0  0  0  0  0  2  0  0  0  0  0  0
  189.9280  177.7220  144.5330 C   0  0  2  0  0  3  0  0  0  0  0  0
  193.5510  176.7070  144.0120 C   0  0  0  0  0  3  0  0  0  0  0  0
  189.9900  173.8720  141.1270 C   0  0  0  0  0  3  0  0  0  0  0  0
  192.1320  176.5610  145.9790 C   0  0  0  0  0  0  0  0  0  0  0  0
  193.2510  176.2230  146.7460 C   0  0  0  0  0  3  0  0  0  0  0  0
  188.7160  177.9160  143.6180 C   0  0  0  0  0  2  0  0  0  0  0  0
  189.3230  175.7520  142.4940 C   0  0  0  0  0  0  0  0  0  0  0  0
  188.9920  174.6960  141.6430 C   0  0  0  0  0  3  0  0  0  0  0  0
  188.4870  177.3710  146.5170 N   0  0  0  0  0  2  0  0  0  0  0  0
  188.1110  175.2420  147.6380 C   0  0  0  0  0  1  0  0  0  0  0  0
  187.5230  176.2930  146.7050 C   0  0  1  0  0  3  0  0  0  0  0  0
  184.9820  178.7660  145.4140 C   0  0  1  0  0  3  0  0  0  0  0  0
  185.0890  176.5830  146.4720 O   0  0  0  0  0  0  0  0  0  0  0  0
  187.6260  178.8940  148.3000 O   0  0  0  0  0  0  0  0  0  0  0  0
  184.9230  179.4180  144.0500 C   0  0  0  0  0  1  0  0  0  0  0  0
  185.2560  177.2730  145.2500 C   0  0  0  0  0  2  0  0  0  0  0  0
  186.2180  178.5800  147.8160 S   0  0  2  0  0  0  0  0  0  0  0  0
  186.2060  176.8290  147.3070 C   0  0  2  0  0  3  0  0  0  0  0  0
  186.0940  179.4120  146.2270 C   0  0  0  0  0  2  0  0  0  0  0  0
  1  6  1  0  0  0  0
  2  3  1  1  0  0  0
  2 13  1  0  0  0  0
  2  5  1  0  0  0  0
  4  7  1  0  0  0  0
  5 16  2  0  0  0  0
  6 17  2  0  0  0  0
  7  3  2  0  0  0  0
  8 21  1  1  0  0  0
  8 12  1  0  0  0  0
  9  1  1  0  0  0  0
 10 18  1  0  0  0  0
 11  4  1  0  0  0  0
 13 18  1  6  0  0  0
 13  8  1  0  0  0  0
 14  5  1  0  0  0  0
 14  1  2  0  0  0  0
 15  4  2  0  0  0  0
 15 20  1  0  0  0  0
 16 12  1  0  0  0  0
 16 17  1  0  0  0  0
 19  3  1  0  0  0  0
 19 10  1  0  0  0  0
 20 19  2  0  0  0  0
 21 23  1  0  0  0  0
 23 22  1  1  0  0  0
 24 27  1  6  0  0  0
 24 31  1  0  0  0  0
 25 30  1  0  0  0  0
 28 24  1  0  0  0  0
 28 25  1  0  0  0  0
 29 26  2  6  0  0  0
 30 23  1  6  0  0  0
 30 29  1  0  0  0  0
 31 29  1  0  0  0  0
M  END
>  <MODEL>
1

>  <REMARK>
 VINA RESULT:      -8.2      0.000      0.000
  Name = 
  3 active torsions:
  status: ('A' for Active; 'I' for Inactive)
    1  A    between atoms: C_5  and  N_16
    2  A    between atoms: C_5  and  C_30
    3  A    between atoms: C_10  and  N_16
                            x       y       z     vdW  Elec       q    Type
                         _______ _______ _______ _____ _____    ______ ____

>  <TORSDO>
F 3

$$$$
=
 OpenBabel11112416483D

 31 35  0  0  1  0  0  0  0  0999 V2000
  186.0990  178.0590  140.8740 C   0  0  0  0  0  0  0  0  0  0  0  0
  188.7280  177.8890  143.6150 C   0  0  2  0  0  3  0  0  0  0  0  0
  187.9540  177.5940  144.8890 C   0  0  0  0  0  0  0  0  0  0  0  0
  185.8810  177.6530  146.0650 C   0  0  0  0  0  0  0  0  0  0  0  0
  187.9440  177.5490  142.3700 C   0  0  0  0  0  0  0  0  0  0  0  0
  186.3800  176.9130  140.1290 C   0  0  0  0  0  3  0  0  0  0  0  0
  186.6120  177.8310  144.9340 N   0  0  0  0  0  0  0  0  0  0  0  0
  190.0380  175.7500  143.2670 C   0  0  2  0  0  3  0  0  0  0  0  0
  185.0430  178.8830  140.5090 O   0  0  0  0  0  1  0  0  0  0  0  0
  190.0860  176.8900  146.0970 C   0  0  0  0  0  2  0  0  0  0  0  0
  184.1590  177.9600  146.0480 Cl  0  0  0  0  0  0  0  0  0  0  0  0
  189.4420  175.5500  141.8760 C   0  0  0  0  0  2  0  0  0  0  0  0
  190.1300  177.2510  143.5980 C   0  0  2  0  0  3  0  0  0  0  0  0
  186.8790  178.3770  141.9880 C   0  0  0  0  0  3  0  0  0  0  0  0
  186.5020  177.2310  147.2400 C   0  0  0  0  0  3  0  0  0  0  0  0
  188.2280  176.3910  141.6130 C   0  0  0  0  0  0  0  0  0  0  0  0
  187.4470  176.0880  140.4920 C   0  0  0  0  0  3  0  0  0  0  0  0
  190.8320  177.5300  144.9300 C   0  0  0  0  0  2  0  0  0  0  0  0
  188.6200  177.1980  146.0720 C   0  0  0  0  0  0  0  0  0  0  0  0
  187.8770  177.0020  147.2370 C   0  0  0  0  0  3  0  0  0  0  0  0
  191.3540  175.1180  143.2970 N   0  0  0  0  0  2  0  0  0  0  0  0
  190.4870  172.9130  143.8590 C   0  0  0  0  0  1  0  0  0  0  0  0
  191.3450  174.0830  144.3240 C   0  0  1  0  0  3  0  0  0  0  0  0
  194.3340  175.7600  145.9020 C   0  0  1  0  0  3  0  0  0  0  0  0
  193.1110  173.6650  145.9890 O   0  0  0  0  0  0  0  0  0  0  0  0
  193.5110  174.6320  142.2440 O   0  0  0  0  0  0  0  0  0  0  0  0
  194.4010  177.1190  146.5640 C   0  0  0  0  0  1  0  0  0  0  0  0
  193.0940  175.0180  146.3940 C   0  0  0  0  0  2  0  0  0  0  0  0
  194.1020  174.3320  143.6130 S   0  0  2  0  0  0  0  0  0  0  0  0
  192.7760  173.5810  144.6150 C   0  0  2  0  0  3  0  0  0  0  0  0
  194.2660  175.9440  144.3940 C   0  0  0  0  0  2  0  0  0  0  0  0
  1 14  1  0  0  0  0
  2  5  1  6  0  0  0
  2  3  1  0  0  0  0
  3  7  2  0  0  0  0
  3 19  1  0  0  0  0
  4 15  2  0  0  0  0
  6 17  1  0  0  0  0
  6  1  2  0  0  0  0
  7  4  1  0  0  0  0
  8 21  1  6  0  0  0
  8 13  1  0  0  0  0
  9  1  1  0  0  0  0
 11  4  1  0  0  0  0
 12  8  1  0  0  0  0
 13  2  1  0  0  0  0
 13 18  1  1  0  0  0
 14  5  2  0  0  0  0
 16 12  1  0  0  0  0
 16  5  1  0  0  0  0
 17 16  2  0  0  0  0
 18 10  1  0  0  0  0
 19 10  1  0  0  0  0
 19 20  2  0  0  0  0
 20 15  1  0  0  0  0
 21 23  1  0  0  0  0
 23 22  1  6  0  0  0
 24 28  1  0  0  0  0
 24 27  1  1  0  0  0
 25 28  1  0  0  0  0
 29 26  2  6  0  0  0
 29 31  1  0  0  0  0
 29 30  1  0  0  0  0
 30 23  1  1  0  0  0
 30 25  1  0  0  0  0
 31 24  1  0  0  0  0
M  END
>  <MODEL>
2

>  <REMARK>
 VINA RESULT:      -8.0      3.539      7.347
  Name = 
  3 active torsions:
  status: ('A' for Active; 'I' for Inactive)
    1  A    between atoms: C_5  and  N_16
    2  A    between atoms: C_5  and  C_30
    3  A    between atoms: C_10  and  N_16
                            x       y       z     vdW  Elec       q    Type
                         _______ _______ _______ _____ _____    ______ ____

>  <TORSDO>
F 3

$$$$
=
 OpenBabel11112416483D

 31 35  0  0  1  0  0  0  0  0999 V2000
  185.0720  177.8820  146.8070 C   0  0  0  0  0  0  0  0  0  0  0  0
  187.3880  175.8480  144.5820 C   0  0  2  0  0  3  0  0  0  0  0  0
  187.1730  176.3940  143.1800 C   0  0  0  0  0  0  0  0  0  0  0  0
  185.7660  177.5650  141.6520 C   0  0  0  0  0  0  0  0  0  0  0  0
  186.9170  176.8020  145.6530 C   0  0  0  0  0  0  0  0  0  0  0  0
  185.9760  178.6390  147.5540 C   0  0  0  0  0  3  0  0  0  0  0  0
  186.0470  177.1120  142.9010 N   0  0  0  0  0  0  0  0  0  0  0  0
  189.7570  176.5830  145.0930 C   0  0  2  0  0  3  0  0  0  0  0  0
  183.7070  178.0400  147.0010 O   0  0  0  0  0  1  0  0  0  0  0  0
  189.3260  175.3060  142.3560 C   0  0  0  0  0  2  0  0  0  0  0  0
  184.3120  178.4940  141.3670 Cl  0  0  0  0  0  0  0  0  0  0  0  0
  189.3100  177.3320  146.3460 C   0  0  0  0  0  2  0  0  0  0  0  0
  188.8340  175.3790  144.8310 C   0  0  2  0  0  3  0  0  0  0  0  0
  185.5410  176.9660  145.8630 C   0  0  0  0  0  3  0  0  0  0  0  0
  186.6330  177.2850  140.5960 C   0  0  0  0  0  3  0  0  0  0  0  0
  187.8300  177.5680  146.4120 C   0  0  0  0  0  0  0  0  0  0  0  0
  187.3500  178.4750  147.3630 C   0  0  0  0  0  3  0  0  0  0  0  0
  189.2970  174.5110  143.6580 C   0  0  0  0  0  2  0  0  0  0  0  0
  188.0540  176.0650  142.1250 C   0  0  0  0  0  0  0  0  0  0  0  0
  187.7810  176.5340  140.8390 C   0  0  0  0  0  3  0  0  0  0  0  0
  191.1420  176.1600  145.2810 N   0  0  0  0  0  2  0  0  0  0  0  0
  191.3890  178.0720  143.7940 C   0  0  0  0  0  1  0  0  0  0  0  0
  191.9450  176.7120  144.1950 C   0  0  1  0  0  3  0  0  0  0  0  0
  194.6700  174.1810  144.8290 C   0  0  1  0  0  3  0  0  0  0  0  0
  194.3180  176.2960  143.6900 O   0  0  0  0  0  0  0  0  0  0  0  0
  192.6030  176.5420  147.1710 O   0  0  0  0  0  0  0  0  0  0  0  0
  194.6320  172.6870  144.5890 C   0  0  0  0  0  1  0  0  0  0  0  0
  194.0910  174.9040  143.6150 C   0  0  0  0  0  2  0  0  0  0  0  0
  193.8270  176.2900  146.3030 S   0  0  2  0  0  0  0  0  0  0  0  0
  193.4190  176.8690  144.6220 C   0  0  2  0  0  3  0  0  0  0  0  0
  193.8500  174.5070  146.0680 C   0  0  0  0  0  2  0  0  0  0  0  0
  1  9  1  0  0  0  0
  1  6  1  0  0  0  0
  2  3  1  6  0  0  0
  2 13  1  0  0  0  0
  2  5  1  0  0  0  0
  4  7  2  0  0  0  0
  5 14  1  0  0  0  0
  5 16  2  0  0  0  0
  7  3  1  0  0  0  0
  8 21  1  1  0  0  0
  8 12  1  0  0  0  0
 10 18  1  0  0  0  0
 11  4  1  0  0  0  0
 12 16  1  0  0  0  0
 13 18  1  6  0  0  0
 13  8  1  0  0  0  0
 14  1  2  0  0  0  0
 15 20  2  0  0  0  0
 15  4  1  0  0  0  0
 16 17  1  0  0  0  0
 17  6  2  0  0  0  0
 19 10  1  0  0  0  0
 19  3  2  0  0  0  0
 20 19  1  0  0  0  0
 23 22  1  1  0  0  0
 23 21  1  0  0  0  0
 24 27  1  6  0  0  0
 24 31  1  0  0  0  0
 25 30  1  0  0  0  0
 28 25  1  0  0  0  0
 28 24  1  0  0  0  0
 29 26  2  1  0  0  0
 30 23  1  6  0  0  0
 30 29  1  0  0  0  0
 31 29  1  0  0  0  0
M  END
>  <MODEL>
3

>  <REMARK>
 VINA RESULT:      -7.9      3.090      6.961
  Name = 
  3 active torsions:
  status: ('A' for Active; 'I' for Inactive)
    1  A    between atoms: C_5  and  N_16
    2  A    between atoms: C_5  and  C_30
    3  A    between atoms: C_10  and  N_16
                            x       y       z     vdW  Elec       q    Type
                         _______ _______ _______ _____ _____    ______ ____

>  <TORSDO>
F 3

$$$$
=
 OpenBabel11112416483D

 31 35  0  0  1  0  0  0  0  0999 V2000
  186.5250  177.8170  140.9270 C   0  0  0  0  0  0  0  0  0  0  0  0
  188.6150  177.8040  144.1020 C   0  0  2  0  0  3  0  0  0  0  0  0
  187.6090  177.7500  145.2400 C   0  0  0  0  0  0  0  0  0  0  0  0
  185.3840  178.1410  146.0020 C   0  0  0  0  0  0  0  0  0  0  0  0
  188.0230  177.3630  142.7850 C   0  0  0  0  0  0  0  0  0  0  0  0
  186.8050  176.5600  140.3880 C   0  0  0  0  0  3  0  0  0  0  0  0
  186.3110  178.1020  145.0100 N   0  0  0  0  0  0  0  0  0  0  0  0
  189.7310  175.5350  144.2570 C   0  0  2  0  0  3  0  0  0  0  0  0
  185.6400  178.6690  140.2800 O   0  0  0  0  0  1  0  0  0  0  0  0
  189.4170  177.0420  146.8920 C   0  0  0  0  0  2  0  0  0  0  0  0
  183.7320  178.5860  145.6340 Cl  0  0  0  0  0  0  0  0  0  0  0  0
  189.3620  175.1980  142.8150 C   0  0  0  0  0  2  0  0  0  0  0  0
  189.9230  177.0540  144.4180 C   0  0  2  0  0  3  0  0  0  0  0  0
  187.1330  178.2170  142.1190 C   0  0  0  0  0  3  0  0  0  0  0  0
  185.7480  177.8340  147.3120 C   0  0  0  0  0  3  0  0  0  0  0  0
  188.3070  176.0940  142.2360 C   0  0  0  0  0  0  0  0  0  0  0  0
  187.7010  175.7060  141.0360 C   0  0  0  0  0  3  0  0  0  0  0  0
  190.4150  177.4530  145.8120 C   0  0  0  0  0  2  0  0  0  0  0  0
  188.0170  177.4660  146.5630 C   0  0  0  0  0  0  0  0  0  0  0  0
  187.0700  177.4920  147.5880 C   0  0  0  0  0  3  0  0  0  0  0  0
  190.9480  174.8060  144.6020 N   0  0  0  0  0  2  0  0  0  0  0  0
  192.7860  175.4670  143.1470 C   0  0  0  0  0  1  0  0  0  0  0  0
  191.6520  174.4730  143.3680 C   0  0  1  0  0  3  0  0  0  0  0  0
  191.1290  171.4410  141.1840 C   0  0  1  0  0  3  0  0  0  0  0  0
  192.9220  172.6860  142.2480 O   0  0  0  0  0  0  0  0  0  0  0  0
  190.0430  172.3360  144.8390 O   0  0  0  0  0  0  0  0  0  0  0  0
  190.3650  171.3490  139.8820 C   0  0  0  0  0  1  0  0  0  0  0  0
  192.0200  172.6810  141.1620 C   0  0  0  0  0  2  0  0  0  0  0  0
  191.0510  171.7260  143.8760 S   0  0  2  0  0  0  0  0  0  0  0  0
  192.2310  173.0440  143.4310 C   0  0  2  0  0  3  0  0  0  0  0  0
  190.1410  171.5320  142.3370 C   0  0  0  0  0  2  0  0  0  0  0  0
  1 14  1  0  0  0  0
  2  5  1  6  0  0  0
  2 13  1  0  0  0  0
  2  3  1  0  0  0  0
  3 19  1  0  0  0  0
  4 15  2  0  0  0  0
  6  1  2  0  0  0  0
  6 17  1  0  0  0  0
  7  3  2  0  0  0  0
  7  4  1  0  0  0  0
  8 13  1  0  0  0  0
  8 21  1  6  0  0  0
  9  1  1  0  0  0  0
 11  4  1  0  0  0  0
 12  8  1  0  0  0  0
 13 18  1  1  0  0  0
 14  5  2  0  0  0  0
 15 20  1  0  0  0  0
 16  5  1  0  0  0  0
 16 12  1  0  0  0  0
 17 16  2  0  0  0  0
 18 10  1  0  0  0  0
 19 10  1  0  0  0  0
 19 20  2  0  0  0  0
 23 22  1  1  0  0  0
 23 21  1  0  0  0  0
 24 27  1  6  0  0  0
 24 31  1  0  0  0  0
 25 30  1  0  0  0  0
 28 24  1  0  0  0  0
 28 25  1  0  0  0  0
 29 26  2  1  0  0  0
 30 23  1  6  0  0  0
 30 29  1  0  0  0  0
 31 29  1  0  0  0  0
M  END
>  <MODEL>
4

>  <REMARK>
 VINA RESULT:      -7.8      3.754      7.450
  Name = 
  3 active torsions:
  status: ('A' for Active; 'I' for Inactive)
    1  A    between atoms: C_5  and  N_16
    2  A    between atoms: C_5  and  C_30
    3  A    between atoms: C_10  and  N_16
                            x       y       z     vdW  Elec       q    Type
                         _______ _______ _______ _____ _____    ______ ____

>  <TORSDO>
F 3

$$$$
=
 OpenBabel11112416483D

 31 35  0  0  1  0  0  0  0  0999 V2000
  189.8510  171.9050  142.1750 C   0  0  0  0  0  0  0  0  0  0  0  0
  190.1840  173.8670  145.4140 C   0  0  2  0  0  3  0  0  0  0  0  0
  191.6430  174.2900  145.4730 C   0  0  0  0  0  0  0  0  0  0  0  0
  193.8920  173.9270  144.7700 C   0  0  0  0  0  0  0  0  0  0  0  0
  189.7500  173.4820  144.0200 C   0  0  0  0  0  0  0  0  0  0  0  0
  189.0670  172.7580  141.3970 C   0  0  0  0  0  3  0  0  0  0  0  0
  192.5660  173.6400  144.7070 N   0  0  0  0  0  0  0  0  0  0  0  0
  188.9910  176.0750  145.0800 C   0  0  2  0  0  3  0  0  0  0  0  0
  190.2970  170.6990  141.6500 O   0  0  0  0  0  1  0  0  0  0  0  0
  191.1300  176.0390  147.2560 C   0  0  0  0  0  2  0  0  0  0  0  0
  195.0200  173.0650  143.7470 Cl  0  0  0  0  0  0  0  0  0  0  0  0
  188.3280  175.5830  143.7960 C   0  0  0  0  0  2  0  0  0  0  0  0
  189.2310  174.8990  146.0440 C   0  0  2  0  0  3  0  0  0  0  0  0
  190.1890  172.2640  143.4810 C   0  0  0  0  0  3  0  0  0  0  0  0
  194.3560  174.9020  145.6520 C   0  0  0  0  0  3  0  0  0  0  0  0
  188.9550  174.3420  143.2310 C   0  0  0  0  0  0  0  0  0  0  0  0
  188.6130  173.9680  141.9270 C   0  0  0  0  0  3  0  0  0  0  0  0
  189.7820  175.3390  147.4030 C   0  0  0  0  0  2  0  0  0  0  0  0
  192.0840  175.2600  146.4010 C   0  0  0  0  0  0  0  0  0  0  0  0
  193.4440  175.5710  146.4670 C   0  0  0  0  0  3  0  0  0  0  0  0
  188.1290  177.0880  145.6820 N   0  0  0  0  0  2  0  0  0  0  0  0
  185.7270  176.6890  145.7360 C   0  0  0  0  0  1  0  0  0  0  0  0
  186.9020  177.1760  144.8970 C   0  0  1  0  0  3  0  0  0  0  0  0
  184.3580  178.6620  142.5400 C   0  0  1  0  0  3  0  0  0  0  0  0
  185.3200  179.0560  144.7340 O   0  0  0  0  0  0  0  0  0  0  0  0
  188.2330  178.1430  142.3250 O   0  0  0  0  0  0  0  0  0  0  0  0
  183.1930  177.9700  141.8670 C   0  0  0  0  0  1  0  0  0  0  0  0
  184.4010  178.2620  144.0130 C   0  0  0  0  0  2  0  0  0  0  0  0
  187.0380  179.0050  142.7060 S   0  0  2  0  0  0  0  0  0  0  0  0
  186.6390  178.6280  144.4450 C   0  0  2  0  0  3  0  0  0  0  0  0
  185.6490  178.2480  141.8510 C   0  0  0  0  0  2  0  0  0  0  0  0
  1 14  1  0  0  0  0
  2  5  1  6  0  0  0
  2  3  1  0  0  0  0
  2 13  1  0  0  0  0
  3 19  1  0  0  0  0
  4 15  2  0  0  0  0
  6 17  1  0  0  0  0
  6  1  2  0  0  0  0
  7  4  1  0  0  0  0
  7  3  2  0  0  0  0
  8 21  1  1  0  0  0
  8 13  1  0  0  0  0
  9  1  1  0  0  0  0
 10 18  1  0  0  0  0
 11  4  1  0  0  0  0
 12  8  1  0  0  0  0
 13 18  1  1  0  0  0
 14  5  2  0  0  0  0
 15 20  1  0  0  0  0
 16 12  1  0  0  0  0
 16  5  1  0  0  0  0
 17 16  2  0  0  0  0
 19 20  2  0  0  0  0
 19 10  1  0  0  0  0
 23 21  1  0  0  0  0
 23 22  1  1  0  0  0
 24 27  1  6  0  0  0
 24 28  1  0  0  0  0
 28 25  1  0  0  0  0
 29 26  2  6  0  0  0
 29 30  1  0  0  0  0
 30 25  1  0  0  0  0
 30 23  1  6  0  0  0
 31 24  1  0  0  0  0
 31 29  1  0  0  0  0
M  END
>  <MODEL>
5

>  <REMARK>
 VINA RESULT:      -7.8      2.841      4.743
  Name = 
  3 active torsions:
  status: ('A' for Active; 'I' for Inactive)
    1  A    between atoms: C_5  and  N_16
    2  A    between atoms: C_5  and  C_30
    3  A    between atoms: C_10  and  N_16
                            x       y       z     vdW  Elec       q    Type
                         _______ _______ _______ _____ _____    ______ ____

>  <TORSDO>
F 3

$$$$
=
 OpenBabel11112416483D

 31 35  0  0  1  0  0  0  0  0999 V2000
  185.6510  178.0330  147.2070 C   0  0  0  0  0  0  0  0  0  0  0  0
  187.8600  175.6710  145.2090 C   0  0  2  0  0  3  0  0  0  0  0  0
  187.6950  176.1020  143.7610 C   0  0  0  0  0  0  0  0  0  0  0  0
  186.3810  177.2160  142.1130 C   0  0  0  0  0  0  0  0  0  0  0  0
  187.4380  176.7440  146.1840 C   0  0  0  0  0  0  0  0  0  0  0  0
  186.5920  178.7970  147.8990 C   0  0  0  0  0  3  0  0  0  0  0  0
  186.6190  176.8600  143.4020 N   0  0  0  0  0  0  0  0  0  0  0  0
  190.2640  176.3020  145.6930 C   0  0  2  0  0  3  0  0  0  0  0  0
  184.2960  178.2910  147.3640 O   0  0  0  0  0  1  0  0  0  0  0  0
  189.7840  174.8150  143.0720 C   0  0  0  0  0  2  0  0  0  0  0  0
  184.9910  178.2040  141.7230 Cl  0  0  0  0  0  0  0  0  0  0  0  0
  189.8510  177.1850  146.8670 C   0  0  0  0  0  2  0  0  0  0  0  0
  189.2710  175.1380  145.5230 C   0  0  2  0  0  3  0  0  0  0  0  0
  186.0720  177.0100  146.3550 C   0  0  0  0  0  3  0  0  0  0  0  0
  187.2400  176.7910  141.1000 C   0  0  0  0  0  3  0  0  0  0  0  0
  188.3880  177.5160  146.8880 C   0  0  0  0  0  0  0  0  0  0  0  0
  187.9560  178.5320  147.7470 C   0  0  0  0  0  3  0  0  0  0  0  0
  189.6910  174.1420  144.4390 C   0  0  0  0  0  2  0  0  0  0  0  0
  188.5650  175.6270  142.7540 C   0  0  0  0  0  0  0  0  0  0  0  0
  188.3360  175.9960  141.4270 C   0  0  0  0  0  3  0  0  0  0  0  0
  191.6180  175.8130  145.9400 N   0  0  0  0  0  2  0  0  0  0  0  0
  192.1250  177.5050  144.2630 C   0  0  0  0  0  1  0  0  0  0  0  0
  192.4340  176.1000  144.7650 C   0  0  1  0  0  3  0  0  0  0  0  0
  195.3590  174.7180  142.8240 C   0  0  1  0  0  3  0  0  0  0  0  0
  194.7510  176.6600  144.1480 O   0  0  0  0  0  0  0  0  0  0  0  0
  193.4510  173.5110  146.0230 O   0  0  0  0  0  0  0  0  0  0  0  0
  195.3800  174.2210  141.3950 C   0  0  0  0  0  1  0  0  0  0  0  0
  194.5990  176.0410  142.8880 C   0  0  0  0  0  2  0  0  0  0  0  0
  194.5750  174.3120  145.3830 S   0  0  2  0  0  0  0  0  0  0  0  0
  193.9370  175.9960  145.0990 C   0  0  2  0  0  3  0  0  0  0  0  0
  194.6740  173.6820  143.7020 C   0  0  0  0  0  2  0  0  0  0  0  0
  1  9  1  0  0  0  0
  1  6  1  0  0  0  0
  2  3  1  6  0  0  0
  2 13  1  0  0  0  0
  2  5  1  0  0  0  0
  4  7  2  0  0  0  0
  5 14  1  0  0  0  0
  5 16  2  0  0  0  0
  7  3  1  0  0  0  0
  8 21  1  1  0  0  0
  8 12  1  0  0  0  0
 10 18  1  0  0  0  0
 11  4  1  0  0  0  0
 12 16  1  0  0  0  0
 13 18  1  6  0  0  0
 13  8  1  0  0  0  0
 14  1  2  0  0  0  0
 15 20  2  0  0  0  0
 15  4  1  0  0  0  0
 16 17  1  0  0  0  0
 17  6  2  0  0  0  0
 19 10  1  0  0  0  0
 19  3  2  0  0  0  0
 20 19  1  0  0  0  0
 23 22  1  1  0  0  0
 23 21  1  0  0  0  0
 24 27  1  6  0  0  0
 24 28  1  0  0  0  0
 24 31  1  0  0  0  0
 25 30  1  0  0  0  0
 28 25  1  0  0  0  0
 29 26  2  1  0  0  0
 30 23  1  6  0  0  0
 30 29  1  0  0  0  0
 31 29  1  0  0  0  0
M  END
>  <MODEL>
6

>  <REMARK>
 VINA RESULT:      -7.7      3.152      7.079
  Name = 
  3 active torsions:
  status: ('A' for Active; 'I' for Inactive)
    1  A    between atoms: C_5  and  N_16
    2  A    between atoms: C_5  and  C_30
    3  A    between atoms: C_10  and  N_16
                            x       y       z     vdW  Elec       q    Type
                         _______ _______ _______ _____ _____    ______ ____

>  <TORSDO>
F 3

$$$$
=
 OpenBabel11112416483D

 31 35  0  0  1  0  0  0  0  0999 V2000
  187.3270  177.5350  147.1810 C   0  0  0  0  0  0  0  0  0  0  0  0
  189.1200  174.7950  145.2500 C   0  0  2  0  0  3  0  0  0  0  0  0
  188.8280  175.0860  143.7870 C   0  0  0  0  0  0  0  0  0  0  0  0
  187.4280  176.1300  142.1650 C   0  0  0  0  0  0  0  0  0  0  0  0
  188.8890  175.9970  146.1350 C   0  0  0  0  0  0  0  0  0  0  0  0
  188.3930  178.2840  147.6830 C   0  0  0  0  0  3  0  0  0  0  0  0
  187.7800  175.8910  143.4550 N   0  0  0  0  0  0  0  0  0  0  0  0
  191.6030  175.2640  145.4130 C   0  0  2  0  0  3  0  0  0  0  0  0
  186.0210  177.9240  147.4440 O   0  0  0  0  0  1  0  0  0  0  0  0
  190.7280  173.5580  143.0390 C   0  0  0  0  0  2  0  0  0  0  0  0
  186.0810  177.1880  141.8090 Cl  0  0  0  0  0  0  0  0  0  0  0  0
  191.3890  176.2980  146.5150 C   0  0  0  0  0  2  0  0  0  0  0  0
  190.5130  174.1790  145.4770 C   0  0  2  0  0  3  0  0  0  0  0  0
  187.5740  176.3960  146.4130 C   0  0  0  0  0  3  0  0  0  0  0  0
  188.1350  175.5280  141.1240 C   0  0  0  0  0  3  0  0  0  0  0  0
  189.9660  176.7540  146.6460 C   0  0  0  0  0  0  0  0  0  0  0  0
  189.7080  177.8880  147.4240 C   0  0  0  0  0  3  0  0  0  0  0  0
  190.7360  173.0430  144.4760 C   0  0  0  0  0  2  0  0  0  0  0  0
  189.5450  174.4340  142.7570 C   0  0  0  0  0  0  0  0  0  0  0  0
  189.1990  174.6800  141.4270 C   0  0  0  0  0  3  0  0  0  0  0  0
  192.9350  174.6890  145.5750 N   0  0  0  0  0  2  0  0  0  0  0  0
  193.0810  176.3180  143.7710 C   0  0  0  0  0  1  0  0  0  0  0  0
  193.7830  175.1740  144.4910 C   0  0  1  0  0  3  0  0  0  0  0  0
  197.2140  175.3170  142.9290 C   0  0  1  0  0  3  0  0  0  0  0  0
  195.7000  176.6960  144.2330 O   0  0  0  0  0  0  0  0  0  0  0  0
  195.6490  173.1250  145.7710 O   0  0  0  0  0  0  0  0  0  0  0  0
  197.6030  175.0150  141.4980 C   0  0  0  0  0  1  0  0  0  0  0  0
  195.9650  176.1960  142.9390 C   0  0  0  0  0  2  0  0  0  0  0  0
  196.3950  174.3770  145.3320 S   0  0  2  0  0  0  0  0  0  0  0  0
  195.1420  175.6670  145.0300 C   0  0  2  0  0  3  0  0  0  0  0  0
  196.9370  174.0110  143.6560 C   0  0  0  0  0  2  0  0  0  0  0  0
  1  9  1  0  0  0  0
  1  6  1  0  0  0  0
  2  3  1  6  0  0  0
  2 13  1  0  0  0  0
  2  5  1  0  0  0  0
  4  7  2  0  0  0  0
  5 14  1  0  0  0  0
  5 16  2  0  0  0  0
  7  3  1  0  0  0  0
  8 13  1  0  0  0  0
  8 21  1  1  0  0  0
  8 12  1  0  0  0  0
 10 18  1  0  0  0  0
 11  4  1  0  0  0  0
 12 16  1  0  0  0  0
 13 18  1  6  0  0  0
 14  1  2  0  0  0  0
 15 20  2  0  0  0  0
 15  4  1  0  0  0  0
 16 17  1  0  0  0  0
 17  6  2  0  0  0  0
 19 10  1  0  0  0  0
 19  3  2  0  0  0  0
 20 19  1  0  0  0  0
 23 22  1  1  0  0  0
 23 21  1  0  0  0  0
 24 27  1  6  0  0  0
 24 28  1  0  0  0  0
 24 31  1  0  0  0  0
 25 30  1  0  0  0  0
 28 25  1  0  0  0  0
 29 26  2  6  0  0  0
 30 23  1  6  0  0  0
 30 29  1  0  0  0  0
 31 29  1  0  0  0  0
M  END
>  <MODEL>
7

>  <REMARK>
 VINA RESULT:      -7.5      3.265      7.314
  Name = 
  3 active torsions:
  status: ('A' for Active; 'I' for Inactive)
    1  A    between atoms: C_5  and  N_16
    2  A    between atoms: C_5  and  C_30
    3  A    between atoms: C_10  and  N_16
                            x       y       z     vdW  Elec       q    Type
                         _______ _______ _______ _____ _____    ______ ____

>  <TORSDO>
F 3

$$$$
=
 OpenBabel11112416483D

 31 35  0  0  1  0  0  0  0  0999 V2000
  191.7250  171.3520  143.2060 C   0  0  0  0  0  0  0  0  0  0  0  0
  192.1960  174.0170  145.8750 C   0  0  2  0  0  3  0  0  0  0  0  0
  193.1900  175.0020  145.2820 C   0  0  0  0  0  0  0  0  0  0  0  0
  194.9280  175.4320  143.7080 C   0  0  0  0  0  0  0  0  0  0  0  0
  191.5400  173.1540  144.8240 C   0  0  0  0  0  0  0  0  0  0  0  0
  190.4130  171.5840  142.7900 C   0  0  0  0  0  3  0  0  0  0  0  0
  193.9740  174.6200  144.2330 N   0  0  0  0  0  0  0  0  0  0  0  0
  190.0640  175.3810  145.9590 C   0  0  2  0  0  3  0  0  0  0  0  0
  192.4750  170.3470  142.6100 O   0  0  0  0  0  1  0  0  0  0  0  0
  192.5690  176.7690  147.0110 C   0  0  0  0  0  2  0  0  0  0  0  0
  195.8880  174.8850  142.3510 Cl  0  0  0  0  0  0  0  0  0  0  0  0
  189.3130  174.3570  145.1120 C   0  0  0  0  0  2  0  0  0  0  0  0
  191.1560  174.6880  146.7930 C   0  0  2  0  0  3  0  0  0  0  0  0
  192.2850  172.1320  144.2200 C   0  0  0  0  0  3  0  0  0  0  0  0
  195.1460  176.6980  144.2510 C   0  0  0  0  0  3  0  0  0  0  0  0
  190.2120  173.3850  144.4040 C   0  0  0  0  0  0  0  0  0  0  0  0
  189.6560  172.5910  143.3940 C   0  0  0  0  0  3  0  0  0  0  0  0
  191.8690  175.6380  147.7590 C   0  0  0  0  0  2  0  0  0  0  0  0
  193.4090  176.2650  145.8760 C   0  0  0  0  0  0  0  0  0  0  0  0
  194.3790  177.1120  145.3380 C   0  0  0  0  0  3  0  0  0  0  0  0
  189.0970  176.0650  146.8130 N   0  0  0  0  0  2  0  0  0  0  0  0
  189.3290  177.5280  144.8800 C   0  0  0  0  0  1  0  0  0  0  0  0
  188.4190  177.0840  146.0190 C   0  0  1  0  0  3  0  0  0  0  0  0
  185.4030  178.8200  144.5620 C   0  0  1  0  0  3  0  0  0  0  0  0
  186.8860  176.9540  144.0970 O   0  0  0  0  0  0  0  0  0  0  0  0
  186.0160  176.8420  147.8860 O   0  0  0  0  0  0  0  0  0  0  0  0
  185.2260  180.2930  144.2640 C   0  0  0  0  0  1  0  0  0  0  0  0
  186.7680  178.3610  144.0550 C   0  0  0  0  0  2  0  0  0  0  0  0
  185.5990  176.8630  146.4220 S   0  0  2  0  0  0  0  0  0  0  0  0
  187.0980  176.5410  145.4350 C   0  0  2  0  0  3  0  0  0  0  0  0
  185.3060  178.6000  146.0640 C   0  0  0  0  0  2  0  0  0  0  0  0
  1 14  1  0  0  0  0
  2  5  1  6  0  0  0
  2 13  1  0  0  0  0
  3  2  1  0  0  0  0
  3 19  1  0  0  0  0
  4  7  1  0  0  0  0
  4 15  2  0  0  0  0
  6  1  2  0  0  0  0
  6 17  1  0  0  0  0
  7  3  2  0  0  0  0
  8 13  1  0  0  0  0
  8 21  1  1  0  0  0
  9  1  1  0  0  0  0
 10 18  1  0  0  0  0
 11  4  1  0  0  0  0
 12  8  1  0  0  0  0
 13 18  1  6  0  0  0
 14  5  2  0  0  0  0
 15 20  1  0  0  0  0
 16  5  1  0  0  0  0
 16 12  1  0  0  0  0
 17 16  2  0  0  0  0
 19 10  1  0  0  0  0
 20 19  2  0  0  0  0
 23 22  1  6  0  0  0
 23 21  1  0  0  0  0
 24 27  1  1  0  0  0
 24 31  1  0  0  0  0
 25 30  1  0  0  0  0
 28 25  1  0  0  0  0
 28 24  1  0  0  0  0
 29 26  2  1  0  0  0
 30 23  1  1  0  0  0
 30 29  1  0  0  0  0
 31 29  1  0  0  0  0
M  END
>  <MODEL>
8

>  <REMARK>
 VINA RESULT:      -7.4      2.520      4.278
  Name = 
  3 active torsions:
  status: ('A' for Active; 'I' for Inactive)
    1  A    between atoms: C_5  and  N_16
    2  A    between atoms: C_5  and  C_30
    3  A    between atoms: C_10  and  N_16
                            x       y       z     vdW  Elec       q    Type
                         _______ _______ _______ _____ _____    ______ ____

>  <TORSDO>
F 3

$$$$
=
 OpenBabel11112416483D

 31 35  0  0  1  0  0  0  0  0999 V2000
  186.1730  177.2440  142.7520 C   0  0  0  0  0  0  0  0  0  0  0  0
  188.5580  174.2940  142.5190 C   0  0  2  0  0  3  0  0  0  0  0  0
  188.8550  174.1390  141.0360 C   0  0  0  0  0  0  0  0  0  0  0  0
  188.1920  174.5410  138.7810 C   0  0  0  0  0  0  0  0  0  0  0  0
  188.0100  175.6590  142.8600 C   0  0  0  0  0  0  0  0  0  0  0  0
  186.9660  178.2130  143.3680 C   0  0  0  0  0  3  0  0  0  0  0  0
  188.0190  174.7040  140.1190 N   0  0  0  0  0  0  0  0  0  0  0  0
  190.7890  175.0580  143.4420 C   0  0  2  0  0  3  0  0  0  0  0  0
  184.8670  177.5450  142.3860 O   0  0  0  0  0  1  0  0  0  0  0  0
  190.8880  172.6830  141.5290 C   0  0  0  0  0  2  0  0  0  0  0  0
  187.0910  175.3070  137.6580 Cl  0  0  0  0  0  0  0  0  0  0  0  0
  190.1720  176.3240  144.0310 C   0  0  0  0  0  2  0  0  0  0  0  0
  189.7540  173.9200  143.4150 C   0  0  2  0  0  3  0  0  0  0  0  0
  186.6910  175.9720  142.5010 C   0  0  0  0  0  3  0  0  0  0  0  0
  189.2430  173.7590  138.3030 C   0  0  0  0  0  3  0  0  0  0  0  0
  188.8100  176.6400  143.4860 C   0  0  0  0  0  0  0  0  0  0  0  0
  188.2770  177.9080  143.7420 C   0  0  0  0  0  3  0  0  0  0  0  0
  190.3400  172.5840  142.9500 C   0  0  0  0  0  2  0  0  0  0  0  0
  189.9090  173.3140  140.5850 C   0  0  0  0  0  0  0  0  0  0  0  0
  190.1040  173.1470  139.2130 C   0  0  0  0  0  3  0  0  0  0  0  0
  191.9530  174.6990  144.2470 N   0  0  0  0  0  2  0  0  0  0  0  0
  192.7630  175.5520  142.1150 C   0  0  0  0  0  1  0  0  0  0  0  0
  193.1570  175.0110  143.4830 C   0  0  1  0  0  3  0  0  0  0  0  0
  196.7140  174.9160  144.7380 C   0  0  1  0  0  3  0  0  0  0  0  0
  195.2080  176.3730  143.5120 O   0  0  0  0  0  0  0  0  0  0  0  0
  193.2350  174.9240  146.5340 O   0  0  0  0  0  0  0  0  0  0  0  0
  197.7520  173.8370  144.5200 C   0  0  0  0  0  1  0  0  0  0  0  0
  196.0150  175.2180  143.4140 C   0  0  0  0  0  2  0  0  0  0  0  0
  194.4210  175.6820  145.9570 S   0  0  2  0  0  0  0  0  0  0  0  0
  194.0200  176.0580  144.2180 C   0  0  2  0  0  3  0  0  0  0  0  0
  195.7000  174.4320  145.7630 C   0  0  0  0  0  2  0  0  0  0  0  0
  1  6  1  0  0  0  0
  2  3  1  6  0  0  0
  2  5  1  0  0  0  0
  2 13  1  0  0  0  0
  4  7  1  0  0  0  0
  5 16  2  0  0  0  0
  6 17  2  0  0  0  0
  7  3  2  0  0  0  0
  8 12  1  0  0  0  0
  8 21  1  1  0  0  0
  9  1  1  0  0  0  0
 10 18  1  0  0  0  0
 11  4  1  0  0  0  0
 13 18  1  6  0  0  0
 13  8  1  0  0  0  0
 14  1  2  0  0  0  0
 14  5  1  0  0  0  0
 15  4  2  0  0  0  0
 15 20  1  0  0  0  0
 16 17  1  0  0  0  0
 16 12  1  0  0  0  0
 19  3  1  0  0  0  0
 19 10  1  0  0  0  0
 20 19  2  0  0  0  0
 23 22  1  6  0  0  0
 23 21  1  0  0  0  0
 24 27  1  6  0  0  0
 24 31  1  0  0  0  0
 25 30  1  0  0  0  0
 28 25  1  0  0  0  0
 28 24  1  0  0  0  0
 29 26  2  1  0  0  0
 30 23  1  6  0  0  0
 30 29  1  0  0  0  0
 31 29  1  0  0  0  0
M  END
>  <MODEL>
9

>  <REMARK>
 VINA RESULT:      -7.3      3.320      7.284
  Name = 
  3 active torsions:
  status: ('A' for Active; 'I' for Inactive)
    1  A    between atoms: C_5  and  N_16
    2  A    between atoms: C_5  and  C_30
    3  A    between atoms: C_10  and  N_16
                            x       y       z     vdW  Elec       q    Type
                         _______ _______ _______ _____ _____    ______ ____

>  <TORSDO>
F 3

$$$$
