=
 OpenBabel11112417083D

 37 43  0  0  1  0  0  0  0  0999 V2000
  193.0800  175.2600  144.2630 C   0  0  0  0  0  2  0  0  0  0  0  0
  191.1360  171.0210  141.5200 C   0  0  0  0  0  0  0  0  0  0  0  0
  189.6790  174.8440  142.4250 C   0  0  0  0  0  0  0  0  0  0  0  0
  194.1850  175.6760  145.2340 C   0  0  2  0  0  3  0  0  0  0  0  0
  189.2970  174.8020  146.0640 N   0  0  0  0  0  2  0  0  0  0  0  0
  189.7380  173.0640  140.8020 C   0  0  0  0  0  0  0  0  0  0  0  0
  190.2830  175.1040  143.7660 C   0  0  1  0  0  3  0  0  0  0  0  0
  192.1870  176.6450  146.6320 C   0  0  2  0  0  3  0  0  0  0  0  0
  190.2360  173.7070  141.9280 C   0  0  0  0  0  0  0  0  0  0  0  0
  189.2680  175.4940  144.8120 C   0  0  0  0  0  0  0  0  0  0  0  0
  188.7140  173.6940  140.0810 C   0  0  0  0  0  3  0  0  0  0  0  0
  193.7000  176.6040  146.3640 C   0  0  0  0  0  2  0  0  0  0  0  0
  191.2360  173.1610  142.8480 C   0  0  2  0  0  3  0  0  0  0  0  0
  192.5560  171.1530  140.9960 C   0  0  0  0  0  1  0  0  0  0  0  0
  187.9650  176.7520  142.2220 C   0  0  0  0  0  2  0  0  0  0  0  0
  188.1890  174.9230  140.5320 C   0  0  0  0  0  3  0  0  0  0  0  0
  191.0380  171.6490  142.9290 C   0  0  0  0  0  2  0  0  0  0  0  0
  191.5490  175.2910  146.9980 C   0  0  1  0  0  3  0  0  0  0  0  0
  190.0310  175.3230  147.2110 C   0  0  0  0  0  2  0  0  0  0  0  0
  188.6560  175.5120  141.7230 C   0  0  0  0  0  0  0  0  0  0  0  0
  190.9780  173.8420  144.1230 N   0  0  1  0  0  0  0  0  0  0  0  0
  190.1580  171.6490  140.4940 C   0  0  0  0  0  2  0  0  0  0  0  0
  188.5040  176.5990  144.6480 C   0  0  0  0  0  0  0  0  0  0  0  0
  190.8160  169.5470  141.6360 C   0  0  0  0  0  1  0  0  0  0  0  0
  192.1000  174.0190  146.3360 C   0  0  0  0  0  2  0  0  0  0  0  0
  191.5160  177.2870  145.5900 O   0  0  0  0  0  1  0  0  0  0  0  0
  192.2560  174.0780  144.8090 C   0  0  2  0  0  3  0  0  0  0  0  0
  188.6610  177.4240  143.4000 C   0  0  0  0  0  2  0  0  0  0  0  0
  186.1800  176.5430  145.5700 C   0  0  0  0  0  3  0  0  0  0  0  0
  187.4910  177.0390  145.6430 C   0  0  0  0  0  0  0  0  0  0  0  0
  187.8280  177.9090  146.6950 C   0  0  0  0  0  3  0  0  0  0  0  0
  187.2070  179.1350  148.6410 F   0  0  0  0  0  0  0  0  0  0  0  0
  185.5660  177.7990  147.5460 C   0  0  0  0  0  3  0  0  0  0  0  0
  186.8700  178.2910  147.6380 C   0  0  0  0  0  0  0  0  0  0  0  0
  185.2210  176.9240  146.5130 C   0  0  0  0  0  3  0  0  0  0  0  0
  195.2420  176.0410  143.0050 C   0  0  0  0  0  1  0  0  0  0  0  0
  195.3170  176.3570  144.4870 C   0  0  0  0  0  2  0  0  0  0  0  0
  1 27  1  0  0  0  0
  1  4  1  0  0  0  0
  2 24  1  0  0  0  0
  2 17  1  0  0  0  0
  4 37  1  6  0  0  0
  4 12  1  0  0  0  0
  5 19  1  0  0  0  0
  6  9  2  0  0  0  0
  7  3  1  6  0  0  0
  7 21  1  0  0  0  0
  7 10  1  0  0  0  0
  8 26  1  6  0  0  0
  8 18  1  0  0  0  0
  9  3  1  0  0  0  0
  9 13  1  0  0  0  0
 10  5  1  0  0  0  0
 11 16  2  0  0  0  0
 11  6  1  0  0  0  0
 12  8  1  0  0  0  0
 13 17  1  1  0  0  0
 13 21  1  0  0  0  0
 14  2  1  0  0  0  0
 15 28  1  0  0  0  0
 16 20  1  0  0  0  0
 18 25  1  6  0  0  0
 18 19  1  0  0  0  0
 20 15  1  0  0  0  0
 20  3  2  0  0  0  0
 21 27  1  0  0  0  0
 22  6  1  0  0  0  0
 22  2  1  0  0  0  0
 23 10  2  0  0  0  0
 23 30  1  0  0  0  0
 27 25  1  0  0  0  0
 28 23  1  0  0  0  0
 29 30  2  0  0  0  0
 29 35  1  0  0  0  0
 30 31  1  0  0  0  0
 31 34  2  0  0  0  0
 33 34  1  0  0  0  0
 34 32  1  0  0  0  0
 35 33  2  0  0  0  0
 36 37  1  0  0  0  0
M  END
>  <MODEL>
1

>  <REMARK>
 VINA RESULT:      -9.5      0.000      0.000
  Name = 
  2 active torsions:
  status: ('A' for Active; 'I' for Inactive)
    1  A    between atoms: C_4  and  C_37
    2  A    between atoms: C_23  and  C_30
                            x       y       z     vdW  Elec       q    Type
                         _______ _______ _______ _____ _____    ______ ____

>  <TORSDO>
F 2

$$$$
=
 OpenBabel11112417083D

 37 43  0  0  1  0  0  0  0  0999 V2000
  193.3420  175.1980  144.0420 C   0  0  0  0  0  2  0  0  0  0  0  0
  191.2500  171.0160  141.3220 C   0  0  0  0  0  0  0  0  0  0  0  0
  189.8480  174.8200  142.3780 C   0  0  0  0  0  0  0  0  0  0  0  0
  194.4970  175.5950  144.9630 C   0  0  2  0  0  3  0  0  0  0  0  0
  189.6580  174.7050  146.0300 N   0  0  0  0  0  2  0  0  0  0  0  0
  189.8200  173.0730  140.7180 C   0  0  0  0  0  0  0  0  0  0  0  0
  190.5220  175.0530  143.6900 C   0  0  1  0  0  3  0  0  0  0  0  0
  192.5760  176.5350  146.4820 C   0  0  2  0  0  3  0  0  0  0  0  0
  190.3770  173.6930  141.8290 C   0  0  0  0  0  0  0  0  0  0  0  0
  189.5640  175.4220  144.7950 C   0  0  0  0  0  0  0  0  0  0  0  0
  188.7600  173.7170  140.0650 C   0  0  0  0  0  3  0  0  0  0  0  0
  194.0730  176.5000  146.1340 C   0  0  0  0  0  2  0  0  0  0  0  0
  191.4230  173.1280  142.6850 C   0  0  2  0  0  3  0  0  0  0  0  0
  192.6410  171.1570  140.7260 C   0  0  0  0  0  1  0  0  0  0  0  0
  188.1280  176.7320  142.3030 C   0  0  0  0  0  2  0  0  0  0  0  0
  188.2610  174.9360  140.5680 C   0  0  0  0  0  3  0  0  0  0  0  0
  191.2270  171.6150  142.7460 C   0  0  0  0  0  2  0  0  0  0  0  0
  191.9570  175.1750  146.8540 C   0  0  1  0  0  3  0  0  0  0  0  0
  190.4520  175.2030  147.1470 C   0  0  0  0  0  2  0  0  0  0  0  0
  188.7910  175.5020  141.7430 C   0  0  0  0  0  0  0  0  0  0  0  0
  191.2330  173.7840  143.9840 N   0  0  1  0  0  0  0  0  0  0  0  0
  190.2210  171.6640  140.3610 C   0  0  0  0  0  2  0  0  0  0  0  0
  188.7940  176.5300  144.6940 C   0  0  0  0  0  0  0  0  0  0  0  0
  190.9360  169.5390  141.4250 C   0  0  0  0  0  1  0  0  0  0  0  0
  192.4710  173.9160  146.1390 C   0  0  0  0  0  2  0  0  0  0  0  0
  191.8530  177.1990  145.4900 O   0  0  0  0  0  1  0  0  0  0  0  0
  192.5460  174.0050  144.6080 C   0  0  2  0  0  3  0  0  0  0  0  0
  188.8870  177.3800  143.4560 C   0  0  0  0  0  2  0  0  0  0  0  0
  188.2680  177.7900  146.7900 C   0  0  0  0  0  3  0  0  0  0  0  0
  187.8360  176.9510  145.7490 C   0  0  0  0  0  0  0  0  0  0  0  0
  186.4850  176.5690  145.7050 C   0  0  0  0  0  3  0  0  0  0  0  0
  184.2930  176.6140  146.6400 F   0  0  0  0  0  0  0  0  0  0  0  0
  186.0360  177.8200  147.7270 C   0  0  0  0  0  3  0  0  0  0  0  0
  185.5910  176.9960  146.6910 C   0  0  0  0  0  0  0  0  0  0  0  0
  187.3750  178.2190  147.7750 C   0  0  0  0  0  3  0  0  0  0  0  0
  196.7320  175.3320  143.8880 C   0  0  0  0  0  1  0  0  0  0  0  0
  195.5890  176.2900  144.1710 C   0  0  0  0  0  2  0  0  0  0  0  0
  1 27  1  0  0  0  0
  1  4  1  0  0  0  0
  2 24  1  0  0  0  0
  2 17  1  0  0  0  0
  4 37  1  6  0  0  0
  4 12  1  0  0  0  0
  5 19  1  0  0  0  0
  6  9  2  0  0  0  0
  7  3  1  6  0  0  0
  7 21  1  0  0  0  0
  7 10  1  0  0  0  0
  8 26  1  6  0  0  0
  8 18  1  0  0  0  0
  9  3  1  0  0  0  0
  9 13  1  0  0  0  0
 10  5  1  0  0  0  0
 11 16  2  0  0  0  0
 11  6  1  0  0  0  0
 12  8  1  0  0  0  0
 13 17  1  1  0  0  0
 13 21  1  0  0  0  0
 14  2  1  0  0  0  0
 15 28  1  0  0  0  0
 16 20  1  0  0  0  0
 18 25  1  6  0  0  0
 18 19  1  0  0  0  0
 20 15  1  0  0  0  0
 20  3  2  0  0  0  0
 21 27  1  0  0  0  0
 22  6  1  0  0  0  0
 22  2  1  0  0  0  0
 23 10  2  0  0  0  0
 23 30  1  0  0  0  0
 27 25  1  0  0  0  0
 28 23  1  0  0  0  0
 29 35  1  0  0  0  0
 30 29  2  0  0  0  0
 31 30  1  0  0  0  0
 31 34  2  0  0  0  0
 32 34  1  0  0  0  0
 33 35  2  0  0  0  0
 34 33  1  0  0  0  0
 36 37  1  0  0  0  0
M  END
>  <MODEL>
2

>  <REMARK>
 VINA RESULT:      -9.1      0.841      1.157
  Name = 
  2 active torsions:
  status: ('A' for Active; 'I' for Inactive)
    1  A    between atoms: C_4  and  C_37
    2  A    between atoms: C_23  and  C_30
                            x       y       z     vdW  Elec       q    Type
                         _______ _______ _______ _____ _____    ______ ____

>  <TORSDO>
F 2

$$$$
=
 OpenBabel11112417083D

 37 43  0  0  1  0  0  0  0  0999 V2000
  191.9170  172.4150  142.9580 C   0  0  0  0  0  2  0  0  0  0  0  0
  195.8390  176.1010  142.4110 C   0  0  0  0  0  0  0  0  0  0  0  0
  192.6830  175.5600  145.1120 C   0  0  0  0  0  0  0  0  0  0  0  0
  191.2190  171.2650  142.2300 C   0  0  2  0  0  3  0  0  0  0  0  0
  189.6850  175.9890  143.0590 N   0  0  0  0  0  2  0  0  0  0  0  0
  194.9470  176.3300  144.8180 C   0  0  0  0  0  0  0  0  0  0  0  0
  191.6350  174.9320  144.2530 C   0  0  1  0  0  3  0  0  0  0  0  0
  189.0380  172.5810  142.8610 C   0  0  2  0  0  3  0  0  0  0  0  0
  193.8380  175.6080  144.3960 C   0  0  0  0  0  0  0  0  0  0  0  0
  190.3120  175.6570  144.3010 C   0  0  0  0  0  0  0  0  0  0  0  0
  194.9090  176.9120  146.0930 C   0  0  0  0  0  3  0  0  0  0  0  0
  189.6880  171.2680  142.3940 C   0  0  0  0  0  2  0  0  0  0  0  0
  193.6640  175.0120  143.0690 C   0  0  2  0  0  3  0  0  0  0  0  0
  196.5780  174.7820  142.2550 C   0  0  0  0  0  1  0  0  0  0  0  0
  191.3620  176.1430  147.2420 C   0  0  0  0  0  2  0  0  0  0  0  0
  193.7510  176.7910  146.8880 C   0  0  0  0  0  3  0  0  0  0  0  0
  194.3500  175.9140  142.0460 C   0  0  0  0  0  2  0  0  0  0  0  0
  189.2910  173.7970  141.9500 C   0  0  1  0  0  3  0  0  0  0  0  0
  188.6880  175.1180  142.4460 C   0  0  0  0  0  2  0  0  0  0  0  0
  192.6110  176.1220  146.4030 C   0  0  0  0  0  0  0  0  0  0  0  0
  192.2100  174.9370  142.8850 N   0  0  1  0  0  0  0  0  0  0  0  0
  196.0610  176.6360  143.8490 C   0  0  0  0  0  2  0  0  0  0  0  0
  189.6460  175.7920  145.4720 C   0  0  0  0  0  0  0  0  0  0  0  0
  196.4440  177.0910  141.4400 C   0  0  0  0  0  1  0  0  0  0  0  0
  190.6490  173.9120  141.2410 C   0  0  0  0  0  2  0  0  0  0  0  0
  189.3480  172.8390  144.1970 O   0  0  0  0  0  1  0  0  0  0  0  0
  191.8830  173.7160  142.1330 C   0  0  2  0  0  3  0  0  0  0  0  0
  190.2510  175.2330  146.7310 C   0  0  0  0  0  2  0  0  0  0  0  0
  187.4420  176.1280  146.6040 C   0  0  0  0  0  3  0  0  0  0  0  0
  188.3380  176.4880  145.5850 C   0  0  0  0  0  0  0  0  0  0  0  0
  187.9920  177.5410  144.7210 C   0  0  0  0  0  3  0  0  0  0  0  0
  186.4460  179.2110  144.0140 F   0  0  0  0  0  0  0  0  0  0  0  0
  185.8830  177.8270  145.8700 C   0  0  0  0  0  3  0  0  0  0  0  0
  186.7700  178.2040  144.8590 C   0  0  0  0  0  0  0  0  0  0  0  0
  186.2190  176.7910  146.7440 C   0  0  0  0  0  3  0  0  0  0  0  0
  192.6920  170.1260  143.8880 C   0  0  0  0  0  1  0  0  0  0  0  0
  191.7650  169.9310  142.7040 C   0  0  0  0  0  2  0  0  0  0  0  0
  2 22  1  0  0  0  0
  3 20  1  0  0  0  0
  4 12  1  0  0  0  0
  4 37  1  1  0  0  0
  4  1  1  0  0  0  0
  5 10  1  0  0  0  0
  6 11  2  0  0  0  0
  7 10  1  6  0  0  0
  7  3  1  0  0  0  0
  8 26  1  1  0  0  0
  9  6  1  0  0  0  0
  9  3  2  0  0  0  0
 10 23  2  0  0  0  0
 11 16  1  0  0  0  0
 12  8  1  0  0  0  0
 13 17  1  6  0  0  0
 13  9  1  0  0  0  0
 14  2  1  0  0  0  0
 17  2  1  0  0  0  0
 18 25  1  1  0  0  0
 18 19  1  0  0  0  0
 18  8  1  0  0  0  0
 19  5  1  0  0  0  0
 20 16  2  0  0  0  0
 20 15  1  0  0  0  0
 21 13  1  0  0  0  0
 21  7  1  0  0  0  0
 22  6  1  0  0  0  0
 23 30  1  0  0  0  0
 23 28  1  0  0  0  0
 24  2  1  0  0  0  0
 25 27  1  0  0  0  0
 27 21  1  0  0  0  0
 27  1  1  0  0  0  0
 28 15  1  0  0  0  0
 29 35  1  0  0  0  0
 30 29  2  0  0  0  0
 31 34  2  0  0  0  0
 31 30  1  0  0  0  0
 32 34  1  0  0  0  0
 33 35  2  0  0  0  0
 34 33  1  0  0  0  0
 37 36  1  0  0  0  0
M  END
>  <MODEL>
3

>  <REMARK>
 VINA RESULT:      -8.7      1.779      5.342
  Name = 
  2 active torsions:
  status: ('A' for Active; 'I' for Inactive)
    1  A    between atoms: C_4  and  C_37
    2  A    between atoms: C_23  and  C_30
                            x       y       z     vdW  Elec       q    Type
                         _______ _______ _______ _____ _____    ______ ____

>  <TORSDO>
F 2

$$$$
=
 OpenBabel11112417083D

 37 43  0  0  1  0  0  0  0  0999 V2000
  191.7360  172.3840  142.8070 C   0  0  0  0  0  2  0  0  0  0  0  0
  195.8210  175.8250  143.6680 C   0  0  0  0  0  0  0  0  0  0  0  0
  191.9410  175.4400  145.2020 C   0  0  0  0  0  0  0  0  0  0  0  0
  191.2460  171.2920  141.8550 C   0  0  2  0  0  3  0  0  0  0  0  0
  189.7860  176.0880  142.3170 N   0  0  0  0  0  2  0  0  0  0  0  0
  194.2190  176.0720  145.6710 C   0  0  0  0  0  0  0  0  0  0  0  0
  191.1910  174.8930  144.0320 C   0  0  1  0  0  3  0  0  0  0  0  0
  189.0530  172.7310  141.8040 C   0  0  2  0  0  3  0  0  0  0  0  0
  193.2660  175.4270  144.8940 C   0  0  0  0  0  0  0  0  0  0  0  0
  189.9640  175.6980  143.6820 C   0  0  0  0  0  0  0  0  0  0  0  0
  193.8070  176.6340  146.8880 C   0  0  0  0  0  3  0  0  0  0  0  0
  189.7460  171.3880  141.5220 C   0  0  0  0  0  2  0  0  0  0  0  0
  193.4940  174.8640  143.5600 C   0  0  2  0  0  3  0  0  0  0  0  0
  196.4980  174.4650  143.7080 C   0  0  0  0  0  1  0  0  0  0  0  0
  190.0420  176.0700  146.8190 C   0  0  0  0  0  2  0  0  0  0  0  0
  192.4500  176.5730  147.2670 C   0  0  0  0  0  3  0  0  0  0  0  0
  194.5190  175.7370  142.8410 C   0  0  0  0  0  2  0  0  0  0  0  0
  189.6490  173.9430  141.0640 C   0  0  1  0  0  3  0  0  0  0  0  0
  188.9930  175.2910  141.3880 C   0  0  0  0  0  2  0  0  0  0  0  0
  191.4910  175.9850  146.4210 C   0  0  0  0  0  0  0  0  0  0  0  0
  192.1730  174.8830  142.9200 N   0  0  1  0  0  0  0  0  0  0  0  0
  195.5990  176.3220  145.1190 C   0  0  0  0  0  2  0  0  0  0  0  0
  188.9670  175.8560  144.5830 C   0  0  0  0  0  0  0  0  0  0  0  0
  196.7570  176.7910  142.9750 C   0  0  0  0  0  1  0  0  0  0  0  0
  191.1670  173.9840  140.8290 C   0  0  0  0  0  2  0  0  0  0  0  0
  188.9330  172.9480  143.1770 O   0  0  0  0  0  1  0  0  0  0  0  0
  192.0390  173.6970  142.0600 C   0  0  2  0  0  3  0  0  0  0  0  0
  189.1050  175.2400  145.9490 C   0  0  0  0  0  2  0  0  0  0  0  0
  186.7470  176.0900  143.4550 C   0  0  0  0  0  3  0  0  0  0  0  0
  187.7310  176.6310  144.2980 C   0  0  0  0  0  0  0  0  0  0  0  0
  187.4970  177.8810  144.8950 C   0  0  0  0  0  3  0  0  0  0  0  0
  186.1080  179.7910  145.2140 F   0  0  0  0  0  0  0  0  0  0  0  0
  185.3520  178.0390  143.7870 C   0  0  0  0  0  3  0  0  0  0  0  0
  186.3170  178.5840  144.6380 C   0  0  0  0  0  0  0  0  0  0  0  0
  185.5660  176.7910  143.1970 C   0  0  0  0  0  3  0  0  0  0  0  0
  190.8220  168.8450  141.6330 C   0  0  0  0  0  1  0  0  0  0  0  0
  191.5390  169.9180  142.4300 C   0  0  0  0  0  2  0  0  0  0  0  0
  2 14  1  0  0  0  0
  2 22  1  0  0  0  0
  3 20  1  0  0  0  0
  4 37  1  1  0  0  0
  4  1  1  0  0  0  0
  5 10  1  0  0  0  0
  6 11  2  0  0  0  0
  7 10  1  6  0  0  0
  7  3  1  0  0  0  0
  8 26  1  1  0  0  0
  9  3  2  0  0  0  0
  9  6  1  0  0  0  0
 10 23  2  0  0  0  0
 11 16  1  0  0  0  0
 12  8  1  0  0  0  0
 12  4  1  0  0  0  0
 13 17  1  6  0  0  0
 13  9  1  0  0  0  0
 17  2  1  0  0  0  0
 18 25  1  1  0  0  0
 18 19  1  0  0  0  0
 18  8  1  0  0  0  0
 19  5  1  0  0  0  0
 20 15  1  0  0  0  0
 20 16  2  0  0  0  0
 21 13  1  0  0  0  0
 21  7  1  0  0  0  0
 22  6  1  0  0  0  0
 23 28  1  0  0  0  0
 24  2  1  0  0  0  0
 25 27  1  0  0  0  0
 27  1  1  0  0  0  0
 27 21  1  0  0  0  0
 28 15  1  0  0  0  0
 29 30  1  0  0  0  0
 30 23  1  0  0  0  0
 30 31  2  0  0  0  0
 33 34  2  0  0  0  0
 34 31  1  0  0  0  0
 34 32  1  0  0  0  0
 35 29  2  0  0  0  0
 35 33  1  0  0  0  0
 36 37  1  0  0  0  0
M  END
>  <MODEL>
4

>  <REMARK>
 VINA RESULT:      -8.6      1.867      5.483
  Name = 
  2 active torsions:
  status: ('A' for Active; 'I' for Inactive)
    1  A    between atoms: C_4  and  C_37
    2  A    between atoms: C_23  and  C_30
                            x       y       z     vdW  Elec       q    Type
                         _______ _______ _______ _____ _____    ______ ____

>  <TORSDO>
F 2

$$$$
=
 OpenBabel11112417083D

 37 43  0  0  1  0  0  0  0  0999 V2000
  196.4700  173.8640  143.4980 C   0  0  0  0  0  2  0  0  0  0  0  0
  196.7120  169.2140  146.2520 C   0  0  0  0  0  0  0  0  0  0  0  0
  193.6470  171.3210  144.3240 C   0  0  0  0  0  0  0  0  0  0  0  0
  197.2580  175.1380  143.1920 C   0  0  2  0  0  3  0  0  0  0  0  0
  193.3410  174.4050  146.2690 N   0  0  0  0  0  2  0  0  0  0  0  0
  194.5220  169.1500  144.8950 C   0  0  0  0  0  0  0  0  0  0  0  0
  194.0650  172.7410  144.5220 C   0  0  1  0  0  3  0  0  0  0  0  0
  195.0430  176.3340  143.9340 C   0  0  2  0  0  3  0  0  0  0  0  0
  194.6670  170.5220  144.7370 C   0  0  0  0  0  0  0  0  0  0  0  0
  192.9890  173.5990  145.1410 C   0  0  0  0  0  0  0  0  0  0  0  0
  193.3200  168.5610  144.4780 C   0  0  0  0  0  3  0  0  0  0  0  0
  196.4000  176.4170  143.2170 C   0  0  0  0  0  2  0  0  0  0  0  0
  195.8100  171.3160  145.1950 C   0  0  2  0  0  3  0  0  0  0  0  0
  197.9060  169.1260  145.3160 C   0  0  0  0  0  1  0  0  0  0  0  0
  191.2410  171.5810  143.4500 C   0  0  0  0  0  2  0  0  0  0  0  0
  192.2850  169.3660  143.9590 C   0  0  0  0  0  3  0  0  0  0  0  0
  196.3380  170.6950  146.4860 C   0  0  0  0  0  2  0  0  0  0  0  0
  195.1100  175.9330  145.4200 C   0  0  1  0  0  3  0  0  0  0  0  0
  193.7520  175.7960  146.1190 C   0  0  0  0  0  2  0  0  0  0  0  0
  192.4280  170.7650  143.8860 C   0  0  0  0  0  0  0  0  0  0  0  0
  195.2680  172.6670  145.3880 N   0  0  1  0  0  0  0  0  0  0  0  0
  195.5510  168.3670  145.6710 C   0  0  0  0  0  2  0  0  0  0  0  0
  191.7980  173.7600  144.5180 C   0  0  0  0  0  0  0  0  0  0  0  0
  197.1160  168.6130  147.5810 C   0  0  0  0  0  1  0  0  0  0  0  0
  196.1880  174.9300  145.8600 C   0  0  0  0  0  2  0  0  0  0  0  0
  194.1470  175.5470  143.2080 O   0  0  0  0  0  1  0  0  0  0  0  0
  196.2930  173.6530  145.0140 C   0  0  2  0  0  3  0  0  0  0  0  0
  191.5490  173.0550  143.2120 C   0  0  0  0  0  2  0  0  0  0  0  0
  189.9590  174.1340  146.1710 C   0  0  0  0  0  3  0  0  0  0  0  0
  190.7000  174.5950  145.0710 C   0  0  0  0  0  0  0  0  0  0  0  0
  190.4150  175.8680  144.5490 C   0  0  0  0  0  3  0  0  0  0  0  0
  189.1280  177.8740  144.5810 F   0  0  0  0  0  0  0  0  0  0  0  0
  188.6600  176.1760  146.1850 C   0  0  0  0  0  3  0  0  0  0  0  0
  189.3980  176.6520  145.0990 C   0  0  0  0  0  0  0  0  0  0  0  0
  188.9410  174.9170  146.7230 C   0  0  0  0  0  3  0  0  0  0  0  0
  197.0870  175.6640  140.7600 C   0  0  0  0  0  1  0  0  0  0  0  0
  197.9410  175.0270  141.8410 C   0  0  0  0  0  2  0  0  0  0  0  0
  1 27  1  0  0  0  0
  2 17  1  0  0  0  0
  2 24  1  0  0  0  0
  3  9  1  0  0  0  0
  4 37  1  6  0  0  0
  4 12  1  0  0  0  0
  4  1  1  0  0  0  0
  6 22  1  0  0  0  0
  7  3  1  1  0  0  0
  7 10  1  0  0  0  0
  7 21  1  0  0  0  0
  8 26  1  6  0  0  0
  8 18  1  0  0  0  0
  9  6  2  0  0  0  0
  9 13  1  0  0  0  0
 10  5  1  0  0  0  0
 11  6  1  0  0  0  0
 12  8  1  0  0  0  0
 13 21  1  0  0  0  0
 13 17  1  1  0  0  0
 14  2  1  0  0  0  0
 15 20  1  0  0  0  0
 16 11  2  0  0  0  0
 18 25  1  6  0  0  0
 18 19  1  0  0  0  0
 19  5  1  0  0  0  0
 20 16  1  0  0  0  0
 20  3  2  0  0  0  0
 22  2  1  0  0  0  0
 23 30  1  0  0  0  0
 23 10  2  0  0  0  0
 27 21  1  0  0  0  0
 27 25  1  0  0  0  0
 28 15  1  0  0  0  0
 28 23  1  0  0  0  0
 29 35  1  0  0  0  0
 30 29  2  0  0  0  0
 31 30  1  0  0  0  0
 31 34  2  0  0  0  0
 32 34  1  0  0  0  0
 33 35  2  0  0  0  0
 34 33  1  0  0  0  0
 36 37  1  0  0  0  0
M  END
>  <MODEL>
5

>  <REMARK>
 VINA RESULT:      -8.1      3.482      5.360
  Name = 
  2 active torsions:
  status: ('A' for Active; 'I' for Inactive)
    1  A    between atoms: C_4  and  C_37
    2  A    between atoms: C_23  and  C_30
                            x       y       z     vdW  Elec       q    Type
                         _______ _______ _______ _____ _____    ______ ____

>  <TORSDO>
F 2

$$$$
=
 OpenBabel11112417083D

 37 43  0  0  1  0  0  0  0  0999 V2000
  191.7490  173.2040  141.7700 C   0  0  0  0  0  2  0  0  0  0  0  0
  189.6110  175.4820  146.1870 C   0  0  0  0  0  0  0  0  0  0  0  0
  193.4850  174.3660  145.0490 C   0  0  0  0  0  0  0  0  0  0  0  0
  191.3790  172.4620  140.4850 C   0  0  2  0  0  3  0  0  0  0  0  0
  193.3120  170.7200  144.7950 N   0  0  0  0  0  2  0  0  0  0  0  0
  192.1440  175.9500  146.2720 C   0  0  0  0  0  0  0  0  0  0  0  0
  193.2320  173.1660  144.1970 C   0  0  1  0  0  3  0  0  0  0  0  0
  193.1590  170.7270  141.3240 C   0  0  2  0  0  3  0  0  0  0  0  0
  192.2860  174.9450  145.3240 C   0  0  0  0  0  0  0  0  0  0  0  0
  194.0190  171.9530  144.6270 C   0  0  0  0  0  0  0  0  0  0  0  0
  193.3050  176.4730  146.8590 C   0  0  0  0  0  3  0  0  0  0  0  0
  192.3050  171.2730  140.1680 C   0  0  0  0  0  2  0  0  0  0  0  0
  191.1880  174.2220  144.6780 C   0  0  2  0  0  3  0  0  0  0  0  0
  188.9760  176.2650  145.0500 C   0  0  0  0  0  1  0  0  0  0  0  0
  196.0350  174.2660  145.3830 C   0  0  0  0  0  2  0  0  0  0  0  0
  194.5660  175.9470  146.5130 C   0  0  0  0  0  3  0  0  0  0  0  0
  190.0460  174.0880  145.6830 C   0  0  0  0  0  2  0  0  0  0  0  0
  192.3650  170.2310  142.5480 C   0  0  1  0  0  3  0  0  0  0  0  0
  193.2200  169.7370  143.7210 C   0  0  0  0  0  2  0  0  0  0  0  0
  194.6760  174.8720  145.6090 C   0  0  0  0  0  0  0  0  0  0  0  0
  191.7700  172.9310  144.2950 N   0  0  1  0  0  0  0  0  0  0  0  0
  190.7740  176.3140  146.7860 C   0  0  0  0  0  2  0  0  0  0  0  0
  195.3720  171.9830  144.6430 C   0  0  0  0  0  0  0  0  0  0  0  0
  188.5640  175.2910  147.2630 C   0  0  0  0  0  1  0  0  0  0  0  0
  191.0740  170.9690  142.9310 C   0  0  0  0  0  2  0  0  0  0  0  0
  194.1630  171.6320  141.6690 O   0  0  0  0  0  1  0  0  0  0  0  0
  191.1830  172.4990  143.0180 C   0  0  2  0  0  3  0  0  0  0  0  0
  196.0850  173.2490  144.2500 C   0  0  0  0  0  2  0  0  0  0  0  0
  196.9890  170.1550  144.0950 C   0  0  0  0  0  3  0  0  0  0  0  0
  196.2050  170.8210  145.0510 C   0  0  0  0  0  0  0  0  0  0  0  0
  196.2670  170.3990  146.3900 C   0  0  0  0  0  3  0  0  0  0  0  0
  197.1210  168.9210  148.0530 F   0  0  0  0  0  0  0  0  0  0  0  0
  197.8420  168.6610  145.7970 C   0  0  0  0  0  3  0  0  0  0  0  0
  197.0770  169.3220  146.7600 C   0  0  0  0  0  0  0  0  0  0  0  0
  197.8000  169.0780  144.4640 C   0  0  0  0  0  3  0  0  0  0  0  0
  190.0220  173.4220  138.6250 C   0  0  0  0  0  1  0  0  0  0  0  0
  191.3790  173.4170  139.3040 C   0  0  0  0  0  2  0  0  0  0  0  0
  1 27  1  0  0  0  0
  2 22  1  0  0  0  0
  2 24  1  0  0  0  0
  3  9  2  0  0  0  0
  3 20  1  0  0  0  0
  4 37  1  6  0  0  0
  4  1  1  0  0  0  0
  6 22  1  0  0  0  0
  6 11  2  0  0  0  0
  7 21  1  0  0  0  0
  7 10  1  1  0  0  0
  7  3  1  0  0  0  0
  8 26  1  1  0  0  0
  8 18  1  0  0  0  0
  9  6  1  0  0  0  0
 10 23  2  0  0  0  0
 10  5  1  0  0  0  0
 12  4  1  0  0  0  0
 12  8  1  0  0  0  0
 13  9  1  0  0  0  0
 13 17  1  1  0  0  0
 14  2  1  0  0  0  0
 15 20  1  0  0  0  0
 16 11  1  0  0  0  0
 17  2  1  0  0  0  0
 18 25  1  1  0  0  0
 18 19  1  0  0  0  0
 19  5  1  0  0  0  0
 20 16  2  0  0  0  0
 21 13  1  0  0  0  0
 23 30  1  0  0  0  0
 25 27  1  0  0  0  0
 27 21  1  0  0  0  0
 28 23  1  0  0  0  0
 28 15  1  0  0  0  0
 29 35  2  0  0  0  0
 29 30  1  0  0  0  0
 30 31  2  0  0  0  0
 31 34  1  0  0  0  0
 33 34  2  0  0  0  0
 34 32  1  0  0  0  0
 35 33  1  0  0  0  0
 36 37  1  0  0  0  0
M  END
>  <MODEL>
6

>  <REMARK>
 VINA RESULT:      -7.9      4.000      8.332
  Name = 
  2 active torsions:
  status: ('A' for Active; 'I' for Inactive)
    1  A    between atoms: C_4  and  C_37
    2  A    between atoms: C_23  and  C_30
                            x       y       z     vdW  Elec       q    Type
                         _______ _______ _______ _____ _____    ______ ____

>  <TORSDO>
F 2

$$$$
=
 OpenBabel11112417083D

 37 43  0  0  1  0  0  0  0  0999 V2000
  195.1910  174.3090  144.8170 C   0  0  0  0  0  2  0  0  0  0  0  0
  190.1910  176.2720  145.4590 C   0  0  0  0  0  0  0  0  0  0  0  0
  192.1270  174.1180  142.4310 C   0  0  0  0  0  0  0  0  0  0  0  0
  196.6080  174.3810  145.3880 C   0  0  2  0  0  3  0  0  0  0  0  0
  194.6870  176.4280  141.2080 N   0  0  0  0  0  2  0  0  0  0  0  0
  190.0500  174.5000  143.5920 C   0  0  0  0  0  0  0  0  0  0  0  0
  193.5280  174.6230  142.5300 C   0  0  1  0  0  3  0  0  0  0  0  0
  197.2750  174.8330  142.8910 C   0  0  2  0  0  3  0  0  0  0  0  0
  191.4320  174.5980  143.4980 C   0  0  0  0  0  0  0  0  0  0  0  0
  194.0710  175.1370  141.2190 C   0  0  0  0  0  0  0  0  0  0  0  0
  189.3730  173.7570  142.6150 C   0  0  0  0  0  3  0  0  0  0  0  0
  197.7080  174.4340  144.3110 C   0  0  0  0  0  2  0  0  0  0  0  0
  192.2910  175.4030  144.3700 C   0  0  2  0  0  3  0  0  0  0  0  0
  190.4740  175.5990  146.7920 C   0  0  0  0  0  1  0  0  0  0  0  0
  192.1720  172.8210  140.2100 C   0  0  0  0  0  2  0  0  0  0  0  0
  190.0920  173.1720  141.5520 C   0  0  0  0  0  3  0  0  0  0  0  0
  191.5210  176.6580  144.7740 C   0  0  0  0  0  2  0  0  0  0  0  0
  196.6090  176.2170  142.7740 C   0  0  1  0  0  3  0  0  0  0  0  0
  196.1280  176.5910  141.3660 C   0  0  0  0  0  2  0  0  0  0  0  0
  191.4830  173.3550  141.4360 C   0  0  0  0  0  0  0  0  0  0  0  0
  193.4770  175.6940  143.5560 N   0  0  1  0  0  0  0  0  0  0  0  0
  189.3020  175.3350  144.6000 C   0  0  0  0  0  2  0  0  0  0  0  0
  194.1620  174.3170  140.1460 C   0  0  0  0  0  0  0  0  0  0  0  0
  189.4130  177.5410  145.7320 C   0  0  0  0  0  1  0  0  0  0  0  0
  195.7200  176.7030  143.9290 C   0  0  0  0  0  2  0  0  0  0  0  0
  196.5150  173.8220  142.3020 O   0  0  0  0  0  1  0  0  0  0  0  0
  194.6640  175.7030  144.4220 C   0  0  2  0  0  3  0  0  0  0  0  0
  193.6940  172.8920  140.2670 C   0  0  0  0  0  2  0  0  0  0  0  0
  193.8160  175.2880  137.8670 C   0  0  0  0  0  3  0  0  0  0  0  0
  194.6920  174.7590  138.8290 C   0  0  0  0  0  0  0  0  0  0  0  0
  196.0650  174.7070  138.5380 C   0  0  0  0  0  3  0  0  0  0  0  0
  197.8750  175.0900  137.0360 F   0  0  0  0  0  0  0  0  0  0  0  0
  195.6660  175.6660  136.3530 C   0  0  0  0  0  3  0  0  0  0  0  0
  196.5500  175.1530  137.3060 C   0  0  0  0  0  0  0  0  0  0  0  0
  194.2990  175.7350  136.6350 C   0  0  0  0  0  3  0  0  0  0  0  0
  196.8160  171.9000  145.5230 C   0  0  0  0  0  1  0  0  0  0  0  0
  196.8690  173.1990  146.3040 C   0  0  0  0  0  2  0  0  0  0  0  0
  1  4  1  0  0  0  0
  2 24  1  0  0  0  0
  2 14  1  0  0  0  0
  3  7  1  0  0  0  0
  3  9  1  0  0  0  0
  4 37  1  1  0  0  0
  5 10  1  0  0  0  0
  5 19  1  0  0  0  0
  6 22  1  0  0  0  0
  7 10  1  6  0  0  0
  7 21  1  0  0  0  0
  8 26  1  1  0  0  0
  8 12  1  0  0  0  0
  9  6  2  0  0  0  0
  9 13  1  0  0  0  0
 11  6  1  0  0  0  0
 12  4  1  0  0  0  0
 13 17  1  6  0  0  0
 15 28  1  0  0  0  0
 15 20  1  0  0  0  0
 16 11  2  0  0  0  0
 17  2  1  0  0  0  0
 18 19  1  6  0  0  0
 18  8  1  0  0  0  0
 18 25  1  0  0  0  0
 20 16  1  0  0  0  0
 20  3  2  0  0  0  0
 21 13  1  0  0  0  0
 21 27  1  0  0  0  0
 22  2  1  0  0  0  0
 23 28  1  0  0  0  0
 23 10  2  0  0  0  0
 25 27  1  0  0  0  0
 27  1  1  0  0  0  0
 29 30  1  0  0  0  0
 30 23  1  0  0  0  0
 31 30  2  0  0  0  0
 32 34  1  0  0  0  0
 33 35  1  0  0  0  0
 33 34  2  0  0  0  0
 34 31  1  0  0  0  0
 35 29  2  0  0  0  0
 36 37  1  0  0  0  0
M  END
>  <MODEL>
7

>  <REMARK>
 VINA RESULT:      -7.8      4.215      7.612
  Name = 
  2 active torsions:
  status: ('A' for Active; 'I' for Inactive)
    1  A    between atoms: C_4  and  C_37
    2  A    between atoms: C_23  and  C_30
                            x       y       z     vdW  Elec       q    Type
                         _______ _______ _______ _____ _____    ______ ____

>  <TORSDO>
F 2

$$$$
=
 OpenBabel11112417083D

 37 43  0  0  1  0  0  0  0  0999 V2000
  194.4080  175.0300  143.9830 C   0  0  0  0  0  2  0  0  0  0  0  0
  193.2750  169.7500  143.6690 C   0  0  0  0  0  0  0  0  0  0  0  0
  191.1380  173.2590  142.8500 C   0  0  0  0  0  0  0  0  0  0  0  0
  195.4200  176.0250  144.5540 C   0  0  2  0  0  3  0  0  0  0  0  0
  190.7810  174.8560  146.1220 N   0  0  0  0  0  2  0  0  0  0  0  0
  191.5210  170.9640  142.2230 C   0  0  0  0  0  0  0  0  0  0  0  0
  191.6870  174.2080  143.8630 C   0  0  1  0  0  3  0  0  0  0  0  0
  193.2810  177.1930  145.5250 C   0  0  2  0  0  3  0  0  0  0  0  0
  191.8950  172.1290  142.8800 C   0  0  0  0  0  0  0  0  0  0  0  0
  190.6210  174.8690  144.7010 C   0  0  0  0  0  0  0  0  0  0  0  0
  190.3960  171.0090  141.3880 C   0  0  0  0  0  3  0  0  0  0  0  0
  194.7750  177.2790  145.1720 C   0  0  0  0  0  2  0  0  0  0  0  0
  192.9810  172.2460  143.8560 C   0  0  2  0  0  3  0  0  0  0  0  0
  194.6450  169.8510  143.0180 C   0  0  0  0  0  1  0  0  0  0  0  0
  189.0990  174.5450  141.9500 C   0  0  0  0  0  2  0  0  0  0  0  0
  189.6540  172.2030  141.2720 C   0  0  0  0  0  3  0  0  0  0  0  0
  193.0670  170.9360  144.6360 C   0  0  0  0  0  2  0  0  0  0  0  0
  192.9070  176.0830  146.5250 C   0  0  1  0  0  3  0  0  0  0  0  0
  191.4090  175.9630  146.8340 C   0  0  0  0  0  2  0  0  0  0  0  0
  190.0070  173.3460  142.0140 C   0  0  0  0  0  0  0  0  0  0  0  0
  192.6050  173.3900  144.6940 N   0  0  1  0  0  0  0  0  0  0  0  0
  192.1950  169.6580  142.5610 C   0  0  0  0  0  2  0  0  0  0  0  0
  189.6650  175.6300  144.1190 C   0  0  0  0  0  0  0  0  0  0  0  0
  193.2350  168.4690  144.4750 C   0  0  0  0  0  1  0  0  0  0  0  0
  193.6820  174.7580  146.4720 C   0  0  0  0  0  2  0  0  0  0  0  0
  192.5000  177.1570  144.3690 O   0  0  0  0  0  1  0  0  0  0  0  0
  193.8200  174.1230  145.0810 C   0  0  2  0  0  3  0  0  0  0  0  0
  189.6630  175.7910  142.6220 C   0  0  0  0  0  2  0  0  0  0  0  0
  188.1960  175.8040  146.1350 C   0  0  0  0  0  3  0  0  0  0  0  0
  188.5910  176.3120  144.8870 C   0  0  0  0  0  0  0  0  0  0  0  0
  187.9900  177.4920  144.4160 C   0  0  0  0  0  3  0  0  0  0  0  0
  186.4250  179.2670  144.6950 F   0  0  0  0  0  0  0  0  0  0  0  0
  186.6090  177.6120  146.3990 C   0  0  0  0  0  3  0  0  0  0  0  0
  187.0020  178.1360  145.1650 C   0  0  0  0  0  0  0  0  0  0  0  0
  187.2080  176.4470  146.8850 C   0  0  0  0  0  3  0  0  0  0  0  0
  195.7490  176.4160  142.1130 C   0  0  0  0  0  1  0  0  0  0  0  0
  196.4040  176.4530  143.4810 C   0  0  0  0  0  2  0  0  0  0  0  0
  1  4  1  0  0  0  0
  1 27  1  0  0  0  0
  2 24  1  0  0  0  0
  2 17  1  0  0  0  0
  3  9  1  0  0  0  0
  4 37  1  6  0  0  0
  4 12  1  0  0  0  0
  5 19  1  0  0  0  0
  6 22  1  0  0  0  0
  6  9  2  0  0  0  0
  7  3  1  6  0  0  0
  7 21  1  0  0  0  0
  7 10  1  0  0  0  0
  8 26  1  6  0  0  0
  8 18  1  0  0  0  0
  9 13  1  0  0  0  0
 10  5  1  0  0  0  0
 11  6  1  0  0  0  0
 12  8  1  0  0  0  0
 13 17  1  1  0  0  0
 13 21  1  0  0  0  0
 14  2  1  0  0  0  0
 15 20  1  0  0  0  0
 15 28  1  0  0  0  0
 16 11  2  0  0  0  0
 16 20  1  0  0  0  0
 18 25  1  6  0  0  0
 18 19  1  0  0  0  0
 20  3  2  0  0  0  0
 21 27  1  0  0  0  0
 22  2  1  0  0  0  0
 23 10  2  0  0  0  0
 23 30  1  0  0  0  0
 27 25  1  0  0  0  0
 28 23  1  0  0  0  0
 29 35  1  0  0  0  0
 30 29  2  0  0  0  0
 31 30  1  0  0  0  0
 31 34  2  0  0  0  0
 32 34  1  0  0  0  0
 33 35  2  0  0  0  0
 34 33  1  0  0  0  0
 36 37  1  0  0  0  0
M  END
>  <MODEL>
8

>  <REMARK>
 VINA RESULT:      -7.8      1.681      2.333
  Name = 
  2 active torsions:
  status: ('A' for Active; 'I' for Inactive)
    1  A    between atoms: C_4  and  C_37
    2  A    between atoms: C_23  and  C_30
                            x       y       z     vdW  Elec       q    Type
                         _______ _______ _______ _____ _____    ______ ____

>  <TORSDO>
F 2

$$$$
=
 OpenBabel11112417083D

 37 43  0  0  1  0  0  0  0  0999 V2000
  190.0030  175.9060  142.9010 C   0  0  0  0  0  2  0  0  0  0  0  0
  194.9720  175.5350  145.0100 C   0  0  0  0  0  0  0  0  0  0  0  0
  193.3210  174.7410  141.2420 C   0  0  0  0  0  0  0  0  0  0  0  0
  188.5330  176.0870  143.2790 C   0  0  2  0  0  3  0  0  0  0  0  0
  191.0310  171.9540  141.8550 N   0  0  0  0  0  2  0  0  0  0  0  0
  195.2580  175.5150  142.4480 C   0  0  0  0  0  0  0  0  0  0  0  0
  191.9410  174.2880  141.5900 C   0  0  1  0  0  3  0  0  0  0  0  0
  188.1910  173.9550  141.7880 C   0  0  2  0  0  3  0  0  0  0  0  0
  193.9030  175.2200  142.3740 C   0  0  0  0  0  0  0  0  0  0  0  0
  191.5840  172.9500  140.9900 C   0  0  0  0  0  0  0  0  0  0  0  0
  196.0140  175.4440  141.2700 C   0  0  0  0  0  3  0  0  0  0  0  0
  187.5740  175.1740  142.4920 C   0  0  0  0  0  2  0  0  0  0  0  0
  192.9820  175.1540  143.5110 C   0  0  2  0  0  3  0  0  0  0  0  0
  194.5010  176.9050  145.4680 C   0  0  0  0  0  1  0  0  0  0  0  0
  193.4860  174.1150  138.7520 C   0  0  0  0  0  2  0  0  0  0  0  0
  195.4030  175.0390  140.0650 C   0  0  0  0  0  3  0  0  0  0  0  0
  193.7520  174.6320  144.7220 C   0  0  0  0  0  2  0  0  0  0  0  0
  188.9270  172.9680  142.7130 C   0  0  1  0  0  3  0  0  0  0  0  0
  189.5900  171.7810  142.0030 C   0  0  0  0  0  2  0  0  0  0  0  0
  194.0450  174.6670  140.0350 C   0  0  0  0  0  0  0  0  0  0  0  0
  191.9170  174.2440  143.0730 N   0  0  1  0  0  0  0  0  0  0  0  0
  195.9150  175.7070  143.7910 C   0  0  0  0  0  2  0  0  0  0  0  0
  191.5870  172.7780  139.6470 C   0  0  0  0  0  0  0  0  0  0  0  0
  195.7660  174.9140  146.1380 C   0  0  0  0  0  1  0  0  0  0  0  0
  189.6910  173.5270  143.9230 C   0  0  0  0  0  2  0  0  0  0  0  0
  188.9720  174.3530  140.7010 O   0  0  0  0  0  1  0  0  0  0  0  0
  190.6350  174.7020  143.6290 C   0  0  2  0  0  3  0  0  0  0  0  0
  191.9730  173.9290  138.7590 C   0  0  0  0  0  2  0  0  0  0  0  0
  190.0180  171.3580  138.3140 C   0  0  0  0  0  3  0  0  0  0  0  0
  191.2390  171.4880  138.9940 C   0  0  0  0  0  0  0  0  0  0  0  0
  192.1310  170.4020  138.9980 C   0  0  0  0  0  3  0  0  0  0  0  0
  192.6650  168.1660  138.3730 F   0  0  0  0  0  0  0  0  0  0  0  0
  190.5760  169.0870  137.6920 C   0  0  0  0  0  3  0  0  0  0  0  0
  191.8000  169.2070  138.3550 C   0  0  0  0  0  0  0  0  0  0  0  0
  189.6860  170.1630  137.6700 C   0  0  0  0  0  3  0  0  0  0  0  0
  188.1900  177.9160  141.6200 C   0  0  0  0  0  1  0  0  0  0  0  0
  188.1110  177.5320  143.0860 C   0  0  0  0  0  2  0  0  0  0  0  0
  1  4  1  0  0  0  0
  1 27  1  0  0  0  0
  2 14  1  0  0  0  0
  2 24  1  0  0  0  0
  3  7  1  0  0  0  0
  3  9  1  0  0  0  0
  4 37  1  6  0  0  0
  5 19  1  0  0  0  0
  6 22  1  0  0  0  0
  7 10  1  6  0  0  0
  7 21  1  0  0  0  0
  8 26  1  6  0  0  0
  8 12  1  0  0  0  0
  8 18  1  0  0  0  0
  9  6  2  0  0  0  0
  9 13  1  0  0  0  0
 10  5  1  0  0  0  0
 11  6  1  0  0  0  0
 12  4  1  0  0  0  0
 13 17  1  1  0  0  0
 15 28  1  0  0  0  0
 15 20  1  0  0  0  0
 16 11  2  0  0  0  0
 17  2  1  0  0  0  0
 18 19  1  6  0  0  0
 18 25  1  0  0  0  0
 20 16  1  0  0  0  0
 20  3  2  0  0  0  0
 21 13  1  0  0  0  0
 21 27  1  0  0  0  0
 22  2  1  0  0  0  0
 23 10  2  0  0  0  0
 27 25  1  0  0  0  0
 28 23  1  0  0  0  0
 29 30  1  0  0  0  0
 30 31  2  0  0  0  0
 30 23  1  0  0  0  0
 33 34  2  0  0  0  0
 34 32  1  0  0  0  0
 34 31  1  0  0  0  0
 35 33  1  0  0  0  0
 35 29  2  0  0  0  0
 36 37  1  0  0  0  0
M  END
>  <MODEL>
9

>  <REMARK>
 VINA RESULT:      -7.4      3.687      7.675
  Name = 
  2 active torsions:
  status: ('A' for Active; 'I' for Inactive)
    1  A    between atoms: C_4  and  C_37
    2  A    between atoms: C_23  and  C_30
                            x       y       z     vdW  Elec       q    Type
                         _______ _______ _______ _____ _____    ______ ____

>  <TORSDO>
F 2

$$$$
