=
 OpenBabel11112417373D

 28 31  0  0  1  0  0  0  0  0999 V2000
  187.9150  177.6740  144.4300 C   0  0  0  0  0  0  0  0  0  0  0  0
  190.3230  177.7680  147.1580 O   0  0  0  0  0  0  0  0  0  0  0  0
  185.7190  177.0830  146.0700 C   0  0  0  0  0  3  0  0  0  0  0  0
  189.0730  178.0340  143.5510 C   0  0  0  0  0  2  0  0  0  0  0  0
  190.2720  175.3880  147.7770 O   0  0  0  0  0  0  0  0  0  0  0  0
  190.8110  176.3940  146.7980 S   0  0  0  0  0  0  0  0  0  0  0  0
  193.2020  176.0770  145.4510 C   0  0  0  0  0  0  0  0  0  0  0  0
  190.3260  176.0020  145.1830 N   0  0  1  0  0  0  0  0  0  0  0  0
  186.7260  176.9350  141.5550 C   0  0  0  0  0  1  0  0  0  0  0  0
  188.9850  174.4360  143.9530 C   0  0  2  0  0  3  0  0  0  0  0  0
  192.5480  175.3770  144.5050 C   0  0  0  0  0  3  0  0  0  0  0  0
  192.6090  176.3570  146.8210 C   0  0  0  0  0  2  0  0  0  0  0  0
  188.1750  177.0320  141.4030 N   0  0  0  0  0  0  0  0  0  0  0  0
  187.8840  176.4610  145.1580 C   0  0  0  0  0  0  0  0  0  0  0  0
  194.5840  176.5480  145.1650 C   0  0  0  0  0  1  0  0  0  0  0  0
  188.9180  175.8130  141.7750 C   0  0  0  0  0  2  0  0  0  0  0  0
  186.7750  176.1770  145.9650 C   0  0  0  0  0  3  0  0  0  0  0  0
  186.8570  178.5850  144.5570 C   0  0  0  0  0  3  0  0  0  0  0  0
  185.7610  178.2890  145.3700 C   0  0  0  0  0  3  0  0  0  0  0  0
  188.6700  178.2350  142.0840 C   0  0  0  0  0  2  0  0  0  0  0  0
  190.4610  174.1980  143.6390 C   0  0  1  0  0  3  0  0  0  0  0  0
  188.1670  174.8570  142.7190 C   0  0  1  0  0  3  0  0  0  0  0  0
  191.1630  174.8900  144.7850 C   0  0  2  0  0  3  0  0  0  0  0  0
  188.9890  175.4300  145.1270 C   0  0  2  0  0  3  0  0  0  0  0  0
  188.5280  173.7470  140.8360 C   0  0  0  0  0  1  0  0  0  0  0  0
  187.7710  173.7210  142.0090 O   0  0  0  0  0  0  0  0  0  0  0  0
  190.7390  172.8310  143.6660 O   0  0  0  0  0  0  0  0  0  0  0  0
  189.9220  172.3220  144.6760 C   0  0  0  0  0  1  0  0  0  0  0  0
  1 18  2  0  0  0  0
  1 14  1  0  0  0  0
  4  1  1  0  0  0  0
  6 12  1  0  0  0  0
  6  2  2  0  0  0  0
  6  5  2  0  0  0  0
  7 12  1  0  0  0  0
  8  6  1  1  0  0  0
 10 24  1  0  0  0  0
 11 23  1  0  0  0  0
 11  7  2  0  0  0  0
 13  9  1  0  0  0  0
 13 16  1  0  0  0  0
 13 20  1  0  0  0  0
 14 17  2  0  0  0  0
 15  7  1  0  0  0  0
 16 22  1  0  0  0  0
 17  3  1  0  0  0  0
 18 19  1  0  0  0  0
 19  3  2  0  0  0  0
 20  4  1  0  0  0  0
 21 27  1  0  0  0  0
 21 10  1  0  0  0  0
 21 23  1  0  0  0  0
 22 10  1  0  0  0  0
 23  8  1  0  0  0  0
 24 14  1  0  0  0  0
 24  8  1  0  0  0  0
 25 26  1  0  0  0  0
 26 22  1  0  0  0  0
 27 28  1  0  0  0  0
M  END
>  <MODEL>
1

>  <REMARK>
 VINA RESULT:      -7.5      0.000      0.000
  Name = 
  2 active torsions:
  status: ('A' for Active; 'I' for Inactive)
    1  A    between atoms: O_5  and  C_24
    2  A    between atoms: O_17  and  C_25
                            x       y       z     vdW  Elec       q    Type
                         _______ _______ _______ _____ _____    ______ ____

>  <TORSDO>
F 2

$$$$
=
 OpenBabel11112417373D

 28 31  0  0  1  0  0  0  0  0999 V2000
  189.3610  176.8130  144.5030 C   0  0  0  0  0  0  0  0  0  0  0  0
  192.8700  176.8430  145.4690 O   0  0  0  0  0  0  0  0  0  0  0  0
  188.4690  175.6150  146.8760 C   0  0  0  0  0  3  0  0  0  0  0  0
  189.8200  177.4930  143.2510 C   0  0  0  0  0  2  0  0  0  0  0  0
  193.2740  174.4170  145.4630 O   0  0  0  0  0  0  0  0  0  0  0  0
  193.1360  175.6430  144.6050 S   0  0  0  0  0  0  0  0  0  0  0  0
  194.3900  175.9400  142.1620 C   0  0  0  0  0  0  0  0  0  0  0  0
  191.8540  175.4490  143.4570 N   0  0  1  0  0  0  0  0  0  0  0  0
  186.8100  176.3750  142.6230 C   0  0  0  0  0  1  0  0  0  0  0  0
  190.1270  173.9120  142.8130 C   0  0  2  0  0  3  0  0  0  0  0  0
  193.3530  175.3090  141.5790 C   0  0  0  0  0  3  0  0  0  0  0  0
  194.6450  175.8920  143.6580 C   0  0  0  0  0  2  0  0  0  0  0  0
  187.9260  176.7270  141.7500 N   0  0  0  0  0  0  0  0  0  0  0  0
  189.7920  175.5080  144.8400 C   0  0  0  0  0  0  0  0  0  0  0  0
  195.3600  176.6680  141.2990 C   0  0  0  0  0  1  0  0  0  0  0  0
  188.8040  175.5990  141.3830 C   0  0  0  0  0  2  0  0  0  0  0  0
  189.3290  174.9200  146.0240 C   0  0  0  0  0  3  0  0  0  0  0  0
  188.5120  177.5080  145.3750 C   0  0  0  0  0  3  0  0  0  0  0  0
  188.0640  176.9100  146.5550 C   0  0  0  0  0  3  0  0  0  0  0  0
  188.6630  177.8650  142.3140 C   0  0  0  0  0  2  0  0  0  0  0  0
  191.1900  173.9690  141.7180 C   0  0  1  0  0  3  0  0  0  0  0  0
  188.7450  174.3920  142.3370 C   0  0  1  0  0  3  0  0  0  0  0  0
  192.3790  174.5670  142.4360 C   0  0  2  0  0  3  0  0  0  0  0  0
  190.7370  174.6870  143.9930 C   0  0  2  0  0  3  0  0  0  0  0  0
  188.2220  172.2530  142.5750 C   0  0  0  0  0  1  0  0  0  0  0  0
  188.0710  173.3400  141.7120 O   0  0  0  0  0  0  0  0  0  0  0  0
  191.4960  172.6790  141.2830 O   0  0  0  0  0  0  0  0  0  0  0  0
  191.1060  172.6530  139.9430 C   0  0  0  0  0  1  0  0  0  0  0  0
  1 14  2  0  0  0  0
  1 18  1  0  0  0  0
  4  1  1  0  0  0  0
  6  5  2  0  0  0  0
  6  2  2  0  0  0  0
  7 12  1  0  0  0  0
  8 24  1  0  0  0  0
  8  6  1  1  0  0  0
 10 24  1  0  0  0  0
 11  7  2  0  0  0  0
 11 23  1  0  0  0  0
 12  6  1  0  0  0  0
 13 20  1  0  0  0  0
 13  9  1  0  0  0  0
 14 17  1  0  0  0  0
 15  7  1  0  0  0  0
 16 13  1  0  0  0  0
 16 22  1  0  0  0  0
 17  3  2  0  0  0  0
 18 19  2  0  0  0  0
 19  3  1  0  0  0  0
 20  4  1  0  0  0  0
 21 23  1  0  0  0  0
 21 10  1  0  0  0  0
 22 10  1  0  0  0  0
 23  8  1  0  0  0  0
 24 14  1  0  0  0  0
 26 22  1  0  0  0  0
 26 25  1  0  0  0  0
 27 21  1  0  0  0  0
 28 27  1  0  0  0  0
M  END
>  <MODEL>
2

>  <REMARK>
 VINA RESULT:      -7.2      2.084      2.613
  Name = 
  2 active torsions:
  status: ('A' for Active; 'I' for Inactive)
    1  A    between atoms: O_5  and  C_24
    2  A    between atoms: O_17  and  C_25
                            x       y       z     vdW  Elec       q    Type
                         _______ _______ _______ _____ _____    ______ ____

>  <TORSDO>
F 2

$$$$
=
 OpenBabel11112417373D

 28 31  0  0  1  0  0  0  0  0999 V2000
  191.0860  173.7520  144.3910 C   0  0  0  0  0  0  0  0  0  0  0  0
  190.1740  176.5720  146.5050 O   0  0  0  0  0  0  0  0  0  0  0  0
  193.6160  174.7590  143.7250 C   0  0  0  0  0  3  0  0  0  0  0  0
  189.7550  173.1840  144.7750 C   0  0  0  0  0  2  0  0  0  0  0  0
  190.0280  178.3040  144.7640 O   0  0  0  0  0  0  0  0  0  0  0  0
  189.3230  177.1420  145.4060 S   0  0  0  0  0  0  0  0  0  0  0  0
  186.5730  176.9010  145.5130 C   0  0  0  0  0  0  0  0  0  0  0  0
  188.9700  175.9140  144.2380 N   0  0  1  0  0  0  0  0  0  0  0  0
  190.7370  171.4960  142.1510 C   0  0  0  0  0  1  0  0  0  0  0  0
  189.3100  175.3710  141.9240 C   0  0  2  0  0  3  0  0  0  0  0  0
  186.6000  176.3250  144.2970 C   0  0  0  0  0  3  0  0  0  0  0  0
  187.7450  177.6870  146.0760 C   0  0  0  0  0  2  0  0  0  0  0  0
  189.4150  171.7320  142.7250 N   0  0  0  0  0  0  0  0  0  0  0  0
  191.1950  174.9650  143.6700 C   0  0  0  0  0  0  0  0  0  0  0  0
  185.3240  176.8130  146.3180 C   0  0  0  0  0  1  0  0  0  0  0  0
  188.6880  172.8810  142.1530 C   0  0  0  0  0  2  0  0  0  0  0  0
  192.4670  175.4490  143.3370 C   0  0  0  0  0  3  0  0  0  0  0  0
  192.2470  173.0770  144.7910 C   0  0  0  0  0  3  0  0  0  0  0  0
  193.5080  173.5760  144.4560 C   0  0  0  0  0  3  0  0  0  0  0  0
  189.5090  171.7870  144.1900 C   0  0  0  0  0  2  0  0  0  0  0  0
  187.8300  175.6600  142.1660 C   0  0  1  0  0  3  0  0  0  0  0  0
  189.5740  173.9290  141.4560 C   0  0  1  0  0  3  0  0  0  0  0  0
  187.8460  176.4150  143.4760 C   0  0  2  0  0  3  0  0  0  0  0  0
  190.0110  175.7920  143.2270 C   0  0  2  0  0  3  0  0  0  0  0  0
  188.2910  173.0020  139.9060 C   0  0  0  0  0  1  0  0  0  0  0  0
  189.3930  173.8430  140.0740 O   0  0  0  0  0  0  0  0  0  0  0  0
  187.3320  176.4780  141.1510 O   0  0  0  0  0  0  0  0  0  0  0  0
  187.9340  177.7190  141.3670 C   0  0  0  0  0  1  0  0  0  0  0  0
  1  4  1  0  0  0  0
  1 18  1  0  0  0  0
  3 19  1  0  0  0  0
  5  6  2  0  0  0  0
  6 12  1  0  0  0  0
  6  2  2  0  0  0  0
  7 12  1  0  0  0  0
  7 15  1  0  0  0  0
  8  6  1  1  0  0  0
  9 13  1  0  0  0  0
 10 21  1  0  0  0  0
 10 24  1  0  0  0  0
 11  7  2  0  0  0  0
 13 20  1  0  0  0  0
 14  1  2  0  0  0  0
 16 13  1  0  0  0  0
 17 14  1  0  0  0  0
 17  3  2  0  0  0  0
 19 18  2  0  0  0  0
 20  4  1  0  0  0  0
 21 23  1  0  0  0  0
 22 10  1  0  0  0  0
 22 16  1  0  0  0  0
 23  8  1  0  0  0  0
 23 11  1  0  0  0  0
 24 14  1  0  0  0  0
 24  8  1  0  0  0  0
 25 26  1  0  0  0  0
 26 22  1  0  0  0  0
 27 28  1  0  0  0  0
 27 21  1  0  0  0  0
M  END
>  <MODEL>
3

>  <REMARK>
 VINA RESULT:      -7.1      1.919      5.344
  Name = 
  2 active torsions:
  status: ('A' for Active; 'I' for Inactive)
    1  A    between atoms: O_5  and  C_24
    2  A    between atoms: O_17  and  C_25
                            x       y       z     vdW  Elec       q    Type
                         _______ _______ _______ _____ _____    ______ ____

>  <TORSDO>
F 2

$$$$
=
 OpenBabel11112417373D

 28 31  0  0  1  0  0  0  0  0999 V2000
  190.9400  176.8600  145.0310 C   0  0  0  0  0  0  0  0  0  0  0  0
  194.4780  177.5360  145.5580 O   0  0  0  0  0  0  0  0  0  0  0  0
  190.4370  176.1290  147.6900 C   0  0  0  0  0  3  0  0  0  0  0  0
  191.1880  177.2910  143.6180 C   0  0  0  0  0  2  0  0  0  0  0  0
  195.2260  175.2390  146.0220 O   0  0  0  0  0  0  0  0  0  0  0  0
  194.8400  176.2140  144.9440 S   0  0  0  0  0  0  0  0  0  0  0  0
  195.8260  176.1030  142.3660 C   0  0  0  0  0  0  0  0  0  0  0  0
  193.5070  175.6110  144.0180 N   0  0  1  0  0  0  0  0  0  0  0  0
  188.3290  175.7010  143.5920 C   0  0  0  0  0  1  0  0  0  0  0  0
  191.9710  173.7680  143.9190 C   0  0  2  0  0  3  0  0  0  0  0  0
  194.8450  175.2340  142.0540 C   0  0  0  0  0  3  0  0  0  0  0  0
  196.2110  176.4250  143.7990 C   0  0  0  0  0  2  0  0  0  0  0  0
  189.3050  175.9800  142.5420 N   0  0  0  0  0  0  0  0  0  0  0  0
  191.5820  175.7270  145.5850 C   0  0  0  0  0  0  0  0  0  0  0  0
  196.6030  176.7290  141.2630 C   0  0  0  0  0  1  0  0  0  0  0  0
  190.3020  174.9140  142.3250 C   0  0  0  0  0  2  0  0  0  0  0  0
  191.3120  175.3710  146.9120 C   0  0  0  0  0  3  0  0  0  0  0  0
  190.0770  177.6250  145.8270 C   0  0  0  0  0  3  0  0  0  0  0  0
  189.8220  177.2600  147.1500 C   0  0  0  0  0  3  0  0  0  0  0  0
  189.9140  177.2970  142.7630 C   0  0  0  0  0  2  0  0  0  0  0  0
  192.9180  173.7060  142.7210 C   0  0  1  0  0  3  0  0  0  0  0  0
  190.4980  173.9560  143.5130 C   0  0  1  0  0  3  0  0  0  0  0  0
  194.0640  174.5910  143.1550 C   0  0  2  0  0  3  0  0  0  0  0  0
  192.5610  174.8590  144.8290 C   0  0  2  0  0  3  0  0  0  0  0  0
  189.6910  172.1160  144.4450 C   0  0  0  0  0  1  0  0  0  0  0  0
  189.9340  172.7160  143.2070 O   0  0  0  0  0  0  0  0  0  0  0  0
  193.3690  172.3980  142.5380 O   0  0  0  0  0  0  0  0  0  0  0  0
  192.8610  172.0180  141.2950 C   0  0  0  0  0  1  0  0  0  0  0  0
  1 14  2  0  0  0  0
  1 18  1  0  0  0  0
  4  1  1  0  0  0  0
  6  2  2  0  0  0  0
  6  5  2  0  0  0  0
  7 12  1  0  0  0  0
  8 24  1  0  0  0  0
  8  6  1  1  0  0  0
 10 24  1  0  0  0  0
 11  7  2  0  0  0  0
 11 23  1  0  0  0  0
 12  6  1  0  0  0  0
 13 20  1  0  0  0  0
 13  9  1  0  0  0  0
 14 17  1  0  0  0  0
 15  7  1  0  0  0  0
 16 13  1  0  0  0  0
 16 22  1  0  0  0  0
 17  3  2  0  0  0  0
 18 19  2  0  0  0  0
 19  3  1  0  0  0  0
 20  4  1  0  0  0  0
 21 23  1  0  0  0  0
 21 10  1  0  0  0  0
 22 10  1  0  0  0  0
 23  8  1  0  0  0  0
 24 14  1  0  0  0  0
 26 22  1  0  0  0  0
 26 25  1  0  0  0  0
 27 21  1  0  0  0  0
 28 27  1  0  0  0  0
M  END
>  <MODEL>
4

>  <REMARK>
 VINA RESULT:      -7.0      2.708      3.671
  Name = 
  2 active torsions:
  status: ('A' for Active; 'I' for Inactive)
    1  A    between atoms: O_5  and  C_24
    2  A    between atoms: O_17  and  C_25
                            x       y       z     vdW  Elec       q    Type
                         _______ _______ _______ _____ _____    ______ ____

>  <TORSDO>
F 2

$$$$
=
 OpenBabel11112417373D

 28 31  0  0  1  0  0  0  0  0999 V2000
  192.9090  174.2240  143.6970 C   0  0  0  0  0  0  0  0  0  0  0  0
  190.4080  173.7370  141.0980 O   0  0  0  0  0  0  0  0  0  0  0  0
  193.2640  171.4890  144.2040 C   0  0  0  0  0  3  0  0  0  0  0  0
  192.7600  175.6840  143.4040 C   0  0  0  0  0  2  0  0  0  0  0  0
  188.5960  172.8340  142.4950 O   0  0  0  0  0  0  0  0  0  0  0  0
  189.3110  174.0840  142.0640 S   0  0  0  0  0  0  0  0  0  0  0  0
  188.1090  176.5690  141.9660 C   0  0  0  0  0  0  0  0  0  0  0  0
  189.9730  174.9170  143.4300 N   0  0  1  0  0  0  0  0  0  0  0  0
  194.2640  175.4900  146.3030 C   0  0  0  0  0  1  0  0  0  0  0  0
  190.2320  174.7130  145.8080 C   0  0  2  0  0  3  0  0  0  0  0  0
  188.4110  176.7400  143.2670 C   0  0  0  0  0  3  0  0  0  0  0  0
  188.1450  175.2110  141.2870 C   0  0  0  0  0  2  0  0  0  0  0  0
  193.4750  176.5480  145.6780 N   0  0  0  0  0  0  0  0  0  0  0  0
  191.8300  173.4510  144.1890 C   0  0  0  0  0  0  0  0  0  0  0  0
  187.6660  177.7490  141.1740 C   0  0  0  0  0  1  0  0  0  0  0  0
  192.0400  176.5360  146.0240 C   0  0  0  0  0  2  0  0  0  0  0  0
  192.0270  172.0880  144.4460 C   0  0  0  0  0  3  0  0  0  0  0  0
  194.1420  173.6070  143.4410 C   0  0  0  0  0  3  0  0  0  0  0  0
  194.3200  172.2460  143.6970 C   0  0  0  0  0  3  0  0  0  0  0  0
  193.7130  176.5600  144.2290 C   0  0  0  0  0  2  0  0  0  0  0  0
  189.2630  175.8520  145.4990 C   0  0  1  0  0  3  0  0  0  0  0  0
  191.5060  175.1850  146.5320 C   0  0  1  0  0  3  0  0  0  0  0  0
  188.8470  175.5600  144.0750 C   0  0  2  0  0  3  0  0  0  0  0  0
  190.4510  174.0060  144.4600 C   0  0  2  0  0  3  0  0  0  0  0  0
  191.3260  176.6340  148.1990 C   0  0  0  0  0  1  0  0  0  0  0  0
  191.2610  175.2700  147.9050 O   0  0  0  0  0  0  0  0  0  0  0  0
  188.1540  175.7760  146.3430 O   0  0  0  0  0  0  0  0  0  0  0  0
  187.9450  177.0870  146.7730 C   0  0  0  0  0  1  0  0  0  0  0  0
  1 14  1  0  0  0  0
  2  6  2  0  0  0  0
  3 17  1  0  0  0  0
  4  1  1  0  0  0  0
  4 20  1  0  0  0  0
  6  5  2  0  0  0  0
  7 11  2  0  0  0  0
  8  6  1  6  0  0  0
  8 23  1  0  0  0  0
  8 24  1  0  0  0  0
 10 22  1  0  0  0  0
 11 23  1  0  0  0  0
 12  7  1  0  0  0  0
 12  6  1  0  0  0  0
 13 16  1  0  0  0  0
 13  9  1  0  0  0  0
 14 17  2  0  0  0  0
 14 24  1  0  0  0  0
 15  7  1  0  0  0  0
 16 22  1  0  0  0  0
 18 19  1  0  0  0  0
 18  1  2  0  0  0  0
 19  3  2  0  0  0  0
 20 13  1  0  0  0  0
 21 10  1  0  0  0  0
 21 27  1  0  0  0  0
 22 26  1  0  0  0  0
 23 21  1  0  0  0  0
 24 10  1  0  0  0  0
 26 25  1  0  0  0  0
 27 28  1  0  0  0  0
M  END
>  <MODEL>
5

>  <REMARK>
 VINA RESULT:      -6.7      2.150      6.337
  Name = 
  2 active torsions:
  status: ('A' for Active; 'I' for Inactive)
    1  A    between atoms: O_5  and  C_24
    2  A    between atoms: O_17  and  C_25
                            x       y       z     vdW  Elec       q    Type
                         _______ _______ _______ _____ _____    ______ ____

>  <TORSDO>
F 2

$$$$
=
 OpenBabel11112417373D

 28 31  0  0  1  0  0  0  0  0999 V2000
  189.9610  175.6830  144.8170 C   0  0  0  0  0  0  0  0  0  0  0  0
  190.2730  173.2200  142.1550 O   0  0  0  0  0  0  0  0  0  0  0  0
  189.8430  177.8890  143.0900 C   0  0  0  0  0  3  0  0  0  0  0  0
  189.9790  174.5090  145.7460 C   0  0  0  0  0  2  0  0  0  0  0  0
  192.5060  173.8460  141.3340 O   0  0  0  0  0  0  0  0  0  0  0  0
  191.7500  173.1100  142.4060 S   0  0  0  0  0  0  0  0  0  0  0  0
  192.7700  170.9340  143.7680 C   0  0  0  0  0  0  0  0  0  0  0  0
  192.1290  173.7440  143.9720 N   0  0  1  0  0  0  0  0  0  0  0  0
  190.5930  177.1370  147.5950 C   0  0  0  0  0  1  0  0  0  0  0  0
  193.3920  175.4860  145.0360 C   0  0  2  0  0  3  0  0  0  0  0  0
  193.3520  171.7820  144.6380 C   0  0  0  0  0  3  0  0  0  0  0  0
  192.2430  171.3800  142.4160 C   0  0  0  0  0  2  0  0  0  0  0  0
  190.8820  175.7180  147.7830 N   0  0  0  0  0  0  0  0  0  0  0  0
  191.0660  175.9900  143.9870 C   0  0  0  0  0  0  0  0  0  0  0  0
  192.6920  169.4910  144.1210 C   0  0  0  0  0  1  0  0  0  0  0  0
  192.2180  175.2920  147.3220 C   0  0  0  0  0  2  0  0  0  0  0  0
  190.9940  177.1010  143.1380 C   0  0  0  0  0  3  0  0  0  0  0  0
  188.8040  176.4710  144.7480 C   0  0  0  0  0  3  0  0  0  0  0  0
  188.7460  177.5720  143.8910 C   0  0  0  0  0  3  0  0  0  0  0  0
  189.7960  174.9080  147.2170 C   0  0  0  0  0  2  0  0  0  0  0  0
  194.0230  174.1320  145.3580 C   0  0  1  0  0  3  0  0  0  0  0  0
  192.8740  176.2210  146.2860 C   0  0  1  0  0  3  0  0  0  0  0  0
  193.4460  173.2320  144.2890 C   0  0  2  0  0  3  0  0  0  0  0  0
  192.3440  175.1840  143.9530 C   0  0  2  0  0  3  0  0  0  0  0  0
  194.5660  177.5790  145.8380 C   0  0  0  0  0  1  0  0  0  0  0  0
  193.9230  176.9200  146.8880 O   0  0  0  0  0  0  0  0  0  0  0  0
  195.4100  174.2080  145.2200 O   0  0  0  0  0  0  0  0  0  0  0  0
  195.6150  174.5630  143.8860 C   0  0  0  0  0  1  0  0  0  0  0  0
  1  4  1  0  0  0  0
  2  6  2  0  0  0  0
  3 17  2  0  0  0  0
  3 19  1  0  0  0  0
  4 20  1  0  0  0  0
  5  6  2  0  0  0  0
  6 12  1  0  0  0  0
  7 15  1  0  0  0  0
  7 11  2  0  0  0  0
  8  6  1  6  0  0  0
  8 23  1  0  0  0  0
  9 13  1  0  0  0  0
 10 21  1  0  0  0  0
 10 22  1  0  0  0  0
 12  7  1  0  0  0  0
 14  1  2  0  0  0  0
 16 13  1  0  0  0  0
 17 14  1  0  0  0  0
 18  1  1  0  0  0  0
 19 18  2  0  0  0  0
 20 13  1  0  0  0  0
 22 26  1  0  0  0  0
 22 16  1  0  0  0  0
 23 11  1  0  0  0  0
 23 21  1  0  0  0  0
 24  8  1  0  0  0  0
 24 14  1  0  0  0  0
 24 10  1  0  0  0  0
 25 26  1  0  0  0  0
 27 21  1  0  0  0  0
 28 27  1  0  0  0  0
M  END
>  <MODEL>
6

>  <REMARK>
 VINA RESULT:      -6.7      2.761      5.598
  Name = 
  2 active torsions:
  status: ('A' for Active; 'I' for Inactive)
    1  A    between atoms: O_5  and  C_24
    2  A    between atoms: O_17  and  C_25
                            x       y       z     vdW  Elec       q    Type
                         _______ _______ _______ _____ _____    ______ ____

>  <TORSDO>
F 2

$$$$
=
 OpenBabel11112417373D

 28 31  0  0  1  0  0  0  0  0999 V2000
  188.6420  175.8490  145.1460 C   0  0  0  0  0  0  0  0  0  0  0  0
  187.4330  173.8040  142.3880 O   0  0  0  0  0  0  0  0  0  0  0  0
  187.3240  178.1790  144.3130 C   0  0  0  0  0  3  0  0  0  0  0  0
  189.3140  174.5990  145.6240 C   0  0  0  0  0  2  0  0  0  0  0  0
  188.6340  174.9160  140.5520 O   0  0  0  0  0  0  0  0  0  0  0  0
  188.7550  173.9370  141.6870 S   0  0  0  0  0  0  0  0  0  0  0  0
  190.5540  171.8420  141.7070 C   0  0  0  0  0  0  0  0  0  0  0  0
  189.9680  174.4460  142.8120 N   0  0  1  0  0  0  0  0  0  0  0  0
  190.7380  177.0670  147.2320 C   0  0  0  0  0  1  0  0  0  0  0  0
  191.4850  176.2550  143.2460 C   0  0  2  0  0  3  0  0  0  0  0  0
  191.4830  172.6760  142.2120 C   0  0  0  0  0  3  0  0  0  0  0  0
  189.2760  172.3360  141.0540 C   0  0  0  0  0  2  0  0  0  0  0  0
  191.1860  175.7120  146.9220 N   0  0  0  0  0  0  0  0  0  0  0  0
  188.9760  176.4440  143.9060 C   0  0  0  0  0  0  0  0  0  0  0  0
  190.8160  170.3770  141.7380 C   0  0  0  0  0  1  0  0  0  0  0  0
  191.9830  175.5910  145.6860 C   0  0  0  0  0  2  0  0  0  0  0  0
  188.3150  177.6130  143.5100 C   0  0  0  0  0  3  0  0  0  0  0  0
  187.6320  176.4160  145.9360 C   0  0  0  0  0  3  0  0  0  0  0  0
  186.9780  177.5780  145.5240 C   0  0  0  0  0  3  0  0  0  0  0  0
  190.0460  174.7880  146.9600 C   0  0  0  0  0  2  0  0  0  0  0  0
  192.2780  175.0110  142.8510 C   0  0  1  0  0  3  0  0  0  0  0  0
  191.7920  176.7360  144.6760 C   0  0  1  0  0  3  0  0  0  0  0  0
  191.2350  174.1490  142.1770 C   0  0  2  0  0  3  0  0  0  0  0  0
  190.0180  175.8930  142.9600 C   0  0  2  0  0  3  0  0  0  0  0  0
  193.8800  176.8320  145.4080 C   0  0  0  0  0  1  0  0  0  0  0  0
  192.9340  177.5410  144.6650 O   0  0  0  0  0  0  0  0  0  0  0  0
  193.2760  175.3530  141.9370 O   0  0  0  0  0  0  0  0  0  0  0  0
  194.4470  174.8140  142.4720 C   0  0  0  0  0  1  0  0  0  0  0  0
  1  4  1  0  0  0  0
  1 18  1  0  0  0  0
  3 19  1  0  0  0  0
  4 20  1  0  0  0  0
  5  6  2  0  0  0  0
  6  2  2  0  0  0  0
  7 15  1  0  0  0  0
  7 11  2  0  0  0  0
  8  6  1  6  0  0  0
  8 24  1  0  0  0  0
 10 22  1  0  0  0  0
 12  6  1  0  0  0  0
 12  7  1  0  0  0  0
 13 20  1  0  0  0  0
 13  9  1  0  0  0  0
 14  1  2  0  0  0  0
 16 13  1  0  0  0  0
 17 14  1  0  0  0  0
 17  3  2  0  0  0  0
 19 18  2  0  0  0  0
 21 10  1  0  0  0  0
 22 16  1  0  0  0  0
 23 11  1  0  0  0  0
 23  8  1  0  0  0  0
 23 21  1  0  0  0  0
 24 10  1  0  0  0  0
 24 14  1  0  0  0  0
 26 22  1  0  0  0  0
 26 25  1  0  0  0  0
 27 28  1  0  0  0  0
 27 21  1  0  0  0  0
M  END
>  <MODEL>
7

>  <REMARK>
 VINA RESULT:      -6.7      2.337      5.101
  Name = 
  2 active torsions:
  status: ('A' for Active; 'I' for Inactive)
    1  A    between atoms: O_5  and  C_24
    2  A    between atoms: O_17  and  C_25
                            x       y       z     vdW  Elec       q    Type
                         _______ _______ _______ _____ _____    ______ ____

>  <TORSDO>
F 2

$$$$
=
 OpenBabel11112417373D

 28 31  0  0  1  0  0  0  0  0999 V2000
  193.7300  175.7830  143.2890 C   0  0  0  0  0  0  0  0  0  0  0  0
  190.7070  177.7330  142.7300 O   0  0  0  0  0  0  0  0  0  0  0  0
  194.2160  175.3100  140.5690 C   0  0  0  0  0  3  0  0  0  0  0  0
  193.5040  176.0670  144.7420 C   0  0  0  0  0  2  0  0  0  0  0  0
  189.2700  175.9400  141.8540 O   0  0  0  0  0  0  0  0  0  0  0  0
  189.8560  176.5500  143.0960 S   0  0  0  0  0  0  0  0  0  0  0  0
  188.6400  176.4270  145.5730 C   0  0  0  0  0  0  0  0  0  0  0  0
  190.8040  175.3900  143.9640 N   0  0  1  0  0  0  0  0  0  0  0  0
  195.6300  173.5840  144.6230 C   0  0  0  0  0  1  0  0  0  0  0  0
  191.5990  173.1300  143.8180 C   0  0  2  0  0  3  0  0  0  0  0  0
  189.2290  175.2340  145.7760 C   0  0  0  0  0  3  0  0  0  0  0  0
  188.5330  177.0660  144.2000 C   0  0  0  0  0  2  0  0  0  0  0  0
  194.7100  174.0360  145.6620 N   0  0  0  0  0  0  0  0  0  0  0  0
  192.7980  175.0420  142.5240 C   0  0  0  0  0  0  0  0  0  0  0  0
  188.0170  177.1240  146.7320 C   0  0  0  0  0  1  0  0  0  0  0  0
  193.3920  173.3720  145.6530 C   0  0  0  0  0  2  0  0  0  0  0  0
  193.0620  174.8060  141.1690 C   0  0  0  0  0  3  0  0  0  0  0  0
  194.8770  176.2990  142.6720 C   0  0  0  0  0  3  0  0  0  0  0  0
  195.1220  176.0610  141.3180 C   0  0  0  0  0  3  0  0  0  0  0  0
  194.6120  175.5010  145.6410 C   0  0  0  0  0  2  0  0  0  0  0  0
  190.5740  173.2350  144.9450 C   0  0  1  0  0  3  0  0  0  0  0  0
  193.0000  172.7250  144.3130 C   0  0  1  0  0  3  0  0  0  0  0  0
  189.8480  174.5210  144.6180 C   0  0  2  0  0  3  0  0  0  0  0  0
  191.5120  174.4760  143.0790 C   0  0  2  0  0  3  0  0  0  0  0  0
  192.9130  170.8560  143.1270 C   0  0  0  0  0  1  0  0  0  0  0  0
  193.0730  171.3350  144.4290 O   0  0  0  0  0  0  0  0  0  0  0  0
  189.6880  172.1590  144.8850 O   0  0  0  0  0  0  0  0  0  0  0  0
  189.3620  172.0420  143.5330 C   0  0  0  0  0  1  0  0  0  0  0  0
  1  4  1  0  0  0  0
  2  6  2  0  0  0  0
  3 17  2  0  0  0  0
  3 19  1  0  0  0  0
  4 20  1  0  0  0  0
  5  6  2  0  0  0  0
  6 12  1  0  0  0  0
  7 11  2  0  0  0  0
  7 15  1  0  0  0  0
  8  6  1  6  0  0  0
  8 23  1  0  0  0  0
  9 13  1  0  0  0  0
 10 22  1  0  0  0  0
 10 21  1  0  0  0  0
 12  7  1  0  0  0  0
 14 24  1  0  0  0  0
 14  1  2  0  0  0  0
 16 13  1  0  0  0  0
 17 14  1  0  0  0  0
 18  1  1  0  0  0  0
 19 18  2  0  0  0  0
 20 13  1  0  0  0  0
 22 26  1  0  0  0  0
 22 16  1  0  0  0  0
 23 21  1  0  0  0  0
 23 11  1  0  0  0  0
 24 10  1  0  0  0  0
 24  8  1  0  0  0  0
 25 26  1  0  0  0  0
 27 21  1  0  0  0  0
 28 27  1  0  0  0  0
M  END
>  <MODEL>
8

>  <REMARK>
 VINA RESULT:      -6.4      2.600      6.046
  Name = 
  2 active torsions:
  status: ('A' for Active; 'I' for Inactive)
    1  A    between atoms: O_5  and  C_24
    2  A    between atoms: O_17  and  C_25
                            x       y       z     vdW  Elec       q    Type
                         _______ _______ _______ _____ _____    ______ ____

>  <TORSDO>
F 2

$$$$
=
 OpenBabel11112417373D

 28 31  0  0  1  0  0  0  0  0999 V2000
  190.6240  175.7860  145.2140 C   0  0  0  0  0  0  0  0  0  0  0  0
  193.0950  173.1490  144.7790 O   0  0  0  0  0  0  0  0  0  0  0  0
  189.3200  174.5410  147.3620 C   0  0  0  0  0  3  0  0  0  0  0  0
  191.3390  176.4800  144.0970 C   0  0  0  0  0  2  0  0  0  0  0  0
  191.5920  171.3600  144.0100 O   0  0  0  0  0  0  0  0  0  0  0  0
  192.3320  172.6040  143.6050 S   0  0  0  0  0  0  0  0  0  0  0  0
  193.2170  173.0800  141.0320 C   0  0  0  0  0  0  0  0  0  0  0  0
  191.2370  173.8040  143.0070 N   0  0  1  0  0  0  0  0  0  0  0  0
  188.4360  177.9620  144.3730 C   0  0  0  0  0  1  0  0  0  0  0  0
  188.8940  174.2130  142.6860 C   0  0  2  0  0  3  0  0  0  0  0  0
  192.0090  173.5970  140.7380 C   0  0  0  0  0  3  0  0  0  0  0  0
  193.4660  172.2240  142.2610 C   0  0  0  0  0  2  0  0  0  0  0  0
  189.3840  177.8630  143.2670 N   0  0  0  0  0  0  0  0  0  0  0  0
  189.9850  174.5370  145.0240 C   0  0  0  0  0  0  0  0  0  0  0  0
  194.3420  173.3070  140.0850 C   0  0  0  0  0  1  0  0  0  0  0  0
  189.1260  176.7550  142.3270 C   0  0  0  0  0  2  0  0  0  0  0  0
  189.3300  173.9340  146.1050 C   0  0  0  0  0  3  0  0  0  0  0  0
  190.6230  176.3780  146.4850 C   0  0  0  0  0  3  0  0  0  0  0  0
  189.9700  175.7600  147.5540 C   0  0  0  0  0  3  0  0  0  0  0  0
  190.7580  177.8660  143.7850 C   0  0  0  0  0  2  0  0  0  0  0  0
  189.5740  174.0610  141.3260 C   0  0  1  0  0  3  0  0  0  0  0  0
  188.2730  175.6070  142.8960 C   0  0  1  0  0  3  0  0  0  0  0  0
  190.8700  173.3660  141.6770 C   0  0  2  0  0  3  0  0  0  0  0  0
  189.9620  173.7930  143.7090 C   0  0  2  0  0  3  0  0  0  0  0  0
  187.0770  176.6380  141.3430 C   0  0  0  0  0  1  0  0  0  0  0  0
  187.0010  175.6460  142.3220 O   0  0  0  0  0  0  0  0  0  0  0  0
  188.8040  173.2430  140.4980 O   0  0  0  0  0  0  0  0  0  0  0  0
  188.5670  174.0140  139.3590 C   0  0  0  0  0  1  0  0  0  0  0  0
  1 18  1  0  0  0  0
  3 19  1  0  0  0  0
  4  1  1  0  0  0  0
  6  5  2  0  0  0  0
  6  2  2  0  0  0  0
  7 12  1  0  0  0  0
  8  6  1  1  0  0  0
  8 24  1  0  0  0  0
 10 22  1  0  0  0  0
 10 24  1  0  0  0  0
 11  7  2  0  0  0  0
 11 23  1  0  0  0  0
 12  6  1  0  0  0  0
 13 20  1  0  0  0  0
 13  9  1  0  0  0  0
 14  1  2  0  0  0  0
 14 17  1  0  0  0  0
 15  7  1  0  0  0  0
 16 22  1  0  0  0  0
 16 13  1  0  0  0  0
 17  3  2  0  0  0  0
 18 19  2  0  0  0  0
 20  4  1  0  0  0  0
 21 23  1  0  0  0  0
 21 10  1  0  0  0  0
 23  8  1  0  0  0  0
 24 14  1  0  0  0  0
 25 26  1  0  0  0  0
 26 22  1  0  0  0  0
 27 21  1  0  0  0  0
 28 27  1  0  0  0  0
M  END
>  <MODEL>
9

>  <REMARK>
 VINA RESULT:      -6.4      2.515      4.015
  Name = 
  2 active torsions:
  status: ('A' for Active; 'I' for Inactive)
    1  A    between atoms: O_5  and  C_24
    2  A    between atoms: O_17  and  C_25
                            x       y       z     vdW  Elec       q    Type
                         _______ _______ _______ _____ _____    ______ ____

>  <TORSDO>
F 2

$$$$
