=
 OpenBabel11112418063D

 34 40  0  0  1  0  0  0  0  0999 V2000
  189.2880  174.8280  142.8090 C   0  0  1  0  0  3  0  0  0  0  0  0
  191.5140  173.8540  142.9280 C   0  0  0  0  0  2  0  0  0  0  0  0
  185.3920  179.3200  144.9990 C   0  0  0  0  0  0  0  0  0  0  0  0
  187.0710  175.9970  142.7620 C   0  0  2  0  0  3  0  0  0  0  0  0
  186.1700  176.9030  144.9540 C   0  0  2  0  0  3  0  0  0  0  0  0
  185.5140  178.0270  147.1780 C   0  0  0  0  0  1  0  0  0  0  0  0
  186.0330  180.2720  145.5180 O   0  0  0  0  0  0  0  0  0  0  0  0
  184.0050  178.4130  143.1000 C   0  0  0  0  0  2  0  0  0  0  0  0
  190.4370  174.5110  144.8030 C   0  0  2  0  0  3  0  0  0  0  0  0
  191.9680  175.8570  147.2370 C   0  0  0  0  0  2  0  0  0  0  0  0
  187.6070  176.8570  145.4780 C   0  0  0  0  0  2  0  0  0  0  0  0
  184.8290  177.1550  142.7650 C   0  0  0  0  0  2  0  0  0  0  0  0
  189.6270  175.5850  145.5490 C   0  0  1  0  0  3  0  0  0  0  0  0
  192.5010  173.5930  144.0650 C   0  0  0  0  0  2  0  0  0  0  0  0
  186.2160  177.0840  143.4190 C   0  0  2  0  0  3  0  0  0  0  0  0
  184.7950  179.4820  143.7110 N   0  0  0  0  0  2  0  0  0  0  0  0
  192.5950  175.2940  145.9480 C   0  0  1  0  0  3  0  0  0  0  0  0
  188.4380  175.9290  143.4660 C   0  0  1  0  0  3  0  0  0  0  0  0
  185.3220  177.9760  145.6680 C   0  0  1  0  0  3  0  0  0  0  0  0
  188.2940  175.6930  144.9180 N   0  0  2  0  0  0  0  0  0  0  0  0
  187.8950  175.2040  140.7950 C   0  0  0  0  0  2  0  0  0  0  0  0
  190.8140  175.0160  147.7860 C   0  0  0  0  0  2  0  0  0  0  0  0
  187.2670  176.3110  141.4000 O   0  0  0  0  0  0  0  0  0  0  0  0
  189.4890  175.2520  147.0460 C   0  0  0  0  0  2  0  0  0  0  0  0
  191.8130  174.1230  145.3170 C   0  0  1  0  0  3  0  0  0  0  0  0
  189.3350  175.0740  141.3010 C   0  0  0  0  0  2  0  0  0  0  0  0
  190.6140  174.8880  143.4150 N   0  0  2  0  0  0  0  0  0  0  0  0
  192.7830  176.3350  145.0300 O   0  0  0  0  0  0  0  0  0  0  0  0
  194.0590  176.6480  145.1250 O   0  0  0  0  0  0  0  0  0  0  0  0
  195.7490  176.6330  142.3230 O   0  0  0  0  0  0  0  0  0  0  0  0
  196.1820  175.9290  144.3870 C   0  0  0  0  0  3  0  0  0  0  0  0
  194.7050  175.7980  144.2240 C   0  0  2  0  0  3  0  0  0  0  0  0
  196.7180  176.4060  143.2810 C   0  0  0  0  0  3  0  0  0  0  0  0
  194.4610  176.2840  142.7980 C   0  0  0  0  0  2  0  0  0  0  0  0
  1 26  1  6  0  0  0
  1 27  1  0  0  0  0
  1 18  1  0  0  0  0
  2 27  1  0  0  0  0
  2 14  1  0  0  0  0
  3  7  2  0  0  0  0
  3 19  1  0  0  0  0
  4 23  1  6  0  0  0
  4 15  1  0  0  0  0
  4 18  1  0  0  0  0
  5 11  1  1  0  0  0
  5 19  1  0  0  0  0
  8 16  1  0  0  0  0
  9 25  1  0  0  0  0
  9 13  1  0  0  0  0
 10 22  1  0  0  0  0
 12  8  1  0  0  0  0
 12 15  1  0  0  0  0
 13 24  1  0  0  0  0
 14 25  1  0  0  0  0
 15  5  1  0  0  0  0
 16  3  1  0  0  0  0
 17 10  1  0  0  0  0
 18 20  1  0  0  0  0
 19  6  1  0  0  0  0
 20 11  1  0  0  0  0
 20 13  1  0  0  0  0
 21 26  1  0  0  0  0
 21 23  1  0  0  0  0
 24 22  1  0  0  0  0
 25 17  1  0  0  0  0
 27  9  1  0  0  0  0
 28 29  1  0  0  0  0
 28 17  1  0  0  0  0
 30 34  1  0  0  0  0
 30 33  1  0  0  0  0
 32 31  1  0  0  0  0
 32 29  1  0  0  0  0
 33 31  2  0  0  0  0
 34 32  1  0  0  0  0
M  END
>  <MODEL>
1

>  <REMARK>
 VINA RESULT:      -7.8      0.000      0.000
  Name = 
  3 active torsions:
  status: ('A' for Active; 'I' for Inactive)
    1  A    between atoms: C_17  and  O_28
    2  A    between atoms: O_28  and  O_29
    3  A    between atoms: O_29  and  C_32
                            x       y       z     vdW  Elec       q    Type
                         _______ _______ _______ _____ _____    ______ ____

>  <TORSDO>
F 3

$$$$
=
 OpenBabel11112418063D

 34 40  0  0  1  0  0  0  0  0999 V2000
  192.6390  175.9810  146.2140 C   0  0  1  0  0  3  0  0  0  0  0  0
  194.8720  175.0180  146.1480 C   0  0  0  0  0  2  0  0  0  0  0  0
  187.0980  176.6140  143.2060 C   0  0  0  0  0  0  0  0  0  0  0  0
  190.2830  176.8360  146.1500 C   0  0  2  0  0  3  0  0  0  0  0  0
  189.3510  177.5560  143.9030 C   0  0  2  0  0  3  0  0  0  0  0  0
  188.4350  177.9700  141.5300 C   0  0  0  0  0  1  0  0  0  0  0  0
  186.9320  175.7050  142.3520 O   0  0  0  0  0  0  0  0  0  0  0  0
  186.5140  177.6350  145.4360 C   0  0  0  0  0  2  0  0  0  0  0  0
  193.9500  175.9280  144.2970 C   0  0  2  0  0  3  0  0  0  0  0  0
  194.3970  174.6840  141.4100 C   0  0  0  0  0  2  0  0  0  0  0  0
  190.4430  176.6980  143.2590 C   0  0  0  0  0  2  0  0  0  0  0  0
  187.9260  177.7310  146.0460 C   0  0  0  0  0  2  0  0  0  0  0  0
  192.7420  176.0570  143.3540 C   0  0  1  0  0  3  0  0  0  0  0  0
  195.9030  174.7990  145.0420 C   0  0  0  0  0  2  0  0  0  0  0  0
  189.0210  176.9630  145.2930 C   0  0  2  0  0  3  0  0  0  0  0  0
  186.3800  176.5700  144.4420 N   0  0  0  0  0  2  0  0  0  0  0  0
  195.0330  174.2100  142.7300 C   0  0  1  0  0  3  0  0  0  0  0  0
  191.3710  176.0960  145.3510 C   0  0  1  0  0  3  0  0  0  0  0  0
  188.1130  177.7020  142.9950 C   0  0  1  0  0  3  0  0  0  0  0  0
  191.6600  176.7690  144.0680 N   0  0  2  0  0  0  0  0  0  0  0  0
  191.1170  176.1670  148.1590 C   0  0  0  0  0  2  0  0  0  0  0  0
  194.2950  176.2050  141.2800 C   0  0  0  0  0  2  0  0  0  0  0  0
  189.9870  176.1020  147.3190 O   0  0  0  0  0  0  0  0  0  0  0  0
  193.1110  176.8000  142.0570 C   0  0  0  0  0  2  0  0  0  0  0  0
  195.2440  175.3270  143.7750 C   0  0  1  0  0  3  0  0  0  0  0  0
  192.2680  175.3550  147.5580 C   0  0  0  0  0  2  0  0  0  0  0  0
  193.5920  175.1610  145.4730 N   0  0  2  0  0  0  0  0  0  0  0  0
  194.2790  173.1550  143.2570 O   0  0  0  0  0  0  0  0  0  0  0  0
  193.5840  172.6900  142.2380 O   0  0  0  0  0  0  0  0  0  0  0  0
  191.4160  172.6620  144.6890 O   0  0  0  0  0  0  0  0  0  0  0  0
  191.2440  172.5020  142.4780 C   0  0  0  0  0  3  0  0  0  0  0  0
  192.5740  171.9170  142.8160 C   0  0  2  0  0  3  0  0  0  0  0  0
  190.6360  172.9060  143.5750 C   0  0  0  0  0  3  0  0  0  0  0  0
  192.6400  172.0440  144.3360 C   0  0  0  0  0  2  0  0  0  0  0  0
  1 26  1  1  0  0  0
  3 16  1  0  0  0  0
  4 23  1  1  0  0  0
  5 11  1  6  0  0  0
  5 15  1  0  0  0  0
  6 19  1  0  0  0  0
  7  3  2  0  0  0  0
  8 12  1  0  0  0  0
  9 27  1  0  0  0  0
 10 17  1  0  0  0  0
 11 20  1  0  0  0  0
 13 20  1  0  0  0  0
 13  9  1  0  0  0  0
 14  2  1  0  0  0  0
 15 12  1  0  0  0  0
 15  4  1  0  0  0  0
 16  8  1  0  0  0  0
 17 28  1  0  0  0  0
 17 25  1  0  0  0  0
 18  4  1  0  0  0  0
 18  1  1  0  0  0  0
 19  3  1  0  0  0  0
 19  5  1  0  0  0  0
 20 18  1  0  0  0  0
 22 10  1  0  0  0  0
 22 24  1  0  0  0  0
 23 21  1  0  0  0  0
 24 13  1  0  0  0  0
 25  9  1  0  0  0  0
 25 14  1  0  0  0  0
 26 21  1  0  0  0  0
 27  2  1  0  0  0  0
 27  1  1  0  0  0  0
 29 32  1  0  0  0  0
 29 28  1  0  0  0  0
 31 32  1  0  0  0  0
 31 33  2  0  0  0  0
 32 34  1  0  0  0  0
 33 30  1  0  0  0  0
 34 30  1  0  0  0  0
M  END
>  <MODEL>
2

>  <REMARK>
 VINA RESULT:      -7.8      2.319      5.068
  Name = 
  3 active torsions:
  status: ('A' for Active; 'I' for Inactive)
    1  A    between atoms: C_17  and  O_28
    2  A    between atoms: O_28  and  O_29
    3  A    between atoms: O_29  and  C_32
                            x       y       z     vdW  Elec       q    Type
                         _______ _______ _______ _____ _____    ______ ____

>  <TORSDO>
F 3

$$$$
=
 OpenBabel11112418063D

 34 40  0  0  1  0  0  0  0  0999 V2000
  190.5550  173.5490  141.8360 C   0  0  1  0  0  3  0  0  0  0  0  0
  188.2100  174.1620  142.0460 C   0  0  0  0  0  2  0  0  0  0  0  0
  196.3620  174.0540  144.3210 C   0  0  0  0  0  0  0  0  0  0  0  0
  192.9910  172.9570  141.8120 C   0  0  2  0  0  3  0  0  0  0  0  0
  194.6410  174.7250  142.5780 C   0  0  2  0  0  3  0  0  0  0  0  0
  196.1760  176.4930  143.6530 C   0  0  0  0  0  1  0  0  0  0  0  0
  196.3160  174.3740  145.5370 O   0  0  0  0  0  0  0  0  0  0  0  0
  196.7860  172.3160  142.5450 C   0  0  0  0  0  2  0  0  0  0  0  0
  189.8410  175.6710  142.4580 C   0  0  2  0  0  3  0  0  0  0  0  0
  189.5940  177.8230  144.7790 C   0  0  0  0  0  2  0  0  0  0  0  0
  193.4730  175.3970  143.3010 C   0  0  0  0  0  2  0  0  0  0  0  0
  195.4540  172.4120  141.7760 C   0  0  0  0  0  2  0  0  0  0  0  0
  191.1710  176.0180  143.1480 C   0  0  1  0  0  3  0  0  0  0  0  0
  187.4780  175.4290  142.4850 C   0  0  0  0  0  2  0  0  0  0  0  0
  194.3470  173.2100  142.4770 C   0  0  2  0  0  3  0  0  0  0  0  0
  196.6780  172.7100  143.9490 N   0  0  0  0  0  2  0  0  0  0  0  0
  188.5250  176.8020  144.3470 C   0  0  1  0  0  3  0  0  0  0  0  0
  191.9130  173.8000  142.5150 C   0  0  1  0  0  3  0  0  0  0  0  0
  195.9970  175.0370  143.2440 C   0  0  1  0  0  3  0  0  0  0  0  0
  192.2520  175.2380  142.5090 N   0  0  2  0  0  0  0  0  0  0  0  0
  191.5040  171.3670  141.1490 C   0  0  0  0  0  2  0  0  0  0  0  0
  190.3690  178.4430  143.6140 C   0  0  0  0  0  2  0  0  0  0  0  0
  192.6580  171.5900  141.9260 O   0  0  0  0  0  0  0  0  0  0  0  0
  191.4750  177.5260  143.0680 C   0  0  0  0  0  2  0  0  0  0  0  0
  188.5780  176.4160  142.8530 C   0  0  1  0  0  3  0  0  0  0  0  0
  190.2930  172.0440  141.7960 C   0  0  0  0  0  2  0  0  0  0  0  0
  189.5460  174.2610  142.6140 N   0  0  2  0  0  0  0  0  0  0  0  0
  188.6040  175.6720  145.1690 O   0  0  0  0  0  0  0  0  0  0  0  0
  188.7500  176.1460  146.3900 O   0  0  0  0  0  0  0  0  0  0  0  0
  191.4090  174.2650  146.0810 O   0  0  0  0  0  0  0  0  0  0  0  0
  190.7750  175.8070  147.5520 C   0  0  0  0  0  3  0  0  0  0  0  0
  189.5120  175.1850  147.0590 C   0  0  2  0  0  3  0  0  0  0  0  0
  191.8140  175.2470  146.9650 C   0  0  0  0  0  3  0  0  0  0  0  0
  189.9990  174.1360  146.0630 C   0  0  0  0  0  2  0  0  0  0  0  0
  1 26  1  1  0  0  0
  1 18  1  0  0  0  0
  1 27  1  0  0  0  0
  2 14  1  0  0  0  0
  2 27  1  0  0  0  0
  3  7  2  0  0  0  0
  4 23  1  1  0  0  0
  4 15  1  0  0  0  0
  4 18  1  0  0  0  0
  5 19  1  0  0  0  0
  5 11  1  1  0  0  0
  8 16  1  0  0  0  0
  9 27  1  0  0  0  0
  9 25  1  0  0  0  0
  9 13  1  0  0  0  0
 12 15  1  0  0  0  0
 12  8  1  0  0  0  0
 14 25  1  0  0  0  0
 15  5  1  0  0  0  0
 16  3  1  0  0  0  0
 17 10  1  0  0  0  0
 17 28  1  0  0  0  0
 19  6  1  0  0  0  0
 19  3  1  0  0  0  0
 20 18  1  0  0  0  0
 20 13  1  0  0  0  0
 20 11  1  0  0  0  0
 21 26  1  0  0  0  0
 21 23  1  0  0  0  0
 22 10  1  0  0  0  0
 24 13  1  0  0  0  0
 24 22  1  0  0  0  0
 25 17  1  0  0  0  0
 28 29  1  0  0  0  0
 29 32  1  0  0  0  0
 30 33  1  0  0  0  0
 32 31  1  0  0  0  0
 33 31  2  0  0  0  0
 34 30  1  0  0  0  0
 34 32  1  0  0  0  0
M  END
>  <MODEL>
3

>  <REMARK>
 VINA RESULT:      -7.5      2.752      7.403
  Name = 
  3 active torsions:
  status: ('A' for Active; 'I' for Inactive)
    1  A    between atoms: C_17  and  O_28
    2  A    between atoms: O_28  and  O_29
    3  A    between atoms: O_29  and  C_32
                            x       y       z     vdW  Elec       q    Type
                         _______ _______ _______ _____ _____    ______ ____

>  <TORSDO>
F 3

$$$$
=
 OpenBabel11112418063D

 34 40  0  0  1  0  0  0  0  0999 V2000
  192.4230  176.4140  146.3230 C   0  0  1  0  0  3  0  0  0  0  0  0
  194.6700  175.4850  146.4280 C   0  0  0  0  0  2  0  0  0  0  0  0
  186.8680  176.4020  143.2750 C   0  0  0  0  0  0  0  0  0  0  0  0
  190.0560  177.2110  146.1110 C   0  0  2  0  0  3  0  0  0  0  0  0
  189.1100  177.4860  143.7740 C   0  0  2  0  0  3  0  0  0  0  0  0
  188.1830  177.4390  141.3700 C   0  0  0  0  0  1  0  0  0  0  0  0
  186.7130  175.3470  142.6050 O   0  0  0  0  0  0  0  0  0  0  0  0
  186.2750  177.8120  145.2780 C   0  0  0  0  0  2  0  0  0  0  0  0
  193.7310  176.0220  144.4440 C   0  0  2  0  0  3  0  0  0  0  0  0
  194.1900  174.2680  141.8370 C   0  0  0  0  0  2  0  0  0  0  0  0
  190.2120  176.5380  143.2960 C   0  0  0  0  0  2  0  0  0  0  0  0
  187.6870  178.0390  145.8520 C   0  0  0  0  0  2  0  0  0  0  0  0
  192.5190  175.9570  143.4990 C   0  0  1  0  0  3  0  0  0  0  0  0
  195.7020  175.0770  145.3780 C   0  0  0  0  0  2  0  0  0  0  0  0
  188.7910  177.1590  145.2510 C   0  0  2  0  0  3  0  0  0  0  0  0
  186.1530  176.5800  144.5000 N   0  0  0  0  0  2  0  0  0  0  0  0
  194.8350  174.0570  143.2200 C   0  0  1  0  0  3  0  0  0  0  0  0
  191.1520  176.3490  145.4600 C   0  0  1  0  0  3  0  0  0  0  0  0
  187.8680  177.4450  142.8600 C   0  0  1  0  0  3  0  0  0  0  0  0
  191.4290  176.7750  144.0720 N   0  0  2  0  0  0  0  0  0  0  0  0
  190.9020  176.9390  148.2060 C   0  0  0  0  0  2  0  0  0  0  0  0
  194.0670  175.7370  141.4270 C   0  0  0  0  0  2  0  0  0  0  0  0
  189.7720  176.7040  147.3980 O   0  0  0  0  0  0  0  0  0  0  0  0
  192.8760  176.4500  142.0840 C   0  0  0  0  0  2  0  0  0  0  0  0
  195.0320  175.3510  144.0370 C   0  0  1  0  0  3  0  0  0  0  0  0
  192.0630  176.0450  147.7620 C   0  0  0  0  0  2  0  0  0  0  0  0
  193.3860  175.4830  145.7430 N   0  0  2  0  0  0  0  0  0  0  0  0
  194.0960  173.1080  143.9370 O   0  0  0  0  0  0  0  0  0  0  0  0
  194.8430  172.0230  143.9390 O   0  0  0  0  0  0  0  0  0  0  0  0
  195.4490  169.4050  145.8060 O   0  0  0  0  0  0  0  0  0  0  0  0
  196.2190  171.4900  145.7810 C   0  0  0  0  0  3  0  0  0  0  0  0
  194.8230  171.5760  145.2620 C   0  0  2  0  0  3  0  0  0  0  0  0
  196.5170  170.2390  146.0710 C   0  0  0  0  0  3  0  0  0  0  0  0
  194.3400  170.1280  145.3060 C   0  0  0  0  0  2  0  0  0  0  0  0
  1 26  1  1  0  0  0
  3 16  1  0  0  0  0
  4 23  1  1  0  0  0
  5 11  1  6  0  0  0
  5 15  1  0  0  0  0
  6 19  1  0  0  0  0
  7  3  2  0  0  0  0
  8 12  1  0  0  0  0
  9 27  1  0  0  0  0
 10 17  1  0  0  0  0
 11 20  1  0  0  0  0
 13 20  1  0  0  0  0
 13  9  1  0  0  0  0
 14  2  1  0  0  0  0
 15 12  1  0  0  0  0
 15  4  1  0  0  0  0
 16  8  1  0  0  0  0
 17 28  1  0  0  0  0
 17 25  1  0  0  0  0
 18  4  1  0  0  0  0
 18  1  1  0  0  0  0
 19  3  1  0  0  0  0
 19  5  1  0  0  0  0
 20 18  1  0  0  0  0
 22 10  1  0  0  0  0
 22 24  1  0  0  0  0
 23 21  1  0  0  0  0
 24 13  1  0  0  0  0
 25  9  1  0  0  0  0
 25 14  1  0  0  0  0
 26 21  1  0  0  0  0
 27  1  1  0  0  0  0
 27  2  1  0  0  0  0
 28 29  1  0  0  0  0
 29 32  1  0  0  0  0
 30 33  1  0  0  0  0
 31 33  2  0  0  0  0
 32 34  1  0  0  0  0
 32 31  1  0  0  0  0
 34 30  1  0  0  0  0
M  END
>  <MODEL>
4

>  <REMARK>
 VINA RESULT:      -7.5      2.818      5.049
  Name = 
  3 active torsions:
  status: ('A' for Active; 'I' for Inactive)
    1  A    between atoms: C_17  and  O_28
    2  A    between atoms: O_28  and  O_29
    3  A    between atoms: O_29  and  C_32
                            x       y       z     vdW  Elec       q    Type
                         _______ _______ _______ _____ _____    ______ ____

>  <TORSDO>
F 3

$$$$
=
 OpenBabel11112418063D

 34 40  0  0  1  0  0  0  0  0999 V2000
  190.9940  174.6670  142.1990 C   0  0  1  0  0  3  0  0  0  0  0  0
  189.7750  176.6980  142.7550 C   0  0  0  0  0  2  0  0  0  0  0  0
  193.2780  169.1560  144.3340 C   0  0  0  0  0  0  0  0  0  0  0  0
  192.1680  172.4910  141.7830 C   0  0  2  0  0  3  0  0  0  0  0  0
  193.6360  171.5720  143.6370 C   0  0  2  0  0  3  0  0  0  0  0  0
  194.8490  170.6080  145.6960 C   0  0  0  0  0  1  0  0  0  0  0  0
  192.6890  168.7900  145.3850 O   0  0  0  0  0  0  0  0  0  0  0  0
  193.6830  168.8790  141.8610 C   0  0  0  0  0  2  0  0  0  0  0  0
  191.3070  175.8420  144.1780 C   0  0  2  0  0  3  0  0  0  0  0  0
  190.9000  175.9100  147.3260 C   0  0  0  0  0  2  0  0  0  0  0  0
  192.8510  172.4640  144.6000 C   0  0  0  0  0  2  0  0  0  0  0  0
  193.3900  170.3180  141.3960 C   0  0  0  0  0  2  0  0  0  0  0  0
  191.8790  174.6220  144.9210 C   0  0  1  0  0  3  0  0  0  0  0  0
  189.7360  177.6130  143.9780 C   0  0  0  0  0  2  0  0  0  0  0  0
  192.7210  171.2240  142.4390 C   0  0  2  0  0  3  0  0  0  0  0  0
  192.9840  168.5110  143.0920 N   0  0  0  0  0  2  0  0  0  0  0  0
  189.9760  176.5290  146.2610 C   0  0  1  0  0  3  0  0  0  0  0  0
  191.5390  173.3910  142.8620 C   0  0  1  0  0  3  0  0  0  0  0  0
  194.2190  170.3280  144.3380 C   0  0  1  0  0  3  0  0  0  0  0  0
  192.5050  173.7190  143.9320 N   0  0  2  0  0  0  0  0  0  0  0  0
  190.8310  173.3090  140.1340 C   0  0  0  0  0  2  0  0  0  0  0  0
  192.3920  176.0610  147.0200 C   0  0  0  0  0  2  0  0  0  0  0  0
  191.1790  172.1400  140.8390 O   0  0  0  0  0  0  0  0  0  0  0  0
  192.9030  175.0400  145.9930 C   0  0  0  0  0  2  0  0  0  0  0  0
  190.6990  176.9840  144.9750 C   0  0  1  0  0  3  0  0  0  0  0  0
  190.0680  174.2700  141.0500 C   0  0  0  0  0  2  0  0  0  0  0  0
  190.2940  175.4240  143.2310 N   0  0  2  0  0  0  0  0  0  0  0  0
  188.9370  175.6360  145.9730 O   0  0  0  0  0  0  0  0  0  0  0  0
  188.0250  175.8630  146.8970 O   0  0  0  0  0  0  0  0  0  0  0  0
  185.2020  176.9650  145.6630 O   0  0  0  0  0  0  0  0  0  0  0  0
  186.3630  177.4250  147.5020 C   0  0  0  0  0  3  0  0  0  0  0  0
  187.3760  177.0290  146.4820 C   0  0  2  0  0  3  0  0  0  0  0  0
  185.1530  177.3700  146.9830 C   0  0  0  0  0  3  0  0  0  0  0  0
  186.5340  176.7310  145.2440 C   0  0  0  0  0  2  0  0  0  0  0  0
  1 26  1  6  0  0  0
  1 18  1  0  0  0  0
  1 27  1  0  0  0  0
  2 27  1  0  0  0  0
  2 14  1  0  0  0  0
  3 19  1  0  0  0  0
  3  7  2  0  0  0  0
  4 23  1  6  0  0  0
  4 15  1  0  0  0  0
  4 18  1  0  0  0  0
  5 19  1  0  0  0  0
  5 11  1  1  0  0  0
  8 16  1  0  0  0  0
  9 13  1  0  0  0  0
  9 25  1  0  0  0  0
 12  8  1  0  0  0  0
 12 15  1  0  0  0  0
 13 24  1  0  0  0  0
 14 25  1  0  0  0  0
 15  5  1  0  0  0  0
 16  3  1  0  0  0  0
 17 10  1  0  0  0  0
 18 20  1  0  0  0  0
 19  6  1  0  0  0  0
 20 11  1  0  0  0  0
 20 13  1  0  0  0  0
 21 23  1  0  0  0  0
 21 26  1  0  0  0  0
 22 10  1  0  0  0  0
 24 22  1  0  0  0  0
 25 17  1  0  0  0  0
 27  9  1  0  0  0  0
 28 17  1  0  0  0  0
 28 29  1  0  0  0  0
 30 33  1  0  0  0  0
 32 29  1  0  0  0  0
 32 31  1  0  0  0  0
 33 31  2  0  0  0  0
 34 30  1  0  0  0  0
 34 32  1  0  0  0  0
M  END
>  <MODEL>
5

>  <REMARK>
 VINA RESULT:      -7.4      3.174      7.872
  Name = 
  3 active torsions:
  status: ('A' for Active; 'I' for Inactive)
    1  A    between atoms: C_17  and  O_28
    2  A    between atoms: O_28  and  O_29
    3  A    between atoms: O_29  and  C_32
                            x       y       z     vdW  Elec       q    Type
                         _______ _______ _______ _____ _____    ______ ____

>  <TORSDO>
F 3

$$$$
=
 OpenBabel11112418063D

 34 40  0  0  1  0  0  0  0  0999 V2000
  192.8850  175.4920  145.1320 C   0  0  1  0  0  3  0  0  0  0  0  0
  190.7080  175.6710  146.2020 C   0  0  0  0  0  2  0  0  0  0  0  0
  196.0170  174.8850  139.6570 C   0  0  0  0  0  0  0  0  0  0  0  0
  195.0430  175.3670  143.8620 C   0  0  2  0  0  3  0  0  0  0  0  0
  195.1180  173.8790  141.8090 C   0  0  2  0  0  3  0  0  0  0  0  0
  194.9720  172.5750  139.5910 C   0  0  0  0  0  1  0  0  0  0  0  0
  195.3080  175.2430  138.6800 O   0  0  0  0  0  0  0  0  0  0  0  0
  197.9400  175.3270  141.2250 C   0  0  0  0  0  2  0  0  0  0  0  0
  191.0440  174.2240  144.5000 C   0  0  2  0  0  3  0  0  0  0  0  0
  188.8220  173.6690  142.3010 C   0  0  0  0  0  2  0  0  0  0  0  0
  193.5910  173.9750  141.7750 C   0  0  0  0  0  2  0  0  0  0  0  0
  197.2040  175.1900  142.5710 C   0  0  0  0  0  2  0  0  0  0  0  0
  191.5970  173.9540  143.0900 C   0  0  1  0  0  3  0  0  0  0  0  0
  189.3460  175.0240  145.9570 C   0  0  0  0  0  2  0  0  0  0  0  0
  195.6720  175.1560  142.4830 C   0  0  2  0  0  3  0  0  0  0  0  0
  197.0690  175.7330  140.1230 N   0  0  0  0  0  2  0  0  0  0  0  0
  188.6860  174.5620  143.5480 C   0  0  1  0  0  3  0  0  0  0  0  0
  193.5110  175.2900  143.7420 C   0  0  1  0  0  3  0  0  0  0  0  0
  195.7170  173.6200  140.4120 C   0  0  1  0  0  3  0  0  0  0  0  0
  193.0740  174.0110  143.1440 N   0  0  2  0  0  0  0  0  0  0  0  0
  194.9630  176.7190  145.6910 C   0  0  0  0  0  2  0  0  0  0  0  0
  189.6080  172.3780  142.5430 C   0  0  0  0  0  2  0  0  0  0  0  0
  195.4050  176.6400  144.3550 O   0  0  0  0  0  0  0  0  0  0  0  0
  191.1290  172.5900  142.5490 C   0  0  0  0  0  2  0  0  0  0  0  0
  189.5490  174.1180  144.7490 C   0  0  1  0  0  3  0  0  0  0  0  0
  193.4340  176.7840  145.7380 C   0  0  0  0  0  2  0  0  0  0  0  0
  191.4390  175.5430  144.9510 N   0  0  2  0  0  0  0  0  0  0  0  0
  188.9470  175.8920  143.1970 O   0  0  0  0  0  0  0  0  0  0  0  0
  187.7850  176.3770  142.8070 O   0  0  0  0  0  0  0  0  0  0  0  0
  185.9020  179.0040  143.3140 O   0  0  0  0  0  0  0  0  0  0  0  0
  187.4210  177.9390  144.5380 C   0  0  0  0  0  3  0  0  0  0  0  0
  187.8400  177.7370  143.1200 C   0  0  2  0  0  3  0  0  0  0  0  0
  186.3200  178.6610  144.5850 C   0  0  0  0  0  3  0  0  0  0  0  0
  186.7750  178.4880  142.3260 C   0  0  0  0  0  2  0  0  0  0  0  0
  1 26  1  6  0  0  0
  3 16  1  0  0  0  0
  3 19  1  0  0  0  0
  4 23  1  6  0  0  0
  5 11  1  6  0  0  0
  5 15  1  0  0  0  0
  6 19  1  0  0  0  0
  7  3  2  0  0  0  0
  8 12  1  0  0  0  0
  9 25  1  0  0  0  0
  9 27  1  0  0  0  0
 10 22  1  0  0  0  0
 10 17  1  0  0  0  0
 11 20  1  0  0  0  0
 13 20  1  0  0  0  0
 13  9  1  0  0  0  0
 14  2  1  0  0  0  0
 15 12  1  0  0  0  0
 15  4  1  0  0  0  0
 16  8  1  0  0  0  0
 17 25  1  0  0  0  0
 18  4  1  0  0  0  0
 18  1  1  0  0  0  0
 19  5  1  0  0  0  0
 20 18  1  0  0  0  0
 21 26  1  0  0  0  0
 22 24  1  0  0  0  0
 23 21  1  0  0  0  0
 24 13  1  0  0  0  0
 25 14  1  0  0  0  0
 27  1  1  0  0  0  0
 27  2  1  0  0  0  0
 28 17  1  0  0  0  0
 29 32  1  0  0  0  0
 29 28  1  0  0  0  0
 30 33  1  0  0  0  0
 31 33  2  0  0  0  0
 32 31  1  0  0  0  0
 34 32  1  0  0  0  0
 34 30  1  0  0  0  0
M  END
>  <MODEL>
6

>  <REMARK>
 VINA RESULT:      -7.3      2.472      8.455
  Name = 
  3 active torsions:
  status: ('A' for Active; 'I' for Inactive)
    1  A    between atoms: C_17  and  O_28
    2  A    between atoms: O_28  and  O_29
    3  A    between atoms: O_29  and  C_32
                            x       y       z     vdW  Elec       q    Type
                         _______ _______ _______ _____ _____    ______ ____

>  <TORSDO>
F 3

$$$$
=
 OpenBabel11112418063D

 34 40  0  0  1  0  0  0  0  0999 V2000
  190.0710  173.3020  142.3500 C   0  0  1  0  0  3  0  0  0  0  0  0
  187.9640  174.5170  142.3650 C   0  0  0  0  0  2  0  0  0  0  0  0
  195.8010  172.6850  144.9840 C   0  0  0  0  0  0  0  0  0  0  0  0
  192.2710  172.1110  142.5200 C   0  0  2  0  0  3  0  0  0  0  0  0
  194.3190  173.4960  143.0870 C   0  0  2  0  0  3  0  0  0  0  0  0
  196.2550  174.9580  143.9550 C   0  0  0  0  0  1  0  0  0  0  0  0
  195.8350  173.1900  146.1370 O   0  0  0  0  0  0  0  0  0  0  0  0
  195.7680  170.6440  143.5040 C   0  0  0  0  0  2  0  0  0  0  0  0
  189.9280  175.6040  142.6190 C   0  0  2  0  0  3  0  0  0  0  0  0
  190.2370  178.0800  144.5830 C   0  0  0  0  0  2  0  0  0  0  0  0
  193.3610  174.5470  143.6510 C   0  0  0  0  0  2  0  0  0  0  0  0
  194.5100  170.9570  142.6720 C   0  0  0  0  0  2  0  0  0  0  0  0
  191.2990  175.7030  143.3090 C   0  0  1  0  0  3  0  0  0  0  0  0
  187.5820  175.9810  142.5790 C   0  0  0  0  0  2  0  0  0  0  0  0
  193.6430  172.1090  143.1990 C   0  0  2  0  0  3  0  0  0  0  0  0
  195.7600  171.2640  144.8290 N   0  0  0  0  0  2  0  0  0  0  0  0
  188.9420  177.3110  144.2610 C   0  0  1  0  0  3  0  0  0  0  0  0
  191.4440  173.2990  143.0430 C   0  0  1  0  0  3  0  0  0  0  0  0
  195.7070  173.5510  143.7590 C   0  0  1  0  0  3  0  0  0  0  0  0
  192.1450  174.5840  142.8390 N   0  0  2  0  0  0  0  0  0  0  0  0
  190.4260  170.8700  142.0350 C   0  0  0  0  0  2  0  0  0  0  0  0
  191.1500  178.2940  143.3750 C   0  0  0  0  0  2  0  0  0  0  0  0
  191.5950  170.9090  142.8210 O   0  0  0  0  0  0  0  0  0  0  0  0
  191.9830  177.0530  143.0200 C   0  0  0  0  0  2  0  0  0  0  0  0
  188.8990  176.6990  142.8450 C   0  0  1  0  0  3  0  0  0  0  0  0
  189.4290  171.9260  142.5220 C   0  0  0  0  0  2  0  0  0  0  0  0
  189.2780  174.3580  142.9690 N   0  0  2  0  0  0  0  0  0  0  0  0
  188.7220  176.3390  145.2440 O   0  0  0  0  0  0  0  0  0  0  0  0
  188.2810  177.0050  146.2920 O   0  0  0  0  0  0  0  0  0  0  0  0
  185.5270  177.9780  147.7660 O   0  0  0  0  0  0  0  0  0  0  0  0
  186.3150  178.1660  145.6960 C   0  0  0  0  0  3  0  0  0  0  0  0
  186.8900  176.8960  146.2260 C   0  0  2  0  0  3  0  0  0  0  0  0
  185.5540  178.7340  146.6100 C   0  0  0  0  0  3  0  0  0  0  0  0
  186.3160  176.8100  147.6380 C   0  0  0  0  0  2  0  0  0  0  0  0
  1 26  1  1  0  0  0
  1 27  1  0  0  0  0
  1 18  1  0  0  0  0
  2 14  1  0  0  0  0
  2 27  1  0  0  0  0
  3  7  2  0  0  0  0
  4 23  1  1  0  0  0
  4 18  1  0  0  0  0
  4 15  1  0  0  0  0
  5 15  1  0  0  0  0
  5 11  1  1  0  0  0
  5 19  1  0  0  0  0
  8 16  1  0  0  0  0
  9 25  1  0  0  0  0
  9 27  1  0  0  0  0
  9 13  1  0  0  0  0
 12 15  1  0  0  0  0
 12  8  1  0  0  0  0
 14 25  1  0  0  0  0
 16  3  1  0  0  0  0
 17 10  1  0  0  0  0
 17 28  1  0  0  0  0
 19  6  1  0  0  0  0
 19  3  1  0  0  0  0
 20 18  1  0  0  0  0
 20 13  1  0  0  0  0
 20 11  1  0  0  0  0
 21 26  1  0  0  0  0
 21 23  1  0  0  0  0
 22 10  1  0  0  0  0
 24 13  1  0  0  0  0
 24 22  1  0  0  0  0
 25 17  1  0  0  0  0
 28 29  1  0  0  0  0
 31 32  1  0  0  0  0
 31 33  2  0  0  0  0
 32 29  1  0  0  0  0
 32 34  1  0  0  0  0
 33 30  1  0  0  0  0
 34 30  1  0  0  0  0
M  END
>  <MODEL>
7

>  <REMARK>
 VINA RESULT:      -7.2      2.833      8.083
  Name = 
  3 active torsions:
  status: ('A' for Active; 'I' for Inactive)
    1  A    between atoms: C_17  and  O_28
    2  A    between atoms: O_28  and  O_29
    3  A    between atoms: O_29  and  C_32
                            x       y       z     vdW  Elec       q    Type
                         _______ _______ _______ _____ _____    ______ ____

>  <TORSDO>
F 3

$$$$
=
 OpenBabel11112418063D

 34 40  0  0  1  0  0  0  0  0999 V2000
  192.1230  172.0580  143.3720 C   0  0  1  0  0  3  0  0  0  0  0  0
  194.3220  171.1030  143.7870 C   0  0  0  0  0  2  0  0  0  0  0  0
  188.7930  177.3620  142.4060 C   0  0  0  0  0  0  0  0  0  0  0  0
  189.9480  173.2010  142.8720 C   0  0  2  0  0  3  0  0  0  0  0  0
  189.5410  175.4710  143.9290 C   0  0  2  0  0  3  0  0  0  0  0  0
  189.3800  177.8850  144.8180 C   0  0  0  0  0  1  0  0  0  0  0  0
  189.5310  178.3030  142.0130 O   0  0  0  0  0  0  0  0  0  0  0  0
  187.0290  175.6310  141.9120 C   0  0  0  0  0  2  0  0  0  0  0  0
  193.6730  173.0060  144.8190 C   0  0  2  0  0  3  0  0  0  0  0  0
  195.6930  175.3940  145.3640 C   0  0  0  0  0  2  0  0  0  0  0  0
  191.0570  175.5780  144.1070 C   0  0  0  0  0  2  0  0  0  0  0  0
  187.7610  174.3730  142.4190 C   0  0  0  0  0  2  0  0  0  0  0  0
  193.0440  174.4060  144.7260 C   0  0  1  0  0  3  0  0  0  0  0  0
  195.5300  171.5360  144.6160 C   0  0  0  0  0  2  0  0  0  0  0  0
  189.2550  174.5570  142.7140 C   0  0  2  0  0  3  0  0  0  0  0  0
  187.9320  176.6960  141.4790 N   0  0  0  0  0  2  0  0  0  0  0  0
  196.0280  174.0230  144.7490 C   0  0  1  0  0  3  0  0  0  0  0  0
  191.4350  173.4230  143.2040 C   0  0  1  0  0  3  0  0  0  0  0  0
  188.8670  176.8550  143.8190 C   0  0  1  0  0  3  0  0  0  0  0  0
  191.6060  174.2570  144.4120 N   0  0  2  0  0  0  0  0  0  0  0  0
  190.3300  171.1750  141.9080 C   0  0  0  0  0  2  0  0  0  0  0  0
  194.6840  175.3310  146.5120 C   0  0  0  0  0  2  0  0  0  0  0  0
  189.8470  172.4760  141.6650 O   0  0  0  0  0  0  0  0  0  0  0  0
  193.2310  175.2000  146.0320 C   0  0  0  0  0  2  0  0  0  0  0  0
  195.1280  172.8670  145.2370 C   0  0  1  0  0  3  0  0  0  0  0  0
  191.8440  171.2080  142.1330 C   0  0  0  0  0  2  0  0  0  0  0  0
  193.5480  172.3130  143.5530 N   0  0  2  0  0  0  0  0  0  0  0  0
  196.0150  174.1240  143.3530 O   0  0  0  0  0  0  0  0  0  0  0  0
  195.9030  175.4130  143.1040 O   0  0  0  0  0  0  0  0  0  0  0  0
  194.4050  173.8480  140.6520 O   0  0  0  0  0  0  0  0  0  0  0  0
  194.2150  175.8840  141.5230 C   0  0  0  0  0  3  0  0  0  0  0  0
  195.6400  175.4930  141.7350 C   0  0  2  0  0  3  0  0  0  0  0  0
  193.5670  174.9160  140.9080 C   0  0  0  0  0  3  0  0  0  0  0  0
  195.7190  174.0990  141.1170 C   0  0  0  0  0  2  0  0  0  0  0  0
  1 26  1  6  0  0  0
  1 27  1  0  0  0  0
  2 14  1  0  0  0  0
  3 19  1  0  0  0  0
  4 23  1  6  0  0  0
  4 18  1  0  0  0  0
  5 11  1  6  0  0  0
  7  3  2  0  0  0  0
  8 12  1  0  0  0  0
  9 25  1  0  0  0  0
 10 22  1  0  0  0  0
 11 20  1  0  0  0  0
 12 15  1  0  0  0  0
 13  9  1  0  0  0  0
 13 24  1  0  0  0  0
 14 25  1  0  0  0  0
 15  4  1  0  0  0  0
 15  5  1  0  0  0  0
 16  8  1  0  0  0  0
 16  3  1  0  0  0  0
 17 25  1  0  0  0  0
 17 10  1  0  0  0  0
 18  1  1  0  0  0  0
 18 20  1  0  0  0  0
 19  5  1  0  0  0  0
 19  6  1  0  0  0  0
 20 13  1  0  0  0  0
 21 26  1  0  0  0  0
 23 21  1  0  0  0  0
 24 22  1  0  0  0  0
 27  2  1  0  0  0  0
 27  9  1  0  0  0  0
 28 17  1  0  0  0  0
 29 28  1  0  0  0  0
 30 33  1  0  0  0  0
 30 34  1  0  0  0  0
 31 32  1  0  0  0  0
 32 29  1  0  0  0  0
 33 31  2  0  0  0  0
 34 32  1  0  0  0  0
M  END
>  <MODEL>
8

>  <REMARK>
 VINA RESULT:      -7.2      2.704      4.034
  Name = 
  3 active torsions:
  status: ('A' for Active; 'I' for Inactive)
    1  A    between atoms: C_17  and  O_28
    2  A    between atoms: O_28  and  O_29
    3  A    between atoms: O_29  and  C_32
                            x       y       z     vdW  Elec       q    Type
                         _______ _______ _______ _____ _____    ______ ____

>  <TORSDO>
F 3

$$$$
=
 OpenBabel11112418063D

 34 40  0  0  1  0  0  0  0  0999 V2000
  194.8330  175.6090  144.0580 C   0  0  1  0  0  3  0  0  0  0  0  0
  193.7760  176.0360  146.2070 C   0  0  0  0  0  2  0  0  0  0  0  0
  193.9320  174.5280  137.8800 C   0  0  0  0  0  0  0  0  0  0  0  0
  195.7560  175.2310  141.7580 C   0  0  2  0  0  3  0  0  0  0  0  0
  194.4720  173.6820  140.2130 C   0  0  2  0  0  3  0  0  0  0  0  0
  192.9260  172.3330  138.6540 C   0  0  0  0  0  1  0  0  0  0  0  0
  192.7980  174.9260  137.5030 O   0  0  0  0  0  0  0  0  0  0  0  0
  196.4350  174.8220  137.9210 C   0  0  0  0  0  2  0  0  0  0  0  0
  192.9150  174.5130  144.7770 C   0  0  2  0  0  3  0  0  0  0  0  0
  189.7850  174.1170  144.4260 C   0  0  0  0  0  2  0  0  0  0  0  0
  193.2510  173.9290  141.1010 C   0  0  0  0  0  2  0  0  0  0  0  0
  196.6660  174.8010  139.4440 C   0  0  0  0  0  2  0  0  0  0  0  0
  192.4760  174.1470  143.3490 C   0  0  1  0  0  3  0  0  0  0  0  0
  192.5100  175.5220  146.8900 C   0  0  0  0  0  2  0  0  0  0  0  0
  195.3990  174.9170  140.3030 C   0  0  2  0  0  3  0  0  0  0  0  0
  195.1000  175.2800  137.5400 N   0  0  0  0  0  2  0  0  0  0  0  0
  190.4920  175.0560  145.4200 C   0  0  1  0  0  3  0  0  0  0  0  0
  194.4670  175.3030  142.5950 C   0  0  1  0  0  3  0  0  0  0  0  0
  194.0780  173.3230  138.7650 C   0  0  1  0  0  3  0  0  0  0  0  0
  193.6790  174.0580  142.4940 N   0  0  2  0  0  0  0  0  0  0  0  0
  196.8900  176.6390  143.1400 C   0  0  0  0  0  2  0  0  0  0  0  0
  190.4740  172.7620  144.2520 C   0  0  0  0  0  2  0  0  0  0  0  0
  196.4200  176.4750  141.8220 O   0  0  0  0  0  0  0  0  0  0  0  0
  191.6930  172.8210  143.3190 C   0  0  0  0  0  2  0  0  0  0  0  0
  191.8790  174.5650  145.8870 C   0  0  1  0  0  3  0  0  0  0  0  0
  195.7140  176.8570  144.0960 C   0  0  0  0  0  2  0  0  0  0  0  0
  193.5820  175.7990  144.7840 N   0  0  2  0  0  0  0  0  0  0  0  0
  190.5650  176.3430  144.8720 O   0  0  0  0  0  0  0  0  0  0  0  0
  189.7170  176.3330  143.8640 O   0  0  0  0  0  0  0  0  0  0  0  0
  187.6380  178.2480  142.2140 O   0  0  0  0  0  0  0  0  0  0  0  0
  187.8990  177.7520  144.3660 C   0  0  0  0  0  3  0  0  0  0  0  0
  189.2620  177.6510  143.7670 C   0  0  2  0  0  3  0  0  0  0  0  0
  187.0230  178.0930  143.4420 C   0  0  0  0  0  3  0  0  0  0  0  0
  189.0300  178.0050  142.3000 C   0  0  0  0  0  2  0  0  0  0  0  0
  1 26  1  6  0  0  0
  1 27  1  0  0  0  0
  2 14  1  0  0  0  0
  3 19  1  0  0  0  0
  4 23  1  6  0  0  0
  4 18  1  0  0  0  0
  5 15  1  0  0  0  0
  5 11  1  1  0  0  0
  6 19  1  0  0  0  0
  7  3  2  0  0  0  0
  8 12  1  0  0  0  0
  9 27  1  0  0  0  0
  9 25  1  0  0  0  0
 10 17  1  0  0  0  0
 11 20  1  0  0  0  0
 12 15  1  0  0  0  0
 13  9  1  0  0  0  0
 15  4  1  0  0  0  0
 16  3  1  0  0  0  0
 16  8  1  0  0  0  0
 17 25  1  0  0  0  0
 18  1  1  0  0  0  0
 19  5  1  0  0  0  0
 20 18  1  0  0  0  0
 20 13  1  0  0  0  0
 21 26  1  0  0  0  0
 22 10  1  0  0  0  0
 23 21  1  0  0  0  0
 24 13  1  0  0  0  0
 24 22  1  0  0  0  0
 25 14  1  0  0  0  0
 27  2  1  0  0  0  0
 28 17  1  0  0  0  0
 29 28  1  0  0  0  0
 30 34  1  0  0  0  0
 30 33  1  0  0  0  0
 32 29  1  0  0  0  0
 32 31  1  0  0  0  0
 33 31  2  0  0  0  0
 34 32  1  0  0  0  0
M  END
>  <MODEL>
9

>  <REMARK>
 VINA RESULT:      -7.1      3.041      8.099
  Name = 
  3 active torsions:
  status: ('A' for Active; 'I' for Inactive)
    1  A    between atoms: C_17  and  O_28
    2  A    between atoms: O_28  and  O_29
    3  A    between atoms: O_29  and  C_32
                            x       y       z     vdW  Elec       q    Type
                         _______ _______ _______ _____ _____    ______ ____

>  <TORSDO>
F 3

$$$$
