=
 OpenBabel11112417193D

 37 43  0  0  1  0  0  0  0  0999 V2000
  191.6790  171.5370  142.3450 C   0  0  0  0  0  0  0  0  0  0  0  0
  189.1050  174.8310  142.9650 C   0  0  0  0  0  0  0  0  0  0  0  0
  188.8380  176.1220  146.7120 C   0  0  0  0  0  2  0  0  0  0  0  0
  190.0810  173.2000  141.3770 C   0  0  0  0  0  0  0  0  0  0  0  0
  189.5320  175.3500  144.3000 C   0  0  1  0  0  3  0  0  0  0  0  0
  189.6980  173.4960  142.7750 C   0  0  1  0  0  3  0  0  0  0  0  0
  188.3670  175.8120  145.2510 C   0  0  2  0  0  3  0  0  0  0  0  0
  189.4640  173.9340  140.3150 N   0  0  0  0  0  0  0  0  0  0  0  0
  190.8860  173.5010  143.5970 N   0  0  2  0  0  0  0  0  0  0  0  0
  193.1810  171.6740  142.1960 C   0  0  0  0  0  1  0  0  0  0  0  0
  187.9760  176.8860  142.2030 C   0  0  0  0  0  2  0  0  0  0  0  0
  188.3690  174.8710  140.6040 C   0  0  0  0  0  2  0  0  0  0  0  0
  191.2610  172.0990  143.7380 C   0  0  0  0  0  2  0  0  0  0  0  0
  191.1500  176.0650  147.8310 O   0  0  0  0  0  0  0  0  0  0  0  0
  190.3290  176.3680  146.7270 C   0  0  1  0  0  3  0  0  0  0  0  0
  188.5270  175.5190  141.9670 C   0  0  0  0  0  0  0  0  0  0  0  0
  190.3880  174.1460  144.8050 C   0  0  1  0  0  3  0  0  0  0  0  0
  191.0060  172.2530  141.1710 C   0  0  0  0  0  2  0  0  0  0  0  0
  187.6280  177.0590  144.6920 C   0  0  1  0  0  3  0  0  0  0  0  0
  191.3230  170.0660  142.2910 C   0  0  0  0  0  1  0  0  0  0  0  0
  190.7530  174.9780  147.0430 C   0  0  1  0  0  3  0  0  0  0  0  0
  191.5090  174.5260  145.7950 C   0  0  2  0  0  3  0  0  0  0  0  0
  186.9600  176.8430  143.3330 C   0  0  0  0  0  2  0  0  0  0  0  0
  185.3530  176.9520  145.7330 C   0  0  0  0  0  3  0  0  0  0  0  0
  186.5950  177.5900  145.6450 C   0  0  0  0  0  0  0  0  0  0  0  0
  186.8580  178.7110  146.4490 C   0  0  0  0  0  3  0  0  0  0  0  0
  186.1370  180.2700  148.1020 F   0  0  0  0  0  0  0  0  0  0  0  0
  184.6420  178.5470  147.4100 C   0  0  0  0  0  3  0  0  0  0  0  0
  185.8810  179.1880  147.3280 C   0  0  0  0  0  0  0  0  0  0  0  0
  184.3770  177.4290  146.6130 C   0  0  0  0  0  3  0  0  0  0  0  0
  192.3710  175.5040  145.2640 O   0  0  0  0  0  0  0  0  0  0  0  0
  193.6370  174.9070  145.2270 C   0  0  1  0  0  3  0  0  0  0  0  0
  193.5170  175.9060  143.0560 O   0  0  0  0  0  1  0  0  0  0  0  0
  194.2080  174.9640  143.8180 C   0  0  0  0  0  2  0  0  0  0  0  0
  194.5880  175.5710  146.2270 C   0  0  0  0  0  2  0  0  0  0  0  0
  194.2890  177.0240  146.4490 C   0  0  0  0  0  3  0  0  0  0  0  0
  194.9050  177.9270  145.7790 N   0  0  0  0  0  2  0  0  0  0  0  0
  1 13  1  0  0  0  0
  5  2  1  6  0  0  0
  5 17  1  0  0  0  0
  5  7  1  0  0  0  0
  6  4  1  6  0  0  0
  6  2  1  0  0  0  0
  6  9  1  0  0  0  0
  7  3  1  1  0  0  0
  8 12  1  0  0  0  0
  8  4  2  0  0  0  0
  9 13  1  1  0  0  0
  9 17  1  0  0  0  0
 10  1  1  0  0  0  0
 11 23  1  0  0  0  0
 12 16  1  0  0  0  0
 15  3  1  1  0  0  0
 15 21  1  0  0  0  0
 15 14  1  0  0  0  0
 16 11  1  0  0  0  0
 16  2  2  0  0  0  0
 17 22  1  0  0  0  0
 18  4  1  0  0  0  0
 18  1  1  0  0  0  0
 19  7  1  0  0  0  0
 19 25  1  0  0  0  0
 20  1  1  0  0  0  0
 21 14  1  0  0  0  0
 22 21  1  0  0  0  0
 23 19  1  0  0  0  0
 24 30  1  0  0  0  0
 25 24  2  0  0  0  0
 25 26  1  0  0  0  0
 26 29  2  0  0  0  0
 29 28  1  0  0  0  0
 29 27  1  0  0  0  0
 30 28  2  0  0  0  0
 31 22  1  0  0  0  0
 32 31  1  0  0  0  0
 32 35  1  0  0  0  0
 33 34  1  0  0  0  0
 34 32  1  0  0  0  0
 35 36  1  0  0  0  0
 37 36  2  0  0  0  0
M  END
>  <MODEL>
1

>  <REMARK>
 VINA RESULT:      -8.2      0.000      0.000
  Name = 
  6 active torsions:
  status: ('A' for Active; 'I' for Inactive)
    1  A    between atoms: O_1  and  C_4
    2  A    between atoms: O_1  and  C_27
    3  A    between atoms: C_4  and  C_12
    4  A    between atoms: C_4  and  C_37
    5  A    between atoms: C_8  and  C_12
    6  A    between atoms: C_23  and  C_30
                            x       y       z     vdW  Elec       q    Type
                         _______ _______ _______ _____ _____    ______ ____

>  <TORSDO>
F 6

$$$$
=
 OpenBabel11112417193D

 37 43  0  0  1  0  0  0  0  0999 V2000
  195.0310  175.5020  142.8250 C   0  0  0  0  0  0  0  0  0  0  0  0
  191.5760  176.2440  145.1430 C   0  0  0  0  0  0  0  0  0  0  0  0
  188.1220  176.0520  143.1900 C   0  0  0  0  0  2  0  0  0  0  0  0
  194.0460  176.0780  145.0510 C   0  0  0  0  0  0  0  0  0  0  0  0
  190.4750  175.6890  144.2990 C   0  0  1  0  0  3  0  0  0  0  0  0
  192.7900  176.3430  144.3150 C   0  0  1  0  0  3  0  0  0  0  0  0
  189.1540  176.5430  144.2620 C   0  0  2  0  0  3  0  0  0  0  0  0
  194.0630  176.2220  146.4740 N   0  0  0  0  0  2  0  0  0  0  0  0
  192.6210  175.3340  143.2940 N   0  0  2  0  0  0  0  0  0  0  0  0
  195.5230  174.1070  142.4920 C   0  0  0  0  0  1  0  0  0  0  0  0
  190.3410  176.2320  147.2760 C   0  0  0  0  0  2  0  0  0  0  0  0
  192.8870  176.7590  147.1760 C   0  0  0  0  0  2  0  0  0  0  0  0
  193.5890  175.6720  142.2570 C   0  0  0  0  0  2  0  0  0  0  0  0
  188.1600  174.0980  141.5230 O   0  0  0  0  0  0  0  0  0  0  0  0
  188.4280  174.6250  142.8020 C   0  0  1  0  0  3  0  0  0  0  0  0
  191.5940  176.3800  146.4790 C   0  0  0  0  0  0  0  0  0  0  0  0
  191.2220  175.5280  142.9380 C   0  0  1  0  0  3  0  0  0  0  0  0
  195.1160  175.6990  144.3410 C   0  0  0  0  0  3  0  0  0  0  0  0
  188.4510  176.5790  145.6470 C   0  0  1  0  0  3  0  0  0  0  0  0
  195.9390  176.5060  142.1480 C   0  0  0  0  0  1  0  0  0  0  0  0
  189.2870  174.9220  141.6250 C   0  0  1  0  0  3  0  0  0  0  0  0
  190.6670  174.4090  142.0310 C   0  0  2  0  0  3  0  0  0  0  0  0
  189.2880  177.2020  146.7660 C   0  0  0  0  0  2  0  0  0  0  0  0
  186.0510  176.7650  146.3340 C   0  0  0  0  0  3  0  0  0  0  0  0
  187.1250  177.2830  145.6020 C   0  0  0  0  0  0  0  0  0  0  0  0
  186.9500  178.4520  144.8450 C   0  0  0  0  0  3  0  0  0  0  0  0
  185.5400  180.2190  144.0860 F   0  0  0  0  0  0  0  0  0  0  0  0
  184.6370  178.5680  145.5490 C   0  0  0  0  0  3  0  0  0  0  0  0
  185.7070  179.0910  144.8180 C   0  0  0  0  0  0  0  0  0  0  0  0
  184.8080  177.4050  146.3070 C   0  0  0  0  0  3  0  0  0  0  0  0
  190.6440  173.1640  142.6850 O   0  0  0  0  0  0  0  0  0  0  0  0
  191.3890  172.3000  141.8730 C   0  0  1  0  0  3  0  0  0  0  0  0
  192.3690  171.9600  144.0300 O   0  0  0  0  0  1  0  0  0  0  0  0
  192.5020  171.6450  142.6780 C   0  0  0  0  0  2  0  0  0  0  0  0
  190.4910  171.2410  141.2260 C   0  0  0  0  0  2  0  0  0  0  0  0
  190.4200  171.3610  139.7330 C   0  0  0  0  0  3  0  0  0  0  0  0
  189.4250  171.9400  139.1700 N   0  0  0  0  0  2  0  0  0  0  0  0
  1 18  1  0  0  0  0
  2 16  2  0  0  0  0
  4  8  1  0  0  0  0
  5  2  1  1  0  0  0
  6  4  1  1  0  0  0
  6  2  1  0  0  0  0
  7  3  1  6  0  0  0
  7  5  1  0  0  0  0
  7 19  1  0  0  0  0
  8 12  1  0  0  0  0
  9 13  1  6  0  0  0
  9  6  1  0  0  0  0
 10  1  1  0  0  0  0
 13  1  1  0  0  0  0
 14 21  1  0  0  0  0
 14 15  1  0  0  0  0
 15  3  1  6  0  0  0
 16 12  1  0  0  0  0
 16 11  1  0  0  0  0
 17  9  1  0  0  0  0
 17  5  1  0  0  0  0
 18  4  2  0  0  0  0
 19 23  1  0  0  0  0
 20  1  1  0  0  0  0
 21 22  1  0  0  0  0
 21 15  1  0  0  0  0
 22 31  1  0  0  0  0
 22 17  1  0  0  0  0
 23 11  1  0  0  0  0
 25 19  1  0  0  0  0
 25 24  2  0  0  0  0
 26 25  1  0  0  0  0
 27 29  1  0  0  0  0
 28 30  2  0  0  0  0
 29 26  2  0  0  0  0
 29 28  1  0  0  0  0
 30 24  1  0  0  0  0
 32 34  1  0  0  0  0
 32 31  1  0  0  0  0
 34 33  1  0  0  0  0
 35 32  1  0  0  0  0
 36 35  1  0  0  0  0
 37 36  2  0  0  0  0
M  END
>  <MODEL>
2

>  <REMARK>
 VINA RESULT:      -8.2      2.064      5.087
  Name = 
  6 active torsions:
  status: ('A' for Active; 'I' for Inactive)
    1  A    between atoms: O_1  and  C_4
    2  A    between atoms: O_1  and  C_27
    3  A    between atoms: C_4  and  C_12
    4  A    between atoms: C_4  and  C_37
    5  A    between atoms: C_8  and  C_12
    6  A    between atoms: C_23  and  C_30
                            x       y       z     vdW  Elec       q    Type
                         _______ _______ _______ _____ _____    ______ ____

>  <TORSDO>
F 6

$$$$
=
 OpenBabel11112417193D

 37 43  0  0  1  0  0  0  0  0999 V2000
  194.8770  175.4860  142.6160 C   0  0  0  0  0  0  0  0  0  0  0  0
  191.4850  176.2060  145.0330 C   0  0  0  0  0  0  0  0  0  0  0  0
  187.9850  176.1030  143.1580 C   0  0  0  0  0  2  0  0  0  0  0  0
  193.9500  176.0150  144.8790 C   0  0  0  0  0  0  0  0  0  0  0  0
  190.3590  175.6850  144.2020 C   0  0  1  0  0  3  0  0  0  0  0  0
  192.6810  176.3130  144.1800 C   0  0  1  0  0  3  0  0  0  0  0  0
  189.0470  176.5540  144.2170 C   0  0  2  0  0  3  0  0  0  0  0  0
  194.0020  176.1230  146.3040 N   0  0  0  0  0  2  0  0  0  0  0  0
  192.4770  175.3330  143.1380 N   0  0  2  0  0  0  0  0  0  0  0  0
  195.3440  174.0960  142.2360 C   0  0  0  0  0  1  0  0  0  0  0  0
  190.3010  176.1530  147.1940 C   0  0  0  0  0  2  0  0  0  0  0  0
  192.8500  176.6530  147.0470 C   0  0  0  0  0  2  0  0  0  0  0  0
  193.4240  175.6870  142.0870 C   0  0  0  0  0  2  0  0  0  0  0  0
  187.9610  174.1920  141.4410 O   0  0  0  0  0  0  0  0  0  0  0  0
  188.2650  174.6830  142.7260 C   0  0  1  0  0  3  0  0  0  0  0  0
  191.5360  176.3070  146.3710 C   0  0  0  0  0  0  0  0  0  0  0  0
  191.0720  175.5510  142.8200 C   0  0  1  0  0  3  0  0  0  0  0  0
  195.0000  175.6440  144.1340 C   0  0  0  0  0  3  0  0  0  0  0  0
  188.3770  176.5620  145.6190 C   0  0  1  0  0  3  0  0  0  0  0  0
  195.7800  176.4980  141.9440 C   0  0  0  0  0  1  0  0  0  0  0  0
  189.1000  175.0010  141.5370 C   0  0  1  0  0  3  0  0  0  0  0  0
  190.4830  174.4630  141.8970 C   0  0  2  0  0  3  0  0  0  0  0  0
  189.2470  177.1460  146.7330 C   0  0  0  0  0  2  0  0  0  0  0  0
  185.9810  176.7290  146.3250 C   0  0  0  0  0  3  0  0  0  0  0  0
  187.0590  177.2820  145.6240 C   0  0  0  0  0  0  0  0  0  0  0  0
  186.8940  178.4980  144.9420 C   0  0  0  0  0  3  0  0  0  0  0  0
  185.5010  180.3240  144.3010 F   0  0  0  0  0  0  0  0  0  0  0  0
  184.5840  178.5930  145.6610 C   0  0  0  0  0  3  0  0  0  0  0  0
  185.6580  179.1500  144.9610 C   0  0  0  0  0  0  0  0  0  0  0  0
  184.7460  177.3830  146.3430 C   0  0  0  0  0  3  0  0  0  0  0  0
  190.4600  173.2010  142.5190 O   0  0  0  0  0  0  0  0  0  0  0  0
  191.1840  172.3520  141.6720 C   0  0  1  0  0  3  0  0  0  0  0  0
  192.8090  172.8930  140.0000 O   0  0  0  0  0  1  0  0  0  0  0  0
  191.4650  173.0420  140.3460 C   0  0  0  0  0  2  0  0  0  0  0  0
  192.4860  171.8940  142.3350 C   0  0  0  0  0  2  0  0  0  0  0  0
  192.3450  171.6520  143.8080 C   0  0  0  0  0  3  0  0  0  0  0  0
  193.1130  172.2470  144.6440 N   0  0  0  0  0  2  0  0  0  0  0  0
  1 18  1  0  0  0  0
  2 16  2  0  0  0  0
  4  8  1  0  0  0  0
  5  7  1  0  0  0  0
  5  2  1  1  0  0  0
  6  4  1  1  0  0  0
  6  2  1  0  0  0  0
  7  3  1  6  0  0  0
  7 19  1  0  0  0  0
  8 12  1  0  0  0  0
  9 13  1  6  0  0  0
  9  6  1  0  0  0  0
 10  1  1  0  0  0  0
 13  1  1  0  0  0  0
 14 21  1  0  0  0  0
 14 15  1  0  0  0  0
 15  3  1  6  0  0  0
 16 12  1  0  0  0  0
 16 11  1  0  0  0  0
 17  9  1  0  0  0  0
 17  5  1  0  0  0  0
 18  4  2  0  0  0  0
 19 25  1  0  0  0  0
 19 23  1  0  0  0  0
 20  1  1  0  0  0  0
 21 22  1  0  0  0  0
 21 15  1  0  0  0  0
 22 31  1  0  0  0  0
 22 17  1  0  0  0  0
 23 11  1  0  0  0  0
 24 30  1  0  0  0  0
 25 24  2  0  0  0  0
 26 29  2  0  0  0  0
 26 25  1  0  0  0  0
 27 29  1  0  0  0  0
 28 30  2  0  0  0  0
 29 28  1  0  0  0  0
 32 35  1  0  0  0  0
 32 31  1  0  0  0  0
 33 34  1  0  0  0  0
 34 32  1  0  0  0  0
 35 36  1  0  0  0  0
 36 37  2  0  0  0  0
M  END
>  <MODEL>
3

>  <REMARK>
 VINA RESULT:      -8.1      2.107      4.652
  Name = 
  6 active torsions:
  status: ('A' for Active; 'I' for Inactive)
    1  A    between atoms: O_1  and  C_4
    2  A    between atoms: O_1  and  C_27
    3  A    between atoms: C_4  and  C_12
    4  A    between atoms: C_4  and  C_37
    5  A    between atoms: C_8  and  C_12
    6  A    between atoms: C_23  and  C_30
                            x       y       z     vdW  Elec       q    Type
                         _______ _______ _______ _____ _____    ______ ____

>  <TORSDO>
F 6

$$$$
=
 OpenBabel11112417193D

 37 43  0  0  1  0  0  0  0  0999 V2000
  191.8850  171.5520  142.2240 C   0  0  0  0  0  0  0  0  0  0  0  0
  189.1980  174.7530  142.8610 C   0  0  0  0  0  0  0  0  0  0  0  0
  188.9910  176.1060  146.5900 C   0  0  0  0  0  2  0  0  0  0  0  0
  190.1920  173.1300  141.2740 C   0  0  0  0  0  0  0  0  0  0  0  0
  189.6440  175.3140  144.1720 C   0  0  1  0  0  3  0  0  0  0  0  0
  189.8390  173.4390  142.6770 C   0  0  1  0  0  3  0  0  0  0  0  0
  188.4890  175.7480  145.1500 C   0  0  2  0  0  3  0  0  0  0  0  0
  189.5140  173.8180  140.2180 N   0  0  0  0  0  0  0  0  0  0  0  0
  191.0500  173.5080  143.4620 N   0  0  2  0  0  0  0  0  0  0  0  0
  193.3740  171.7470  142.0270 C   0  0  0  0  0  1  0  0  0  0  0  0
  187.9640  176.7440  142.0960 C   0  0  0  0  0  2  0  0  0  0  0  0
  188.3910  174.7160  140.5230 C   0  0  0  0  0  2  0  0  0  0  0  0
  191.4860  172.1250  143.6190 C   0  0  0  0  0  2  0  0  0  0  0  0
  191.3360  176.1650  147.6380 O   0  0  0  0  0  0  0  0  0  0  0  0
  190.4700  176.4120  146.5540 C   0  0  1  0  0  3  0  0  0  0  0  0
  188.5630  175.3960  141.8690 C   0  0  0  0  0  0  0  0  0  0  0  0
  190.5620  174.1560  144.6730 C   0  0  1  0  0  3  0  0  0  0  0  0
  191.1480  172.2180  141.0580 C   0  0  0  0  0  2  0  0  0  0  0  0
  187.6830  176.9530  144.5910 C   0  0  1  0  0  3  0  0  0  0  0  0
  191.5870  170.0680  142.2090 C   0  0  0  0  0  1  0  0  0  0  0  0
  190.9600  175.0470  146.8830 C   0  0  1  0  0  3  0  0  0  0  0  0
  191.6960  174.6010  145.6210 C   0  0  2  0  0  3  0  0  0  0  0  0
  186.9850  176.6830  143.2570 C   0  0  0  0  0  2  0  0  0  0  0  0
  185.4400  176.7850  145.6890 C   0  0  0  0  0  3  0  0  0  0  0  0
  186.6590  177.4620  145.5640 C   0  0  0  0  0  0  0  0  0  0  0  0
  186.9070  178.5980  146.3510 C   0  0  0  0  0  3  0  0  0  0  0  0
  186.1790  180.1500  148.0080 F   0  0  0  0  0  0  0  0  0  0  0  0
  184.7220  178.3750  147.3700 C   0  0  0  0  0  3  0  0  0  0  0  0
  185.9380  179.0530  147.2510 C   0  0  0  0  0  0  0  0  0  0  0  0
  184.4720  177.2410  146.5900 C   0  0  0  0  0  3  0  0  0  0  0  0
  192.5010  175.6020  145.0460 O   0  0  0  0  0  0  0  0  0  0  0  0
  193.8220  175.1870  145.2560 C   0  0  1  0  0  3  0  0  0  0  0  0
  194.0340  177.4030  146.1350 O   0  0  0  0  0  1  0  0  0  0  0  0
  194.5090  176.0980  146.2630 C   0  0  0  0  0  2  0  0  0  0  0  0
  193.8740  173.7280  145.7180 C   0  0  0  0  0  2  0  0  0  0  0  0
  195.1700  173.0510  145.3880 C   0  0  0  0  0  3  0  0  0  0  0  0
  195.7740  173.2990  144.2850 N   0  0  0  0  0  2  0  0  0  0  0  0
  1 13  1  0  0  0  0
  5  2  1  6  0  0  0
  5 17  1  0  0  0  0
  5  7  1  0  0  0  0
  6  4  1  6  0  0  0
  6  2  1  0  0  0  0
  6  9  1  0  0  0  0
  7  3  1  1  0  0  0
  8 12  1  0  0  0  0
  8  4  2  0  0  0  0
  9 13  1  1  0  0  0
  9 17  1  0  0  0  0
 10  1  1  0  0  0  0
 11 23  1  0  0  0  0
 12 16  1  0  0  0  0
 15  3  1  1  0  0  0
 15 21  1  0  0  0  0
 15 14  1  0  0  0  0
 16 11  1  0  0  0  0
 16  2  2  0  0  0  0
 17 22  1  0  0  0  0
 18  4  1  0  0  0  0
 18  1  1  0  0  0  0
 19  7  1  0  0  0  0
 19 25  1  0  0  0  0
 20  1  1  0  0  0  0
 21 14  1  0  0  0  0
 22 21  1  0  0  0  0
 23 19  1  0  0  0  0
 24 30  1  0  0  0  0
 25 24  2  0  0  0  0
 25 26  1  0  0  0  0
 26 29  2  0  0  0  0
 29 28  1  0  0  0  0
 29 27  1  0  0  0  0
 30 28  2  0  0  0  0
 31 32  1  0  0  0  0
 31 22  1  0  0  0  0
 32 35  1  0  0  0  0
 32 34  1  0  0  0  0
 33 34  1  0  0  0  0
 36 35  1  0  0  0  0
 37 36  2  0  0  0  0
M  END
>  <MODEL>
4

>  <REMARK>
 VINA RESULT:      -7.7      1.050      1.346
  Name = 
  6 active torsions:
  status: ('A' for Active; 'I' for Inactive)
    1  A    between atoms: O_1  and  C_4
    2  A    between atoms: O_1  and  C_27
    3  A    between atoms: C_4  and  C_12
    4  A    between atoms: C_4  and  C_37
    5  A    between atoms: C_8  and  C_12
    6  A    between atoms: C_23  and  C_30
                            x       y       z     vdW  Elec       q    Type
                         _______ _______ _______ _____ _____    ______ ____

>  <TORSDO>
F 6

$$$$
=
 OpenBabel11112417193D

 37 43  0  0  1  0  0  0  0  0999 V2000
  192.0480  171.3440  142.2680 C   0  0  0  0  0  0  0  0  0  0  0  0
  189.2180  174.4830  142.2090 C   0  0  0  0  0  0  0  0  0  0  0  0
  188.9380  176.6060  145.5550 C   0  0  0  0  0  2  0  0  0  0  0  0
  190.2880  172.5990  141.0080 C   0  0  0  0  0  0  0  0  0  0  0  0
  189.6340  175.3360  143.3640 C   0  0  1  0  0  3  0  0  0  0  0  0
  189.9170  173.1900  142.3130 C   0  0  1  0  0  3  0  0  0  0  0  0
  188.4580  175.9210  144.2310 C   0  0  2  0  0  3  0  0  0  0  0  0
  189.5840  173.0090  139.8320 N   0  0  0  0  0  0  0  0  0  0  0  0
  191.1220  173.4830  143.0550 N   0  0  2  0  0  0  0  0  0  0  0  0
  193.5280  171.5570  142.0230 C   0  0  0  0  0  1  0  0  0  0  0  0
  187.8980  176.2030  141.0370 C   0  0  0  0  0  2  0  0  0  0  0  0
  188.4200  173.9020  139.9420 C   0  0  0  0  0  2  0  0  0  0  0  0
  191.6190  172.1880  143.5060 C   0  0  0  0  0  2  0  0  0  0  0  0
  191.2750  176.9960  146.5490 O   0  0  0  0  0  0  0  0  0  0  0  0
  190.4020  176.9630  145.4440 C   0  0  1  0  0  3  0  0  0  0  0  0
  188.5580  174.8660  141.1050 C   0  0  0  0  0  0  0  0  0  0  0  0
  190.6010  174.3570  144.0990 C   0  0  1  0  0  3  0  0  0  0  0  0
  191.2850  171.7060  140.9900 C   0  0  0  0  0  2  0  0  0  0  0  0
  187.6000  176.9380  143.4280 C   0  0  1  0  0  3  0  0  0  0  0  0
  191.8170  169.8800  142.5780 C   0  0  0  0  0  1  0  0  0  0  0  0
  190.9520  175.7250  146.0580 C   0  0  1  0  0  3  0  0  0  0  0  0
  191.7110  175.0480  144.9190 C   0  0  2  0  0  3  0  0  0  0  0  0
  186.9190  176.3530  142.1900 C   0  0  0  0  0  2  0  0  0  0  0  0
  186.3150  178.9710  144.1210 C   0  0  0  0  0  3  0  0  0  0  0  0
  186.5510  177.6000  144.2750 C   0  0  0  0  0  0  0  0  0  0  0  0
  185.8030  176.8670  145.2090 C   0  0  0  0  0  3  0  0  0  0  0  0
  184.1110  176.7950  146.8880 F   0  0  0  0  0  0  0  0  0  0  0  0
  184.6010  178.8750  145.8300 C   0  0  0  0  0  3  0  0  0  0  0  0
  184.8310  177.5050  145.9860 C   0  0  0  0  0  0  0  0  0  0  0  0
  185.3420  179.6080  144.8980 C   0  0  0  0  0  3  0  0  0  0  0  0
  192.4720  175.9340  144.1350 O   0  0  0  0  0  0  0  0  0  0  0  0
  193.7750  175.4190  144.1440 C   0  0  1  0  0  3  0  0  0  0  0  0
  195.6560  176.4150  143.0490 O   0  0  0  0  0  1  0  0  0  0  0  0
  194.4710  175.7150  142.8240 C   0  0  0  0  0  2  0  0  0  0  0  0
  194.5790  175.9790  145.3210 C   0  0  0  0  0  2  0  0  0  0  0  0
  195.2490  174.9140  146.1370 C   0  0  0  0  0  3  0  0  0  0  0  0
  196.3510  174.3890  145.7470 N   0  0  0  0  0  2  0  0  0  0  0  0
  1 20  1  0  0  0  0
  1 13  1  0  0  0  0
  2  6  1  0  0  0  0
  5  2  1  6  0  0  0
  5 17  1  0  0  0  0
  5  7  1  0  0  0  0
  6  4  1  6  0  0  0
  6  9  1  0  0  0  0
  7  3  1  1  0  0  0
  8 12  1  0  0  0  0
  8  4  2  0  0  0  0
  9 13  1  1  0  0  0
  9 17  1  0  0  0  0
 10  1  1  0  0  0  0
 11 16  1  0  0  0  0
 11 23  1  0  0  0  0
 12 16  1  0  0  0  0
 15  3  1  1  0  0  0
 15 21  1  0  0  0  0
 15 14  1  0  0  0  0
 16  2  2  0  0  0  0
 17 22  1  0  0  0  0
 18  4  1  0  0  0  0
 18  1  1  0  0  0  0
 19  7  1  0  0  0  0
 19 25  1  0  0  0  0
 21 14  1  0  0  0  0
 22 21  1  0  0  0  0
 23 19  1  0  0  0  0
 24 25  2  0  0  0  0
 24 30  1  0  0  0  0
 25 26  1  0  0  0  0
 26 29  2  0  0  0  0
 28 29  1  0  0  0  0
 29 27  1  0  0  0  0
 30 28  2  0  0  0  0
 31 32  1  0  0  0  0
 31 22  1  0  0  0  0
 32 35  1  0  0  0  0
 34 33  1  0  0  0  0
 34 32  1  0  0  0  0
 35 36  1  0  0  0  0
 37 36  2  0  0  0  0
M  END
>  <MODEL>
5

>  <REMARK>
 VINA RESULT:      -7.6      1.447      1.675
  Name = 
  6 active torsions:
  status: ('A' for Active; 'I' for Inactive)
    1  A    between atoms: O_1  and  C_4
    2  A    between atoms: O_1  and  C_27
    3  A    between atoms: C_4  and  C_12
    4  A    between atoms: C_4  and  C_37
    5  A    between atoms: C_8  and  C_12
    6  A    between atoms: C_23  and  C_30
                            x       y       z     vdW  Elec       q    Type
                         _______ _______ _______ _____ _____    ______ ____

>  <TORSDO>
F 6

$$$$
=
 OpenBabel11112417193D

 37 43  0  0  1  0  0  0  0  0999 V2000
  195.1830  175.4760  142.8900 C   0  0  0  0  0  0  0  0  0  0  0  0
  191.6670  176.2260  145.1120 C   0  0  0  0  0  0  0  0  0  0  0  0
  188.2680  176.0480  143.0620 C   0  0  0  0  0  2  0  0  0  0  0  0
  194.1380  176.0520  145.0890 C   0  0  0  0  0  0  0  0  0  0  0  0
  190.5880  175.6750  144.2370 C   0  0  1  0  0  3  0  0  0  0  0  0
  192.9040  176.3220  144.3180 C   0  0  1  0  0  3  0  0  0  0  0  0
  189.2710  176.5340  144.1640 C   0  0  2  0  0  3  0  0  0  0  0  0
  194.1150  176.1950  146.5120 N   0  0  0  0  0  2  0  0  0  0  0  0
  192.7610  175.3160  143.2920 N   0  0  2  0  0  0  0  0  0  0  0  0
  195.6790  174.0800  142.5700 C   0  0  0  0  0  1  0  0  0  0  0  0
  190.3730  176.2160  147.2100 C   0  0  0  0  0  2  0  0  0  0  0  0
  192.9220  176.7340  147.1820 C   0  0  0  0  0  2  0  0  0  0  0  0
  193.7580  175.6520  142.2820 C   0  0  0  0  0  2  0  0  0  0  0  0
  188.3470  174.0960  141.3950 O   0  0  0  0  0  0  0  0  0  0  0  0
  188.5810  174.6200  142.6810 C   0  0  1  0  0  3  0  0  0  0  0  0
  191.6480  176.3610  146.4480 C   0  0  0  0  0  0  0  0  0  0  0  0
  191.3720  175.5140  142.8970 C   0  0  1  0  0  3  0  0  0  0  0  0
  195.2270  175.6710  144.4090 C   0  0  0  0  0  3  0  0  0  0  0  0
  188.5300  176.5700  145.5290 C   0  0  1  0  0  3  0  0  0  0  0  0
  196.1130  176.4780  142.2400 C   0  0  0  0  0  1  0  0  0  0  0  0
  189.4730  174.9160  141.5290 C   0  0  1  0  0  3  0  0  0  0  0  0
  190.8400  174.3990  141.9730 C   0  0  2  0  0  3  0  0  0  0  0  0
  189.3380  177.1890  146.6710 C   0  0  0  0  0  2  0  0  0  0  0  0
  187.0680  178.3650  144.5760 C   0  0  0  0  0  3  0  0  0  0  0  0
  187.2090  177.2790  145.4480 C   0  0  0  0  0  0  0  0  0  0  0  0
  186.1160  176.8670  146.2270 C   0  0  0  0  0  3  0  0  0  0  0  0
  183.8410  177.1440  146.8880 F   0  0  0  0  0  0  0  0  0  0  0  0
  184.7600  178.6280  145.2640 C   0  0  0  0  0  3  0  0  0  0  0  0
  184.8950  177.5420  146.1340 C   0  0  0  0  0  0  0  0  0  0  0  0
  185.8460  179.0390  144.4850 C   0  0  0  0  0  3  0  0  0  0  0  0
  190.7940  173.1520  142.6240 O   0  0  0  0  0  0  0  0  0  0  0  0
  191.4120  172.2490  141.7500 C   0  0  1  0  0  3  0  0  0  0  0  0
  190.4420  170.0770  142.0160 O   0  0  0  0  0  1  0  0  0  0  0  0
  190.4020  171.2330  141.2370 C   0  0  0  0  0  2  0  0  0  0  0  0
  192.0850  172.9830  140.5870 C   0  0  0  0  0  2  0  0  0  0  0  0
  193.3420  172.3130  140.1160 C   0  0  0  0  0  3  0  0  0  0  0  0
  194.2170  172.9660  139.4440 N   0  0  0  0  0  2  0  0  0  0  0  0
  1 18  1  0  0  0  0
  2 16  2  0  0  0  0
  4  8  1  0  0  0  0
  5  2  1  1  0  0  0
  6  4  1  1  0  0  0
  6  2  1  0  0  0  0
  7  3  1  6  0  0  0
  7  5  1  0  0  0  0
  7 19  1  0  0  0  0
  8 12  1  0  0  0  0
  9 13  1  6  0  0  0
  9  6  1  0  0  0  0
 10  1  1  0  0  0  0
 13  1  1  0  0  0  0
 14 21  1  0  0  0  0
 14 15  1  0  0  0  0
 15  3  1  6  0  0  0
 16 12  1  0  0  0  0
 16 11  1  0  0  0  0
 17  9  1  0  0  0  0
 17  5  1  0  0  0  0
 18  4  2  0  0  0  0
 19 23  1  0  0  0  0
 20  1  1  0  0  0  0
 21 22  1  0  0  0  0
 21 15  1  0  0  0  0
 22 31  1  0  0  0  0
 22 17  1  0  0  0  0
 23 11  1  0  0  0  0
 24 25  1  0  0  0  0
 25 19  1  0  0  0  0
 25 26  2  0  0  0  0
 28 29  2  0  0  0  0
 29 26  1  0  0  0  0
 29 27  1  0  0  0  0
 30 24  2  0  0  0  0
 30 28  1  0  0  0  0
 32 31  1  0  0  0  0
 34 32  1  0  0  0  0
 34 33  1  0  0  0  0
 35 32  1  0  0  0  0
 36 35  1  0  0  0  0
 37 36  2  0  0  0  0
M  END
>  <MODEL>
6

>  <REMARK>
 VINA RESULT:      -7.5      2.393      5.046
  Name = 
  6 active torsions:
  status: ('A' for Active; 'I' for Inactive)
    1  A    between atoms: O_1  and  C_4
    2  A    between atoms: O_1  and  C_27
    3  A    between atoms: C_4  and  C_12
    4  A    between atoms: C_4  and  C_37
    5  A    between atoms: C_8  and  C_12
    6  A    between atoms: C_23  and  C_30
                            x       y       z     vdW  Elec       q    Type
                         _______ _______ _______ _____ _____    ______ ____

>  <TORSDO>
F 6

$$$$
=
 OpenBabel11112417193D

 37 43  0  0  1  0  0  0  0  0999 V2000
  190.0570  172.2220  138.7510 C   0  0  0  0  0  0  0  0  0  0  0  0
  187.9550  175.4360  140.5160 C   0  0  0  0  0  0  0  0  0  0  0  0
  188.6050  175.9910  144.3950 C   0  0  0  0  0  2  0  0  0  0  0  0
  188.4290  174.1030  138.4820 C   0  0  0  0  0  0  0  0  0  0  0  0
  188.6990  175.6700  141.7900 C   0  0  1  0  0  3  0  0  0  0  0  0
  188.3810  174.1390  139.9610 C   0  0  1  0  0  3  0  0  0  0  0  0
  187.8070  175.9870  143.0470 C   0  0  2  0  0  3  0  0  0  0  0  0
  187.6620  175.0520  137.7370 N   0  0  0  0  0  0  0  0  0  0  0  0
  189.7140  173.9390  140.4800 N   0  0  2  0  0  0  0  0  0  0  0  0
  191.4980  172.3250  138.2930 C   0  0  0  0  0  1  0  0  0  0  0  0
  186.8600  177.6420  140.4090 C   0  0  0  0  0  2  0  0  0  0  0  0
  186.7340  175.9590  138.4290 C   0  0  0  0  0  2  0  0  0  0  0  0
  189.9950  172.5220  140.2800 C   0  0  0  0  0  2  0  0  0  0  0  0
  191.0900  175.6270  144.9330 O   0  0  0  0  0  0  0  0  0  0  0  0
  190.0790  176.1690  144.1160 C   0  0  1  0  0  3  0  0  0  0  0  0
  187.2340  176.3250  139.8140 C   0  0  0  0  0  0  0  0  0  0  0  0
  189.5410  174.3580  141.8650 C   0  0  1  0  0  3  0  0  0  0  0  0
  189.2080  173.1770  137.9070 C   0  0  0  0  0  2  0  0  0  0  0  0
  187.0700  177.3460  142.9020 C   0  0  1  0  0  3  0  0  0  0  0  0
  189.5780  170.8050  138.5170 C   0  0  0  0  0  1  0  0  0  0  0  0
  190.4460  174.7290  144.0740 C   0  0  1  0  0  3  0  0  0  0  0  0
  190.8760  174.4960  142.6270 C   0  0  2  0  0  3  0  0  0  0  0  0
  186.1110  177.4230  141.7130 C   0  0  0  0  0  2  0  0  0  0  0  0
  186.1850  179.0780  144.4790 C   0  0  0  0  0  3  0  0  0  0  0  0
  186.3120  177.7260  144.1430 C   0  0  0  0  0  0  0  0  0  0  0  0
  185.7300  176.7480  144.9650 C   0  0  0  0  0  3  0  0  0  0  0  0
  184.4680  176.1790  146.9060 F   0  0  0  0  0  0  0  0  0  0  0  0
  184.9070  178.4770  146.4460 C   0  0  0  0  0  3  0  0  0  0  0  0
  185.0290  177.1250  146.1140 C   0  0  0  0  0  0  0  0  0  0  0  0
  185.4840  179.4540  145.6290 C   0  0  0  0  0  3  0  0  0  0  0  0
  191.6810  175.5220  142.0990 O   0  0  0  0  0  0  0  0  0  0  0  0
  192.9530  174.9570  141.9400 C   0  0  1  0  0  3  0  0  0  0  0  0
  194.4990  175.0340  140.1150 O   0  0  0  0  0  1  0  0  0  0  0  0
  193.2110  174.6370  140.4750 C   0  0  0  0  0  2  0  0  0  0  0  0
  194.0390  175.8820  142.4950 C   0  0  0  0  0  2  0  0  0  0  0  0
  194.2910  175.6840  143.9600 C   0  0  0  0  0  3  0  0  0  0  0  0
  194.9840  176.5340  144.6240 N   0  0  0  0  0  2  0  0  0  0  0  0
  1 13  1  0  0  0  0
  5  2  1  6  0  0  0
  5 17  1  0  0  0  0
  5  7  1  0  0  0  0
  6  4  1  6  0  0  0
  6  9  1  0  0  0  0
  6  2  1  0  0  0  0
  7  3  1  1  0  0  0
  8 12  1  0  0  0  0
  8  4  2  0  0  0  0
  9 13  1  1  0  0  0
  9 17  1  0  0  0  0
 10  1  1  0  0  0  0
 11 23  1  0  0  0  0
 12 16  1  0  0  0  0
 15  3  1  1  0  0  0
 15 14  1  0  0  0  0
 16 11  1  0  0  0  0
 16  2  2  0  0  0  0
 17 22  1  0  0  0  0
 18  4  1  0  0  0  0
 18  1  1  0  0  0  0
 19  7  1  0  0  0  0
 19 25  1  0  0  0  0
 20  1  1  0  0  0  0
 21 15  1  0  0  0  0
 21 14  1  0  0  0  0
 22 21  1  0  0  0  0
 23 19  1  0  0  0  0
 24 30  1  0  0  0  0
 25 24  2  0  0  0  0
 25 26  1  0  0  0  0
 26 29  2  0  0  0  0
 29 28  1  0  0  0  0
 29 27  1  0  0  0  0
 30 28  2  0  0  0  0
 31 22  1  0  0  0  0
 32 31  1  0  0  0  0
 32 35  1  0  0  0  0
 33 34  1  0  0  0  0
 34 32  1  0  0  0  0
 35 36  1  0  0  0  0
 36 37  2  0  0  0  0
M  END
>  <MODEL>
7

>  <REMARK>
 VINA RESULT:      -7.0      2.065      3.049
  Name = 
  6 active torsions:
  status: ('A' for Active; 'I' for Inactive)
    1  A    between atoms: O_1  and  C_4
    2  A    between atoms: O_1  and  C_27
    3  A    between atoms: C_4  and  C_12
    4  A    between atoms: C_4  and  C_37
    5  A    between atoms: C_8  and  C_12
    6  A    between atoms: C_23  and  C_30
                            x       y       z     vdW  Elec       q    Type
                         _______ _______ _______ _____ _____    ______ ____

>  <TORSDO>
F 6

$$$$
=
 OpenBabel11112417193D

 37 43  0  0  1  0  0  0  0  0999 V2000
  193.8330  175.4750  145.2200 C   0  0  0  0  0  0  0  0  0  0  0  0
  189.7310  176.4290  144.8670 C   0  0  0  0  0  0  0  0  0  0  0  0
  188.0950  175.6920  141.3230 C   0  0  0  0  0  2  0  0  0  0  0  0
  191.7620  176.3880  146.2850 C   0  0  0  0  0  0  0  0  0  0  0  0
  189.3090  175.6680  143.6520 C   0  0  1  0  0  3  0  0  0  0  0  0
  191.2030  176.4450  144.9160 C   0  0  1  0  0  3  0  0  0  0  0  0
  188.3220  176.4260  142.6880 C   0  0  2  0  0  3  0  0  0  0  0  0
  190.9440  176.7890  147.3880 N   0  0  0  0  0  2  0  0  0  0  0  0
  191.6070  175.2600  144.1950 N   0  0  2  0  0  0  0  0  0  0  0  0
  194.3380  174.0740  145.4990 C   0  0  0  0  0  1  0  0  0  0  0  0
  187.4770  176.7340  145.8170 C   0  0  0  0  0  2  0  0  0  0  0  0
  189.6170  177.3760  147.1490 C   0  0  0  0  0  2  0  0  0  0  0  0
  193.0200  175.4590  143.8900 C   0  0  0  0  0  2  0  0  0  0  0  0
  188.9870  173.4740  140.3840 O   0  0  0  0  0  0  0  0  0  0  0  0
  188.4810  174.2370  141.4540 C   0  0  1  0  0  3  0  0  0  0  0  0
  188.9650  176.8050  145.9040 C   0  0  0  0  0  0  0  0  0  0  0  0
  190.7040  175.3070  143.0520 C   0  0  1  0  0  3  0  0  0  0  0  0
  193.0190  175.9490  146.4270 C   0  0  0  0  0  3  0  0  0  0  0  0
  186.9410  176.6720  143.3560 C   0  0  1  0  0  3  0  0  0  0  0  0
  195.0270  176.3900  145.0450 C   0  0  0  0  0  1  0  0  0  0  0  0
  189.8850  174.3650  140.9840 C   0  0  1  0  0  3  0  0  0  0  0  0
  190.7240  174.0130  142.2110 C   0  0  2  0  0  3  0  0  0  0  0  0
  186.9920  177.5340  144.6190 C   0  0  0  0  0  2  0  0  0  0  0  0
  186.3070  177.4830  141.0740 C   0  0  0  0  0  3  0  0  0  0  0  0
  185.9450  177.2810  142.4110 C   0  0  0  0  0  0  0  0  0  0  0  0
  184.6600  177.6440  142.8450 C   0  0  0  0  0  3  0  0  0  0  0  0
  182.5110  178.5590  142.3690 F   0  0  0  0  0  0  0  0  0  0  0  0
  184.1170  178.4110  140.6140 C   0  0  0  0  0  3  0  0  0  0  0  0
  183.7500  178.2090  141.9470 C   0  0  0  0  0  0  0  0  0  0  0  0
  185.3950  178.0480  140.1770 C   0  0  0  0  0  3  0  0  0  0  0  0
  190.2400  172.9070  142.9340 O   0  0  0  0  0  0  0  0  0  0  0  0
  191.1280  171.8600  142.6560 C   0  0  1  0  0  3  0  0  0  0  0  0
  190.6930  169.5670  142.1240 O   0  0  0  0  0  1  0  0  0  0  0  0
  190.4980  170.8760  141.6820 C   0  0  0  0  0  2  0  0  0  0  0  0
  192.4550  172.3940  142.1080 C   0  0  0  0  0  2  0  0  0  0  0  0
  193.6480  171.6400  142.6150 C   0  0  0  0  0  3  0  0  0  0  0  0
  194.1950  170.7270  141.9000 N   0  0  0  0  0  2  0  0  0  0  0  0
  1 10  1  0  0  0  0
  1 18  1  0  0  0  0
  2 16  2  0  0  0  0
  4 18  2  0  0  0  0
  4  8  1  0  0  0  0
  5  2  1  1  0  0  0
  6  2  1  1  0  0  0
  6  4  1  0  0  0  0
  7  3  1  6  0  0  0
  7 19  1  0  0  0  0
  7  5  1  0  0  0  0
  9 13  1  6  0  0  0
  9  6  1  0  0  0  0
 11 16  1  0  0  0  0
 12  8  1  0  0  0  0
 13  1  1  0  0  0  0
 14 21  1  0  0  0  0
 14 15  1  0  0  0  0
 15  3  1  6  0  0  0
 16 12  1  0  0  0  0
 17  5  1  0  0  0  0
 17  9  1  0  0  0  0
 19 23  1  0  0  0  0
 20  1  1  0  0  0  0
 21 15  1  0  0  0  0
 21 22  1  0  0  0  0
 22 31  1  0  0  0  0
 22 17  1  0  0  0  0
 23 11  1  0  0  0  0
 24 25  1  0  0  0  0
 25 26  2  0  0  0  0
 25 19  1  0  0  0  0
 28 29  2  0  0  0  0
 29 27  1  0  0  0  0
 29 26  1  0  0  0  0
 30 28  1  0  0  0  0
 30 24  2  0  0  0  0
 32 31  1  0  0  0  0
 34 33  1  0  0  0  0
 34 32  1  0  0  0  0
 35 36  1  0  0  0  0
 35 32  1  0  0  0  0
 37 36  2  0  0  0  0
M  END
>  <MODEL>
8

>  <REMARK>
 VINA RESULT:      -7.0      2.763      5.364
  Name = 
  6 active torsions:
  status: ('A' for Active; 'I' for Inactive)
    1  A    between atoms: O_1  and  C_4
    2  A    between atoms: O_1  and  C_27
    3  A    between atoms: C_4  and  C_12
    4  A    between atoms: C_4  and  C_37
    5  A    between atoms: C_8  and  C_12
    6  A    between atoms: C_23  and  C_30
                            x       y       z     vdW  Elec       q    Type
                         _______ _______ _______ _____ _____    ______ ____

>  <TORSDO>
F 6

$$$$
=
 OpenBabel11112417193D

 37 43  0  0  1  0  0  0  0  0999 V2000
  186.0430  177.8310  146.4250 C   0  0  0  0  0  0  0  0  0  0  0  0
  189.7560  176.0240  145.5220 C   0  0  0  0  0  0  0  0  0  0  0  0
  189.7560  173.5600  142.4070 C   0  0  0  0  0  2  0  0  0  0  0  0
  188.4620  177.5410  146.9930 C   0  0  0  0  0  0  0  0  0  0  0  0
  189.5670  175.5410  144.1210 C   0  0  1  0  0  3  0  0  0  0  0  0
  188.4370  176.3840  146.0710 C   0  0  1  0  0  3  0  0  0  0  0  0
  190.1780  174.1250  143.8050 C   0  0  2  0  0  3  0  0  0  0  0  0
  189.6920  177.8950  147.6320 N   0  0  0  0  0  2  0  0  0  0  0  0
  187.6380  176.7210  144.9150 N   0  0  2  0  0  0  0  0  0  0  0  0
  185.5210  179.0580  145.7050 C   0  0  0  0  0  1  0  0  0  0  0  0
  192.2210  176.0040  145.5060 C   0  0  0  0  0  2  0  0  0  0  0  0
  190.8770  177.0390  147.4790 C   0  0  0  0  0  2  0  0  0  0  0  0
  186.2570  176.6920  145.3820 C   0  0  0  0  0  2  0  0  0  0  0  0
  188.2990  174.5220  140.5220 O   0  0  0  0  0  0  0  0  0  0  0  0
  189.2770  174.6880  141.5230 C   0  0  1  0  0  3  0  0  0  0  0  0
  190.9090  176.3580  146.1240 C   0  0  0  0  0  0  0  0  0  0  0  0
  188.0160  175.6570  143.9940 C   0  0  1  0  0  3  0  0  0  0  0  0
  187.3190  178.2150  147.1780 C   0  0  0  0  0  3  0  0  0  0  0  0
  191.7290  174.1370  143.8880 C   0  0  1  0  0  3  0  0  0  0  0  0
  185.0000  177.3800  147.4250 C   0  0  0  0  0  1  0  0  0  0  0  0
  187.8280  174.5820  141.8390 C   0  0  1  0  0  3  0  0  0  0  0  0
  187.5060  175.8920  142.5570 C   0  0  2  0  0  3  0  0  0  0  0  0
  192.2870  174.5050  145.2640 C   0  0  0  0  0  2  0  0  0  0  0  0
  193.0500  172.7620  142.2650 C   0  0  0  0  0  3  0  0  0  0  0  0
  192.3380  172.8290  143.4680 C   0  0  0  0  0  0  0  0  0  0  0  0
  192.2070  171.6790  144.2630 C   0  0  0  0  0  3  0  0  0  0  0  0
  192.6550  169.3650  144.6200 F   0  0  0  0  0  0  0  0  0  0  0  0
  193.4910  170.4120  142.6480 C   0  0  0  0  0  3  0  0  0  0  0  0
  192.7820  170.4740  143.8520 C   0  0  0  0  0  0  0  0  0  0  0  0
  193.6250  171.5560  141.8550 C   0  0  0  0  0  3  0  0  0  0  0  0
  188.0950  177.0250  141.9670 O   0  0  0  0  0  0  0  0  0  0  0  0
  187.0410  177.7290  141.3710 C   0  0  1  0  0  3  0  0  0  0  0  0
  185.8050  177.1660  139.4000 O   0  0  0  0  0  1  0  0  0  0  0  0
  187.0670  177.5420  139.8610 C   0  0  0  0  0  2  0  0  0  0  0  0
  185.6920  177.2940  141.9500 C   0  0  0  0  0  2  0  0  0  0  0  0
  184.8040  178.4480  142.3070 C   0  0  0  0  0  3  0  0  0  0  0  0
  183.5350  178.2910  142.4040 N   0  0  0  0  0  2  0  0  0  0  0  0
  1 18  1  0  0  0  0
  1 20  1  0  0  0  0
  2 16  2  0  0  0  0
  4 18  2  0  0  0  0
  4  8  1  0  0  0  0
  5  2  1  1  0  0  0
  6  2  1  6  0  0  0
  6  4  1  0  0  0  0
  7  3  1  6  0  0  0
  7 19  1  0  0  0  0
  7  5  1  0  0  0  0
  9 13  1  1  0  0  0
  9  6  1  0  0  0  0
 10  1  1  0  0  0  0
 11 16  1  0  0  0  0
 12  8  1  0  0  0  0
 13  1  1  0  0  0  0
 14 15  1  0  0  0  0
 14 21  1  0  0  0  0
 15 21  1  0  0  0  0
 15  3  1  1  0  0  0
 16 12  1  0  0  0  0
 17  5  1  0  0  0  0
 17  9  1  0  0  0  0
 19 23  1  0  0  0  0
 21 22  1  0  0  0  0
 22 17  1  0  0  0  0
 23 11  1  0  0  0  0
 24 25  1  0  0  0  0
 25 19  1  0  0  0  0
 25 26  2  0  0  0  0
 28 29  2  0  0  0  0
 29 26  1  0  0  0  0
 29 27  1  0  0  0  0
 30 24  2  0  0  0  0
 30 28  1  0  0  0  0
 31 22  1  0  0  0  0
 32 35  1  0  0  0  0
 32 31  1  0  0  0  0
 33 34  1  0  0  0  0
 34 32  1  0  0  0  0
 35 36  1  0  0  0  0
 36 37  2  0  0  0  0
M  END
>  <MODEL>
9

>  <REMARK>
 VINA RESULT:      -6.9      3.622      8.163
  Name = 
  6 active torsions:
  status: ('A' for Active; 'I' for Inactive)
    1  A    between atoms: O_1  and  C_4
    2  A    between atoms: O_1  and  C_27
    3  A    between atoms: C_4  and  C_12
    4  A    between atoms: C_4  and  C_37
    5  A    between atoms: C_8  and  C_12
    6  A    between atoms: C_23  and  C_30
                            x       y       z     vdW  Elec       q    Type
                         _______ _______ _______ _____ _____    ______ ____

>  <TORSDO>
F 6

$$$$
