=
 OpenBabel11112416563D

 31 35  0  0  1  0  0  0  0  0999 V2000
  185.3550  177.9180  140.9190 C   0  0  0  0  0  0  0  0  0  0  0  0
  187.2480  176.6880  143.9370 C   0  0  0  0  0  0  0  0  0  0  0  0
  186.5050  177.1030  145.0900 C   0  0  0  0  0  0  0  0  0  0  0  0
  184.6020  178.2230  146.1430 C   0  0  0  0  0  0  0  0  0  0  0  0
  186.8630  176.9590  142.5870 C   0  0  0  0  0  0  0  0  0  0  0  0
  186.1740  177.4540  139.8910 C   0  0  0  0  0  3  0  0  0  0  0  0
  185.3040  177.8310  145.0010 C   0  0  0  0  0  3  0  0  0  0  0  0
  189.2210  175.5210  143.0520 C   0  0  0  0  0  0  0  0  0  0  0  0
  184.1990  178.6250  140.6190 O   0  0  0  0  0  1  0  0  0  0  0  0
  188.1600  176.0610  146.5510 C   0  0  0  0  0  3  0  0  0  0  0  0
  183.4200  178.9390  146.0170 O   0  0  0  0  0  1  0  0  0  0  0  0
  188.8170  175.8030  141.7880 N   0  0  0  0  0  0  0  0  0  0  0  0
  188.4530  175.9540  144.1460 C   0  0  0  0  0  0  0  0  0  0  0  0
  190.4310  174.7870  143.2630 N   0  0  0  0  0  2  0  0  0  0  0  0
  185.6990  177.6720  142.2500 C   0  0  0  0  0  3  0  0  0  0  0  0
  185.0880  177.8930  147.4070 C   0  0  0  0  0  3  0  0  0  0  0  0
  187.6840  176.4960  141.5270 C   0  0  0  0  0  0  0  0  0  0  0  0
  187.3360  176.7440  140.1950 C   0  0  0  0  0  3  0  0  0  0  0  0
  188.8870  175.6550  145.4420 C   0  0  0  0  0  3  0  0  0  0  0  0
  186.9820  176.7780  146.3890 C   0  0  0  0  0  0  0  0  0  0  0  0
  186.2740  177.1720  147.5290 C   0  0  0  0  0  3  0  0  0  0  0  0
  191.1160  172.9070  142.0560 O   0  0  0  0  0  1  0  0  0  0  0  0
  191.2560  174.2910  142.1700 C   0  0  2  0  0  3  0  0  0  0  0  0
  195.0520  176.0690  142.8970 C   0  0  0  0  0  0  0  0  0  0  0  0
  193.1770  174.7030  143.7740 C   0  0  0  0  0  2  0  0  0  0  0  0
  193.2040  174.6580  140.1300 O   0  0  0  0  0  0  0  0  0  0  0  0
  196.1590  176.6120  143.1460 O   0  0  0  0  0  0  0  0  0  0  0  0
  194.0090  175.9690  143.9700 C   0  0  0  0  0  2  0  0  0  0  0  0
  193.5260  174.9470  141.3140 C   0  0  0  0  0  0  0  0  0  0  0  0
  192.6530  174.6340  142.4080 N   0  0  0  0  0  0  0  0  0  0  0  0
  194.7640  175.6080  141.5750 N   0  0  0  0  0  2  0  0  0  0  0  0
  1 15  1  0  0  0  0
  2 13  2  0  0  0  0
  2  3  1  0  0  0  0
  3 20  1  0  0  0  0
  4 16  2  0  0  0  0
  5  2  1  0  0  0  0
  6 18  1  0  0  0  0
  6  1  2  0  0  0  0
  7  3  2  0  0  0  0
  7  4  1  0  0  0  0
  8 14  1  0  0  0  0
  8 13  1  0  0  0  0
  9  1  1  0  0  0  0
 11  4  1  0  0  0  0
 12  8  2  0  0  0  0
 13 19  1  0  0  0  0
 15  5  2  0  0  0  0
 16 21  1  0  0  0  0
 17 12  1  0  0  0  0
 17  5  1  0  0  0  0
 18 17  2  0  0  0  0
 19 10  2  0  0  0  0
 20 10  1  0  0  0  0
 20 21  2  0  0  0  0
 23 22  1  1  0  0  0
 23 30  1  0  0  0  0
 23 14  1  0  0  0  0
 24 27  2  0  0  0  0
 24 28  1  0  0  0  0
 25 28  1  0  0  0  0
 26 29  2  0  0  0  0
 29 31  1  0  0  0  0
 29 30  1  0  0  0  0
 30 25  1  0  0  0  0
 31 24  1  0  0  0  0
M  END
>  <MODEL>
1

>  <REMARK>
 VINA RESULT:      -9.1      0.000      0.000
  Name = 
  2 active torsions:
  status: ('A' for Active; 'I' for Inactive)
    1  A    between atoms: C_5  and  N_16
    2  A    between atoms: C_5  and  N_30
                            x       y       z     vdW  Elec       q    Type
                         _______ _______ _______ _____ _____    ______ ____

>  <TORSDO>
F 2

$$$$
=
 OpenBabel11112416563D

 31 35  0  0  1  0  0  0  0  0999 V2000
  185.0880  178.0200  146.8250 C   0  0  0  0  0  0  0  0  0  0  0  0
  186.7960  177.5500  143.4990 C   0  0  0  0  0  0  0  0  0  0  0  0
  185.8040  177.7650  142.4880 C   0  0  0  0  0  0  0  0  0  0  0  0
  183.5210  178.2920  141.7840 C   0  0  0  0  0  0  0  0  0  0  0  0
  186.5510  177.6360  144.9050 C   0  0  0  0  0  0  0  0  0  0  0  0
  186.1490  177.7850  147.6990 C   0  0  0  0  0  3  0  0  0  0  0  0
  184.4670  178.0880  142.7900 C   0  0  0  0  0  3  0  0  0  0  0  0
  189.1340  177.0070  144.0250 C   0  0  0  0  0  0  0  0  0  0  0  0
  183.8310  178.3280  147.3280 O   0  0  0  0  0  1  0  0  0  0  0  0
  187.4600  177.3380  140.7470 C   0  0  0  0  0  3  0  0  0  0  0  0
  182.2120  178.6090  142.1180 O   0  0  0  0  0  1  0  0  0  0  0  0
  188.8540  177.0980  145.3500 N   0  0  0  0  0  0  0  0  0  0  0  0
  188.1200  177.2270  143.0780 C   0  0  0  0  0  0  0  0  0  0  0  0
  190.4620  176.6810  143.6020 N   0  0  0  0  0  2  0  0  0  0  0  0
  185.2900  177.9450  145.4460 C   0  0  0  0  0  3  0  0  0  0  0  0
  183.8910  178.1770  140.4450 C   0  0  0  0  0  3  0  0  0  0  0  0
  187.6170  177.4000  145.8100 C   0  0  0  0  0  0  0  0  0  0  0  0
  187.4100  177.4760  147.1910 C   0  0  0  0  0  3  0  0  0  0  0  0
  188.4290  177.1270  141.7170 C   0  0  0  0  0  3  0  0  0  0  0  0
  186.1590  177.6530  141.1170 C   0  0  0  0  0  0  0  0  0  0  0  0
  185.2070  177.8590  140.1130 C   0  0  0  0  0  3  0  0  0  0  0  0
  192.5470  177.4330  144.3440 O   0  0  0  0  0  1  0  0  0  0  0  0
  191.5590  176.4640  144.5350 C   0  0  2  0  0  3  0  0  0  0  0  0
  192.4540  172.3180  144.2220 C   0  0  0  0  0  0  0  0  0  0  0  0
  191.9860  174.4530  143.0510 C   0  0  0  0  0  2  0  0  0  0  0  0
  193.1420  175.0790  146.4500 O   0  0  0  0  0  0  0  0  0  0  0  0
  192.6870  171.0870  144.1050 O   0  0  0  0  0  0  0  0  0  0  0  0
  191.5440  173.0040  143.2480 C   0  0  0  0  0  2  0  0  0  0  0  0
  192.7780  174.4530  145.4190 C   0  0  0  0  0  0  0  0  0  0  0  0
  192.1200  175.1330  144.3410 N   0  0  0  0  0  0  0  0  0  0  0  0
  193.0050  173.0470  145.3220 N   0  0  0  0  0  2  0  0  0  0  0  0
  1  9  1  0  0  0  0
  1  6  1  0  0  0  0
  2  5  1  0  0  0  0
  3  7  1  0  0  0  0
  3  2  2  0  0  0  0
  4 11  1  0  0  0  0
  4  7  2  0  0  0  0
  5 15  1  0  0  0  0
  5 17  2  0  0  0  0
  8 12  2  0  0  0  0
 10 20  2  0  0  0  0
 10 19  1  0  0  0  0
 12 17  1  0  0  0  0
 13  2  1  0  0  0  0
 13  8  1  0  0  0  0
 14  8  1  0  0  0  0
 14 23  1  0  0  0  0
 15  1  2  0  0  0  0
 16  4  1  0  0  0  0
 17 18  1  0  0  0  0
 18  6  2  0  0  0  0
 19 13  2  0  0  0  0
 20  3  1  0  0  0  0
 21 16  2  0  0  0  0
 21 20  1  0  0  0  0
 23 22  1  6  0  0  0
 24 31  1  0  0  0  0
 25 28  1  0  0  0  0
 25 30  1  0  0  0  0
 27 24  2  0  0  0  0
 28 24  1  0  0  0  0
 29 26  2  0  0  0  0
 30 23  1  0  0  0  0
 30 29  1  0  0  0  0
 31 29  1  0  0  0  0
M  END
>  <MODEL>
2

>  <REMARK>
 VINA RESULT:      -8.7      2.097      4.742
  Name = 
  2 active torsions:
  status: ('A' for Active; 'I' for Inactive)
    1  A    between atoms: C_5  and  N_16
    2  A    between atoms: C_5  and  N_30
                            x       y       z     vdW  Elec       q    Type
                         _______ _______ _______ _____ _____    ______ ____

>  <TORSDO>
F 2

$$$$
=
 OpenBabel11112416563D

 31 35  0  0  1  0  0  0  0  0999 V2000
  184.6320  178.2960  146.3450 C   0  0  0  0  0  0  0  0  0  0  0  0
  187.2180  177.1740  143.8430 C   0  0  0  0  0  0  0  0  0  0  0  0
  186.6460  177.3610  142.5430 C   0  0  0  0  0  0  0  0  0  0  0  0
  184.8170  178.0440  141.0680 C   0  0  0  0  0  0  0  0  0  0  0  0
  186.5530  177.4830  145.0710 C   0  0  0  0  0  0  0  0  0  0  0  0
  185.3090  178.0640  147.5420 C   0  0  0  0  0  3  0  0  0  0  0  0
  185.3500  177.8740  142.3480 C   0  0  0  0  0  3  0  0  0  0  0  0
  189.1520  176.4430  145.1710 C   0  0  0  0  0  0  0  0  0  0  0  0
  183.3440  178.8140  146.3660 O   0  0  0  0  0  1  0  0  0  0  0  0
  188.6830  176.5070  141.5050 C   0  0  0  0  0  3  0  0  0  0  0  0
  183.5360  178.5540  140.9130 O   0  0  0  0  0  1  0  0  0  0  0  0
  188.4810  176.7490  146.3100 N   0  0  0  0  0  0  0  0  0  0  0  0
  188.5400  176.6460  143.9220 C   0  0  0  0  0  0  0  0  0  0  0  0
  190.4780  175.9110  145.2490 N   0  0  0  0  0  2  0  0  0  0  0  0
  185.2500  178.0080  145.1270 C   0  0  0  0  0  3  0  0  0  0  0  0
  185.5730  177.7030  139.9480 C   0  0  0  0  0  3  0  0  0  0  0  0
  187.2250  177.2530  146.2980 C   0  0  0  0  0  0  0  0  0  0  0  0
  186.6030  177.5440  147.5170 C   0  0  0  0  0  3  0  0  0  0  0  0
  189.2470  176.3220  142.7590 C   0  0  0  0  0  3  0  0  0  0  0  0
  187.3980  177.0190  141.3870 C   0  0  0  0  0  0  0  0  0  0  0  0
  186.8600  177.1920  140.1070 C   0  0  0  0  0  3  0  0  0  0  0  0
  191.0510  176.8340  147.3180 O   0  0  0  0  0  1  0  0  0  0  0  0
  191.1730  175.7010  146.5120 C   0  0  2  0  0  3  0  0  0  0  0  0
  195.1630  175.3070  145.0930 C   0  0  0  0  0  0  0  0  0  0  0  0
  193.6190  176.3270  146.7430 C   0  0  0  0  0  2  0  0  0  0  0  0
  192.1500  173.3220  145.2980 O   0  0  0  0  0  0  0  0  0  0  0  0
  196.3460  175.2310  144.6720 O   0  0  0  0  0  0  0  0  0  0  0  0
  194.6480  176.6010  145.6470 C   0  0  0  0  0  2  0  0  0  0  0  0
  192.9680  174.2570  145.5090 C   0  0  0  0  0  0  0  0  0  0  0  0
  192.5800  175.4140  146.2620 N   0  0  0  0  0  0  0  0  0  0  0  0
  194.2920  174.1780  144.9820 N   0  0  0  0  0  2  0  0  0  0  0  0
  1  9  1  0  0  0  0
  1  6  1  0  0  0  0
  2 13  1  0  0  0  0
  2  5  1  0  0  0  0
  3  2  2  0  0  0  0
  4  7  2  0  0  0  0
  5 15  1  0  0  0  0
  5 17  2  0  0  0  0
  7  3  1  0  0  0  0
  8 14  1  0  0  0  0
  8 12  2  0  0  0  0
 10 19  1  0  0  0  0
 11  4  1  0  0  0  0
 13  8  1  0  0  0  0
 14 23  1  0  0  0  0
 15  1  2  0  0  0  0
 16 21  2  0  0  0  0
 16  4  1  0  0  0  0
 17 12  1  0  0  0  0
 17 18  1  0  0  0  0
 18  6  2  0  0  0  0
 19 13  2  0  0  0  0
 20 10  2  0  0  0  0
 20  3  1  0  0  0  0
 21 20  1  0  0  0  0
 23 22  1  1  0  0  0
 24 28  1  0  0  0  0
 26 29  2  0  0  0  0
 27 24  2  0  0  0  0
 28 25  1  0  0  0  0
 29 30  1  0  0  0  0
 30 23  1  0  0  0  0
 30 25  1  0  0  0  0
 31 24  1  0  0  0  0
 31 29  1  0  0  0  0
M  END
>  <MODEL>
3

>  <REMARK>
 VINA RESULT:      -8.3      2.093      4.586
  Name = 
  2 active torsions:
  status: ('A' for Active; 'I' for Inactive)
    1  A    between atoms: C_5  and  N_16
    2  A    between atoms: C_5  and  N_30
                            x       y       z     vdW  Elec       q    Type
                         _______ _______ _______ _____ _____    ______ ____

>  <TORSDO>
F 2

$$$$
=
 OpenBabel11112416563D

 31 35  0  0  1  0  0  0  0  0999 V2000
  188.5790  174.5200  140.4990 C   0  0  0  0  0  0  0  0  0  0  0  0
  187.8320  176.3450  143.7100 C   0  0  0  0  0  0  0  0  0  0  0  0
  186.6740  177.1550  143.4680 C   0  0  0  0  0  0  0  0  0  0  0  0
  184.8900  177.9880  142.0170 C   0  0  0  0  0  0  0  0  0  0  0  0
  188.4410  175.4930  142.7370 C   0  0  0  0  0  0  0  0  0  0  0  0
  189.7050  173.7870  140.8720 C   0  0  0  0  0  3  0  0  0  0  0  0
  186.0160  177.1890  142.2240 C   0  0  0  0  0  3  0  0  0  0  0  0
  189.5530  175.6160  145.3040 C   0  0  0  0  0  0  0  0  0  0  0  0
  188.0770  174.4130  139.2090 O   0  0  0  0  0  1  0  0  0  0  0  0
  186.7520  177.9820  145.7630 C   0  0  0  0  0  3  0  0  0  0  0  0
  184.2650  177.9970  140.7780 O   0  0  0  0  0  1  0  0  0  0  0  0
  190.0980  174.8230  144.3470 N   0  0  0  0  0  0  0  0  0  0  0  0
  188.4190  176.3900  145.0100 C   0  0  0  0  0  0  0  0  0  0  0  0
  190.1440  175.6630  146.6070 N   0  0  0  0  0  2  0  0  0  0  0  0
  187.9570  175.3620  141.4220 C   0  0  0  0  0  3  0  0  0  0  0  0
  184.3940  178.7770  143.0540 C   0  0  0  0  0  3  0  0  0  0  0  0
  189.5860  174.7400  143.0970 C   0  0  0  0  0  0  0  0  0  0  0  0
  190.2060  173.8970  142.1680 C   0  0  0  0  0  3  0  0  0  0  0  0
  187.8730  177.2030  146.0090 C   0  0  0  0  0  3  0  0  0  0  0  0
  186.1520  177.9670  144.5100 C   0  0  0  0  0  0  0  0  0  0  0  0
  185.0240  178.7650  144.2970 C   0  0  0  0  0  3  0  0  0  0  0  0
  191.5780  175.0260  148.3390 O   0  0  0  0  0  1  0  0  0  0  0  0
  191.3050  174.8670  146.9790 C   0  0  2  0  0  3  0  0  0  0  0  0
  194.1410  176.0450  144.0360 C   0  0  0  0  0  0  0  0  0  0  0  0
  192.7590  176.6940  145.9900 C   0  0  0  0  0  2  0  0  0  0  0  0
  193.2390  173.0830  145.8990 O   0  0  0  0  0  0  0  0  0  0  0  0
  194.9570  176.4250  143.1560 O   0  0  0  0  0  0  0  0  0  0  0  0
  193.0760  176.9810  144.5230 C   0  0  0  0  0  2  0  0  0  0  0  0
  193.2970  174.2950  145.5580 C   0  0  0  0  0  0  0  0  0  0  0  0
  192.4600  175.2750  146.1870 N   0  0  0  0  0  0  0  0  0  0  0  0
  194.1910  174.7020  144.5230 N   0  0  0  0  0  2  0  0  0  0  0  0
  1  6  2  0  0  0  0
  1 15  1  0  0  0  0
  2 13  1  0  0  0  0
  3  2  2  0  0  0  0
  3 20  1  0  0  0  0
  4  7  2  0  0  0  0
  4 16  1  0  0  0  0
  5 17  1  0  0  0  0
  5  2  1  0  0  0  0
  6 18  1  0  0  0  0
  7  3  1  0  0  0  0
  8 14  1  0  0  0  0
  9  1  1  0  0  0  0
 10 19  1  0  0  0  0
 11  4  1  0  0  0  0
 12  8  2  0  0  0  0
 13  8  1  0  0  0  0
 13 19  2  0  0  0  0
 14 23  1  0  0  0  0
 15  5  2  0  0  0  0
 16 21  2  0  0  0  0
 17 12  1  0  0  0  0
 18 17  2  0  0  0  0
 20 10  2  0  0  0  0
 21 20  1  0  0  0  0
 23 22  1  1  0  0  0
 24 31  1  0  0  0  0
 24 28  1  0  0  0  0
 25 30  1  0  0  0  0
 27 24  2  0  0  0  0
 28 25  1  0  0  0  0
 29 26  2  0  0  0  0
 29 30  1  0  0  0  0
 30 23  1  0  0  0  0
 31 29  1  0  0  0  0
M  END
>  <MODEL>
4

>  <REMARK>
 VINA RESULT:      -8.2      2.308      3.707
  Name = 
  2 active torsions:
  status: ('A' for Active; 'I' for Inactive)
    1  A    between atoms: C_5  and  N_16
    2  A    between atoms: C_5  and  N_30
                            x       y       z     vdW  Elec       q    Type
                         _______ _______ _______ _____ _____    ______ ____

>  <TORSDO>
F 2

$$$$
=
 OpenBabel11112416563D

 31 35  0  0  1  0  0  0  0  0999 V2000
  191.1900  176.7980  147.6800 C   0  0  0  0  0  0  0  0  0  0  0  0
  188.8390  176.2140  144.7940 C   0  0  0  0  0  0  0  0  0  0  0  0
  187.5980  176.8460  145.1350 C   0  0  0  0  0  0  0  0  0  0  0  0
  186.1800  178.1370  146.6540 C   0  0  0  0  0  0  0  0  0  0  0  0
  189.9980  176.2060  145.6300 C   0  0  0  0  0  0  0  0  0  0  0  0
  192.3330  176.1430  147.2230 C   0  0  0  0  0  3  0  0  0  0  0  0
  187.4010  177.5310  146.3480 C   0  0  0  0  0  3  0  0  0  0  0  0
  190.1170  174.9120  143.1500 C   0  0  0  0  0  0  0  0  0  0  0  0
  191.1980  177.4210  148.9210 O   0  0  0  0  0  1  0  0  0  0  0  0
  186.6320  176.1330  143.0100 C   0  0  0  0  0  3  0  0  0  0  0  0
  186.0210  178.8050  147.8600 O   0  0  0  0  0  1  0  0  0  0  0  0
  191.1930  174.9290  143.9770 N   0  0  0  0  0  0  0  0  0  0  0  0
  188.9260  175.5470  143.5360 C   0  0  0  0  0  0  0  0  0  0  0  0
  190.2040  174.2410  141.8880 N   0  0  0  0  0  2  0  0  0  0  0  0
  190.0390  176.8270  146.8910 C   0  0  0  0  0  3  0  0  0  0  0  0
  185.1230  178.0710  145.7480 C   0  0  0  0  0  3  0  0  0  0  0  0
  191.1700  175.5450  145.1820 C   0  0  0  0  0  0  0  0  0  0  0  0
  192.3210  175.5180  145.9760 C   0  0  0  0  0  3  0  0  0  0  0  0
  187.8270  175.5170  142.6700 C   0  0  0  0  0  3  0  0  0  0  0  0
  186.5070  176.7920  144.2260 C   0  0  0  0  0  0  0  0  0  0  0  0
  185.2870  177.4000  144.5370 C   0  0  0  0  0  3  0  0  0  0  0  0
  192.3500  174.5410  141.0120 O   0  0  0  0  0  1  0  0  0  0  0  0
  191.4180  173.5850  141.4220 C   0  0  2  0  0  3  0  0  0  0  0  0
  189.8220  170.7930  138.6380 C   0  0  0  0  0  0  0  0  0  0  0  0
  190.3170  173.1620  139.1770 C   0  0  0  0  0  2  0  0  0  0  0  0
  192.4050  170.9300  141.1620 O   0  0  0  0  0  0  0  0  0  0  0  0
  189.3160  169.9890  137.8120 O   0  0  0  0  0  0  0  0  0  0  0  0
  189.2250  172.1570  138.8170 C   0  0  0  0  0  2  0  0  0  0  0  0
  191.5250  171.3170  140.3460 C   0  0  0  0  0  0  0  0  0  0  0  0
  191.1040  172.6870  140.3170 N   0  0  0  0  0  0  0  0  0  0  0  0
  190.9240  170.3820  139.4500 N   0  0  0  0  0  2  0  0  0  0  0  0
  1  9  1  0  0  0  0
  2  3  1  0  0  0  0
  2  5  1  0  0  0  0
  3  7  1  0  0  0  0
  4 11  1  0  0  0  0
  5 15  1  0  0  0  0
  6  1  1  0  0  0  0
  7  4  2  0  0  0  0
  8 13  1  0  0  0  0
  8 12  2  0  0  0  0
 10 20  1  0  0  0  0
 12 17  1  0  0  0  0
 13  2  2  0  0  0  0
 14  8  1  0  0  0  0
 15  1  2  0  0  0  0
 16  4  1  0  0  0  0
 17  5  2  0  0  0  0
 17 18  1  0  0  0  0
 18  6  2  0  0  0  0
 19 10  2  0  0  0  0
 19 13  1  0  0  0  0
 20 21  1  0  0  0  0
 20  3  2  0  0  0  0
 21 16  2  0  0  0  0
 23 22  1  6  0  0  0
 23 14  1  0  0  0  0
 24 28  1  0  0  0  0
 24 31  1  0  0  0  0
 25 30  1  0  0  0  0
 27 24  2  0  0  0  0
 28 25  1  0  0  0  0
 29 26  2  0  0  0  0
 30 29  1  0  0  0  0
 30 23  1  0  0  0  0
 31 29  1  0  0  0  0
M  END
>  <MODEL>
5

>  <REMARK>
 VINA RESULT:      -8.1      2.970      5.409
  Name = 
  2 active torsions:
  status: ('A' for Active; 'I' for Inactive)
    1  A    between atoms: C_5  and  N_16
    2  A    between atoms: C_5  and  N_30
                            x       y       z     vdW  Elec       q    Type
                         _______ _______ _______ _____ _____    ______ ____

>  <TORSDO>
F 2

$$$$
=
 OpenBabel11112416563D

 31 35  0  0  1  0  0  0  0  0999 V2000
  185.5720  177.3340  146.7150 C   0  0  0  0  0  0  0  0  0  0  0  0
  186.5690  177.1080  143.0880 C   0  0  0  0  0  0  0  0  0  0  0  0
  185.4600  177.5930  142.3210 C   0  0  0  0  0  0  0  0  0  0  0  0
  183.2000  178.5130  142.1400 C   0  0  0  0  0  0  0  0  0  0  0  0
  186.5930  177.0300  144.5150 C   0  0  0  0  0  0  0  0  0  0  0  0
  186.7210  176.8400  147.3330 C   0  0  0  0  0  3  0  0  0  0  0  0
  184.2660  178.0460  142.9130 C   0  0  0  0  0  3  0  0  0  0  0  0
  188.8480  176.1900  143.0820 C   0  0  0  0  0  0  0  0  0  0  0  0
  184.4890  177.7340  147.4850 O   0  0  0  0  0  1  0  0  0  0  0  0
  186.6930  177.1960  140.2530 C   0  0  0  0  0  3  0  0  0  0  0  0
  182.0370  178.9520  142.7570 O   0  0  0  0  0  1  0  0  0  0  0  0
  188.8250  176.1330  144.4370 N   0  0  0  0  0  0  0  0  0  0  0  0
  187.7300  176.6740  142.3820 C   0  0  0  0  0  0  0  0  0  0  0  0
  190.0120  175.7520  142.3730 N   0  0  0  0  0  2  0  0  0  0  0  0
  185.5130  177.4260  145.3240 C   0  0  0  0  0  3  0  0  0  0  0  0
  183.3050  178.5370  140.7510 C   0  0  0  0  0  3  0  0  0  0  0  0
  187.7520  176.5290  145.1610 C   0  0  0  0  0  0  0  0  0  0  0  0
  187.8080  176.4390  146.5560 C   0  0  0  0  0  3  0  0  0  0  0  0
  187.7730  176.7240  140.9840 C   0  0  0  0  0  3  0  0  0  0  0  0
  185.5440  177.6270  140.9040 C   0  0  0  0  0  0  0  0  0  0  0  0
  184.4740  178.0960  140.1340 C   0  0  0  0  0  3  0  0  0  0  0  0
  192.3370  175.9160  142.5420 O   0  0  0  0  0  1  0  0  0  0  0  0
  191.2090  175.2640  143.0430 C   0  0  2  0  0  3  0  0  0  0  0  0
  190.7780  171.1050  142.2580 C   0  0  0  0  0  0  0  0  0  0  0  0
  191.7150  173.2860  141.5390 C   0  0  0  0  0  2  0  0  0  0  0  0
  190.9750  173.3200  145.1070 O   0  0  0  0  0  0  0  0  0  0  0  0
  190.6380  169.8840  141.9890 O   0  0  0  0  0  0  0  0  0  0  0  0
  190.8090  172.1170  141.1530 C   0  0  0  0  0  2  0  0  0  0  0  0
  191.0530  172.9130  143.9170 C   0  0  0  0  0  0  0  0  0  0  0  0
  191.3350  173.8240  142.8460 N   0  0  0  0  0  0  0  0  0  0  0  0
  190.8410  171.5320  143.6210 N   0  0  0  0  0  2  0  0  0  0  0  0
  1  6  1  0  0  0  0
  1  9  1  0  0  0  0
  2  5  1  0  0  0  0
  3  7  1  0  0  0  0
  3  2  2  0  0  0  0
  4 11  1  0  0  0  0
  4  7  2  0  0  0  0
  5 17  2  0  0  0  0
  5 15  1  0  0  0  0
  8 12  2  0  0  0  0
 10 20  2  0  0  0  0
 10 19  1  0  0  0  0
 12 17  1  0  0  0  0
 13  8  1  0  0  0  0
 13  2  1  0  0  0  0
 14 23  1  0  0  0  0
 14  8  1  0  0  0  0
 15  1  2  0  0  0  0
 16  4  1  0  0  0  0
 17 18  1  0  0  0  0
 18  6  2  0  0  0  0
 19 13  2  0  0  0  0
 20  3  1  0  0  0  0
 21 16  2  0  0  0  0
 21 20  1  0  0  0  0
 23 22  1  6  0  0  0
 24 31  1  0  0  0  0
 25 30  1  0  0  0  0
 27 24  2  0  0  0  0
 28 25  1  0  0  0  0
 28 24  1  0  0  0  0
 29 26  2  0  0  0  0
 30 23  1  0  0  0  0
 30 29  1  0  0  0  0
 31 29  1  0  0  0  0
M  END
>  <MODEL>
6

>  <REMARK>
 VINA RESULT:      -8.1      1.960      4.862
  Name = 
  2 active torsions:
  status: ('A' for Active; 'I' for Inactive)
    1  A    between atoms: C_5  and  N_16
    2  A    between atoms: C_5  and  N_30
                            x       y       z     vdW  Elec       q    Type
                         _______ _______ _______ _____ _____    ______ ____

>  <TORSDO>
F 2

$$$$
=
 OpenBabel11112416563D

 31 35  0  0  1  0  0  0  0  0999 V2000
  188.5740  174.5090  139.8570 C   0  0  0  0  0  0  0  0  0  0  0  0
  189.0980  175.2150  143.5220 C   0  0  0  0  0  0  0  0  0  0  0  0
  187.9630  175.9690  143.9660 C   0  0  0  0  0  0  0  0  0  0  0  0
  185.8100  177.0620  143.5700 C   0  0  0  0  0  0  0  0  0  0  0  0
  189.2840  174.7460  142.1840 C   0  0  0  0  0  0  0  0  0  0  0  0
  189.7290  173.7850  139.5630 C   0  0  0  0  0  3  0  0  0  0  0  0
  186.9040  176.3260  143.1100 C   0  0  0  0  0  3  0  0  0  0  0  0
  191.2460  174.1720  144.0980 C   0  0  0  0  0  0  0  0  0  0  0  0
  187.6400  174.7580  138.8610 O   0  0  0  0  0  1  0  0  0  0  0  0
  188.8890  176.0670  146.2220 C   0  0  0  0  0  3  0  0  0  0  0  0
  184.7840  177.3970  142.6990 O   0  0  0  0  0  1  0  0  0  0  0  0
  191.3810  173.7490  142.8160 N   0  0  0  0  0  0  0  0  0  0  0  0
  190.1120  174.9090  144.4770 C   0  0  0  0  0  0  0  0  0  0  0  0
  192.2660  173.8680  145.0560 N   0  0  0  0  0  2  0  0  0  0  0  0
  188.3570  174.9820  141.1530 C   0  0  0  0  0  3  0  0  0  0  0  0
  185.7500  177.4600  144.9050 C   0  0  0  0  0  3  0  0  0  0  0  0
  190.4530  174.0090  141.8660 C   0  0  0  0  0  0  0  0  0  0  0  0
  190.6650  173.5360  140.5660 C   0  0  0  0  0  3  0  0  0  0  0  0
  189.9920  175.3380  145.8030 C   0  0  0  0  0  3  0  0  0  0  0  0
  187.8800  176.3850  145.3220 C   0  0  0  0  0  0  0  0  0  0  0  0
  186.7830  177.1220  145.7780 C   0  0  0  0  0  3  0  0  0  0  0  0
  193.7670  172.2330  145.7860 O   0  0  0  0  0  1  0  0  0  0  0  0
  193.4520  173.0890  144.7290 C   0  0  2  0  0  3  0  0  0  0  0  0
  196.1410  176.1950  143.6290 C   0  0  0  0  0  0  0  0  0  0  0  0
  194.9890  174.9720  145.4520 C   0  0  0  0  0  2  0  0  0  0  0  0
  195.1150  172.9450  142.4260 O   0  0  0  0  0  0  0  0  0  0  0  0
  196.9160  177.1390  143.3260 O   0  0  0  0  0  0  0  0  0  0  0  0
  195.2120  176.3340  144.7970 C   0  0  0  0  0  2  0  0  0  0  0  0
  195.2600  173.9290  143.2000 C   0  0  0  0  0  0  0  0  0  0  0  0
  194.5720  173.9810  144.4580 N   0  0  0  0  0  0  0  0  0  0  0  0
  196.1030  175.0170  142.8200 N   0  0  0  0  0  2  0  0  0  0  0  0
  1 15  1  0  0  0  0
  2  3  2  0  0  0  0
  2 13  1  0  0  0  0
  3 20  1  0  0  0  0
  4 16  1  0  0  0  0
  5  2  1  0  0  0  0
  6  1  2  0  0  0  0
  6 18  1  0  0  0  0
  7  4  2  0  0  0  0
  7  3  1  0  0  0  0
  8 13  1  0  0  0  0
  8 14  1  0  0  0  0
  9  1  1  0  0  0  0
 11  4  1  0  0  0  0
 12  8  2  0  0  0  0
 13 19  2  0  0  0  0
 15  5  2  0  0  0  0
 16 21  2  0  0  0  0
 17  5  1  0  0  0  0
 17 12  1  0  0  0  0
 18 17  2  0  0  0  0
 19 10  1  0  0  0  0
 20 21  1  0  0  0  0
 20 10  2  0  0  0  0
 23 14  1  0  0  0  0
 23 22  1  1  0  0  0
 24 28  1  0  0  0  0
 26 29  2  0  0  0  0
 27 24  2  0  0  0  0
 28 25  1  0  0  0  0
 29 30  1  0  0  0  0
 30 23  1  0  0  0  0
 30 25  1  0  0  0  0
 31 29  1  0  0  0  0
 31 24  1  0  0  0  0
M  END
>  <MODEL>
7

>  <REMARK>
 VINA RESULT:      -7.9      2.150      3.142
  Name = 
  2 active torsions:
  status: ('A' for Active; 'I' for Inactive)
    1  A    between atoms: C_5  and  N_16
    2  A    between atoms: C_5  and  N_30
                            x       y       z     vdW  Elec       q    Type
                         _______ _______ _______ _____ _____    ______ ____

>  <TORSDO>
F 2

$$$$
=
 OpenBabel11112416563D

 31 35  0  0  1  0  0  0  0  0999 V2000
  191.0540  176.7370  146.8420 C   0  0  0  0  0  0  0  0  0  0  0  0
  187.9440  176.7370  144.7130 C   0  0  0  0  0  0  0  0  0  0  0  0
  186.9200  177.3880  145.4750 C   0  0  0  0  0  0  0  0  0  0  0  0
  186.1220  178.5270  147.4880 C   0  0  0  0  0  0  0  0  0  0  0  0
  189.2840  176.5320  145.1690 C   0  0  0  0  0  0  0  0  0  0  0  0
  191.9500  176.0860  145.9950 C   0  0  0  0  0  3  0  0  0  0  0  0
  187.1400  177.8970  146.7690 C   0  0  0  0  0  3  0  0  0  0  0  0
  188.5730  175.6150  142.6200 C   0  0  0  0  0  0  0  0  0  0  0  0
  191.4720  177.1670  148.0940 O   0  0  0  0  0  1  0  0  0  0  0  0
  185.3320  177.0600  143.6510 C   0  0  0  0  0  3  0  0  0  0  0  0
  186.3750  179.0170  148.7620 O   0  0  0  0  0  1  0  0  0  0  0  0
  189.8320  175.4410  143.0950 N   0  0  0  0  0  0  0  0  0  0  0  0
  187.6080  176.2600  143.4120 C   0  0  0  0  0  0  0  0  0  0  0  0
  188.2350  175.1340  141.3150 N   0  0  0  0  0  2  0  0  0  0  0  0
  189.7380  176.9550  146.4310 C   0  0  0  0  0  3  0  0  0  0  0  0
  184.8540  178.6630  146.9270 C   0  0  0  0  0  3  0  0  0  0  0  0
  190.2090  175.8710  144.3220 C   0  0  0  0  0  0  0  0  0  0  0  0
  191.5270  175.6550  144.7380 C   0  0  0  0  0  3  0  0  0  0  0  0
  186.3150  176.4280  142.9050 C   0  0  0  0  0  3  0  0  0  0  0  0
  185.6190  177.5380  144.9230 C   0  0  0  0  0  0  0  0  0  0  0  0
  184.6040  178.1700  145.6480 C   0  0  0  0  0  3  0  0  0  0  0  0
  188.5650  174.0560  139.2680 O   0  0  0  0  0  1  0  0  0  0  0  0
  189.1960  174.4790  140.4390 C   0  0  2  0  0  3  0  0  0  0  0  0
  190.9070  171.6400  143.1060 C   0  0  0  0  0  0  0  0  0  0  0  0
  188.9480  172.3190  141.7450 C   0  0  0  0  0  2  0  0  0  0  0  0
  191.9830  173.9160  140.5130 O   0  0  0  0  0  0  0  0  0  0  0  0
  191.3800  170.8040  143.9170 O   0  0  0  0  0  0  0  0  0  0  0  0
  189.4480  171.9830  143.1480 C   0  0  0  0  0  2  0  0  0  0  0  0
  191.2200  173.2200  141.2340 C   0  0  0  0  0  0  0  0  0  0  0  0
  189.7950  173.3400  141.1240 N   0  0  0  0  0  0  0  0  0  0  0  0
  191.7730  172.3110  142.1860 N   0  0  0  0  0  2  0  0  0  0  0  0
  1  9  1  0  0  0  0
  2  5  1  0  0  0  0
  2  3  1  0  0  0  0
  3  7  1  0  0  0  0
  4 11  1  0  0  0  0
  5 15  2  0  0  0  0
  6  1  2  0  0  0  0
  7  4  2  0  0  0  0
  8 12  2  0  0  0  0
  8 13  1  0  0  0  0
 10 20  1  0  0  0  0
 12 17  1  0  0  0  0
 13  2  2  0  0  0  0
 14  8  1  0  0  0  0
 15  1  1  0  0  0  0
 16  4  1  0  0  0  0
 17 18  2  0  0  0  0
 17  5  1  0  0  0  0
 18  6  1  0  0  0  0
 19 13  1  0  0  0  0
 19 10  2  0  0  0  0
 20  3  2  0  0  0  0
 20 21  1  0  0  0  0
 21 16  2  0  0  0  0
 23 22  1  6  0  0  0
 23 30  1  0  0  0  0
 23 14  1  0  0  0  0
 24 28  1  0  0  0  0
 24 27  2  0  0  0  0
 25 28  1  0  0  0  0
 26 29  2  0  0  0  0
 29 31  1  0  0  0  0
 30 29  1  0  0  0  0
 30 25  1  0  0  0  0
 31 24  1  0  0  0  0
M  END
>  <MODEL>
8

>  <REMARK>
 VINA RESULT:      -7.9      2.571      4.626
  Name = 
  2 active torsions:
  status: ('A' for Active; 'I' for Inactive)
    1  A    between atoms: C_5  and  N_16
    2  A    between atoms: C_5  and  N_30
                            x       y       z     vdW  Elec       q    Type
                         _______ _______ _______ _____ _____    ______ ____

>  <TORSDO>
F 2

$$$$
=
 OpenBabel11112416563D

 31 35  0  0  1  0  0  0  0  0999 V2000
  186.2950  178.7830  143.8480 C   0  0  0  0  0  0  0  0  0  0  0  0
  189.0220  176.1820  143.8300 C   0  0  0  0  0  0  0  0  0  0  0  0
  189.7190  176.3020  145.0770 C   0  0  0  0  0  0  0  0  0  0  0  0
  190.0650  177.3450  147.2630 C   0  0  0  0  0  0  0  0  0  0  0  0
  187.9110  176.9950  143.4430 C   0  0  0  0  0  0  0  0  0  0  0  0
  185.7120  178.5580  142.6020 C   0  0  0  0  0  3  0  0  0  0  0  0
  189.3680  177.2500  146.0570 C   0  0  0  0  0  3  0  0  0  0  0  0
  188.8190  175.0220  141.6740 C   0  0  0  0  0  0  0  0  0  0  0  0
  185.7960  179.7780  144.6780 O   0  0  0  0  0  1  0  0  0  0  0  0
  191.2130  174.4820  144.4370 C   0  0  0  0  0  3  0  0  0  0  0  0
  189.6920  178.2910  148.2070 O   0  0  0  0  0  1  0  0  0  0  0  0
  187.7690  175.8180  141.3490 N   0  0  0  0  0  0  0  0  0  0  0  0
  189.4650  175.1850  142.9110 C   0  0  0  0  0  0  0  0  0  0  0  0
  189.2640  174.0240  140.7510 N   0  0  0  0  0  2  0  0  0  0  0  0
  187.3820  178.0100  144.2600 C   0  0  0  0  0  3  0  0  0  0  0  0
  191.1350  176.4890  147.5180 C   0  0  0  0  0  3  0  0  0  0  0  0
  187.3040  176.7800  142.1800 C   0  0  0  0  0  0  0  0  0  0  0  0
  186.2160  177.5580  141.7710 C   0  0  0  0  0  3  0  0  0  0  0  0
  190.5470  174.3560  143.2270 C   0  0  0  0  0  3  0  0  0  0  0  0
  190.8120  175.4410  145.3590 C   0  0  0  0  0  0  0  0  0  0  0  0
  191.5070  175.5390  146.5680 C   0  0  0  0  0  3  0  0  0  0  0  0
  187.8170  172.6520  139.5320 O   0  0  0  0  0  1  0  0  0  0  0  0
  188.6210  173.7910  139.4650 C   0  0  2  0  0  3  0  0  0  0  0  0
  191.8620  174.0370  136.7210 C   0  0  0  0  0  0  0  0  0  0  0  0
  190.8890  172.9350  138.7180 C   0  0  0  0  0  2  0  0  0  0  0  0
  188.2850  174.5490  136.7440 O   0  0  0  0  0  0  0  0  0  0  0  0
  192.8460  174.1120  135.9400 O   0  0  0  0  0  0  0  0  0  0  0  0
  192.0780  173.7210  138.1700 C   0  0  0  0  0  2  0  0  0  0  0  0
  189.4290  174.1770  137.1170 C   0  0  0  0  0  0  0  0  0  0  0  0
  189.6320  173.6280  138.4270 N   0  0  0  0  0  0  0  0  0  0  0  0
  190.5450  174.3160  136.2380 N   0  0  0  0  0  2  0  0  0  0  0  0
  1 15  1  0  0  0  0
  1  9  1  0  0  0  0
  2  3  1  0  0  0  0
  3 20  2  0  0  0  0
  3  7  1  0  0  0  0
  4 16  1  0  0  0  0
  4 11  1  0  0  0  0
  5  2  1  0  0  0  0
  5 15  2  0  0  0  0
  6  1  2  0  0  0  0
  7  4  2  0  0  0  0
  8 13  1  0  0  0  0
 10 20  1  0  0  0  0
 12  8  2  0  0  0  0
 12 17  1  0  0  0  0
 13 19  1  0  0  0  0
 13  2  2  0  0  0  0
 14  8  1  0  0  0  0
 17  5  1  0  0  0  0
 18 17  2  0  0  0  0
 18  6  1  0  0  0  0
 19 10  2  0  0  0  0
 20 21  1  0  0  0  0
 21 16  2  0  0  0  0
 23 22  1  1  0  0  0
 23 14  1  0  0  0  0
 24 28  1  0  0  0  0
 26 29  2  0  0  0  0
 27 24  2  0  0  0  0
 28 25  1  0  0  0  0
 29 30  1  0  0  0  0
 30 25  1  0  0  0  0
 30 23  1  0  0  0  0
 31 24  1  0  0  0  0
 31 29  1  0  0  0  0
M  END
>  <MODEL>
9

>  <REMARK>
 VINA RESULT:      -7.8      3.183      4.628
  Name = 
  2 active torsions:
  status: ('A' for Active; 'I' for Inactive)
    1  A    between atoms: C_5  and  N_16
    2  A    between atoms: C_5  and  N_30
                            x       y       z     vdW  Elec       q    Type
                         _______ _______ _______ _____ _____    ______ ____

>  <TORSDO>
F 2

$$$$
