=
 OpenBabel11112416323D

 32 37  0  0  1  0  0  0  0  0999 V2000
  192.3800  171.7390  142.0750 C   0  0  0  0  0  2  0  0  0  0  0  0
  189.6980  176.7130  142.7750 C   0  0  1  0  0  3  0  0  0  0  0  0
  191.9460  175.6660  146.8970 C   0  0  0  0  0  2  0  0  0  0  0  0
  190.8870  176.3620  147.7480 C   0  0  0  0  0  2  0  0  0  0  0  0
  187.3690  177.7290  142.7900 C   0  0  0  0  0  0  0  0  0  0  0  0
  186.3220  178.2650  143.5350 C   0  0  0  0  0  0  0  0  0  0  0  0
  190.5640  174.5890  141.7880 C   0  0  1  0  0  3  0  0  0  0  0  0
  192.0660  176.2950  142.8000 C   0  0  0  0  0  2  0  0  0  0  0  0
  185.1840  179.0180  145.4360 C   0  0  1  0  0  3  0  0  0  0  0  0
  193.0550  174.1650  141.9290 C   0  0  0  0  0  2  0  0  0  0  0  0
  192.0800  176.3890  145.5600 C   0  0  0  0  0  2  0  0  0  0  0  0
  190.9480  176.9180  143.5440 N   0  0  2  0  0  0  0  0  0  0  0  0
  190.7970  176.3450  144.8400 N   0  0  2  0  0  0  0  0  0  0  0  0
  188.5920  177.4910  144.8910 C   0  0  0  0  0  0  0  0  0  0  0  0
  184.3250  179.2140  144.1660 C   0  0  0  0  0  2  0  0  0  0  0  0
  190.7130  171.9640  142.7770 S   0  0  0  0  0  0  0  0  0  0  0  0
  191.8450  174.7970  142.5960 C   0  0  2  0  0  3  0  0  0  0  0  0
  185.1070  178.7220  143.0750 O   0  0  0  0  0  0  0  0  0  0  0  0
  190.2510  173.1270  141.4520 C   0  0  0  0  0  2  0  0  0  0  0  0
  193.3470  172.8130  142.5700 C   0  0  2  0  0  3  0  0  0  0  0  0
  189.5830  176.5070  146.9680 C   0  0  0  0  0  2  0  0  0  0  0  0
  189.8700  177.1860  145.6260 C   0  0  1  0  0  3  0  0  0  0  0  0
  187.5360  178.0450  145.5610 N   0  0  0  0  0  0  0  0  0  0  0  0
  189.4020  175.2250  142.5300 C   0  0  0  0  0  2  0  0  0  0  0  0
  187.2440  177.5890  141.3090 C   0  0  0  0  0  1  0  0  0  0  0  0
  184.4920  178.0400  146.3680 C   0  0  0  0  0  1  0  0  0  0  0  0
  188.5360  177.3400  143.4850 C   0  0  0  0  0  0  0  0  0  0  0  0
  186.4170  178.4040  144.8830 C   0  0  0  0  0  0  0  0  0  0  0  0
  194.7130  172.4230  142.2500 N   0  0  0  0  0  2  0  0  0  0  0  0
  195.8090  172.6130  143.1490 C   0  0  0  0  0  0  0  0  0  0  0  0
  195.6370  173.1910  144.2920 N   0  0  0  0  0  2  0  0  0  0  0  0
  197.1690  172.1650  142.7490 C   0  0  0  0  0  1  0  0  0  0  0  0
  1 20  1  0  0  0  0
  1 16  1  0  0  0  0
  2 24  1  1  0  0  0
  2 27  1  0  0  0  0
  2 12  1  0  0  0  0
  3  4  1  0  0  0  0
  5 27  2  0  0  0  0
  5  6  1  0  0  0  0
  6 28  2  0  0  0  0
  7 19  1  1  0  0  0
  7 24  1  0  0  0  0
  7 17  1  0  0  0  0
  9 26  1  1  0  0  0
 10 20  1  0  0  0  0
 11  3  1  0  0  0  0
 12  8  1  6  0  0  0
 12 13  1  0  0  0  0
 13 11  1  1  0  0  0
 13 22  1  0  0  0  0
 14 23  2  0  0  0  0
 14 22  1  0  0  0  0
 15  9  1  0  0  0  0
 17 10  1  6  0  0  0
 17  8  1  0  0  0  0
 18  6  1  0  0  0  0
 18 15  1  0  0  0  0
 19 16  1  0  0  0  0
 20 29  1  6  0  0  0
 21  4  1  0  0  0  0
 22 21  1  1  0  0  0
 25  5  1  0  0  0  0
 27 14  1  0  0  0  0
 28  9  1  0  0  0  0
 28 23  1  0  0  0  0
 29 30  1  0  0  0  0
 30 31  2  0  0  0  0
 32 30  1  0  0  0  0
M  END
>  <MODEL>
1

>  <REMARK>
 VINA RESULT:      -8.7      0.000      0.000
  Name = 
  1 active torsions:
  status: ('A' for Active; 'I' for Inactive)
    1  A    between atoms: C_20  and  N_29
                            x       y       z     vdW  Elec       q    Type
                         _______ _______ _______ _____ _____    ______ ____

>  <TORSDO>
F 1

$$$$
=
 OpenBabel11112416323D

 32 37  0  0  1  0  0  0  0  0999 V2000
  186.7640  177.2240  146.3050 C   0  0  0  0  0  2  0  0  0  0  0  0
  191.9960  175.9470  144.4540 C   0  0  1  0  0  3  0  0  0  0  0  0
  188.9420  172.7670  142.5290 C   0  0  0  0  0  2  0  0  0  0  0  0
  189.9820  171.6500  142.5150 C   0  0  0  0  0  2  0  0  0  0  0  0
  194.2760  175.2080  145.2970 C   0  0  0  0  0  0  0  0  0  0  0  0
  195.2140  174.1860  145.4140 C   0  0  0  0  0  0  0  0  0  0  0  0
  190.0820  177.0450  145.6230 C   0  0  1  0  0  3  0  0  0  0  0  0
  190.1110  176.6950  143.1590 C   0  0  0  0  0  2  0  0  0  0  0  0
  196.1440  172.0600  145.1200 C   0  0  1  0  0  3  0  0  0  0  0  0
  188.0890  177.7260  144.2180 C   0  0  0  0  0  2  0  0  0  0  0  0
  189.6330  174.1100  142.3130 C   0  0  0  0  0  2  0  0  0  0  0  0
  191.1600  175.6550  143.2640 N   0  0  2  0  0  0  0  0  0  0  0  0
  190.5960  174.3530  143.3990 N   0  0  2  0  0  0  0  0  0  0  0  0
  192.8810  173.6300  144.0600 C   0  0  0  0  0  0  0  0  0  0  0  0
  197.1050  172.9770  145.9120 C   0  0  0  0  0  2  0  0  0  0  0  0
  187.9000  176.0170  147.0630 S   0  0  0  0  0  0  0  0  0  0  0  0
  189.2200  176.7270  144.3990 C   0  0  2  0  0  3  0  0  0  0  0  0
  196.4420  174.2370  146.0360 O   0  0  0  0  0  0  0  0  0  0  0  0
  189.3030  177.1740  146.9360 C   0  0  0  0  0  2  0  0  0  0  0  0
  186.7970  177.1440  144.7800 C   0  0  2  0  0  3  0  0  0  0  0  0
  191.1070  171.9540  143.5010 C   0  0  0  0  0  2  0  0  0  0  0  0
  191.6660  173.3500  143.2150 C   0  0  1  0  0  3  0  0  0  0  0  0
  193.8530  172.6770  144.1920 N   0  0  0  0  0  0  0  0  0  0  0  0
  191.1690  175.9940  145.7490 C   0  0  0  0  0  2  0  0  0  0  0  0
  194.5460  176.5510  145.8900 C   0  0  0  0  0  1  0  0  0  0  0  0
  195.7200  170.8960  145.9970 C   0  0  0  0  0  1  0  0  0  0  0  0
  193.0830  174.9250  144.5950 C   0  0  0  0  0  0  0  0  0  0  0  0
  194.9890  172.9580  144.8780 C   0  0  0  0  0  0  0  0  0  0  0  0
  185.6680  177.8810  144.2290 N   0  0  0  0  0  2  0  0  0  0  0  0
  185.1940  177.6980  142.8930 C   0  0  0  0  0  0  0  0  0  0  0  0
  185.7870  176.8830  142.0840 N   0  0  0  0  0  2  0  0  0  0  0  0
  184.0200  178.4780  142.4200 C   0  0  0  0  0  1  0  0  0  0  0  0
  1 16  1  0  0  0  0
  2 27  1  0  0  0  0
  2 24  1  1  0  0  0
  4  3  1  0  0  0  0
  4 21  1  0  0  0  0
  5  6  1  0  0  0  0
  5 25  1  0  0  0  0
  6 18  1  0  0  0  0
  7 24  1  1  0  0  0
  7 19  1  0  0  0  0
  9 15  1  0  0  0  0
  9 26  1  1  0  0  0
 10 17  1  0  0  0  0
 10 20  1  0  0  0  0
 11  3  1  0  0  0  0
 12  8  1  1  0  0  0
 12 13  1  0  0  0  0
 12  2  1  0  0  0  0
 13 11  1  6  0  0  0
 14 23  2  0  0  0  0
 14 27  1  0  0  0  0
 15 18  1  0  0  0  0
 17  8  1  6  0  0  0
 17  7  1  0  0  0  0
 19 16  1  0  0  0  0
 20 29  1  6  0  0  0
 20  1  1  0  0  0  0
 22 13  1  0  0  0  0
 22 21  1  1  0  0  0
 22 14  1  0  0  0  0
 23 28  1  0  0  0  0
 27  5  2  0  0  0  0
 28  9  1  0  0  0  0
 28  6  2  0  0  0  0
 30 29  1  0  0  0  0
 31 30  2  0  0  0  0
 32 30  1  0  0  0  0
M  END
>  <MODEL>
2

>  <REMARK>
 VINA RESULT:      -8.4      3.160      8.436
  Name = 
  1 active torsions:
  status: ('A' for Active; 'I' for Inactive)
    1  A    between atoms: C_20  and  N_29
                            x       y       z     vdW  Elec       q    Type
                         _______ _______ _______ _____ _____    ______ ____

>  <TORSDO>
F 1

$$$$
=
 OpenBabel11112416323D

 32 37  0  0  1  0  0  0  0  0999 V2000
  195.0830  175.3830  144.9190 C   0  0  0  0  0  2  0  0  0  0  0  0
  189.3900  175.3990  145.0630 C   0  0  1  0  0  3  0  0  0  0  0  0
  190.7530  172.8630  141.2090 C   0  0  0  0  0  2  0  0  0  0  0  0
  189.5230  173.2700  140.4030 C   0  0  0  0  0  2  0  0  0  0  0  0
  187.4050  176.9800  144.9390 C   0  0  0  0  0  0  0  0  0  0  0  0
  186.3340  177.4700  144.1960 C   0  0  0  0  0  0  0  0  0  0  0  0
  191.7910  175.8080  145.6170 C   0  0  1  0  0  3  0  0  0  0  0  0
  190.8690  173.5180  145.3020 C   0  0  0  0  0  2  0  0  0  0  0  0
  184.8620  177.6580  142.3880 C   0  0  1  0  0  3  0  0  0  0  0  0
  193.3160  173.7930  145.7630 C   0  0  0  0  0  2  0  0  0  0  0  0
  190.3860  172.7720  142.6870 C   0  0  0  0  0  2  0  0  0  0  0  0
  189.6900  174.0330  144.5710 N   0  0  2  0  0  0  0  0  0  0  0  0
  189.9250  174.0850  143.1660 N   0  0  2  0  0  0  0  0  0  0  0  0
  187.8790  175.4940  143.0600 C   0  0  0  0  0  0  0  0  0  0  0  0
  184.4730  178.6380  143.5180 C   0  0  0  0  0  2  0  0  0  0  0  0
  193.9960  176.5570  144.0460 S   0  0  0  0  0  0  0  0  0  0  0  0
  192.0960  174.4030  145.0930 C   0  0  2  0  0  3  0  0  0  0  0  0
  185.4310  178.4450  144.5610 O   0  0  0  0  0  0  0  0  0  0  0  0
  192.9630  176.7910  145.5290 C   0  0  0  0  0  2  0  0  0  0  0  0
  194.5330  173.9590  144.8610 C   0  0  2  0  0  3  0  0  0  0  0  0
  188.8960  174.5340  140.9830 C   0  0  0  0  0  2  0  0  0  0  0  0
  188.6400  174.3310  142.4780 C   0  0  1  0  0  3  0  0  0  0  0  0
  186.8000  176.0030  142.3920 N   0  0  0  0  0  0  0  0  0  0  0  0
  190.5800  176.3560  144.8840 C   0  0  0  0  0  2  0  0  0  0  0  0
  187.6860  177.5200  146.3020 C   0  0  0  0  0  1  0  0  0  0  0  0
  185.2460  178.4440  141.1480 C   0  0  0  0  0  1  0  0  0  0  0  0
  188.1920  175.9600  144.3590 C   0  0  0  0  0  0  0  0  0  0  0  0
  186.0590  176.9900  142.9560 C   0  0  0  0  0  0  0  0  0  0  0  0
  195.5650  173.0210  145.2820 N   0  0  0  0  0  2  0  0  0  0  0  0
  196.4110  172.3280  144.3610 C   0  0  0  0  0  0  0  0  0  0  0  0
  196.2640  172.4740  143.0850 N   0  0  0  0  0  2  0  0  0  0  0  0
  197.4530  171.4030  144.8790 C   0  0  0  0  0  1  0  0  0  0  0  0
  2 24  1  6  0  0  0
  3 11  1  0  0  0  0
  4 21  1  0  0  0  0
  4  3  1  0  0  0  0
  5 25  1  0  0  0  0
  6 18  1  0  0  0  0
  6  5  2  0  0  0  0
  7 24  1  6  0  0  0
  9 26  1  6  0  0  0
  9 28  1  0  0  0  0
  9 15  1  0  0  0  0
 12  2  1  0  0  0  0
 12  8  1  1  0  0  0
 13 11  1  6  0  0  0
 13 12  1  0  0  0  0
 14 27  2  0  0  0  0
 15 18  1  0  0  0  0
 16  1  1  0  0  0  0
 16 19  1  0  0  0  0
 17  8  1  1  0  0  0
 17  7  1  0  0  0  0
 17 10  1  0  0  0  0
 19  7  1  0  0  0  0
 20  1  1  0  0  0  0
 20 29  1  1  0  0  0
 20 10  1  0  0  0  0
 22 21  1  6  0  0  0
 22 14  1  0  0  0  0
 22 13  1  0  0  0  0
 23 28  2  0  0  0  0
 23 14  1  0  0  0  0
 27  5  1  0  0  0  0
 27  2  1  0  0  0  0
 28  6  1  0  0  0  0
 30 32  1  0  0  0  0
 30 29  1  0  0  0  0
 31 30  2  0  0  0  0
M  END
>  <MODEL>
3

>  <REMARK>
 VINA RESULT:      -8.1      2.238      4.002
  Name = 
  1 active torsions:
  status: ('A' for Active; 'I' for Inactive)
    1  A    between atoms: C_20  and  N_29
                            x       y       z     vdW  Elec       q    Type
                         _______ _______ _______ _____ _____    ______ ____

>  <TORSDO>
F 1

$$$$
=
 OpenBabel11112416323D

 32 37  0  0  1  0  0  0  0  0999 V2000
  187.8150  177.1400  146.5910 C   0  0  0  0  0  2  0  0  0  0  0  0
  192.7240  175.0580  144.5930 C   0  0  1  0  0  3  0  0  0  0  0  0
  189.1380  172.7490  142.3690 C   0  0  0  0  0  2  0  0  0  0  0  0
  189.9400  171.4580  142.2360 C   0  0  0  0  0  2  0  0  0  0  0  0
  194.8030  173.8060  145.3450 C   0  0  0  0  0  0  0  0  0  0  0  0
  195.5220  172.6140  145.3530 C   0  0  0  0  0  0  0  0  0  0  0  0
  191.0440  176.3860  145.8780 C   0  0  1  0  0  3  0  0  0  0  0  0
  191.0420  176.2870  143.3920 C   0  0  0  0  0  2  0  0  0  0  0  0
  196.0230  170.3870  144.8380 C   0  0  1  0  0  3  0  0  0  0  0  0
  189.2440  177.5820  144.5600 C   0  0  0  0  0  2  0  0  0  0  0  0
  190.0810  173.9450  142.2880 C   0  0  0  0  0  2  0  0  0  0  0  0
  191.8660  175.0580  143.3840 N   0  0  2  0  0  0  0  0  0  0  0  0
  191.0560  173.8840  143.3890 N   0  0  2  0  0  0  0  0  0  0  0  0
  193.1460  172.6650  143.9610 C   0  0  0  0  0  0  0  0  0  0  0  0
  197.1330  171.0130  145.7150 C   0  0  0  0  0  2  0  0  0  0  0  0
  188.6820  175.6640  147.2170 S   0  0  0  0  0  0  0  0  0  0  0  0
  190.1550  176.3680  144.6330 C   0  0  2  0  0  3  0  0  0  0  0  0
  196.7270  172.3600  145.9700 O   0  0  0  0  0  0  0  0  0  0  0  0
  190.2860  176.5300  147.2010 C   0  0  0  0  0  2  0  0  0  0  0  0
  187.8550  177.2110  145.0660 C   0  0  2  0  0  3  0  0  0  0  0  0
  191.0880  171.4340  143.2410 C   0  0  0  0  0  2  0  0  0  0  0  0
  191.9130  172.7150  143.0980 C   0  0  1  0  0  3  0  0  0  0  0  0
  193.9110  171.5320  143.9900 N   0  0  0  0  0  0  0  0  0  0  0  0
  191.9030  175.1340  145.8900 C   0  0  0  0  0  2  0  0  0  0  0  0
  195.3220  175.0030  146.0710 C   0  0  0  0  0  1  0  0  0  0  0  0
  195.3680  169.2460  145.5930 C   0  0  0  0  0  1  0  0  0  0  0  0
  193.5890  173.8340  144.6240 C   0  0  0  0  0  0  0  0  0  0  0  0
  195.0690  171.5140  144.6950 C   0  0  0  0  0  0  0  0  0  0  0  0
  186.9000  178.2060  144.6000 N   0  0  0  0  0  2  0  0  0  0  0  0
  185.8510  177.9080  143.6750 C   0  0  0  0  0  0  0  0  0  0  0  0
  185.7290  176.7250  143.1690 N   0  0  0  0  0  2  0  0  0  0  0  0
  184.9070  178.9810  143.2680 C   0  0  0  0  0  1  0  0  0  0  0  0
  1 16  1  0  0  0  0
  2 27  1  0  0  0  0
  2 24  1  1  0  0  0
  4  3  1  0  0  0  0
  4 21  1  0  0  0  0
  5  6  1  0  0  0  0
  5 25  1  0  0  0  0
  6 18  1  0  0  0  0
  7 24  1  1  0  0  0
  7 19  1  0  0  0  0
  9 26  1  1  0  0  0
  9 15  1  0  0  0  0
 10 17  1  0  0  0  0
 10 20  1  0  0  0  0
 11  3  1  0  0  0  0
 12 13  1  0  0  0  0
 12  8  1  1  0  0  0
 12  2  1  0  0  0  0
 13 11  1  6  0  0  0
 14 23  2  0  0  0  0
 14 27  1  0  0  0  0
 15 18  1  0  0  0  0
 17  8  1  6  0  0  0
 17  7  1  0  0  0  0
 19 16  1  0  0  0  0
 20 29  1  1  0  0  0
 20  1  1  0  0  0  0
 22 21  1  1  0  0  0
 22 13  1  0  0  0  0
 22 14  1  0  0  0  0
 23 28  1  0  0  0  0
 27  5  2  0  0  0  0
 28  9  1  0  0  0  0
 28  6  2  0  0  0  0
 30 29  1  0  0  0  0
 31 30  2  0  0  0  0
 32 30  1  0  0  0  0
M  END
>  <MODEL>
4

>  <REMARK>
 VINA RESULT:      -8.1      3.306      8.713
  Name = 
  1 active torsions:
  status: ('A' for Active; 'I' for Inactive)
    1  A    between atoms: C_20  and  N_29
                            x       y       z     vdW  Elec       q    Type
                         _______ _______ _______ _____ _____    ______ ____

>  <TORSDO>
F 1

$$$$
=
 OpenBabel11112416323D

 32 37  0  0  1  0  0  0  0  0999 V2000
  187.6530  176.2220  147.4390 C   0  0  0  0  0  2  0  0  0  0  0  0
  192.2510  176.6000  144.1010 C   0  0  1  0  0  3  0  0  0  0  0  0
  188.7850  174.4140  141.5810 C   0  0  0  0  0  2  0  0  0  0  0  0
  189.7790  173.5690  140.7890 C   0  0  0  0  0  2  0  0  0  0  0  0
  194.6620  175.8120  143.9440 C   0  0  0  0  0  0  0  0  0  0  0  0
  195.5900  174.9740  143.3320 C   0  0  0  0  0  0  0  0  0  0  0  0
  190.6970  176.7730  146.0480 C   0  0  1  0  0  3  0  0  0  0  0  0
  190.1130  177.6580  143.7970 C   0  0  0  0  0  2  0  0  0  0  0  0
  196.3970  173.3730  141.8280 C   0  0  1  0  0  3  0  0  0  0  0  0
  188.4260  177.8130  145.6410 C   0  0  0  0  0  2  0  0  0  0  0  0
  189.4150  175.7640  141.9120 C   0  0  0  0  0  2  0  0  0  0  0  0
  191.1450  176.8230  143.1410 N   0  0  2  0  0  0  0  0  0  0  0  0
  190.6190  175.5620  142.7340 N   0  0  2  0  0  0  0  0  0  0  0  0
  192.9890  174.8760  142.4300 C   0  0  0  0  0  0  0  0  0  0  0  0
  197.5330  173.8990  142.7360 C   0  0  0  0  0  2  0  0  0  0  0  0
  188.9300  174.9370  147.2300 S   0  0  0  0  0  0  0  0  0  0  0  0
  189.5570  176.9870  145.0510 C   0  0  2  0  0  3  0  0  0  0  0  0
  196.9340  174.8590  143.6100 O   0  0  0  0  0  0  0  0  0  0  0  0
  190.2690  176.1640  147.3870 C   0  0  0  0  0  2  0  0  0  0  0  0
  187.3070  176.8910  146.1100 C   0  0  2  0  0  3  0  0  0  0  0  0
  191.1150  173.4870  141.5200 C   0  0  0  0  0  2  0  0  0  0  0  0
  191.6000  174.9010  141.8480 C   0  0  1  0  0  3  0  0  0  0  0  0
  193.9540  174.0950  141.8570 N   0  0  0  0  0  0  0  0  0  0  0  0
  191.7720  175.9220  145.3950 C   0  0  0  0  0  2  0  0  0  0  0  0
  195.0840  176.7240  145.0480 C   0  0  0  0  0  1  0  0  0  0  0  0
  196.1920  171.8920  142.0830 C   0  0  0  0  0  1  0  0  0  0  0  0
  193.3300  175.7670  143.4760 C   0  0  0  0  0  0  0  0  0  0  0  0
  195.2270  174.1390  142.3230 C   0  0  0  0  0  0  0  0  0  0  0  0
  186.0840  177.6670  146.2600 N   0  0  0  0  0  2  0  0  0  0  0  0
  185.1660  177.8910  145.1870 C   0  0  0  0  0  0  0  0  0  0  0  0
  185.4090  177.4400  144.0010 N   0  0  0  0  0  2  0  0  0  0  0  0
  183.9310  178.6800  145.4340 C   0  0  0  0  0  1  0  0  0  0  0  0
  2 24  1  1  0  0  0
  3 11  1  0  0  0  0
  4 21  1  0  0  0  0
  4  3  1  0  0  0  0
  5 25  1  0  0  0  0
  6 18  1  0  0  0  0
  6  5  2  0  0  0  0
  7 24  1  6  0  0  0
  7 19  1  0  0  0  0
  9 26  1  1  0  0  0
  9 28  1  0  0  0  0
  9 15  1  0  0  0  0
 10 20  1  0  0  0  0
 12  8  1  1  0  0  0
 12  2  1  0  0  0  0
 13 11  1  6  0  0  0
 13 12  1  0  0  0  0
 14 27  2  0  0  0  0
 15 18  1  0  0  0  0
 16 19  1  0  0  0  0
 16  1  1  0  0  0  0
 17  8  1  6  0  0  0
 17 10  1  0  0  0  0
 17  7  1  0  0  0  0
 20 29  1  1  0  0  0
 20  1  1  0  0  0  0
 22 21  1  1  0  0  0
 22 14  1  0  0  0  0
 22 13  1  0  0  0  0
 23 28  2  0  0  0  0
 23 14  1  0  0  0  0
 27  5  1  0  0  0  0
 27  2  1  0  0  0  0
 28  6  1  0  0  0  0
 30 32  1  0  0  0  0
 30 29  1  0  0  0  0
 31 30  2  0  0  0  0
M  END
>  <MODEL>
5

>  <REMARK>
 VINA RESULT:      -7.6      2.866      8.502
  Name = 
  1 active torsions:
  status: ('A' for Active; 'I' for Inactive)
    1  A    between atoms: C_20  and  N_29
                            x       y       z     vdW  Elec       q    Type
                         _______ _______ _______ _____ _____    ______ ____

>  <TORSDO>
F 1

$$$$
=
 OpenBabel11112416323D

 32 37  0  0  1  0  0  0  0  0999 V2000
  195.6020  174.1350  141.9960 C   0  0  0  0  0  2  0  0  0  0  0  0
  190.3250  174.9470  143.9750 C   0  0  1  0  0  3  0  0  0  0  0  0
  190.0310  172.0160  140.1720 C   0  0  0  0  0  2  0  0  0  0  0  0
  188.6540  172.5380  139.7700 C   0  0  0  0  0  2  0  0  0  0  0  0
  188.5990  176.7770  144.3380 C   0  0  0  0  0  0  0  0  0  0  0  0
  187.4030  177.3640  143.9350 C   0  0  0  0  0  0  0  0  0  0  0  0
  192.8020  175.0530  143.6750 C   0  0  1  0  0  3  0  0  0  0  0  0
  191.5810  172.8980  143.9150 C   0  0  0  0  0  2  0  0  0  0  0  0
  185.4400  177.6420  142.6930 C   0  0  1  0  0  3  0  0  0  0  0  0
  194.0550  172.8600  143.5270 C   0  0  0  0  0  2  0  0  0  0  0  0
  190.1720  172.0670  141.6900 C   0  0  0  0  0  2  0  0  0  0  0  0
  190.2900  173.5250  143.5570 N   0  0  2  0  0  0  0  0  0  0  0  0
  190.0450  173.4580  142.1540 N   0  0  2  0  0  0  0  0  0  0  0  0
  188.2500  175.1270  142.5710 C   0  0  0  0  0  0  0  0  0  0  0  0
  185.5620  178.7350  143.7800 C   0  0  0  0  0  2  0  0  0  0  0  0
  194.4220  175.3920  141.4050 S   0  0  0  0  0  0  0  0  0  0  0  0
  192.7570  173.5910  143.2290 C   0  0  2  0  0  3  0  0  0  0  0  0
  186.7870  178.4750  144.4700 O   0  0  0  0  0  0  0  0  0  0  0  0
  193.9770  175.8570  143.1110 C   0  0  0  0  0  2  0  0  0  0  0  0
  194.9110  172.8000  142.2670 C   0  0  2  0  0  3  0  0  0  0  0  0
  188.4010  173.9100  140.3880 C   0  0  0  0  0  2  0  0  0  0  0  0
  188.6390  173.8370  141.8980 C   0  0  1  0  0  3  0  0  0  0  0  0
  187.0730  175.7390  142.2400 N   0  0  0  0  0  0  0  0  0  0  0  0
  191.4830  175.7180  143.3220 C   0  0  0  0  0  2  0  0  0  0  0  0
  189.3780  177.3550  145.4720 C   0  0  0  0  0  1  0  0  0  0  0  0
  185.4710  178.2900  141.3210 C   0  0  0  0  0  1  0  0  0  0  0  0
  189.0290  175.6240  143.6430 C   0  0  0  0  0  0  0  0  0  0  0  0
  186.6770  176.8510  142.9080 C   0  0  0  0  0  0  0  0  0  0  0  0
  195.9150  171.7560  142.4250 N   0  0  0  0  0  2  0  0  0  0  0  0
  196.0790  170.6850  141.4930 C   0  0  0  0  0  0  0  0  0  0  0  0
  195.2980  170.5700  140.4700 N   0  0  0  0  0  2  0  0  0  0  0  0
  197.1430  169.6730  141.7220 C   0  0  0  0  0  1  0  0  0  0  0  0
  1 20  1  0  0  0  0
  2 24  1  6  0  0  0
  3 11  1  0  0  0  0
  4  3  1  0  0  0  0
  4 21  1  0  0  0  0
  5 25  1  0  0  0  0
  6  5  1  0  0  0  0
  6 18  1  0  0  0  0
  7 19  1  6  0  0  0
  9 26  1  6  0  0  0
  9 28  1  0  0  0  0
  9 15  1  0  0  0  0
 12  8  1  6  0  0  0
 12  2  1  0  0  0  0
 13 11  1  1  0  0  0
 13 12  1  0  0  0  0
 14 27  1  0  0  0  0
 15 18  1  0  0  0  0
 16  1  1  0  0  0  0
 16 19  1  0  0  0  0
 17 10  1  1  0  0  0
 17  7  1  0  0  0  0
 17  8  1  0  0  0  0
 20 29  1  1  0  0  0
 20 10  1  0  0  0  0
 22 21  1  6  0  0  0
 22 13  1  0  0  0  0
 22 14  1  0  0  0  0
 23 14  2  0  0  0  0
 23 28  1  0  0  0  0
 24  7  1  0  0  0  0
 27  2  1  0  0  0  0
 27  5  2  0  0  0  0
 28  6  2  0  0  0  0
 30 32  1  0  0  0  0
 30 29  1  0  0  0  0
 31 30  2  0  0  0  0
M  END
>  <MODEL>
6

>  <REMARK>
 VINA RESULT:      -7.0      2.211      4.127
  Name = 
  1 active torsions:
  status: ('A' for Active; 'I' for Inactive)
    1  A    between atoms: C_20  and  N_29
                            x       y       z     vdW  Elec       q    Type
                         _______ _______ _______ _____ _____    ______ ____

>  <TORSDO>
F 1

$$$$
=
 OpenBabel11112416323D

 32 37  0  0  1  0  0  0  0  0999 V2000
  187.5400  177.9220  143.1700 C   0  0  0  0  0  2  0  0  0  0  0  0
  191.3320  173.6820  143.4310 C   0  0  1  0  0  3  0  0  0  0  0  0
  192.3630  176.7910  146.9550 C   0  0  0  0  0  2  0  0  0  0  0  0
  193.8590  176.4990  146.8880 C   0  0  0  0  0  2  0  0  0  0  0  0
  193.1880  172.5910  142.0810 C   0  0  0  0  0  0  0  0  0  0  0  0
  194.5540  172.3880  141.9060 C   0  0  0  0  0  0  0  0  0  0  0  0
  189.4230  175.1350  142.7370 C   0  0  1  0  0  3  0  0  0  0  0  0
  189.6650  174.2760  145.0590 C   0  0  0  0  0  2  0  0  0  0  0  0
  196.8410  172.5460  142.3710 C   0  0  1  0  0  3  0  0  0  0  0  0
  187.7530  175.8000  144.5180 C   0  0  0  0  0  2  0  0  0  0  0  0
  191.5820  175.5280  146.6040 C   0  0  0  0  0  2  0  0  0  0  0  0
  191.1040  173.9900  144.8630 N   0  0  2  0  0  0  0  0  0  0  0  0
  191.9150  175.1010  145.2350 N   0  0  2  0  0  0  0  0  0  0  0  0
  193.7550  173.9250  144.0470 C   0  0  0  0  0  0  0  0  0  0  0  0
  196.5940  171.6830  141.1120 C   0  0  0  0  0  2  0  0  0  0  0  0
  189.1860  177.9120  142.3880 S   0  0  0  0  0  0  0  0  0  0  0  0
  189.2030  175.4610  144.2140 C   0  0  2  0  0  3  0  0  0  0  0  0
  195.1780  171.6570  140.9190 O   0  0  0  0  0  0  0  0  0  0  0  0
  188.9420  176.2160  141.7650 C   0  0  0  0  0  2  0  0  0  0  0  0
  187.5800  177.3140  144.5710 C   0  0  2  0  0  3  0  0  0  0  0  0
  194.2240  175.8770  145.5440 C   0  0  0  0  0  2  0  0  0  0  0  0
  193.3260  174.6640  145.2870 C   0  0  1  0  0  3  0  0  0  0  0  0
  195.0810  173.6690  143.8310 N   0  0  0  0  0  0  0  0  0  0  0  0
  190.8940  174.8330  142.5110 C   0  0  0  0  0  2  0  0  0  0  0  0
  192.2080  171.9860  141.1310 C   0  0  0  0  0  1  0  0  0  0  0  0
  197.6310  173.7840  141.9870 C   0  0  0  0  0  1  0  0  0  0  0  0
  192.7780  173.3720  143.1840 C   0  0  0  0  0  0  0  0  0  0  0  0
  195.4620  172.9270  142.7610 C   0  0  0  0  0  0  0  0  0  0  0  0
  186.3420  177.6250  145.2720 N   0  0  0  0  0  2  0  0  0  0  0  0
  186.2940  177.9390  146.6660 C   0  0  0  0  0  0  0  0  0  0  0  0
  187.3650  177.9180  147.3890 N   0  0  0  0  0  2  0  0  0  0  0  0
  184.9880  178.2640  147.2980 C   0  0  0  0  0  1  0  0  0  0  0  0
  1 20  1  0  0  0  0
  2 24  1  6  0  0  0
  2 12  1  0  0  0  0
  4  3  1  0  0  0  0
  5 27  1  0  0  0  0
  6  5  2  0  0  0  0
  6 28  1  0  0  0  0
  7 19  1  6  0  0  0
  7 17  1  0  0  0  0
  9 26  1  6  0  0  0
  9 28  1  0  0  0  0
 10 20  1  0  0  0  0
 11  3  1  0  0  0  0
 12  8  1  6  0  0  0
 12 13  1  0  0  0  0
 13 22  1  0  0  0  0
 13 11  1  1  0  0  0
 14 22  1  0  0  0  0
 15  9  1  0  0  0  0
 16  1  1  0  0  0  0
 17 10  1  6  0  0  0
 17  8  1  0  0  0  0
 18 15  1  0  0  0  0
 18  6  1  0  0  0  0
 19 16  1  0  0  0  0
 20 29  1  6  0  0  0
 21  4  1  0  0  0  0
 22 21  1  6  0  0  0
 23 14  1  0  0  0  0
 24  7  1  0  0  0  0
 25  5  1  0  0  0  0
 27  2  1  0  0  0  0
 27 14  2  0  0  0  0
 28 23  2  0  0  0  0
 29 30  1  0  0  0  0
 30 32  1  0  0  0  0
 30 31  2  0  0  0  0
M  END
>  <MODEL>
7

>  <REMARK>
 VINA RESULT:      -6.8      2.898      8.145
  Name = 
  1 active torsions:
  status: ('A' for Active; 'I' for Inactive)
    1  A    between atoms: C_20  and  N_29
                            x       y       z     vdW  Elec       q    Type
                         _______ _______ _______ _____ _____    ______ ____

>  <TORSDO>
F 1

$$$$
=
 OpenBabel11112416323D

 32 37  0  0  1  0  0  0  0  0999 V2000
  186.9580  178.1310  142.9000 C   0  0  0  0  0  2  0  0  0  0  0  0
  190.4000  173.6180  142.4390 C   0  0  1  0  0  3  0  0  0  0  0  0
  192.6540  176.9140  145.1220 C   0  0  0  0  0  2  0  0  0  0  0  0
  194.0350  176.4900  144.6310 C   0  0  0  0  0  2  0  0  0  0  0  0
  191.6750  172.2600  140.7110 C   0  0  0  0  0  0  0  0  0  0  0  0
  192.9040  171.9270  140.1480 C   0  0  0  0  0  0  0  0  0  0  0  0
  188.4530  175.1650  142.2120 C   0  0  1  0  0  3  0  0  0  0  0  0
  189.3630  174.4890  144.4260 C   0  0  0  0  0  2  0  0  0  0  0  0
  195.2270  171.9260  139.8690 C   0  0  1  0  0  3  0  0  0  0  0  0
  187.4650  176.1210  144.3370 C   0  0  0  0  0  2  0  0  0  0  0  0
  191.7340  175.6970  145.1650 C   0  0  0  0  0  2  0  0  0  0  0  0
  190.6500  174.0640  143.8300 N   0  0  2  0  0  0  0  0  0  0  0  0
  191.5970  175.1290  143.8140 N   0  0  2  0  0  0  0  0  0  0  0  0
  192.9030  173.7020  142.2530 C   0  0  0  0  0  0  0  0  0  0  0  0
  194.5500  170.9840  138.8470 C   0  0  0  0  0  2  0  0  0  0  0  0
  188.2730  177.9130  141.6560 S   0  0  0  0  0  0  0  0  0  0  0  0
  188.7260  175.6340  143.6420 C   0  0  2  0  0  3  0  0  0  0  0  0
  193.1450  171.0630  139.1020 O   0  0  0  0  0  0  0  0  0  0  0  0
  187.7520  176.1980  141.3240 C   0  0  0  0  0  2  0  0  0  0  0  0
  187.4020  177.6420  144.2770 C   0  0  2  0  0  3  0  0  0  0  0  0
  193.9250  175.7260  143.3150 C   0  0  0  0  0  2  0  0  0  0  0  0
  192.9270  174.5780  143.4780 C   0  0  1  0  0  3  0  0  0  0  0  0
  194.0780  173.3160  141.6690 N   0  0  0  0  0  0  0  0  0  0  0  0
  189.7600  174.7200  141.5790 C   0  0  0  0  0  2  0  0  0  0  0  0
  190.4150  171.6630  140.1770 C   0  0  0  0  0  1  0  0  0  0  0  0
  195.9240  173.0540  139.1310 C   0  0  0  0  0  1  0  0  0  0  0  0
  191.6760  173.1650  141.7960 C   0  0  0  0  0  0  0  0  0  0  0  0
  194.0630  172.4560  140.6210 C   0  0  0  0  0  0  0  0  0  0  0  0
  186.4660  178.1170  145.2870 N   0  0  0  0  0  2  0  0  0  0  0  0
  186.7600  178.1140  146.6860 C   0  0  0  0  0  0  0  0  0  0  0  0
  187.8780  177.6400  147.1280 N   0  0  0  0  0  2  0  0  0  0  0  0
  185.7530  178.6370  147.6460 C   0  0  0  0  0  1  0  0  0  0  0  0
  1 20  1  0  0  0  0
  2 24  1  6  0  0  0
  2 12  1  0  0  0  0
  3 11  1  0  0  0  0
  4  3  1  0  0  0  0
  5 27  1  0  0  0  0
  6 28  1  0  0  0  0
  6  5  2  0  0  0  0
  7 19  1  6  0  0  0
  7 17  1  0  0  0  0
  9 26  1  6  0  0  0
  9 28  1  0  0  0  0
 12  8  1  6  0  0  0
 13 12  1  0  0  0  0
 13 11  1  1  0  0  0
 14 22  1  0  0  0  0
 15 18  1  0  0  0  0
 15  9  1  0  0  0  0
 16  1  1  0  0  0  0
 17 10  1  1  0  0  0
 17  8  1  0  0  0  0
 18  6  1  0  0  0  0
 19 16  1  0  0  0  0
 20 10  1  0  0  0  0
 20 29  1  1  0  0  0
 21  4  1  0  0  0  0
 22 21  1  6  0  0  0
 22 13  1  0  0  0  0
 23 14  1  0  0  0  0
 24  7  1  0  0  0  0
 25  5  1  0  0  0  0
 27 14  2  0  0  0  0
 27  2  1  0  0  0  0
 28 23  2  0  0  0  0
 29 30  1  0  0  0  0
 30 31  2  0  0  0  0
 30 32  1  0  0  0  0
M  END
>  <MODEL>
8

>  <REMARK>
 VINA RESULT:      -6.6      3.024      8.040
  Name = 
  1 active torsions:
  status: ('A' for Active; 'I' for Inactive)
    1  A    between atoms: C_20  and  N_29
                            x       y       z     vdW  Elec       q    Type
                         _______ _______ _______ _____ _____    ______ ____

>  <TORSDO>
F 1

$$$$
=
 OpenBabel11112416323D

 32 37  0  0  1  0  0  0  0  0999 V2000
  187.6760  178.0010  143.4460 C   0  0  0  0  0  2  0  0  0  0  0  0
  190.7890  173.2690  144.0340 C   0  0  1  0  0  3  0  0  0  0  0  0
  192.7940  176.6920  146.7560 C   0  0  0  0  0  2  0  0  0  0  0  0
  194.2020  176.1370  146.5630 C   0  0  0  0  0  2  0  0  0  0  0  0
  192.2350  171.6640  142.6970 C   0  0  0  0  0  0  0  0  0  0  0  0
  193.5130  171.2000  142.3970 C   0  0  0  0  0  0  0  0  0  0  0  0
  189.0350  174.8970  143.3170 C   0  0  1  0  0  3  0  0  0  0  0  0
  189.4950  174.4060  145.7130 C   0  0  0  0  0  2  0  0  0  0  0  0
  195.8420  171.0330  142.5410 C   0  0  1  0  0  3  0  0  0  0  0  0
  187.7720  176.1280  145.1320 C   0  0  0  0  0  2  0  0  0  0  0  0
  191.7890  175.5430  146.7480 C   0  0  0  0  0  2  0  0  0  0  0  0
  190.8290  173.8450  145.3990 N   0  0  2  0  0  0  0  0  0  0  0  0
  191.8440  174.8450  145.4540 N   0  0  2  0  0  0  0  0  0  0  0  0
  193.2860  173.1860  144.2920 C   0  0  0  0  0  0  0  0  0  0  0  0
  195.2810  170.0300  141.5070 C   0  0  0  0  0  2  0  0  0  0  0  0
  189.1650  177.5760  142.4840 S   0  0  0  0  0  0  0  0  0  0  0  0
  189.0930  175.4970  144.7230 C   0  0  2  0  0  3  0  0  0  0  0  0
  193.8640  170.2180  141.4970 O   0  0  0  0  0  0  0  0  0  0  0  0
  188.5790  175.8690  142.2250 C   0  0  0  0  0  2  0  0  0  0  0  0
  187.8370  177.6360  144.9200 C   0  0  2  0  0  3  0  0  0  0  0  0
  194.2620  175.2470  145.3260 C   0  0  0  0  0  2  0  0  0  0  0  0
  193.1650  174.1830  145.4140 C   0  0  1  0  0  3  0  0  0  0  0  0
  194.5100  172.6710  143.9670 N   0  0  0  0  0  0  0  0  0  0  0  0
  190.3930  174.3100  142.9740 C   0  0  0  0  0  2  0  0  0  0  0  0
  191.0430  171.0890  142.0050 C   0  0  0  0  0  1  0  0  0  0  0  0
  196.7400  172.0330  141.8370 C   0  0  0  0  0  1  0  0  0  0  0  0
  192.1180  172.6760  143.6750 C   0  0  0  0  0  0  0  0  0  0  0  0
  194.6100  171.7070  143.0180 C   0  0  0  0  0  0  0  0  0  0  0  0
  186.7810  178.2700  145.6960 N   0  0  0  0  0  2  0  0  0  0  0  0
  185.3920  178.1310  145.3830 C   0  0  0  0  0  0  0  0  0  0  0  0
  185.0100  177.4580  144.3480 N   0  0  0  0  0  2  0  0  0  0  0  0
  184.3780  178.7960  146.2420 C   0  0  0  0  0  1  0  0  0  0  0  0
  1 20  1  0  0  0  0
  2 24  1  6  0  0  0
  2 12  1  0  0  0  0
  4  3  1  0  0  0  0
  5 27  1  0  0  0  0
  6  5  2  0  0  0  0
  6 28  1  0  0  0  0
  7 19  1  6  0  0  0
  7 17  1  0  0  0  0
  9 26  1  6  0  0  0
  9 28  1  0  0  0  0
 11  3  1  0  0  0  0
 12 13  1  0  0  0  0
 12  8  1  6  0  0  0
 13 11  1  1  0  0  0
 14 22  1  0  0  0  0
 15  9  1  0  0  0  0
 16  1  1  0  0  0  0
 17 10  1  1  0  0  0
 17  8  1  0  0  0  0
 18 15  1  0  0  0  0
 18  6  1  0  0  0  0
 19 16  1  0  0  0  0
 20 10  1  0  0  0  0
 20 29  1  1  0  0  0
 21  4  1  0  0  0  0
 22 21  1  6  0  0  0
 22 13  1  0  0  0  0
 23 14  1  0  0  0  0
 24  7  1  0  0  0  0
 25  5  1  0  0  0  0
 27  2  1  0  0  0  0
 27 14  2  0  0  0  0
 28 23  2  0  0  0  0
 30 29  1  0  0  0  0
 30 32  1  0  0  0  0
 31 30  2  0  0  0  0
M  END
>  <MODEL>
9

>  <REMARK>
 VINA RESULT:      -6.4      2.937      8.276
  Name = 
  1 active torsions:
  status: ('A' for Active; 'I' for Inactive)
    1  A    between atoms: C_20  and  N_29
                            x       y       z     vdW  Elec       q    Type
                         _______ _______ _______ _____ _____    ______ ____

>  <TORSDO>
F 1

$$$$
