=
 OpenBabel11112416263D

 30 35  0  0  1  0  0  0  0  0999 V2000
  189.0150  175.5420  143.4380 C   0  0  1  0  0  3  0  0  0  0  0  0
  190.4280  174.7140  145.3970 C   0  0  0  0  0  0  0  0  0  0  0  0
  187.1930  178.4750  145.9270 N   0  0  0  0  0  2  0  0  0  0  0  0
  188.4910  176.8250  142.7620 C   0  0  1  0  0  3  0  0  0  0  0  0
  189.8770  174.8780  142.5360 O   0  0  0  0  0  0  0  0  0  0  0  0
  187.9310  175.1320  139.5760 O   0  0  0  0  0  0  0  0  0  0  0  0
  185.4560  177.2700  141.5730 C   0  0  1  0  0  3  0  0  0  0  0  0
  188.2840  175.3350  140.7690 C   0  0  0  0  0  0  0  0  0  0  0  0
  185.4150  178.1190  142.8110 C   0  0  1  0  0  3  0  0  0  0  0  0
  185.9330  178.1100  145.2770 C   0  0  2  0  0  3  0  0  0  0  0  0
  189.1190  174.3090  141.4830 C   0  0  2  0  0  3  0  0  0  0  0  0
  187.8420  176.5020  141.4800 N   0  0  0  0  0  0  0  0  0  0  0  0
  190.2680  174.4930  146.8700 C   0  0  0  0  0  2  0  0  0  0  0  0
  183.9290  178.2470  143.0910 C   0  0  0  0  0  2  0  0  0  0  0  0
  184.3090  177.7680  140.7200 C   0  0  0  0  0  2  0  0  0  0  0  0
  191.1840  173.9880  144.7700 O   0  0  0  0  0  0  0  0  0  0  0  0
  188.2780  177.9660  145.0890 C   0  0  2  0  0  3  0  0  0  0  0  0
  188.8370  174.7990  147.2840 C   0  0  0  0  0  2  0  0  0  0  0  0
  189.7690  175.9020  144.7200 C   0  0  2  0  0  3  0  0  0  0  0  0
  187.6900  177.7770  143.6970 C   0  0  2  0  0  3  0  0  0  0  0  0
  185.1620  177.1450  146.1560 C   0  0  0  0  0  1  0  0  0  0  0  0
  186.2270  177.4630  143.9290 C   0  0  2  0  0  3  0  0  0  0  0  0
  183.2650  178.2470  141.7190 C   0  0  0  0  0  2  0  0  0  0  0  0
  187.0280  178.0470  139.9250 O   0  0  0  0  0  0  0  0  0  0  0  0
  188.4270  176.1640  146.8150 C   0  0  0  0  0  3  0  0  0  0  0  0
  188.8250  176.6590  145.6260 C   0  0  0  0  0  0  0  0  0  0  0  0
  186.8010  177.3140  140.9260 C   0  0  0  0  0  0  0  0  0  0  0  0
  188.2690  173.1280  141.9530 C   0  0  0  0  0  2  0  0  0  0  0  0
  188.9670  171.8810  143.8650 O   0  0  0  0  0  1  0  0  0  0  0  0
  189.1440  172.0080  142.4880 C   0  0  0  0  0  2  0  0  0  0  0  0
  1  5  1  6  0  0  0
  1 19  1  0  0  0  0
  2 13  1  0  0  0  0
  4 12  1  6  0  0  0
  4  1  1  0  0  0  0
  4 20  1  0  0  0  0
  6  8  2  0  0  0  0
  7 15  1  6  0  0  0
  7  9  1  0  0  0  0
  8 12  1  0  0  0  0
  8 11  1  0  0  0  0
  9 14  1  1  0  0  0
  9 22  1  0  0  0  0
 10  3  1  0  0  0  0
 10 21  1  1  0  0  0
 11 28  1  1  0  0  0
 11  5  1  0  0  0  0
 13 18  1  0  0  0  0
 15 23  1  0  0  0  0
 16  2  2  0  0  0  0
 17 26  1  1  0  0  0
 17  3  1  0  0  0  0
 19  2  1  1  0  0  0
 19 26  1  0  0  0  0
 20 22  1  0  0  0  0
 20 17  1  0  0  0  0
 22 10  1  0  0  0  0
 23 14  1  0  0  0  0
 24 27  2  0  0  0  0
 25 18  1  0  0  0  0
 26 25  2  0  0  0  0
 27 12  1  0  0  0  0
 27  7  1  0  0  0  0
 28 30  1  0  0  0  0
 30 29  1  0  0  0  0
M  END
>  <MODEL>
1

>  <REMARK>
 VINA RESULT:      -8.1      0.000      0.000
  Name = 
  2 active torsions:
  status: ('A' for Active; 'I' for Inactive)
    1  A    between atoms: C_11  and  C_28
    2  A    between atoms: C_28  and  C_30
                            x       y       z     vdW  Elec       q    Type
                         _______ _______ _______ _____ _____    ______ ____

>  <TORSDO>
F 2

$$$$
=
 OpenBabel11112416263D

 30 35  0  0  1  0  0  0  0  0999 V2000
  189.8030  175.5640  142.7510 C   0  0  1  0  0  3  0  0  0  0  0  0
  191.9760  174.2360  142.5590 C   0  0  0  0  0  0  0  0  0  0  0  0
  190.6450  176.4500  146.8280 N   0  0  0  0  0  2  0  0  0  0  0  0
  189.2080  176.8600  143.3370 C   0  0  1  0  0  3  0  0  0  0  0  0
  189.7180  175.6260  141.3410 O   0  0  0  0  0  0  0  0  0  0  0  0
  186.3920  176.8280  141.0130 O   0  0  0  0  0  0  0  0  0  0  0  0
  186.2890  177.1320  144.8310 C   0  0  1  0  0  3  0  0  0  0  0  0
  187.4730  176.5070  141.5760 C   0  0  0  0  0  0  0  0  0  0  0  0
  187.2290  177.2470  145.9960 C   0  0  1  0  0  3  0  0  0  0  0  0
  189.2310  176.1720  147.0850 C   0  0  2  0  0  3  0  0  0  0  0  0
  188.3670  175.4800  140.9390 C   0  0  2  0  0  3  0  0  0  0  0  0
  187.8300  177.0570  142.8530 N   0  0  0  0  0  0  0  0  0  0  0  0
  192.7910  173.3050  143.4050 C   0  0  0  0  0  2  0  0  0  0  0  0
  186.3520  176.8900  147.1820 C   0  0  0  0  0  2  0  0  0  0  0  0
  184.9810  177.7070  145.3260 C   0  0  0  0  0  2  0  0  0  0  0  0
  191.9830  174.0900  141.3470 O   0  0  0  0  0  0  0  0  0  0  0  0
  190.7930  176.6630  145.3890 C   0  0  2  0  0  3  0  0  0  0  0  0
  192.0740  173.0470  144.7220 C   0  0  0  0  0  2  0  0  0  0  0  0
  191.2640  175.4220  143.1840 C   0  0  2  0  0  3  0  0  0  0  0  0
  189.4120  177.0390  144.8690 C   0  0  2  0  0  3  0  0  0  0  0  0
  189.0730  174.7580  147.6110 C   0  0  0  0  0  1  0  0  0  0  0  0
  188.4400  176.3360  145.7920 C   0  0  2  0  0  3  0  0  0  0  0  0
  184.9630  177.4010  146.8180 C   0  0  0  0  0  2  0  0  0  0  0  0
  186.4910  178.9320  143.2490 O   0  0  0  0  0  0  0  0  0  0  0  0
  191.7130  174.3380  145.3940 C   0  0  0  0  0  3  0  0  0  0  0  0
  191.3090  175.4180  144.6960 C   0  0  0  0  0  0  0  0  0  0  0  0
  186.8520  177.7790  143.6100 C   0  0  0  0  0  0  0  0  0  0  0  0
  187.8430  174.0630  141.1730 C   0  0  0  0  0  2  0  0  0  0  0  0
  189.3140  172.1840  141.1330 O   0  0  0  0  0  1  0  0  0  0  0  0
  188.5950  173.0570  140.3190 C   0  0  0  0  0  2  0  0  0  0  0  0
  1  5  1  6  0  0  0
  1 19  1  0  0  0  0
  1  4  1  0  0  0  0
  2 13  1  0  0  0  0
  3 10  1  0  0  0  0
  4 12  1  1  0  0  0
  4 20  1  0  0  0  0
  6  8  2  0  0  0  0
  7 15  1  1  0  0  0
  7  9  1  0  0  0  0
  8 12  1  0  0  0  0
  9 14  1  1  0  0  0
 10 21  1  6  0  0  0
 11 28  1  1  0  0  0
 11  5  1  0  0  0  0
 11  8  1  0  0  0  0
 12 27  1  0  0  0  0
 13 18  1  0  0  0  0
 15 23  1  0  0  0  0
 16  2  2  0  0  0  0
 17 26  1  6  0  0  0
 17  3  1  0  0  0  0
 18 25  1  0  0  0  0
 19  2  1  1  0  0  0
 19 26  1  0  0  0  0
 20 17  1  0  0  0  0
 20 22  1  0  0  0  0
 22  9  1  0  0  0  0
 22 10  1  0  0  0  0
 23 14  1  0  0  0  0
 24 27  2  0  0  0  0
 26 25  2  0  0  0  0
 27  7  1  0  0  0  0
 30 29  1  0  0  0  0
 30 28  1  0  0  0  0
M  END
>  <MODEL>
2

>  <REMARK>
 VINA RESULT:      -7.8      1.939      3.304
  Name = 
  2 active torsions:
  status: ('A' for Active; 'I' for Inactive)
    1  A    between atoms: C_11  and  C_28
    2  A    between atoms: C_28  and  C_30
                            x       y       z     vdW  Elec       q    Type
                         _______ _______ _______ _____ _____    ______ ____

>  <TORSDO>
F 2

$$$$
=
 OpenBabel11112416263D

 30 35  0  0  1  0  0  0  0  0999 V2000
  191.3640  174.7060  142.9100 C   0  0  1  0  0  3  0  0  0  0  0  0
  193.5030  173.3150  143.0180 C   0  0  0  0  0  0  0  0  0  0  0  0
  192.4320  176.7180  146.5060 N   0  0  0  0  0  2  0  0  0  0  0  0
  190.8210  176.1340  143.1170 C   0  0  1  0  0  3  0  0  0  0  0  0
  191.2070  174.3560  141.5500 O   0  0  0  0  0  0  0  0  0  0  0  0
  187.8870  175.5090  141.0350 O   0  0  0  0  0  0  0  0  0  0  0  0
  187.9880  176.9170  144.5970 C   0  0  1  0  0  3  0  0  0  0  0  0
  188.9910  175.3340  141.6180 C   0  0  0  0  0  0  0  0  0  0  0  0
  188.9900  177.3400  145.6330 C   0  0  1  0  0  3  0  0  0  0  0  0
  191.0290  176.5690  146.8970 C   0  0  2  0  0  3  0  0  0  0  0  0
  189.8350  174.1390  141.2700 C   0  0  2  0  0  3  0  0  0  0  0  0
  189.4230  176.2220  142.6600 N   0  0  0  0  0  0  0  0  0  0  0  0
  194.3470  172.6480  144.0620 C   0  0  0  0  0  2  0  0  0  0  0  0
  188.1710  177.3710  146.9100 C   0  0  0  0  0  2  0  0  0  0  0  0
  186.7170  177.6510  144.9610 C   0  0  0  0  0  2  0  0  0  0  0  0
  193.4440  172.8220  141.9020 O   0  0  0  0  0  0  0  0  0  0  0  0
  192.5070  176.4970  145.0620 C   0  0  2  0  0  3  0  0  0  0  0  0
  193.6960  172.8070  145.4270 C   0  0  0  0  0  2  0  0  0  0  0  0
  192.8430  174.6530  143.3000 C   0  0  2  0  0  3  0  0  0  0  0  0
  191.1070  176.7470  144.5190 C   0  0  2  0  0  3  0  0  0  0  0  0
  190.8760  175.3770  147.8210 C   0  0  0  0  0  1  0  0  0  0  0  0
  190.1740  176.3730  145.6500 C   0  0  2  0  0  3  0  0  0  0  0  0
  186.7730  177.7950  146.4760 C   0  0  0  0  0  2  0  0  0  0  0  0
  188.1350  178.1710  142.5490 O   0  0  0  0  0  0  0  0  0  0  0  0
  193.3900  174.2490  145.7070 C   0  0  0  0  0  3  0  0  0  0  0  0
  192.9670  175.0890  144.7420 C   0  0  0  0  0  0  0  0  0  0  0  0
  188.4970  177.1630  143.2150 C   0  0  0  0  0  0  0  0  0  0  0  0
  189.3010  172.8690  141.9330 C   0  0  0  0  0  2  0  0  0  0  0  0
  190.6590  170.9860  142.4900 O   0  0  0  0  0  1  0  0  0  0  0  0
  190.0390  171.6420  141.4260 C   0  0  0  0  0  2  0  0  0  0  0  0
  1  5  1  6  0  0  0
  1  4  1  0  0  0  0
  1 19  1  0  0  0  0
  2 13  1  0  0  0  0
  3 10  1  0  0  0  0
  4 12  1  1  0  0  0
  4 20  1  0  0  0  0
  6  8  2  0  0  0  0
  7 15  1  1  0  0  0
  7  9  1  0  0  0  0
  8 12  1  0  0  0  0
  9 22  1  0  0  0  0
  9 14  1  1  0  0  0
 10 21  1  1  0  0  0
 11  5  1  0  0  0  0
 11  8  1  0  0  0  0
 11 28  1  1  0  0  0
 12 27  1  0  0  0  0
 13 18  1  0  0  0  0
 15 23  1  0  0  0  0
 16  2  2  0  0  0  0
 17 26  1  1  0  0  0
 17  3  1  0  0  0  0
 18 25  1  0  0  0  0
 19  2  1  1  0  0  0
 19 26  1  0  0  0  0
 20 17  1  0  0  0  0
 20 22  1  0  0  0  0
 22 10  1  0  0  0  0
 23 14  1  0  0  0  0
 24 27  2  0  0  0  0
 26 25  2  0  0  0  0
 27  7  1  0  0  0  0
 30 28  1  0  0  0  0
 30 29  1  0  0  0  0
M  END
>  <MODEL>
3

>  <REMARK>
 VINA RESULT:      -7.6      2.503      4.022
  Name = 
  2 active torsions:
  status: ('A' for Active; 'I' for Inactive)
    1  A    between atoms: C_11  and  C_28
    2  A    between atoms: C_28  and  C_30
                            x       y       z     vdW  Elec       q    Type
                         _______ _______ _______ _____ _____    ______ ____

>  <TORSDO>
F 2

$$$$
=
 OpenBabel11112416263D

 30 35  0  0  1  0  0  0  0  0999 V2000
  188.5300  175.7020  143.9580 C   0  0  1  0  0  3  0  0  0  0  0  0
  187.4330  176.7580  146.0080 C   0  0  0  0  0  0  0  0  0  0  0  0
  191.9760  174.7100  146.2490 N   0  0  0  0  0  2  0  0  0  0  0  0
  189.3620  174.4870  143.5040 C   0  0  1  0  0  3  0  0  0  0  0  0
  187.2730  175.6550  143.3120 O   0  0  0  0  0  0  0  0  0  0  0  0
  188.3430  174.8650  140.0180 O   0  0  0  0  0  0  0  0  0  0  0  0
  191.9000  174.5670  141.4120 C   0  0  1  0  0  3  0  0  0  0  0  0
  188.4170  175.0520  141.2630 C   0  0  0  0  0  0  0  0  0  0  0  0
  192.6020  174.3350  142.7180 C   0  0  1  0  0  3  0  0  0  0  0  0
  192.7590  175.1580  145.0950 C   0  0  2  0  0  3  0  0  0  0  0  0
  187.4320  175.9650  141.9380 C   0  0  2  0  0  3  0  0  0  0  0  0
  189.4730  174.4590  142.0350 N   0  0  0  0  0  0  0  0  0  0  0  0
  187.8440  177.5810  147.1910 C   0  0  0  0  0  2  0  0  0  0  0  0
  194.0200  174.7930  142.4330 C   0  0  0  0  0  2  0  0  0  0  0  0
  192.8980  174.1530  140.3530 C   0  0  0  0  0  2  0  0  0  0  0  0
  186.3120  176.9050  145.5480 O   0  0  0  0  0  0  0  0  0  0  0  0
  190.6080  174.4850  145.7860 C   0  0  2  0  0  3  0  0  0  0  0  0
  189.3230  177.9210  147.0930 C   0  0  0  0  0  2  0  0  0  0  0  0
  188.3430  175.6650  145.4760 C   0  0  2  0  0  3  0  0  0  0  0  0
  190.6950  174.2800  144.2800 C   0  0  2  0  0  3  0  0  0  0  0  0
  193.2390  176.5780  145.3190 C   0  0  0  0  0  1  0  0  0  0  0  0
  191.8940  175.0940  143.8420 C   0  0  2  0  0  3  0  0  0  0  0  0
  194.2590  174.4550  140.9660 C   0  0  0  0  0  2  0  0  0  0  0  0
  190.4510  172.7590  140.7640 O   0  0  0  0  0  0  0  0  0  0  0  0
  190.1420  176.6810  146.8870 C   0  0  0  0  0  3  0  0  0  0  0  0
  189.7110  175.6600  146.1200 C   0  0  0  0  0  0  0  0  0  0  0  0
  190.5860  173.8590  141.3650 C   0  0  0  0  0  0  0  0  0  0  0  0
  187.7890  177.4340  141.7130 C   0  0  0  0  0  2  0  0  0  0  0  0
  186.3530  178.9800  142.8290 O   0  0  0  0  0  1  0  0  0  0  0  0
  186.5370  178.2910  141.6310 C   0  0  0  0  0  2  0  0  0  0  0  0
  1  5  1  6  0  0  0
  1 19  1  0  0  0  0
  2 13  1  0  0  0  0
  4 12  1  6  0  0  0
  4  1  1  0  0  0  0
  4 20  1  0  0  0  0
  6  8  2  0  0  0  0
  7 15  1  6  0  0  0
  7  9  1  0  0  0  0
  8 11  1  0  0  0  0
  8 12  1  0  0  0  0
  9 14  1  6  0  0  0
  9 22  1  0  0  0  0
 10 21  1  1  0  0  0
 10  3  1  0  0  0  0
 11 28  1  1  0  0  0
 11  5  1  0  0  0  0
 15 23  1  0  0  0  0
 16  2  2  0  0  0  0
 17 26  1  6  0  0  0
 17  3  1  0  0  0  0
 18 13  1  0  0  0  0
 19  2  1  1  0  0  0
 19 26  1  0  0  0  0
 20 17  1  0  0  0  0
 22 20  1  0  0  0  0
 22 10  1  0  0  0  0
 23 14  1  0  0  0  0
 24 27  2  0  0  0  0
 25 18  1  0  0  0  0
 26 25  2  0  0  0  0
 27  7  1  0  0  0  0
 27 12  1  0  0  0  0
 30 28  1  0  0  0  0
 30 29  1  0  0  0  0
M  END
>  <MODEL>
4

>  <REMARK>
 VINA RESULT:      -6.9      2.761      5.738
  Name = 
  2 active torsions:
  status: ('A' for Active; 'I' for Inactive)
    1  A    between atoms: C_11  and  C_28
    2  A    between atoms: C_28  and  C_30
                            x       y       z     vdW  Elec       q    Type
                         _______ _______ _______ _____ _____    ______ ____

>  <TORSDO>
F 2

$$$$
=
 OpenBabel11112416263D

 30 35  0  0  1  0  0  0  0  0999 V2000
  187.0050  176.5730  144.4490 C   0  0  1  0  0  3  0  0  0  0  0  0
  185.3720  177.5070  146.1770 C   0  0  0  0  0  0  0  0  0  0  0  0
  189.7790  175.5940  147.5250 N   0  0  0  0  0  2  0  0  0  0  0  0
  187.9750  175.4050  144.1880 C   0  0  1  0  0  3  0  0  0  0  0  0
  185.9610  176.5140  143.4970 O   0  0  0  0  0  0  0  0  0  0  0  0
  187.8780  175.8980  140.5720 O   0  0  0  0  0  0  0  0  0  0  0  0
  190.9630  175.6520  142.8320 C   0  0  1  0  0  3  0  0  0  0  0  0
  187.6200  176.0340  141.7980 C   0  0  0  0  0  0  0  0  0  0  0  0
  191.3120  175.3880  144.2680 C   0  0  1  0  0  3  0  0  0  0  0  0
  190.8140  176.1140  146.6290 C   0  0  2  0  0  3  0  0  0  0  0  0
  186.4570  176.8860  142.2230 C   0  0  2  0  0  3  0  0  0  0  0  0
  188.4630  175.4420  142.7990 N   0  0  0  0  0  0  0  0  0  0  0  0
  185.4290  178.2920  147.4520 C   0  0  0  0  0  2  0  0  0  0  0  0
  192.7350  175.9010  144.3760 C   0  0  0  0  0  2  0  0  0  0  0  0
  192.2170  175.3150  142.0570 C   0  0  0  0  0  2  0  0  0  0  0  0
  184.4030  177.6380  145.4460 O   0  0  0  0  0  0  0  0  0  0  0  0
  188.5870  175.3460  146.7150 C   0  0  2  0  0  3  0  0  0  0  0  0
  186.8680  178.6820  147.7530 C   0  0  0  0  0  2  0  0  0  0  0  0
  186.4330  176.4670  145.8650 C   0  0  2  0  0  3  0  0  0  0  0  0
  189.0700  175.2070  145.2770 C   0  0  2  0  0  3  0  0  0  0  0  0
  191.1610  177.5380  147.0170 C   0  0  0  0  0  1  0  0  0  0  0  0
  190.3060  176.0760  145.1930 C   0  0  2  0  0  3  0  0  0  0  0  0
  193.3600  175.6330  143.0120 C   0  0  0  0  0  2  0  0  0  0  0  0
  189.8070  173.8290  141.7710 O   0  0  0  0  0  0  0  0  0  0  0  0
  187.7630  177.4780  147.7270 C   0  0  0  0  0  3  0  0  0  0  0  0
  187.5870  176.4770  146.8420 C   0  0  0  0  0  0  0  0  0  0  0  0
  189.7360  174.9060  142.4230 C   0  0  0  0  0  0  0  0  0  0  0  0
  186.8000  178.3740  142.1460 C   0  0  0  0  0  2  0  0  0  0  0  0
  185.9310  179.9370  143.7280 O   0  0  0  0  0  1  0  0  0  0  0  0
  185.6160  179.2260  142.5700 C   0  0  0  0  0  2  0  0  0  0  0  0
  1  5  1  6  0  0  0
  1 19  1  0  0  0  0
  2 13  1  0  0  0  0
  4 12  1  6  0  0  0
  4  1  1  0  0  0  0
  4 20  1  0  0  0  0
  6  8  2  0  0  0  0
  7 15  1  6  0  0  0
  7  9  1  0  0  0  0
  8 11  1  0  0  0  0
  8 12  1  0  0  0  0
  9 14  1  1  0  0  0
  9 22  1  0  0  0  0
 10 21  1  1  0  0  0
 10  3  1  0  0  0  0
 11 28  1  1  0  0  0
 11  5  1  0  0  0  0
 13 18  1  0  0  0  0
 15 23  1  0  0  0  0
 16  2  2  0  0  0  0
 17 26  1  6  0  0  0
 17  3  1  0  0  0  0
 19  2  1  1  0  0  0
 19 26  1  0  0  0  0
 20 17  1  0  0  0  0
 22 20  1  0  0  0  0
 22 10  1  0  0  0  0
 23 14  1  0  0  0  0
 24 27  2  0  0  0  0
 25 18  1  0  0  0  0
 26 25  2  0  0  0  0
 27 12  1  0  0  0  0
 27  7  1  0  0  0  0
 28 30  1  0  0  0  0
 30 29  1  0  0  0  0
M  END
>  <MODEL>
5

>  <REMARK>
 VINA RESULT:      -6.9      2.450      5.488
  Name = 
  2 active torsions:
  status: ('A' for Active; 'I' for Inactive)
    1  A    between atoms: C_11  and  C_28
    2  A    between atoms: C_28  and  C_30
                            x       y       z     vdW  Elec       q    Type
                         _______ _______ _______ _____ _____    ______ ____

>  <TORSDO>
F 2

$$$$
=
 OpenBabel11112416263D

 30 35  0  0  1  0  0  0  0  0999 V2000
  191.8440  174.0920  145.1410 C   0  0  1  0  0  3  0  0  0  0  0  0
  193.7800  172.5070  144.6300 C   0  0  0  0  0  0  0  0  0  0  0  0
  189.4260  172.1640  142.2170 N   0  0  0  0  0  2  0  0  0  0  0  0
  190.3160  174.1350  145.3390 C   0  0  1  0  0  3  0  0  0  0  0  0
  192.4660  174.4580  146.3570 O   0  0  0  0  0  0  0  0  0  0  0  0
  190.4670  177.2660  147.2120 O   0  0  0  0  0  0  0  0  0  0  0  0
  188.2890  176.4460  144.1670 C   0  0  1  0  0  3  0  0  0  0  0  0
  190.8350  176.2340  146.5880 C   0  0  0  0  0  0  0  0  0  0  0  0
  187.9620  175.2860  143.2720 C   0  0  1  0  0  3  0  0  0  0  0  0
  188.9980  173.5070  141.8190 C   0  0  2  0  0  3  0  0  0  0  0  0
  192.2870  175.8450  146.5850 C   0  0  2  0  0  3  0  0  0  0  0  0
  189.8970  175.4620  145.8220 N   0  0  0  0  0  0  0  0  0  0  0  0
  194.3880  171.8420  143.4320 C   0  0  0  0  0  2  0  0  0  0  0  0
  187.3310  175.9510  142.0640 C   0  0  0  0  0  2  0  0  0  0  0  0
  187.1100  177.3850  144.0350 C   0  0  0  0  0  2  0  0  0  0  0  0
  194.5000  172.8060  145.5690 O   0  0  0  0  0  0  0  0  0  0  0  0
  190.0300  172.2760  143.5440 C   0  0  2  0  0  3  0  0  0  0  0  0
  193.6730  172.3010  142.1710 C   0  0  0  0  0  2  0  0  0  0  0  0
  192.2750  172.6820  144.7320 C   0  0  2  0  0  3  0  0  0  0  0  0
  189.4860  173.5610  144.1540 C   0  0  2  0  0  3  0  0  0  0  0  0
  189.7890  173.9600  140.6070 C   0  0  0  0  0  1  0  0  0  0  0  0
  189.2230  174.4740  142.9760 C   0  0  2  0  0  3  0  0  0  0  0  0
  186.6010  177.1700  142.6160 C   0  0  0  0  0  2  0  0  0  0  0  0
  187.7360  176.0660  146.4770 O   0  0  0  0  0  0  0  0  0  0  0  0
  192.1910  172.1090  142.2980 C   0  0  0  0  0  3  0  0  0  0  0  0
  191.5420  172.3140  143.4620 C   0  0  0  0  0  0  0  0  0  0  0  0
  188.5940  175.9940  145.5570 C   0  0  0  0  0  0  0  0  0  0  0  0
  193.0920  176.7020  145.6090 C   0  0  0  0  0  2  0  0  0  0  0  0
  195.3260  176.0080  145.1350 O   0  0  0  0  0  1  0  0  0  0  0  0
  194.5530  176.7640  146.0170 C   0  0  0  0  0  2  0  0  0  0  0  0
  1  4  1  0  0  0  0
  1  5  1  1  0  0  0
  2 19  1  0  0  0  0
  2 16  2  0  0  0  0
  4 12  1  6  0  0  0
  5 11  1  0  0  0  0
  7 15  1  1  0  0  0
  7 27  1  0  0  0  0
  8  6  2  0  0  0  0
  9 14  1  6  0  0  0
  9  7  1  0  0  0  0
 10 21  1  6  0  0  0
 10  3  1  0  0  0  0
 10 22  1  0  0  0  0
 11 28  1  6  0  0  0
 11  8  1  0  0  0  0
 12  8  1  0  0  0  0
 13  2  1  0  0  0  0
 14 23  1  0  0  0  0
 17  3  1  6  0  0  0
 17 20  1  0  0  0  0
 18 25  1  0  0  0  0
 18 13  1  0  0  0  0
 19 26  1  6  0  0  0
 19  1  1  0  0  0  0
 20  4  1  0  0  0  0
 22  9  1  0  0  0  0
 22 20  1  0  0  0  0
 23 15  1  0  0  0  0
 25 26  2  0  0  0  0
 26 17  1  0  0  0  0
 27 12  1  0  0  0  0
 27 24  2  0  0  0  0
 28 30  1  0  0  0  0
 29 30  1  0  0  0  0
M  END
>  <MODEL>
6

>  <REMARK>
 VINA RESULT:      -6.8      2.975      5.810
  Name = 
  2 active torsions:
  status: ('A' for Active; 'I' for Inactive)
    1  A    between atoms: C_11  and  C_28
    2  A    between atoms: C_28  and  C_30
                            x       y       z     vdW  Elec       q    Type
                         _______ _______ _______ _____ _____    ______ ____

>  <TORSDO>
F 2

$$$$
=
 OpenBabel11112416263D

 30 35  0  0  1  0  0  0  0  0999 V2000
  191.5270  174.4460  144.1860 C   0  0  1  0  0  3  0  0  0  0  0  0
  193.0370  173.2180  142.5320 C   0  0  0  0  0  0  0  0  0  0  0  0
  188.1230  173.6190  141.7680 N   0  0  0  0  0  2  0  0  0  0  0  0
  190.1570  174.3620  144.8880 C   0  0  1  0  0  3  0  0  0  0  0  0
  192.5420  174.3700  145.1670 O   0  0  0  0  0  0  0  0  0  0  0  0
  191.1950  176.6110  147.5700 O   0  0  0  0  0  0  0  0  0  0  0  0
  188.0780  176.8690  145.3550 C   0  0  1  0  0  3  0  0  0  0  0  0
  191.2440  175.8870  146.5390 C   0  0  0  0  0  0  0  0  0  0  0  0
  187.3730  176.0980  144.2760 C   0  0  1  0  0  3  0  0  0  0  0  0
  187.7140  174.9990  142.0340 C   0  0  2  0  0  3  0  0  0  0  0  0
  192.5740  175.5750  145.9120 C   0  0  2  0  0  3  0  0  0  0  0  0
  190.0410  175.4110  145.9150 N   0  0  0  0  0  0  0  0  0  0  0  0
  193.1590  173.0510  141.0480 C   0  0  0  0  0  2  0  0  0  0  0  0
  186.4460  177.1320  143.6650 C   0  0  0  0  0  2  0  0  0  0  0  0
  187.0120  177.7520  145.9640 C   0  0  0  0  0  2  0  0  0  0  0  0
  194.0490  173.1840  143.2150 O   0  0  0  0  0  0  0  0  0  0  0  0
  189.1340  173.2650  142.7640 C   0  0  2  0  0  3  0  0  0  0  0  0
  192.1170  173.9080  140.3460 C   0  0  0  0  0  2  0  0  0  0  0  0
  191.6710  173.2930  143.1890 C   0  0  2  0  0  3  0  0  0  0  0  0
  188.9380  174.2250  143.9300 C   0  0  2  0  0  3  0  0  0  0  0  0
  188.1040  175.8850  140.8670 C   0  0  0  0  0  1  0  0  0  0  0  0
  188.3900  175.4910  143.3080 C   0  0  2  0  0  3  0  0  0  0  0  0
  186.0510  178.0440  144.8190 C   0  0  0  0  0  2  0  0  0  0  0  0
  188.2760  175.6630  147.4270 O   0  0  0  0  0  0  0  0  0  0  0  0
  190.7460  173.6320  140.8890 C   0  0  0  0  0  3  0  0  0  0  0  0
  190.5330  173.3830  142.1970 C   0  0  0  0  0  0  0  0  0  0  0  0
  188.7770  175.9570  146.3080 C   0  0  0  0  0  0  0  0  0  0  0  0
  193.0910  176.7540  145.0880 C   0  0  0  0  0  2  0  0  0  0  0  0
  194.5410  177.4340  146.8580 O   0  0  0  0  0  1  0  0  0  0  0  0
  194.5050  177.1250  145.4990 C   0  0  0  0  0  2  0  0  0  0  0  0
  1  4  1  0  0  0  0
  1  5  1  1  0  0  0
  2 19  1  0  0  0  0
  2 16  2  0  0  0  0
  3 10  1  0  0  0  0
  4 12  1  6  0  0  0
  5 11  1  0  0  0  0
  7 15  1  1  0  0  0
  7 27  1  0  0  0  0
  8  6  2  0  0  0  0
  9 14  1  6  0  0  0
  9  7  1  0  0  0  0
 10 21  1  6  0  0  0
 10 22  1  0  0  0  0
 11 28  1  6  0  0  0
 11  8  1  0  0  0  0
 12 27  1  0  0  0  0
 12  8  1  0  0  0  0
 13  2  1  0  0  0  0
 14 23  1  0  0  0  0
 17  3  1  6  0  0  0
 17 20  1  0  0  0  0
 18 25  1  0  0  0  0
 18 13  1  0  0  0  0
 19 26  1  6  0  0  0
 19  1  1  0  0  0  0
 20  4  1  0  0  0  0
 22 20  1  0  0  0  0
 22  9  1  0  0  0  0
 23 15  1  0  0  0  0
 25 26  2  0  0  0  0
 26 17  1  0  0  0  0
 27 24  2  0  0  0  0
 28 30  1  0  0  0  0
 30 29  1  0  0  0  0
M  END
>  <MODEL>
7

>  <REMARK>
 VINA RESULT:      -6.8      2.904      5.648
  Name = 
  2 active torsions:
  status: ('A' for Active; 'I' for Inactive)
    1  A    between atoms: C_11  and  C_28
    2  A    between atoms: C_28  and  C_30
                            x       y       z     vdW  Elec       q    Type
                         _______ _______ _______ _____ _____    ______ ____

>  <TORSDO>
F 2

$$$$
=
 OpenBabel11112416263D

 30 35  0  0  1  0  0  0  0  0999 V2000
  190.8810  174.0610  143.7580 C   0  0  1  0  0  3  0  0  0  0  0  0
  189.0210  175.7970  143.5470 C   0  0  0  0  0  0  0  0  0  0  0  0
  192.6300  176.2500  146.9620 N   0  0  0  0  0  2  0  0  0  0  0  0
  191.7090  173.2720  144.7920 C   0  0  1  0  0  3  0  0  0  0  0  0
  190.1110  173.1460  143.0050 O   0  0  0  0  0  0  0  0  0  0  0  0
  192.5890  170.6800  142.3760 O   0  0  0  0  0  0  0  0  0  0  0  0
  194.9440  172.6940  144.6310 C   0  0  1  0  0  3  0  0  0  0  0  0
  192.0550  171.7060  142.8790 C   0  0  0  0  0  0  0  0  0  0  0  0
  194.8820  173.7200  145.7260 C   0  0  1  0  0  3  0  0  0  0  0  0
  193.9200  175.9700  146.3270 C   0  0  2  0  0  3  0  0  0  0  0  0
  190.9570  172.4130  142.1350 C   0  0  2  0  0  3  0  0  0  0  0  0
  192.5280  172.2480  144.1220 N   0  0  0  0  0  0  0  0  0  0  0  0
  188.8690  177.2850  143.6470 C   0  0  0  0  0  2  0  0  0  0  0  0
  196.2910  174.2790  145.7540 C   0  0  0  0  0  2  0  0  0  0  0  0
  196.2900  172.0250  144.7980 C   0  0  0  0  0  2  0  0  0  0  0  0
  188.2940  175.1800  142.7840 O   0  0  0  0  0  0  0  0  0  0  0  0
  191.6560  175.3180  146.3970 C   0  0  2  0  0  3  0  0  0  0  0  0
  190.2280  177.9260  143.8830 C   0  0  0  0  0  2  0  0  0  0  0  0
  189.9650  175.0550  144.4750 C   0  0  2  0  0  3  0  0  0  0  0  0
  192.4570  174.1490  145.8380 C   0  0  2  0  0  3  0  0  0  0  0  0
  194.3600  177.1660  145.5070 C   0  0  0  0  0  1  0  0  0  0  0  0
  193.7870  174.7450  145.4290 C   0  0  2  0  0  3  0  0  0  0  0  0
  197.1910  173.1090  145.3750 C   0  0  0  0  0  2  0  0  0  0  0  0
  193.8400  170.6290  145.1820 O   0  0  0  0  0  0  0  0  0  0  0  0
  190.9190  177.2940  145.0550 C   0  0  0  0  0  3  0  0  0  0  0  0
  190.8280  175.9740  145.3110 C   0  0  0  0  0  0  0  0  0  0  0  0
  193.7640  171.7800  144.6720 C   0  0  0  0  0  0  0  0  0  0  0  0
  191.5180  173.2790  141.0060 C   0  0  0  0  0  2  0  0  0  0  0  0
  189.7460  172.3150  139.7300 O   0  0  0  0  0  1  0  0  0  0  0  0
  190.4830  173.4850  139.9140 C   0  0  0  0  0  2  0  0  0  0  0  0
  1  5  1  1  0  0  0
  1 19  1  0  0  0  0
  1  4  1  0  0  0  0
  2 13  1  0  0  0  0
  4 12  1  6  0  0  0
  4 20  1  0  0  0  0
  6  8  2  0  0  0  0
  7 27  1  0  0  0  0
  7 15  1  1  0  0  0
  7  9  1  0  0  0  0
  8 12  1  0  0  0  0
  9 14  1  6  0  0  0
 10 21  1  6  0  0  0
 10  3  1  0  0  0  0
 11 28  1  6  0  0  0
 11  8  1  0  0  0  0
 11  5  1  0  0  0  0
 12 27  1  0  0  0  0
 13 18  1  0  0  0  0
 15 23  1  0  0  0  0
 16  2  2  0  0  0  0
 17 26  1  6  0  0  0
 17  3  1  0  0  0  0
 18 25  1  0  0  0  0
 19  2  1  6  0  0  0
 19 26  1  0  0  0  0
 20 17  1  0  0  0  0
 22  9  1  0  0  0  0
 22 20  1  0  0  0  0
 22 10  1  0  0  0  0
 23 14  1  0  0  0  0
 25 26  2  0  0  0  0
 27 24  2  0  0  0  0
 29 30  1  0  0  0  0
 30 28  1  0  0  0  0
M  END
>  <MODEL>
8

>  <REMARK>
 VINA RESULT:      -6.8      3.763      7.464
  Name = 
  2 active torsions:
  status: ('A' for Active; 'I' for Inactive)
    1  A    between atoms: C_11  and  C_28
    2  A    between atoms: C_28  and  C_30
                            x       y       z     vdW  Elec       q    Type
                         _______ _______ _______ _____ _____    ______ ____

>  <TORSDO>
F 2

$$$$
=
 OpenBabel11112416263D

 30 35  0  0  1  0  0  0  0  0999 V2000
  193.6370  173.9170  144.3830 C   0  0  1  0  0  3  0  0  0  0  0  0
  194.7150  172.2510  142.7740 C   0  0  0  0  0  0  0  0  0  0  0  0
  189.7860  172.3040  143.5530 N   0  0  0  0  0  2  0  0  0  0  0  0
  192.5610  174.0380  145.4800 C   0  0  1  0  0  3  0  0  0  0  0  0
  194.9010  174.1750  144.9600 O   0  0  0  0  0  0  0  0  0  0  0  0
  194.0830  177.0430  146.8890 O   0  0  0  0  0  0  0  0  0  0  0  0
  190.4380  176.5270  145.8260 C   0  0  1  0  0  3  0  0  0  0  0  0
  193.9060  176.0280  146.1620 C   0  0  0  0  0  0  0  0  0  0  0  0
  189.5380  175.4410  145.3120 C   0  0  1  0  0  3  0  0  0  0  0  0
  189.3160  173.6900  143.5140 C   0  0  2  0  0  3  0  0  0  0  0  0
  195.0130  175.5550  145.2620 C   0  0  2  0  0  3  0  0  0  0  0  0
  192.6360  175.3580  146.1300 N   0  0  0  0  0  0  0  0  0  0  0  0
  194.4040  171.6210  141.4500 C   0  0  0  0  0  2  0  0  0  0  0  0
  188.3550  176.2090  144.7550 C   0  0  0  0  0  2  0  0  0  0  0  0
  189.5070  177.5400  146.4550 C   0  0  0  0  0  2  0  0  0  0  0  0
  195.8810  172.4530  143.0720 O   0  0  0  0  0  0  0  0  0  0  0  0
  191.0840  172.3040  144.2270 C   0  0  2  0  0  3  0  0  0  0  0  0
  193.1050  172.1920  140.9010 C   0  0  0  0  0  2  0  0  0  0  0  0
  193.6100  172.5090  143.7830 C   0  0  2  0  0  3  0  0  0  0  0  0
  191.1360  173.5820  145.0530 C   0  0  2  0  0  3  0  0  0  0  0  0
  189.2300  174.1630  142.0760 C   0  0  0  0  0  1  0  0  0  0  0  0
  190.2810  174.5740  144.2950 C   0  0  2  0  0  3  0  0  0  0  0  0
  188.2200  177.4360  145.6490 C   0  0  0  0  0  2  0  0  0  0  0  0
  191.3900  176.0490  147.9830 O   0  0  0  0  0  0  0  0  0  0  0  0
  192.0040  172.0800  141.9130 C   0  0  0  0  0  3  0  0  0  0  0  0
  192.2250  172.2580  143.2310 C   0  0  0  0  0  0  0  0  0  0  0  0
  191.4940  175.9790  146.7280 C   0  0  0  0  0  0  0  0  0  0  0  0
  195.1160  176.4180  144.0040 C   0  0  0  0  0  2  0  0  0  0  0  0
  197.2110  177.1650  143.1380 O   0  0  0  0  0  1  0  0  0  0  0  0
  196.3570  176.0650  143.2030 C   0  0  0  0  0  2  0  0  0  0  0  0
  1  5  1  1  0  0  0
  1  4  1  0  0  0  0
  2 16  2  0  0  0  0
  3 17  1  0  0  0  0
  4 12  1  6  0  0  0
  5 11  1  0  0  0  0
  7 15  1  1  0  0  0
  7 27  1  0  0  0  0
  8  6  2  0  0  0  0
  9 14  1  6  0  0  0
  9  7  1  0  0  0  0
 10 21  1  6  0  0  0
 10  3  1  0  0  0  0
 10 22  1  0  0  0  0
 11 28  1  6  0  0  0
 11  8  1  0  0  0  0
 12  8  1  0  0  0  0
 12 27  1  0  0  0  0
 13  2  1  0  0  0  0
 14 23  1  0  0  0  0
 17 26  1  6  0  0  0
 17 20  1  0  0  0  0
 18 13  1  0  0  0  0
 18 25  1  0  0  0  0
 19  2  1  6  0  0  0
 19  1  1  0  0  0  0
 20  4  1  0  0  0  0
 22 20  1  0  0  0  0
 22  9  1  0  0  0  0
 23 15  1  0  0  0  0
 25 26  2  0  0  0  0
 26 19  1  0  0  0  0
 27 24  2  0  0  0  0
 29 30  1  0  0  0  0
 30 28  1  0  0  0  0
M  END
>  <MODEL>
9

>  <REMARK>
 VINA RESULT:      -6.6      4.198      6.915
  Name = 
  2 active torsions:
  status: ('A' for Active; 'I' for Inactive)
    1  A    between atoms: C_11  and  C_28
    2  A    between atoms: C_28  and  C_30
                            x       y       z     vdW  Elec       q    Type
                         _______ _______ _______ _____ _____    ______ ____

>  <TORSDO>
F 2

$$$$
