=
 OpenBabel11112416123D

 30 35  0  0  1  0  0  0  0  0999 V2000
  187.2170  176.5410  144.4020 C   0  0  0  0  0  0  0  0  0  0  0  0
  185.3790  177.9660  145.2880 C   0  0  0  0  0  0  0  0  0  0  0  0
  189.6510  177.4160  147.7170 N   0  0  0  0  0  2  0  0  0  0  0  0
  188.5030  175.9720  144.5740 C   0  0  0  0  0  0  0  0  0  0  0  0
  186.4920  176.2500  143.2370 O   0  0  0  0  0  0  0  0  0  0  0  0
  188.2650  173.7070  141.7300 O   0  0  0  0  0  0  0  0  0  0  0  0
  191.2110  176.3390  143.5060 C   0  0  1  0  0  3  0  0  0  0  0  0
  188.1370  174.7060  142.4190 C   0  0  0  0  0  0  0  0  0  0  0  0
  191.5870  176.5680  144.9760 C   0  0  2  0  0  3  0  0  0  0  0  0
  190.7970  176.6580  147.3350 C   0  0  0  0  0  0  0  0  0  0  0  0
  187.1040  175.7280  142.0580 C   0  0  2  0  0  3  0  0  0  0  0  0
  189.0220  174.9140  143.6170 C   0  0  1  0  0  3  0  0  0  0  0  0
  184.8960  178.8160  146.2870 C   0  0  0  0  0  3  0  0  0  0  0  0
  193.0080  176.0750  145.1150 C   0  0  0  0  0  2  0  0  0  0  0  0
  192.5260  176.3930  142.7450 C   0  0  0  0  0  2  0  0  0  0  0  0
  184.5540  177.6930  144.2020 O   0  0  0  0  0  1  0  0  0  0  0  0
  188.7320  177.1720  146.6630 C   0  0  0  0  0  0  0  0  0  0  0  0
  185.6760  179.1190  147.4020 C   0  0  0  0  0  3  0  0  0  0  0  0
  186.6720  177.4010  145.3980 C   0  0  0  0  0  0  0  0  0  0  0  0
  189.2380  176.3220  145.7080 C   0  0  0  0  0  0  0  0  0  0  0  0
  191.8290  176.5910  148.0510 O   0  0  0  0  0  0  0  0  0  0  0  0
  190.6470  175.9470  146.0200 C   0  0  1  0  0  3  0  0  0  0  0  0
  193.6480  176.3570  143.7720 C   0  0  0  0  0  2  0  0  0  0  0  0
  191.2100  173.9160  143.7360 O   0  0  0  0  0  1  0  0  0  0  0  0
  186.9510  178.5730  147.5330 C   0  0  0  0  0  3  0  0  0  0  0  0
  187.4540  177.7180  146.5460 C   0  0  0  0  0  0  0  0  0  0  0  0
  190.5040  175.0020  143.2110 C   0  0  2  0  0  3  0  0  0  0  0  0
  187.7550  176.8460  141.2480 C   0  0  0  0  0  2  0  0  0  0  0  0
  185.7130  177.8920  140.2730 C   0  0  0  0  0  1  0  0  0  0  0  0
  186.8800  178.0880  141.2220 C   0  0  0  0  0  2  0  0  0  0  0  0
  1  4  2  0  0  0  0
  1 19  1  0  0  0  0
  2 19  2  0  0  0  0
  2 13  1  0  0  0  0
  4 20  1  0  0  0  0
  5  1  1  0  0  0  0
  6  8  2  0  0  0  0
  7 15  1  6  0  0  0
  7  9  1  0  0  0  0
  9 14  1  6  0  0  0
  9 22  1  0  0  0  0
 10  3  1  0  0  0  0
 10 21  2  0  0  0  0
 11 28  1  1  0  0  0
 11  8  1  0  0  0  0
 11  5  1  0  0  0  0
 12  8  1  6  0  0  0
 12  4  1  0  0  0  0
 13 18  2  0  0  0  0
 15 23  1  0  0  0  0
 16  2  1  0  0  0  0
 17  3  1  0  0  0  0
 18 25  1  0  0  0  0
 19 26  1  0  0  0  0
 20 17  2  0  0  0  0
 22 20  1  6  0  0  0
 22 10  1  0  0  0  0
 23 14  1  0  0  0  0
 26 17  1  0  0  0  0
 26 25  2  0  0  0  0
 27  7  1  0  0  0  0
 27 12  1  0  0  0  0
 27 24  1  1  0  0  0
 29 30  1  0  0  0  0
 30 28  1  0  0  0  0
M  END
>  <MODEL>
1

>  <REMARK>
 VINA RESULT:      -8.7      0.000      0.000
  Name = 
  2 active torsions:
  status: ('A' for Active; 'I' for Inactive)
    1  A    between atoms: C_11  and  C_28
    2  A    between atoms: C_28  and  C_30
                            x       y       z     vdW  Elec       q    Type
                         _______ _______ _______ _____ _____    ______ ____

>  <TORSDO>
F 2

$$$$
=
 OpenBabel11112416123D

 30 35  0  0  1  0  0  0  0  0999 V2000
  187.6790  177.4490  145.5070 C   0  0  0  0  0  0  0  0  0  0  0  0
  185.7540  178.3370  146.8100 C   0  0  0  0  0  0  0  0  0  0  0  0
  185.5390  177.7740  141.9020 N   0  0  0  0  0  2  0  0  0  0  0  0
  188.2480  177.1230  144.2520 C   0  0  0  0  0  0  0  0  0  0  0  0
  188.4360  177.2530  146.6710 O   0  0  0  0  0  0  0  0  0  0  0  0
  191.6150  176.5690  145.5290 O   0  0  0  0  0  0  0  0  0  0  0  0
  188.8990  174.7100  142.7120 C   0  0  1  0  0  3  0  0  0  0  0  0
  190.3960  176.5790  145.4640 C   0  0  0  0  0  0  0  0  0  0  0  0
  187.9820  175.3330  141.6520 C   0  0  2  0  0  3  0  0  0  0  0  0
  186.5410  177.2630  141.0240 C   0  0  0  0  0  0  0  0  0  0  0  0
  189.5860  176.4080  146.7110 C   0  0  2  0  0  3  0  0  0  0  0  0
  189.7150  176.7490  144.1340 C   0  0  1  0  0  3  0  0  0  0  0  0
  184.4440  178.8250  146.8330 C   0  0  0  0  0  3  0  0  0  0  0  0
  188.5250  174.8700  140.3210 C   0  0  0  0  0  2  0  0  0  0  0  0
  189.4480  173.4450  142.0730 C   0  0  0  0  0  2  0  0  0  0  0  0
  186.4390  178.2390  148.0160 O   0  0  0  0  0  1  0  0  0  0  0  0
  186.1700  177.7350  143.1730 C   0  0  0  0  0  0  0  0  0  0  0  0
  183.7110  178.9510  145.6540 C   0  0  0  0  0  3  0  0  0  0  0  0
  186.3540  177.9650  145.5840 C   0  0  0  0  0  0  0  0  0  0  0  0
  187.4590  177.2630  143.1080 C   0  0  0  0  0  0  0  0  0  0  0  0
  186.3650  177.1780  139.7810 O   0  0  0  0  0  0  0  0  0  0  0  0
  187.8110  176.8580  141.7160 C   0  0  1  0  0  3  0  0  0  0  0  0
  189.0950  173.4940  140.5930 C   0  0  0  0  0  2  0  0  0  0  0  0
  190.8000  176.0950  142.0870 O   0  0  0  0  0  1  0  0  0  0  0  0
  184.2820  178.5920  144.4340 C   0  0  0  0  0  3  0  0  0  0  0  0
  185.5920  178.1040  144.3880 C   0  0  0  0  0  0  0  0  0  0  0  0
  190.0700  175.6010  143.1710 C   0  0  2  0  0  3  0  0  0  0  0  0
  189.1770  174.9460  146.8560 C   0  0  0  0  0  2  0  0  0  0  0  0
  189.6510  172.8510  145.5920 C   0  0  0  0  0  1  0  0  0  0  0  0
  190.2640  174.0160  146.3450 C   0  0  0  0  0  2  0  0  0  0  0  0
  1 19  1  0  0  0  0
  1  5  1  0  0  0  0
  2 13  1  0  0  0  0
  2 16  1  0  0  0  0
  3 17  1  0  0  0  0
  4  1  2  0  0  0  0
  5 11  1  0  0  0  0
  7 15  1  6  0  0  0
  7 27  1  0  0  0  0
  8  6  2  0  0  0  0
  8 11  1  0  0  0  0
  9 14  1  6  0  0  0
  9 22  1  0  0  0  0
  9  7  1  0  0  0  0
 10  3  1  0  0  0  0
 11 28  1  6  0  0  0
 12  4  1  1  0  0  0
 12  8  1  0  0  0  0
 14 23  1  0  0  0  0
 17 26  1  0  0  0  0
 18 13  2  0  0  0  0
 19  2  2  0  0  0  0
 20 17  2  0  0  0  0
 20  4  1  0  0  0  0
 21 10  2  0  0  0  0
 22 10  1  6  0  0  0
 22 20  1  0  0  0  0
 23 15  1  0  0  0  0
 25 18  1  0  0  0  0
 26 25  2  0  0  0  0
 26 19  1  0  0  0  0
 27 24  1  6  0  0  0
 27 12  1  0  0  0  0
 29 30  1  0  0  0  0
 30 28  1  0  0  0  0
M  END
>  <MODEL>
2

>  <REMARK>
 VINA RESULT:      -8.5      2.328      4.928
  Name = 
  2 active torsions:
  status: ('A' for Active; 'I' for Inactive)
    1  A    between atoms: C_11  and  C_28
    2  A    between atoms: C_28  and  C_30
                            x       y       z     vdW  Elec       q    Type
                         _______ _______ _______ _____ _____    ______ ____

>  <TORSDO>
F 2

$$$$
=
 OpenBabel11112416123D

 30 35  0  0  1  0  0  0  0  0999 V2000
  190.4300  175.5320  143.4700 C   0  0  0  0  0  0  0  0  0  0  0  0
  192.4630  174.0980  143.5650 C   0  0  0  0  0  0  0  0  0  0  0  0
  191.0960  176.9370  147.3770 N   0  0  0  0  0  2  0  0  0  0  0  0
  189.5970  176.4980  144.0840 C   0  0  0  0  0  0  0  0  0  0  0  0
  190.1060  175.0660  142.1880 O   0  0  0  0  0  0  0  0  0  0  0  0
  187.6010  177.1750  141.1120 O   0  0  0  0  0  0  0  0  0  0  0  0
  186.9560  176.6070  145.3580 C   0  0  1  0  0  3  0  0  0  0  0  0
  188.2500  176.5670  141.9480 C   0  0  0  0  0  0  0  0  0  0  0  0
  187.7370  177.1410  146.5660 C   0  0  2  0  0  3  0  0  0  0  0  0
  189.9580  177.7900  147.4830 C   0  0  0  0  0  0  0  0  0  0  0  0
  188.8050  175.2170  141.6180 C   0  0  2  0  0  3  0  0  0  0  0  0
  188.4780  177.1700  143.3070 C   0  0  1  0  0  3  0  0  0  0  0  0
  193.5700  173.6340  144.2810 C   0  0  0  0  0  3  0  0  0  0  0  0
  186.7890  178.0720  147.2850 C   0  0  0  0  0  2  0  0  0  0  0  0
  185.4940  176.6650  145.7710 C   0  0  0  0  0  2  0  0  0  0  0  0
  192.2650  173.6170  142.2750 O   0  0  0  0  0  1  0  0  0  0  0  0
  190.9900  176.4140  146.0610 C   0  0  0  0  0  0  0  0  0  0  0  0
  193.8220  174.0860  145.5760 C   0  0  0  0  0  3  0  0  0  0  0  0
  191.5810  175.0380  144.1500 C   0  0  0  0  0  0  0  0  0  0  0  0
  189.8980  176.9040  145.3850 C   0  0  0  0  0  0  0  0  0  0  0  0
  189.7240  178.4730  148.5130 O   0  0  0  0  0  0  0  0  0  0  0  0
  189.0880  177.8030  146.2580 C   0  0  1  0  0  3  0  0  0  0  0  0
  185.4150  177.4800  147.0530 C   0  0  0  0  0  2  0  0  0  0  0  0
  186.9350  178.7670  144.2360 O   0  0  0  0  0  1  0  0  0  0  0  0
  192.9680  175.0130  146.1710 C   0  0  0  0  0  3  0  0  0  0  0  0
  191.8550  175.4930  145.4720 C   0  0  0  0  0  0  0  0  0  0  0  0
  187.1490  177.3990  144.0500 C   0  0  2  0  0  3  0  0  0  0  0  0
  187.8610  174.1370  142.1360 C   0  0  0  0  0  2  0  0  0  0  0  0
  188.9890  172.0850  142.9900 C   0  0  0  0  0  1  0  0  0  0  0  0
  188.3640  172.7480  141.7780 C   0  0  0  0  0  2  0  0  0  0  0  0
  1  4  2  0  0  0  0
  1 19  1  0  0  0  0
  2 19  2  0  0  0  0
  2 13  1  0  0  0  0
  3 10  1  0  0  0  0
  4 20  1  0  0  0  0
  5  1  1  0  0  0  0
  6  8  2  0  0  0  0
  7 15  1  1  0  0  0
  7  9  1  0  0  0  0
  9 14  1  6  0  0  0
 10 21  2  0  0  0  0
 11  8  1  0  0  0  0
 11 28  1  1  0  0  0
 11  5  1  0  0  0  0
 12  8  1  6  0  0  0
 12 27  1  0  0  0  0
 12  4  1  0  0  0  0
 13 18  2  0  0  0  0
 15 23  1  0  0  0  0
 16  2  1  0  0  0  0
 17  3  1  0  0  0  0
 18 25  1  0  0  0  0
 19 26  1  0  0  0  0
 20 17  2  0  0  0  0
 22 20  1  6  0  0  0
 22  9  1  0  0  0  0
 22 10  1  0  0  0  0
 23 14  1  0  0  0  0
 26 17  1  0  0  0  0
 26 25  2  0  0  0  0
 27 24  1  1  0  0  0
 27  7  1  0  0  0  0
 30 28  1  0  0  0  0
 30 29  1  0  0  0  0
M  END
>  <MODEL>
3

>  <REMARK>
 VINA RESULT:      -8.3      1.688      5.516
  Name = 
  2 active torsions:
  status: ('A' for Active; 'I' for Inactive)
    1  A    between atoms: C_11  and  C_28
    2  A    between atoms: C_28  and  C_30
                            x       y       z     vdW  Elec       q    Type
                         _______ _______ _______ _____ _____    ______ ____

>  <TORSDO>
F 2

$$$$
=
 OpenBabel11112416123D

 30 35  0  0  1  0  0  0  0  0999 V2000
  187.9100  177.3430  143.6890 C   0  0  0  0  0  0  0  0  0  0  0  0
  185.9740  178.6280  142.7990 C   0  0  0  0  0  0  0  0  0  0  0  0
  188.1920  175.0880  140.1510 N   0  0  0  0  0  2  0  0  0  0  0  0
  188.9170  176.3680  143.4850 C   0  0  0  0  0  0  0  0  0  0  0  0
  187.8430  178.0080  144.9220 O   0  0  0  0  0  0  0  0  0  0  0  0
  190.7560  177.1240  146.5380 O   0  0  0  0  0  0  0  0  0  0  0  0
  189.4930  173.6180  144.3310 C   0  0  1  0  0  3  0  0  0  0  0  0
  189.8240  176.9530  145.7690 C   0  0  0  0  0  0  0  0  0  0  0  0
  189.5100  173.3280  142.8240 C   0  0  2  0  0  3  0  0  0  0  0  0
  189.2890  174.2570  140.5260 C   0  0  0  0  0  0  0  0  0  0  0  0
  188.4770  177.5130  146.1020 C   0  0  2  0  0  3  0  0  0  0  0  0
  190.0290  176.1720  144.5000 C   0  0  1  0  0  3  0  0  0  0  0  0
  185.0710  178.8690  141.7590 C   0  0  0  0  0  3  0  0  0  0  0  0
  190.4940  172.1970  142.6380 C   0  0  0  0  0  2  0  0  0  0  0  0
  189.8730  172.3040  144.9950 C   0  0  0  0  0  2  0  0  0  0  0  0
  185.8580  179.3870  143.9580 O   0  0  0  0  0  1  0  0  0  0  0  0
  188.0170  175.9280  141.2830 C   0  0  0  0  0  0  0  0  0  0  0  0
  185.1430  178.1440  140.5700 C   0  0  0  0  0  3  0  0  0  0  0  0
  186.9760  177.6390  142.6550 C   0  0  0  0  0  0  0  0  0  0  0  0
  188.9300  175.6700  142.2770 C   0  0  0  0  0  0  0  0  0  0  0  0
  189.7710  173.3920  139.7510 O   0  0  0  0  0  0  0  0  0  0  0  0
  189.8120  174.5240  141.9090 C   0  0  1  0  0  3  0  0  0  0  0  0
  190.3800  171.3730  143.9030 C   0  0  0  0  0  2  0  0  0  0  0  0
  191.7590  174.5060  144.3300 O   0  0  0  0  0  1  0  0  0  0  0  0
  186.1230  177.1660  140.4070 C   0  0  0  0  0  3  0  0  0  0  0  0
  187.0380  176.9100  141.4330 C   0  0  0  0  0  0  0  0  0  0  0  0
  190.4600  174.7240  144.7960 C   0  0  2  0  0  3  0  0  0  0  0  0
  187.6230  176.4310  146.7580 C   0  0  0  0  0  2  0  0  0  0  0  0
  185.1910  176.7900  146.3480 C   0  0  0  0  0  1  0  0  0  0  0  0
  186.3350  177.0110  147.3190 C   0  0  0  0  0  2  0  0  0  0  0  0
  1  5  1  0  0  0  0
  2 16  1  0  0  0  0
  3 10  1  0  0  0  0
  3 17  1  0  0  0  0
  4  1  1  0  0  0  0
  5 11  1  0  0  0  0
  7 27  1  0  0  0  0
  7 15  1  1  0  0  0
  8 11  1  0  0  0  0
  8  6  2  0  0  0  0
  9 14  1  1  0  0  0
  9  7  1  0  0  0  0
 11 28  1  6  0  0  0
 12  4  1  1  0  0  0
 12 27  1  0  0  0  0
 12  8  1  0  0  0  0
 13  2  2  0  0  0  0
 14 23  1  0  0  0  0
 17 26  2  0  0  0  0
 17 20  1  0  0  0  0
 18 13  1  0  0  0  0
 19  2  1  0  0  0  0
 19  1  2  0  0  0  0
 20  4  2  0  0  0  0
 21 10  2  0  0  0  0
 22 10  1  6  0  0  0
 22 20  1  0  0  0  0
 22  9  1  0  0  0  0
 23 15  1  0  0  0  0
 25 18  2  0  0  0  0
 25 26  1  0  0  0  0
 26 19  1  0  0  0  0
 27 24  1  6  0  0  0
 28 30  1  0  0  0  0
 29 30  1  0  0  0  0
M  END
>  <MODEL>
4

>  <REMARK>
 VINA RESULT:      -7.9      2.337      5.043
  Name = 
  2 active torsions:
  status: ('A' for Active; 'I' for Inactive)
    1  A    between atoms: C_11  and  C_28
    2  A    between atoms: C_28  and  C_30
                            x       y       z     vdW  Elec       q    Type
                         _______ _______ _______ _____ _____    ______ ____

>  <TORSDO>
F 2

$$$$
=
 OpenBabel11112416123D

 30 35  0  0  1  0  0  0  0  0999 V2000
  188.7690  175.2550  144.2160 C   0  0  0  0  0  0  0  0  0  0  0  0
  186.6310  176.4640  143.8170 C   0  0  0  0  0  0  0  0  0  0  0  0
  189.6810  177.7130  147.5040 N   0  0  0  0  0  2  0  0  0  0  0  0
  189.9300  175.0710  145.0060 C   0  0  0  0  0  0  0  0  0  0  0  0
  188.5670  174.4350  143.0960 O   0  0  0  0  0  0  0  0  0  0  0  0
  190.9650  171.9760  143.3860 O   0  0  0  0  0  0  0  0  0  0  0  0
  192.8060  175.6260  144.8190 C   0  0  1  0  0  3  0  0  0  0  0  0
  190.5100  173.0980  143.5390 C   0  0  0  0  0  0  0  0  0  0  0  0
  192.5740  176.4190  146.1120 C   0  0  2  0  0  3  0  0  0  0  0  0
  190.9390  177.1360  147.8470 C   0  0  0  0  0  0  0  0  0  0  0  0
  189.6200  173.6860  142.4890 C   0  0  2  0  0  3  0  0  0  0  0  0
  190.8520  173.8880  144.7720 C   0  0  1  0  0  3  0  0  0  0  0  0
  185.7410  177.4780  144.1810 C   0  0  0  0  0  3  0  0  0  0  0  0
  193.8670  176.3220  146.8870 C   0  0  0  0  0  2  0  0  0  0  0  0
  194.3030  175.6990  144.5690 C   0  0  0  0  0  2  0  0  0  0  0  0
  186.3060  175.6660  142.7250 O   0  0  0  0  0  1  0  0  0  0  0  0
  189.2540  176.9320  146.3970 C   0  0  0  0  0  0  0  0  0  0  0  0
  186.0110  178.3060  145.2700 C   0  0  0  0  0  3  0  0  0  0  0  0
  187.8220  176.2640  144.5540 C   0  0  0  0  0  0  0  0  0  0  0  0
  190.1480  175.9370  146.0780 C   0  0  0  0  0  0  0  0  0  0  0  0
  191.6210  177.5420  148.8220 O   0  0  0  0  0  0  0  0  0  0  0  0
  191.3560  176.0040  146.9510 C   0  0  1  0  0  3  0  0  0  0  0  0
  194.9480  176.2590  145.8280 C   0  0  0  0  0  2  0  0  0  0  0  0
  192.8980  173.4880  145.9780 O   0  0  0  0  0  1  0  0  0  0  0  0
  187.1770  178.1260  146.0120 C   0  0  0  0  0  3  0  0  0  0  0  0
  188.0810  177.1150  145.6670 C   0  0  0  0  0  0  0  0  0  0  0  0
  192.3670  174.1500  144.8680 C   0  0  2  0  0  3  0  0  0  0  0  0
  190.4450  174.5720  141.5600 C   0  0  0  0  0  2  0  0  0  0  0  0
  192.9020  174.5410  141.1400 C   0  0  0  0  0  1  0  0  0  0  0  0
  191.5950  173.7980  140.9380 C   0  0  0  0  0  2  0  0  0  0  0  0
  1 19  2  0  0  0  0
  1  4  1  0  0  0  0
  2 13  2  0  0  0  0
  2 19  1  0  0  0  0
  3 10  1  0  0  0  0
  4 20  2  0  0  0  0
  5  1  1  0  0  0  0
  6  8  2  0  0  0  0
  7 15  1  1  0  0  0
  7 27  1  0  0  0  0
  7  9  1  0  0  0  0
  9 14  1  1  0  0  0
  9 22  1  0  0  0  0
 10 21  2  0  0  0  0
 11 28  1  6  0  0  0
 11  5  1  0  0  0  0
 11  8  1  0  0  0  0
 12  8  1  6  0  0  0
 12 27  1  0  0  0  0
 12  4  1  0  0  0  0
 13 18  1  0  0  0  0
 15 23  1  0  0  0  0
 16  2  1  0  0  0  0
 17  3  1  0  0  0  0
 18 25  2  0  0  0  0
 19 26  1  0  0  0  0
 20 17  1  0  0  0  0
 22 20  1  6  0  0  0
 22 10  1  0  0  0  0
 23 14  1  0  0  0  0
 26 25  1  0  0  0  0
 26 17  2  0  0  0  0
 27 24  1  1  0  0  0
 30 29  1  0  0  0  0
 30 28  1  0  0  0  0
M  END
>  <MODEL>
5

>  <REMARK>
 VINA RESULT:      -7.7      1.741      2.884
  Name = 
  2 active torsions:
  status: ('A' for Active; 'I' for Inactive)
    1  A    between atoms: C_11  and  C_28
    2  A    between atoms: C_28  and  C_30
                            x       y       z     vdW  Elec       q    Type
                         _______ _______ _______ _____ _____    ______ ____

>  <TORSDO>
F 2

$$$$
=
 OpenBabel11112416123D

 30 35  0  0  1  0  0  0  0  0999 V2000
  188.3990  175.5600  142.5150 C   0  0  0  0  0  0  0  0  0  0  0  0
  187.1560  176.5900  140.6210 C   0  0  0  0  0  0  0  0  0  0  0  0
  186.6640  178.2310  145.2610 N   0  0  0  0  0  2  0  0  0  0  0  0
  188.6590  175.4990  143.9060 C   0  0  0  0  0  0  0  0  0  0  0  0
  189.0660  174.6750  141.6560 O   0  0  0  0  0  0  0  0  0  0  0  0
  190.5920  172.4130  143.7630 O   0  0  0  0  0  0  0  0  0  0  0  0
  190.8060  176.2520  145.7590 C   0  0  1  0  0  3  0  0  0  0  0  0
  190.1430  173.5050  143.4530 C   0  0  0  0  0  0  0  0  0  0  0  0
  189.7120  177.0860  146.4370 C   0  0  2  0  0  3  0  0  0  0  0  0
  187.3170  177.7640  146.4400 C   0  0  0  0  0  0  0  0  0  0  0  0
  190.2520  173.9770  142.0370 C   0  0  2  0  0  3  0  0  0  0  0  0
  189.4950  174.3760  144.4940 C   0  0  1  0  0  3  0  0  0  0  0  0
  186.2540  177.5540  140.1630 C   0  0  0  0  0  3  0  0  0  0  0  0
  190.0740  177.1200  147.9030 C   0  0  0  0  0  2  0  0  0  0  0  0
  192.0370  176.4200  146.6360 C   0  0  0  0  0  2  0  0  0  0  0  0
  187.7170  175.7200  139.6930 O   0  0  0  0  0  1  0  0  0  0  0  0
  187.1630  177.3700  144.2490 C   0  0  0  0  0  0  0  0  0  0  0  0
  185.6560  178.4500  141.0480 C   0  0  0  0  0  3  0  0  0  0  0  0
  187.4750  176.5130  141.9980 C   0  0  0  0  0  0  0  0  0  0  0  0
  188.0360  176.4280  144.7400 C   0  0  0  0  0  0  0  0  0  0  0  0
  187.0970  178.2650  147.5720 O   0  0  0  0  0  0  0  0  0  0  0  0
  188.2660  176.6240  146.2010 C   0  0  1  0  0  3  0  0  0  0  0  0
  191.5870  177.0850  147.9280 C   0  0  0  0  0  2  0  0  0  0  0  0
  190.0850  174.1830  146.8210 O   0  0  0  0  0  1  0  0  0  0  0  0
  185.9540  178.3900  142.4090 C   0  0  0  0  0  3  0  0  0  0  0  0
  186.8520  177.4320  142.8900 C   0  0  0  0  0  0  0  0  0  0  0  0
  190.4880  174.7510  145.6090 C   0  0  2  0  0  3  0  0  0  0  0  0
  191.4770  174.8750  141.8920 C   0  0  0  0  0  2  0  0  0  0  0  0
  193.4960  175.2260  143.3090 C   0  0  0  0  0  1  0  0  0  0  0  0
  192.7130  174.2210  142.4870 C   0  0  0  0  0  2  0  0  0  0  0  0
  1  4  1  0  0  0  0
  2 19  1  0  0  0  0
  3 10  1  0  0  0  0
  4 12  1  0  0  0  0
  4 20  2  0  0  0  0
  5 11  1  0  0  0  0
  5  1  1  0  0  0  0
  7  9  1  0  0  0  0
  7 15  1  1  0  0  0
  8  6  2  0  0  0  0
  9 14  1  1  0  0  0
 10 21  2  0  0  0  0
 11 28  1  1  0  0  0
 11  8  1  0  0  0  0
 12  8  1  6  0  0  0
 12 27  1  0  0  0  0
 13  2  2  0  0  0  0
 13 18  1  0  0  0  0
 14 23  1  0  0  0  0
 15 23  1  0  0  0  0
 16  2  1  0  0  0  0
 17 20  1  0  0  0  0
 17  3  1  0  0  0  0
 18 25  2  0  0  0  0
 19  1  2  0  0  0  0
 19 26  1  0  0  0  0
 22 20  1  6  0  0  0
 22  9  1  0  0  0  0
 22 10  1  0  0  0  0
 25 26  1  0  0  0  0
 26 17  2  0  0  0  0
 27  7  1  0  0  0  0
 27 24  1  1  0  0  0
 28 30  1  0  0  0  0
 30 29  1  0  0  0  0
M  END
>  <MODEL>
6

>  <REMARK>
 VINA RESULT:      -7.4      1.880      4.272
  Name = 
  2 active torsions:
  status: ('A' for Active; 'I' for Inactive)
    1  A    between atoms: C_11  and  C_28
    2  A    between atoms: C_28  and  C_30
                            x       y       z     vdW  Elec       q    Type
                         _______ _______ _______ _____ _____    ______ ____

>  <TORSDO>
F 2

$$$$
=
 OpenBabel11112416123D

 30 35  0  0  1  0  0  0  0  0999 V2000
  187.3450  176.5050  142.6480 C   0  0  0  0  0  0  0  0  0  0  0  0
  186.3120  177.1810  140.4870 C   0  0  0  0  0  0  0  0  0  0  0  0
  184.2250  178.2900  144.8310 N   0  0  0  0  0  2  0  0  0  0  0  0
  187.2750  176.4500  144.0610 C   0  0  0  0  0  0  0  0  0  0  0  0
  188.4500  175.9410  141.9960 O   0  0  0  0  0  0  0  0  0  0  0  0
  190.1010  174.1840  144.4590 O   0  0  0  0  0  0  0  0  0  0  0  0
  188.5490  177.7540  146.3610 C   0  0  1  0  0  3  0  0  0  0  0  0
  189.4000  175.0840  144.0260 C   0  0  0  0  0  0  0  0  0  0  0  0
  187.1130  178.1410  146.7340 C   0  0  2  0  0  3  0  0  0  0  0  0
  184.6990  177.9940  146.1430 C   0  0  0  0  0  0  0  0  0  0  0  0
  189.6760  175.6490  142.6670 C   0  0  2  0  0  3  0  0  0  0  0  0
  188.2740  175.6300  144.8590 C   0  0  1  0  0  3  0  0  0  0  0  0
  185.2760  177.8210  139.8020 C   0  0  0  0  0  3  0  0  0  0  0  0
  187.0870  178.2040  148.2430 C   0  0  0  0  0  2  0  0  0  0  0  0
  189.4110  178.2650  147.5040 C   0  0  0  0  0  2  0  0  0  0  0  0
  187.3320  176.6000  139.7410 O   0  0  0  0  0  1  0  0  0  0  0  0
  185.2060  177.7020  143.9890 C   0  0  0  0  0  0  0  0  0  0  0  0
  184.2230  178.4160  140.4960 C   0  0  0  0  0  3  0  0  0  0  0  0
  186.3050  177.1310  141.9010 C   0  0  0  0  0  0  0  0  0  0  0  0
  186.2010  177.0720  144.6990 C   0  0  0  0  0  0  0  0  0  0  0  0
  184.0650  178.3260  147.1770 O   0  0  0  0  0  0  0  0  0  0  0  0
  186.0010  177.2450  146.1670 C   0  0  1  0  0  3  0  0  0  0  0  0
  188.4750  178.6660  148.6350 C   0  0  0  0  0  2  0  0  0  0  0  0
  188.3300  175.5040  147.2630 O   0  0  0  0  0  1  0  0  0  0  0  0
  184.1950  178.3770  141.8890 C   0  0  0  0  0  3  0  0  0  0  0  0
  185.2210  177.7400  142.5950 C   0  0  0  0  0  0  0  0  0  0  0  0
  188.7940  176.2440  146.1720 C   0  0  2  0  0  3  0  0  0  0  0  0
  190.5300  176.9060  142.8020 C   0  0  0  0  0  2  0  0  0  0  0  0
  192.3170  177.1410  144.5230 C   0  0  0  0  0  1  0  0  0  0  0  0
  191.9640  176.5620  143.1670 C   0  0  0  0  0  2  0  0  0  0  0  0
  1  4  1  0  0  0  0
  2 19  1  0  0  0  0
  3 10  1  0  0  0  0
  4 20  2  0  0  0  0
  4 12  1  0  0  0  0
  5  1  1  0  0  0  0
  5 11  1  0  0  0  0
  7  9  1  0  0  0  0
  7 15  1  1  0  0  0
  8  6  2  0  0  0  0
  9 14  1  1  0  0  0
 10 22  1  0  0  0  0
 10 21  2  0  0  0  0
 11 28  1  1  0  0  0
 11  8  1  0  0  0  0
 12  8  1  6  0  0  0
 12 27  1  0  0  0  0
 13  2  2  0  0  0  0
 13 18  1  0  0  0  0
 14 23  1  0  0  0  0
 15 23  1  0  0  0  0
 16  2  1  0  0  0  0
 17 20  1  0  0  0  0
 17  3  1  0  0  0  0
 18 25  2  0  0  0  0
 19 26  1  0  0  0  0
 19  1  2  0  0  0  0
 22 20  1  6  0  0  0
 22  9  1  0  0  0  0
 25 26  1  0  0  0  0
 26 17  2  0  0  0  0
 27  7  1  0  0  0  0
 27 24  1  1  0  0  0
 28 30  1  0  0  0  0
 30 29  1  0  0  0  0
M  END
>  <MODEL>
7

>  <REMARK>
 VINA RESULT:      -7.4      1.964      5.087
  Name = 
  2 active torsions:
  status: ('A' for Active; 'I' for Inactive)
    1  A    between atoms: C_11  and  C_28
    2  A    between atoms: C_28  and  C_30
                            x       y       z     vdW  Elec       q    Type
                         _______ _______ _______ _____ _____    ______ ____

>  <TORSDO>
F 2

$$$$
=
 OpenBabel11112416123D

 30 35  0  0  1  0  0  0  0  0999 V2000
  189.8690  176.3830  144.3090 C   0  0  0  0  0  0  0  0  0  0  0  0
  187.6530  177.2840  144.9950 C   0  0  0  0  0  0  0  0  0  0  0  0
  188.1910  174.4940  140.9480 N   0  0  0  0  0  2  0  0  0  0  0  0
  190.6490  175.6620  143.3720 C   0  0  0  0  0  0  0  0  0  0  0  0
  190.4930  176.9300  145.4390 O   0  0  0  0  0  0  0  0  0  0  0  0
  193.8650  176.5770  144.8190 O   0  0  0  0  0  0  0  0  0  0  0  0
  191.9640  173.0450  143.1830 C   0  0  1  0  0  3  0  0  0  0  0  0
  192.6880  176.2650  144.7350 C   0  0  0  0  0  0  0  0  0  0  0  0
  191.0850  172.8720  141.9380 C   0  0  2  0  0  3  0  0  0  0  0  0
  189.3800  173.8920  140.4380 C   0  0  0  0  0  0  0  0  0  0  0  0
  191.7750  176.5000  145.8980 C   0  0  2  0  0  3  0  0  0  0  0  0
  192.1640  175.6370  143.4740 C   0  0  1  0  0  3  0  0  0  0  0  0
  186.2810  177.3990  144.7590 C   0  0  0  0  0  3  0  0  0  0  0  0
  191.8780  171.9930  140.9990 C   0  0  0  0  0  2  0  0  0  0  0  0
  192.8340  171.8000  143.2340 C   0  0  0  0  0  2  0  0  0  0  0  0
  188.1820  177.9170  146.1140 O   0  0  0  0  0  1  0  0  0  0  0  0
  188.6470  175.1950  142.0950 C   0  0  0  0  0  0  0  0  0  0  0  0
  185.6950  176.7910  143.6490 C   0  0  0  0  0  3  0  0  0  0  0  0
  188.4680  176.5440  144.1060 C   0  0  0  0  0  0  0  0  0  0  0  0
  190.0030  175.0690  142.2870 C   0  0  0  0  0  0  0  0  0  0  0  0
  189.3860  173.2050  139.3840 O   0  0  0  0  0  0  0  0  0  0  0  0
  190.6050  174.1660  141.2630 C   0  0  1  0  0  3  0  0  0  0  0  0
  192.6720  171.0770  141.9050 C   0  0  0  0  0  2  0  0  0  0  0  0
  193.6130  174.3950  142.0060 O   0  0  0  0  0  1  0  0  0  0  0  0
  186.4790  176.0590  142.7590 C   0  0  0  0  0  3  0  0  0  0  0  0
  187.8550  175.9320  142.9750 C   0  0  0  0  0  0  0  0  0  0  0  0
  192.8640  174.2970  143.1820 C   0  0  2  0  0  3  0  0  0  0  0  0
  191.6520  175.2180  146.7160 C   0  0  0  0  0  2  0  0  0  0  0  0
  189.3160  174.5410  147.2630 C   0  0  0  0  0  1  0  0  0  0  0  0
  190.5290  175.3210  147.7350 C   0  0  0  0  0  2  0  0  0  0  0  0
  1  5  1  0  0  0  0
  2 16  1  0  0  0  0
  3 17  1  0  0  0  0
  4  1  2  0  0  0  0
  5 11  1  0  0  0  0
  7 15  1  6  0  0  0
  8  6  2  0  0  0  0
  8 11  1  0  0  0  0
  9 14  1  6  0  0  0
  9  7  1  0  0  0  0
 10  3  1  0  0  0  0
 11 28  1  6  0  0  0
 12  4  1  1  0  0  0
 12  8  1  0  0  0  0
 13  2  1  0  0  0  0
 14 23  1  0  0  0  0
 17 20  2  0  0  0  0
 17 26  1  0  0  0  0
 18 13  2  0  0  0  0
 19  1  1  0  0  0  0
 19  2  2  0  0  0  0
 20  4  1  0  0  0  0
 21 10  2  0  0  0  0
 22 10  1  6  0  0  0
 22  9  1  0  0  0  0
 22 20  1  0  0  0  0
 23 15  1  0  0  0  0
 25 26  2  0  0  0  0
 25 18  1  0  0  0  0
 26 19  1  0  0  0  0
 27 24  1  6  0  0  0
 27  7  1  0  0  0  0
 27 12  1  0  0  0  0
 28 30  1  0  0  0  0
 29 30  1  0  0  0  0
M  END
>  <MODEL>
8

>  <REMARK>
 VINA RESULT:      -7.4      2.674      5.331
  Name = 
  2 active torsions:
  status: ('A' for Active; 'I' for Inactive)
    1  A    between atoms: C_11  and  C_28
    2  A    between atoms: C_28  and  C_30
                            x       y       z     vdW  Elec       q    Type
                         _______ _______ _______ _____ _____    ______ ____

>  <TORSDO>
F 2

$$$$
=
 OpenBabel11112416123D

 30 35  0  0  1  0  0  0  0  0999 V2000
  189.5380  174.7180  141.5170 C   0  0  0  0  0  0  0  0  0  0  0  0
  189.4430  172.6400  140.1510 C   0  0  0  0  0  0  0  0  0  0  0  0
  192.9720  173.3740  143.5370 N   0  0  0  0  0  2  0  0  0  0  0  0
  190.2060  175.5020  142.4890 C   0  0  0  0  0  0  0  0  0  0  0  0
  188.3610  175.2100  140.9330 O   0  0  0  0  0  0  0  0  0  0  0  0
  188.1980  178.4960  141.9590 O   0  0  0  0  0  0  0  0  0  0  0  0
  189.8380  176.2740  145.2960 C   0  0  1  0  0  3  0  0  0  0  0  0
  188.5020  177.3190  142.0680 C   0  0  0  0  0  0  0  0  0  0  0  0
  191.2200  175.6350  145.4870 C   0  0  2  0  0  3  0  0  0  0  0  0
  193.1490  174.4920  144.4050 C   0  0  0  0  0  0  0  0  0  0  0  0
  187.5950  176.2650  141.5140 C   0  0  2  0  0  3  0  0  0  0  0  0
  189.7770  176.9320  142.7660 C   0  0  1  0  0  3  0  0  0  0  0  0
  189.9810  171.3910  139.8310 C   0  0  0  0  0  3  0  0  0  0  0  0
  191.8710  176.4000  146.6150 C   0  0  0  0  0  2  0  0  0  0  0  0
  189.4730  176.8480  146.6560 C   0  0  0  0  0  2  0  0  0  0  0  0
  188.3070  173.0600  139.4690 O   0  0  0  0  0  1  0  0  0  0  0  0
  191.8310  173.7320  142.7720 C   0  0  0  0  0  0  0  0  0  0  0  0
  191.1240  170.9190  140.4770 C   0  0  0  0  0  3  0  0  0  0  0  0
  190.0550  173.4450  141.1420 C   0  0  0  0  0  0  0  0  0  0  0  0
  191.3390  174.9710  143.1070 C   0  0  0  0  0  0  0  0  0  0  0  0
  194.1010  174.5630  145.2240 O   0  0  0  0  0  0  0  0  0  0  0  0
  192.1110  175.5650  144.2370 C   0  0  1  0  0  3  0  0  0  0  0  0
  190.7250  176.8030  147.5190 C   0  0  0  0  0  2  0  0  0  0  0  0
  190.7610  178.3570  144.4390 O   0  0  0  0  0  1  0  0  0  0  0  0
  191.7440  171.6960  141.4540 C   0  0  0  0  0  3  0  0  0  0  0  0
  191.2230  172.9510  141.7900 C   0  0  0  0  0  0  0  0  0  0  0  0
  189.7730  177.3900  144.2360 C   0  0  2  0  0  3  0  0  0  0  0  0
  186.6960  175.7310  142.6250 C   0  0  0  0  0  2  0  0  0  0  0  0
  185.9980  176.8650  144.7310 C   0  0  0  0  0  1  0  0  0  0  0  0
  185.8440  176.8380  143.2230 C   0  0  0  0  0  2  0  0  0  0  0  0
  1  4  1  0  0  0  0
  2 19  1  0  0  0  0
  3 10  1  0  0  0  0
  4 12  1  0  0  0  0
  4 20  2  0  0  0  0
  5 11  1  0  0  0  0
  5  1  1  0  0  0  0
  6  8  2  0  0  0  0
  7  9  1  0  0  0  0
  7 15  1  1  0  0  0
  9 14  1  1  0  0  0
 10 21  2  0  0  0  0
 11  8  1  0  0  0  0
 11 28  1  1  0  0  0
 12  8  1  1  0  0  0
 12 27  1  0  0  0  0
 13  2  2  0  0  0  0
 13 18  1  0  0  0  0
 14 23  1  0  0  0  0
 15 23  1  0  0  0  0
 16  2  1  0  0  0  0
 17 20  1  0  0  0  0
 17  3  1  0  0  0  0
 18 25  2  0  0  0  0
 19  1  2  0  0  0  0
 19 26  1  0  0  0  0
 22 20  1  6  0  0  0
 22 10  1  0  0  0  0
 22  9  1  0  0  0  0
 25 26  1  0  0  0  0
 26 17  2  0  0  0  0
 27 24  1  6  0  0  0
 27  7  1  0  0  0  0
 28 30  1  0  0  0  0
 30 29  1  0  0  0  0
M  END
>  <MODEL>
9

>  <REMARK>
 VINA RESULT:      -7.4      2.627      5.576
  Name = 
  2 active torsions:
  status: ('A' for Active; 'I' for Inactive)
    1  A    between atoms: C_11  and  C_28
    2  A    between atoms: C_28  and  C_30
                            x       y       z     vdW  Elec       q    Type
                         _______ _______ _______ _____ _____    ______ ____

>  <TORSDO>
F 2

$$$$
