=
 OpenBabel11112418053D

 34 40  0  0  1  0  0  0  0  0999 V2000
  189.8030  174.6550  144.7610 C   0  0  0  0  0  0  0  0  0  0  0  0
  191.7420  173.3150  143.7470 C   0  0  0  0  0  2  0  0  0  0  0  0
  184.8250  178.9620  144.3990 C   0  0  0  0  0  0  0  0  0  0  0  0
  187.9370  176.0270  145.5670 C   0  0  0  0  0  0  0  0  0  0  0  0
  186.3460  176.9920  143.9660 C   0  0  0  0  0  0  0  0  0  0  0  0
  184.8480  177.9580  142.1080 C   0  0  0  0  0  1  0  0  0  0  0  0
  185.1930  180.0500  143.9840 O   0  0  0  0  0  0  0  0  0  0  0  0
  184.6120  177.5680  146.4440 C   0  0  0  0  0  2  0  0  0  0  0  0
  190.0440  174.2520  142.3840 C   0  0  0  0  0  0  0  0  0  0  0  0
  189.7640  173.7130  139.4160 C   0  0  0  0  0  2  0  0  0  0  0  0
  187.0600  176.3680  142.9330 C   0  0  0  0  0  3  0  0  0  0  0  0
  186.1310  177.4860  146.5040 C   0  0  0  0  0  2  0  0  0  0  0  0
  188.8850  175.0000  142.1040 C   0  0  0  0  0  0  0  0  0  0  0  0
  191.9970  172.8970  142.3000 C   0  0  0  0  0  2  0  0  0  0  0  0
  186.7790  176.8010  145.3140 C   0  0  0  0  0  0  0  0  0  0  0  0
  184.1890  178.8570  145.7470 C   0  0  0  0  0  2  0  0  0  0  0  0
  190.3570  172.8330  140.4120 N   0  0  0  0  0  0  0  0  0  0  0  0
  188.6470  175.4300  144.5070 C   0  0  0  0  0  0  0  0  0  0  0  0
  185.0540  177.7120  143.6010 C   0  0  2  0  0  3  0  0  0  0  0  0
  188.2000  175.6060  143.1760 C   0  0  0  0  0  0  0  0  0  0  0  0
  189.5040  175.1150  147.2260 C   0  0  0  0  0  3  0  0  0  0  0  0
  188.3660  174.1150  139.8410 C   0  0  0  0  0  2  0  0  0  0  0  0
  188.4160  175.8300  146.9530 C   0  0  0  0  0  3  0  0  0  0  0  0
  188.4030  175.1660  140.7990 O   0  0  0  0  0  0  0  0  0  0  0  0
  191.0210  173.6880  141.4040 C   0  0  1  0  0  3  0  0  0  0  0  0
  190.3340  174.4580  146.1600 C   0  0  0  0  0  3  0  0  0  0  0  0
  190.4810  174.0860  143.6780 C   0  0  2  0  0  3  0  0  0  0  0  0
  191.3590  172.0660  139.6790 C   0  0  0  0  0  2  0  0  0  0  0  0
  190.9260  170.6130  139.5880 C   0  0  0  0  0  2  0  0  0  0  0  0
  191.1570  171.2990  136.1650 N   0  0  0  0  0  2  0  0  0  0  0  0
  189.7570  170.0670  137.6450 C   0  0  0  0  0  2  0  0  0  0  0  0
  191.0840  170.1360  138.2250 N   0  0  0  0  0  0  0  0  0  0  0  0
  189.7970  170.8320  136.3430 C   0  0  0  0  0  2  0  0  0  0  0  0
  191.7680  171.1820  137.4780 C   0  0  0  0  0  2  0  0  0  0  0  0
  1 26  2  0  0  0  0
  3 16  1  0  0  0  0
  4 23  1  0  0  0  0
  5 15  1  0  0  0  0
  7  3  2  0  0  0  0
  8 12  1  0  0  0  0
  9 27  1  0  0  0  0
 10 22  1  0  0  0  0
 10 17  1  0  0  0  0
 11 20  1  0  0  0  0
 11  5  2  0  0  0  0
 13  9  2  0  0  0  0
 13 20  1  0  0  0  0
 14  2  1  0  0  0  0
 15  4  2  0  0  0  0
 15 12  1  0  0  0  0
 16  8  1  0  0  0  0
 17 25  1  0  0  0  0
 18  1  1  0  0  0  0
 18  4  1  0  0  0  0
 19  6  1  6  0  0  0
 19  5  1  0  0  0  0
 19  3  1  0  0  0  0
 20 18  2  0  0  0  0
 22 24  1  0  0  0  0
 23 21  2  0  0  0  0
 24 13  1  0  0  0  0
 25 14  1  1  0  0  0
 25  9  1  0  0  0  0
 26 21  1  0  0  0  0
 27  2  1  6  0  0  0
 27  1  1  0  0  0  0
 28 17  1  0  0  0  0
 29 28  1  0  0  0  0
 30 33  1  0  0  0  0
 30 34  1  0  0  0  0
 31 32  1  0  0  0  0
 32 29  1  0  0  0  0
 33 31  1  0  0  0  0
 34 32  1  0  0  0  0
M  END
>  <MODEL>
1

>  <REMARK>
 VINA RESULT:      -9.2      0.000      0.000
  Name = 
  3 active torsions:
  status: ('A' for Active; 'I' for Inactive)
    1  A    between atoms: N_17  and  C_28
    2  A    between atoms: C_28  and  C_29
    3  A    between atoms: C_29  and  N_32
                            x       y       z     vdW  Elec       q    Type
                         _______ _______ _______ _____ _____    ______ ____

>  <TORSDO>
F 3

$$$$
=
 OpenBabel11112418053D

 34 40  0  0  1  0  0  0  0  0999 V2000
  189.3860  175.2240  142.7140 C   0  0  0  0  0  0  0  0  0  0  0  0
  191.4790  173.7500  142.5430 C   0  0  0  0  0  2  0  0  0  0  0  0
  184.6710  178.3500  146.0990 C   0  0  0  0  0  0  0  0  0  0  0  0
  187.3810  176.5930  143.0600 C   0  0  0  0  0  0  0  0  0  0  0  0
  186.9210  177.5510  145.2740 C   0  0  0  0  0  0  0  0  0  0  0  0
  186.6030  178.3900  147.6870 C   0  0  0  0  0  1  0  0  0  0  0  0
  184.0350  177.5850  146.8080 O   0  0  0  0  0  0  0  0  0  0  0  0
  184.8380  179.2740  143.7990 C   0  0  0  0  0  2  0  0  0  0  0  0
  190.9040  174.8460  144.5640 C   0  0  0  0  0  0  0  0  0  0  0  0
  192.6850  174.9280  147.0140 C   0  0  0  0  0  2  0  0  0  0  0  0
  188.1120  176.9720  145.7340 C   0  0  0  0  0  3  0  0  0  0  0  0
  185.2560  177.8930  143.3120 C   0  0  0  0  0  2  0  0  0  0  0  0
  190.1130  175.6360  145.4200 C   0  0  0  0  0  0  0  0  0  0  0  0
  192.5760  173.4780  143.5700 C   0  0  0  0  0  2  0  0  0  0  0  0
  186.5570  177.3770  143.9030 C   0  0  0  0  0  0  0  0  0  0  0  0
  183.9680  179.1430  145.0450 C   0  0  0  0  0  2  0  0  0  0  0  0
  193.1100  174.7980  145.6270 N   0  0  0  0  0  0  0  0  0  0  0  0
  188.5620  176.0060  143.5570 C   0  0  0  0  0  0  0  0  0  0  0  0
  186.1610  178.4650  146.2260 C   0  0  2  0  0  3  0  0  0  0  0  0
  188.9270  176.1990  144.9100 C   0  0  0  0  0  0  0  0  0  0  0  0
  187.7650  175.6470  140.8250 C   0  0  0  0  0  3  0  0  0  0  0  0
  191.7970  176.1460  147.1750 C   0  0  0  0  0  2  0  0  0  0  0  0
  187.0160  176.3840  141.6430 C   0  0  0  0  0  3  0  0  0  0  0  0
  190.4660  175.8700  146.7550 O   0  0  0  0  0  0  0  0  0  0  0  0
  192.0850  174.0080  144.9330 C   0  0  1  0  0  3  0  0  0  0  0  0
  189.0280  174.9670  141.2710 C   0  0  0  0  0  2  0  0  0  0  0  0
  190.5450  174.6540  143.2510 C   0  0  0  0  0  0  0  0  0  0  0  0
  194.3530  174.0360  145.6910 C   0  0  0  0  0  2  0  0  0  0  0  0
  195.5370  174.9740  145.5320 C   0  0  0  0  0  2  0  0  0  0  0  0
  197.9400  175.6450  143.0790 N   0  0  0  0  0  2  0  0  0  0  0  0
  195.8240  176.4850  143.7780 C   0  0  0  0  0  2  0  0  0  0  0  0
  195.8950  175.0790  144.1270 N   0  0  0  0  0  0  0  0  0  0  0  0
  197.1400  176.8530  143.1330 C   0  0  0  0  0  2  0  0  0  0  0  0
  197.3050  174.7330  144.0140 C   0  0  0  0  0  2  0  0  0  0  0  0
  1 27  2  0  0  0  0
  1 18  1  0  0  0  0
  2 27  1  0  0  0  0
  2 14  1  0  0  0  0
  3 19  1  0  0  0  0
  3  7  2  0  0  0  0
  4 18  2  0  0  0  0
  4 15  1  0  0  0  0
  5 11  1  0  0  0  0
  5 19  1  0  0  0  0
  8 16  1  0  0  0  0
  9 25  1  0  0  0  0
  9 13  2  0  0  0  0
 10 22  1  0  0  0  0
 12  8  1  0  0  0  0
 12 15  1  0  0  0  0
 13 24  1  0  0  0  0
 15  5  2  0  0  0  0
 16  3  1  0  0  0  0
 17 28  1  0  0  0  0
 17 10  1  0  0  0  0
 18 20  1  0  0  0  0
 19  6  1  1  0  0  0
 20 13  1  0  0  0  0
 20 11  2  0  0  0  0
 21 26  1  0  0  0  0
 21 23  2  0  0  0  0
 23  4  1  0  0  0  0
 24 22  1  0  0  0  0
 25 14  1  6  0  0  0
 25 17  1  0  0  0  0
 26  1  1  0  0  0  0
 27  9  1  0  0  0  0
 29 28  1  0  0  0  0
 30 33  1  0  0  0  0
 30 34  1  0  0  0  0
 31 32  1  0  0  0  0
 32 29  1  0  0  0  0
 33 31  1  0  0  0  0
 34 32  1  0  0  0  0
M  END
>  <MODEL>
2

>  <REMARK>
 VINA RESULT:      -9.0      3.635      5.754
  Name = 
  3 active torsions:
  status: ('A' for Active; 'I' for Inactive)
    1  A    between atoms: N_17  and  C_28
    2  A    between atoms: C_28  and  C_29
    3  A    between atoms: C_29  and  N_32
                            x       y       z     vdW  Elec       q    Type
                         _______ _______ _______ _____ _____    ______ ____

>  <TORSDO>
F 3

$$$$
=
 OpenBabel11112418053D

 34 40  0  0  1  0  0  0  0  0999 V2000
  189.4620  175.1390  142.6180 C   0  0  0  0  0  0  0  0  0  0  0  0
  191.5680  173.6880  142.4190 C   0  0  0  0  0  2  0  0  0  0  0  0
  184.7800  178.2440  146.0680 C   0  0  0  0  0  0  0  0  0  0  0  0
  187.4490  176.4890  142.9920 C   0  0  0  0  0  0  0  0  0  0  0  0
  187.0220  177.4630  145.2050 C   0  0  0  0  0  0  0  0  0  0  0  0
  186.7420  178.3210  147.6160 C   0  0  0  0  0  1  0  0  0  0  0  0
  184.1670  177.4780  146.7960 O   0  0  0  0  0  0  0  0  0  0  0  0
  184.8910  179.1480  143.7570 C   0  0  0  0  0  2  0  0  0  0  0  0
  191.0210  174.7960  144.4410 C   0  0  0  0  0  0  0  0  0  0  0  0
  192.8490  174.9220  146.8530 C   0  0  0  0  0  2  0  0  0  0  0  0
  188.2290  176.9020  145.6470 C   0  0  0  0  0  3  0  0  0  0  0  0
  185.3150  177.7670  143.2740 C   0  0  0  0  0  2  0  0  0  0  0  0
  190.2390  175.5860  145.3050 C   0  0  0  0  0  0  0  0  0  0  0  0
  192.6890  173.4380  143.4260 C   0  0  0  0  0  2  0  0  0  0  0  0
  186.6340  177.2720  143.8430 C   0  0  0  0  0  0  0  0  0  0  0  0
  184.0470  179.0190  145.0210 C   0  0  0  0  0  2  0  0  0  0  0  0
  193.2490  174.7830  145.4600 N   0  0  0  0  0  0  0  0  0  0  0  0
  188.6460  175.9200  143.4700 C   0  0  0  0  0  0  0  0  0  0  0  0
  186.2710  178.3770  146.1640 C   0  0  2  0  0  3  0  0  0  0  0  0
  189.0360  176.1300  144.8140 C   0  0  0  0  0  0  0  0  0  0  0  0
  187.7990  175.5260  140.7580 C   0  0  0  0  0  3  0  0  0  0  0  0
  191.9510  176.1310  147.0210 C   0  0  0  0  0  2  0  0  0  0  0  0
  187.0590  176.2620  141.5840 C   0  0  0  0  0  3  0  0  0  0  0  0
  190.6150  175.8360  146.6310 O   0  0  0  0  0  0  0  0  0  0  0  0
  192.2190  173.9750  144.7940 C   0  0  1  0  0  3  0  0  0  0  0  0
  189.0790  174.8650  141.1850 C   0  0  0  0  0  2  0  0  0  0  0  0
  190.6380  174.5880  143.1370 C   0  0  0  0  0  0  0  0  0  0  0  0
  194.5010  174.0360  145.5060 C   0  0  0  0  0  2  0  0  0  0  0  0
  195.6730  175.0010  145.4910 C   0  0  0  0  0  2  0  0  0  0  0  0
  197.6270  172.5800  143.8900 N   0  0  0  0  0  2  0  0  0  0  0  0
  196.7000  172.9810  146.0460 C   0  0  0  0  0  2  0  0  0  0  0  0
  196.9200  174.2600  145.3990 N   0  0  0  0  0  0  0  0  0  0  0  0
  197.1260  171.9080  145.0720 C   0  0  0  0  0  2  0  0  0  0  0  0
  197.1310  173.9420  143.9940 C   0  0  0  0  0  2  0  0  0  0  0  0
  1 27  2  0  0  0  0
  1 18  1  0  0  0  0
  2 27  1  0  0  0  0
  2 14  1  0  0  0  0
  3 19  1  0  0  0  0
  3  7  2  0  0  0  0
  4 18  2  0  0  0  0
  4 15  1  0  0  0  0
  5 11  1  0  0  0  0
  5 19  1  0  0  0  0
  8 16  1  0  0  0  0
  9 25  1  0  0  0  0
  9 13  2  0  0  0  0
 10 22  1  0  0  0  0
 12  8  1  0  0  0  0
 12 15  1  0  0  0  0
 13 24  1  0  0  0  0
 15  5  2  0  0  0  0
 16  3  1  0  0  0  0
 17 28  1  0  0  0  0
 17 10  1  0  0  0  0
 18 20  1  0  0  0  0
 19  6  1  1  0  0  0
 20 13  1  0  0  0  0
 20 11  2  0  0  0  0
 21 26  1  0  0  0  0
 21 23  2  0  0  0  0
 23  4  1  0  0  0  0
 24 22  1  0  0  0  0
 25 14  1  6  0  0  0
 25 17  1  0  0  0  0
 26  1  1  0  0  0  0
 27  9  1  0  0  0  0
 29 28  1  0  0  0  0
 30 34  1  0  0  0  0
 30 33  1  0  0  0  0
 32 29  1  0  0  0  0
 32 31  1  0  0  0  0
 33 31  1  0  0  0  0
 34 32  1  0  0  0  0
M  END
>  <MODEL>
3

>  <REMARK>
 VINA RESULT:      -8.5      3.598      5.766
  Name = 
  3 active torsions:
  status: ('A' for Active; 'I' for Inactive)
    1  A    between atoms: N_17  and  C_28
    2  A    between atoms: C_28  and  C_29
    3  A    between atoms: C_29  and  N_32
                            x       y       z     vdW  Elec       q    Type
                         _______ _______ _______ _____ _____    ______ ____

>  <TORSDO>
F 3

$$$$
=
 OpenBabel11112418053D

 34 40  0  0  1  0  0  0  0  0999 V2000
  192.2900  175.8470  145.2670 C   0  0  0  0  0  0  0  0  0  0  0  0
  190.4330  177.6100  145.1040 C   0  0  0  0  0  2  0  0  0  0  0  0
  194.5370  169.6530  145.0460 C   0  0  0  0  0  0  0  0  0  0  0  0
  193.9320  174.0310  145.4090 C   0  0  0  0  0  0  0  0  0  0  0  0
  193.4150  171.8340  144.4430 C   0  0  0  0  0  0  0  0  0  0  0  0
  192.6310  169.6020  143.4280 C   0  0  0  0  0  1  0  0  0  0  0  0
  193.9540  168.9280  145.8380 O   0  0  0  0  0  0  0  0  0  0  0  0
  196.4170  171.2610  144.8150 C   0  0  0  0  0  2  0  0  0  0  0  0
  190.1740  175.4540  144.1530 C   0  0  0  0  0  0  0  0  0  0  0  0
  187.8480  174.6490  142.3880 C   0  0  0  0  0  2  0  0  0  0  0  0
  192.1800  172.3490  144.0210 C   0  0  0  0  0  3  0  0  0  0  0  0
  195.6490  172.2320  145.7010 C   0  0  0  0  0  2  0  0  0  0  0  0
  190.5410  174.1300  143.8480 C   0  0  0  0  0  0  0  0  0  0  0  0
  189.0920  177.5610  144.3740 C   0  0  0  0  0  2  0  0  0  0  0  0
  194.3200  172.6990  145.1320 C   0  0  0  0  0  0  0  0  0  0  0  0
  196.0180  169.8280  145.1490 C   0  0  0  0  0  2  0  0  0  0  0  0
  188.3930  175.9880  142.5580 N   0  0  0  0  0  0  0  0  0  0  0  0
  192.6770  174.5150  144.9920 C   0  0  0  0  0  0  0  0  0  0  0  0
  193.7830  170.4240  144.0030 C   0  0  2  0  0  3  0  0  0  0  0  0
  191.7930  173.6600  144.2910 C   0  0  0  0  0  0  0  0  0  0  0  0
  194.5090  176.1960  146.4200 C   0  0  0  0  0  3  0  0  0  0  0  0
  188.9480  173.6840  141.9940 C   0  0  0  0  0  2  0  0  0  0  0  0
  194.8450  174.9390  146.1370 C   0  0  0  0  0  3  0  0  0  0  0  0
  189.7000  173.2710  143.1290 O   0  0  0  0  0  0  0  0  0  0  0  0
  188.8410  176.0980  143.9530 C   0  0  1  0  0  3  0  0  0  0  0  0
  193.1850  176.7910  146.0330 C   0  0  0  0  0  3  0  0  0  0  0  0
  191.0320  176.2830  144.8390 C   0  0  2  0  0  3  0  0  0  0  0  0
  187.2600  176.8800  142.3370 C   0  0  0  0  0  2  0  0  0  0  0  0
  186.0640  176.3960  143.1360 C   0  0  0  0  0  2  0  0  0  0  0  0
  185.6730  179.7910  143.8880 N   0  0  0  0  0  2  0  0  0  0  0  0
  185.2070  177.6800  144.8860 C   0  0  0  0  0  2  0  0  0  0  0  0
  185.1910  177.5170  143.4450 N   0  0  0  0  0  0  0  0  0  0  0  0
  185.5420  179.1250  145.1690 C   0  0  0  0  0  2  0  0  0  0  0  0
  185.8280  178.7170  142.9220 C   0  0  0  0  0  2  0  0  0  0  0  0
  1 26  2  0  0  0  0
  3 16  1  0  0  0  0
  3  7  2  0  0  0  0
  4 23  1  0  0  0  0
  5 15  1  0  0  0  0
  8 16  1  0  0  0  0
  8 12  1  0  0  0  0
  9 27  1  0  0  0  0
 10 17  1  0  0  0  0
 11 20  1  0  0  0  0
 11  5  2  0  0  0  0
 13  9  2  0  0  0  0
 13 20  1  0  0  0  0
 14  2  1  0  0  0  0
 15  4  2  0  0  0  0
 15 12  1  0  0  0  0
 17 25  1  0  0  0  0
 18  1  1  0  0  0  0
 18  4  1  0  0  0  0
 19  6  1  1  0  0  0
 19  5  1  0  0  0  0
 19  3  1  0  0  0  0
 20 18  2  0  0  0  0
 22 10  1  0  0  0  0
 22 24  1  0  0  0  0
 23 21  2  0  0  0  0
 24 13  1  0  0  0  0
 25  9  1  0  0  0  0
 25 14  1  6  0  0  0
 26 21  1  0  0  0  0
 27  2  1  1  0  0  0
 27  1  1  0  0  0  0
 28 17  1  0  0  0  0
 28 29  1  0  0  0  0
 29 32  1  0  0  0  0
 30 33  1  0  0  0  0
 31 33  1  0  0  0  0
 32 31  1  0  0  0  0
 34 32  1  0  0  0  0
 34 30  1  0  0  0  0
M  END
>  <MODEL>
4

>  <REMARK>
 VINA RESULT:      -8.4      3.863      8.542
  Name = 
  3 active torsions:
  status: ('A' for Active; 'I' for Inactive)
    1  A    between atoms: N_17  and  C_28
    2  A    between atoms: C_28  and  C_29
    3  A    between atoms: C_29  and  N_32
                            x       y       z     vdW  Elec       q    Type
                         _______ _______ _______ _____ _____    ______ ____

>  <TORSDO>
F 3

$$$$
=
 OpenBabel11112418053D

 34 40  0  0  1  0  0  0  0  0999 V2000
  186.1730  178.2180  145.6000 C   0  0  0  0  0  0  0  0  0  0  0  0
  183.8600  179.0290  144.8420 C   0  0  0  0  0  2  0  0  0  0  0  0
  191.5640  174.4700  145.0010 C   0  0  0  0  0  0  0  0  0  0  0  0
  188.3730  177.3100  146.1920 C   0  0  0  0  0  0  0  0  0  0  0  0
  189.6840  176.0860  144.5150 C   0  0  0  0  0  0  0  0  0  0  0  0
  190.8460  174.7790  142.6250 C   0  0  0  0  0  1  0  0  0  0  0  0
  191.2910  173.2790  144.9840 O   0  0  0  0  0  0  0  0  0  0  0  0
  192.0160  176.3980  146.5000 C   0  0  0  0  0  2  0  0  0  0  0  0
  185.3240  177.9090  143.3510 C   0  0  0  0  0  0  0  0  0  0  0  0
  184.8150  177.6120  140.3800 C   0  0  0  0  0  2  0  0  0  0  0  0
  188.6570  176.3230  143.5890 C   0  0  0  0  0  3  0  0  0  0  0  0
  190.5600  176.3500  146.9430 C   0  0  0  0  0  2  0  0  0  0  0  0
  186.4920  177.2240  142.9670 C   0  0  0  0  0  0  0  0  0  0  0  0
  183.2110  178.9960  143.4590 C   0  0  0  0  0  2  0  0  0  0  0  0
  189.5500  176.6080  145.8380 C   0  0  0  0  0  0  0  0  0  0  0  0
  192.4700  175.0100  146.0600 C   0  0  0  0  0  2  0  0  0  0  0  0
  184.3340  178.6790  141.2470 N   0  0  0  0  0  0  0  0  0  0  0  0
  187.3490  177.5150  145.2460 C   0  0  0  0  0  0  0  0  0  0  0  0
  190.9550  175.4170  144.0090 C   0  0  2  0  0  3  0  0  0  0  0  0
  187.4960  177.0130  143.9310 C   0  0  0  0  0  0  0  0  0  0  0  0
  187.1070  178.5030  147.9280 C   0  0  0  0  0  3  0  0  0  0  0  0
  186.3200  177.4790  140.5010 C   0  0  0  0  0  2  0  0  0  0  0  0
  188.2040  177.8440  147.5600 C   0  0  0  0  0  3  0  0  0  0  0  0
  186.6780  176.7430  141.6640 O   0  0  0  0  0  0  0  0  0  0  0  0
  184.0670  178.0800  142.5610 C   0  0  1  0  0  3  0  0  0  0  0  0
  185.9560  178.7500  146.9950 C   0  0  0  0  0  3  0  0  0  0  0  0
  185.1790  178.3910  144.6310 C   0  0  2  0  0  3  0  0  0  0  0  0
  183.0790  179.1100  140.6420 C   0  0  0  0  0  2  0  0  0  0  0  0
  182.1560  177.9160  140.4710 C   0  0  0  0  0  2  0  0  0  0  0  0
  178.8160  178.7200  139.8070 N   0  0  0  0  0  2  0  0  0  0  0  0
  180.7000  179.6900  140.8920 C   0  0  0  0  0  2  0  0  0  0  0  0
  180.8280  178.2470  140.9600 N   0  0  0  0  0  0  0  0  0  0  0  0
  179.4300  179.9920  140.1330 C   0  0  0  0  0  2  0  0  0  0  0  0
  179.8710  177.7370  139.9880 C   0  0  0  0  0  2  0  0  0  0  0  0
  1 26  2  0  0  0  0
  3 16  1  0  0  0  0
  4 23  1  0  0  0  0
  5 15  1  0  0  0  0
  7  3  2  0  0  0  0
  8 12  1  0  0  0  0
  9 27  1  0  0  0  0
 10 22  1  0  0  0  0
 10 17  1  0  0  0  0
 11 20  1  0  0  0  0
 11  5  2  0  0  0  0
 13  9  2  0  0  0  0
 13 20  1  0  0  0  0
 14  2  1  0  0  0  0
 15  4  2  0  0  0  0
 15 12  1  0  0  0  0
 16  8  1  0  0  0  0
 17 25  1  0  0  0  0
 18  1  1  0  0  0  0
 18  4  1  0  0  0  0
 19  6  1  6  0  0  0
 19  5  1  0  0  0  0
 19  3  1  0  0  0  0
 20 18  2  0  0  0  0
 22 24  1  0  0  0  0
 23 21  2  0  0  0  0
 24 13  1  0  0  0  0
 25  9  1  0  0  0  0
 25 14  1  1  0  0  0
 26 21  1  0  0  0  0
 27  2  1  1  0  0  0
 27  1  1  0  0  0  0
 28 17  1  0  0  0  0
 29 28  1  0  0  0  0
 29 32  1  0  0  0  0
 30 34  1  0  0  0  0
 30 33  1  0  0  0  0
 31 32  1  0  0  0  0
 33 31  1  0  0  0  0
 34 32  1  0  0  0  0
M  END
>  <MODEL>
5

>  <REMARK>
 VINA RESULT:      -8.4      4.227      8.154
  Name = 
  3 active torsions:
  status: ('A' for Active; 'I' for Inactive)
    1  A    between atoms: N_17  and  C_28
    2  A    between atoms: C_28  and  C_29
    3  A    between atoms: C_29  and  N_32
                            x       y       z     vdW  Elec       q    Type
                         _______ _______ _______ _____ _____    ______ ____

>  <TORSDO>
F 3

$$$$
=
 OpenBabel11112418053D

 34 40  0  0  1  0  0  0  0  0999 V2000
  189.6690  174.8700  142.1720 C   0  0  0  0  0  0  0  0  0  0  0  0
  187.1870  175.4770  142.4010 C   0  0  0  0  0  2  0  0  0  0  0  0
  196.0520  175.6230  143.6370 C   0  0  0  0  0  0  0  0  0  0  0  0
  192.0800  174.4400  142.0590 C   0  0  0  0  0  0  0  0  0  0  0  0
  193.5580  175.2770  143.8320 C   0  0  0  0  0  0  0  0  0  0  0  0
  194.9200  176.3080  145.7580 C   0  0  0  0  0  1  0  0  0  0  0  0
  196.4400  176.7590  143.4140 O   0  0  0  0  0  0  0  0  0  0  0  0
  195.6630  173.4010  142.5950 C   0  0  0  0  0  2  0  0  0  0  0  0
  188.7670  176.1060  144.0510 C   0  0  0  0  0  0  0  0  0  0  0  0
  188.0330  177.3550  146.7120 C   0  0  0  0  0  2  0  0  0  0  0  0
  192.4290  175.8000  144.4790 C   0  0  0  0  0  3  0  0  0  0  0  0
  194.5330  174.0190  141.7830 C   0  0  0  0  0  2  0  0  0  0  0  0
  190.0440  176.2270  144.6290 C   0  0  0  0  0  0  0  0  0  0  0  0
  186.4440  176.1650  143.5440 C   0  0  0  0  0  2  0  0  0  0  0  0
  193.3790  174.5630  142.6080 C   0  0  0  0  0  0  0  0  0  0  0  0
  196.6970  174.4670  142.9400 C   0  0  0  0  0  2  0  0  0  0  0  0
  187.2090  176.4640  145.9070 N   0  0  0  0  0  0  0  0  0  0  0  0
  190.9670  174.9950  142.7200 C   0  0  0  0  0  0  0  0  0  0  0  0
  194.8950  175.3660  144.5560 C   0  0  2  0  0  3  0  0  0  0  0  0
  191.1480  175.6830  143.9440 C   0  0  0  0  0  0  0  0  0  0  0  0
  190.6660  173.5930  140.2350 C   0  0  0  0  0  3  0  0  0  0  0  0
  189.3850  176.7220  146.9730 C   0  0  0  0  0  2  0  0  0  0  0  0
  191.8730  173.7210  140.7830 C   0  0  0  0  0  3  0  0  0  0  0  0
  190.2490  176.8760  145.8540 O   0  0  0  0  0  0  0  0  0  0  0  0
  187.5000  176.7600  144.4990 C   0  0  1  0  0  3  0  0  0  0  0  0
  189.4260  174.1680  140.8580 C   0  0  0  0  0  2  0  0  0  0  0  0
  188.5930  175.4420  142.8590 C   0  0  0  0  0  0  0  0  0  0  0  0
  185.8360  176.8500  146.2150 C   0  0  0  0  0  2  0  0  0  0  0  0
  185.8290  178.1910  146.9260 C   0  0  0  0  0  2  0  0  0  0  0  0
  183.8770  178.9490  144.1230 N   0  0  0  0  0  2  0  0  0  0  0  0
  185.7920  179.8090  145.2460 C   0  0  0  0  0  2  0  0  0  0  0  0
  184.9650  179.1200  146.2180 N   0  0  0  0  0  0  0  0  0  0  0  0
  185.1120  179.6760  143.9040 C   0  0  0  0  0  2  0  0  0  0  0  0
  184.0350  178.3270  145.4270 C   0  0  0  0  0  2  0  0  0  0  0  0
  1 18  1  0  0  0  0
  1 27  2  0  0  0  0
  2 27  1  0  0  0  0
  2 14  1  0  0  0  0
  3 19  1  0  0  0  0
  4 15  1  0  0  0  0
  4 18  2  0  0  0  0
  5 11  1  0  0  0  0
  5 19  1  0  0  0  0
  7  3  2  0  0  0  0
  8 16  1  0  0  0  0
  9 25  1  0  0  0  0
  9 13  2  0  0  0  0
 10 22  1  0  0  0  0
 12  8  1  0  0  0  0
 12 15  1  0  0  0  0
 13 24  1  0  0  0  0
 15  5  2  0  0  0  0
 16  3  1  0  0  0  0
 17 28  1  0  0  0  0
 17 10  1  0  0  0  0
 18 20  1  0  0  0  0
 19  6  1  1  0  0  0
 20 11  2  0  0  0  0
 20 13  1  0  0  0  0
 21 23  2  0  0  0  0
 21 26  1  0  0  0  0
 23  4  1  0  0  0  0
 24 22  1  0  0  0  0
 25 14  1  6  0  0  0
 25 17  1  0  0  0  0
 26  1  1  0  0  0  0
 27  9  1  0  0  0  0
 28 29  1  0  0  0  0
 30 34  1  0  0  0  0
 31 32  1  0  0  0  0
 32 29  1  0  0  0  0
 33 30  1  0  0  0  0
 33 31  1  0  0  0  0
 34 32  1  0  0  0  0
M  END
>  <MODEL>
6

>  <REMARK>
 VINA RESULT:      -8.3      3.873      8.915
  Name = 
  3 active torsions:
  status: ('A' for Active; 'I' for Inactive)
    1  A    between atoms: N_17  and  C_28
    2  A    between atoms: C_28  and  C_29
    3  A    between atoms: C_29  and  N_32
                            x       y       z     vdW  Elec       q    Type
                         _______ _______ _______ _____ _____    ______ ____

>  <TORSDO>
F 3

$$$$
=
 OpenBabel11112418053D

 34 40  0  0  1  0  0  0  0  0999 V2000
  191.9110  176.3990  146.2840 C   0  0  0  0  0  0  0  0  0  0  0  0
  194.3860  175.7610  146.5130 C   0  0  0  0  0  2  0  0  0  0  0  0
  186.4990  177.7410  142.7660 C   0  0  0  0  0  0  0  0  0  0  0  0
  189.5740  177.0230  145.8800 C   0  0  0  0  0  0  0  0  0  0  0  0
  188.5550  176.5980  143.6860 C   0  0  0  0  0  0  0  0  0  0  0  0
  187.7200  176.1260  141.2980 C   0  0  0  0  0  1  0  0  0  0  0  0
  186.6790  178.6660  141.9880 O   0  0  0  0  0  0  0  0  0  0  0  0
  185.8890  177.1870  145.1100 C   0  0  0  0  0  2  0  0  0  0  0  0
  193.1870  175.3490  144.5110 C   0  0  0  0  0  0  0  0  0  0  0  0
  194.2810  173.7590  142.1760 C   0  0  0  0  0  2  0  0  0  0  0  0
  189.7670  176.0270  143.2720 C   0  0  0  0  0  3  0  0  0  0  0  0
  187.2130  177.7900  145.5600 C   0  0  0  0  0  2  0  0  0  0  0  0
  192.0770  175.3820  143.6450 C   0  0  0  0  0  0  0  0  0  0  0  0
  195.3060  175.0240  145.5410 C   0  0  0  0  0  2  0  0  0  0  0  0
  188.4480  177.0860  145.0250 C   0  0  0  0  0  0  0  0  0  0  0  0
  185.4350  177.8440  143.8110 C   0  0  0  0  0  2  0  0  0  0  0  0
  194.6490  173.6190  143.5780 N   0  0  0  0  0  0  0  0  0  0  0  0
  190.7860  176.4640  145.4280 C   0  0  2  0  0  3  0  0  0  0  0  0
  187.3710  176.5210  142.7320 C   0  0  2  0  0  3  0  0  0  0  0  0
  190.8800  175.9620  144.1080 C   0  0  0  0  0  0  0  0  0  0  0  0
  190.5350  177.5010  148.0910 C   0  0  0  0  0  3  0  0  0  0  0  0
  192.7790  173.6420  142.0160 C   0  0  0  0  0  2  0  0  0  0  0  0
  189.4930  177.5390  147.2630 C   0  0  0  0  0  3  0  0  0  0  0  0
  192.1310  174.8660  142.3440 O   0  0  0  0  0  0  0  0  0  0  0  0
  194.5900  174.9590  144.1760 C   0  0  1  0  0  3  0  0  0  0  0  0
  191.8710  176.9420  147.6910 C   0  0  0  0  0  3  0  0  0  0  0  0
  193.0960  175.8420  145.7910 C   0  0  0  0  0  0  0  0  0  0  0  0
  196.0320  173.1560  143.5540 C   0  0  0  0  0  2  0  0  0  0  0  0
  196.0830  171.6770  143.8940 C   0  0  0  0  0  2  0  0  0  0  0  0
  196.7570  169.6810  146.6870 N   0  0  0  0  0  2  0  0  0  0  0  0
  194.8890  170.7540  145.6740 C   0  0  0  0  0  2  0  0  0  0  0  0
  196.0840  171.5040  145.3370 N   0  0  0  0  0  0  0  0  0  0  0  0
  195.3220  169.5750  146.5130 C   0  0  0  0  0  2  0  0  0  0  0  0
  197.1910  170.6170  145.6640 C   0  0  0  0  0  2  0  0  0  0  0  0
  1 26  2  0  0  0  0
  3 16  1  0  0  0  0
  4 23  1  0  0  0  0
  5 15  1  0  0  0  0
  7  3  2  0  0  0  0
  8 12  1  0  0  0  0
  9 27  2  0  0  0  0
 10 17  1  0  0  0  0
 11  5  2  0  0  0  0
 11 20  1  0  0  0  0
 13 20  2  0  0  0  0
 13  9  1  0  0  0  0
 14  2  1  0  0  0  0
 15 12  1  0  0  0  0
 15  4  2  0  0  0  0
 16  8  1  0  0  0  0
 17 25  1  0  0  0  0
 18 20  1  1  0  0  0
 18  4  1  0  0  0  0
 18  1  1  0  0  0  0
 19  6  1  6  0  0  0
 19  3  1  0  0  0  0
 19  5  1  0  0  0  0
 22 10  1  0  0  0  0
 22 24  1  0  0  0  0
 23 21  2  0  0  0  0
 24 13  1  0  0  0  0
 25  9  1  0  0  0  0
 25 14  1  1  0  0  0
 26 21  1  0  0  0  0
 27  1  1  0  0  0  0
 27  2  1  0  0  0  0
 28 17  1  0  0  0  0
 28 29  1  0  0  0  0
 29 32  1  0  0  0  0
 31 33  1  0  0  0  0
 32 34  1  0  0  0  0
 32 31  1  0  0  0  0
 33 30  1  0  0  0  0
 34 30  1  0  0  0  0
M  END
>  <MODEL>
7

>  <REMARK>
 VINA RESULT:      -8.2      3.698      5.293
  Name = 
  3 active torsions:
  status: ('A' for Active; 'I' for Inactive)
    1  A    between atoms: N_17  and  C_28
    2  A    between atoms: C_28  and  C_29
    3  A    between atoms: C_29  and  N_32
                            x       y       z     vdW  Elec       q    Type
                         _______ _______ _______ _____ _____    ______ ____

>  <TORSDO>
F 3

$$$$
=
 OpenBabel11112418053D

 34 40  0  0  1  0  0  0  0  0999 V2000
  191.7430  176.3890  145.7370 C   0  0  0  0  0  0  0  0  0  0  0  0
  189.4670  176.5380  146.9120 C   0  0  0  0  0  2  0  0  0  0  0  0
  195.7010  174.4340  140.8410 C   0  0  0  0  0  0  0  0  0  0  0  0
  193.8400  176.1270  144.4930 C   0  0  0  0  0  0  0  0  0  0  0  0
  193.7860  175.4590  142.1310 C   0  0  0  0  0  0  0  0  0  0  0  0
  193.4940  174.6840  139.6930 C   0  0  0  0  0  1  0  0  0  0  0  0
  195.6950  173.2200  140.7070 O   0  0  0  0  0  0  0  0  0  0  0  0
  196.7470  176.3020  142.1020 C   0  0  0  0  0  2  0  0  0  0  0  0
  189.6330  176.0020  144.6100 C   0  0  0  0  0  0  0  0  0  0  0  0
  187.2550  175.7760  142.7460 C   0  0  0  0  0  2  0  0  0  0  0  0
  192.3860  175.4490  142.2010 C   0  0  0  0  0  3  0  0  0  0  0  0
  196.0470  175.8000  143.3580 C   0  0  0  0  0  2  0  0  0  0  0  0
  190.2920  175.7170  143.3990 C   0  0  0  0  0  0  0  0  0  0  0  0
  188.0550  176.4130  146.3420 C   0  0  0  0  0  2  0  0  0  0  0  0
  194.5300  175.8260  143.2940 C   0  0  0  0  0  0  0  0  0  0  0  0
  196.9840  175.1420  141.1410 C   0  0  0  0  0  2  0  0  0  0  0  0
  187.3490  176.5920  143.9480 N   0  0  0  0  0  0  0  0  0  0  0  0
  192.4320  176.0870  144.5390 C   0  0  2  0  0  3  0  0  0  0  0  0
  194.4300  175.2280  140.7700 C   0  0  2  0  0  3  0  0  0  0  0  0
  191.7010  175.7430  143.3780 C   0  0  0  0  0  0  0  0  0  0  0  0
  193.9710  176.7730  146.8610 C   0  0  0  0  0  3  0  0  0  0  0  0
  188.4120  176.0810  141.8160 C   0  0  0  0  0  2  0  0  0  0  0  0
  194.5880  176.4920  145.7150 C   0  0  0  0  0  3  0  0  0  0  0  0
  189.5930  175.4030  142.2260 O   0  0  0  0  0  0  0  0  0  0  0  0
  188.1770  175.8520  144.9100 C   0  0  1  0  0  3  0  0  0  0  0  0
  192.4770  176.7370  147.0090 C   0  0  0  0  0  3  0  0  0  0  0  0
  190.3450  176.3310  145.7390 C   0  0  0  0  0  0  0  0  0  0  0  0
  185.9810  176.6780  144.4460 C   0  0  0  0  0  2  0  0  0  0  0  0
  185.3060  177.9140  143.8790 C   0  0  0  0  0  2  0  0  0  0  0  0
  185.8150  179.4010  147.0050 N   0  0  0  0  0  2  0  0  0  0  0  0
  184.3170  177.8540  145.9910 C   0  0  0  0  0  2  0  0  0  0  0  0
  184.8140  178.7480  144.9630 N   0  0  0  0  0  0  0  0  0  0  0  0
  184.9770  178.2540  147.2900 C   0  0  0  0  0  2  0  0  0  0  0  0
  185.9680  179.4060  145.5600 C   0  0  0  0  0  2  0  0  0  0  0  0
  1 27  1  0  0  0  0
  1 26  2  0  0  0  0
  3 16  1  0  0  0  0
  4 18  1  0  0  0  0
  4 23  1  0  0  0  0
  5 11  2  0  0  0  0
  5 15  1  0  0  0  0
  7  3  2  0  0  0  0
  8 12  1  0  0  0  0
  9 25  1  0  0  0  0
  9 27  2  0  0  0  0
 10 17  1  0  0  0  0
 11 20  1  0  0  0  0
 13  9  1  0  0  0  0
 14  2  1  0  0  0  0
 15 12  1  0  0  0  0
 15  4  2  0  0  0  0
 16  8  1  0  0  0  0
 17 28  1  0  0  0  0
 17 25  1  0  0  0  0
 18 20  1  6  0  0  0
 18  1  1  0  0  0  0
 19  6  1  6  0  0  0
 19  3  1  0  0  0  0
 19  5  1  0  0  0  0
 20 13  2  0  0  0  0
 21 26  1  0  0  0  0
 22 24  1  0  0  0  0
 22 10  1  0  0  0  0
 23 21  2  0  0  0  0
 24 13  1  0  0  0  0
 25 14  1  1  0  0  0
 27  2  1  0  0  0  0
 29 28  1  0  0  0  0
 29 32  1  0  0  0  0
 30 33  1  0  0  0  0
 31 33  1  0  0  0  0
 32 34  1  0  0  0  0
 32 31  1  0  0  0  0
 34 30  1  0  0  0  0
M  END
>  <MODEL>
8

>  <REMARK>
 VINA RESULT:      -8.2      4.032      8.655
  Name = 
  3 active torsions:
  status: ('A' for Active; 'I' for Inactive)
    1  A    between atoms: N_17  and  C_28
    2  A    between atoms: C_28  and  C_29
    3  A    between atoms: C_29  and  N_32
                            x       y       z     vdW  Elec       q    Type
                         _______ _______ _______ _____ _____    ______ ____

>  <TORSDO>
F 3

$$$$
=
 OpenBabel11112418053D

 34 40  0  0  1  0  0  0  0  0999 V2000
  190.2700  172.9280  142.8090 C   0  0  0  0  0  0  0  0  0  0  0  0
  187.9420  173.6590  142.0170 C   0  0  0  0  0  2  0  0  0  0  0  0
  196.2570  174.1040  145.3080 C   0  0  0  0  0  0  0  0  0  0  0  0
  192.5380  172.4100  143.5850 C   0  0  0  0  0  0  0  0  0  0  0  0
  193.7530  174.0230  144.9810 C   0  0  0  0  0  0  0  0  0  0  0  0
  194.8610  175.8870  146.3690 C   0  0  0  0  0  1  0  0  0  0  0  0
  196.8780  174.9150  144.6380 O   0  0  0  0  0  0  0  0  0  0  0  0
  195.6940  171.6940  145.5170 C   0  0  0  0  0  2  0  0  0  0  0  0
  189.2440  175.0280  143.4490 C   0  0  0  0  0  0  0  0  0  0  0  0
  188.2240  177.5610  144.7610 C   0  0  0  0  0  2  0  0  0  0  0  0
  192.6290  174.8600  144.9320 C   0  0  0  0  0  3  0  0  0  0  0  0
  194.8800  171.8090  144.2340 C   0  0  0  0  0  2  0  0  0  0  0  0
  190.3790  175.3950  144.1960 C   0  0  0  0  0  0  0  0  0  0  0  0
  187.1190  174.8920  142.3880 C   0  0  0  0  0  2  0  0  0  0  0  0
  193.7000  172.7620  144.3120 C   0  0  0  0  0  0  0  0  0  0  0  0
  196.8110  172.7320  145.5170 C   0  0  0  0  0  2  0  0  0  0  0  0
  187.4330  176.4080  144.3530 N   0  0  0  0  0  0  0  0  0  0  0  0
  191.4320  173.2800  143.5350 C   0  0  0  0  0  0  0  0  0  0  0  0
  194.9100  174.4420  145.8780 C   0  0  2  0  0  3  0  0  0  0  0  0
  191.4820  174.5200  144.2170 C   0  0  0  0  0  0  0  0  0  0  0  0
  191.3930  170.7580  142.1700 C   0  0  0  0  0  3  0  0  0  0  0  0
  189.3600  177.1220  145.6630 C   0  0  0  0  0  2  0  0  0  0  0  0
  192.4670  171.1180  142.8690 C   0  0  0  0  0  3  0  0  0  0  0  0
  190.4450  176.6010  144.9060 O   0  0  0  0  0  0  0  0  0  0  0  0
  188.0500  175.8700  143.1340 C   0  0  1  0  0  3  0  0  0  0  0  0
  190.1760  171.6300  142.0450 C   0  0  0  0  0  2  0  0  0  0  0  0
  189.1980  173.8260  142.7820 C   0  0  0  0  0  0  0  0  0  0  0  0
  186.1190  176.9540  144.0350 C   0  0  0  0  0  2  0  0  0  0  0  0
  186.1660  178.4710  144.0950 C   0  0  0  0  0  2  0  0  0  0  0  0
  183.8860  178.0540  141.4740 N   0  0  0  0  0  2  0  0  0  0  0  0
  186.1670  178.6660  141.7700 C   0  0  0  0  0  2  0  0  0  0  0  0
  185.4380  179.0310  142.9690 N   0  0  0  0  0  0  0  0  0  0  0  0
  185.1820  178.0170  140.8270 C   0  0  0  0  0  2  0  0  0  0  0  0
  184.1730  178.3170  142.8740 C   0  0  0  0  0  2  0  0  0  0  0  0
  1 18  1  0  0  0  0
  2 14  1  0  0  0  0
  2 27  1  0  0  0  0
  3 16  1  0  0  0  0
  3 19  1  0  0  0  0
  4 15  1  0  0  0  0
  5 19  1  0  0  0  0
  7  3  2  0  0  0  0
  8 16  1  0  0  0  0
  9 13  2  0  0  0  0
 10 22  1  0  0  0  0
 11  5  1  0  0  0  0
 12 15  1  0  0  0  0
 12  8  1  0  0  0  0
 13 20  1  0  0  0  0
 13 24  1  0  0  0  0
 15  5  2  0  0  0  0
 17 10  1  0  0  0  0
 18  4  2  0  0  0  0
 18 20  1  0  0  0  0
 19  6  1  6  0  0  0
 20 11  2  0  0  0  0
 21 23  2  0  0  0  0
 23  4  1  0  0  0  0
 24 22  1  0  0  0  0
 25 14  1  1  0  0  0
 25  9  1  0  0  0  0
 25 17  1  0  0  0  0
 26 21  1  0  0  0  0
 26  1  1  0  0  0  0
 27  1  2  0  0  0  0
 27  9  1  0  0  0  0
 28 29  1  0  0  0  0
 28 17  1  0  0  0  0
 30 34  1  0  0  0  0
 31 32  1  0  0  0  0
 32 29  1  0  0  0  0
 33 30  1  0  0  0  0
 33 31  1  0  0  0  0
 34 32  1  0  0  0  0
M  END
>  <MODEL>
9

>  <REMARK>
 VINA RESULT:      -8.0      3.706      8.372
  Name = 
  3 active torsions:
  status: ('A' for Active; 'I' for Inactive)
    1  A    between atoms: N_17  and  C_28
    2  A    between atoms: C_28  and  C_29
    3  A    between atoms: C_29  and  N_32
                            x       y       z     vdW  Elec       q    Type
                         _______ _______ _______ _____ _____    ______ ____

>  <TORSDO>
F 3

$$$$
