=
 OpenBabel11112416453D

 31 35  0  0  1  0  0  0  0  0999 V2000
  185.9190  178.0340  140.9410 C   0  0  0  0  0  0  0  0  0  0  0  0
  188.0490  177.7480  144.0330 N   0  0  0  0  0  0  0  0  0  0  0  0
  187.1860  177.7910  145.1960 C   0  0  0  0  0  0  0  0  0  0  0  0
  191.1790  173.9080  142.2260 N   0  0  0  0  0  2  0  0  0  0  0  0
  191.7530  174.4980  143.2220 C   0  0  0  0  0  0  0  0  0  0  0  0
  185.0530  178.3060  146.2530 C   0  0  0  0  0  0  0  0  0  0  0  0
  187.5330  177.5800  142.6970 C   0  0  0  0  0  0  0  0  0  0  0  0
  186.5920  177.1510  140.0910 C   0  0  0  0  0  3  0  0  0  0  0  0
  185.8690  178.2750  145.1200 C   0  0  0  0  0  3  0  0  0  0  0  0
  189.9810  176.3460  143.4090 C   0  0  0  0  0  0  0  0  0  0  0  0
  184.8090  178.6780  140.5080 F   0  0  0  0  0  0  0  0  0  0  0  0
  189.0480  176.7780  146.5390 C   0  0  0  0  0  2  0  0  0  0  0  0
  183.6650  178.8220  146.1540 C   0  0  0  0  0  1  0  0  0  0  0  0
  189.3910  176.0290  142.2910 N   0  0  0  0  0  0  0  0  0  0  0  0
  189.5090  177.5560  144.1850 C   0  0  2  0  0  3  0  0  0  0  0  0
  191.1660  175.6570  143.8310 N   0  0  0  0  0  2  0  0  0  0  0  0
  186.3870  178.2460  142.2410 C   0  0  0  0  0  3  0  0  0  0  0  0
  185.5430  177.8490  147.4780 C   0  0  0  0  0  3  0  0  0  0  0  0
  188.2160  176.7080  141.8290 C   0  0  0  0  0  0  0  0  0  0  0  0
  187.7400  176.4880  140.5340 C   0  0  0  0  0  3  0  0  0  0  0  0
  189.9840  177.5750  145.6450 C   0  0  0  0  0  2  0  0  0  0  0  0
  187.6710  177.3430  146.4390 C   0  0  0  0  0  0  0  0  0  0  0  0
  186.8490  177.3630  147.5700 C   0  0  0  0  0  3  0  0  0  0  0  0
  194.1430  175.5490  145.9620 C   0  0  1  0  0  3  0  0  0  0  0  0
  192.7770  173.5470  145.3070 C   0  0  0  0  0  2  0  0  0  0  0  0
  194.4380  175.0540  142.2170 N   0  0  0  0  0  1  0  0  0  0  0  0
  194.1590  176.6980  146.7500 O   0  0  0  0  0  1  0  0  0  0  0  0
  192.8260  174.8080  146.1710 C   0  0  0  0  0  2  0  0  0  0  0  0
  194.2690  174.6890  143.6140 C   0  0  2  0  0  3  0  0  0  0  0  0
  192.9810  173.8740  143.8230 C   0  0  2  0  0  3  0  0  0  0  0  0
  194.3060  175.9370  144.4960 C   0  0  0  0  0  2  0  0  0  0  0  0
  1 17  1  0  0  0  0
  2 15  1  0  0  0  0
  2  3  1  0  0  0  0
  3 22  1  0  0  0  0
  4  5  2  0  0  0  0
  5 16  1  0  0  0  0
  6 18  2  0  0  0  0
  7  2  1  0  0  0  0
  8 20  1  0  0  0  0
  8  1  2  0  0  0  0
  9  3  2  0  0  0  0
  9  6  1  0  0  0  0
 10 16  1  0  0  0  0
 10 15  1  0  0  0  0
 11  1  1  0  0  0  0
 13  6  1  0  0  0  0
 14 10  2  0  0  0  0
 15 21  1  1  0  0  0
 17  7  2  0  0  0  0
 18 23  1  0  0  0  0
 19 14  1  0  0  0  0
 19  7  1  0  0  0  0
 20 19  2  0  0  0  0
 21 12  1  0  0  0  0
 22 12  1  0  0  0  0
 22 23  2  0  0  0  0
 24 28  1  0  0  0  0
 24 27  1  1  0  0  0
 25 28  1  0  0  0  0
 29 26  1  6  0  0  0
 29 30  1  0  0  0  0
 29 31  1  0  0  0  0
 30  5  1  1  0  0  0
 30 25  1  0  0  0  0
 31 24  1  0  0  0  0
M  END
>  <MODEL>
1

>  <REMARK>
 VINA RESULT:      -9.6      0.000      0.000
  Name = 
  1 active torsions:
  status: ('A' for Active; 'I' for Inactive)
    1  A    between atoms: C_5  and  C_30
                            x       y       z     vdW  Elec       q    Type
                         _______ _______ _______ _____ _____    ______ ____

>  <TORSDO>
F 1

$$$$
=
 OpenBabel11112416453D

 31 35  0  0  1  0  0  0  0  0999 V2000
  184.6330  178.5060  146.2220 C   0  0  0  0  0  0  0  0  0  0  0  0
  186.8780  176.4300  144.0230 N   0  0  0  0  0  0  0  0  0  0  0  0
  186.6660  176.8220  142.6440 C   0  0  0  0  0  0  0  0  0  0  0  0
  191.1660  176.7890  147.0710 N   0  0  0  0  0  2  0  0  0  0  0  0
  191.2930  175.7850  146.2670 C   0  0  0  0  0  0  0  0  0  0  0  0
  185.3420  177.9080  140.9130 C   0  0  0  0  0  0  0  0  0  0  0  0
  186.3640  177.2000  145.1300 C   0  0  0  0  0  0  0  0  0  0  0  0
  185.4780  178.7120  147.3170 C   0  0  0  0  0  3  0  0  0  0  0  0
  185.5250  177.5390  142.2480 C   0  0  0  0  0  3  0  0  0  0  0  0
  188.8980  175.9540  145.3580 C   0  0  0  0  0  0  0  0  0  0  0  0
  183.3900  179.0400  146.2150 F   0  0  0  0  0  0  0  0  0  0  0  0
  188.8650  175.7560  142.0690 C   0  0  0  0  0  2  0  0  0  0  0  0
  184.1290  178.6660  140.5130 C   0  0  0  0  0  1  0  0  0  0  0  0
  188.5170  176.8270  146.2470 N   0  0  0  0  0  0  0  0  0  0  0  0
  187.8900  175.4080  144.3690 C   0  0  2  0  0  3  0  0  0  0  0  0
  190.2160  175.3920  145.4030 N   0  0  0  0  0  2  0  0  0  0  0  0
  185.0760  177.7530  145.1300 C   0  0  0  0  0  3  0  0  0  0  0  0
  186.3010  177.5670  139.9570 C   0  0  0  0  0  3  0  0  0  0  0  0
  187.2000  177.3960  146.2430 C   0  0  0  0  0  0  0  0  0  0  0  0
  186.7610  178.1580  147.3280 C   0  0  0  0  0  3  0  0  0  0  0  0
  188.5320  174.7360  143.1460 C   0  0  0  0  0  2  0  0  0  0  0  0
  187.6200  176.4750  141.6680 C   0  0  0  0  0  0  0  0  0  0  0  0
  187.4410  176.8560  140.3350 C   0  0  0  0  0  3  0  0  0  0  0  0
  193.9900  175.7750  143.6120 C   0  0  1  0  0  3  0  0  0  0  0  0
  193.7710  176.1380  146.0870 C   0  0  0  0  0  2  0  0  0  0  0  0
  191.6240  173.1690  145.0130 N   0  0  0  0  0  1  0  0  0  0  0  0
  194.0380  176.4160  142.3750 O   0  0  0  0  0  1  0  0  0  0  0  0
  193.8380  176.8160  144.7180 C   0  0  0  0  0  2  0  0  0  0  0  0
  192.7350  174.1060  144.9930 C   0  0  2  0  0  3  0  0  0  0  0  0
  192.6320  175.1140  146.1510 C   0  0  2  0  0  3  0  0  0  0  0  0
  192.8160  174.8030  143.6350 C   0  0  0  0  0  2  0  0  0  0  0  0
  1  8  1  0  0  0  0
  2 15  1  0  0  0  0
  2  7  1  0  0  0  0
  3  2  1  0  0  0  0
  5  4  2  0  0  0  0
  6  9  2  0  0  0  0
  7 17  1  0  0  0  0
  7 19  2  0  0  0  0
  8 20  2  0  0  0  0
  9  3  1  0  0  0  0
 10 16  1  0  0  0  0
 10 14  2  0  0  0  0
 11  1  1  0  0  0  0
 12 21  1  0  0  0  0
 13  6  1  0  0  0  0
 15 21  1  6  0  0  0
 15 10  1  0  0  0  0
 16  5  1  0  0  0  0
 17  1  2  0  0  0  0
 18 23  2  0  0  0  0
 18  6  1  0  0  0  0
 19 14  1  0  0  0  0
 19 20  1  0  0  0  0
 22 12  1  0  0  0  0
 22  3  2  0  0  0  0
 23 22  1  0  0  0  0
 24 27  1  6  0  0  0
 24 31  1  0  0  0  0
 24 28  1  0  0  0  0
 25 30  1  0  0  0  0
 28 25  1  0  0  0  0
 29 26  1  6  0  0  0
 29 30  1  0  0  0  0
 30  5  1  6  0  0  0
 31 29  1  0  0  0  0
M  END
>  <MODEL>
2

>  <REMARK>
 VINA RESULT:      -8.8      2.015      4.443
  Name = 
  1 active torsions:
  status: ('A' for Active; 'I' for Inactive)
    1  A    between atoms: C_5  and  C_30
                            x       y       z     vdW  Elec       q    Type
                         _______ _______ _______ _____ _____    ______ ____

>  <TORSDO>
F 1

$$$$
=
 OpenBabel11112416453D

 31 35  0  0  1  0  0  0  0  0999 V2000
  186.3110  177.7630  140.8710 C   0  0  0  0  0  0  0  0  0  0  0  0
  188.1170  177.5430  144.1690 N   0  0  0  0  0  0  0  0  0  0  0  0
  187.1540  177.7230  145.2370 C   0  0  0  0  0  0  0  0  0  0  0  0
  191.1120  173.3880  142.9130 N   0  0  0  0  0  2  0  0  0  0  0  0
  191.6320  174.0040  143.9230 C   0  0  0  0  0  0  0  0  0  0  0  0
  184.9760  178.4500  146.0470 C   0  0  0  0  0  0  0  0  0  0  0  0
  187.7170  177.3200  142.8010 C   0  0  0  0  0  0  0  0  0  0  0  0
  186.9950  176.7820  140.1460 C   0  0  0  0  0  3  0  0  0  0  0  0
  185.8900  178.2880  145.0030 C   0  0  0  0  0  3  0  0  0  0  0  0
  189.9910  175.9750  143.8230 C   0  0  0  0  0  0  0  0  0  0  0  0
  185.2980  178.4490  140.2930 F   0  0  0  0  0  0  0  0  0  0  0  0
  188.8040  176.6790  146.8150 C   0  0  0  0  0  2  0  0  0  0  0  0
  183.6450  179.0510  145.7800 C   0  0  0  0  0  1  0  0  0  0  0  0
  189.4860  175.6240  142.6740 N   0  0  0  0  0  0  0  0  0  0  0  0
  189.5380  177.2650  144.4740 C   0  0  2  0  0  3  0  0  0  0  0  0
  191.0770  175.2390  144.4000 N   0  0  0  0  0  2  0  0  0  0  0  0
  186.6700  178.0300  142.1960 C   0  0  0  0  0  3  0  0  0  0  0  0
  185.3150  178.0450  147.3390 C   0  0  0  0  0  3  0  0  0  0  0  0
  188.4120  176.3480  142.0580 C   0  0  0  0  0  0  0  0  0  0  0  0
  188.0440  176.0740  140.7390 C   0  0  0  0  0  3  0  0  0  0  0  0
  189.8750  177.3490  145.9700 C   0  0  0  0  0  2  0  0  0  0  0  0
  187.4870  177.3280  146.5460 C   0  0  0  0  0  0  0  0  0  0  0  0
  186.5670  177.4790  147.5880 C   0  0  0  0  0  3  0  0  0  0  0  0
  195.2220  174.9570  144.6480 C   0  0  1  0  0  3  0  0  0  0  0  0
  193.1830  174.1750  145.8880 C   0  0  0  0  0  2  0  0  0  0  0  0
  193.5500  172.2230  142.6280 N   0  0  0  0  0  1  0  0  0  0  0  0
  195.9490  176.0820  144.2640 O   0  0  0  0  0  1  0  0  0  0  0  0
  194.0070  175.3920  145.4630 C   0  0  0  0  0  2  0  0  0  0  0  0
  193.9610  172.9640  143.8090 C   0  0  2  0  0  3  0  0  0  0  0  0
  192.7490  173.3410  144.6780 C   0  0  2  0  0  3  0  0  0  0  0  0
  194.7800  174.1900  143.4060 C   0  0  0  0  0  2  0  0  0  0  0  0
  1 17  1  0  0  0  0
  2 15  1  0  0  0  0
  2  3  1  0  0  0  0
  3 22  1  0  0  0  0
  4  5  2  0  0  0  0
  5 16  1  0  0  0  0
  6 18  2  0  0  0  0
  7  2  1  0  0  0  0
  8 20  1  0  0  0  0
  8  1  2  0  0  0  0
  9  3  2  0  0  0  0
  9  6  1  0  0  0  0
 10 16  1  0  0  0  0
 10 15  1  0  0  0  0
 11  1  1  0  0  0  0
 13  6  1  0  0  0  0
 14 10  2  0  0  0  0
 15 21  1  1  0  0  0
 17  7  2  0  0  0  0
 18 23  1  0  0  0  0
 19 14  1  0  0  0  0
 19  7  1  0  0  0  0
 20 19  2  0  0  0  0
 21 12  1  0  0  0  0
 22 12  1  0  0  0  0
 22 23  2  0  0  0  0
 24 27  1  6  0  0  0
 24 28  1  0  0  0  0
 28 25  1  0  0  0  0
 29 26  1  6  0  0  0
 29 30  1  0  0  0  0
 30  5  1  6  0  0  0
 30 25  1  0  0  0  0
 31 29  1  0  0  0  0
 31 24  1  0  0  0  0
M  END
>  <MODEL>
3

>  <REMARK>
 VINA RESULT:      -8.6      0.971      1.123
  Name = 
  1 active torsions:
  status: ('A' for Active; 'I' for Inactive)
    1  A    between atoms: C_5  and  C_30
                            x       y       z     vdW  Elec       q    Type
                         _______ _______ _______ _____ _____    ______ ____

>  <TORSDO>
F 1

$$$$
=
 OpenBabel11112416453D

 31 35  0  0  1  0  0  0  0  0999 V2000
  185.0500  177.9230  146.8320 C   0  0  0  0  0  0  0  0  0  0  0  0
  186.6930  176.4990  143.7570 N   0  0  0  0  0  0  0  0  0  0  0  0
  186.0340  177.0430  142.5870 C   0  0  0  0  0  0  0  0  0  0  0  0
  191.6570  177.0300  145.4550 N   0  0  0  0  0  2  0  0  0  0  0  0
  191.6220  176.1730  144.4880 C   0  0  0  0  0  0  0  0  0  0  0  0
  184.1490  178.1620  141.5250 C   0  0  0  0  0  0  0  0  0  0  0  0
  186.4740  177.0320  145.0800 C   0  0  0  0  0  0  0  0  0  0  0  0
  186.1670  178.0930  147.6570 C   0  0  0  0  0  3  0  0  0  0  0  0
  184.7660  177.6430  142.6660 C   0  0  0  0  0  3  0  0  0  0  0  0
  189.0590  176.1310  144.3510 C   0  0  0  0  0  0  0  0  0  0  0  0
  183.8210  178.2760  147.2770 F   0  0  0  0  0  0  0  0  0  0  0  0
  188.0380  176.3820  141.2280 C   0  0  0  0  0  2  0  0  0  0  0  0
  182.8080  178.7910  141.6270 C   0  0  0  0  0  1  0  0  0  0  0  0
  188.8910  176.8120  145.4480 N   0  0  0  0  0  0  0  0  0  0  0  0
  187.8510  175.5900  143.6160 C   0  0  2  0  0  3  0  0  0  0  0  0
  190.3740  175.7560  143.9170 N   0  0  0  0  0  2  0  0  0  0  0  0
  185.2030  177.3960  145.5470 C   0  0  0  0  0  3  0  0  0  0  0  0
  184.7960  178.0910  140.2890 C   0  0  0  0  0  3  0  0  0  0  0  0
  187.5900  177.1880  145.9220 C   0  0  0  0  0  0  0  0  0  0  0  0
  187.4360  177.7270  147.2020 C   0  0  0  0  0  3  0  0  0  0  0  0
  188.1450  175.1880  142.1630 C   0  0  0  0  0  2  0  0  0  0  0  0
  186.6700  176.9690  141.3330 C   0  0  0  0  0  0  0  0  0  0  0  0
  186.0580  177.5000  140.1940 C   0  0  0  0  0  3  0  0  0  0  0  0
  192.5530  173.3580  142.1360 C   0  0  1  0  0  3  0  0  0  0  0  0
  192.8930  175.8370  142.3510 C   0  0  0  0  0  2  0  0  0  0  0  0
  193.3220  174.1660  145.7570 N   0  0  0  0  0  1  0  0  0  0  0  0
  191.7580  172.3730  141.5540 O   0  0  0  0  0  1  0  0  0  0  0  0
  192.0450  174.7340  141.7150 C   0  0  0  0  0  2  0  0  0  0  0  0
  193.3550  174.3060  144.3100 C   0  0  2  0  0  3  0  0  0  0  0  0
  192.9170  175.7170  143.8790 C   0  0  2  0  0  3  0  0  0  0  0  0
  192.5050  173.2180  143.6540 C   0  0  0  0  0  2  0  0  0  0  0  0
  1 11  1  0  0  0  0
  1  8  1  0  0  0  0
  2  7  1  0  0  0  0
  3  9  1  0  0  0  0
  3  2  1  0  0  0  0
  5  4  2  0  0  0  0
  6 13  1  0  0  0  0
  6  9  2  0  0  0  0
  7 17  1  0  0  0  0
  7 19  2  0  0  0  0
 10 14  2  0  0  0  0
 12 22  1  0  0  0  0
 12 21  1  0  0  0  0
 14 19  1  0  0  0  0
 15 21  1  6  0  0  0
 15  2  1  0  0  0  0
 15 10  1  0  0  0  0
 16 10  1  0  0  0  0
 16  5  1  0  0  0  0
 17  1  2  0  0  0  0
 18  6  1  0  0  0  0
 19 20  1  0  0  0  0
 20  8  2  0  0  0  0
 22  3  2  0  0  0  0
 23 18  2  0  0  0  0
 23 22  1  0  0  0  0
 24 27  1  6  0  0  0
 24 31  1  0  0  0  0
 25 30  1  0  0  0  0
 28 24  1  0  0  0  0
 28 25  1  0  0  0  0
 29 26  1  1  0  0  0
 30 29  1  0  0  0  0
 30  5  1  6  0  0  0
 31 29  1  0  0  0  0
M  END
>  <MODEL>
4

>  <REMARK>
 VINA RESULT:      -8.6      2.374      4.605
  Name = 
  1 active torsions:
  status: ('A' for Active; 'I' for Inactive)
    1  A    between atoms: C_5  and  C_30
                            x       y       z     vdW  Elec       q    Type
                         _______ _______ _______ _____ _____    ______ ____

>  <TORSDO>
F 1

$$$$
=
 OpenBabel11112416453D

 31 35  0  0  1  0  0  0  0  0999 V2000
  185.2490  177.9650  146.9750 C   0  0  0  0  0  0  0  0  0  0  0  0
  186.8070  176.5670  143.8440 N   0  0  0  0  0  0  0  0  0  0  0  0
  186.0930  177.0920  142.6980 C   0  0  0  0  0  0  0  0  0  0  0  0
  191.8180  177.2150  145.3530 N   0  0  0  0  0  2  0  0  0  0  0  0
  191.7670  176.3540  144.3910 C   0  0  0  0  0  0  0  0  0  0  0  0
  184.1460  178.1640  141.7040 C   0  0  0  0  0  0  0  0  0  0  0  0
  186.6270  177.0990  145.1730 C   0  0  0  0  0  0  0  0  0  0  0  0
  186.3920  178.1620  147.7560 C   0  0  0  0  0  3  0  0  0  0  0  0
  184.8160  177.6630  142.8230 C   0  0  0  0  0  3  0  0  0  0  0  0
  189.2020  176.2530  144.3500 C   0  0  0  0  0  0  0  0  0  0  0  0
  184.0300  178.2910  147.4640 F   0  0  0  0  0  0  0  0  0  0  0  0
  188.0590  176.4710  141.2670 C   0  0  0  0  0  2  0  0  0  0  0  0
  182.7950  178.7640  141.8550 C   0  0  0  0  0  1  0  0  0  0  0  0
  189.0590  176.9350  145.4510 N   0  0  0  0  0  0  0  0  0  0  0  0
  187.9800  175.6830  143.6620 C   0  0  2  0  0  3  0  0  0  0  0  0
  190.5070  175.9070  143.8680 N   0  0  0  0  0  2  0  0  0  0  0  0
  185.3660  177.4360  145.6860 C   0  0  0  0  0  3  0  0  0  0  0  0
  184.7470  178.1040  140.4450 C   0  0  0  0  0  3  0  0  0  0  0  0
  187.7690  177.2830  145.9720 C   0  0  0  0  0  0  0  0  0  0  0  0
  187.6510  177.8230  147.2550 C   0  0  0  0  0  3  0  0  0  0  0  0
  188.2280  175.2830  142.2000 C   0  0  0  0  0  2  0  0  0  0  0  0
  186.6830  177.0270  141.4220 C   0  0  0  0  0  0  0  0  0  0  0  0
  186.0170  177.5400  140.3050 C   0  0  0  0  0  3  0  0  0  0  0  0
  194.0810  173.3980  144.8650 C   0  0  1  0  0  3  0  0  0  0  0  0
  192.8850  174.5860  143.0050 C   0  0  0  0  0  2  0  0  0  0  0  0
  194.3860  177.1330  145.4210 N   0  0  0  0  0  1  0  0  0  0  0  0
  194.0060  172.3300  145.7570 O   0  0  0  0  0  1  0  0  0  0  0  0
  192.8330  173.4150  143.9870 C   0  0  0  0  0  2  0  0  0  0  0  0
  194.2610  175.8880  144.6810 C   0  0  2  0  0  3  0  0  0  0  0  0
  193.0480  175.9240  143.7340 C   0  0  2  0  0  3  0  0  0  0  0  0
  194.1980  174.7030  145.6450 C   0  0  0  0  0  2  0  0  0  0  0  0
  1 11  1  0  0  0  0
  1  8  1  0  0  0  0
  2  7  1  0  0  0  0
  3  9  1  0  0  0  0
  3  2  1  0  0  0  0
  5  4  2  0  0  0  0
  6 13  1  0  0  0  0
  6  9  2  0  0  0  0
  7 17  1  0  0  0  0
  7 19  2  0  0  0  0
 10 14  2  0  0  0  0
 12 22  1  0  0  0  0
 12 21  1  0  0  0  0
 14 19  1  0  0  0  0
 15 21  1  6  0  0  0
 15  2  1  0  0  0  0
 15 10  1  0  0  0  0
 16 10  1  0  0  0  0
 16  5  1  0  0  0  0
 17  1  2  0  0  0  0
 18  6  1  0  0  0  0
 19 20  1  0  0  0  0
 20  8  2  0  0  0  0
 22  3  2  0  0  0  0
 23 18  2  0  0  0  0
 23 22  1  0  0  0  0
 24 31  1  0  0  0  0
 24 27  1  1  0  0  0
 25 30  1  0  0  0  0
 25 28  1  0  0  0  0
 28 24  1  0  0  0  0
 29 26  1  1  0  0  0
 29 31  1  0  0  0  0
 30  5  1  1  0  0  0
 30 29  1  0  0  0  0
M  END
>  <MODEL>
5

>  <REMARK>
 VINA RESULT:      -8.6      2.149      4.314
  Name = 
  1 active torsions:
  status: ('A' for Active; 'I' for Inactive)
    1  A    between atoms: C_5  and  C_30
                            x       y       z     vdW  Elec       q    Type
                         _______ _______ _______ _____ _____    ______ ____

>  <TORSDO>
F 1

$$$$
=
 OpenBabel11112416453D

 31 35  0  0  1  0  0  0  0  0999 V2000
  185.4150  178.2730  140.8210 C   0  0  0  0  0  0  0  0  0  0  0  0
  187.8260  177.8350  143.6810 N   0  0  0  0  0  0  0  0  0  0  0  0
  187.0750  177.8090  144.9200 C   0  0  0  0  0  0  0  0  0  0  0  0
  190.7800  174.1210  141.3820 N   0  0  0  0  0  2  0  0  0  0  0  0
  191.4440  174.6600  142.3510 C   0  0  0  0  0  0  0  0  0  0  0  0
  185.0500  178.2510  146.1980 C   0  0  0  0  0  0  0  0  0  0  0  0
  187.1870  177.7360  142.3910 C   0  0  0  0  0  0  0  0  0  0  0  0
  186.0080  177.4430  139.8650 C   0  0  0  0  0  3  0  0  0  0  0  0
  185.7560  178.2870  144.9930 C   0  0  0  0  0  3  0  0  0  0  0  0
  189.6940  176.4830  142.8030 C   0  0  0  0  0  0  0  0  0  0  0  0
  184.2690  178.9320  140.5290 F   0  0  0  0  0  0  0  0  0  0  0  0
  189.0560  176.7380  146.0260 C   0  0  0  0  0  2  0  0  0  0  0  0
  183.6570  178.7620  146.2570 C   0  0  0  0  0  1  0  0  0  0  0  0
  189.0020  176.2230  141.7300 N   0  0  0  0  0  0  0  0  0  0  0  0
  189.2940  177.6460  143.6850 C   0  0  2  0  0  3  0  0  0  0  0  0
  190.9140  175.7810  143.0750 N   0  0  0  0  0  2  0  0  0  0  0  0
  186.0020  178.4180  142.0820 C   0  0  0  0  0  3  0  0  0  0  0  0
  185.6530  177.7310  147.3450 C   0  0  0  0  0  3  0  0  0  0  0  0
  187.7870  176.9180  141.4170 C   0  0  0  0  0  0  0  0  0  0  0  0
  187.1930  176.7650  140.1620 C   0  0  0  0  0  3  0  0  0  0  0  0
  189.9040  177.5880  145.0930 C   0  0  0  0  0  2  0  0  0  0  0  0
  187.6750  177.2980  146.0860 C   0  0  0  0  0  0  0  0  0  0  0  0
  186.9630  177.2500  147.2880 C   0  0  0  0  0  3  0  0  0  0  0  0
  192.5220  171.0660  142.8430 C   0  0  1  0  0  3  0  0  0  0  0  0
  193.3330  173.1450  141.6940 C   0  0  0  0  0  2  0  0  0  0  0  0
  191.9690  174.0180  145.1510 N   0  0  0  0  0  1  0  0  0  0  0  0
  191.8090  169.8810  142.6660 O   0  0  0  0  0  1  0  0  0  0  0  0
  192.5670  171.8320  141.5240 C   0  0  0  0  0  2  0  0  0  0  0  0
  192.6030  173.2210  144.1140 C   0  0  2  0  0  3  0  0  0  0  0  0
  192.7230  174.0130  142.8000 C   0  0  2  0  0  3  0  0  0  0  0  0
  191.8470  171.9060  143.9220 C   0  0  0  0  0  2  0  0  0  0  0  0
  1 17  1  0  0  0  0
  2 15  1  0  0  0  0
  2  3  1  0  0  0  0
  3  9  2  0  0  0  0
  3 22  1  0  0  0  0
  4  5  2  0  0  0  0
  5 16  1  0  0  0  0
  6 13  1  0  0  0  0
  6 18  2  0  0  0  0
  7  2  1  0  0  0  0
  8 20  1  0  0  0  0
  8  1  2  0  0  0  0
  9  6  1  0  0  0  0
 10 16  1  0  0  0  0
 10 15  1  0  0  0  0
 11  1  1  0  0  0  0
 12 22  1  0  0  0  0
 14 10  2  0  0  0  0
 15 21  1  1  0  0  0
 17  7  2  0  0  0  0
 19 14  1  0  0  0  0
 19  7  1  0  0  0  0
 20 19  2  0  0  0  0
 21 12  1  0  0  0  0
 22 23  2  0  0  0  0
 23 18  1  0  0  0  0
 24 27  1  6  0  0  0
 24 31  1  0  0  0  0
 25 30  1  0  0  0  0
 28 25  1  0  0  0  0
 28 24  1  0  0  0  0
 29 26  1  1  0  0  0
 30  5  1  6  0  0  0
 30 29  1  0  0  0  0
 31 29  1  0  0  0  0
M  END
>  <MODEL>
6

>  <REMARK>
 VINA RESULT:      -8.4      1.988      2.523
  Name = 
  1 active torsions:
  status: ('A' for Active; 'I' for Inactive)
    1  A    between atoms: C_5  and  C_30
                            x       y       z     vdW  Elec       q    Type
                         _______ _______ _______ _____ _____    ______ ____

>  <TORSDO>
F 1

$$$$
=
 OpenBabel11112416453D

 31 35  0  0  1  0  0  0  0  0999 V2000
  194.5280  175.9750  145.2010 C   0  0  0  0  0  0  0  0  0  0  0  0
  191.2670  176.1190  143.3220 N   0  0  0  0  0  0  0  0  0  0  0  0
  191.2920  175.1180  142.2750 C   0  0  0  0  0  0  0  0  0  0  0  0
  188.1720  176.5650  147.5690 N   0  0  0  0  0  2  0  0  0  0  0  0
  187.5240  176.9560  146.5210 C   0  0  0  0  0  0  0  0  0  0  0  0
  192.4940  173.5740  140.8260 C   0  0  0  0  0  0  0  0  0  0  0  0
  192.2510  176.1550  144.3760 C   0  0  0  0  0  0  0  0  0  0  0  0
  194.0760  176.2080  146.5040 C   0  0  0  0  0  3  0  0  0  0  0  0
  192.4940  174.5390  141.8360 C   0  0  0  0  0  3  0  0  0  0  0  0
  189.5590  176.8130  144.9630 C   0  0  0  0  0  0  0  0  0  0  0  0
  195.8450  175.7710  144.9670 F   0  0  0  0  0  0  0  0  0  0  0  0
  188.7900  175.2740  142.1520 C   0  0  0  0  0  2  0  0  0  0  0  0
  193.7750  172.9730  140.3750 C   0  0  0  0  0  1  0  0  0  0  0  0
  190.4110  176.6240  145.9300 N   0  0  0  0  0  0  0  0  0  0  0  0
  190.0630  176.9510  143.5420 C   0  0  2  0  0  3  0  0  0  0  0  0
  188.1720  177.0460  145.2440 N   0  0  0  0  0  2  0  0  0  0  0  0
  193.6170  175.9470  144.1400 C   0  0  0  0  0  3  0  0  0  0  0  0
  191.2900  173.1720  140.2440 C   0  0  0  0  0  3  0  0  0  0  0  0
  191.8070  176.4070  145.6870 C   0  0  0  0  0  0  0  0  0  0  0  0
  192.7170  176.4230  146.7470 C   0  0  0  0  0  3  0  0  0  0  0  0
  188.9710  176.7470  142.4800 C   0  0  0  0  0  2  0  0  0  0  0  0
  190.0860  174.7120  141.6720 C   0  0  0  0  0  0  0  0  0  0  0  0
  190.0870  173.7380  140.6700 C   0  0  0  0  0  3  0  0  0  0  0  0
  184.9830  178.6820  144.3110 C   0  0  1  0  0  3  0  0  0  0  0  0
  185.2780  176.4930  145.5040 C   0  0  0  0  0  2  0  0  0  0  0  0
  186.4150  179.3610  147.7510 N   0  0  0  0  0  1  0  0  0  0  0  0
  185.1480  179.3360  143.0910 O   0  0  0  0  0  1  0  0  0  0  0  0
  185.4370  177.2310  144.1740 C   0  0  0  0  0  2  0  0  0  0  0  0
  185.6480  178.6760  146.7240 C   0  0  2  0  0  3  0  0  0  0  0  0
  186.0450  177.1920  146.6310 C   0  0  2  0  0  3  0  0  0  0  0  0
  185.8000  179.3940  145.3830 C   0  0  0  0  0  2  0  0  0  0  0  0
  1  8  1  0  0  0  0
  2 15  1  0  0  0  0
  2  7  1  0  0  0  0
  3  2  1  0  0  0  0
  5  4  2  0  0  0  0
  6  9  2  0  0  0  0
  7 19  2  0  0  0  0
  8 20  2  0  0  0  0
  9  3  1  0  0  0  0
 10 16  1  0  0  0  0
 10 14  2  0  0  0  0
 11  1  1  0  0  0  0
 12 21  1  0  0  0  0
 13  6  1  0  0  0  0
 15 21  1  6  0  0  0
 15 10  1  0  0  0  0
 16  5  1  0  0  0  0
 17  7  1  0  0  0  0
 17  1  2  0  0  0  0
 18 23  2  0  0  0  0
 18  6  1  0  0  0  0
 19 14  1  0  0  0  0
 19 20  1  0  0  0  0
 22 12  1  0  0  0  0
 22  3  2  0  0  0  0
 23 22  1  0  0  0  0
 24 27  1  6  0  0  0
 24 31  1  0  0  0  0
 25 30  1  0  0  0  0
 28 24  1  0  0  0  0
 28 25  1  0  0  0  0
 29 26  1  1  0  0  0
 30  5  1  6  0  0  0
 30 29  1  0  0  0  0
 31 29  1  0  0  0  0
M  END
>  <MODEL>
7

>  <REMARK>
 VINA RESULT:      -8.2      3.466      7.966
  Name = 
  1 active torsions:
  status: ('A' for Active; 'I' for Inactive)
    1  A    between atoms: C_5  and  C_30
                            x       y       z     vdW  Elec       q    Type
                         _______ _______ _______ _____ _____    ______ ____

>  <TORSDO>
F 1

$$$$
=
 OpenBabel11112416453D

 31 35  0  0  1  0  0  0  0  0999 V2000
  192.3410  169.7050  142.9620 C   0  0  0  0  0  0  0  0  0  0  0  0
  192.3320  172.9170  144.9280 N   0  0  0  0  0  0  0  0  0  0  0  0
  193.7000  173.2540  145.2700 C   0  0  0  0  0  0  0  0  0  0  0  0
  188.8350  175.4420  141.8940 N   0  0  0  0  0  2  0  0  0  0  0  0
  188.9070  176.0260  143.0450 C   0  0  0  0  0  0  0  0  0  0  0  0
  196.0420  172.6480  145.5470 C   0  0  0  0  0  0  0  0  0  0  0  0
  192.0100  171.8900  143.9670 C   0  0  0  0  0  0  0  0  0  0  0  0
  191.3290  169.9760  142.0350 C   0  0  0  0  0  3  0  0  0  0  0  0
  194.7300  172.3010  145.2140 C   0  0  0  0  0  3  0  0  0  0  0  0
  190.4240  174.2340  144.0840 C   0  0  0  0  0  0  0  0  0  0  0  0
  192.9950  168.5200  142.9230 F   0  0  0  0  0  0  0  0  0  0  0  0
  192.9470  175.6100  145.6950 C   0  0  0  0  0  2  0  0  0  0  0  0
  197.1180  171.6260  145.4830 C   0  0  0  0  0  1  0  0  0  0  0  0
  190.2900  173.4040  143.0890 N   0  0  0  0  0  0  0  0  0  0  0  0
  191.2180  173.8160  145.3020 C   0  0  2  0  0  3  0  0  0  0  0  0
  189.7030  175.4730  144.1040 N   0  0  0  0  0  2  0  0  0  0  0  0
  192.6810  170.6600  143.9250 C   0  0  0  0  0  3  0  0  0  0  0  0
  196.3400  173.9550  145.9360 C   0  0  0  0  0  3  0  0  0  0  0  0
  190.9810  172.1480  143.0440 C   0  0  0  0  0  0  0  0  0  0  0  0
  190.6500  171.1970  142.0750 C   0  0  0  0  0  3  0  0  0  0  0  0
  191.6480  174.9940  146.1890 C   0  0  0  0  0  2  0  0  0  0  0  0
  194.0130  174.5650  145.6740 C   0  0  0  0  0  0  0  0  0  0  0  0
  195.3270  174.9140  145.9950 C   0  0  0  0  0  3  0  0  0  0  0  0
  186.0570  177.2760  145.1990 C   0  0  1  0  0  3  0  0  0  0  0  0
  188.4260  177.8970  144.6470 C   0  0  0  0  0  2  0  0  0  0  0  0
  186.5850  176.8420  141.4730 N   0  0  0  0  0  1  0  0  0  0  0  0
  185.2500  176.5940  146.1080 O   0  0  0  0  0  1  0  0  0  0  0  0
  187.5160  177.1660  145.6350 C   0  0  0  0  0  2  0  0  0  0  0  0
  186.7690  177.4010  142.8020 C   0  0  2  0  0  3  0  0  0  0  0  0
  188.2500  177.3650  143.2200 C   0  0  2  0  0  3  0  0  0  0  0  0
  185.8730  176.6780  143.8080 C   0  0  0  0  0  2  0  0  0  0  0  0
  1 17  1  0  0  0  0
  2  3  1  0  0  0  0
  2 15  1  0  0  0  0
  3 22  1  0  0  0  0
  4  5  2  0  0  0  0
  5 16  1  0  0  0  0
  6 18  2  0  0  0  0
  7  2  1  0  0  0  0
  8 20  1  0  0  0  0
  8  1  2  0  0  0  0
  9  3  2  0  0  0  0
  9  6  1  0  0  0  0
 10 16  1  0  0  0  0
 10 15  1  0  0  0  0
 11  1  1  0  0  0  0
 12 21  1  0  0  0  0
 13  6  1  0  0  0  0
 14 10  2  0  0  0  0
 15 21  1  6  0  0  0
 17  7  2  0  0  0  0
 18 23  1  0  0  0  0
 19 14  1  0  0  0  0
 19  7  1  0  0  0  0
 20 19  2  0  0  0  0
 22 12  1  0  0  0  0
 22 23  2  0  0  0  0
 24 28  1  0  0  0  0
 24 27  1  1  0  0  0
 25 28  1  0  0  0  0
 29 26  1  6  0  0  0
 29 30  1  0  0  0  0
 29 31  1  0  0  0  0
 30  5  1  1  0  0  0
 30 25  1  0  0  0  0
 31 24  1  0  0  0  0
M  END
>  <MODEL>
8

>  <REMARK>
 VINA RESULT:      -7.9      3.682      8.027
  Name = 
  1 active torsions:
  status: ('A' for Active; 'I' for Inactive)
    1  A    between atoms: C_5  and  C_30
                            x       y       z     vdW  Elec       q    Type
                         _______ _______ _______ _____ _____    ______ ____

>  <TORSDO>
F 1

$$$$
=
 OpenBabel11112416453D

 31 35  0  0  1  0  0  0  0  0999 V2000
  191.0270  172.2020  141.4580 C   0  0  0  0  0  0  0  0  0  0  0  0
  190.0170  174.6390  144.1460 N   0  0  0  0  0  0  0  0  0  0  0  0
  191.1860  174.9640  144.9380 C   0  0  0  0  0  0  0  0  0  0  0  0
  187.0050  177.6810  141.0680 N   0  0  0  0  0  2  0  0  0  0  0  0
  186.6980  177.8850  142.3070 C   0  0  0  0  0  0  0  0  0  0  0  0
  193.4560  174.4960  145.6860 C   0  0  0  0  0  0  0  0  0  0  0  0
  190.1100  173.9350  142.8900 C   0  0  0  0  0  0  0  0  0  0  0  0
  190.2420  172.6620  140.3960 C   0  0  0  0  0  3  0  0  0  0  0  0
  192.3400  174.1630  144.9150 C   0  0  0  0  0  3  0  0  0  0  0  0
  188.1850  175.9910  143.1950 C   0  0  0  0  0  0  0  0  0  0  0  0
  191.8530  171.1450  141.2810 F   0  0  0  0  0  0  0  0  0  0  0  0
  189.9810  177.0040  145.7650 C   0  0  0  0  0  2  0  0  0  0  0  0
  194.6660  173.6360  145.6490 C   0  0  0  0  0  1  0  0  0  0  0  0
  188.4350  175.5000  142.0150 N   0  0  0  0  0  0  0  0  0  0  0  0
  188.7150  175.2840  144.4240 C   0  0  2  0  0  3  0  0  0  0  0  0
  187.2900  177.1000  143.3520 N   0  0  0  0  0  2  0  0  0  0  0  0
  190.9620  172.8380  142.7020 C   0  0  0  0  0  3  0  0  0  0  0  0
  193.4350  175.6390  146.4870 C   0  0  0  0  0  3  0  0  0  0  0  0
  189.3100  174.3800  141.8220 C   0  0  0  0  0  0  0  0  0  0  0  0
  189.3850  173.7510  140.5770 C   0  0  0  0  0  3  0  0  0  0  0  0
  188.7180  176.1610  145.6850 C   0  0  0  0  0  2  0  0  0  0  0  0
  191.1740  176.1080  145.7590 C   0  0  0  0  0  0  0  0  0  0  0  0
  192.2960  176.4470  146.5200 C   0  0  0  0  0  3  0  0  0  0  0  0
  184.5370  178.7240  145.2980 C   0  0  1  0  0  3  0  0  0  0  0  0
  186.3170  179.7960  143.8880 C   0  0  0  0  0  2  0  0  0  0  0  0
  183.8500  177.9160  141.6610 N   0  0  0  0  0  1  0  0  0  0  0  0
  184.3030  178.0050  146.4680 O   0  0  0  0  0  1  0  0  0  0  0  0
  186.0300  179.0170  145.1720 C   0  0  0  0  0  2  0  0  0  0  0  0
  184.3230  178.6800  142.8040 C   0  0  2  0  0  3  0  0  0  0  0  0
  185.8100  179.0460  142.6510 C   0  0  2  0  0  3  0  0  0  0  0  0
  184.0530  177.9150  144.1000 C   0  0  0  0  0  2  0  0  0  0  0  0
  1 17  1  0  0  0  0
  2 15  1  0  0  0  0
  2  3  1  0  0  0  0
  3 22  1  0  0  0  0
  4  5  2  0  0  0  0
  5 16  1  0  0  0  0
  6 18  2  0  0  0  0
  7  2  1  0  0  0  0
  8 20  1  0  0  0  0
  8  1  2  0  0  0  0
  9  3  2  0  0  0  0
  9  6  1  0  0  0  0
 10 16  1  0  0  0  0
 10 15  1  0  0  0  0
 11  1  1  0  0  0  0
 13  6  1  0  0  0  0
 14 10  2  0  0  0  0
 15 21  1  1  0  0  0
 17  7  2  0  0  0  0
 18 23  1  0  0  0  0
 19 14  1  0  0  0  0
 19  7  1  0  0  0  0
 20 19  2  0  0  0  0
 21 12  1  0  0  0  0
 22 12  1  0  0  0  0
 22 23  2  0  0  0  0
 24 27  1  1  0  0  0
 25 28  1  0  0  0  0
 28 24  1  0  0  0  0
 29 26  1  6  0  0  0
 29 31  1  0  0  0  0
 30  5  1  1  0  0  0
 30 29  1  0  0  0  0
 30 25  1  0  0  0  0
 31 24  1  0  0  0  0
M  END
>  <MODEL>
9

>  <REMARK>
 VINA RESULT:      -7.8      3.266      7.207
  Name = 
  1 active torsions:
  status: ('A' for Active; 'I' for Inactive)
    1  A    between atoms: C_5  and  C_30
                            x       y       z     vdW  Elec       q    Type
                         _______ _______ _______ _____ _____    ______ ____

>  <TORSDO>
F 1

$$$$
