=
 OpenBabel11112417323D

 37 42  0  0  1  0  0  0  0  0999 V2000
  190.5360  174.7840  145.3570 C   0  0  1  0  0  3  0  0  0  0  0  0
  187.6070  175.1760  143.7690 O   0  0  0  0  0  0  0  0  0  0  0  0
  192.8270  173.5280  145.3670 C   0  0  2  0  0  3  0  0  0  0  0  0
  189.9590  175.3590  144.0770 C   0  0  2  0  0  3  0  0  0  0  0  0
  191.3740  173.6040  144.8470 C   0  0  2  0  0  3  0  0  0  0  0  0
  188.6080  176.0600  144.1970 C   0  0  2  0  0  3  0  0  0  0  0  0
  193.3220  174.8800  145.8630 C   0  0  0  0  0  2  0  0  0  0  0  0
  191.2230  173.6490  143.3350 C   0  0  0  0  0  2  0  0  0  0  0  0
  190.4460  176.7540  146.9090 C   0  0  0  0  0  2  0  0  0  0  0  0
  192.4020  175.3830  146.7900 O   0  0  0  0  0  0  0  0  0  0  0  0
  187.9680  176.4230  141.5680 C   0  0  0  0  0  2  0  0  0  0  0  0
  187.2840  175.3340  142.3880 C   0  0  1  0  0  3  0  0  0  0  0  0
  191.3510  175.9040  146.0230 C   0  0  1  0  0  3  0  0  0  0  0  0
  189.9250  174.2860  143.0900 N   0  0  2  0  0  0  0  0  0  0  0  0
  188.2960  176.6300  145.5900 C   0  0  1  0  0  3  0  0  0  0  0  0
  188.4200  174.9790  141.3880 C   0  0  2  0  0  3  0  0  0  0  0  0
  189.8320  174.9140  141.8200 N   0  0  0  0  0  0  0  0  0  0  0  0
  189.4180  177.5410  146.1000 C   0  0  0  0  0  2  0  0  0  0  0  0
  185.9790  176.9670  146.4630 C   0  0  0  0  0  3  0  0  0  0  0  0
  186.9930  177.3700  145.5890 C   0  0  0  0  0  0  0  0  0  0  0  0
  186.7730  178.4520  144.7230 C   0  0  0  0  0  3  0  0  0  0  0  0
  185.3370  180.1650  143.8960 F   0  0  0  0  0  0  0  0  0  0  0  0
  184.5360  178.7150  145.6090 C   0  0  0  0  0  3  0  0  0  0  0  0
  185.5460  179.1220  144.7330 C   0  0  0  0  0  0  0  0  0  0  0  0
  184.7510  177.6370  146.4740 C   0  0  0  0  0  3  0  0  0  0  0  0
  190.4800  174.1070  140.7770 C   0  0  0  0  0  2  0  0  0  0  0  0
  189.4460  173.4870  139.8370 C   0  0  1  0  0  3  0  0  0  0  0  0
  188.5270  174.1110  137.7760 C   0  0  0  0  0  1  0  0  0  0  0  0
  189.7720  173.7910  138.4500 N   0  0  0  0  0  2  0  0  0  0  0  0
  189.3670  171.9800  140.0480 C   0  0  0  0  0  2  0  0  0  0  0  0
  190.6800  171.4290  140.5780 C   0  0  0  0  0  2  0  0  0  0  0  0
  190.4470  170.5950  141.6710 O   0  0  0  0  0  1  0  0  0  0  0  0
  193.7070  173.0110  144.3980 O   0  0  0  0  0  0  0  0  0  0  0  0
  194.0360  171.6920  144.7650 C   0  0  0  0  0  0  0  0  0  0  0  0
  193.0240  170.8130  144.4100 F   0  0  0  0  0  0  0  0  0  0  0  0
  195.2290  171.2980  144.1780 F   0  0  0  0  0  0  0  0  0  0  0  0
  194.1920  171.6430  146.1380 F   0  0  0  0  0  0  0  0  0  0  0  0
  1 13  1  0  0  0  0
  2  6  1  0  0  0  0
  3  7  1  0  0  0  0
  4  6  1  0  0  0  0
  4  1  1  0  0  0  0
  5  1  1  0  0  0  0
  5  3  1  0  0  0  0
  6 15  1  0  0  0  0
  7 10  1  0  0  0  0
  8  5  1  0  0  0  0
 11 12  1  0  0  0  0
 12  2  1  0  0  0  0
 13 10  1  0  0  0  0
 13  9  1  0  0  0  0
 14  8  1  0  0  0  0
 14  4  1  0  0  0  0
 15 18  1  0  0  0  0
 16 11  1  0  0  0  0
 16 17  1  0  0  0  0
 16 12  1  0  0  0  0
 17 14  1  0  0  0  0
 18  9  1  0  0  0  0
 19 25  1  0  0  0  0
 20 15  1  0  0  0  0
 20 19  2  0  0  0  0
 21 24  2  0  0  0  0
 21 20  1  0  0  0  0
 22 24  1  0  0  0  0
 23 25  2  0  0  0  0
 24 23  1  0  0  0  0
 26 17  1  0  0  0  0
 27 30  1  0  0  0  0
 27 26  1  0  0  0  0
 28 29  1  0  0  0  0
 29 27  1  0  0  0  0
 30 31  1  0  0  0  0
 31 32  1  0  0  0  0
 33 34  1  0  0  0  0
 33  3  1  0  0  0  0
 34 37  1  0  0  0  0
 35 34  1  0  0  0  0
 36 34  1  0  0  0  0
M  END
>  <MODEL>
1

>  <REMARK>
 VINA RESULT:      -7.5      0.000      0.000
  Name = 
  8 active torsions:
  status: ('A' for Active; 'I' for Inactive)
    1  A    between atoms: C_1  and  C_4
    2  A    between atoms: C_1  and  N_27
    3  A    between atoms: C_2  and  O_22
    4  A    between atoms: C_4  and  C_12
    5  A    between atoms: C_4  and  N_37
    6  A    between atoms: C_6  and  O_22
    7  A    between atoms: C_8  and  C_12
    8  A    between atoms: C_23  and  C_30
                            x       y       z     vdW  Elec       q    Type
                         _______ _______ _______ _____ _____    ______ ____

>  <TORSDO>
F 8

$$$$
=
 OpenBabel11112417323D

 37 42  0  0  1  0  0  0  0  0999 V2000
  189.5080  177.0740  145.1260 C   0  0  1  0  0  3  0  0  0  0  0  0
  191.7990  175.9310  142.9580 O   0  0  0  0  0  0  0  0  0  0  0  0
  187.0140  177.7820  145.4480 C   0  0  2  0  0  3  0  0  0  0  0  0
  189.8770  175.8200  144.3570 C   0  0  2  0  0  3  0  0  0  0  0  0
  188.1800  177.4870  144.4790 C   0  0  2  0  0  3  0  0  0  0  0  0
  191.3680  175.5170  144.2270 C   0  0  2  0  0  3  0  0  0  0  0  0
  187.2260  177.1260  146.8060 C   0  0  0  0  0  2  0  0  0  0  0  0
  187.9090  176.4130  143.4380 C   0  0  0  0  0  2  0  0  0  0  0  0
  190.7650  176.7630  147.2770 C   0  0  0  0  0  2  0  0  0  0  0  0
  188.4870  177.4920  147.2890 O   0  0  0  0  0  0  0  0  0  0  0  0
  191.3370  173.4780  142.4130 C   0  0  0  0  0  2  0  0  0  0  0  0
  191.7580  174.8820  141.9920 C   0  0  1  0  0  3  0  0  0  0  0  0
  189.3980  176.6740  146.6060 C   0  0  1  0  0  3  0  0  0  0  0  0
  189.2260  175.8970  143.0540 N   0  0  2  0  0  0  0  0  0  0  0  0
  192.2480  176.1100  145.3400 C   0  0  1  0  0  3  0  0  0  0  0  0
  190.3410  174.3420  141.6470 C   0  0  2  0  0  3  0  0  0  0  0  0
  189.1910  174.5710  142.5460 N   0  0  0  0  0  0  0  0  0  0  0  0
  191.7440  175.7240  146.7340 C   0  0  0  0  0  2  0  0  0  0  0  0
  194.0960  174.4680  145.7050 C   0  0  0  0  0  3  0  0  0  0  0  0
  193.6770  175.6920  145.1750 C   0  0  0  0  0  0  0  0  0  0  0  0
  194.6010  176.5110  144.5060 C   0  0  0  0  0  3  0  0  0  0  0  0
  196.8200  176.8960  143.7270 F   0  0  0  0  0  0  0  0  0  0  0  0
  196.3440  174.8780  144.9030 C   0  0  0  0  0  3  0  0  0  0  0  0
  195.9320  176.1040  144.3720 C   0  0  0  0  0  0  0  0  0  0  0  0
  195.4270  174.0600  145.5700 C   0  0  0  0  0  3  0  0  0  0  0  0
  188.0230  174.3640  141.6790 C   0  0  0  0  0  2  0  0  0  0  0  0
  188.4480  174.0800  140.2390 C   0  0  1  0  0  3  0  0  0  0  0  0
  189.0010  172.3360  138.7770 C   0  0  0  0  0  1  0  0  0  0  0  0
  188.1240  172.7080  139.8720 N   0  0  0  0  0  2  0  0  0  0  0  0
  187.7800  175.0590  139.2810 C   0  0  0  0  0  2  0  0  0  0  0  0
  187.2660  176.2840  140.0180 C   0  0  0  0  0  2  0  0  0  0  0  0
  186.5790  177.1230  139.1390 O   0  0  0  0  0  1  0  0  0  0  0  0
  185.7720  177.4000  144.9090 O   0  0  0  0  0  0  0  0  0  0  0  0
  184.8710  178.4690  145.0850 C   0  0  0  0  0  0  0  0  0  0  0  0
  184.0780  178.2670  146.2040 F   0  0  0  0  0  0  0  0  0  0  0  0
  185.5480  179.6740  145.2000 F   0  0  0  0  0  0  0  0  0  0  0  0
  184.0480  178.5370  143.9760 F   0  0  0  0  0  0  0  0  0  0  0  0
  1 13  1  0  0  0  0
  2  6  1  0  0  0  0
  3  7  1  0  0  0  0
  4  1  1  0  0  0  0
  5  1  1  0  0  0  0
  5  3  1  0  0  0  0
  6  4  1  0  0  0  0
  6 15  1  0  0  0  0
  7 10  1  0  0  0  0
  8  5  1  0  0  0  0
 12 11  1  0  0  0  0
 12  2  1  0  0  0  0
 13  9  1  0  0  0  0
 13 10  1  0  0  0  0
 14  8  1  0  0  0  0
 14  4  1  0  0  0  0
 15 18  1  0  0  0  0
 16 12  1  0  0  0  0
 16 11  1  0  0  0  0
 16 17  1  0  0  0  0
 17 14  1  0  0  0  0
 18  9  1  0  0  0  0
 20 15  1  0  0  0  0
 20 19  2  0  0  0  0
 21 20  1  0  0  0  0
 22 24  1  0  0  0  0
 23 25  2  0  0  0  0
 24 21  2  0  0  0  0
 24 23  1  0  0  0  0
 25 19  1  0  0  0  0
 26 17  1  0  0  0  0
 27 26  1  0  0  0  0
 28 29  1  0  0  0  0
 29 27  1  0  0  0  0
 30 31  1  0  0  0  0
 30 27  1  0  0  0  0
 32 31  1  0  0  0  0
 33 34  1  0  0  0  0
 33  3  1  0  0  0  0
 34 36  1  0  0  0  0
 34 35  1  0  0  0  0
 37 34  1  0  0  0  0
M  END
>  <MODEL>
2

>  <REMARK>
 VINA RESULT:      -7.3      2.646      6.978
  Name = 
  8 active torsions:
  status: ('A' for Active; 'I' for Inactive)
    1  A    between atoms: C_1  and  C_4
    2  A    between atoms: C_1  and  N_27
    3  A    between atoms: C_2  and  O_22
    4  A    between atoms: C_4  and  C_12
    5  A    between atoms: C_4  and  N_37
    6  A    between atoms: C_6  and  O_22
    7  A    between atoms: C_8  and  C_12
    8  A    between atoms: C_23  and  C_30
                            x       y       z     vdW  Elec       q    Type
                         _______ _______ _______ _____ _____    ______ ____

>  <TORSDO>
F 8

$$$$
=
 OpenBabel11112417323D

 37 42  0  0  1  0  0  0  0  0999 V2000
  189.1090  177.1180  145.2750 C   0  0  1  0  0  3  0  0  0  0  0  0
  191.4700  175.7600  143.3170 O   0  0  0  0  0  0  0  0  0  0  0  0
  186.6890  178.1000  145.3640 C   0  0  2  0  0  3  0  0  0  0  0  0
  189.4140  175.8440  144.5110 C   0  0  2  0  0  3  0  0  0  0  0  0
  187.9090  177.6900  144.5090 C   0  0  2  0  0  3  0  0  0  0  0  0
  190.8680  175.3770  144.5240 C   0  0  2  0  0  3  0  0  0  0  0  0
  186.6860  177.4010  146.7170 C   0  0  0  0  0  2  0  0  0  0  0  0
  187.6290  176.6720  143.4160 C   0  0  0  0  0  2  0  0  0  0  0  0
  190.0950  176.6310  147.5320 C   0  0  0  0  0  2  0  0  0  0  0  0
  187.9230  177.6130  147.3350 O   0  0  0  0  0  0  0  0  0  0  0  0
  190.7970  173.3850  142.6580 C   0  0  0  0  0  2  0  0  0  0  0  0
  191.4130  174.7390  142.3220 C   0  0  1  0  0  3  0  0  0  0  0  0
  188.8020  176.7090  146.7250 C   0  0  1  0  0  3  0  0  0  0  0  0
  188.9140  176.0160  143.1530 N   0  0  2  0  0  0  0  0  0  0  0  0
  191.6880  175.8460  145.7370 C   0  0  1  0  0  3  0  0  0  0  0  0
  189.9880  174.3690  141.8210 C   0  0  2  0  0  3  0  0  0  0  0  0
  188.7840  174.7120  142.6050 N   0  0  0  0  0  0  0  0  0  0  0  0
  191.0030  175.4970  147.0610 C   0  0  0  0  0  2  0  0  0  0  0  0
  194.1700  176.1370  145.6980 C   0  0  0  0  0  3  0  0  0  0  0  0
  193.0710  175.2720  145.7050 C   0  0  0  0  0  0  0  0  0  0  0  0
  193.2800  173.8840  145.6740 C   0  0  0  0  0  3  0  0  0  0  0  0
  194.7790  172.0310  145.6070 F   0  0  0  0  0  0  0  0  0  0  0  0
  195.6750  174.2400  145.6310 C   0  0  0  0  0  3  0  0  0  0  0  0
  194.5800  173.3700  145.6370 C   0  0  0  0  0  0  0  0  0  0  0  0
  195.4700  175.6230  145.6620 C   0  0  0  0  0  3  0  0  0  0  0  0
  187.6960  174.6540  141.6200 C   0  0  0  0  0  2  0  0  0  0  0  0
  188.2400  174.7210  140.1930 C   0  0  1  0  0  3  0  0  0  0  0  0
  188.3060  173.5890  138.1440 C   0  0  0  0  0  1  0  0  0  0  0  0
  188.2290  173.3990  139.5810 N   0  0  0  0  0  2  0  0  0  0  0  0
  187.4290  175.7020  139.3560 C   0  0  0  0  0  2  0  0  0  0  0  0
  187.1930  177.0010  140.1080 C   0  0  0  0  0  2  0  0  0  0  0  0
  185.9110  177.4840  139.8460 O   0  0  0  0  0  1  0  0  0  0  0  0
  185.4750  177.8710  144.6920 O   0  0  0  0  0  0  0  0  0  0  0  0
  184.7500  179.0790  144.6730 C   0  0  0  0  0  0  0  0  0  0  0  0
  184.0130  179.2310  145.8380 F   0  0  0  0  0  0  0  0  0  0  0  0
  185.5990  180.1630  144.5090 F   0  0  0  0  0  0  0  0  0  0  0  0
  183.8730  179.0480  143.6050 F   0  0  0  0  0  0  0  0  0  0  0  0
  1 13  1  0  0  0  0
  2  6  1  0  0  0  0
  3  7  1  0  0  0  0
  4  6  1  0  0  0  0
  4  1  1  0  0  0  0
  5  1  1  0  0  0  0
  5  3  1  0  0  0  0
  6 15  1  0  0  0  0
  7 10  1  0  0  0  0
  8  5  1  0  0  0  0
 12 11  1  0  0  0  0
 12  2  1  0  0  0  0
 13 10  1  0  0  0  0
 13  9  1  0  0  0  0
 14  8  1  0  0  0  0
 14  4  1  0  0  0  0
 15 18  1  0  0  0  0
 16 12  1  0  0  0  0
 16 17  1  0  0  0  0
 16 11  1  0  0  0  0
 17 14  1  0  0  0  0
 18  9  1  0  0  0  0
 19 20  1  0  0  0  0
 20 15  1  0  0  0  0
 21 20  2  0  0  0  0
 22 24  1  0  0  0  0
 23 24  2  0  0  0  0
 23 25  1  0  0  0  0
 24 21  1  0  0  0  0
 25 19  2  0  0  0  0
 26 17  1  0  0  0  0
 27 26  1  0  0  0  0
 28 29  1  0  0  0  0
 29 27  1  0  0  0  0
 30 31  1  0  0  0  0
 30 27  1  0  0  0  0
 32 31  1  0  0  0  0
 33  3  1  0  0  0  0
 34 33  1  0  0  0  0
 34 35  1  0  0  0  0
 36 34  1  0  0  0  0
 37 34  1  0  0  0  0
M  END
>  <MODEL>
3

>  <REMARK>
 VINA RESULT:      -7.2      1.905      7.116
  Name = 
  8 active torsions:
  status: ('A' for Active; 'I' for Inactive)
    1  A    between atoms: C_1  and  C_4
    2  A    between atoms: C_1  and  N_27
    3  A    between atoms: C_2  and  O_22
    4  A    between atoms: C_4  and  C_12
    5  A    between atoms: C_4  and  N_37
    6  A    between atoms: C_6  and  O_22
    7  A    between atoms: C_8  and  C_12
    8  A    between atoms: C_23  and  C_30
                            x       y       z     vdW  Elec       q    Type
                         _______ _______ _______ _____ _____    ______ ____

>  <TORSDO>
F 8

$$$$
=
 OpenBabel11112417323D

 37 42  0  0  1  0  0  0  0  0999 V2000
  190.5420  176.8130  144.9540 C   0  0  1  0  0  3  0  0  0  0  0  0
  192.8890  175.9430  142.7200 O   0  0  0  0  0  0  0  0  0  0  0  0
  188.0410  177.4860  145.2970 C   0  0  2  0  0  3  0  0  0  0  0  0
  190.9310  175.6640  144.0430 C   0  0  2  0  0  3  0  0  0  0  0  0
  189.2320  177.3100  144.3290 C   0  0  2  0  0  3  0  0  0  0  0  0
  192.4250  175.3750  143.9150 C   0  0  2  0  0  3  0  0  0  0  0  0
  188.2170  176.6640  146.5660 C   0  0  0  0  0  2  0  0  0  0  0  0
  188.9880  176.3760  143.1550 C   0  0  0  0  0  2  0  0  0  0  0  0
  191.7420  176.2300  147.0810 C   0  0  0  0  0  2  0  0  0  0  0  0
  189.4650  176.9610  147.1250 O   0  0  0  0  0  0  0  0  0  0  0  0
  192.4400  173.5790  141.8590 C   0  0  0  0  0  2  0  0  0  0  0  0
  192.8730  175.0230  141.6290 C   0  0  1  0  0  3  0  0  0  0  0  0
  190.3920  176.2310  146.3690 C   0  0  1  0  0  3  0  0  0  0  0  0
  190.3150  175.9070  142.7440 N   0  0  2  0  0  0  0  0  0  0  0  0
  193.2760  175.8200  145.1170 C   0  0  1  0  0  3  0  0  0  0  0  0
  191.4660  174.5360  141.1820 C   0  0  2  0  0  3  0  0  0  0  0  0
  190.2920  174.6560  142.0720 N   0  0  0  0  0  0  0  0  0  0  0  0
  192.7340  175.2640  146.4370 C   0  0  0  0  0  2  0  0  0  0  0  0
  195.4870  176.0800  143.9830 C   0  0  0  0  0  3  0  0  0  0  0  0
  194.7080  175.4200  144.9380 C   0  0  0  0  0  0  0  0  0  0  0  0
  195.2760  174.3920  145.7070 C   0  0  0  0  0  3  0  0  0  0  0  0
  197.1590  173.0380  146.2600 F   0  0  0  0  0  0  0  0  0  0  0  0
  197.3870  174.6950  144.5610 C   0  0  0  0  0  3  0  0  0  0  0  0
  196.6130  174.0310  145.5180 C   0  0  0  0  0  0  0  0  0  0  0  0
  196.8250  175.7190  143.7940 C   0  0  0  0  0  3  0  0  0  0  0  0
  189.1480  174.5630  141.1570 C   0  0  0  0  0  2  0  0  0  0  0  0
  188.4690  173.1980  141.2570 C   0  0  1  0  0  3  0  0  0  0  0  0
  188.4430  172.6830  138.9730 C   0  0  0  0  0  1  0  0  0  0  0  0
  189.0030  172.2880  140.2530 N   0  0  0  0  0  2  0  0  0  0  0  0
  188.6470  172.6120  142.6530 C   0  0  0  0  0  2  0  0  0  0  0  0
  189.6600  171.4800  142.6490 C   0  0  0  0  0  2  0  0  0  0  0  0
  190.5070  171.5860  143.7520 O   0  0  0  0  0  1  0  0  0  0  0  0
  186.8140  177.1800  144.6820 O   0  0  0  0  0  0  0  0  0  0  0  0
  186.0790  178.3750  144.5510 C   0  0  0  0  0  0  0  0  0  0  0  0
  186.2750  179.1970  145.6500 F   0  0  0  0  0  0  0  0  0  0  0  0
  186.4320  179.0480  143.3910 F   0  0  0  0  0  0  0  0  0  0  0  0
  184.7350  178.0590  144.4780 F   0  0  0  0  0  0  0  0  0  0  0  0
  1 13  1  0  0  0  0
  2  6  1  0  0  0  0
  3  7  1  0  0  0  0
  4  1  1  0  0  0  0
  5  1  1  0  0  0  0
  5  3  1  0  0  0  0
  6  4  1  0  0  0  0
  6 15  1  0  0  0  0
  7 10  1  0  0  0  0
  8  5  1  0  0  0  0
 12 11  1  0  0  0  0
 12  2  1  0  0  0  0
 13  9  1  0  0  0  0
 13 10  1  0  0  0  0
 14  8  1  0  0  0  0
 14  4  1  0  0  0  0
 15 18  1  0  0  0  0
 16 12  1  0  0  0  0
 16 11  1  0  0  0  0
 16 17  1  0  0  0  0
 17 14  1  0  0  0  0
 18  9  1  0  0  0  0
 19 20  1  0  0  0  0
 20 15  1  0  0  0  0
 20 21  2  0  0  0  0
 23 24  2  0  0  0  0
 24 21  1  0  0  0  0
 24 22  1  0  0  0  0
 25 19  2  0  0  0  0
 25 23  1  0  0  0  0
 26 27  1  0  0  0  0
 26 17  1  0  0  0  0
 27 30  1  0  0  0  0
 28 29  1  0  0  0  0
 29 27  1  0  0  0  0
 31 30  1  0  0  0  0
 31 32  1  0  0  0  0
 33  3  1  0  0  0  0
 34 33  1  0  0  0  0
 34 35  1  0  0  0  0
 36 34  1  0  0  0  0
 37 34  1  0  0  0  0
M  END
>  <MODEL>
4

>  <REMARK>
 VINA RESULT:      -7.2      2.202      6.991
  Name = 
  8 active torsions:
  status: ('A' for Active; 'I' for Inactive)
    1  A    between atoms: C_1  and  C_4
    2  A    between atoms: C_1  and  N_27
    3  A    between atoms: C_2  and  O_22
    4  A    between atoms: C_4  and  C_12
    5  A    between atoms: C_4  and  N_37
    6  A    between atoms: C_6  and  O_22
    7  A    between atoms: C_8  and  C_12
    8  A    between atoms: C_23  and  C_30
                            x       y       z     vdW  Elec       q    Type
                         _______ _______ _______ _____ _____    ______ ____

>  <TORSDO>
F 8

$$$$
=
 OpenBabel11112417323D

 37 42  0  0  1  0  0  0  0  0999 V2000
  190.4760  174.1350  141.3880 C   0  0  1  0  0  3  0  0  0  0  0  0
  189.6760  177.2570  142.3200 O   0  0  0  0  0  0  0  0  0  0  0  0
  192.4210  172.4270  141.0330 C   0  0  2  0  0  3  0  0  0  0  0  0
  190.4180  175.0170  142.6210 C   0  0  2  0  0  3  0  0  0  0  0  0
  191.9820  173.8970  141.2160 C   0  0  2  0  0  3  0  0  0  0  0  0
  189.2390  175.9830  142.7100 C   0  0  2  0  0  3  0  0  0  0  0  0
  191.3760  171.4540  141.5620 C   0  0  0  0  0  2  0  0  0  0  0  0
  192.6230  174.6290  142.3830 C   0  0  0  0  0  2  0  0  0  0  0  0
  188.1910  173.0960  141.3730 C   0  0  0  0  0  2  0  0  0  0  0  0
  190.1390  171.7650  140.9860 O   0  0  0  0  0  0  0  0  0  0  0  0
  189.9740  177.5170  144.8440 C   0  0  0  0  0  2  0  0  0  0  0  0
  190.0930  178.0590  143.4240 C   0  0  1  0  0  3  0  0  0  0  0  0
  189.6630  172.8700  141.7040 C   0  0  1  0  0  3  0  0  0  0  0  0
  191.6950  175.7120  142.7240 N   0  0  2  0  0  0  0  0  0  0  0  0
  187.9890  175.5520  141.9250 C   0  0  1  0  0  3  0  0  0  0  0  0
  191.3490  177.5520  144.1860 C   0  0  2  0  0  3  0  0  0  0  0  0
  191.8050  176.1510  144.0710 N   0  0  0  0  0  0  0  0  0  0  0  0
  187.5450  174.1330  142.2900 C   0  0  0  0  0  2  0  0  0  0  0  0
  186.3150  176.6530  143.4180 C   0  0  0  0  0  3  0  0  0  0  0  0
  186.8610  176.5150  142.1390 C   0  0  0  0  0  0  0  0  0  0  0  0
  186.3430  177.2730  141.0770 C   0  0  0  0  0  3  0  0  0  0  0  0
  184.7860  178.8890  140.2730 F   0  0  0  0  0  0  0  0  0  0  0  0
  184.7430  178.2940  142.5800 C   0  0  0  0  0  3  0  0  0  0  0  0
  185.2850  178.1600  141.2990 C   0  0  0  0  0  0  0  0  0  0  0  0
  185.2570  177.5410  143.6410 C   0  0  0  0  0  3  0  0  0  0  0  0
  193.2070  176.2030  144.5020 C   0  0  0  0  0  2  0  0  0  0  0  0
  193.3890  175.5450  145.8700 C   0  0  1  0  0  3  0  0  0  0  0  0
  194.5700  177.5420  146.1890 C   0  0  0  0  0  1  0  0  0  0  0  0
  193.7700  176.5380  146.8660 N   0  0  0  0  0  2  0  0  0  0  0  0
  192.1120  174.8280  146.2930 C   0  0  0  0  0  2  0  0  0  0  0  0
  191.5730  175.3930  147.5970 C   0  0  0  0  0  2  0  0  0  0  0  0
  190.1840  175.2670  147.6380 O   0  0  0  0  0  1  0  0  0  0  0  0
  193.6710  172.1730  141.6260 O   0  0  0  0  0  0  0  0  0  0  0  0
  194.6430  172.1480  140.6070 C   0  0  0  0  0  0  0  0  0  0  0  0
  195.2360  173.3930  140.4600 F   0  0  0  0  0  0  0  0  0  0  0  0
  195.6130  171.1940  140.8710 F   0  0  0  0  0  0  0  0  0  0  0  0
  194.0220  171.8200  139.4160 F   0  0  0  0  0  0  0  0  0  0  0  0
  1 13  1  0  0  0  0
  1  4  1  0  0  0  0
  2  6  1  0  0  0  0
  2 12  1  0  0  0  0
  3  5  1  0  0  0  0
  3  7  1  0  0  0  0
  3 33  1  0  0  0  0
  4  6  1  0  0  0  0
  4 14  1  0  0  0  0
  5  1  1  0  0  0  0
  5  8  1  0  0  0  0
  8 14  1  0  0  0  0
  9 13  1  0  0  0  0
  9 18  1  0  0  0  0
 10  7  1  0  0  0  0
 10 13  1  0  0  0  0
 12 16  1  0  0  0  0
 12 11  1  0  0  0  0
 14 17  1  0  0  0  0
 15 20  1  0  0  0  0
 15 18  1  0  0  0  0
 15  6  1  0  0  0  0
 16 11  1  0  0  0  0
 17 16  1  0  0  0  0
 17 26  1  0  0  0  0
 19 25  1  0  0  0  0
 20 19  2  0  0  0  0
 21 24  2  0  0  0  0
 21 20  1  0  0  0  0
 22 24  1  0  0  0  0
 23 25  2  0  0  0  0
 24 23  1  0  0  0  0
 26 27  1  0  0  0  0
 27 30  1  0  0  0  0
 27 29  1  0  0  0  0
 28 29  1  0  0  0  0
 30 31  1  0  0  0  0
 31 32  1  0  0  0  0
 34 36  1  0  0  0  0
 34 33  1  0  0  0  0
 35 34  1  0  0  0  0
 37 34  1  0  0  0  0
M  END
>  <MODEL>
5

>  <REMARK>
 VINA RESULT:      -6.9      2.584      5.241
  Name = 
  8 active torsions:
  status: ('A' for Active; 'I' for Inactive)
    1  A    between atoms: C_1  and  C_4
    2  A    between atoms: C_1  and  N_27
    3  A    between atoms: C_2  and  O_22
    4  A    between atoms: C_4  and  C_12
    5  A    between atoms: C_4  and  N_37
    6  A    between atoms: C_6  and  O_22
    7  A    between atoms: C_8  and  C_12
    8  A    between atoms: C_23  and  C_30
                            x       y       z     vdW  Elec       q    Type
                         _______ _______ _______ _____ _____    ______ ____

>  <TORSDO>
F 8

$$$$
=
 OpenBabel11112417323D

 37 42  0  0  1  0  0  0  0  0999 V2000
  190.4720  174.1870  141.3900 C   0  0  1  0  0  3  0  0  0  0  0  0
  189.6240  177.2970  142.3190 O   0  0  0  0  0  0  0  0  0  0  0  0
  192.4390  172.4960  141.0760 C   0  0  2  0  0  3  0  0  0  0  0  0
  190.3750  175.0600  142.6270 C   0  0  2  0  0  3  0  0  0  0  0  0
  191.9840  173.9610  141.2570 C   0  0  2  0  0  3  0  0  0  0  0  0
  189.1870  176.0170  142.6900 C   0  0  2  0  0  3  0  0  0  0  0  0
  191.3880  171.5120  141.5720 C   0  0  0  0  0  2  0  0  0  0  0  0
  192.5890  174.6910  142.4440 C   0  0  0  0  0  2  0  0  0  0  0  0
  188.1960  173.1310  141.3080 C   0  0  0  0  0  2  0  0  0  0  0  0
  190.1640  171.8170  140.9650 O   0  0  0  0  0  0  0  0  0  0  0  0
  189.8540  177.5440  144.8520 C   0  0  0  0  0  2  0  0  0  0  0  0
  190.0060  178.0960  143.4380 C   0  0  1  0  0  3  0  0  0  0  0  0
  189.6610  172.9130  141.6770 C   0  0  1  0  0  3  0  0  0  0  0  0
  191.6430  175.7650  142.7670 N   0  0  2  0  0  0  0  0  0  0  0  0
  187.9610  175.5820  141.8690 C   0  0  1  0  0  3  0  0  0  0  0  0
  191.2450  177.5930  144.2310 C   0  0  2  0  0  3  0  0  0  0  0  0
  191.7140  176.1960  144.1190 N   0  0  0  0  0  0  0  0  0  0  0  0
  187.5180  174.1570  142.2140 C   0  0  0  0  0  2  0  0  0  0  0  0
  186.2500  176.6720  143.3280 C   0  0  0  0  0  3  0  0  0  0  0  0
  186.8210  176.5350  142.0590 C   0  0  0  0  0  0  0  0  0  0  0  0
  186.3150  177.2850  140.9850 C   0  0  0  0  0  3  0  0  0  0  0  0
  184.7580  178.8840  140.1470 F   0  0  0  0  0  0  0  0  0  0  0  0
  184.6780  178.2960  142.4560 C   0  0  0  0  0  3  0  0  0  0  0  0
  185.2450  178.1630  141.1850 C   0  0  0  0  0  0  0  0  0  0  0  0
  185.1800  177.5510  143.5280 C   0  0  0  0  0  3  0  0  0  0  0  0
  193.1050  176.2560  144.5870 C   0  0  0  0  0  2  0  0  0  0  0  0
  193.1900  176.0230  146.0950 C   0  0  1  0  0  3  0  0  0  0  0  0
  191.5420  175.4380  147.6540 C   0  0  0  0  0  1  0  0  0  0  0  0
  192.2800  174.9590  146.4990 N   0  0  0  0  0  2  0  0  0  0  0  0
  194.6180  175.6870  146.5060 C   0  0  0  0  0  2  0  0  0  0  0  0
  195.2430  174.6850  145.5490 C   0  0  0  0  0  2  0  0  0  0  0  0
  196.4170  174.1650  146.0940 O   0  0  0  0  0  1  0  0  0  0  0  0
  193.6740  172.2470  141.7010 O   0  0  0  0  0  0  0  0  0  0  0  0
  194.6650  172.1830  140.7010 C   0  0  0  0  0  0  0  0  0  0  0  0
  195.5900  171.1900  140.9860 F   0  0  0  0  0  0  0  0  0  0  0  0
  194.0990  171.9550  139.4560 F   0  0  0  0  0  0  0  0  0  0  0  0
  195.3280  173.3960  140.6620 F   0  0  0  0  0  0  0  0  0  0  0  0
  1 13  1  0  0  0  0
  1  4  1  0  0  0  0
  2  6  1  0  0  0  0
  2 12  1  0  0  0  0
  3  5  1  0  0  0  0
  3  7  1  0  0  0  0
  3 33  1  0  0  0  0
  4  6  1  0  0  0  0
  4 14  1  0  0  0  0
  5  1  1  0  0  0  0
  5  8  1  0  0  0  0
  8 14  1  0  0  0  0
  9 13  1  0  0  0  0
  9 18  1  0  0  0  0
 10  7  1  0  0  0  0
 10 13  1  0  0  0  0
 12 16  1  0  0  0  0
 12 11  1  0  0  0  0
 14 17  1  0  0  0  0
 15 20  1  0  0  0  0
 15 18  1  0  0  0  0
 15  6  1  0  0  0  0
 16 11  1  0  0  0  0
 17 16  1  0  0  0  0
 17 26  1  0  0  0  0
 19 25  1  0  0  0  0
 20 19  2  0  0  0  0
 21 24  2  0  0  0  0
 21 20  1  0  0  0  0
 22 24  1  0  0  0  0
 23 25  2  0  0  0  0
 24 23  1  0  0  0  0
 26 27  1  0  0  0  0
 27 29  1  0  0  0  0
 27 30  1  0  0  0  0
 29 28  1  0  0  0  0
 31 32  1  0  0  0  0
 31 30  1  0  0  0  0
 34 35  1  0  0  0  0
 34 33  1  0  0  0  0
 36 34  1  0  0  0  0
 37 34  1  0  0  0  0
M  END
>  <MODEL>
6

>  <REMARK>
 VINA RESULT:      -6.8      2.688      5.230
  Name = 
  8 active torsions:
  status: ('A' for Active; 'I' for Inactive)
    1  A    between atoms: C_1  and  C_4
    2  A    between atoms: C_1  and  N_27
    3  A    between atoms: C_2  and  O_22
    4  A    between atoms: C_4  and  C_12
    5  A    between atoms: C_4  and  N_37
    6  A    between atoms: C_6  and  O_22
    7  A    between atoms: C_8  and  C_12
    8  A    between atoms: C_23  and  C_30
                            x       y       z     vdW  Elec       q    Type
                         _______ _______ _______ _____ _____    ______ ____

>  <TORSDO>
F 8

$$$$
=
 OpenBabel11112417323D

 37 42  0  0  1  0  0  0  0  0999 V2000
  191.3740  175.6170  144.1140 C   0  0  1  0  0  3  0  0  0  0  0  0
  188.2830  174.8160  143.0840 O   0  0  0  0  0  0  0  0  0  0  0  0
  193.7640  174.7120  144.6560 C   0  0  2  0  0  3  0  0  0  0  0  0
  190.6260  175.1720  142.8720 C   0  0  2  0  0  3  0  0  0  0  0  0
  192.2680  174.4090  144.4200 C   0  0  2  0  0  3  0  0  0  0  0  0
  189.2320  175.7620  142.6700 C   0  0  2  0  0  3  0  0  0  0  0  0
  194.1740  176.0460  144.0470 C   0  0  0  0  0  2  0  0  0  0  0  0
  191.9700  173.4180  143.3070 C   0  0  0  0  0  2  0  0  0  0  0  0
  191.2470  178.1180  143.9390 C   0  0  0  0  0  2  0  0  0  0  0  0
  193.3030  177.0380  144.5090 O   0  0  0  0  0  0  0  0  0  0  0  0
  188.3140  174.2470  140.5940 C   0  0  0  0  0  2  0  0  0  0  0  0
  187.8170  173.9970  142.0130 C   0  0  1  0  0  3  0  0  0  0  0  0
  192.1390  176.8970  143.7410 C   0  0  1  0  0  3  0  0  0  0  0  0
  190.6000  173.7140  142.8750 N   0  0  2  0  0  0  0  0  0  0  0  0
  189.0020  177.1240  143.3470 C   0  0  1  0  0  3  0  0  0  0  0  0
  188.8810  173.0650  141.3690 C   0  0  2  0  0  3  0  0  0  0  0  0
  190.3280  173.3160  141.5390 N   0  0  0  0  0  0  0  0  0  0  0  0
  190.0760  178.1440  142.9580 C   0  0  0  0  0  2  0  0  0  0  0  0
  186.7860  178.0230  144.0700 C   0  0  0  0  0  3  0  0  0  0  0  0
  187.6410  177.6610  143.0250 C   0  0  0  0  0  0  0  0  0  0  0  0
  187.2100  177.7970  141.6960 C   0  0  0  0  0  3  0  0  0  0  0  0
  185.5200  178.4230  140.1370 F   0  0  0  0  0  0  0  0  0  0  0  0
  185.0820  178.6540  142.4680 C   0  0  0  0  0  3  0  0  0  0  0  0
  185.9330  178.2930  141.4190 C   0  0  0  0  0  0  0  0  0  0  0  0
  185.5080  178.5200  143.7940 C   0  0  0  0  0  3  0  0  0  0  0  0
  190.9470  172.0200  141.2320 C   0  0  0  0  0  2  0  0  0  0  0  0
  191.5330  172.0090  139.8210 C   0  0  1  0  0  3  0  0  0  0  0  0
  190.6750  169.9210  139.1960 C   0  0  0  0  0  1  0  0  0  0  0  0
  190.6260  171.3410  138.8970 N   0  0  0  0  0  2  0  0  0  0  0  0
  191.8230  173.4290  139.3500 C   0  0  0  0  0  2  0  0  0  0  0  0
  191.2010  173.6940  137.9890 C   0  0  0  0  0  2  0  0  0  0  0  0
  192.0290  174.5240  137.2330 O   0  0  0  0  0  1  0  0  0  0  0  0
  194.5920  173.6810  144.1770 O   0  0  0  0  0  0  0  0  0  0  0  0
  195.2100  173.0650  145.2840 C   0  0  0  0  0  0  0  0  0  0  0  0
  194.3100  172.2590  145.9660 F   0  0  0  0  0  0  0  0  0  0  0  0
  196.3050  172.3140  144.8860 F   0  0  0  0  0  0  0  0  0  0  0  0
  195.6490  174.0520  146.1470 F   0  0  0  0  0  0  0  0  0  0  0  0
  1  5  1  0  0  0  0
  4 14  1  0  0  0  0
  4  1  1  0  0  0  0
  5  3  1  0  0  0  0
  6  4  1  0  0  0  0
  6  2  1  0  0  0  0
  6 15  1  0  0  0  0
  7 10  1  0  0  0  0
  7  3  1  0  0  0  0
  8  5  1  0  0  0  0
 11 16  1  0  0  0  0
 11 12  1  0  0  0  0
 12  2  1  0  0  0  0
 13  9  1  0  0  0  0
 13  1  1  0  0  0  0
 13 10  1  0  0  0  0
 14  8  1  0  0  0  0
 16 17  1  0  0  0  0
 16 12  1  0  0  0  0
 17 14  1  0  0  0  0
 18 15  1  0  0  0  0
 18  9  1  0  0  0  0
 20 15  1  0  0  0  0
 20 19  2  0  0  0  0
 21 20  1  0  0  0  0
 22 24  1  0  0  0  0
 23 25  2  0  0  0  0
 24 21  2  0  0  0  0
 24 23  1  0  0  0  0
 25 19  1  0  0  0  0
 26 17  1  0  0  0  0
 27 26  1  0  0  0  0
 29 28  1  0  0  0  0
 29 27  1  0  0  0  0
 30 27  1  0  0  0  0
 31 30  1  0  0  0  0
 32 31  1  0  0  0  0
 33  3  1  0  0  0  0
 33 34  1  0  0  0  0
 34 35  1  0  0  0  0
 34 37  1  0  0  0  0
 36 34  1  0  0  0  0
M  END
>  <MODEL>
7

>  <REMARK>
 VINA RESULT:      -6.8      2.187      2.714
  Name = 
  8 active torsions:
  status: ('A' for Active; 'I' for Inactive)
    1  A    between atoms: C_1  and  C_4
    2  A    between atoms: C_1  and  N_27
    3  A    between atoms: C_2  and  O_22
    4  A    between atoms: C_4  and  C_12
    5  A    between atoms: C_4  and  N_37
    6  A    between atoms: C_6  and  O_22
    7  A    between atoms: C_8  and  C_12
    8  A    between atoms: C_23  and  C_30
                            x       y       z     vdW  Elec       q    Type
                         _______ _______ _______ _____ _____    ______ ____

>  <TORSDO>
F 8

$$$$
=
 OpenBabel11112417323D

 37 42  0  0  1  0  0  0  0  0999 V2000
  192.5430  174.4820  145.5530 C   0  0  1  0  0  3  0  0  0  0  0  0
  189.5290  173.8880  144.2050 O   0  0  0  0  0  0  0  0  0  0  0  0
  195.0180  173.6670  145.7340 C   0  0  2  0  0  3  0  0  0  0  0  0
  191.8220  174.5220  144.2190 C   0  0  2  0  0  3  0  0  0  0  0  0
  193.5550  173.3470  145.3550 C   0  0  2  0  0  3  0  0  0  0  0  0
  190.3740  175.0060  144.2440 C   0  0  2  0  0  3  0  0  0  0  0  0
  195.2860  175.1660  145.7420 C   0  0  0  0  0  2  0  0  0  0  0  0
  193.3380  172.8830  143.9240 C   0  0  0  0  0  2  0  0  0  0  0  0
  192.1690  176.8060  146.4250 C   0  0  0  0  0  2  0  0  0  0  0  0
  194.3290  175.7890  146.5510 O   0  0  0  0  0  0  0  0  0  0  0  0
  189.5750  174.4070  141.7040 C   0  0  0  0  0  2  0  0  0  0  0  0
  189.1280  173.5450  142.8790 C   0  0  1  0  0  3  0  0  0  0  0  0
  193.1730  175.8680  145.7630 C   0  0  1  0  0  3  0  0  0  0  0  0
  191.9390  173.1990  143.6180 N   0  0  2  0  0  0  0  0  0  0  0  0
  190.0230  175.9360  145.4170 C   0  0  1  0  0  3  0  0  0  0  0  0
  190.2680  173.0700  141.9350 C   0  0  2  0  0  3  0  0  0  0  0  0
  191.6850  173.3660  142.2310 N   0  0  0  0  0  0  0  0  0  0  0  0
  190.9850  177.1240  145.5140 C   0  0  0  0  0  2  0  0  0  0  0  0
  188.1980  177.0700  144.1410 C   0  0  0  0  0  3  0  0  0  0  0  0
  188.6110  176.4250  145.3110 C   0  0  0  0  0  0  0  0  0  0  0  0
  187.7020  176.2530  146.3670 C   0  0  0  0  0  3  0  0  0  0  0  0
  185.5170  176.5590  147.2690 F   0  0  0  0  0  0  0  0  0  0  0  0
  185.9840  177.3680  145.0760 C   0  0  0  0  0  3  0  0  0  0  0  0
  186.3910  176.7250  146.2490 C   0  0  0  0  0  0  0  0  0  0  0  0
  186.8860  177.5410  144.0220 C   0  0  0  0  0  3  0  0  0  0  0  0
  192.4230  172.3790  141.4310 C   0  0  0  0  0  2  0  0  0  0  0  0
  193.1620  173.0480  140.2740 C   0  0  1  0  0  3  0  0  0  0  0  0
  192.0100  171.4500  139.0080 C   0  0  0  0  0  1  0  0  0  0  0  0
  192.4500  172.8330  139.0210 N   0  0  0  0  0  2  0  0  0  0  0  0
  193.3340  174.5390  140.5380 C   0  0  0  0  0  2  0  0  0  0  0  0
  194.7890  174.8840  140.8120 C   0  0  0  0  0  2  0  0  0  0  0  0
  195.5530  173.7210  140.8930 O   0  0  0  0  0  1  0  0  0  0  0  0
  195.9350  173.0110  144.8930 O   0  0  0  0  0  0  0  0  0  0  0  0
  196.8070  172.2540  145.7010 C   0  0  0  0  0  0  0  0  0  0  0  0
  197.1890  172.9740  146.8230 F   0  0  0  0  0  0  0  0  0  0  0  0
  196.2150  171.0620  146.0870 F   0  0  0  0  0  0  0  0  0  0  0  0
  197.9410  171.9590  144.9680 F   0  0  0  0  0  0  0  0  0  0  0  0
  1 13  1  0  0  0  0
  2  6  1  0  0  0  0
  3  7  1  0  0  0  0
  4  6  1  0  0  0  0
  4  1  1  0  0  0  0
  5  1  1  0  0  0  0
  5  3  1  0  0  0  0
  6 15  1  0  0  0  0
  7 10  1  0  0  0  0
  8  5  1  0  0  0  0
 11 16  1  0  0  0  0
 11 12  1  0  0  0  0
 12  2  1  0  0  0  0
 13  9  1  0  0  0  0
 13 10  1  0  0  0  0
 14  8  1  0  0  0  0
 14  4  1  0  0  0  0
 15 18  1  0  0  0  0
 16 17  1  0  0  0  0
 16 12  1  0  0  0  0
 17 14  1  0  0  0  0
 18  9  1  0  0  0  0
 19 20  1  0  0  0  0
 20 15  1  0  0  0  0
 20 21  2  0  0  0  0
 23 24  2  0  0  0  0
 24 21  1  0  0  0  0
 24 22  1  0  0  0  0
 25 19  2  0  0  0  0
 25 23  1  0  0  0  0
 26 17  1  0  0  0  0
 27 30  1  0  0  0  0
 27 26  1  0  0  0  0
 28 29  1  0  0  0  0
 29 27  1  0  0  0  0
 30 31  1  0  0  0  0
 31 32  1  0  0  0  0
 33 34  1  0  0  0  0
 33  3  1  0  0  0  0
 34 36  1  0  0  0  0
 34 35  1  0  0  0  0
 37 34  1  0  0  0  0
M  END
>  <MODEL>
8

>  <REMARK>
 VINA RESULT:      -6.7      2.244      3.109
  Name = 
  8 active torsions:
  status: ('A' for Active; 'I' for Inactive)
    1  A    between atoms: C_1  and  C_4
    2  A    between atoms: C_1  and  N_27
    3  A    between atoms: C_2  and  O_22
    4  A    between atoms: C_4  and  C_12
    5  A    between atoms: C_4  and  N_37
    6  A    between atoms: C_6  and  O_22
    7  A    between atoms: C_8  and  C_12
    8  A    between atoms: C_23  and  C_30
                            x       y       z     vdW  Elec       q    Type
                         _______ _______ _______ _____ _____    ______ ____

>  <TORSDO>
F 8

$$$$
=
 OpenBabel11112417323D

 37 42  0  0  1  0  0  0  0  0999 V2000
  186.6920  176.5260  142.8280 C   0  0  1  0  0  3  0  0  0  0  0  0
  188.7600  173.9650  142.1830 O   0  0  0  0  0  0  0  0  0  0  0  0
  185.7580  178.1270  144.6690 C   0  0  2  0  0  3  0  0  0  0  0  0
  188.1710  176.2010  142.7430 C   0  0  2  0  0  3  0  0  0  0  0  0
  186.4960  176.8150  144.3220 C   0  0  2  0  0  3  0  0  0  0  0  0
  188.5930  175.2430  141.6310 C   0  0  2  0  0  3  0  0  0  0  0  0
  185.8160  179.1300  143.5240 C   0  0  0  0  0  2  0  0  0  0  0  0
  187.8810  176.6650  144.9280 C   0  0  0  0  0  2  0  0  0  0  0  0
  186.1770  177.2590  140.4830 C   0  0  0  0  0  2  0  0  0  0  0  0
  185.3650  178.5040  142.3560 O   0  0  0  0  0  0  0  0  0  0  0  0
  191.1880  174.7490  142.3170 C   0  0  0  0  0  2  0  0  0  0  0  0
  190.1070  173.7050  142.5750 C   0  0  1  0  0  3  0  0  0  0  0  0
  186.4450  177.7330  141.9080 C   0  0  1  0  0  3  0  0  0  0  0  0
  188.5910  175.7230  144.0550 N   0  0  2  0  0  0  0  0  0  0  0  0
  187.6540  175.2120  140.4130 C   0  0  1  0  0  3  0  0  0  0  0  0
  190.6510  174.5860  143.7350 C   0  0  2  0  0  3  0  0  0  0  0  0
  190.0030  175.8630  144.0990 N   0  0  0  0  0  0  0  0  0  0  0  0
  187.4060  176.6130  139.8470 C   0  0  0  0  0  2  0  0  0  0  0  0
  188.3430  174.8080  138.0450 C   0  0  0  0  0  3  0  0  0  0  0  0
  188.1920  174.3120  139.3440 C   0  0  0  0  0  0  0  0  0  0  0  0
  188.5380  172.9800  139.6220 C   0  0  0  0  0  3  0  0  0  0  0  0
  189.3620  170.8710  138.8770 F   0  0  0  0  0  0  0  0  0  0  0  0
  189.1790  172.6580  137.3100 C   0  0  0  0  0  3  0  0  0  0  0  0
  189.0300  172.1550  138.6060 C   0  0  0  0  0  0  0  0  0  0  0  0
  188.8360  173.9840  137.0290 C   0  0  0  0  0  3  0  0  0  0  0  0
  190.4720  176.1150  145.4680 C   0  0  0  0  0  2  0  0  0  0  0  0
  191.9490  175.7530  145.6200 C   0  0  1  0  0  3  0  0  0  0  0  0
  193.9500  176.3370  144.5510 C   0  0  0  0  0  1  0  0  0  0  0  0
  192.7920  176.8790  145.2400 N   0  0  0  0  0  2  0  0  0  0  0  0
  192.2500  175.3230  147.0510 C   0  0  0  0  0  2  0  0  0  0  0  0
  191.1910  175.8350  148.0130 C   0  0  0  0  0  2  0  0  0  0  0  0
  191.5660  177.0770  148.5260 O   0  0  0  0  0  1  0  0  0  0  0  0
  186.2480  178.7090  145.8530 O   0  0  0  0  0  0  0  0  0  0  0  0
  185.3500  178.4050  146.8950 C   0  0  0  0  0  0  0  0  0  0  0  0
  184.0510  178.3190  146.4170 F   0  0  0  0  0  0  0  0  0  0  0  0
  185.7000  177.2180  147.5200 F   0  0  0  0  0  0  0  0  0  0  0  0
  185.4020  179.4210  147.8310 F   0  0  0  0  0  0  0  0  0  0  0  0
  1  5  1  0  0  0  0
  2 12  1  0  0  0  0
  3 33  1  0  0  0  0
  4  1  1  0  0  0  0
  4 14  1  0  0  0  0
  5  3  1  0  0  0  0
  5  8  1  0  0  0  0
  6  2  1  0  0  0  0
  6  4  1  0  0  0  0
  7  3  1  0  0  0  0
  9 13  1  0  0  0  0
 10  7  1  0  0  0  0
 11 12  1  0  0  0  0
 11 16  1  0  0  0  0
 12 16  1  0  0  0  0
 13 10  1  0  0  0  0
 13  1  1  0  0  0  0
 14 17  1  0  0  0  0
 14  8  1  0  0  0  0
 15  6  1  0  0  0  0
 16 17  1  0  0  0  0
 17 26  1  0  0  0  0
 18 15  1  0  0  0  0
 18  9  1  0  0  0  0
 19 20  1  0  0  0  0
 20 21  2  0  0  0  0
 20 15  1  0  0  0  0
 23 24  2  0  0  0  0
 24 22  1  0  0  0  0
 24 21  1  0  0  0  0
 25 23  1  0  0  0  0
 25 19  2  0  0  0  0
 26 27  1  0  0  0  0
 27 30  1  0  0  0  0
 28 29  1  0  0  0  0
 29 27  1  0  0  0  0
 30 31  1  0  0  0  0
 31 32  1  0  0  0  0
 33 34  1  0  0  0  0
 34 36  1  0  0  0  0
 34 37  1  0  0  0  0
 35 34  1  0  0  0  0
M  END
>  <MODEL>
9

>  <REMARK>
 VINA RESULT:      -6.7      3.161      7.883
  Name = 
  8 active torsions:
  status: ('A' for Active; 'I' for Inactive)
    1  A    between atoms: C_1  and  C_4
    2  A    between atoms: C_1  and  N_27
    3  A    between atoms: C_2  and  O_22
    4  A    between atoms: C_4  and  C_12
    5  A    between atoms: C_4  and  N_37
    6  A    between atoms: C_6  and  O_22
    7  A    between atoms: C_8  and  C_12
    8  A    between atoms: C_23  and  C_30
                            x       y       z     vdW  Elec       q    Type
                         _______ _______ _______ _____ _____    ______ ____

>  <TORSDO>
F 8

$$$$
