=
 OpenBabel11112417403D

 28 32  0  0  1  0  0  0  0  0999 V2000
  190.4190  175.6360  144.4440 C   0  0  0  0  0  0  0  0  0  0  0  0
  185.4860  176.2210  145.6670 F   0  0  0  0  0  0  0  0  0  0  0  0
  188.6340  175.0450  140.2620 O   0  0  0  0  0  0  0  0  0  0  0  0
  191.2590  178.1280  143.4820 C   0  0  0  0  0  3  0  0  0  0  0  0
  187.1640  176.6770  141.2520 C   0  0  1  0  0  3  0  0  0  0  0  0
  189.9800  174.3850  144.8760 O   0  0  0  0  0  0  0  0  0  0  0  0
  186.6630  177.6180  147.1560 C   0  0  0  0  0  1  0  0  0  0  0  0
  186.0700  177.4760  145.7680 C   0  0  1  0  0  0  0  0  0  0  0  0
  184.4380  178.4580  144.1990 C   0  0  1  0  0  3  0  0  0  0  0  0
  187.1970  177.6640  144.7160 C   0  0  2  0  0  3  0  0  0  0  0  0
  190.6340  173.8600  141.9540 F   0  0  0  0  0  0  0  0  0  0  0  0
  187.2810  175.6090  143.4800 C   0  0  1  0  0  3  0  0  0  0  0  0
  185.5500  178.8290  143.2340 C   0  0  0  0  0  2  0  0  0  0  0  0
  184.9880  178.5270  145.6060 C   0  0  0  0  0  2  0  0  0  0  0  0
  189.8610  173.0980  142.8110 C   0  0  2  0  0  3  0  0  0  0  0  0
  189.4840  176.6700  144.2890 C   0  0  0  0  0  0  0  0  0  0  0  0
  188.0530  175.4980  141.2830 C   0  0  0  0  0  0  0  0  0  0  0  0
  183.3880  179.3640  144.0660 O   0  0  0  0  0  1  0  0  0  0  0  0
  188.3720  173.4470  142.6980 C   0  0  0  0  0  2  0  0  0  0  0  0
  189.9140  177.9130  143.7940 C   0  0  0  0  0  3  0  0  0  0  0  0
  191.7670  175.8520  144.1250 C   0  0  0  0  0  3  0  0  0  0  0  0
  192.1860  177.0970  143.6500 C   0  0  0  0  0  3  0  0  0  0  0  0
  190.3890  173.1780  144.2440 C   0  0  0  0  0  2  0  0  0  0  0  0
  186.5380  176.6770  142.6630 C   0  0  1  0  0  3  0  0  0  0  0  0
  188.1480  174.8850  142.5570 N   0  0  0  0  0  0  0  0  0  0  0  0
  186.7270  177.9570  143.3490 N   0  0  2  0  0  0  0  0  0  0  0  0
  187.9270  177.8250  141.0170 O   0  0  0  0  0  1  0  0  0  0  0  0
  188.0220  176.3880  144.5830 C   0  0  1  0  0  3  0  0  0  0  0  0
  1  6  1  0  0  0  0
  2  8  1  0  0  0  0
  3 17  2  0  0  0  0
  4 22  2  0  0  0  0
  4 20  1  0  0  0  0
  5 27  1  1  0  0  0
  5 17  1  0  0  0  0
  5 24  1  0  0  0  0
  8  7  1  1  0  0  0
  9 18  1  1  0  0  0
  9 14  1  0  0  0  0
 10  8  1  0  0  0  0
 11 15  1  0  0  0  0
 12 28  1  0  0  0  0
 13 26  1  0  0  0  0
 13  9  1  0  0  0  0
 14  8  1  0  0  0  0
 15 23  1  0  0  0  0
 16  1  1  0  0  0  0
 16 28  1  0  0  0  0
 17 25  1  0  0  0  0
 19 15  1  0  0  0  0
 20 16  2  0  0  0  0
 21  1  2  0  0  0  0
 22 21  1  0  0  0  0
 23  6  1  0  0  0  0
 24 26  1  0  0  0  0
 24 12  1  0  0  0  0
 25 19  1  0  0  0  0
 25 12  1  0  0  0  0
 26 10  1  0  0  0  0
 28 10  1  0  0  0  0
M  END
>  <MODEL>
1

>  <REMARK>
 VINA RESULT:      -8.6      0.000      0.000
  Name = 
  0 active torsions:
  status: ('A' for Active; 'I' for Inactive)
                            x       y       z     vdW  Elec       q    Type
                         _______ _______ _______ _____ _____    ______ ____

>  <TORSDO>
F 0

$$$$
=
 OpenBabel11112417403D

 28 32  0  0  1  0  0  0  0  0999 V2000
  191.0790  174.3690  143.0990 C   0  0  0  0  0  0  0  0  0  0  0  0
  187.7700  178.1950  143.8660 F   0  0  0  0  0  0  0  0  0  0  0  0
  192.8760  176.0180  146.9820 O   0  0  0  0  0  0  0  0  0  0  0  0
  190.1680  172.2530  144.6900 C   0  0  0  0  0  3  0  0  0  0  0  0
  190.5130  176.3760  147.2840 C   0  0  1  0  0  3  0  0  0  0  0  0
  191.5560  175.4440  142.3490 O   0  0  0  0  0  0  0  0  0  0  0  0
  186.5230  176.5000  142.8070 C   0  0  0  0  0  1  0  0  0  0  0  0
  187.0800  177.0180  144.1180 C   0  0  1  0  0  0  0  0  0  0  0  0
  186.4470  177.7700  146.3820 C   0  0  1  0  0  3  0  0  0  0  0  0
  188.0070  175.9360  144.7340 C   0  0  2  0  0  3  0  0  0  0  0  0
  193.7580  175.0770  144.4130 F   0  0  0  0  0  0  0  0  0  0  0  0
  190.1720  176.9560  144.9050 C   0  0  1  0  0  3  0  0  0  0  0  0
  187.1910  176.6020  147.0050 C   0  0  0  0  0  2  0  0  0  0  0  0
  185.9130  177.3290  145.0370 C   0  0  0  0  0  2  0  0  0  0  0  0
  193.5070  176.1760  143.6100 C   0  0  2  0  0  3  0  0  0  0  0  0
  189.9880  174.5680  143.9590 C   0  0  0  0  0  0  0  0  0  0  0  0
  191.7510  176.2900  146.4850 C   0  0  0  0  0  0  0  0  0  0  0  0
  185.3860  178.1370  147.2060 O   0  0  0  0  0  1  0  0  0  0  0  0
  192.6360  177.2160  144.3240 C   0  0  0  0  0  2  0  0  0  0  0  0
  189.5470  173.5020  144.7610 C   0  0  0  0  0  3  0  0  0  0  0  0
  191.7050  173.1160  143.0330 C   0  0  0  0  0  3  0  0  0  0  0  0
  191.2460  172.0590  143.8230 C   0  0  0  0  0  3  0  0  0  0  0  0
  192.9420  175.7480  142.2550 C   0  0  0  0  0  2  0  0  0  0  0  0
  189.4900  176.9510  146.2810 C   0  0  1  0  0  3  0  0  0  0  0  0
  191.5710  176.6010  145.1140 N   0  0  0  0  0  0  0  0  0  0  0  0
  188.2960  176.1110  146.1710 N   0  0  2  0  0  0  0  0  0  0  0  0
  190.1560  175.0960  147.7210 O   0  0  0  0  0  1  0  0  0  0  0  0
  189.3720  175.9520  144.0550 C   0  0  1  0  0  3  0  0  0  0  0  0
  1 16  1  0  0  0  0
  2  8  1  0  0  0  0
  4 20  1  0  0  0  0
  5 27  1  6  0  0  0
  6  1  1  0  0  0  0
  8  7  1  6  0  0  0
  8 10  1  0  0  0  0
  8 14  1  0  0  0  0
  9 13  1  0  0  0  0
  9 18  1  1  0  0  0
 10 26  1  0  0  0  0
 12 25  1  0  0  0  0
 12 24  1  0  0  0  0
 14  9  1  0  0  0  0
 15 19  1  0  0  0  0
 15 11  1  0  0  0  0
 16 28  1  0  0  0  0
 16 20  2  0  0  0  0
 17  3  2  0  0  0  0
 17  5  1  0  0  0  0
 19 25  1  0  0  0  0
 21  1  2  0  0  0  0
 21 22  1  0  0  0  0
 22  4  2  0  0  0  0
 23  6  1  0  0  0  0
 23 15  1  0  0  0  0
 24  5  1  0  0  0  0
 25 17  1  0  0  0  0
 26 24  1  0  0  0  0
 26 13  1  0  0  0  0
 28 10  1  0  0  0  0
 28 12  1  0  0  0  0
M  END
>  <MODEL>
2

>  <REMARK>
 VINA RESULT:      -8.2      2.401      4.533
  Name = 
  0 active torsions:
  status: ('A' for Active; 'I' for Inactive)
                            x       y       z     vdW  Elec       q    Type
                         _______ _______ _______ _____ _____    ______ ____

>  <TORSDO>
F 0

$$$$
=
 OpenBabel11112417403D

 28 32  0  0  1  0  0  0  0  0999 V2000
  189.2880  176.7570  145.6110 C   0  0  0  0  0  0  0  0  0  0  0  0
  194.2130  176.4710  144.2550 F   0  0  0  0  0  0  0  0  0  0  0  0
  188.9410  173.3040  142.6140 O   0  0  0  0  0  0  0  0  0  0  0  0
  188.9290  174.7900  147.5690 C   0  0  0  0  0  3  0  0  0  0  0  0
  191.1070  172.9430  143.6070 C   0  0  1  0  0  3  0  0  0  0  0  0
  189.4620  177.7000  144.5980 O   0  0  0  0  0  0  0  0  0  0  0  0
  194.2290  177.1660  146.5070 C   0  0  0  0  0  1  0  0  0  0  0  0
  194.1310  175.9910  145.5540 C   0  0  1  0  0  0  0  0  0  0  0  0
  195.1960  173.8550  144.9240 C   0  0  1  0  0  3  0  0  0  0  0  0
  192.7900  175.2500  145.8030 C   0  0  2  0  0  3  0  0  0  0  0  0
  187.5490  175.7220  143.3070 F   0  0  0  0  0  0  0  0  0  0  0  0
  191.5890  175.3650  143.7290 C   0  0  1  0  0  3  0  0  0  0  0  0
  193.9570  173.0840  145.3450 C   0  0  0  0  0  2  0  0  0  0  0  0
  195.3160  175.0770  145.8070 C   0  0  0  0  0  2  0  0  0  0  0  0
  188.3330  176.6830  142.6950 C   0  0  2  0  0  3  0  0  0  0  0  0
  190.3440  175.8880  145.9220 C   0  0  0  0  0  0  0  0  0  0  0  0
  189.9960  173.7800  143.1120 C   0  0  0  0  0  0  0  0  0  0  0  0
  196.3210  173.0500  145.0880 O   0  0  0  0  0  1  0  0  0  0  0  0
  189.6750  176.1090  142.2260 C   0  0  0  0  0  2  0  0  0  0  0  0
  190.1490  174.8960  146.8980 C   0  0  0  0  0  3  0  0  0  0  0  0
  188.0620  176.6450  146.2820 C   0  0  0  0  0  3  0  0  0  0  0  0
  187.8850  175.6660  147.2630 C   0  0  0  0  0  3  0  0  0  0  0  0
  188.4860  177.9160  143.5860 C   0  0  0  0  0  2  0  0  0  0  0  0
  192.2210  173.9740  143.8870 C   0  0  1  0  0  3  0  0  0  0  0  0
  190.2470  175.1720  143.1920 N   0  0  0  0  0  0  0  0  0  0  0  0
  192.7260  173.8810  145.2580 N   0  0  2  0  0  0  0  0  0  0  0  0
  190.7020  172.2810  144.7710 O   0  0  0  0  0  1  0  0  0  0  0  0
  191.6370  175.9930  145.1340 C   0  0  1  0  0  3  0  0  0  0  0  0
  1 16  2  0  0  0  0
  1 21  1  0  0  0  0
  2  8  1  0  0  0  0
  3 17  2  0  0  0  0
  5 24  1  0  0  0  0
  5 27  1  1  0  0  0
  6  1  1  0  0  0  0
  8 10  1  0  0  0  0
  8 14  1  0  0  0  0
  8  7  1  1  0  0  0
  9 18  1  1  0  0  0
  9 13  1  0  0  0  0
  9 14  1  0  0  0  0
 12 24  1  0  0  0  0
 12 28  1  0  0  0  0
 15 11  1  0  0  0  0
 15 23  1  0  0  0  0
 16 20  1  0  0  0  0
 17 25  1  0  0  0  0
 17  5  1  0  0  0  0
 19 15  1  0  0  0  0
 19 25  1  0  0  0  0
 20  4  2  0  0  0  0
 21 22  2  0  0  0  0
 22  4  1  0  0  0  0
 23  6  1  0  0  0  0
 24 26  1  0  0  0  0
 25 12  1  0  0  0  0
 26 13  1  0  0  0  0
 26 10  1  0  0  0  0
 28 10  1  0  0  0  0
 28 16  1  0  0  0  0
M  END
>  <MODEL>
3

>  <REMARK>
 VINA RESULT:      -7.8      3.002      6.666
  Name = 
  0 active torsions:
  status: ('A' for Active; 'I' for Inactive)
                            x       y       z     vdW  Elec       q    Type
                         _______ _______ _______ _____ _____    ______ ____

>  <TORSDO>
F 0

$$$$
=
 OpenBabel11112417403D

 28 32  0  0  1  0  0  0  0  0999 V2000
  188.5710  177.1260  144.5300 C   0  0  0  0  0  0  0  0  0  0  0  0
  193.3170  176.0200  142.9720 F   0  0  0  0  0  0  0  0  0  0  0  0
  187.6510  173.1790  142.3840 O   0  0  0  0  0  0  0  0  0  0  0  0
  188.1910  175.6660  146.8880 C   0  0  0  0  0  3  0  0  0  0  0  0
  189.8480  172.7990  143.2980 C   0  0  1  0  0  3  0  0  0  0  0  0
  188.7490  177.8100  143.3280 O   0  0  0  0  0  0  0  0  0  0  0  0
  193.5860  177.1660  145.0130 C   0  0  0  0  0  1  0  0  0  0  0  0
  193.2990  175.8350  144.3470 C   0  0  1  0  0  0  0  0  0  0  0  0
  194.1000  173.5100  144.1330 C   0  0  1  0  0  3  0  0  0  0  0  0
  191.9180  175.3160  144.8320 C   0  0  2  0  0  3  0  0  0  0  0  0
  186.5560  175.8270  142.6180 F   0  0  0  0  0  0  0  0  0  0  0  0
  190.5660  175.1240  142.8590 C   0  0  1  0  0  3  0  0  0  0  0  0
  192.8330  172.9860  144.7860 C   0  0  0  0  0  2  0  0  0  0  0  0
  194.4090  174.8700  144.7200 C   0  0  0  0  0  2  0  0  0  0  0  0
  187.3740  176.5450  141.7640 C   0  0  2  0  0  3  0  0  0  0  0  0
  189.5620  176.2300  144.9580 C   0  0  0  0  0  0  0  0  0  0  0  0
  188.7830  173.6300  142.7010 C   0  0  0  0  0  0  0  0  0  0  0  0
  195.1540  172.6390  144.4000 O   0  0  0  0  0  1  0  0  0  0  0  0
  188.6120  175.7410  141.3500 C   0  0  0  0  0  2  0  0  0  0  0  0
  189.3560  175.4930  146.1370 C   0  0  0  0  0  3  0  0  0  0  0  0
  187.4000  177.2930  145.2830 C   0  0  0  0  0  3  0  0  0  0  0  0
  187.2140  176.5670  146.4620 C   0  0  0  0  0  3  0  0  0  0  0  0
  187.7170  177.9140  142.3540 C   0  0  0  0  0  2  0  0  0  0  0  0
  191.0740  173.7360  143.2780 C   0  0  1  0  0  3  0  0  0  0  0  0
  189.1720  174.9720  142.4600 N   0  0  0  0  0  0  0  0  0  0  0  0
  191.6800  173.8780  144.6040 N   0  0  2  0  0  0  0  0  0  0  0  0
  189.4800  172.4450  144.6000 O   0  0  0  0  0  1  0  0  0  0  0  0
  190.7900  176.0240  144.0890 C   0  0  1  0  0  3  0  0  0  0  0  0
  1 16  2  0  0  0  0
  1 21  1  0  0  0  0
  2  8  1  0  0  0  0
  3 17  2  0  0  0  0
  5 27  1  1  0  0  0
  6  1  1  0  0  0  0
  8 14  1  0  0  0  0
  8 10  1  0  0  0  0
  8  7  1  1  0  0  0
  9 18  1  1  0  0  0
  9 14  1  0  0  0  0
  9 13  1  0  0  0  0
 12 24  1  0  0  0  0
 12 28  1  0  0  0  0
 15 23  1  0  0  0  0
 15 11  1  0  0  0  0
 16 20  1  0  0  0  0
 17  5  1  0  0  0  0
 19 15  1  0  0  0  0
 19 25  1  0  0  0  0
 20  4  2  0  0  0  0
 21 22  2  0  0  0  0
 22  4  1  0  0  0  0
 23  6  1  0  0  0  0
 24  5  1  0  0  0  0
 24 26  1  0  0  0  0
 25 17  1  0  0  0  0
 25 12  1  0  0  0  0
 26 13  1  0  0  0  0
 26 10  1  0  0  0  0
 28 10  1  0  0  0  0
 28 16  1  0  0  0  0
M  END
>  <MODEL>
4

>  <REMARK>
 VINA RESULT:      -7.6      2.290      6.197
  Name = 
  0 active torsions:
  status: ('A' for Active; 'I' for Inactive)
                            x       y       z     vdW  Elec       q    Type
                         _______ _______ _______ _____ _____    ______ ____

>  <TORSDO>
F 0

$$$$
=
 OpenBabel11112417403D

 28 32  0  0  1  0  0  0  0  0999 V2000
  187.1660  176.7370  143.8420 C   0  0  0  0  0  0  0  0  0  0  0  0
  189.3160  172.2350  144.9760 F   0  0  0  0  0  0  0  0  0  0  0  0
  189.8170  178.1350  147.3120 O   0  0  0  0  0  0  0  0  0  0  0  0
  189.0090  178.0620  142.2030 C   0  0  0  0  0  3  0  0  0  0  0  0
  191.1470  176.4160  146.2730 C   0  0  1  0  0  3  0  0  0  0  0  0
  186.2750  176.0920  144.7000 O   0  0  0  0  0  0  0  0  0  0  0  0
  188.9410  172.1740  142.6510 C   0  0  0  0  0  1  0  0  0  0  0  0
  189.8590  172.6380  143.7640 C   0  0  1  0  0  0  0  0  0  0  0  0
  192.1610  172.4680  144.6380 C   0  0  1  0  0  3  0  0  0  0  0  0
  189.9990  174.1830  143.6910 C   0  0  2  0  0  3  0  0  0  0  0  0
  187.1310  178.4960  146.3530 F   0  0  0  0  0  0  0  0  0  0  0  0
  189.1720  175.0120  145.7850 C   0  0  1  0  0  3  0  0  0  0  0  0
  192.3900  173.9490  144.3930 C   0  0  0  0  0  2  0  0  0  0  0  0
  191.2020  171.9570  143.5850 C   0  0  0  0  0  2  0  0  0  0  0  0
  186.5200  177.3310  146.7830 C   0  0  2  0  0  3  0  0  0  0  0  0
  188.4230  176.1600  143.6050 C   0  0  0  0  0  0  0  0  0  0  0  0
  189.8770  177.0360  146.7000 C   0  0  0  0  0  0  0  0  0  0  0  0
  193.3720  171.7880  144.5330 O   0  0  0  0  0  1  0  0  0  0  0  0
  187.5440  176.2950  147.2610 C   0  0  0  0  0  2  0  0  0  0  0  0
  189.3450  176.8400  142.7910 C   0  0  0  0  0  3  0  0  0  0  0  0
  186.8330  177.9660  143.2550 C   0  0  0  0  0  3  0  0  0  0  0  0
  187.7510  178.6240  142.4340 C   0  0  0  0  0  3  0  0  0  0  0  0
  185.5670  176.7860  145.7190 C   0  0  0  0  0  2  0  0  0  0  0  0
  190.7080  175.0160  145.7940 C   0  0  1  0  0  3  0  0  0  0  0  0
  188.7320  176.2530  146.4100 N   0  0  0  0  0  0  0  0  0  0  0  0
  191.1510  174.7380  144.4270 N   0  0  2  0  0  0  0  0  0  0  0  0
  191.7050  177.1730  145.2370 O   0  0  0  0  0  1  0  0  0  0  0  0
  188.7780  174.8600  144.3040 C   0  0  1  0  0  3  0  0  0  0  0  0
  1  6  1  0  0  0  0
  4 22  2  0  0  0  0
  4 20  1  0  0  0  0
  5 27  1  6  0  0  0
  5 17  1  0  0  0  0
  6 23  1  0  0  0  0
  8  7  1  6  0  0  0
  8  2  1  0  0  0  0
  9 18  1  6  0  0  0
 10  8  1  0  0  0  0
 10 28  1  0  0  0  0
 10 26  1  0  0  0  0
 11 15  1  0  0  0  0
 12 24  1  0  0  0  0
 12 25  1  0  0  0  0
 13 26  1  0  0  0  0
 13  9  1  0  0  0  0
 14  8  1  0  0  0  0
 14  9  1  0  0  0  0
 15 19  1  0  0  0  0
 16  1  1  0  0  0  0
 16 28  1  0  0  0  0
 17  3  2  0  0  0  0
 20 16  2  0  0  0  0
 21  1  2  0  0  0  0
 22 21  1  0  0  0  0
 23 15  1  0  0  0  0
 24  5  1  0  0  0  0
 25 17  1  0  0  0  0
 25 19  1  0  0  0  0
 26 24  1  0  0  0  0
 28 12  1  0  0  0  0
M  END
>  <MODEL>
5

>  <REMARK>
 VINA RESULT:      -7.4      2.576      6.206
  Name = 
  0 active torsions:
  status: ('A' for Active; 'I' for Inactive)
                            x       y       z     vdW  Elec       q    Type
                         _______ _______ _______ _____ _____    ______ ____

>  <TORSDO>
F 0

$$$$
=
 OpenBabel11112417403D

 28 32  0  0  1  0  0  0  0  0999 V2000
  193.9100  175.3130  141.5340 C   0  0  0  0  0  0  0  0  0  0  0  0
  191.0920  178.6910  144.1480 F   0  0  0  0  0  0  0  0  0  0  0  0
  195.7140  174.5950  145.6880 O   0  0  0  0  0  0  0  0  0  0  0  0
  192.6550  172.8380  141.9030 C   0  0  0  0  0  3  0  0  0  0  0  0
  193.4060  175.0790  146.1770 C   0  0  1  0  0  3  0  0  0  0  0  0
  194.5580  176.5410  141.3970 O   0  0  0  0  0  0  0  0  0  0  0  0
  189.6880  177.9180  142.4210 C   0  0  0  0  0  1  0  0  0  0  0  0
  190.2430  177.6480  143.8050 C   0  0  1  0  0  0  0  0  0  0  0  0
  189.6050  177.2790  146.1610 C   0  0  1  0  0  3  0  0  0  0  0  0
  190.9910  176.2880  143.7930 C   0  0  2  0  0  3  0  0  0  0  0  0
  196.5910  174.9160  142.9680 F   0  0  0  0  0  0  0  0  0  0  0  0
  193.2600  176.7870  144.3950 C   0  0  1  0  0  3  0  0  0  0  0  0
  190.1590  175.8660  146.1160 C   0  0  0  0  0  2  0  0  0  0  0  0
  189.0840  177.6280  144.7840 C   0  0  0  0  0  2  0  0  0  0  0  0
  196.5240  176.2890  142.8120 C   0  0  2  0  0  3  0  0  0  0  0  0
  192.8140  175.2150  142.4040 C   0  0  0  0  0  0  0  0  0  0  0  0
  194.6600  175.2260  145.4120 C   0  0  0  0  0  0  0  0  0  0  0  0
  188.5610  177.3390  147.0810 O   0  0  0  0  0  1  0  0  0  0  0  0
  195.7620  176.9570  143.9630 C   0  0  0  0  0  2  0  0  0  0  0  0
  192.1990  173.9650  142.5910 C   0  0  0  0  0  3  0  0  0  0  0  0
  194.3700  174.1800  140.8490 C   0  0  0  0  0  3  0  0  0  0  0  0
  193.7400  172.9460  141.0310 C   0  0  0  0  0  3  0  0  0  0  0  0
  195.9750  176.6590  141.4340 C   0  0  0  0  0  2  0  0  0  0  0  0
  192.5160  176.2050  145.6060 C   0  0  1  0  0  3  0  0  0  0  0  0
  194.5880  176.1870  144.3730 N   0  0  0  0  0  0  0  0  0  0  0  0
  191.2300  175.6980  145.1240 N   0  0  2  0  0  0  0  0  0  0  0  0
  192.8650  173.8120  145.9380 O   0  0  0  0  0  1  0  0  0  0  0  0
  192.3780  176.4460  143.1790 C   0  0  1  0  0  3  0  0  0  0  0  0
  1 16  1  0  0  0  0
  4 20  1  0  0  0  0
  5 27  1  6  0  0  0
  6 23  1  0  0  0  0
  6  1  1  0  0  0  0
  8  7  1  6  0  0  0
  8  2  1  0  0  0  0
  8 14  1  0  0  0  0
  9 18  1  1  0  0  0
 10  8  1  0  0  0  0
 10 26  1  0  0  0  0
 12 24  1  0  0  0  0
 13  9  1  0  0  0  0
 14  9  1  0  0  0  0
 15 11  1  0  0  0  0
 15 19  1  0  0  0  0
 16 20  2  0  0  0  0
 16 28  1  0  0  0  0
 17  3  2  0  0  0  0
 17  5  1  0  0  0  0
 19 25  1  0  0  0  0
 21 22  1  0  0  0  0
 21  1  2  0  0  0  0
 22  4  2  0  0  0  0
 23 15  1  0  0  0  0
 24  5  1  0  0  0  0
 25 12  1  0  0  0  0
 25 17  1  0  0  0  0
 26 24  1  0  0  0  0
 26 13  1  0  0  0  0
 28 10  1  0  0  0  0
 28 12  1  0  0  0  0
M  END
>  <MODEL>
6

>  <REMARK>
 VINA RESULT:      -7.1      3.759      6.201
  Name = 
  0 active torsions:
  status: ('A' for Active; 'I' for Inactive)
                            x       y       z     vdW  Elec       q    Type
                         _______ _______ _______ _____ _____    ______ ____

>  <TORSDO>
F 0

$$$$
=
 OpenBabel11112417403D

 28 32  0  0  1  0  0  0  0  0999 V2000
  186.3760  176.9420  143.9220 C   0  0  0  0  0  0  0  0  0  0  0  0
  189.0510  172.6010  143.5040 F   0  0  0  0  0  0  0  0  0  0  0  0
  189.9580  178.1280  146.5270 O   0  0  0  0  0  0  0  0  0  0  0  0
  187.4690  178.6880  142.0270 C   0  0  0  0  0  3  0  0  0  0  0  0
  190.9580  176.7380  144.8320 C   0  0  1  0  0  3  0  0  0  0  0  0
  185.8700  176.0850  144.9000 O   0  0  0  0  0  0  0  0  0  0  0  0
  187.9120  172.8270  141.4530 C   0  0  0  0  0  1  0  0  0  0  0  0
  189.1240  173.2310  142.2700 C   0  0  1  0  0  0  0  0  0  0  0  0
  191.5920  173.2030  142.3040 C   0  0  1  0  0  3  0  0  0  0  0  0
  189.1380  174.7760  142.4210 C   0  0  2  0  0  3  0  0  0  0  0  0
  187.0900  178.3120  146.5710 F   0  0  0  0  0  0  0  0  0  0  0  0
  189.0230  175.2000  144.7800 C   0  0  1  0  0  3  0  0  0  0  0  0
  191.6350  174.7210  142.2560 C   0  0  0  0  0  2  0  0  0  0  0  0
  190.3650  172.7400  141.5490 C   0  0  0  0  0  2  0  0  0  0  0  0
  186.7330  177.0360  146.9700 C   0  0  2  0  0  3  0  0  0  0  0  0
  187.5100  176.5530  143.1940 C   0  0  0  0  0  0  0  0  0  0  0  0
  189.8730  177.1410  145.7490 C   0  0  0  0  0  0  0  0  0  0  0  0
  192.7340  172.6880  141.6960 O   0  0  0  0  0  1  0  0  0  0  0  0
  187.9180  176.0660  146.9030 C   0  0  0  0  0  2  0  0  0  0  0  0
  188.0580  177.4420  142.2540 C   0  0  0  0  0  3  0  0  0  0  0  0
  185.7900  178.1960  143.6970 C   0  0  0  0  0  3  0  0  0  0  0  0
  186.3330  179.0640  142.7470 C   0  0  0  0  0  3  0  0  0  0  0  0
  185.5090  176.5420  146.1970 C   0  0  0  0  0  2  0  0  0  0  0  0
  190.4670  175.3780  144.2900 C   0  0  1  0  0  3  0  0  0  0  0  0
  188.7470  176.2820  145.7180 N   0  0  0  0  0  0  0  0  0  0  0  0
  190.4350  175.3490  142.8260 N   0  0  2  0  0  0  0  0  0  0  0  0
  191.0840  177.6920  143.8180 O   0  0  0  0  0  1  0  0  0  0  0  0
  188.1590  175.2160  143.5050 C   0  0  1  0  0  3  0  0  0  0  0  0
  1  6  1  0  0  0  0
  4 20  2  0  0  0  0
  4 22  1  0  0  0  0
  5 27  1  6  0  0  0
  5 17  1  0  0  0  0
  6 23  1  0  0  0  0
  8  7  1  6  0  0  0
  8 10  1  0  0  0  0
  8  2  1  0  0  0  0
  9 18  1  6  0  0  0
 10 26  1  0  0  0  0
 10 28  1  0  0  0  0
 11 15  1  0  0  0  0
 12 25  1  0  0  0  0
 13  9  1  0  0  0  0
 13 26  1  0  0  0  0
 14  8  1  0  0  0  0
 14  9  1  0  0  0  0
 16 28  1  0  0  0  0
 16  1  2  0  0  0  0
 17  3  2  0  0  0  0
 19 15  1  0  0  0  0
 20 16  1  0  0  0  0
 21  1  1  0  0  0  0
 22 21  2  0  0  0  0
 23 15  1  0  0  0  0
 24 12  1  0  0  0  0
 24  5  1  0  0  0  0
 25 17  1  0  0  0  0
 25 19  1  0  0  0  0
 26 24  1  0  0  0  0
 28 12  1  0  0  0  0
M  END
>  <MODEL>
7

>  <REMARK>
 VINA RESULT:      -7.0      2.294      5.935
  Name = 
  0 active torsions:
  status: ('A' for Active; 'I' for Inactive)
                            x       y       z     vdW  Elec       q    Type
                         _______ _______ _______ _____ _____    ______ ____

>  <TORSDO>
F 0

$$$$
=
 OpenBabel11112417403D

 28 32  0  0  1  0  0  0  0  0999 V2000
  194.3210  173.8940  145.2300 C   0  0  0  0  0  0  0  0  0  0  0  0
  189.7230  174.9220  147.2260 F   0  0  0  0  0  0  0  0  0  0  0  0
  191.7650  172.7680  141.5940 O   0  0  0  0  0  0  0  0  0  0  0  0
  195.0240  176.1610  143.7460 C   0  0  0  0  0  3  0  0  0  0  0  0
  190.5470  174.6080  142.5630 C   0  0  1  0  0  3  0  0  0  0  0  0
  193.9420  172.7480  145.9300 O   0  0  0  0  0  0  0  0  0  0  0  0
  191.1940  176.4640  148.2310 C   0  0  0  0  0  1  0  0  0  0  0  0
  190.3460  176.1440  147.0160 C   0  0  1  0  0  0  0  0  0  0  0  0
  188.4710  176.9610  145.6350 C   0  0  1  0  0  3  0  0  0  0  0  0
  191.2580  176.1090  145.7600 C   0  0  2  0  0  3  0  0  0  0  0  0
  194.0190  171.7500  143.0590 F   0  0  0  0  0  0  0  0  0  0  0  0
  191.0580  173.8880  144.8730 C   0  0  1  0  0  3  0  0  0  0  0  0
  189.3890  177.1210  144.4360 C   0  0  0  0  0  2  0  0  0  0  0  0
  189.2780  177.2150  146.8880 C   0  0  0  0  0  2  0  0  0  0  0  0
  193.4040  171.1700  144.1540 C   0  0  2  0  0  3  0  0  0  0  0  0
  193.3990  174.9410  145.0860 C   0  0  0  0  0  0  0  0  0  0  0  0
  191.3980  173.4020  142.6190 C   0  0  0  0  0  0  0  0  0  0  0  0
  187.4360  177.8910  145.5530 O   0  0  0  0  0  1  0  0  0  0  0  0
  191.9290  171.5770  144.2610 C   0  0  0  0  0  2  0  0  0  0  0  0
  193.7580  176.0690  144.3290 C   0  0  0  0  0  3  0  0  0  0  0  0
  195.5900  173.9860  144.6400 C   0  0  0  0  0  3  0  0  0  0  0  0
  195.9410  175.1200  143.9040 C   0  0  0  0  0  3  0  0  0  0  0  0
  194.1950  171.4390  145.4350 C   0  0  0  0  0  2  0  0  0  0  0  0
  190.1990  174.8570  144.0460 C   0  0  1  0  0  3  0  0  0  0  0  0
  191.7170  172.9870  143.9350 N   0  0  0  0  0  0  0  0  0  0  0  0
  190.5460  176.2150  144.4720 N   0  0  2  0  0  0  0  0  0  0  0  0
  191.2800  175.6640  142.0120 O   0  0  0  0  0  1  0  0  0  0  0  0
  192.0120  174.7850  145.6830 C   0  0  1  0  0  3  0  0  0  0  0  0
  1  6  1  0  0  0  0
  3 17  2  0  0  0  0
  4 22  2  0  0  0  0
  4 20  1  0  0  0  0
  5 27  1  1  0  0  0
  5 17  1  0  0  0  0
  5 24  1  0  0  0  0
  8  2  1  0  0  0  0
  8  7  1  1  0  0  0
  9 18  1  6  0  0  0
  9 14  1  0  0  0  0
 10  8  1  0  0  0  0
 11 15  1  0  0  0  0
 12 28  1  0  0  0  0
 13 26  1  0  0  0  0
 13  9  1  0  0  0  0
 14  8  1  0  0  0  0
 15 19  1  0  0  0  0
 15 23  1  0  0  0  0
 16  1  1  0  0  0  0
 16 28  1  0  0  0  0
 17 25  1  0  0  0  0
 20 16  2  0  0  0  0
 21  1  2  0  0  0  0
 22 21  1  0  0  0  0
 23  6  1  0  0  0  0
 24 26  1  0  0  0  0
 24 12  1  0  0  0  0
 25 19  1  0  0  0  0
 25 12  1  0  0  0  0
 26 10  1  0  0  0  0
 28 10  1  0  0  0  0
M  END
>  <MODEL>
8

>  <REMARK>
 VINA RESULT:      -6.8      3.173      4.371
  Name = 
  0 active torsions:
  status: ('A' for Active; 'I' for Inactive)
                            x       y       z     vdW  Elec       q    Type
                         _______ _______ _______ _____ _____    ______ ____

>  <TORSDO>
F 0

$$$$
=
 OpenBabel11112417403D

 28 32  0  0  1  0  0  0  0  0999 V2000
  192.1660  174.6270  146.1020 C   0  0  0  0  0  0  0  0  0  0  0  0
  191.6590  172.6040  141.4300 F   0  0  0  0  0  0  0  0  0  0  0  0
  191.5230  178.5220  143.7690 O   0  0  0  0  0  0  0  0  0  0  0  0
  189.5580  175.0270  147.0380 C   0  0  0  0  0  3  0  0  0  0  0  0
  190.1370  176.9470  142.5850 C   0  0  1  0  0  3  0  0  0  0  0  0
  193.4610  174.4730  145.6080 O   0  0  0  0  0  0  0  0  0  0  0  0
  190.7750  170.9910  142.9030 C   0  0  0  0  0  1  0  0  0  0  0  0
  190.5100  172.2690  142.1330 C   0  0  1  0  0  0  0  0  0  0  0  0
  189.0580  173.2850  140.4150 C   0  0  1  0  0  3  0  0  0  0  0  0
  190.1110  173.3870  143.1330 C   0  0  2  0  0  3  0  0  0  0  0  0
  193.2230  177.4940  145.8470 F   0  0  0  0  0  0  0  0  0  0  0  0
  191.7630  175.1080  142.8800 C   0  0  1  0  0  3  0  0  0  0  0  0
  188.5050  174.2710  141.4280 C   0  0  0  0  0  2  0  0  0  0  0  0
  189.3960  172.0000  141.1380 C   0  0  0  0  0  2  0  0  0  0  0  0
  194.1430  176.7600  145.1200 C   0  0  2  0  0  3  0  0  0  0  0  0
  191.0780  174.3760  145.2520 C   0  0  0  0  0  0  0  0  0  0  0  0
  191.3280  177.3470  143.3610 C   0  0  0  0  0  0  0  0  0  0  0  0
  188.0940  173.0300  139.4420 O   0  0  0  0  0  1  0  0  0  0  0  0
  193.6950  176.5660  143.6660 C   0  0  0  0  0  2  0  0  0  0  0  0
  189.7740  174.5920  145.7280 C   0  0  0  0  0  3  0  0  0  0  0  0
  191.9470  175.0690  147.4140 C   0  0  0  0  0  3  0  0  0  0  0  0
  190.6450  175.2640  147.8820 C   0  0  0  0  0  3  0  0  0  0  0  0
  194.4760  175.4450  145.8250 C   0  0  0  0  0  2  0  0  0  0  0  0
  190.4780  175.5090  142.1400 C   0  0  1  0  0  3  0  0  0  0  0  0
  192.2620  176.2990  143.5570 N   0  0  0  0  0  0  0  0  0  0  0  0
  189.4390  174.5520  142.5270 N   0  0  2  0  0  0  0  0  0  0  0  0
  189.0110  176.9870  143.4140 O   0  0  0  0  0  1  0  0  0  0  0  0
  191.3480  173.9600  143.8170 C   0  0  1  0  0  3  0  0  0  0  0  0
  1 21  1  0  0  0  0
  2  8  1  0  0  0  0
  4 22  1  0  0  0  0
  5 17  1  0  0  0  0
  5 27  1  1  0  0  0
  6 23  1  0  0  0  0
  6  1  1  0  0  0  0
  8  7  1  1  0  0  0
  8 10  1  0  0  0  0
  9 18  1  6  0  0  0
  9 14  1  0  0  0  0
  9 13  1  0  0  0  0
 10 28  1  0  0  0  0
 12 25  1  0  0  0  0
 12 28  1  0  0  0  0
 13 26  1  0  0  0  0
 14  8  1  0  0  0  0
 15 23  1  0  0  0  0
 15 11  1  0  0  0  0
 16 20  1  0  0  0  0
 16  1  2  0  0  0  0
 17 25  1  0  0  0  0
 17  3  2  0  0  0  0
 19 15  1  0  0  0  0
 20  4  2  0  0  0  0
 21 22  2  0  0  0  0
 24 26  1  0  0  0  0
 24  5  1  0  0  0  0
 24 12  1  0  0  0  0
 25 19  1  0  0  0  0
 26 10  1  0  0  0  0
 28 16  1  0  0  0  0
M  END
>  <MODEL>
9

>  <REMARK>
 VINA RESULT:      -6.8      3.504      5.674
  Name = 
  0 active torsions:
  status: ('A' for Active; 'I' for Inactive)
                            x       y       z     vdW  Elec       q    Type
                         _______ _______ _______ _____ _____    ______ ____

>  <TORSDO>
F 0

$$$$
