=
 OpenBabel11112416323D

 32 37  0  0  1  0  0  0  0  0999 V2000
  192.4580  172.1530  141.4410 C   0  0  0  0  0  2  0  0  0  0  0  0
  189.7640  177.0330  142.8180 C   0  0  1  0  0  3  0  0  0  0  0  0
  191.9280  175.6800  146.8950 C   0  0  0  0  0  2  0  0  0  0  0  0
  190.9480  176.3720  147.7350 N   0  0  0  0  0  2  0  0  0  0  0  0
  187.3900  177.9430  142.9200 C   0  0  0  0  0  0  0  0  0  0  0  0
  186.3160  178.3490  143.7110 C   0  0  0  0  0  0  0  0  0  0  0  0
  190.5040  174.7380  142.1740 C   0  0  0  0  0  0  0  0  0  0  0  0
  192.1050  176.5920  142.8120 C   0  0  0  0  0  2  0  0  0  0  0  0
  185.1400  178.8680  145.6420 C   0  0  1  0  0  3  0  0  0  0  0  0
  192.9340  174.6180  141.5300 C   0  0  0  0  0  2  0  0  0  0  0  0
  192.1160  176.4400  145.5820 C   0  0  0  0  0  2  0  0  0  0  0  0
  191.0040  177.1620  143.6150 N   0  0  2  0  0  0  0  0  0  0  0  0
  190.8410  176.4730  144.8510 N   0  0  2  0  0  0  0  0  0  0  0  0
  188.6180  177.5490  144.9980 C   0  0  0  0  0  0  0  0  0  0  0  0
  184.3780  179.1150  144.3580 C   0  0  0  0  0  3  0  0  0  0  0  0
  191.0390  172.0650  142.5780 S   0  0  0  0  0  0  0  0  0  0  0  0
  191.9250  175.0900  142.5650 C   0  0  2  0  0  3  0  0  0  0  0  0
  185.0510  178.8200  143.2840 N   0  0  0  0  0  0  0  0  0  0  0  0
  190.1420  173.3690  141.6780 C   0  0  0  0  0  2  0  0  0  0  0  0
  193.4460  173.2280  141.8810 C   0  0  2  0  0  3  0  0  0  0  0  0
  189.6840  176.4870  147.0090 C   0  0  0  0  0  2  0  0  0  0  0  0
  189.9130  177.2460  145.6990 C   0  0  1  0  0  3  0  0  0  0  0  0
  187.5390  177.9860  145.7160 N   0  0  0  0  0  0  0  0  0  0  0  0
  189.5110  175.6170  142.3500 C   0  0  0  0  0  3  0  0  0  0  0  0
  187.2780  177.9560  141.4310 C   0  0  0  0  0  1  0  0  0  0  0  0
  184.4530  177.7750  146.4370 C   0  0  0  0  0  1  0  0  0  0  0  0
  188.5720  177.5360  143.5820 C   0  0  0  0  0  0  0  0  0  0  0  0
  186.4070  178.3560  145.0680 C   0  0  0  0  0  0  0  0  0  0  0  0
  194.7230  173.0150  141.2160 N   0  0  0  0  0  2  0  0  0  0  0  0
  195.9760  173.2660  141.8560 C   0  0  0  0  0  0  0  0  0  0  0  0
  196.0180  173.7130  143.0320 O   0  0  0  0  0  0  0  0  0  0  0  0
  197.2410  173.0030  141.1220 C   0  0  0  0  0  1  0  0  0  0  0  0
  1 20  1  0  0  0  0
  1 16  1  0  0  0  0
  2 24  1  1  0  0  0
  2 27  1  0  0  0  0
  2 12  1  0  0  0  0
  3  4  1  0  0  0  0
  5 27  2  0  0  0  0
  5  6  1  0  0  0  0
  6 28  2  0  0  0  0
  7 24  2  0  0  0  0
  7 17  1  0  0  0  0
  9 26  1  1  0  0  0
 10 20  1  0  0  0  0
 11  3  1  0  0  0  0
 12  8  1  6  0  0  0
 12 13  1  0  0  0  0
 13 11  1  1  0  0  0
 13 22  1  0  0  0  0
 14 22  1  0  0  0  0
 14 23  2  0  0  0  0
 15  9  1  0  0  0  0
 17 10  1  6  0  0  0
 17  8  1  0  0  0  0
 18  6  1  0  0  0  0
 18 15  2  0  0  0  0
 19  7  1  0  0  0  0
 19 16  1  0  0  0  0
 20 29  1  6  0  0  0
 21  4  1  0  0  0  0
 22 21  1  1  0  0  0
 25  5  1  0  0  0  0
 27 14  1  0  0  0  0
 28  9  1  0  0  0  0
 28 23  1  0  0  0  0
 29 30  1  0  0  0  0
 30 31  2  0  0  0  0
 32 30  1  0  0  0  0
M  END
>  <MODEL>
1

>  <REMARK>
 VINA RESULT:      -8.5      0.000      0.000
  Name = 
  1 active torsions:
  status: ('A' for Active; 'I' for Inactive)
    1  A    between atoms: C_20  and  N_29
                            x       y       z     vdW  Elec       q    Type
                         _______ _______ _______ _____ _____    ______ ____

>  <TORSDO>
F 1

$$$$
=
 OpenBabel11112416323D

 32 37  0  0  1  0  0  0  0  0999 V2000
  195.0990  175.4250  144.8940 C   0  0  0  0  0  2  0  0  0  0  0  0
  189.3610  175.2170  144.9460 C   0  0  1  0  0  3  0  0  0  0  0  0
  190.5950  172.9360  140.8950 C   0  0  0  0  0  2  0  0  0  0  0  0
  189.3270  173.2580  140.2360 N   0  0  0  0  0  2  0  0  0  0  0  0
  187.3890  176.8250  144.9090 C   0  0  0  0  0  0  0  0  0  0  0  0
  186.3240  177.3680  144.1930 C   0  0  0  0  0  0  0  0  0  0  0  0
  191.7940  175.7660  144.8640 C   0  0  0  0  0  0  0  0  0  0  0  0
  190.9030  173.4040  145.0450 C   0  0  0  0  0  2  0  0  0  0  0  0
  184.8400  177.6610  142.4340 C   0  0  1  0  0  3  0  0  0  0  0  0
  193.2670  173.8940  145.6770 C   0  0  0  0  0  2  0  0  0  0  0  0
  190.3720  172.7660  142.3980 C   0  0  0  0  0  2  0  0  0  0  0  0
  189.6850  173.8940  144.3680 N   0  0  2  0  0  0  0  0  0  0  0  0
  189.8800  174.0310  142.9630 N   0  0  2  0  0  0  0  0  0  0  0  0
  187.8350  175.4230  142.9560 C   0  0  0  0  0  0  0  0  0  0  0  0
  184.5600  178.5280  143.6420 C   0  0  0  0  0  3  0  0  0  0  0  0
  194.1880  176.3970  143.6530 S   0  0  0  0  0  0  0  0  0  0  0  0
  192.1210  174.2910  144.7590 C   0  0  2  0  0  3  0  0  0  0  0  0
  185.4000  178.3510  144.6200 N   0  0  0  0  0  0  0  0  0  0  0  0
  192.8700  176.8120  144.8380 C   0  0  0  0  0  2  0  0  0  0  0  0
  194.5960  173.9860  144.9390 C   0  0  2  0  0  3  0  0  0  0  0  0
  188.7710  174.4750  140.8260 C   0  0  0  0  0  2  0  0  0  0  0  0
  188.5690  174.2700  142.3310 C   0  0  1  0  0  3  0  0  0  0  0  0
  186.7590  175.9750  142.3170 N   0  0  0  0  0  0  0  0  0  0  0  0
  190.5240  176.1830  144.8900 C   0  0  0  0  0  3  0  0  0  0  0  0
  187.6790  177.2900  146.2980 C   0  0  0  0  0  1  0  0  0  0  0  0
  185.2130  178.5390  141.2550 C   0  0  0  0  0  1  0  0  0  0  0  0
  188.1620  175.8250  144.2750 C   0  0  0  0  0  0  0  0  0  0  0  0
  186.0390  176.9460  142.9310 C   0  0  0  0  0  0  0  0  0  0  0  0
  195.5730  173.1510  145.6220 N   0  0  0  0  0  2  0  0  0  0  0  0
  195.8000  171.7860  145.2680 C   0  0  0  0  0  0  0  0  0  0  0  0
  195.1320  171.2400  144.3510 O   0  0  0  0  0  0  0  0  0  0  0  0
  196.8310  171.0010  145.9960 C   0  0  0  0  0  1  0  0  0  0  0  0
  1 20  1  0  0  0  0
  2 24  1  6  0  0  0
  3 11  1  0  0  0  0
  4 21  1  0  0  0  0
  4  3  1  0  0  0  0
  5 25  1  0  0  0  0
  6 18  1  0  0  0  0
  6  5  2  0  0  0  0
  7 24  2  0  0  0  0
  9 26  1  6  0  0  0
  9 28  1  0  0  0  0
  9 15  1  0  0  0  0
 12  2  1  0  0  0  0
 12  8  1  1  0  0  0
 13 11  1  6  0  0  0
 13 12  1  0  0  0  0
 14 27  2  0  0  0  0
 15 18  2  0  0  0  0
 16 19  1  0  0  0  0
 16  1  1  0  0  0  0
 17  7  1  0  0  0  0
 17  8  1  1  0  0  0
 17 10  1  0  0  0  0
 19  7  1  0  0  0  0
 20 29  1  1  0  0  0
 20 10  1  0  0  0  0
 22 21  1  6  0  0  0
 22 14  1  0  0  0  0
 22 13  1  0  0  0  0
 23 28  2  0  0  0  0
 23 14  1  0  0  0  0
 27  5  1  0  0  0  0
 27  2  1  0  0  0  0
 28  6  1  0  0  0  0
 30 29  1  0  0  0  0
 30 32  1  0  0  0  0
 31 30  2  0  0  0  0
M  END
>  <MODEL>
2

>  <REMARK>
 VINA RESULT:      -8.4      2.760      4.238
  Name = 
  1 active torsions:
  status: ('A' for Active; 'I' for Inactive)
    1  A    between atoms: C_20  and  N_29
                            x       y       z     vdW  Elec       q    Type
                         _______ _______ _______ _____ _____    ______ ____

>  <TORSDO>
F 1

$$$$
=
 OpenBabel11112416323D

 32 37  0  0  1  0  0  0  0  0999 V2000
  187.3480  177.1780  146.6250 C   0  0  0  0  0  2  0  0  0  0  0  0
  192.2720  175.8140  144.0060 C   0  0  1  0  0  3  0  0  0  0  0  0
  189.3110  172.1780  142.9340 C   0  0  0  0  0  2  0  0  0  0  0  0
  190.4130  171.2300  142.7620 N   0  0  0  0  0  2  0  0  0  0  0  0
  194.6870  175.3020  144.6220 C   0  0  0  0  0  0  0  0  0  0  0  0
  195.6960  174.3490  144.7400 C   0  0  0  0  0  0  0  0  0  0  0  0
  190.3720  176.3370  145.5380 C   0  0  0  0  0  0  0  0  0  0  0  0
  190.1550  176.2790  143.0170 C   0  0  0  0  0  2  0  0  0  0  0  0
  196.7330  172.2800  144.5750 C   0  0  1  0  0  3  0  0  0  0  0  0
  188.4460  177.4760  144.3860 C   0  0  0  0  0  2  0  0  0  0  0  0
  189.7590  173.5790  142.5170 C   0  0  0  0  0  2  0  0  0  0  0  0
  191.2830  175.3260  143.0190 N   0  0  2  0  0  0  0  0  0  0  0  0
  190.8660  174.0130  143.3830 N   0  0  2  0  0  0  0  0  0  0  0  0
  193.2570  173.5110  143.7710 C   0  0  0  0  0  0  0  0  0  0  0  0
  197.6220  173.3870  145.1000 C   0  0  0  0  0  3  0  0  0  0  0  0
  188.2960  175.7570  147.2540 S   0  0  0  0  0  0  0  0  0  0  0  0
  189.4190  176.3080  144.3610 C   0  0  2  0  0  3  0  0  0  0  0  0
  197.0260  174.5410  145.1860 N   0  0  0  0  0  0  0  0  0  0  0  0
  189.8860  176.5830  146.9360 C   0  0  0  0  0  2  0  0  0  0  0  0
  187.1660  177.0890  145.1140 C   0  0  2  0  0  3  0  0  0  0  0  0
  191.5600  171.6720  143.5540 C   0  0  0  0  0  2  0  0  0  0  0  0
  191.9750  173.0790  143.1140 C   0  0  1  0  0  3  0  0  0  0  0  0
  194.2970  172.6290  143.8840 N   0  0  0  0  0  0  0  0  0  0  0  0
  191.6680  176.0510  145.3730 C   0  0  0  0  0  3  0  0  0  0  0  0
  194.9410  176.7230  145.0060 C   0  0  0  0  0  1  0  0  0  0  0  0
  196.5340  171.2350  145.6550 C   0  0  0  0  0  1  0  0  0  0  0  0
  193.4360  174.8720  144.1210 C   0  0  0  0  0  0  0  0  0  0  0  0
  195.4840  173.0530  144.3830 C   0  0  0  0  0  0  0  0  0  0  0  0
  186.0990  177.9870  144.6990 N   0  0  0  0  0  2  0  0  0  0  0  0
  185.3270  177.7720  143.5160 C   0  0  0  0  0  0  0  0  0  0  0  0
  185.5660  176.7910  142.7630 O   0  0  0  0  0  0  0  0  0  0  0  0
  184.2370  178.7190  143.1670 C   0  0  0  0  0  1  0  0  0  0  0  0
  1 16  1  0  0  0  0
  2 27  1  0  0  0  0
  2 24  1  1  0  0  0
  4  3  1  0  0  0  0
  4 21  1  0  0  0  0
  5  6  1  0  0  0  0
  5 25  1  0  0  0  0
  6 18  1  0  0  0  0
  7 19  1  0  0  0  0
  9 15  1  0  0  0  0
  9 26  1  1  0  0  0
 10 20  1  0  0  0  0
 11  3  1  0  0  0  0
 12  8  1  1  0  0  0
 12 13  1  0  0  0  0
 12  2  1  0  0  0  0
 13 11  1  6  0  0  0
 14 23  2  0  0  0  0
 14 27  1  0  0  0  0
 15 18  2  0  0  0  0
 17  8  1  6  0  0  0
 17 10  1  0  0  0  0
 17  7  1  0  0  0  0
 19 16  1  0  0  0  0
 20 29  1  6  0  0  0
 20  1  1  0  0  0  0
 22 13  1  0  0  0  0
 22 21  1  1  0  0  0
 22 14  1  0  0  0  0
 23 28  1  0  0  0  0
 24  7  2  0  0  0  0
 27  5  2  0  0  0  0
 28  9  1  0  0  0  0
 28  6  2  0  0  0  0
 30 29  1  0  0  0  0
 31 30  2  0  0  0  0
 32 30  1  0  0  0  0
M  END
>  <MODEL>
3

>  <REMARK>
 VINA RESULT:      -7.9      3.286      8.507
  Name = 
  1 active torsions:
  status: ('A' for Active; 'I' for Inactive)
    1  A    between atoms: C_20  and  N_29
                            x       y       z     vdW  Elec       q    Type
                         _______ _______ _______ _____ _____    ______ ____

>  <TORSDO>
F 1

$$$$
=
 OpenBabel11112416323D

 32 37  0  0  1  0  0  0  0  0999 V2000
  191.9850  171.6790  140.3450 C   0  0  0  0  0  2  0  0  0  0  0  0
  190.1680  176.5770  142.7280 C   0  0  1  0  0  3  0  0  0  0  0  0
  192.6920  174.4270  146.2120 C   0  0  0  0  0  2  0  0  0  0  0  0
  191.9390  175.0940  147.2760 N   0  0  0  0  0  2  0  0  0  0  0  0
  187.9700  177.7170  143.3160 C   0  0  0  0  0  0  0  0  0  0  0  0
  187.0800  178.1200  144.3100 C   0  0  0  0  0  0  0  0  0  0  0  0
  190.5060  174.3300  141.6940 C   0  0  0  0  0  0  0  0  0  0  0  0
  192.4070  175.8880  142.2980 C   0  0  0  0  0  2  0  0  0  0  0  0
  186.2660  178.4830  146.4520 C   0  0  1  0  0  3  0  0  0  0  0  0
  192.7850  174.0400  140.6660 C   0  0  0  0  0  2  0  0  0  0  0  0
  192.7900  175.3410  144.9910 C   0  0  0  0  0  2  0  0  0  0  0  0
  191.5140  176.4540  143.3300 N   0  0  2  0  0  0  0  0  0  0  0  0
  191.4390  175.6170  144.4800 N   0  0  2  0  0  0  0  0  0  0  0  0
  189.4180  176.8980  145.1080 C   0  0  0  0  0  0  0  0  0  0  0  0
  185.3690  178.9920  145.3450 C   0  0  0  0  0  3  0  0  0  0  0  0
  190.7420  171.5850  141.6710 S   0  0  0  0  0  0  0  0  0  0  0  0
  192.0010  174.4650  141.8970 C   0  0  2  0  0  3  0  0  0  0  0  0
  185.8400  178.7820  144.1500 N   0  0  0  0  0  0  0  0  0  0  0  0
  189.9040  173.0940  141.0940 C   0  0  0  0  0  2  0  0  0  0  0  0
  193.1570  172.5650  140.7550 C   0  0  2  0  0  3  0  0  0  0  0  0
  190.6100  175.4490  146.7780 C   0  0  0  0  0  2  0  0  0  0  0  0
  190.7490  176.3580  145.5530 C   0  0  1  0  0  3  0  0  0  0  0  0
  188.5170  177.3430  146.0370 N   0  0  0  0  0  0  0  0  0  0  0  0
  189.6700  175.2780  142.1320 C   0  0  0  0  0  3  0  0  0  0  0  0
  187.6520  177.9540  141.8770 C   0  0  0  0  0  1  0  0  0  0  0  0
  185.5620  177.3690  147.2030 C   0  0  0  0  0  1  0  0  0  0  0  0
  189.1700  177.0920  143.7270 C   0  0  0  0  0  0  0  0  0  0  0  0
  187.3620  177.9220  145.6270 C   0  0  0  0  0  0  0  0  0  0  0  0
  194.2880  172.3120  139.8760 N   0  0  0  0  0  2  0  0  0  0  0  0
  195.6170  172.1230  140.3660 C   0  0  0  0  0  0  0  0  0  0  0  0
  195.8630  172.1960  141.5990 O   0  0  0  0  0  0  0  0  0  0  0  0
  196.7200  171.8440  139.4100 C   0  0  0  0  0  1  0  0  0  0  0  0
  1 20  1  0  0  0  0
  1 16  1  0  0  0  0
  2 24  1  1  0  0  0
  2 12  1  0  0  0  0
  2 27  1  0  0  0  0
  3  4  1  0  0  0  0
  5 27  2  0  0  0  0
  5  6  1  0  0  0  0
  6 28  2  0  0  0  0
  7 17  1  0  0  0  0
  7 24  2  0  0  0  0
  9 26  1  6  0  0  0
 10 20  1  0  0  0  0
 11  3  1  0  0  0  0
 12  8  1  6  0  0  0
 12 13  1  0  0  0  0
 13 11  1  1  0  0  0
 13 22  1  0  0  0  0
 14 22  1  0  0  0  0
 14 23  2  0  0  0  0
 15  9  1  0  0  0  0
 17 10  1  6  0  0  0
 17  8  1  0  0  0  0
 18  6  1  0  0  0  0
 18 15  2  0  0  0  0
 19 16  1  0  0  0  0
 19  7  1  0  0  0  0
 20 29  1  6  0  0  0
 21  4  1  0  0  0  0
 22 21  1  1  0  0  0
 25  5  1  0  0  0  0
 27 14  1  0  0  0  0
 28 23  1  0  0  0  0
 28  9  1  0  0  0  0
 29 30  1  0  0  0  0
 30 31  2  0  0  0  0
 32 30  1  0  0  0  0
M  END
>  <MODEL>
4

>  <REMARK>
 VINA RESULT:      -7.5      1.218      1.259
  Name = 
  1 active torsions:
  status: ('A' for Active; 'I' for Inactive)
    1  A    between atoms: C_20  and  N_29
                            x       y       z     vdW  Elec       q    Type
                         _______ _______ _______ _____ _____    ______ ____

>  <TORSDO>
F 1

$$$$
=
 OpenBabel11112416323D

 32 37  0  0  1  0  0  0  0  0999 V2000
  187.5590  177.9660  143.1400 C   0  0  0  0  0  2  0  0  0  0  0  0
  190.4400  173.1020  144.1470 C   0  0  1  0  0  3  0  0  0  0  0  0
  192.9250  176.4670  146.5210 C   0  0  0  0  0  2  0  0  0  0  0  0
  194.1790  175.7160  146.4290 N   0  0  0  0  0  2  0  0  0  0  0  0
  191.7040  171.3230  142.8390 C   0  0  0  0  0  0  0  0  0  0  0  0
  192.9320  170.7560  142.5050 C   0  0  0  0  0  0  0  0  0  0  0  0
  189.3320  175.1590  143.2690 C   0  0  0  0  0  0  0  0  0  0  0  0
  189.3160  174.5020  145.7130 C   0  0  0  0  0  2  0  0  0  0  0  0
  195.2240  170.4040  142.5520 C   0  0  1  0  0  3  0  0  0  0  0  0
  187.6320  176.1280  144.8520 C   0  0  0  0  0  2  0  0  0  0  0  0
  191.7440  175.5010  146.6110 C   0  0  0  0  0  2  0  0  0  0  0  0
  190.5830  173.7890  145.4500 N   0  0  2  0  0  0  0  0  0  0  0  0
  191.6900  174.6830  145.3900 N   0  0  2  0  0  0  0  0  0  0  0  0
  192.9380  172.8450  144.3020 C   0  0  0  0  0  0  0  0  0  0  0  0
  194.4640  169.4600  141.6470 C   0  0  0  0  0  3  0  0  0  0  0  0
  189.2100  177.7700  142.3980 S   0  0  0  0  0  0  0  0  0  0  0  0
  189.0520  175.6100  144.6880 C   0  0  2  0  0  3  0  0  0  0  0  0
  193.1800  169.6690  141.6320 N   0  0  0  0  0  0  0  0  0  0  0  0
  188.9420  175.9970  142.0870 C   0  0  0  0  0  2  0  0  0  0  0  0
  187.5850  177.6340  144.6280 C   0  0  2  0  0  3  0  0  0  0  0  0
  194.1310  174.8350  145.2620 C   0  0  0  0  0  2  0  0  0  0  0  0
  192.9330  173.8890  145.3840 C   0  0  1  0  0  3  0  0  0  0  0  0
  194.1080  172.2260  143.9550 N   0  0  0  0  0  0  0  0  0  0  0  0
  190.0200  174.0370  143.0340 C   0  0  0  0  0  3  0  0  0  0  0  0
  190.4410  170.7980  142.2380 C   0  0  0  0  0  1  0  0  0  0  0  0
  196.1500  171.2700  141.7180 C   0  0  0  0  0  1  0  0  0  0  0  0
  191.7080  172.3930  143.7640 C   0  0  0  0  0  0  0  0  0  0  0  0
  194.0900  171.2140  143.0530 C   0  0  0  0  0  0  0  0  0  0  0  0
  186.3900  178.1680  145.2660 N   0  0  0  0  0  2  0  0  0  0  0  0
  186.2650  178.2930  146.6830 C   0  0  0  0  0  0  0  0  0  0  0  0
  187.1930  177.9160  147.4470 O   0  0  0  0  0  0  0  0  0  0  0  0
  185.0240  178.8690  147.2630 C   0  0  0  0  0  1  0  0  0  0  0  0
  1 20  1  0  0  0  0
  2 24  1  6  0  0  0
  2 12  1  0  0  0  0
  3 11  1  0  0  0  0
  4  3  1  0  0  0  0
  5 27  1  0  0  0  0
  6  5  2  0  0  0  0
  6 28  1  0  0  0  0
  7 17  1  0  0  0  0
  9 26  1  6  0  0  0
  9 28  1  0  0  0  0
 12  8  1  6  0  0  0
 13 12  1  0  0  0  0
 13 11  1  1  0  0  0
 14 22  1  0  0  0  0
 15  9  1  0  0  0  0
 16  1  1  0  0  0  0
 17 10  1  6  0  0  0
 17  8  1  0  0  0  0
 18 15  2  0  0  0  0
 18  6  1  0  0  0  0
 19 16  1  0  0  0  0
 19  7  1  0  0  0  0
 20 10  1  0  0  0  0
 20 29  1  1  0  0  0
 21  4  1  0  0  0  0
 22 21  1  6  0  0  0
 22 13  1  0  0  0  0
 23 14  1  0  0  0  0
 24  7  2  0  0  0  0
 25  5  1  0  0  0  0
 27  2  1  0  0  0  0
 27 14  2  0  0  0  0
 28 23  2  0  0  0  0
 29 30  1  0  0  0  0
 30 32  1  0  0  0  0
 30 31  2  0  0  0  0
M  END
>  <MODEL>
5

>  <REMARK>
 VINA RESULT:      -7.0      3.052      8.246
  Name = 
  1 active torsions:
  status: ('A' for Active; 'I' for Inactive)
    1  A    between atoms: C_20  and  N_29
                            x       y       z     vdW  Elec       q    Type
                         _______ _______ _______ _____ _____    ______ ____

>  <TORSDO>
F 1

$$$$
=
 OpenBabel11112416323D

 32 37  0  0  1  0  0  0  0  0999 V2000
  186.8200  178.2710  142.9980 C   0  0  0  0  0  2  0  0  0  0  0  0
  190.2810  173.6900  142.9870 C   0  0  1  0  0  3  0  0  0  0  0  0
  192.9180  177.1650  145.0130 C   0  0  0  0  0  2  0  0  0  0  0  0
  194.1820  176.5560  144.5960 N   0  0  0  0  0  2  0  0  0  0  0  0
  191.3780  172.1260  141.3050 C   0  0  0  0  0  0  0  0  0  0  0  0
  192.5470  171.7100  140.6710 C   0  0  0  0  0  0  0  0  0  0  0  0
  188.8230  175.6640  142.5280 C   0  0  0  0  0  0  0  0  0  0  0  0
  189.4130  174.8780  144.8600 C   0  0  0  0  0  2  0  0  0  0  0  0
  194.8140  171.6000  140.1940 C   0  0  1  0  0  3  0  0  0  0  0  0
  187.4390  176.3620  144.5100 C   0  0  0  0  0  2  0  0  0  0  0  0
  191.8790  176.0770  145.2840 C   0  0  0  0  0  2  0  0  0  0  0  0
  190.6490  174.3170  144.2760 N   0  0  2  0  0  0  0  0  0  0  0  0
  191.6290  175.3250  144.0450 N   0  0  2  0  0  0  0  0  0  0  0  0
  192.7640  173.6890  142.5780 C   0  0  0  0  0  0  0  0  0  0  0  0
  193.9590  170.6310  139.4060 C   0  0  0  0  0  3  0  0  0  0  0  0
  188.2740  178.2910  141.9040 S   0  0  0  0  0  0  0  0  0  0  0  0
  188.8270  176.0060  144.0030 C   0  0  2  0  0  3  0  0  0  0  0  0
  192.6910  170.7040  139.6860 N   0  0  0  0  0  0  0  0  0  0  0  0
  188.1060  176.5180  141.5250 C   0  0  0  0  0  2  0  0  0  0  0  0
  187.2070  177.8650  144.4160 C   0  0  2  0  0  3  0  0  0  0  0  0
  193.9550  175.7390  143.4040 C   0  0  0  0  0  2  0  0  0  0  0  0
  192.9060  174.6670  143.7100 C   0  0  1  0  0  3  0  0  0  0  0  0
  193.8780  173.2160  141.9400 N   0  0  0  0  0  0  0  0  0  0  0  0
  189.5410  174.6340  142.0650 C   0  0  0  0  0  3  0  0  0  0  0  0
  190.0660  171.5050  140.9540 C   0  0  0  0  0  1  0  0  0  0  0  0
  195.4480  172.6020  139.2480 C   0  0  0  0  0  1  0  0  0  0  0  0
  191.4910  173.1400  142.2860 C   0  0  0  0  0  0  0  0  0  0  0  0
  193.7510  172.2580  140.9890 C   0  0  0  0  0  0  0  0  0  0  0  0
  186.1410  178.2350  145.3350 N   0  0  0  0  0  2  0  0  0  0  0  0
  186.3190  178.2530  146.7530 C   0  0  0  0  0  0  0  0  0  0  0  0
  187.4190  177.9190  147.2670 O   0  0  0  0  0  0  0  0  0  0  0  0
  185.1920  178.6650  147.6300 C   0  0  0  0  0  1  0  0  0  0  0  0
  1 20  1  0  0  0  0
  2 24  1  6  0  0  0
  2 12  1  0  0  0  0
  3 11  1  0  0  0  0
  4  3  1  0  0  0  0
  5 27  1  0  0  0  0
  6 28  1  0  0  0  0
  6  5  2  0  0  0  0
  7 17  1  0  0  0  0
  9 26  1  6  0  0  0
  9 28  1  0  0  0  0
 12  8  1  6  0  0  0
 13 12  1  0  0  0  0
 13 11  1  1  0  0  0
 14 22  1  0  0  0  0
 15 18  2  0  0  0  0
 15  9  1  0  0  0  0
 16  1  1  0  0  0  0
 17 10  1  1  0  0  0
 17  8  1  0  0  0  0
 18  6  1  0  0  0  0
 19 16  1  0  0  0  0
 19  7  1  0  0  0  0
 20 10  1  0  0  0  0
 20 29  1  1  0  0  0
 21  4  1  0  0  0  0
 22 21  1  6  0  0  0
 22 13  1  0  0  0  0
 23 14  1  0  0  0  0
 24  7  2  0  0  0  0
 25  5  1  0  0  0  0
 27 14  2  0  0  0  0
 27  2  1  0  0  0  0
 28 23  2  0  0  0  0
 29 30  1  0  0  0  0
 30 31  2  0  0  0  0
 30 32  1  0  0  0  0
M  END
>  <MODEL>
6

>  <REMARK>
 VINA RESULT:      -6.7      2.842      8.123
  Name = 
  1 active torsions:
  status: ('A' for Active; 'I' for Inactive)
    1  A    between atoms: C_20  and  N_29
                            x       y       z     vdW  Elec       q    Type
                         _______ _______ _______ _____ _____    ______ ____

>  <TORSDO>
F 1

$$$$
=
 OpenBabel11112416323D

 32 37  0  0  1  0  0  0  0  0999 V2000
  190.0980  177.1010  147.3800 C   0  0  0  0  0  2  0  0  0  0  0  0
  192.8900  175.6920  142.5650 C   0  0  1  0  0  3  0  0  0  0  0  0
  189.6410  172.1890  143.1220 C   0  0  0  0  0  2  0  0  0  0  0  0
  190.4510  171.2160  142.3870 N   0  0  0  0  0  2  0  0  0  0  0  0
  195.2500  175.0860  141.8310 C   0  0  0  0  0  0  0  0  0  0  0  0
  196.1310  174.0990  141.3930 C   0  0  0  0  0  0  0  0  0  0  0  0
  192.0820  176.2130  144.8690 C   0  0  0  0  0  0  0  0  0  0  0  0
  190.5900  176.2570  142.8250 C   0  0  0  0  0  2  0  0  0  0  0  0
  196.8380  172.0090  140.6790 C   0  0  1  0  0  3  0  0  0  0  0  0
  189.8920  177.4520  144.9010 C   0  0  0  0  0  2  0  0  0  0  0  0
  189.8720  173.5910  142.5570 C   0  0  0  0  0  2  0  0  0  0  0  0
  191.5130  175.2710  142.2250 N   0  0  2  0  0  0  0  0  0  0  0  0
  191.2850  173.9590  142.7300 N   0  0  2  0  0  0  0  0  0  0  0  0
  193.5060  173.3710  141.8140 C   0  0  0  0  0  0  0  0  0  0  0  0
  197.9190  173.0680  140.6860 C   0  0  0  0  0  3  0  0  0  0  0  0
  191.1690  175.6300  147.4020 S   0  0  0  0  0  0  0  0  0  0  0  0
  190.6580  176.2560  144.3560 C   0  0  2  0  0  3  0  0  0  0  0  0
  197.5060  174.2340  141.0880 N   0  0  0  0  0  0  0  0  0  0  0  0
  192.4020  176.4200  146.3200 C   0  0  0  0  0  2  0  0  0  0  0  0
  189.1570  177.0750  146.1800 C   0  0  2  0  0  3  0  0  0  0  0  0
  191.8620  171.5930  142.4780 C   0  0  0  0  0  2  0  0  0  0  0  0
  192.0520  173.0030  141.9100 C   0  0  1  0  0  3  0  0  0  0  0  0
  194.4140  172.4560  141.3570 N   0  0  0  0  0  0  0  0  0  0  0  0
  193.0920  175.8950  144.0500 C   0  0  0  0  0  3  0  0  0  0  0  0
  195.7300  176.4830  142.0510 C   0  0  0  0  0  1  0  0  0  0  0  0
  197.1800  170.9290  141.6880 C   0  0  0  0  0  1  0  0  0  0  0  0
  193.9030  174.7120  142.0440 C   0  0  0  0  0  0  0  0  0  0  0  0
  195.7060  172.8250  141.1750 C   0  0  0  0  0  0  0  0  0  0  0  0
  188.0700  178.0200  146.3940 N   0  0  0  0  0  2  0  0  0  0  0  0
  186.8210  177.6380  146.9730 C   0  0  0  0  0  0  0  0  0  0  0  0
  186.6040  176.4410  147.3010 O   0  0  0  0  0  0  0  0  0  0  0  0
  185.7650  178.6620  147.1830 C   0  0  0  0  0  1  0  0  0  0  0  0
  1 16  1  0  0  0  0
  2 24  1  1  0  0  0
  4 21  1  0  0  0  0
  4  3  1  0  0  0  0
  5 27  1  0  0  0  0
  5 25  1  0  0  0  0
  6  5  2  0  0  0  0
  7 19  1  0  0  0  0
  9 15  1  0  0  0  0
  9 28  1  0  0  0  0
  9 26  1  1  0  0  0
 10 20  1  0  0  0  0
 11  3  1  0  0  0  0
 12  2  1  0  0  0  0
 12 13  1  0  0  0  0
 12  8  1  1  0  0  0
 13 11  1  6  0  0  0
 14 22  1  0  0  0  0
 14 27  2  0  0  0  0
 15 18  2  0  0  0  0
 17  8  1  6  0  0  0
 17  7  1  0  0  0  0
 17 10  1  0  0  0  0
 18  6  1  0  0  0  0
 19 16  1  0  0  0  0
 20 29  1  1  0  0  0
 20  1  1  0  0  0  0
 22 21  1  1  0  0  0
 22 13  1  0  0  0  0
 23 14  1  0  0  0  0
 24  7  2  0  0  0  0
 27  2  1  0  0  0  0
 28 23  2  0  0  0  0
 28  6  1  0  0  0  0
 29 30  1  0  0  0  0
 30 32  1  0  0  0  0
 30 31  2  0  0  0  0
M  END
>  <MODEL>
7

>  <REMARK>
 VINA RESULT:      -6.6      2.940      8.761
  Name = 
  1 active torsions:
  status: ('A' for Active; 'I' for Inactive)
    1  A    between atoms: C_20  and  N_29
                            x       y       z     vdW  Elec       q    Type
                         _______ _______ _______ _____ _____    ______ ____

>  <TORSDO>
F 1

$$$$
=
 OpenBabel11112416323D

 32 37  0  0  1  0  0  0  0  0999 V2000
  186.6040  178.2470  142.9700 C   0  0  0  0  0  2  0  0  0  0  0  0
  189.5730  173.5990  141.3710 C   0  0  1  0  0  3  0  0  0  0  0  0
  192.8360  176.4160  143.5060 C   0  0  0  0  0  2  0  0  0  0  0  0
  193.9440  175.8450  142.7390 N   0  0  0  0  0  2  0  0  0  0  0  0
  190.2050  172.3770  139.2300 C   0  0  0  0  0  0  0  0  0  0  0  0
  191.2000  172.0460  138.3120 C   0  0  0  0  0  0  0  0  0  0  0  0
  188.2440  175.6990  141.6080 C   0  0  0  0  0  0  0  0  0  0  0  0
  189.1640  174.4020  143.5760 C   0  0  0  0  0  2  0  0  0  0  0  0
  193.3260  171.9220  137.3940 C   0  0  1  0  0  3  0  0  0  0  0  0
  187.3040  176.0280  143.9190 C   0  0  0  0  0  2  0  0  0  0  0  0
  191.7660  175.3510  143.7480 C   0  0  0  0  0  2  0  0  0  0  0  0
  190.2190  173.9150  142.6640 N   0  0  2  0  0  0  0  0  0  0  0  0
  191.2320  174.8960  142.4560 N   0  0  2  0  0  0  0  0  0  0  0  0
  191.9330  173.5550  140.4980 C   0  0  0  0  0  0  0  0  0  0  0  0
  192.2600  171.1900  136.6080 C   0  0  0  0  0  3  0  0  0  0  0  0
  187.8370  178.4240  141.6420 S   0  0  0  0  0  0  0  0  0  0  0  0
  188.5420  175.7160  143.0930 C   0  0  2  0  0  3  0  0  0  0  0  0
  191.0730  171.2690  137.1360 N   0  0  0  0  0  0  0  0  0  0  0  0
  187.4410  176.7850  140.9550 C   0  0  0  0  0  2  0  0  0  0  0  0
  187.1980  177.5260  144.1750 C   0  0  2  0  0  3  0  0  0  0  0  0
  193.4350  175.3160  141.4740 C   0  0  0  0  0  2  0  0  0  0  0  0
  192.3630  174.2590  141.7550 C   0  0  1  0  0  3  0  0  0  0  0  0
  192.8680  173.1720  139.5760 N   0  0  0  0  0  0  0  0  0  0  0  0
  188.7710  174.7570  140.8180 C   0  0  0  0  0  3  0  0  0  0  0  0
  188.8000  171.9160  139.0210 C   0  0  0  0  0  1  0  0  0  0  0  0
  193.8710  173.0680  136.5640 C   0  0  0  0  0  1  0  0  0  0  0  0
  190.5830  173.1490  140.3530 C   0  0  0  0  0  0  0  0  0  0  0  0
  192.4870  172.4480  138.4950 C   0  0  0  0  0  0  0  0  0  0  0  0
  186.3510  177.7460  145.3380 N   0  0  0  0  0  2  0  0  0  0  0  0
  186.8620  177.7530  146.6720 C   0  0  0  0  0  0  0  0  0  0  0  0
  188.0840  177.5410  146.8930 O   0  0  0  0  0  0  0  0  0  0  0  0
  185.9410  178.0080  147.8100 C   0  0  0  0  0  1  0  0  0  0  0  0
  1 20  1  0  0  0  0
  2 24  1  6  0  0  0
  2 12  1  0  0  0  0
  3 11  1  0  0  0  0
  4  3  1  0  0  0  0
  5 27  1  0  0  0  0
  6 28  1  0  0  0  0
  6  5  2  0  0  0  0
  7 17  1  0  0  0  0
  9 26  1  6  0  0  0
  9 28  1  0  0  0  0
 10 20  1  0  0  0  0
 12  8  1  1  0  0  0
 13 12  1  0  0  0  0
 13 11  1  1  0  0  0
 14 22  1  0  0  0  0
 15 18  2  0  0  0  0
 15  9  1  0  0  0  0
 16  1  1  0  0  0  0
 17  8  1  1  0  0  0
 17 10  1  0  0  0  0
 18  6  1  0  0  0  0
 19  7  1  0  0  0  0
 19 16  1  0  0  0  0
 20 29  1  1  0  0  0
 21  4  1  0  0  0  0
 22 21  1  6  0  0  0
 22 13  1  0  0  0  0
 23 14  1  0  0  0  0
 24  7  2  0  0  0  0
 25  5  1  0  0  0  0
 27 14  2  0  0  0  0
 27  2  1  0  0  0  0
 28 23  2  0  0  0  0
 29 30  1  0  0  0  0
 30 31  2  0  0  0  0
 30 32  1  0  0  0  0
M  END
>  <MODEL>
8

>  <REMARK>
 VINA RESULT:      -6.5      3.332      8.205
  Name = 
  1 active torsions:
  status: ('A' for Active; 'I' for Inactive)
    1  A    between atoms: C_20  and  N_29
                            x       y       z     vdW  Elec       q    Type
                         _______ _______ _______ _____ _____    ______ ____

>  <TORSDO>
F 1

$$$$
=
 OpenBabel11112416323D

 32 37  0  0  1  0  0  0  0  0999 V2000
  190.8360  172.4110  143.5290 C   0  0  0  0  0  2  0  0  0  0  0  0
  187.7230  177.1100  142.4330 C   0  0  1  0  0  3  0  0  0  0  0  0
  187.2780  176.4720  147.1790 C   0  0  0  0  0  2  0  0  0  0  0  0
  185.9810  177.1500  147.2270 N   0  0  0  0  0  2  0  0  0  0  0  0
  185.6750  177.7730  141.0760 C   0  0  0  0  0  0  0  0  0  0  0  0
  184.3350  178.1530  141.0750 C   0  0  0  0  0  0  0  0  0  0  0  0
  188.7480  174.8450  142.6630 C   0  0  0  0  0  0  0  0  0  0  0  0
  189.6800  176.9180  143.7780 C   0  0  0  0  0  2  0  0  0  0  0  0
  182.2710  178.7660  141.9380 C   0  0  1  0  0  3  0  0  0  0  0  0
  191.1260  174.9060  143.4830 C   0  0  0  0  0  2  0  0  0  0  0  0
  188.1490  177.0890  146.0850 C   0  0  0  0  0  2  0  0  0  0  0  0
  188.3060  177.4580  143.7470 N   0  0  2  0  0  0  0  0  0  0  0  0
  187.4970  176.9040  144.7810 N   0  0  2  0  0  0  0  0  0  0  0  0
  185.5460  177.7520  143.5180 C   0  0  0  0  0  0  0  0  0  0  0  0
  182.3480  178.7820  140.4270 C   0  0  0  0  0  3  0  0  0  0  0  0
  189.0270  172.3080  143.7010 S   0  0  0  0  0  0  0  0  0  0  0  0
  189.7010  175.3860  143.7080 C   0  0  2  0  0  3  0  0  0  0  0  0
  183.5120  178.4360  139.9590 N   0  0  0  0  0  0  0  0  0  0  0  0
  188.7540  173.3980  142.2680 C   0  0  0  0  0  2  0  0  0  0  0  0
  191.3870  173.6260  144.2670 C   0  0  2  0  0  3  0  0  0  0  0  0
  185.3330  177.0480  145.9190 C   0  0  0  0  0  2  0  0  0  0  0  0
  186.2370  177.6690  144.8500 C   0  0  1  0  0  3  0  0  0  0  0  0
  184.2400  178.1540  143.4500 N   0  0  0  0  0  0  0  0  0  0  0  0
  187.8060  175.6300  142.1280 C   0  0  0  0  0  3  0  0  0  0  0  0
  186.4120  177.6000  139.7880 C   0  0  0  0  0  1  0  0  0  0  0  0
  181.2810  177.7070  142.3850 C   0  0  0  0  0  1  0  0  0  0  0  0
  186.2970  177.5700  142.3300 C   0  0  0  0  0  0  0  0  0  0  0  0
  183.6530  178.3260  142.2400 C   0  0  0  0  0  0  0  0  0  0  0  0
  192.8220  173.4720  144.4530 N   0  0  0  0  0  2  0  0  0  0  0  0
  193.5300  174.0890  145.5300 C   0  0  0  0  0  0  0  0  0  0  0  0
  192.9280  174.8220  146.3580 O   0  0  0  0  0  0  0  0  0  0  0  0
  194.9930  173.8680  145.6700 C   0  0  0  0  0  1  0  0  0  0  0  0
  1 16  1  0  0  0  0
  1 20  1  0  0  0  0
  2 24  1  1  0  0  0
  2 12  1  0  0  0  0
  3  4  1  0  0  0  0
  5 27  1  0  0  0  0
  6  5  2  0  0  0  0
  6 28  1  0  0  0  0
  7 17  1  0  0  0  0
  9 28  1  0  0  0  0
  9 26  1  6  0  0  0
 10 20  1  0  0  0  0
 11  3  1  0  0  0  0
 12  8  1  6  0  0  0
 12 13  1  0  0  0  0
 13 22  1  0  0  0  0
 13 11  1  1  0  0  0
 14 22  1  0  0  0  0
 15  9  1  0  0  0  0
 17 10  1  6  0  0  0
 17  8  1  0  0  0  0
 18 15  2  0  0  0  0
 18  6  1  0  0  0  0
 19  7  1  0  0  0  0
 19 16  1  0  0  0  0
 20 29  1  6  0  0  0
 21  4  1  0  0  0  0
 22 21  1  1  0  0  0
 23 14  1  0  0  0  0
 24  7  2  0  0  0  0
 25  5  1  0  0  0  0
 27  2  1  0  0  0  0
 27 14  2  0  0  0  0
 28 23  2  0  0  0  0
 29 30  1  0  0  0  0
 30 32  1  0  0  0  0
 30 31  2  0  0  0  0
M  END
>  <MODEL>
9

>  <REMARK>
 VINA RESULT:      -6.4      2.491      3.576
  Name = 
  1 active torsions:
  status: ('A' for Active; 'I' for Inactive)
    1  A    between atoms: C_20  and  N_29
                            x       y       z     vdW  Elec       q    Type
                         _______ _______ _______ _____ _____    ______ ____

>  <TORSDO>
F 1

$$$$
