=
 OpenBabel11112417293D

 37 42  0  0  1  0  0  0  0  0999 V2000
  193.2530  174.3950  142.4890 C   0  0  1  0  0  0  0  0  0  0  0  0
  190.6760  175.1600  145.0150 C   0  0  1  0  0  3  0  0  0  0  0  0
  188.1810  175.8540  143.3260 O   0  0  0  0  0  0  0  0  0  0  0  0
  192.8790  173.8740  144.7100 C   0  0  2  0  0  3  0  0  0  0  0  0
  190.4520  176.2810  144.0020 C   0  0  0  0  0  2  0  0  0  0  0  0
  191.3680  173.8770  144.4860 C   0  0  2  0  0  3  0  0  0  0  0  0
  188.9890  176.7460  144.0560 C   0  0  2  0  0  3  0  0  0  0  0  0
  193.2080  174.2130  146.1580 C   0  0  0  0  0  2  0  0  0  0  0  0
  191.1300  173.6060  142.9940 C   0  0  2  0  0  3  0  0  0  0  0  0
  193.7050  173.0950  142.2150 O   0  0  0  0  0  1  0  0  0  0  0  0
  190.7820  177.1520  146.6190 C   0  0  0  0  0  2  0  0  0  0  0  0
  192.6830  175.5980  146.5120 C   0  0  0  0  0  2  0  0  0  0  0  0
  191.8710  174.5270  142.2060 O   0  0  0  0  0  0  0  0  0  0  0  0
  187.3120  177.0460  141.4520 C   0  0  0  0  0  1  0  0  0  0  0  0
  188.3850  176.1000  141.9600 C   0  0  2  0  0  3  0  0  0  0  0  0
  191.1610  175.6800  146.3890 C   0  0  2  0  0  3  0  0  0  0  0  0
  189.7390  173.6320  142.7230 O   0  0  0  0  0  0  0  0  0  0  0  0
  193.5330  174.7630  143.8300 O   0  0  0  0  0  0  0  0  0  0  0  0
  188.4320  176.8060  145.5010 C   0  0  1  0  0  3  0  0  0  0  0  0
  194.0030  175.3480  141.5820 C   0  0  0  0  0  1  0  0  0  0  0  0
  188.2760  174.7840  141.1970 C   0  0  0  0  0  2  0  0  0  0  0  0
  189.5150  173.9050  141.3600 C   0  0  2  0  0  3  0  0  0  0  0  0
  189.2860  177.4910  146.5820 C   0  0  0  0  0  2  0  0  0  0  0  0
  186.0680  176.7080  146.3080 C   0  0  0  0  0  3  0  0  0  0  0  0
  187.0350  177.3440  145.5230 C   0  0  0  0  0  0  0  0  0  0  0  0
  186.6830  178.4660  144.7600 C   0  0  0  0  0  3  0  0  0  0  0  0
  185.0330  180.0320  144.0470 F   0  0  0  0  0  0  0  0  0  0  0  0
  184.4070  178.3100  145.5710 C   0  0  0  0  0  3  0  0  0  0  0  0
  185.3710  178.9480  144.7850 C   0  0  0  0  0  0  0  0  0  0  0  0
  184.7550  177.1900  146.3330 C   0  0  0  0  0  3  0  0  0  0  0  0
  189.3100  172.5960  140.5890 C   0  0  1  0  0  3  0  0  0  0  0  0
  189.7260  172.6330  139.1600 N   0  0  0  0  0  0  0  0  0  0  0  0
  190.5970  172.0370  140.1850 C   0  0  2  0  0  3  0  0  0  0  0  0
  190.4690  170.2320  140.1030 S   0  0  0  0  0  0  0  0  0  0  0  0
  190.8050  170.0660  141.8820 C   0  0  0  0  0  1  0  0  0  0  0  0
  190.4350  173.8890  137.3770 C   0  0  0  0  0  1  0  0  0  0  0  0
  190.3010  173.8690  138.8230 N   0  0  0  0  0  2  0  0  0  0  0  0
  1 20  1  6  0  0  0
  1 18  1  0  0  0  0
  2  5  1  6  0  0  0
  2 16  1  0  0  0  0
  3  7  1  0  0  0  0
  4  8  1  1  0  0  0
  5  7  1  0  0  0  0
  6  4  1  0  0  0  0
  6  2  1  0  0  0  0
  7 19  1  0  0  0  0
  8 12  1  0  0  0  0
  9  6  1  0  0  0  0
 10  1  1  0  0  0  0
 13  1  1  0  0  0  0
 13  9  1  0  0  0  0
 14 15  1  0  0  0  0
 15  3  1  0  0  0  0
 16 12  1  0  0  0  0
 16 11  1  0  0  0  0
 17  9  1  0  0  0  0
 18  4  1  0  0  0  0
 19 25  1  0  0  0  0
 19 23  1  0  0  0  0
 21 22  1  0  0  0  0
 21 15  1  0  0  0  0
 22 17  1  0  0  0  0
 23 11  1  0  0  0  0
 24 30  1  0  0  0  0
 25 24  2  0  0  0  0
 26 29  2  0  0  0  0
 26 25  1  0  0  0  0
 27 29  1  0  0  0  0
 28 30  2  0  0  0  0
 29 28  1  0  0  0  0
 31 22  1  0  0  0  0
 32 33  1  0  0  0  0
 32 31  1  0  0  0  0
 33 31  1  0  0  0  0
 34 33  1  0  0  0  0
 34 35  1  0  0  0  0
 36 37  1  0  0  0  0
 37 32  1  0  0  0  0
M  END
>  <MODEL>
1

>  <REMARK>
 VINA RESULT:      -8.7      0.000      0.000
  Name = 
  4 active torsions:
  status: ('A' for Active; 'I' for Inactive)
    1  A    between atoms: C_1  and  C_27
    2  A    between atoms: N_4  and  N_37
    3  A    between atoms: S_8  and  C_12
    4  A    between atoms: C_23  and  C_30
                            x       y       z     vdW  Elec       q    Type
                         _______ _______ _______ _____ _____    ______ ____

>  <TORSDO>
F 4

$$$$
=
 OpenBabel11112417293D

 37 42  0  0  1  0  0  0  0  0999 V2000
  192.7840  172.4490  142.7070 C   0  0  1  0  0  0  0  0  0  0  0  0
  190.0230  174.8420  142.2070 C   0  0  1  0  0  3  0  0  0  0  0  0
  189.9080  176.3930  144.8790 O   0  0  0  0  0  0  0  0  0  0  0  0
  191.7260  173.4300  140.9020 C   0  0  2  0  0  3  0  0  0  0  0  0
  189.7420  174.3450  143.6240 C   0  0  0  0  0  2  0  0  0  0  0  0
  191.4830  174.7080  141.7030 C   0  0  2  0  0  3  0  0  0  0  0  0
  188.9940  175.4280  144.4160 C   0  0  2  0  0  3  0  0  0  0  0  0
  190.6700  173.2670  139.8170 C   0  0  0  0  0  2  0  0  0  0  0  0
  192.5380  174.7540  142.8170 C   0  0  2  0  0  3  0  0  0  0  0  0
  194.0420  172.5810  142.0980 O   0  0  0  0  0  1  0  0  0  0  0  0
  187.5730  174.1660  141.8980 C   0  0  0  0  0  2  0  0  0  0  0  0
  189.2820  173.1760  140.4360 C   0  0  0  0  0  2  0  0  0  0  0  0
  192.5120  173.5450  143.5630 O   0  0  0  0  0  0  0  0  0  0  0  0
  189.9380  176.2660  147.2600 C   0  0  0  0  0  1  0  0  0  0  0  0
  190.6070  175.8460  145.9640 C   0  0  2  0  0  3  0  0  0  0  0  0
  188.9140  174.4470  141.2020 C   0  0  2  0  0  3  0  0  0  0  0  0
  192.3350  175.9080  143.6150 O   0  0  0  0  0  0  0  0  0  0  0  0
  191.7590  172.2950  141.7390 O   0  0  0  0  0  0  0  0  0  0  0  0
  187.9270  176.1630  143.5660 C   0  0  1  0  0  3  0  0  0  0  0  0
  192.8100  171.1960  143.5570 C   0  0  0  0  0  1  0  0  0  0  0  0
  192.0350  176.3830  145.9560 C   0  0  0  0  0  2  0  0  0  0  0  0
  192.9060  175.7220  144.8880 C   0  0  2  0  0  3  0  0  0  0  0  0
  186.9660  175.3160  142.7130 C   0  0  0  0  0  2  0  0  0  0  0  0
  186.8390  176.8340  145.7140 C   0  0  0  0  0  3  0  0  0  0  0  0
  187.1590  177.1490  144.3900 C   0  0  0  0  0  0  0  0  0  0  0  0
  186.7490  178.3750  143.8480 C   0  0  0  0  0  3  0  0  0  0  0  0
  185.6260  180.4630  144.1030 F   0  0  0  0  0  0  0  0  0  0  0  0
  185.7050  178.9610  145.9530 C   0  0  0  0  0  3  0  0  0  0  0  0
  186.0230  179.2790  144.6290 C   0  0  0  0  0  0  0  0  0  0  0  0
  186.1130  177.7390  146.4950 C   0  0  0  0  0  3  0  0  0  0  0  0
  194.3080  176.3380  144.9300 C   0  0  1  0  0  3  0  0  0  0  0  0
  195.3770  175.4430  145.4530 N   0  0  0  0  0  0  0  0  0  0  0  0
  195.1980  175.6410  144.0060 C   0  0  2  0  0  3  0  0  0  0  0  0
  196.4580  176.7920  143.3990 S   0  0  0  0  0  0  0  0  0  0  0  0
  195.9430  176.5420  141.6740 C   0  0  0  0  0  1  0  0  0  0  0  0
  195.8610  173.2110  145.2530 C   0  0  0  0  0  1  0  0  0  0  0  0
  194.8800  174.1620  145.7420 N   0  0  0  0  0  2  0  0  0  0  0  0
  1 20  1  1  0  0  0
  1 13  1  0  0  0  0
  2  5  1  1  0  0  0
  3 15  1  0  0  0  0
  4  8  1  6  0  0  0
  4  6  1  0  0  0  0
  4 18  1  0  0  0  0
  5  7  1  0  0  0  0
  6  2  1  0  0  0  0
  6  9  1  0  0  0  0
  7  3  1  0  0  0  0
  8 12  1  0  0  0  0
  9 13  1  0  0  0  0
  9 17  1  0  0  0  0
 10  1  1  0  0  0  0
 11 23  1  0  0  0  0
 12 16  1  0  0  0  0
 15 14  1  0  0  0  0
 16 11  1  0  0  0  0
 16  2  1  0  0  0  0
 17 22  1  0  0  0  0
 18  1  1  0  0  0  0
 19 25  1  0  0  0  0
 19  7  1  0  0  0  0
 21 15  1  0  0  0  0
 22 31  1  0  0  0  0
 22 21  1  0  0  0  0
 23 19  1  0  0  0  0
 24 30  1  0  0  0  0
 25 24  2  0  0  0  0
 26 25  1  0  0  0  0
 26 29  2  0  0  0  0
 27 29  1  0  0  0  0
 28 30  2  0  0  0  0
 29 28  1  0  0  0  0
 31 32  1  0  0  0  0
 32 37  1  0  0  0  0
 33 31  1  0  0  0  0
 33 32  1  0  0  0  0
 34 33  1  0  0  0  0
 35 34  1  0  0  0  0
 36 37  1  0  0  0  0
M  END
>  <MODEL>
2

>  <REMARK>
 VINA RESULT:      -8.6      2.950      5.077
  Name = 
  4 active torsions:
  status: ('A' for Active; 'I' for Inactive)
    1  A    between atoms: C_1  and  C_27
    2  A    between atoms: N_4  and  N_37
    3  A    between atoms: S_8  and  C_12
    4  A    between atoms: C_23  and  C_30
                            x       y       z     vdW  Elec       q    Type
                         _______ _______ _______ _____ _____    ______ ____

>  <TORSDO>
F 4

$$$$
=
 OpenBabel11112417293D

 37 42  0  0  1  0  0  0  0  0999 V2000
  193.9440  173.4680  141.1190 C   0  0  1  0  0  0  0  0  0  0  0  0
  192.1730  174.9900  143.9740 C   0  0  1  0  0  3  0  0  0  0  0  0
  189.2120  174.2590  143.4700 O   0  0  0  0  0  0  0  0  0  0  0  0
  194.4880  174.1330  143.2650 C   0  0  2  0  0  3  0  0  0  0  0  0
  191.2500  175.3570  142.8130 C   0  0  0  0  0  2  0  0  0  0  0  0
  193.0940  173.7600  143.7650 C   0  0  2  0  0  3  0  0  0  0  0  0
  189.8120  175.5230  143.3250 C   0  0  2  0  0  3  0  0  0  0  0  0
  195.0940  175.2310  144.1300 C   0  0  0  0  0  2  0  0  0  0  0  0
  192.5300  172.7120  142.7970 C   0  0  2  0  0  3  0  0  0  0  0  0
  194.7390  172.3160  141.2280 O   0  0  0  0  0  1  0  0  0  0  0  0
  192.0170  177.5120  144.3900 C   0  0  0  0  0  2  0  0  0  0  0  0
  194.2270  176.4820  144.0830 C   0  0  0  0  0  2  0  0  0  0  0  0
  192.5960  173.1930  141.4620 O   0  0  0  0  0  0  0  0  0  0  0  0
  187.4340  174.1230  141.8860 C   0  0  0  0  0  1  0  0  0  0  0  0
  188.8810  173.7830  142.1930 C   0  0  2  0  0  3  0  0  0  0  0  0
  192.8250  176.2270  144.6360 C   0  0  2  0  0  3  0  0  0  0  0  0
  191.2170  172.3540  143.1970 O   0  0  0  0  0  0  0  0  0  0  0  0
  194.4630  174.5250  141.9090 O   0  0  0  0  0  0  0  0  0  0  0  0
  189.7420  176.2360  144.6990 C   0  0  1  0  0  3  0  0  0  0  0  0
  193.9700  173.9150  139.6730 C   0  0  0  0  0  1  0  0  0  0  0  0
  189.0410  172.2660  142.1720 C   0  0  0  0  0  2  0  0  0  0  0  0
  190.5030  171.8300  142.1030 C   0  0  2  0  0  3  0  0  0  0  0  0
  190.5680  177.5200  144.8950 C   0  0  0  0  0  2  0  0  0  0  0  0
  187.9840  176.3110  146.4740 C   0  0  0  0  0  3  0  0  0  0  0  0
  188.3250  176.4580  145.1250 C   0  0  0  0  0  0  0  0  0  0  0  0
  187.3370  176.8000  144.1910 C   0  0  0  0  0  3  0  0  0  0  0  0
  185.0630  177.3220  143.7020 F   0  0  0  0  0  0  0  0  0  0  0  0
  185.6790  176.8450  145.9550 C   0  0  0  0  0  3  0  0  0  0  0  0
  186.0160  176.9930  144.6070 C   0  0  0  0  0  0  0  0  0  0  0  0
  186.6620  176.5050  146.8890 C   0  0  0  0  0  3  0  0  0  0  0  0
  190.5740  170.2990  142.1150 C   0  0  1  0  0  3  0  0  0  0  0  0
  190.8150  169.6660  140.7890 N   0  0  0  0  0  0  0  0  0  0  0  0
  191.9140  169.8480  141.7510 C   0  0  2  0  0  3  0  0  0  0  0  0
  192.2600  168.2690  142.5680 S   0  0  0  0  0  0  0  0  0  0  0  0
  193.1560  169.0950  143.9180 C   0  0  0  0  0  1  0  0  0  0  0  0
  190.5260  170.0450  138.5460 C   0  0  0  0  0  1  0  0  0  0  0  0
  191.0040  170.6300  139.7850 N   0  0  0  0  0  2  0  0  0  0  0  0
  1 20  1  6  0  0  0
  1 10  1  0  0  0  0
  1 13  1  0  0  0  0
  1 18  1  0  0  0  0
  2  5  1  6  0  0  0
  2 16  1  0  0  0  0
  4  6  1  0  0  0  0
  4  8  1  1  0  0  0
  5  7  1  0  0  0  0
  6  2  1  0  0  0  0
  7  3  1  0  0  0  0
  7 19  1  0  0  0  0
  9 17  1  0  0  0  0
  9  6  1  0  0  0  0
 11 16  1  0  0  0  0
 11 23  1  0  0  0  0
 12  8  1  0  0  0  0
 12 16  1  0  0  0  0
 13  9  1  0  0  0  0
 14 15  1  0  0  0  0
 15  3  1  0  0  0  0
 18  4  1  0  0  0  0
 19 23  1  0  0  0  0
 19 25  1  0  0  0  0
 21 15  1  0  0  0  0
 22 31  1  0  0  0  0
 22 21  1  0  0  0  0
 22 17  1  0  0  0  0
 24 30  1  0  0  0  0
 25 24  2  0  0  0  0
 26 29  2  0  0  0  0
 26 25  1  0  0  0  0
 27 29  1  0  0  0  0
 28 30  2  0  0  0  0
 29 28  1  0  0  0  0
 32 33  1  0  0  0  0
 32 31  1  0  0  0  0
 33 31  1  0  0  0  0
 33 34  1  0  0  0  0
 34 35  1  0  0  0  0
 36 37  1  0  0  0  0
 37 32  1  0  0  0  0
M  END
>  <MODEL>
3

>  <REMARK>
 VINA RESULT:      -7.2      1.958      2.467
  Name = 
  4 active torsions:
  status: ('A' for Active; 'I' for Inactive)
    1  A    between atoms: C_1  and  C_27
    2  A    between atoms: N_4  and  N_37
    3  A    between atoms: S_8  and  C_12
    4  A    between atoms: C_23  and  C_30
                            x       y       z     vdW  Elec       q    Type
                         _______ _______ _______ _____ _____    ______ ____

>  <TORSDO>
F 4

$$$$
=
 OpenBabel11112417293D

 37 42  0  0  1  0  0  0  0  0999 V2000
  190.5800  176.9100  144.9850 C   0  0  1  0  0  0  0  0  0  0  0  0
  186.9020  177.1820  144.9780 C   0  0  1  0  0  3  0  0  0  0  0  0
  186.1550  176.9090  141.9910 O   0  0  0  0  0  0  0  0  0  0  0  0
  188.8730  176.5710  146.5070 C   0  0  2  0  0  3  0  0  0  0  0  0
  187.2750  178.0600  143.7840 C   0  0  0  0  0  2  0  0  0  0  0  0
  187.9350  176.1040  145.3950 C   0  0  2  0  0  3  0  0  0  0  0  0
  186.1190  178.0790  142.7730 C   0  0  2  0  0  3  0  0  0  0  0  0
  188.0800  177.1620  147.6660 C   0  0  0  0  0  2  0  0  0  0  0  0
  188.8140  175.5990  144.2430 C   0  0  2  0  0  3  0  0  0  0  0  0
  191.2700  175.7750  145.4410 O   0  0  0  0  0  1  0  0  0  0  0  0
  185.6160  179.2950  145.6390 C   0  0  0  0  0  2  0  0  0  0  0  0
  187.2720  178.3640  147.1980 C   0  0  0  0  0  2  0  0  0  0  0  0
  189.7570  176.5960  143.8740 O   0  0  0  0  0  0  0  0  0  0  0  0
  186.6370  177.5620  139.7480 C   0  0  0  0  0  1  0  0  0  0  0  0
  187.1950  177.0390  141.0590 C   0  0  2  0  0  3  0  0  0  0  0  0
  186.2470  177.9820  146.1300 C   0  0  2  0  0  3  0  0  0  0  0  0
  187.9910  175.1840  143.1660 O   0  0  0  0  0  0  0  0  0  0  0  0
  189.8210  177.5000  146.0270 O   0  0  0  0  0  0  0  0  0  0  0  0
  184.7280  178.1460  143.4520 C   0  0  1  0  0  3  0  0  0  0  0  0
  191.6060  177.9240  144.5270 C   0  0  0  0  0  1  0  0  0  0  0  0
  187.8140  175.6670  140.8130 C   0  0  0  0  0  2  0  0  0  0  0  0
  188.7180  175.2150  141.9600 C   0  0  2  0  0  3  0  0  0  0  0  0
  184.5160  179.1750  144.5770 C   0  0  0  0  0  2  0  0  0  0  0  0
  183.8970  177.9200  141.1050 C   0  0  0  0  0  3  0  0  0  0  0  0
  183.6320  178.2500  142.4380 C   0  0  0  0  0  0  0  0  0  0  0  0
  182.3500  178.6840  142.8050 C   0  0  0  0  0  3  0  0  0  0  0  0
  180.1040  179.2060  142.2000 F   0  0  0  0  0  0  0  0  0  0  0  0
  181.6100  178.4550  140.5110 C   0  0  0  0  0  3  0  0  0  0  0  0
  181.3410  178.7860  141.8430 C   0  0  0  0  0  0  0  0  0  0  0  0
  182.8870  178.0230  140.1420 C   0  0  0  0  0  3  0  0  0  0  0  0
  189.2730  173.8220  141.6460 C   0  0  1  0  0  3  0  0  0  0  0  0
  190.7480  173.7570  141.4530 N   0  0  0  0  0  0  0  0  0  0  0  0
  190.1350  173.3610  142.7300 C   0  0  2  0  0  3  0  0  0  0  0  0
  190.0670  171.5530  142.8260 S   0  0  0  0  0  0  0  0  0  0  0  0
  191.8750  171.4310  142.9640 C   0  0  0  0  0  1  0  0  0  0  0  0
  192.6280  174.7470  142.3150 C   0  0  0  0  0  1  0  0  0  0  0  0
  191.3510  175.0060  141.6750 N   0  0  0  0  0  2  0  0  0  0  0  0
  1 20  1  6  0  0  0
  1 10  1  0  0  0  0
  1 18  1  0  0  0  0
  2  5  1  6  0  0  0
  2  6  1  0  0  0  0
  2 16  1  0  0  0  0
  3  7  1  0  0  0  0
  4  8  1  1  0  0  0
  6  4  1  0  0  0  0
  7 19  1  0  0  0  0
  7  5  1  0  0  0  0
  9  6  1  0  0  0  0
 11 16  1  0  0  0  0
 12  8  1  0  0  0  0
 13  9  1  0  0  0  0
 13  1  1  0  0  0  0
 14 15  1  0  0  0  0
 15  3  1  0  0  0  0
 16 12  1  0  0  0  0
 17  9  1  0  0  0  0
 18  4  1  0  0  0  0
 19 23  1  0  0  0  0
 21 15  1  0  0  0  0
 21 22  1  0  0  0  0
 22 17  1  0  0  0  0
 23 11  1  0  0  0  0
 24 25  1  0  0  0  0
 25 26  2  0  0  0  0
 25 19  1  0  0  0  0
 28 29  2  0  0  0  0
 29 27  1  0  0  0  0
 29 26  1  0  0  0  0
 30 28  1  0  0  0  0
 30 24  2  0  0  0  0
 31 22  1  0  0  0  0
 31 33  1  0  0  0  0
 32 31  1  0  0  0  0
 32 37  1  0  0  0  0
 32 33  1  0  0  0  0
 33 34  1  0  0  0  0
 34 35  1  0  0  0  0
 37 36  1  0  0  0  0
M  END
>  <MODEL>
4

>  <REMARK>
 VINA RESULT:      -7.2      2.542      4.315
  Name = 
  4 active torsions:
  status: ('A' for Active; 'I' for Inactive)
    1  A    between atoms: C_1  and  C_27
    2  A    between atoms: N_4  and  N_37
    3  A    between atoms: S_8  and  C_12
    4  A    between atoms: C_23  and  C_30
                            x       y       z     vdW  Elec       q    Type
                         _______ _______ _______ _____ _____    ______ ____

>  <TORSDO>
F 4

$$$$
=
 OpenBabel11112417293D

 37 42  0  0  1  0  0  0  0  0999 V2000
  190.0720  176.2810  146.3550 C   0  0  1  0  0  0  0  0  0  0  0  0
  191.4850  175.6660  143.0040 C   0  0  1  0  0  3  0  0  0  0  0  0
  189.1670  174.3100  141.4720 O   0  0  0  0  0  0  0  0  0  0  0  0
  191.7770  177.1660  145.0680 C   0  0  2  0  0  3  0  0  0  0  0  0
  190.7610  174.3480  143.2760 C   0  0  0  0  0  2  0  0  0  0  0  0
  190.9850  176.9060  143.7880 C   0  0  2  0  0  3  0  0  0  0  0  0
  190.3440  173.7000  141.9470 C   0  0  2  0  0  3  0  0  0  0  0  0
  193.2730  177.1660  144.7830 C   0  0  0  0  0  2  0  0  0  0  0  0
  189.5010  176.8450  144.1770 C   0  0  2  0  0  3  0  0  0  0  0  0
  189.7000  177.5540  146.8150 O   0  0  0  0  0  1  0  0  0  0  0  0
  193.4220  174.0590  142.5340 C   0  0  0  0  0  2  0  0  0  0  0  0
  193.7070  175.8160  144.2280 C   0  0  0  0  0  2  0  0  0  0  0  0
  189.3080  175.9020  145.2230 O   0  0  0  0  0  0  0  0  0  0  0  0
  187.4410  172.6650  141.5180 C   0  0  0  0  0  1  0  0  0  0  0  0
  188.0910  173.8330  142.2350 C   0  0  2  0  0  3  0  0  0  0  0  0
  193.0200  175.4970  142.9010 C   0  0  2  0  0  3  0  0  0  0  0  0
  188.7200  176.5700  143.0270 O   0  0  0  0  0  0  0  0  0  0  0  0
  191.4610  176.2250  146.0720 O   0  0  0  0  0  0  0  0  0  0  0  0
  191.4230  173.8440  140.8450 C   0  0  1  0  0  3  0  0  0  0  0  0
  189.7840  175.2860  147.4590 C   0  0  0  0  0  1  0  0  0  0  0  0
  187.0600  174.9470  142.3870 C   0  0  0  0  0  2  0  0  0  0  0  0
  187.4850  176.0080  143.4020 C   0  0  2  0  0  3  0  0  0  0  0  0
  192.8820  173.5110  141.2070 C   0  0  0  0  0  2  0  0  0  0  0  0
  191.1140  173.7910  138.3640 C   0  0  0  0  0  3  0  0  0  0  0  0
  191.0210  173.1290  139.5930 C   0  0  0  0  0  0  0  0  0  0  0  0
  190.5430  171.8110  139.6390 C   0  0  0  0  0  3  0  0  0  0  0  0
  189.7000  169.8900  138.5070 F   0  0  0  0  0  0  0  0  0  0  0  0
  190.2560  171.8270  137.2340 C   0  0  0  0  0  3  0  0  0  0  0  0
  190.1620  171.1620  138.4610 C   0  0  0  0  0  0  0  0  0  0  0  0
  190.7320  173.1410  137.1860 C   0  0  0  0  0  3  0  0  0  0  0  0
  186.4110  177.0990  143.4710 C   0  0  1  0  0  3  0  0  0  0  0  0
  185.7630  177.2660  144.8010 N   0  0  0  0  0  0  0  0  0  0  0  0
  186.8340  178.1750  144.3630 C   0  0  2  0  0  3  0  0  0  0  0  0
  186.1040  179.7370  143.8100 S   0  0  0  0  0  0  0  0  0  0  0  0
  184.4380  179.2050  144.3060 C   0  0  0  0  0  1  0  0  0  0  0  0
  186.1760  177.0700  147.0490 C   0  0  0  0  0  1  0  0  0  0  0  0
  186.3350  176.4160  145.7630 N   0  0  0  0  0  2  0  0  0  0  0  0
  1 10  1  0  0  0  0
  1 20  1  1  0  0  0
  2  5  1  1  0  0  0
  2  6  1  0  0  0  0
  3  7  1  0  0  0  0
  3 15  1  0  0  0  0
  4  8  1  6  0  0  0
  4 18  1  0  0  0  0
  6  9  1  0  0  0  0
  6  4  1  0  0  0  0
  7  5  1  0  0  0  0
  9 13  1  0  0  0  0
 11 16  1  0  0  0  0
 12  8  1  0  0  0  0
 13  1  1  0  0  0  0
 14 15  1  0  0  0  0
 15 21  1  0  0  0  0
 16  2  1  0  0  0  0
 16 12  1  0  0  0  0
 17 22  1  0  0  0  0
 17  9  1  0  0  0  0
 18  1  1  0  0  0  0
 19 23  1  0  0  0  0
 19  7  1  0  0  0  0
 21 22  1  0  0  0  0
 22 31  1  0  0  0  0
 23 11  1  0  0  0  0
 24 25  1  0  0  0  0
 25 26  2  0  0  0  0
 25 19  1  0  0  0  0
 28 29  2  0  0  0  0
 29 27  1  0  0  0  0
 29 26  1  0  0  0  0
 30 28  1  0  0  0  0
 30 24  2  0  0  0  0
 31 33  1  0  0  0  0
 31 32  1  0  0  0  0
 32 37  1  0  0  0  0
 33 32  1  0  0  0  0
 34 35  1  0  0  0  0
 34 33  1  0  0  0  0
 37 36  1  0  0  0  0
M  END
>  <MODEL>
5

>  <REMARK>
 VINA RESULT:      -7.1      3.776      7.129
  Name = 
  4 active torsions:
  status: ('A' for Active; 'I' for Inactive)
    1  A    between atoms: C_1  and  C_27
    2  A    between atoms: N_4  and  N_37
    3  A    between atoms: S_8  and  C_12
    4  A    between atoms: C_23  and  C_30
                            x       y       z     vdW  Elec       q    Type
                         _______ _______ _______ _____ _____    ______ ____

>  <TORSDO>
F 4

$$$$
=
 OpenBabel11112417293D

 37 42  0  0  1  0  0  0  0  0999 V2000
  195.1430  173.4820  143.3240 C   0  0  1  0  0  0  0  0  0  0  0  0
  192.1850  175.3700  144.4590 C   0  0  1  0  0  3  0  0  0  0  0  0
  189.9330  174.4000  142.5760 O   0  0  0  0  0  0  0  0  0  0  0  0
  194.4740  174.5340  145.2700 C   0  0  2  0  0  3  0  0  0  0  0  0
  192.0530  175.4810  142.9410 C   0  0  0  0  0  2  0  0  0  0  0  0
  193.0150  174.1760  144.9970 C   0  0  2  0  0  3  0  0  0  0  0  0
  190.5750  175.6530  142.5590 C   0  0  2  0  0  3  0  0  0  0  0  0
  194.5680  175.7960  146.1190 C   0  0  0  0  0  2  0  0  0  0  0  0
  193.0140  172.9470  144.0770 C   0  0  2  0  0  3  0  0  0  0  0  0
  195.6990  172.4110  144.0420 O   0  0  0  0  0  1  0  0  0  0  0  0
  191.9470  177.9130  144.2790 C   0  0  0  0  0  2  0  0  0  0  0  0
  193.9230  176.9700  145.3960 C   0  0  0  0  0  2  0  0  0  0  0  0
  193.8120  173.1960  142.9280 O   0  0  0  0  0  0  0  0  0  0  0  0
  189.2870  173.8980  140.3360 C   0  0  0  0  0  1  0  0  0  0  0  0
  190.3220  173.6960  141.4270 C   0  0  2  0  0  3  0  0  0  0  0  0
  192.4340  176.7360  145.1410 C   0  0  2  0  0  3  0  0  0  0  0  0
  191.6780  172.5910  143.7620 O   0  0  0  0  0  0  0  0  0  0  0  0
  195.2030  174.6860  144.0710 O   0  0  0  0  0  0  0  0  0  0  0  0
  189.8090  176.5850  143.5300 C   0  0  1  0  0  3  0  0  0  0  0  0
  195.9660  173.6750  142.0680 C   0  0  0  0  0  1  0  0  0  0  0  0
  190.3960  172.2090  141.7600 C   0  0  0  0  0  2  0  0  0  0  0  0
  191.6430  171.8480  142.5660 C   0  0  2  0  0  3  0  0  0  0  0  0
  190.4570  177.9280  143.9140 C   0  0  0  0  0  2  0  0  0  0  0  0
  187.3470  176.5060  143.9560 C   0  0  0  0  0  3  0  0  0  0  0  0
  188.3980  176.7990  143.0800 C   0  0  0  0  0  0  0  0  0  0  0  0
  188.1170  177.2760  141.7920 C   0  0  0  0  0  3  0  0  0  0  0  0
  186.5230  177.9190  140.1390 F   0  0  0  0  0  0  0  0  0  0  0  0
  185.7450  177.1650  142.2630 C   0  0  0  0  0  3  0  0  0  0  0  0
  186.7920  177.4590  141.3850 C   0  0  0  0  0  0  0  0  0  0  0  0
  186.0210  176.6900  143.5480 C   0  0  0  0  0  3  0  0  0  0  0  0
  191.6240  170.3490  142.8810 C   0  0  1  0  0  3  0  0  0  0  0  0
  192.3410  169.4880  141.9000 N   0  0  0  0  0  0  0  0  0  0  0  0
  192.9740  169.8720  143.1720 C   0  0  2  0  0  3  0  0  0  0  0  0
  192.8840  168.4810  144.3290 S   0  0  0  0  0  0  0  0  0  0  0  0
  194.1870  169.1920  145.3790 C   0  0  0  0  0  1  0  0  0  0  0  0
  193.8880  169.3720  140.2110 C   0  0  0  0  0  1  0  0  0  0  0  0
  192.9640  170.2540  140.9010 N   0  0  0  0  0  2  0  0  0  0  0  0
  1 20  1  6  0  0  0
  1 10  1  0  0  0  0
  1 18  1  0  0  0  0
  2  5  1  6  0  0  0
  2  6  1  0  0  0  0
  2 16  1  0  0  0  0
  4  8  1  6  0  0  0
  6  4  1  0  0  0  0
  7  3  1  0  0  0  0
  7  5  1  0  0  0  0
  7 19  1  0  0  0  0
  9  6  1  0  0  0  0
 11 16  1  0  0  0  0
 12  8  1  0  0  0  0
 13  1  1  0  0  0  0
 13  9  1  0  0  0  0
 14 15  1  0  0  0  0
 15 21  1  0  0  0  0
 15  3  1  0  0  0  0
 16 12  1  0  0  0  0
 17  9  1  0  0  0  0
 18  4  1  0  0  0  0
 19 23  1  0  0  0  0
 21 22  1  0  0  0  0
 22 31  1  0  0  0  0
 22 17  1  0  0  0  0
 23 11  1  0  0  0  0
 25 19  1  0  0  0  0
 25 24  2  0  0  0  0
 26 25  1  0  0  0  0
 27 29  1  0  0  0  0
 28 30  2  0  0  0  0
 29 26  2  0  0  0  0
 29 28  1  0  0  0  0
 30 24  1  0  0  0  0
 31 33  1  0  0  0  0
 32 31  1  0  0  0  0
 32 33  1  0  0  0  0
 33 34  1  0  0  0  0
 34 35  1  0  0  0  0
 36 37  1  0  0  0  0
 37 32  1  0  0  0  0
M  END
>  <MODEL>
6

>  <REMARK>
 VINA RESULT:      -7.0      2.440      3.332
  Name = 
  4 active torsions:
  status: ('A' for Active; 'I' for Inactive)
    1  A    between atoms: C_1  and  C_27
    2  A    between atoms: N_4  and  N_37
    3  A    between atoms: S_8  and  C_12
    4  A    between atoms: C_23  and  C_30
                            x       y       z     vdW  Elec       q    Type
                         _______ _______ _______ _____ _____    ______ ____

>  <TORSDO>
F 4

$$$$
=
 OpenBabel11112417293D

 37 42  0  0  1  0  0  0  0  0999 V2000
  194.0370  176.2640  145.9380 C   0  0  1  0  0  0  0  0  0  0  0  0
  191.1040  174.5840  144.4630 C   0  0  1  0  0  3  0  0  0  0  0  0
  192.0470  173.8340  141.6160 O   0  0  0  0  0  0  0  0  0  0  0  0
  192.1700  175.1530  146.7290 C   0  0  2  0  0  3  0  0  0  0  0  0
  191.5580  175.4750  143.3080 C   0  0  0  0  0  2  0  0  0  0  0  0
  192.1780  174.2200  145.5200 C   0  0  2  0  0  3  0  0  0  0  0  0
  191.1370  174.8470  141.9700 C   0  0  2  0  0  3  0  0  0  0  0  0
  190.7610  175.2950  147.2890 C   0  0  0  0  0  2  0  0  0  0  0  0
  193.6120  174.1960  144.9740 C   0  0  2  0  0  3  0  0  0  0  0  0
  194.8550  175.6750  146.9150 O   0  0  0  0  0  1  0  0  0  0  0  0
  188.8750  175.7460  143.9770 C   0  0  0  0  0  2  0  0  0  0  0  0
  189.8280  175.8800  146.2380 C   0  0  0  0  0  2  0  0  0  0  0  0
  194.0650  175.5210  144.7310 O   0  0  0  0  0  0  0  0  0  0  0  0
  193.1740  174.5450  139.6380 C   0  0  0  0  0  1  0  0  0  0  0  0
  193.2210  174.4460  141.1510 C   0  0  2  0  0  3  0  0  0  0  0  0
  189.7110  174.9750  145.0110 C   0  0  2  0  0  3  0  0  0  0  0  0
  193.6690  173.3680  143.8250 O   0  0  0  0  0  0  0  0  0  0  0  0
  192.7080  176.4180  146.4080 O   0  0  0  0  0  0  0  0  0  0  0  0
  189.7250  174.2090  142.0240 C   0  0  1  0  0  3  0  0  0  0  0  0
  194.5870  177.6440  145.6430 C   0  0  0  0  0  1  0  0  0  0  0  0
  194.4180  173.5870  141.5470 C   0  0  0  0  0  2  0  0  0  0  0  0
  194.7740  173.7210  143.0270 C   0  0  2  0  0  3  0  0  0  0  0  0
  188.5820  175.0260  142.6540 C   0  0  0  0  0  2  0  0  0  0  0  0
  189.6920  172.3920  140.3080 C   0  0  0  0  0  3  0  0  0  0  0  0
  189.3130  173.6850  140.6850 C   0  0  0  0  0  0  0  0  0  0  0  0
  188.5660  174.4760  139.8000 C   0  0  0  0  0  3  0  0  0  0  0  0
  187.4780  174.7390  137.6950 F   0  0  0  0  0  0  0  0  0  0  0  0
  188.5790  172.6800  138.1760 C   0  0  0  0  0  3  0  0  0  0  0  0
  188.1990  173.9730  138.5490 C   0  0  0  0  0  0  0  0  0  0  0  0
  189.3240  171.8890  139.0560 C   0  0  0  0  0  3  0  0  0  0  0  0
  195.9630  172.8070  143.3440 C   0  0  1  0  0  3  0  0  0  0  0  0
  197.2120  173.5110  143.7440 N   0  0  0  0  0  0  0  0  0  0  0  0
  196.3250  172.9130  144.7540 C   0  0  2  0  0  3  0  0  0  0  0  0
  197.0290  171.3410  145.3150 S   0  0  0  0  0  0  0  0  0  0  0  0
  195.3790  170.6280  145.5850 C   0  0  0  0  0  1  0  0  0  0  0  0
  197.9350  175.5040  142.8690 C   0  0  0  0  0  1  0  0  0  0  0  0
  197.0190  174.9000  143.8200 N   0  0  0  0  0  2  0  0  0  0  0  0
  1 20  1  6  0  0  0
  1 18  1  0  0  0  0
  1 10  1  0  0  0  0
  2  5  1  1  0  0  0
  2 16  1  0  0  0  0
  2  6  1  0  0  0  0
  3  7  1  0  0  0  0
  4  8  1  6  0  0  0
  6  4  1  0  0  0  0
  7 19  1  0  0  0  0
  7  5  1  0  0  0  0
  9  6  1  0  0  0  0
 11 16  1  0  0  0  0
 12  8  1  0  0  0  0
 13  9  1  0  0  0  0
 13  1  1  0  0  0  0
 14 15  1  0  0  0  0
 15 21  1  0  0  0  0
 15  3  1  0  0  0  0
 16 12  1  0  0  0  0
 17  9  1  0  0  0  0
 18  4  1  0  0  0  0
 19 23  1  0  0  0  0
 21 22  1  0  0  0  0
 22 31  1  0  0  0  0
 22 17  1  0  0  0  0
 23 11  1  0  0  0  0
 24 25  1  0  0  0  0
 25 19  1  0  0  0  0
 26 25  2  0  0  0  0
 27 29  1  0  0  0  0
 28 29  2  0  0  0  0
 28 30  1  0  0  0  0
 29 26  1  0  0  0  0
 30 24  2  0  0  0  0
 31 32  1  0  0  0  0
 31 33  1  0  0  0  0
 32 37  1  0  0  0  0
 32 33  1  0  0  0  0
 33 34  1  0  0  0  0
 34 35  1  0  0  0  0
 36 37  1  0  0  0  0
M  END
>  <MODEL>
7

>  <REMARK>
 VINA RESULT:      -6.7      3.646      6.010
  Name = 
  4 active torsions:
  status: ('A' for Active; 'I' for Inactive)
    1  A    between atoms: C_1  and  C_27
    2  A    between atoms: N_4  and  N_37
    3  A    between atoms: S_8  and  C_12
    4  A    between atoms: C_23  and  C_30
                            x       y       z     vdW  Elec       q    Type
                         _______ _______ _______ _____ _____    ______ ____

>  <TORSDO>
F 4

$$$$
=
 OpenBabel11112417293D

 37 42  0  0  1  0  0  0  0  0999 V2000
  187.6790  176.2110  141.8260 C   0  0  1  0  0  0  0  0  0  0  0  0
  190.3520  173.8120  142.6600 C   0  0  1  0  0  3  0  0  0  0  0  0
  192.1890  175.4020  144.5730 O   0  0  0  0  0  0  0  0  0  0  0  0
  187.9190  173.9120  141.8430 C   0  0  2  0  0  3  0  0  0  0  0  0
  191.1540  175.0910  142.4220 C   0  0  0  0  0  2  0  0  0  0  0  0
  188.8610  173.9910  143.0440 C   0  0  2  0  0  3  0  0  0  0  0  0
  192.4550  175.0480  143.2370 C   0  0  2  0  0  3  0  0  0  0  0  0
  188.2100  172.6680  141.0140 C   0  0  0  0  0  2  0  0  0  0  0  0
  188.5550  175.3050  143.7750 C   0  0  2  0  0  3  0  0  0  0  0  0
  186.3730  176.1220  142.3340 O   0  0  0  0  0  1  0  0  0  0  0  0
  192.0410  172.8950  140.9680 C   0  0  0  0  0  2  0  0  0  0  0  0
  189.6390  172.7000  140.4890 C   0  0  0  0  0  2  0  0  0  0  0  0
  188.6220  176.3970  142.8670 O   0  0  0  0  0  0  0  0  0  0  0  0
  193.3120  177.4610  145.0040 C   0  0  0  0  0  1  0  0  0  0  0  0
  192.0040  176.7910  144.6270 C   0  0  2  0  0  3  0  0  0  0  0  0
  190.6630  172.7060  141.6240 C   0  0  2  0  0  3  0  0  0  0  0  0
  189.4280  175.4460  144.8830 O   0  0  0  0  0  0  0  0  0  0  0  0
  188.0030  175.0730  141.0440 O   0  0  0  0  0  0  0  0  0  0  0  0
  193.1120  173.6440  143.2460 C   0  0  1  0  0  3  0  0  0  0  0  0
  187.7430  177.4260  140.9240 C   0  0  0  0  0  1  0  0  0  0  0  0
  190.9650  177.1100  145.6970 C   0  0  0  0  0  2  0  0  0  0  0  0
  189.5380  176.8020  145.2430 C   0  0  2  0  0  3  0  0  0  0  0  0
  193.2550  172.8990  141.9070 C   0  0  0  0  0  2  0  0  0  0  0  0
  194.6070  172.8010  145.0630 C   0  0  0  0  0  3  0  0  0  0  0  0
  194.4190  173.6590  143.9750 C   0  0  0  0  0  0  0  0  0  0  0  0
  195.4490  174.5290  143.5890 C   0  0  0  0  0  3  0  0  0  0  0  0
  197.6520  175.3790  143.9140 F   0  0  0  0  0  0  0  0  0  0  0  0
  196.8440  173.6780  145.3760 C   0  0  0  0  0  3  0  0  0  0  0  0
  196.6590  174.5370  144.2880 C   0  0  0  0  0  0  0  0  0  0  0  0
  195.8190  172.8100  145.7630 C   0  0  0  0  0  3  0  0  0  0  0  0
  188.5660  177.1240  146.3830 C   0  0  1  0  0  3  0  0  0  0  0  0
  187.4510  178.0430  146.0240 N   0  0  0  0  0  0  0  0  0  0  0  0
  187.2400  176.5890  146.0880 C   0  0  2  0  0  3  0  0  0  0  0  0
  186.3990  176.1740  147.6380 S   0  0  0  0  0  0  0  0  0  0  0  0
  185.9420  177.9100  147.9250 C   0  0  0  0  0  1  0  0  0  0  0  0
  186.1710  178.9130  144.3310 C   0  0  0  0  0  1  0  0  0  0  0  0
  187.4810  178.3790  144.6600 N   0  0  0  0  0  2  0  0  0  0  0  0
  1 20  1  6  0  0  0
  1 10  1  0  0  0  0
  1 13  1  0  0  0  0
  2  5  1  6  0  0  0
  2  6  1  0  0  0  0
  3 15  1  0  0  0  0
  4  8  1  6  0  0  0
  4  6  1  0  0  0  0
  5  7  1  0  0  0  0
  6  9  1  0  0  0  0
  7 19  1  0  0  0  0
  7  3  1  0  0  0  0
  9 17  1  0  0  0  0
 11 16  1  0  0  0  0
 11 23  1  0  0  0  0
 12  8  1  0  0  0  0
 12 16  1  0  0  0  0
 13  9  1  0  0  0  0
 15 14  1  0  0  0  0
 15 21  1  0  0  0  0
 16  2  1  0  0  0  0
 17 22  1  0  0  0  0
 18  1  1  0  0  0  0
 18  4  1  0  0  0  0
 19 25  1  0  0  0  0
 22 21  1  0  0  0  0
 22 31  1  0  0  0  0
 23 19  1  0  0  0  0
 24 30  1  0  0  0  0
 25 24  2  0  0  0  0
 26 25  1  0  0  0  0
 26 29  2  0  0  0  0
 27 29  1  0  0  0  0
 28 30  2  0  0  0  0
 29 28  1  0  0  0  0
 32 33  1  0  0  0  0
 32 31  1  0  0  0  0
 33 31  1  0  0  0  0
 33 34  1  0  0  0  0
 34 35  1  0  0  0  0
 36 37  1  0  0  0  0
 37 32  1  0  0  0  0
M  END
>  <MODEL>
8

>  <REMARK>
 VINA RESULT:      -6.7      3.821      7.710
  Name = 
  4 active torsions:
  status: ('A' for Active; 'I' for Inactive)
    1  A    between atoms: C_1  and  C_27
    2  A    between atoms: N_4  and  N_37
    3  A    between atoms: S_8  and  C_12
    4  A    between atoms: C_23  and  C_30
                            x       y       z     vdW  Elec       q    Type
                         _______ _______ _______ _____ _____    ______ ____

>  <TORSDO>
F 4

$$$$
=
 OpenBabel11112417293D

 37 42  0  0  1  0  0  0  0  0999 V2000
  193.6600  174.0140  138.9970 C   0  0  1  0  0  0  0  0  0  0  0  0
  192.8370  174.1260  142.5910 C   0  0  1  0  0  3  0  0  0  0  0  0
  189.8060  174.7340  142.6270 O   0  0  0  0  0  0  0  0  0  0  0  0
  194.5620  173.1640  140.9480 C   0  0  2  0  0  3  0  0  0  0  0  0
  192.0680  175.3360  142.0640 C   0  0  0  0  0  2  0  0  0  0  0  0
  193.1700  173.0160  141.5610 C   0  0  2  0  0  3  0  0  0  0  0  0
  190.8530  175.6120  142.9640 C   0  0  2  0  0  3  0  0  0  0  0  0
  195.6110  173.3450  142.0380 C   0  0  0  0  0  2  0  0  0  0  0  0
  192.1710  172.9170  140.4000 C   0  0  2  0  0  3  0  0  0  0  0  0
  193.9300  172.8250  138.3020 O   0  0  0  0  0  1  0  0  0  0  0  0
  193.7350  175.8880  144.2170 C   0  0  0  0  0  2  0  0  0  0  0  0
  195.3200  174.5990  142.8520 C   0  0  0  0  0  2  0  0  0  0  0  0
  192.3400  174.0160  139.5150 O   0  0  0  0  0  0  0  0  0  0  0  0
  188.0270  176.0510  141.7390 C   0  0  0  0  0  1  0  0  0  0  0  0
  189.2310  175.1810  141.4280 C   0  0  2  0  0  3  0  0  0  0  0  0
  193.9720  174.5140  143.5670 C   0  0  2  0  0  3  0  0  0  0  0  0
  190.8540  172.8120  140.9150 O   0  0  0  0  0  0  0  0  0  0  0  0
  194.6100  174.2320  140.0280 O   0  0  0  0  0  0  0  0  0  0  0  0
  191.1640  175.4140  144.4690 C   0  0  1  0  0  3  0  0  0  0  0  0
  193.7710  175.1600  138.0140 C   0  0  0  0  0  1  0  0  0  0  0  0
  188.7650  173.9730  140.6210 C   0  0  0  0  0  2  0  0  0  0  0  0
  189.9220  173.2350  139.9480 C   0  0  2  0  0  3  0  0  0  0  0  0
  192.4470  176.0480  145.0360 C   0  0  0  0  0  2  0  0  0  0  0  0
  189.6670  174.9750  146.4220 C   0  0  0  0  0  3  0  0  0  0  0  0
  189.9860  175.7740  145.3190 C   0  0  0  0  0  0  0  0  0  0  0  0
  189.1950  176.8920  145.0180 C   0  0  0  0  0  3  0  0  0  0  0  0
  187.3290  178.2870  145.5250 F   0  0  0  0  0  0  0  0  0  0  0  0
  187.7770  176.4050  146.9190 C   0  0  0  0  0  3  0  0  0  0  0  0
  188.0930  177.2070  145.8180 C   0  0  0  0  0  0  0  0  0  0  0  0
  188.5630  175.2900  147.2210 C   0  0  0  0  0  3  0  0  0  0  0  0
  189.3710  172.0240  139.1860 C   0  0  1  0  0  3  0  0  0  0  0  0
  189.3470  172.1670  137.7040 N   0  0  0  0  0  0  0  0  0  0  0  0
  190.4190  171.4140  138.3740 C   0  0  2  0  0  3  0  0  0  0  0  0
  190.0960  169.6390  138.2090 S   0  0  0  0  0  0  0  0  0  0  0  0
  191.7230  169.2170  138.9030 C   0  0  0  0  0  1  0  0  0  0  0  0
  190.8000  173.0830  136.1850 C   0  0  0  0  0  1  0  0  0  0  0  0
  189.9150  173.3850  137.2950 N   0  0  0  0  0  2  0  0  0  0  0  0
  1 20  1  6  0  0  0
  1 13  1  0  0  0  0
  1 18  1  0  0  0  0
  2  5  1  6  0  0  0
  2 16  1  0  0  0  0
  3  7  1  0  0  0  0
  4  6  1  0  0  0  0
  4  8  1  1  0  0  0
  5  7  1  0  0  0  0
  6  2  1  0  0  0  0
  7 19  1  0  0  0  0
  8 12  1  0  0  0  0
  9 17  1  0  0  0  0
  9  6  1  0  0  0  0
 10  1  1  0  0  0  0
 11 23  1  0  0  0  0
 12 16  1  0  0  0  0
 13  9  1  0  0  0  0
 15 14  1  0  0  0  0
 15  3  1  0  0  0  0
 16 11  1  0  0  0  0
 18  4  1  0  0  0  0
 19 23  1  0  0  0  0
 19 25  1  0  0  0  0
 21 15  1  0  0  0  0
 22 21  1  0  0  0  0
 22 17  1  0  0  0  0
 24 30  1  0  0  0  0
 25 24  2  0  0  0  0
 26 25  1  0  0  0  0
 26 29  2  0  0  0  0
 27 29  1  0  0  0  0
 28 30  2  0  0  0  0
 29 28  1  0  0  0  0
 31 22  1  0  0  0  0
 32 33  1  0  0  0  0
 32 31  1  0  0  0  0
 33 31  1  0  0  0  0
 34 33  1  0  0  0  0
 34 35  1  0  0  0  0
 36 37  1  0  0  0  0
 37 32  1  0  0  0  0
M  END
>  <MODEL>
9

>  <REMARK>
 VINA RESULT:      -6.6      2.016      3.158
  Name = 
  4 active torsions:
  status: ('A' for Active; 'I' for Inactive)
    1  A    between atoms: C_1  and  C_27
    2  A    between atoms: N_4  and  N_37
    3  A    between atoms: S_8  and  C_12
    4  A    between atoms: C_23  and  C_30
                            x       y       z     vdW  Elec       q    Type
                         _______ _______ _______ _____ _____    ______ ____

>  <TORSDO>
F 4

$$$$
