=
 OpenBabel11112416453D

 31 35  0  0  1  0  0  0  0  0999 V2000
  185.9160  178.0460  140.9010 C   0  0  0  0  0  0  0  0  0  0  0  0
  188.0380  177.8440  144.0020 N   0  0  0  0  0  0  0  0  0  0  0  0
  187.1740  177.8560  145.1610 C   0  0  0  0  0  0  0  0  0  0  0  0
  190.9990  173.8650  142.4860 O   0  0  0  0  0  0  0  0  0  0  0  0
  191.6650  174.5220  143.3330 C   0  0  0  0  0  0  0  0  0  0  0  0
  185.0450  178.3080  146.2470 C   0  0  0  0  0  0  0  0  0  0  0  0
  187.5260  177.6400  142.6700 C   0  0  0  0  0  0  0  0  0  0  0  0
  186.5990  177.1510  140.0710 C   0  0  0  0  0  3  0  0  0  0  0  0
  185.8510  178.3230  145.1030 C   0  0  0  0  0  3  0  0  0  0  0  0
  189.9710  176.4220  143.4280 C   0  0  0  0  0  0  0  0  0  0  0  0
  184.8060  178.6770  140.4490 F   0  0  0  0  0  0  0  0  0  0  0  0
  189.0600  176.8400  146.4110 C   0  0  0  0  0  2  0  0  0  0  0  0
  183.6460  178.8040  146.1740 C   0  0  0  0  0  1  0  0  0  0  0  0
  189.3880  176.0800  142.3120 N   0  0  0  0  0  0  0  0  0  0  0  0
  189.4940  177.6500  144.1690 C   0  0  2  0  0  3  0  0  0  0  0  0
  191.1630  175.7530  143.8620 N   0  0  0  0  0  2  0  0  0  0  0  0
  186.3770  178.2900  142.1990 C   0  0  0  0  0  3  0  0  0  0  0  0
  185.5520  177.8200  147.4540 C   0  0  0  0  0  3  0  0  0  0  0  0
  188.2160  176.7500  141.8270 C   0  0  0  0  0  0  0  0  0  0  0  0
  187.7470  176.5020  140.5340 C   0  0  0  0  0  3  0  0  0  0  0  0
  189.9270  177.6720  145.5780 N   0  0  0  0  0  2  0  0  0  0  0  0
  187.6740  177.3800  146.3790 C   0  0  0  0  0  0  0  0  0  0  0  0
  186.8680  177.3510  147.5200 C   0  0  0  0  0  3  0  0  0  0  0  0
  194.1590  175.7500  145.9020 C   0  0  1  0  0  3  0  0  0  0  0  0
  192.9120  173.6390  145.3460 C   0  0  0  0  0  2  0  0  0  0  0  0
  194.1930  175.2670  142.2010 O   0  0  0  0  0  1  0  0  0  0  0  0
  194.1430  176.8950  146.6950 O   0  0  0  0  0  1  0  0  0  0  0  0
  192.9330  174.8950  146.2180 C   0  0  0  0  0  2  0  0  0  0  0  0
  194.1680  174.9040  143.5500 C   0  0  2  0  0  3  0  0  0  0  0  0
  192.9720  173.9880  143.8530 C   0  0  2  0  0  3  0  0  0  0  0  0
  194.1610  176.1520  144.4310 C   0  0  0  0  0  2  0  0  0  0  0  0
  1 17  1  0  0  0  0
  2 15  1  0  0  0  0
  2  3  1  0  0  0  0
  3 22  1  0  0  0  0
  4  5  2  0  0  0  0
  5 16  1  0  0  0  0
  6 18  2  0  0  0  0
  7  2  1  0  0  0  0
  8 20  1  0  0  0  0
  8  1  2  0  0  0  0
  9  3  2  0  0  0  0
  9  6  1  0  0  0  0
 10 16  1  0  0  0  0
 11  1  1  0  0  0  0
 13  6  1  0  0  0  0
 14 10  2  0  0  0  0
 15 10  1  1  0  0  0
 15 21  1  0  0  0  0
 17  7  2  0  0  0  0
 18 23  1  0  0  0  0
 19 14  1  0  0  0  0
 19  7  1  0  0  0  0
 20 19  2  0  0  0  0
 21 12  1  0  0  0  0
 22 12  1  0  0  0  0
 22 23  2  0  0  0  0
 24 28  1  0  0  0  0
 24 27  1  1  0  0  0
 25 28  1  0  0  0  0
 29 26  1  6  0  0  0
 29 30  1  0  0  0  0
 29 31  1  0  0  0  0
 30  5  1  1  0  0  0
 30 25  1  0  0  0  0
 31 24  1  0  0  0  0
M  END
>  <MODEL>
1

>  <REMARK>
 VINA RESULT:      -9.5      0.000      0.000
  Name = 
  1 active torsions:
  status: ('A' for Active; 'I' for Inactive)
    1  A    between atoms: C_5  and  C_30
                            x       y       z     vdW  Elec       q    Type
                         _______ _______ _______ _____ _____    ______ ____

>  <TORSDO>
F 1

$$$$
=
 OpenBabel11112416453D

 31 35  0  0  1  0  0  0  0  0999 V2000
  185.1780  177.9880  146.9380 C   0  0  0  0  0  0  0  0  0  0  0  0
  186.5950  176.6270  143.7290 N   0  0  0  0  0  0  0  0  0  0  0  0
  185.8390  177.1630  142.6200 C   0  0  0  0  0  0  0  0  0  0  0  0
  191.5770  177.6410  144.7560 O   0  0  0  0  0  0  0  0  0  0  0  0
  191.5550  176.6830  143.9360 C   0  0  0  0  0  0  0  0  0  0  0  0
  183.8600  178.2220  141.6830 C   0  0  0  0  0  0  0  0  0  0  0  0
  186.4760  177.1600  145.0630 C   0  0  0  0  0  0  0  0  0  0  0  0
  186.3560  178.2200  147.6550 C   0  0  0  0  0  3  0  0  0  0  0  0
  184.5530  177.7040  142.7820 C   0  0  0  0  0  3  0  0  0  0  0  0
  189.0270  176.4050  144.0850 C   0  0  0  0  0  0  0  0  0  0  0  0
  183.9780  178.2770  147.4960 F   0  0  0  0  0  0  0  0  0  0  0  0
  187.7970  176.6170  141.1970 C   0  0  0  0  0  2  0  0  0  0  0  0
  182.5000  178.7920  141.8660 C   0  0  0  0  0  1  0  0  0  0  0  0
  188.9260  177.0810  145.1960 N   0  0  0  0  0  0  0  0  0  0  0  0
  187.7880  175.7910  143.4740 C   0  0  2  0  0  3  0  0  0  0  0  0
  190.3150  176.0900  143.5370 N   0  0  0  0  0  2  0  0  0  0  0  0
  185.2360  177.4610  145.6440 C   0  0  0  0  0  3  0  0  0  0  0  0
  184.4480  178.2080  140.4150 C   0  0  0  0  0  3  0  0  0  0  0  0
  187.6570  177.3830  145.7930 C   0  0  0  0  0  0  0  0  0  0  0  0
  187.5960  177.9190  147.0830 C   0  0  0  0  0  3  0  0  0  0  0  0
  187.9630  175.4430  142.0530 N   0  0  0  0  0  2  0  0  0  0  0  0
  186.4130  177.1460  141.3430 C   0  0  0  0  0  0  0  0  0  0  0  0
  185.7280  177.6730  140.2450 C   0  0  0  0  0  3  0  0  0  0  0  0
  193.5760  173.5000  144.2700 C   0  0  1  0  0  3  0  0  0  0  0  0
  192.6140  174.9380  142.4470 C   0  0  0  0  0  2  0  0  0  0  0  0
  194.1250  177.0870  145.1440 O   0  0  0  0  0  1  0  0  0  0  0  0
  193.3520  172.3710  145.0540 O   0  0  0  0  0  1  0  0  0  0  0  0
  192.4060  173.6910  143.3080 C   0  0  0  0  0  2  0  0  0  0  0  0
  193.9630  175.9690  144.3230 C   0  0  2  0  0  3  0  0  0  0  0  0
  192.8290  176.1890  143.3080 C   0  0  2  0  0  3  0  0  0  0  0  0
  193.7270  174.7220  145.1720 C   0  0  0  0  0  2  0  0  0  0  0  0
  1 11  1  0  0  0  0
  1  8  1  0  0  0  0
  2  7  1  0  0  0  0
  3  9  1  0  0  0  0
  3  2  1  0  0  0  0
  5  4  2  0  0  0  0
  6 13  1  0  0  0  0
  6  9  2  0  0  0  0
  7 17  1  0  0  0  0
  7 19  2  0  0  0  0
 10 14  2  0  0  0  0
 12 22  1  0  0  0  0
 12 21  1  0  0  0  0
 14 19  1  0  0  0  0
 15 21  1  6  0  0  0
 15  2  1  0  0  0  0
 15 10  1  0  0  0  0
 16  5  1  0  0  0  0
 16 10  1  0  0  0  0
 17  1  2  0  0  0  0
 18  6  1  0  0  0  0
 19 20  1  0  0  0  0
 20  8  2  0  0  0  0
 22  3  2  0  0  0  0
 23 18  2  0  0  0  0
 23 22  1  0  0  0  0
 24 27  1  1  0  0  0
 24 31  1  0  0  0  0
 25 30  1  0  0  0  0
 25 28  1  0  0  0  0
 28 24  1  0  0  0  0
 29 26  1  1  0  0  0
 29 31  1  0  0  0  0
 30  5  1  1  0  0  0
 30 29  1  0  0  0  0
M  END
>  <MODEL>
2

>  <REMARK>
 VINA RESULT:      -9.0      2.095      4.363
  Name = 
  1 active torsions:
  status: ('A' for Active; 'I' for Inactive)
    1  A    between atoms: C_5  and  C_30
                            x       y       z     vdW  Elec       q    Type
                         _______ _______ _______ _____ _____    ______ ____

>  <TORSDO>
F 1

$$$$
=
 OpenBabel11112416453D

 31 35  0  0  1  0  0  0  0  0999 V2000
  184.5630  178.5120  146.2890 C   0  0  0  0  0  0  0  0  0  0  0  0
  186.8070  176.4160  144.1140 N   0  0  0  0  0  0  0  0  0  0  0  0
  186.6340  176.8200  142.7380 C   0  0  0  0  0  0  0  0  0  0  0  0
  191.1330  177.0040  146.9140 O   0  0  0  0  0  0  0  0  0  0  0  0
  191.2460  175.9190  146.2800 C   0  0  0  0  0  0  0  0  0  0  0  0
  185.3810  177.9130  140.9630 C   0  0  0  0  0  0  0  0  0  0  0  0
  186.2950  177.1990  145.2110 C   0  0  0  0  0  0  0  0  0  0  0  0
  185.4070  178.7320  147.3830 C   0  0  0  0  0  3  0  0  0  0  0  0
  185.5040  177.5310  142.3030 C   0  0  0  0  0  3  0  0  0  0  0  0
  188.8420  175.9760  145.4390 C   0  0  0  0  0  0  0  0  0  0  0  0
  183.3160  179.0410  146.2800 F   0  0  0  0  0  0  0  0  0  0  0  0
  188.8470  175.7890  142.2980 C   0  0  0  0  0  2  0  0  0  0  0  0
  184.1810  178.6660  140.5130 C   0  0  0  0  0  1  0  0  0  0  0  0
  188.4570  176.8560  146.3230 N   0  0  0  0  0  0  0  0  0  0  0  0
  187.8340  175.4110  144.4660 C   0  0  2  0  0  3  0  0  0  0  0  0
  190.1600  175.4140  145.4970 N   0  0  0  0  0  2  0  0  0  0  0  0
  185.0060  177.7490  145.2040 C   0  0  0  0  0  3  0  0  0  0  0  0
  186.3890  177.5930  140.0490 C   0  0  0  0  0  3  0  0  0  0  0  0
  187.1350  177.4130  146.3190 C   0  0  0  0  0  0  0  0  0  0  0  0
  186.6930  178.1840  147.3970 C   0  0  0  0  0  3  0  0  0  0  0  0
  188.4620  174.7850  143.2890 N   0  0  0  0  0  2  0  0  0  0  0  0
  187.6320  176.4970  141.8100 C   0  0  0  0  0  0  0  0  0  0  0  0
  187.5190  176.8870  140.4740 C   0  0  0  0  0  3  0  0  0  0  0  0
  194.1830  175.7600  143.8980 C   0  0  1  0  0  3  0  0  0  0  0  0
  193.7650  176.1000  146.3530 C   0  0  0  0  0  2  0  0  0  0  0  0
  191.5530  173.3610  145.0190 O   0  0  0  0  0  1  0  0  0  0  0  0
  194.3950  176.4160  142.6870 O   0  0  0  0  0  1  0  0  0  0  0  0
  194.0220  176.7910  145.0120 C   0  0  0  0  0  2  0  0  0  0  0  0
  192.6830  174.1750  145.1170 C   0  0  2  0  0  3  0  0  0  0  0  0
  192.5490  175.1680  146.2830 C   0  0  2  0  0  3  0  0  0  0  0  0
  192.9320  174.8920  143.7910 C   0  0  0  0  0  2  0  0  0  0  0  0
  1  8  1  0  0  0  0
  2 15  1  0  0  0  0
  2  7  1  0  0  0  0
  3  2  1  0  0  0  0
  5  4  2  0  0  0  0
  6  9  2  0  0  0  0
  7 19  2  0  0  0  0
  8 20  2  0  0  0  0
  9  3  1  0  0  0  0
 10 16  1  0  0  0  0
 10 14  2  0  0  0  0
 11  1  1  0  0  0  0
 12 21  1  0  0  0  0
 13  6  1  0  0  0  0
 15 21  1  6  0  0  0
 15 10  1  0  0  0  0
 16  5  1  0  0  0  0
 17  7  1  0  0  0  0
 17  1  2  0  0  0  0
 18 23  2  0  0  0  0
 18  6  1  0  0  0  0
 19 14  1  0  0  0  0
 19 20  1  0  0  0  0
 22 12  1  0  0  0  0
 22  3  2  0  0  0  0
 23 22  1  0  0  0  0
 24 27  1  6  0  0  0
 24 28  1  0  0  0  0
 28 25  1  0  0  0  0
 29 26  1  6  0  0  0
 29 30  1  0  0  0  0
 30  5  1  6  0  0  0
 30 25  1  0  0  0  0
 31 24  1  0  0  0  0
 31 29  1  0  0  0  0
M  END
>  <MODEL>
3

>  <REMARK>
 VINA RESULT:      -8.8      1.771      4.408
  Name = 
  1 active torsions:
  status: ('A' for Active; 'I' for Inactive)
    1  A    between atoms: C_5  and  C_30
                            x       y       z     vdW  Elec       q    Type
                         _______ _______ _______ _____ _____    ______ ____

>  <TORSDO>
F 1

$$$$
=
 OpenBabel11112416453D

 31 35  0  0  1  0  0  0  0  0999 V2000
  194.4900  176.0730  145.1790 C   0  0  0  0  0  0  0  0  0  0  0  0
  191.1760  176.2120  143.4020 N   0  0  0  0  0  0  0  0  0  0  0  0
  191.1690  175.2230  142.3480 C   0  0  0  0  0  0  0  0  0  0  0  0
  188.1820  176.1290  147.6380 O   0  0  0  0  0  0  0  0  0  0  0  0
  187.5170  176.6900  146.7240 C   0  0  0  0  0  0  0  0  0  0  0  0
  192.3010  173.7100  140.8170 C   0  0  0  0  0  0  0  0  0  0  0  0
  192.1880  176.2270  144.4290 C   0  0  0  0  0  0  0  0  0  0  0  0
  194.0730  176.2450  146.5030 C   0  0  0  0  0  3  0  0  0  0  0  0
  192.3530  174.6730  141.8310 C   0  0  0  0  0  3  0  0  0  0  0  0
  189.4930  176.7740  145.1180 C   0  0  0  0  0  0  0  0  0  0  0  0
  195.8050  175.9150  144.8990 F   0  0  0  0  0  0  0  0  0  0  0  0
  188.6930  175.3520  142.4280 C   0  0  0  0  0  2  0  0  0  0  0  0
  193.5600  173.1340  140.2770 C   0  0  0  0  0  1  0  0  0  0  0  0
  190.3800  176.5730  146.0540 N   0  0  0  0  0  0  0  0  0  0  0  0
  189.9510  176.9890  143.6940 C   0  0  2  0  0  3  0  0  0  0  0  0
  188.1120  176.9680  145.4520 N   0  0  0  0  0  2  0  0  0  0  0  0
  193.5500  176.0630  144.1440 C   0  0  0  0  0  3  0  0  0  0  0  0
  191.0670  173.2860  140.3170 C   0  0  0  0  0  3  0  0  0  0  0  0
  191.7740  176.4110  145.7610 C   0  0  0  0  0  0  0  0  0  0  0  0
  192.7150  176.4120  146.7950 C   0  0  0  0  0  3  0  0  0  0  0  0
  188.8780  176.7750  142.7080 N   0  0  0  0  0  2  0  0  0  0  0  0
  189.9390  174.7980  141.8320 C   0  0  0  0  0  0  0  0  0  0  0  0
  189.8830  173.8270  140.8280 C   0  0  0  0  0  3  0  0  0  0  0  0
  185.0750  178.9940  144.9770 C   0  0  1  0  0  3  0  0  0  0  0  0
  185.1910  176.6020  145.7400 C   0  0  0  0  0  2  0  0  0  0  0  0
  186.6490  178.8810  148.3590 O   0  0  0  0  0  1  0  0  0  0  0  0
  185.2610  179.8420  143.8880 O   0  0  0  0  0  1  0  0  0  0  0  0
  185.3660  177.5560  144.5570 C   0  0  0  0  0  2  0  0  0  0  0  0
  185.8170  178.4860  147.3090 C   0  0  2  0  0  3  0  0  0  0  0  0
  186.0640  177.0170  146.9320 C   0  0  2  0  0  3  0  0  0  0  0  0
  186.0040  179.4150  146.1110 C   0  0  0  0  0  2  0  0  0  0  0  0
  1  8  1  0  0  0  0
  2 15  1  0  0  0  0
  2  7  1  0  0  0  0
  3  2  1  0  0  0  0
  5  4  2  0  0  0  0
  6  9  1  0  0  0  0
  7 19  2  0  0  0  0
  8 20  2  0  0  0  0
  9  3  2  0  0  0  0
 10 16  1  0  0  0  0
 10 14  2  0  0  0  0
 11  1  1  0  0  0  0
 12 21  1  0  0  0  0
 13  6  1  0  0  0  0
 15 21  1  6  0  0  0
 15 10  1  0  0  0  0
 16  5  1  0  0  0  0
 17  7  1  0  0  0  0
 17  1  2  0  0  0  0
 18  6  2  0  0  0  0
 18 23  1  0  0  0  0
 19 14  1  0  0  0  0
 19 20  1  0  0  0  0
 22  3  1  0  0  0  0
 22 12  1  0  0  0  0
 23 22  2  0  0  0  0
 24 27  1  6  0  0  0
 24 31  1  0  0  0  0
 25 30  1  0  0  0  0
 28 24  1  0  0  0  0
 28 25  1  0  0  0  0
 29 26  1  1  0  0  0
 30  5  1  6  0  0  0
 30 29  1  0  0  0  0
 31 29  1  0  0  0  0
M  END
>  <MODEL>
4

>  <REMARK>
 VINA RESULT:      -8.7      3.606      7.850
  Name = 
  1 active torsions:
  status: ('A' for Active; 'I' for Inactive)
    1  A    between atoms: C_5  and  C_30
                            x       y       z     vdW  Elec       q    Type
                         _______ _______ _______ _____ _____    ______ ____

>  <TORSDO>
F 1

$$$$
=
 OpenBabel11112416453D

 31 35  0  0  1  0  0  0  0  0999 V2000
  186.9920  176.8070  140.8440 C   0  0  0  0  0  0  0  0  0  0  0  0
  188.5830  177.4480  144.1930 N   0  0  0  0  0  0  0  0  0  0  0  0
  187.5440  177.7390  145.1550 C   0  0  0  0  0  0  0  0  0  0  0  0
  191.6570  173.2700  144.2440 O   0  0  0  0  0  0  0  0  0  0  0  0
  192.1930  174.1350  144.9900 C   0  0  0  0  0  0  0  0  0  0  0  0
  185.2790  178.4130  145.7310 C   0  0  0  0  0  0  0  0  0  0  0  0
  188.2870  176.8990  142.8930 C   0  0  0  0  0  0  0  0  0  0  0  0
  187.7790  175.7430  140.3910 C   0  0  0  0  0  3  0  0  0  0  0  0
  186.2590  178.1500  144.7670 C   0  0  0  0  0  3  0  0  0  0  0  0
  190.5500  175.9630  144.3210 C   0  0  0  0  0  0  0  0  0  0  0  0
  185.9840  177.2790  140.0720 F   0  0  0  0  0  0  0  0  0  0  0  0
  189.1820  177.1130  146.9110 C   0  0  0  0  0  2  0  0  0  0  0  0
  183.9220  178.8470  145.3100 C   0  0  0  0  0  1  0  0  0  0  0  0
  190.1460  175.3350  143.2510 N   0  0  0  0  0  0  0  0  0  0  0  0
  189.9890  177.3300  144.6370 C   0  0  2  0  0  3  0  0  0  0  0  0
  191.6410  175.4510  145.0990 N   0  0  0  0  0  2  0  0  0  0  0  0
  187.2440  177.3840  142.0920 C   0  0  0  0  0  3  0  0  0  0  0  0
  185.5750  178.2610  147.0890 C   0  0  0  0  0  3  0  0  0  0  0  0
  189.0830  175.8360  142.4290 C   0  0  0  0  0  0  0  0  0  0  0  0
  188.8230  175.2560  141.1840 C   0  0  0  0  0  3  0  0  0  0  0  0
  190.1900  177.7210  146.0430 N   0  0  0  0  0  2  0  0  0  0  0  0
  187.8310  177.6010  146.5190 C   0  0  0  0  0  0  0  0  0  0  0  0
  186.8520  177.8500  147.4840 C   0  0  0  0  0  3  0  0  0  0  0  0
  195.9290  174.1570  144.3830 C   0  0  1  0  0  3  0  0  0  0  0  0
  194.2960  174.9830  146.1060 C   0  0  0  0  0  2  0  0  0  0  0  0
  193.3600  171.5150  144.9770 O   0  0  0  0  0  1  0  0  0  0  0  0
  196.6540  174.5180  143.2500 O   0  0  0  0  0  1  0  0  0  0  0  0
  195.1200  175.3560  144.8720 C   0  0  0  0  0  2  0  0  0  0  0  0
  194.1940  172.5940  145.2760 C   0  0  2  0  0  3  0  0  0  0  0  0
  193.3870  173.7780  145.8330 C   0  0  2  0  0  3  0  0  0  0  0  0
  195.0030  172.9930  144.0430 C   0  0  0  0  0  2  0  0  0  0  0  0
  1 17  1  0  0  0  0
  2 15  1  0  0  0  0
  2  3  1  0  0  0  0
  3 22  1  0  0  0  0
  4  5  2  0  0  0  0
  5 16  1  0  0  0  0
  6 18  2  0  0  0  0
  7  2  1  0  0  0  0
  8  1  2  0  0  0  0
  8 20  1  0  0  0  0
  9  3  2  0  0  0  0
  9  6  1  0  0  0  0
 10 16  1  0  0  0  0
 11  1  1  0  0  0  0
 13  6  1  0  0  0  0
 14 10  2  0  0  0  0
 15 10  1  1  0  0  0
 15 21  1  0  0  0  0
 17  7  2  0  0  0  0
 18 23  1  0  0  0  0
 19  7  1  0  0  0  0
 19 14  1  0  0  0  0
 20 19  2  0  0  0  0
 21 12  1  0  0  0  0
 22 12  1  0  0  0  0
 22 23  2  0  0  0  0
 24 27  1  6  0  0  0
 24 28  1  0  0  0  0
 28 25  1  0  0  0  0
 29 26  1  6  0  0  0
 29 30  1  0  0  0  0
 30  5  1  6  0  0  0
 30 25  1  0  0  0  0
 31 24  1  0  0  0  0
 31 29  1  0  0  0  0
M  END
>  <MODEL>
5

>  <REMARK>
 VINA RESULT:      -8.6      1.477      1.987
  Name = 
  1 active torsions:
  status: ('A' for Active; 'I' for Inactive)
    1  A    between atoms: C_5  and  C_30
                            x       y       z     vdW  Elec       q    Type
                         _______ _______ _______ _____ _____    ______ ____

>  <TORSDO>
F 1

$$$$
=
 OpenBabel11112416453D

 31 35  0  0  1  0  0  0  0  0999 V2000
  187.5080  175.2930  139.1090 C   0  0  0  0  0  0  0  0  0  0  0  0
  188.2040  176.9190  142.4310 N   0  0  0  0  0  0  0  0  0  0  0  0
  186.9590  177.4000  142.9860 C   0  0  0  0  0  0  0  0  0  0  0  0
  191.1130  173.1050  144.4050 O   0  0  0  0  0  0  0  0  0  0  0  0
  191.4530  174.1700  144.9880 C   0  0  0  0  0  0  0  0  0  0  0  0
  184.6310  178.0690  142.7720 C   0  0  0  0  0  0  0  0  0  0  0  0
  188.2420  176.0190  141.3050 C   0  0  0  0  0  0  0  0  0  0  0  0
  188.3700  174.1940  139.1810 C   0  0  0  0  0  3  0  0  0  0  0  0
  185.8200  177.6120  142.1930 C   0  0  0  0  0  3  0  0  0  0  0  0
  190.0560  175.6450  143.4500 C   0  0  0  0  0  0  0  0  0  0  0  0
  186.7340  175.4760  138.0130 F   0  0  0  0  0  0  0  0  0  0  0  0
  188.0900  177.3760  145.1940 C   0  0  0  0  0  2  0  0  0  0  0  0
  183.4310  178.2910  141.9250 C   0  0  0  0  0  1  0  0  0  0  0  0
  189.9290  174.7260  142.5330 N   0  0  0  0  0  0  0  0  0  0  0  0
  189.4500  177.0110  143.2230 C   0  0  2  0  0  3  0  0  0  0  0  0
  190.9080  175.4310  144.5840 N   0  0  0  0  0  2  0  0  0  0  0  0
  187.4410  176.2030  140.1690 C   0  0  0  0  0  3  0  0  0  0  0  0
  184.5710  178.3120  144.1470 C   0  0  0  0  0  3  0  0  0  0  0  0
  189.1160  174.9190  141.3680 C   0  0  0  0  0  0  0  0  0  0  0  0
  189.1730  174.0060  140.3110 C   0  0  0  0  0  3  0  0  0  0  0  0
  189.2930  177.7830  144.4680 N   0  0  0  0  0  2  0  0  0  0  0  0
  186.8890  177.6570  144.3600 C   0  0  0  0  0  0  0  0  0  0  0  0
  185.7000  178.1020  144.9440 C   0  0  0  0  0  3  0  0  0  0  0  0
  194.1920  176.4640  146.2380 C   0  0  1  0  0  3  0  0  0  0  0  0
  192.1600  175.2910  147.1390 C   0  0  0  0  0  2  0  0  0  0  0  0
  194.0710  173.0080  144.8340 O   0  0  0  0  0  1  0  0  0  0  0  0
  194.6640  177.6680  145.7190 O   0  0  0  0  0  1  0  0  0  0  0  0
  192.7120  176.6060  146.5860 C   0  0  0  0  0  2  0  0  0  0  0  0
  193.8700  174.0310  145.7630 C   0  0  2  0  0  3  0  0  0  0  0  0
  192.3890  174.1290  146.1650 C   0  0  2  0  0  3  0  0  0  0  0  0
  194.3920  175.3560  145.2090 C   0  0  0  0  0  2  0  0  0  0  0  0
  1  8  2  0  0  0  0
  1 17  1  0  0  0  0
  2  3  1  0  0  0  0
  2 15  1  0  0  0  0
  3 22  1  0  0  0  0
  4  5  2  0  0  0  0
  6 18  2  0  0  0  0
  7 19  1  0  0  0  0
  7  2  1  0  0  0  0
  8 20  1  0  0  0  0
  9  6  1  0  0  0  0
  9  3  2  0  0  0  0
 10 16  1  0  0  0  0
 11  1  1  0  0  0  0
 13  6  1  0  0  0  0
 14 10  2  0  0  0  0
 15 10  1  1  0  0  0
 15 21  1  0  0  0  0
 16  5  1  0  0  0  0
 17  7  2  0  0  0  0
 18 23  1  0  0  0  0
 19 14  1  0  0  0  0
 20 19  2  0  0  0  0
 21 12  1  0  0  0  0
 22 23  2  0  0  0  0
 22 12  1  0  0  0  0
 24 27  1  6  0  0  0
 24 28  1  0  0  0  0
 28 25  1  0  0  0  0
 29 26  1  6  0  0  0
 29 30  1  0  0  0  0
 30  5  1  6  0  0  0
 30 25  1  0  0  0  0
 31 29  1  0  0  0  0
 31 24  1  0  0  0  0
M  END
>  <MODEL>
6

>  <REMARK>
 VINA RESULT:      -8.3      1.778      2.539
  Name = 
  1 active torsions:
  status: ('A' for Active; 'I' for Inactive)
    1  A    between atoms: C_5  and  C_30
                            x       y       z     vdW  Elec       q    Type
                         _______ _______ _______ _____ _____    ______ ____

>  <TORSDO>
F 1

$$$$
=
 OpenBabel11112416453D

 31 35  0  0  1  0  0  0  0  0999 V2000
  186.0730  178.0060  146.6630 C   0  0  0  0  0  0  0  0  0  0  0  0
  187.4160  176.0120  143.7690 N   0  0  0  0  0  0  0  0  0  0  0  0
  186.8720  176.5460  142.5410 C   0  0  0  0  0  0  0  0  0  0  0  0
  192.4090  176.1510  145.1670 O   0  0  0  0  0  0  0  0  0  0  0  0
  192.2520  175.1230  144.4530 C   0  0  0  0  0  0  0  0  0  0  0  0
  185.2280  177.8490  141.3100 C   0  0  0  0  0  0  0  0  0  0  0  0
  187.3100  176.7170  145.0220 C   0  0  0  0  0  0  0  0  0  0  0  0
  187.2160  178.0880  147.4650 C   0  0  0  0  0  3  0  0  0  0  0  0
  185.7160  177.3440  142.5190 C   0  0  0  0  0  3  0  0  0  0  0  0
  189.7170  175.3640  144.3830 C   0  0  0  0  0  0  0  0  0  0  0  0
  184.9200  178.5890  147.0690 F   0  0  0  0  0  0  0  0  0  0  0  0
  188.7760  175.4590  141.3810 C   0  0  0  0  0  2  0  0  0  0  0  0
  184.0040  178.6920  141.2980 C   0  0  0  0  0  1  0  0  0  0  0  0
  189.6740  176.1780  145.4010 N   0  0  0  0  0  0  0  0  0  0  0  0
  188.4280  174.9340  143.7200 C   0  0  2  0  0  3  0  0  0  0  0  0
  190.9500  174.7390  143.9990 N   0  0  0  0  0  2  0  0  0  0  0  0
  186.1180  177.3240  145.4440 C   0  0  0  0  0  3  0  0  0  0  0  0
  185.8930  177.5670  140.1140 C   0  0  0  0  0  3  0  0  0  0  0  0
  188.4540  176.7920  145.8360 C   0  0  0  0  0  0  0  0  0  0  0  0
  188.4070  177.4830  147.0510 C   0  0  0  0  0  3  0  0  0  0  0  0
  188.6330  174.3880  142.3670 N   0  0  0  0  0  2  0  0  0  0  0  0
  187.5240  176.2610  141.3350 C   0  0  0  0  0  0  0  0  0  0  0  0
  187.0460  176.7750  140.1260 C   0  0  0  0  0  3  0  0  0  0  0  0
  195.8660  175.9720  143.7160 C   0  0  1  0  0  3  0  0  0  0  0  0
  194.5610  174.2930  145.0550 C   0  0  0  0  0  2  0  0  0  0  0  0
  192.9560  174.8100  141.6890 O   0  0  0  0  0  1  0  0  0  0  0  0
  196.5340  177.1930  143.7780 O   0  0  0  0  0  1  0  0  0  0  0  0
  195.3200  175.6210  145.0970 C   0  0  0  0  0  2  0  0  0  0  0  0
  193.9830  174.7360  142.6320 C   0  0  2  0  0  3  0  0  0  0  0  0
  193.4410  174.3160  144.0080 C   0  0  2  0  0  3  0  0  0  0  0  0
  194.7300  176.0670  142.7030 C   0  0  0  0  0  2  0  0  0  0  0  0
  1 11  1  0  0  0  0
  1  8  1  0  0  0  0
  2  7  1  0  0  0  0
  3  2  1  0  0  0  0
  5  4  2  0  0  0  0
  6  9  2  0  0  0  0
  7 17  1  0  0  0  0
  7 19  2  0  0  0  0
  9  3  1  0  0  0  0
 10 14  2  0  0  0  0
 12 21  1  0  0  0  0
 13  6  1  0  0  0  0
 14 19  1  0  0  0  0
 15 21  1  6  0  0  0
 15  2  1  0  0  0  0
 15 10  1  0  0  0  0
 16 10  1  0  0  0  0
 16  5  1  0  0  0  0
 17  1  2  0  0  0  0
 18 23  2  0  0  0  0
 18  6  1  0  0  0  0
 19 20  1  0  0  0  0
 20  8  2  0  0  0  0
 22 12  1  0  0  0  0
 22  3  2  0  0  0  0
 23 22  1  0  0  0  0
 24 27  1  1  0  0  0
 24 28  1  0  0  0  0
 25 28  1  0  0  0  0
 29 26  1  6  0  0  0
 29 31  1  0  0  0  0
 29 30  1  0  0  0  0
 30  5  1  1  0  0  0
 30 25  1  0  0  0  0
 31 24  1  0  0  0  0
M  END
>  <MODEL>
7

>  <REMARK>
 VINA RESULT:      -8.1      1.905      4.184
  Name = 
  1 active torsions:
  status: ('A' for Active; 'I' for Inactive)
    1  A    between atoms: C_5  and  C_30
                            x       y       z     vdW  Elec       q    Type
                         _______ _______ _______ _____ _____    ______ ____

>  <TORSDO>
F 1

$$$$
=
 OpenBabel11112416453D

 31 35  0  0  1  0  0  0  0  0999 V2000
  186.7110  177.9260  145.1050 C   0  0  0  0  0  0  0  0  0  0  0  0
  189.8980  176.3640  143.8550 N   0  0  0  0  0  0  0  0  0  0  0  0
  190.7720  176.1220  144.9800 C   0  0  0  0  0  0  0  0  0  0  0  0
  187.6970  172.7110  140.9020 O   0  0  0  0  0  0  0  0  0  0  0  0
  188.8450  172.9320  140.4260 C   0  0  0  0  0  0  0  0  0  0  0  0
  191.4740  176.5120  147.2760 C   0  0  0  0  0  0  0  0  0  0  0  0
  188.5070  176.7020  144.0270 C   0  0  0  0  0  0  0  0  0  0  0  0
  185.7750  177.2660  144.3010 C   0  0  0  0  0  3  0  0  0  0  0  0
  190.6110  176.7830  146.2090 C   0  0  0  0  0  3  0  0  0  0  0  0
  189.2650  174.9310  141.9470 C   0  0  0  0  0  0  0  0  0  0  0  0
  186.2960  178.8380  146.0160 F   0  0  0  0  0  0  0  0  0  0  0  0
  191.9330  174.4620  143.5490 C   0  0  0  0  0  2  0  0  0  0  0  0
  191.2940  177.2170  148.5720 C   0  0  0  0  0  1  0  0  0  0  0  0
  188.0060  175.0800  142.2530 N   0  0  0  0  0  0  0  0  0  0  0  0
  190.2850  175.8980  142.5060 C   0  0  2  0  0  3  0  0  0  0  0  0
  189.6670  173.9770  140.9550 N   0  0  0  0  0  2  0  0  0  0  0  0
  188.0730  177.6440  144.9700 C   0  0  0  0  0  3  0  0  0  0  0  0
  192.4990  175.5740  147.1270 C   0  0  0  0  0  3  0  0  0  0  0  0
  187.5630  176.0500  143.2130 C   0  0  0  0  0  0  0  0  0  0  0  0
  186.2010  176.3270  143.3560 C   0  0  0  0  0  3  0  0  0  0  0  0
  191.6620  175.3780  142.4420 N   0  0  0  0  0  2  0  0  0  0  0  0
  191.8090  175.1920  144.8400 C   0  0  0  0  0  0  0  0  0  0  0  0
  192.6650  174.9090  145.9080 C   0  0  0  0  0  3  0  0  0  0  0  0
  191.9280  173.1060  138.2370 C   0  0  1  0  0  3  0  0  0  0  0  0
  190.7520  171.4390  139.7060 C   0  0  0  0  0  2  0  0  0  0  0  0
  188.2500  173.3640  137.6530 O   0  0  0  0  0  1  0  0  0  0  0  0
  192.9490  174.0520  138.1960 O   0  0  0  0  0  1  0  0  0  0  0  0
  191.8800  172.4690  139.6240 C   0  0  0  0  0  2  0  0  0  0  0  0
  189.4670  172.7560  137.9680 C   0  0  2  0  0  3  0  0  0  0  0  0
  189.3970  172.0560  139.3350 C   0  0  2  0  0  3  0  0  0  0  0  0
  190.5980  173.7820  137.9170 C   0  0  0  0  0  2  0  0  0  0  0  0
  1 11  1  0  0  0  0
  2  7  1  0  0  0  0
  2  3  1  0  0  0  0
  3  9  1  0  0  0  0
  5  4  2  0  0  0  0
  5 16  1  0  0  0  0
  6 13  1  0  0  0  0
  7 17  2  0  0  0  0
  8  1  2  0  0  0  0
  9  6  2  0  0  0  0
 10 14  2  0  0  0  0
 12 22  1  0  0  0  0
 14 19  1  0  0  0  0
 15 10  1  1  0  0  0
 15  2  1  0  0  0  0
 16 10  1  0  0  0  0
 17  1  1  0  0  0  0
 18  6  1  0  0  0  0
 19 20  2  0  0  0  0
 19  7  1  0  0  0  0
 20  8  1  0  0  0  0
 21 15  1  0  0  0  0
 21 12  1  0  0  0  0
 22  3  2  0  0  0  0
 22 23  1  0  0  0  0
 23 18  2  0  0  0  0
 24 27  1  1  0  0  0
 24 28  1  0  0  0  0
 28 25  1  0  0  0  0
 29 26  1  1  0  0  0
 29 30  1  0  0  0  0
 30 25  1  0  0  0  0
 30  5  1  1  0  0  0
 31 29  1  0  0  0  0
 31 24  1  0  0  0  0
M  END
>  <MODEL>
8

>  <REMARK>
 VINA RESULT:      -8.1      3.153      5.505
  Name = 
  1 active torsions:
  status: ('A' for Active; 'I' for Inactive)
    1  A    between atoms: C_5  and  C_30
                            x       y       z     vdW  Elec       q    Type
                         _______ _______ _______ _____ _____    ______ ____

>  <TORSDO>
F 1

$$$$
=
 OpenBabel11112416453D

 31 35  0  0  1  0  0  0  0  0999 V2000
  192.2500  169.7660  143.1170 C   0  0  0  0  0  0  0  0  0  0  0  0
  192.3200  173.0230  145.0000 N   0  0  0  0  0  0  0  0  0  0  0  0
  193.6950  173.3810  145.2640 C   0  0  0  0  0  0  0  0  0  0  0  0
  189.0660  175.6160  141.9030 O   0  0  0  0  0  0  0  0  0  0  0  0
  189.0080  176.1590  143.0400 C   0  0  0  0  0  0  0  0  0  0  0  0
  196.0550  172.8300  145.4700 C   0  0  0  0  0  0  0  0  0  0  0  0
  191.9670  171.9790  144.0720 C   0  0  0  0  0  0  0  0  0  0  0  0
  191.2210  170.0250  142.2060 C   0  0  0  0  0  3  0  0  0  0  0  0
  194.7360  172.4390  145.2190 C   0  0  0  0  0  3  0  0  0  0  0  0
  190.4250  174.3560  144.1500 C   0  0  0  0  0  0  0  0  0  0  0  0
  192.8870  168.5710  143.0980 F   0  0  0  0  0  0  0  0  0  0  0  0
  192.8920  175.7090  145.5590 C   0  0  0  0  0  2  0  0  0  0  0  0
  197.1490  171.8250  145.4200 C   0  0  0  0  0  1  0  0  0  0  0  0
  190.2570  173.4980  143.1810 N   0  0  0  0  0  0  0  0  0  0  0  0
  191.2310  173.9560  145.3640 C   0  0  2  0  0  3  0  0  0  0  0  0
  189.7120  175.6000  144.1540 N   0  0  0  0  0  2  0  0  0  0  0  0
  192.6250  170.7410  144.0470 C   0  0  0  0  0  3  0  0  0  0  0  0
  196.3460  174.1660  145.7620 C   0  0  0  0  0  3  0  0  0  0  0  0
  190.9250  172.2300  143.1610 C   0  0  0  0  0  0  0  0  0  0  0  0
  190.5600  171.2570  142.2260 C   0  0  0  0  0  3  0  0  0  0  0  0
  191.6950  175.1130  146.1510 N   0  0  0  0  0  2  0  0  0  0  0  0
  193.9980  174.7140  145.5680 C   0  0  0  0  0  0  0  0  0  0  0  0
  195.3160  175.1110  145.8070 C   0  0  0  0  0  3  0  0  0  0  0  0
  186.0620  177.1640  145.1940 C   0  0  1  0  0  3  0  0  0  0  0  0
  188.3740  177.9920  144.6590 C   0  0  0  0  0  2  0  0  0  0  0  0
  186.6570  176.8010  141.5280 O   0  0  0  0  0  1  0  0  0  0  0  0
  185.3120  176.4160  146.0980 O   0  0  0  0  0  1  0  0  0  0  0  0
  187.5200  177.1940  145.6460 C   0  0  0  0  0  2  0  0  0  0  0  0
  186.7750  177.3510  142.8060 C   0  0  2  0  0  3  0  0  0  0  0  0
  188.2490  177.4430  143.2330 C   0  0  2  0  0  3  0  0  0  0  0  0
  185.9480  176.5440  143.8050 C   0  0  0  0  0  2  0  0  0  0  0  0
  1 17  1  0  0  0  0
  2  3  1  0  0  0  0
  2 15  1  0  0  0  0
  3 22  1  0  0  0  0
  4  5  2  0  0  0  0
  5 16  1  0  0  0  0
  6 18  2  0  0  0  0
  7  2  1  0  0  0  0
  8 20  1  0  0  0  0
  8  1  2  0  0  0  0
  9  3  2  0  0  0  0
  9  6  1  0  0  0  0
 10 16  1  0  0  0  0
 11  1  1  0  0  0  0
 12 22  1  0  0  0  0
 12 21  1  0  0  0  0
 13  6  1  0  0  0  0
 14 10  2  0  0  0  0
 15 10  1  6  0  0  0
 15 21  1  0  0  0  0
 17  7  2  0  0  0  0
 18 23  1  0  0  0  0
 19 14  1  0  0  0  0
 19  7  1  0  0  0  0
 20 19  2  0  0  0  0
 22 23  2  0  0  0  0
 24 28  1  0  0  0  0
 24 27  1  1  0  0  0
 25 28  1  0  0  0  0
 29 26  1  6  0  0  0
 29 30  1  0  0  0  0
 29 31  1  0  0  0  0
 30  5  1  1  0  0  0
 30 25  1  0  0  0  0
 31 24  1  0  0  0  0
M  END
>  <MODEL>
9

>  <REMARK>
 VINA RESULT:      -8.0      3.707      7.971
  Name = 
  1 active torsions:
  status: ('A' for Active; 'I' for Inactive)
    1  A    between atoms: C_5  and  C_30
                            x       y       z     vdW  Elec       q    Type
                         _______ _______ _______ _____ _____    ______ ____

>  <TORSDO>
F 1

$$$$
