=
 OpenBabel11112417593D

 34 40  0  0  0  0  0  0  0  0999 V2000
  186.8020  177.8830  145.1720 C   0  0  0  0  0  0  0  0  0  0  0  0
  184.4330  178.5380  144.7290 C   0  0  0  0  0  3  0  0  0  0  0  0
  190.5900  174.0230  144.3470 O   0  0  0  0  0  0  0  0  0  0  0  0
  189.1670  177.2360  145.3140 C   0  0  0  0  0  0  0  0  0  0  0  0
  190.3910  176.7020  143.3350 C   0  0  0  0  0  0  0  0  0  0  0  0
  191.3530  174.7200  142.1690 C   0  0  0  0  0  2  0  0  0  0  0  0
  191.4720  173.7020  143.3040 C   0  0  0  0  0  2  0  0  0  0  0  0
  192.2800  175.4030  145.4310 C   0  0  0  0  0  2  0  0  0  0  0  0
  185.7400  178.0180  142.9930 C   0  0  0  0  0  0  0  0  0  0  0  0
  184.7180  178.0720  140.0990 C   0  0  0  0  0  3  0  0  0  0  0  0
  189.2650  176.9560  142.5520 C   0  0  0  0  0  3  0  0  0  0  0  0
  191.5460  176.7410  145.5390 C   0  0  0  0  0  2  0  0  0  0  0  0
  186.9130  177.6260  142.3310 C   0  0  0  0  0  0  0  0  0  0  0  0
  183.6860  178.6630  143.6130 N   0  0  0  0  0  0  0  0  0  0  0  0
  190.3390  176.8560  144.7020 N   0  0  0  0  0  0  0  0  0  0  0  0
  191.3720  174.1700  145.5050 C   0  0  0  0  0  2  0  0  0  0  0  0
  183.9740  178.3840  141.2390 C   0  0  0  0  0  0  0  0  0  0  0  0
  188.0110  177.5020  144.5440 C   0  0  0  0  0  0  0  0  0  0  0  0
  191.6030  176.1570  142.6360 C   0  0  0  0  0  2  0  0  0  0  0  0
  188.0620  177.3650  143.1320 C   0  0  0  0  0  0  0  0  0  0  0  0
  187.7310  177.1760  147.3690 C   0  0  0  0  0  2  0  0  0  0  0  0
  186.0420  177.6780  139.9690 C   0  0  0  0  0  3  0  0  0  0  0  0
  189.1220  177.4490  146.8130 C   0  0  0  0  0  2  0  0  0  0  0  0
  187.0060  177.4820  140.9460 C   0  0  0  0  0  3  0  0  0  0  0  0
  184.4670  178.3500  142.5500 C   0  0  0  0  0  0  0  0  0  0  0  0
  186.7180  178.0670  146.6630 C   0  0  0  0  0  2  0  0  0  0  0  0
  185.6980  178.1410  144.3620 C   0  0  0  0  0  0  0  0  0  0  0  0
  182.5610  178.7800  141.0550 C   0  0  0  0  0  3  0  0  0  0  0  0
  181.6500  178.0080  140.4640 C   0  0  0  0  0  3  0  0  0  0  0  0
  178.0350  178.5490  139.6310 C   0  0  0  0  0  2  0  0  0  0  0  0
  179.8330  179.7110  140.7980 C   0  0  0  0  0  2  0  0  0  0  0  0
  180.2930  178.4320  140.3080 N   0  0  0  0  0  0  0  0  0  0  0  0
  178.3360  179.7250  140.5520 C   0  0  0  0  0  2  0  0  0  0  0  0
  179.2570  177.6510  139.6640 C   0  0  0  0  0  2  0  0  0  0  0  0
  1 26  1  0  0  0  0
  3 16  1  0  0  0  0
  4 23  1  0  0  0  0
  5 15  1  0  0  0  0
  6 19  1  0  0  0  0
  6  7  1  0  0  0  0
  7  3  1  0  0  0  0
  8 16  1  0  0  0  0
  8 12  1  0  0  0  0
  9 27  1  0  0  0  0
 10 17  2  0  0  0  0
 11 20  1  0  0  0  0
 11  5  2  0  0  0  0
 13  9  1  0  0  0  0
 13 20  2  0  0  0  0
 14  2  2  0  0  0  0
 15  4  1  0  0  0  0
 15 12  1  0  0  0  0
 17 25  1  0  0  0  0
 18  1  1  0  0  0  0
 18  4  2  0  0  0  0
 19  5  1  0  0  0  0
 20 18  1  0  0  0  0
 22 10  1  0  0  0  0
 22 24  2  0  0  0  0
 23 21  1  0  0  0  0
 24 13  1  0  0  0  0
 25  9  2  0  0  0  0
 25 14  1  0  0  0  0
 26 21  1  0  0  0  0
 27  2  1  0  0  0  0
 27  1  2  0  0  0  0
 28 17  1  0  0  0  0
 29 28  2  0  0  0  0
 30 34  1  0  0  0  0
 30 33  1  0  0  0  0
 32 29  1  0  0  0  0
 32 31  1  0  0  0  0
 33 31  1  0  0  0  0
 34 32  1  0  0  0  0
M  END
>  <MODEL>
1

>  <REMARK>
 VINA RESULT:      -9.6      0.000      0.000
  Name = 
  2 active torsions:
  status: ('A' for Active; 'I' for Inactive)
    1  A    between atoms: C_17  and  C_28
    2  A    between atoms: C_29  and  N_32
                            x       y       z     vdW  Elec       q    Type
                         _______ _______ _______ _____ _____    ______ ____

>  <TORSDO>
F 2

$$$$
=
 OpenBabel11112417593D

 34 40  0  0  0  0  0  0  0  0999 V2000
  187.5770  176.5710  145.3200 C   0  0  0  0  0  0  0  0  0  0  0  0
  185.2280  177.4170  145.2250 C   0  0  0  0  0  3  0  0  0  0  0  0
  191.0480  172.8190  143.3690 O   0  0  0  0  0  0  0  0  0  0  0  0
  189.9010  175.8010  145.1250 C   0  0  0  0  0  0  0  0  0  0  0  0
  190.9480  175.6630  142.9840 C   0  0  0  0  0  0  0  0  0  0  0  0
  191.7000  173.9460  141.3410 C   0  0  0  0  0  2  0  0  0  0  0  0
  191.8330  172.6980  142.2130 C   0  0  0  0  0  2  0  0  0  0  0  0
  192.8920  173.8450  144.5860 C   0  0  0  0  0  2  0  0  0  0  0  0
  186.3760  177.2350  143.3170 C   0  0  0  0  0  0  0  0  0  0  0  0
  185.1620  177.9760  140.5970 C   0  0  0  0  0  3  0  0  0  0  0  0
  189.7890  176.1360  142.3700 C   0  0  0  0  0  3  0  0  0  0  0  0
  192.2530  175.1590  145.0410 C   0  0  0  0  0  2  0  0  0  0  0  0
  187.4730  176.9450  142.4920 C   0  0  0  0  0  0  0  0  0  0  0  0
  184.4150  177.8200  144.2280 N   0  0  0  0  0  0  0  0  0  0  0  0
  191.0010  175.5120  144.3510 N   0  0  0  0  0  0  0  0  0  0  0  0
  191.9160  172.6700  144.4640 C   0  0  0  0  0  2  0  0  0  0  0  0
  184.5200  178.0620  141.8350 C   0  0  0  0  0  0  0  0  0  0  0  0
  188.7130  176.2840  144.5280 C   0  0  0  0  0  0  0  0  0  0  0  0
  192.0720  175.2310  142.0860 C   0  0  0  0  0  2  0  0  0  0  0  0
  188.6570  176.4610  143.1210 C   0  0  0  0  0  0  0  0  0  0  0  0
  188.6090  175.3530  147.2280 C   0  0  0  0  0  2  0  0  0  0  0  0
  186.4460  177.5600  140.2770 C   0  0  0  0  0  3  0  0  0  0  0  0
  189.9730  175.6780  146.6330 C   0  0  0  0  0  2  0  0  0  0  0  0
  187.4610  177.1080  141.1060 C   0  0  0  0  0  3  0  0  0  0  0  0
  185.1000  177.7150  143.0620 C   0  0  0  0  0  0  0  0  0  0  0  0
  187.6080  176.4240  146.8170 C   0  0  0  0  0  2  0  0  0  0  0  0
  186.4370  177.0520  144.6790 C   0  0  0  0  0  0  0  0  0  0  0  0
  183.1250  178.5530  141.8570 C   0  0  0  0  0  3  0  0  0  0  0  0
  182.1930  178.1680  140.9860 C   0  0  0  0  0  3  0  0  0  0  0  0
  178.9760  180.0900  140.9040 C   0  0  0  0  0  2  0  0  0  0  0  0
  179.7890  177.9250  141.6740 C   0  0  0  0  0  2  0  0  0  0  0  0
  180.8560  178.6700  141.0460 N   0  0  0  0  0  0  0  0  0  0  0  0
  178.5280  178.7280  141.4190 C   0  0  0  0  0  2  0  0  0  0  0  0
  180.4300  179.9410  140.4970 C   0  0  0  0  0  2  0  0  0  0  0  0
  1 26  1  0  0  0  0
  3 16  1  0  0  0  0
  4 23  1  0  0  0  0
  5 15  1  0  0  0  0
  6 19  1  0  0  0  0
  6  7  1  0  0  0  0
  7  3  1  0  0  0  0
  8 12  1  0  0  0  0
  9 27  1  0  0  0  0
 10 17  2  0  0  0  0
 11  5  2  0  0  0  0
 11 20  1  0  0  0  0
 13 20  2  0  0  0  0
 13  9  1  0  0  0  0
 14  2  2  0  0  0  0
 15 12  1  0  0  0  0
 15  4  1  0  0  0  0
 16  8  1  0  0  0  0
 17 28  1  0  0  0  0
 17 25  1  0  0  0  0
 18  4  2  0  0  0  0
 18  1  1  0  0  0  0
 19  5  1  0  0  0  0
 20 18  1  0  0  0  0
 22 10  1  0  0  0  0
 22 24  2  0  0  0  0
 23 21  1  0  0  0  0
 24 13  1  0  0  0  0
 25  9  2  0  0  0  0
 25 14  1  0  0  0  0
 26 21  1  0  0  0  0
 27  2  1  0  0  0  0
 27  1  2  0  0  0  0
 29 32  1  0  0  0  0
 29 28  2  0  0  0  0
 30 33  1  0  0  0  0
 32 31  1  0  0  0  0
 33 31  1  0  0  0  0
 34 30  1  0  0  0  0
 34 32  1  0  0  0  0
M  END
>  <MODEL>
2

>  <REMARK>
 VINA RESULT:      -9.5      1.223      1.471
  Name = 
  2 active torsions:
  status: ('A' for Active; 'I' for Inactive)
    1  A    between atoms: C_17  and  C_28
    2  A    between atoms: C_29  and  N_32
                            x       y       z     vdW  Elec       q    Type
                         _______ _______ _______ _____ _____    ______ ____

>  <TORSDO>
F 2

$$$$
=
 OpenBabel11112417593D

 34 40  0  0  0  0  0  0  0  0999 V2000
  191.7000  172.9730  142.9090 C   0  0  0  0  0  0  0  0  0  0  0  0
  189.4480  174.0540  142.8950 C   0  0  0  0  0  3  0  0  0  0  0  0
  197.0680  173.8590  143.4880 O   0  0  0  0  0  0  0  0  0  0  0  0
  193.9400  172.0090  143.2010 C   0  0  0  0  0  0  0  0  0  0  0  0
  195.2040  172.4710  145.1730 C   0  0  0  0  0  0  0  0  0  0  0  0
  197.1910  173.7910  145.8940 C   0  0  0  0  0  2  0  0  0  0  0  0
  197.9410  173.9940  144.5770 C   0  0  0  0  0  2  0  0  0  0  0  0
  197.5110  171.4680  143.3520 C   0  0  0  0  0  2  0  0  0  0  0  0
  190.7690  174.3600  144.6710 C   0  0  0  0  0  0  0  0  0  0  0  0
  189.9130  176.0670  147.0750 C   0  0  0  0  0  3  0  0  0  0  0  0
  194.1630  173.2530  145.6740 C   0  0  0  0  0  3  0  0  0  0  0  0
  196.0960  170.8960  143.4660 C   0  0  0  0  0  2  0  0  0  0  0  0
  191.9170  174.2260  145.4660 C   0  0  0  0  0  0  0  0  0  0  0  0
  188.7790  174.8410  143.7620 N   0  0  0  0  0  0  0  0  0  0  0  0
  195.0810  171.8470  143.9530 N   0  0  0  0  0  0  0  0  0  0  0  0
  197.5920  172.8400  142.6740 C   0  0  0  0  0  2  0  0  0  0  0  0
  189.1530  175.8200  145.9290 C   0  0  0  0  0  0  0  0  0  0  0  0
  192.8690  172.7950  143.6850 C   0  0  0  0  0  0  0  0  0  0  0  0
  196.4780  172.4370  145.9660 C   0  0  0  0  0  2  0  0  0  0  0  0
  192.9800  173.4270  144.9520 C   0  0  0  0  0  0  0  0  0  0  0  0
  192.8900  172.0620  140.9240 C   0  0  0  0  0  2  0  0  0  0  0  0
  191.1850  175.6340  147.4210 C   0  0  0  0  0  3  0  0  0  0  0  0
  193.7870  171.2860  141.8790 C   0  0  0  0  0  2  0  0  0  0  0  0
  192.0650  174.8260  146.7160 C   0  0  0  0  0  3  0  0  0  0  0  0
  189.5700  175.0370  144.8460 C   0  0  0  0  0  0  0  0  0  0  0  0
  191.5350  172.2960  141.5770 C   0  0  0  0  0  2  0  0  0  0  0  0
  190.6740  173.7510  143.4420 C   0  0  0  0  0  0  0  0  0  0  0  0
  187.8070  176.4290  145.8490 C   0  0  0  0  0  3  0  0  0  0  0  0
  187.5800  177.6590  145.3890 C   0  0  0  0  0  3  0  0  0  0  0  0
  184.3550  179.4160  144.6390 C   0  0  0  0  0  2  0  0  0  0  0  0
  185.3300  178.0740  146.4250 C   0  0  0  0  0  2  0  0  0  0  0  0
  186.2610  178.2070  145.3290 N   0  0  0  0  0  0  0  0  0  0  0  0
  184.0270  178.6700  145.9260 C   0  0  0  0  0  2  0  0  0  0  0  0
  185.7240  178.9340  144.1970 C   0  0  0  0  0  2  0  0  0  0  0  0
  1 27  2  0  0  0  0
  1 18  1  0  0  0  0
  2 27  1  0  0  0  0
  2 14  2  0  0  0  0
  3  7  1  0  0  0  0
  4 18  2  0  0  0  0
  4 15  1  0  0  0  0
  5 11  2  0  0  0  0
  5 19  1  0  0  0  0
  6 19  1  0  0  0  0
  7  6  1  0  0  0  0
  8 12  1  0  0  0  0
  9 25  2  0  0  0  0
  9 13  1  0  0  0  0
 10 22  1  0  0  0  0
 12 15  1  0  0  0  0
 13 24  1  0  0  0  0
 14 25  1  0  0  0  0
 15  5  1  0  0  0  0
 16  8  1  0  0  0  0
 16  3  1  0  0  0  0
 17 10  2  0  0  0  0
 18 20  1  0  0  0  0
 20 13  2  0  0  0  0
 20 11  1  0  0  0  0
 21 26  1  0  0  0  0
 21 23  1  0  0  0  0
 23  4  1  0  0  0  0
 24 22  2  0  0  0  0
 25 17  1  0  0  0  0
 26  1  1  0  0  0  0
 27  9  1  0  0  0  0
 28 17  1  0  0  0  0
 29 28  2  0  0  0  0
 30 33  1  0  0  0  0
 32 29  1  0  0  0  0
 32 31  1  0  0  0  0
 33 31  1  0  0  0  0
 34 30  1  0  0  0  0
 34 32  1  0  0  0  0
M  END
>  <MODEL>
3

>  <REMARK>
 VINA RESULT:      -8.3      3.836      7.517
  Name = 
  2 active torsions:
  status: ('A' for Active; 'I' for Inactive)
    1  A    between atoms: C_17  and  C_28
    2  A    between atoms: C_29  and  N_32
                            x       y       z     vdW  Elec       q    Type
                         _______ _______ _______ _____ _____    ______ ____

>  <TORSDO>
F 2

$$$$
=
 OpenBabel11112417593D

 34 40  0  0  0  0  0  0  0  0999 V2000
  189.9800  174.8580  142.0750 C   0  0  0  0  0  0  0  0  0  0  0  0
  187.8670  175.5370  140.9300 C   0  0  0  0  0  3  0  0  0  0  0  0
  194.4450  176.6910  144.6520 O   0  0  0  0  0  0  0  0  0  0  0  0
  191.9510  174.3240  143.4410 C   0  0  0  0  0  0  0  0  0  0  0  0
  192.1760  175.2330  145.6380 C   0  0  0  0  0  0  0  0  0  0  0  0
  193.5120  176.9450  146.8600 C   0  0  0  0  0  2  0  0  0  0  0  0
  194.7380  177.1040  145.9600 C   0  0  0  0  0  2  0  0  0  0  0  0
  195.1310  174.4080  145.1560 C   0  0  0  0  0  2  0  0  0  0  0  0
  188.2450  176.2790  143.0030 C   0  0  0  0  0  0  0  0  0  0  0  0
  186.2660  178.1070  144.4760 C   0  0  0  0  0  3  0  0  0  0  0  0
  190.9510  175.8880  145.5080 C   0  0  0  0  0  3  0  0  0  0  0  0
  193.8710  173.6280  144.7760 C   0  0  0  0  0  2  0  0  0  0  0  0
  188.9390  176.4390  144.2120 C   0  0  0  0  0  0  0  0  0  0  0  0
  186.8150  176.3050  141.2790 N   0  0  0  0  0  0  0  0  0  0  0  0
  192.6590  174.4500  144.6140 N   0  0  0  0  0  0  0  0  0  0  0  0
  195.3670  175.6790  144.3320 C   0  0  0  0  0  2  0  0  0  0  0  0
  186.1090  177.5960  143.1850 C   0  0  0  0  0  0  0  0  0  0  0  0
  190.7050  174.9760  143.2840 C   0  0  0  0  0  0  0  0  0  0  0  0
  192.9740  175.5120  146.8780 C   0  0  0  0  0  2  0  0  0  0  0  0
  190.1910  175.7700  144.3430 C   0  0  0  0  0  0  0  0  0  0  0  0
  191.9990  173.9170  140.9670 C   0  0  0  0  0  2  0  0  0  0  0  0
  187.2950  177.9380  145.3910 C   0  0  0  0  0  3  0  0  0  0  0  0
  192.4600  173.4260  142.3330 C   0  0  0  0  0  2  0  0  0  0  0  0
  188.4670  177.2070  145.2770 C   0  0  0  0  0  3  0  0  0  0  0  0
  187.0310  176.7630  142.5370 C   0  0  0  0  0  0  0  0  0  0  0  0
  190.4790  174.0010  140.9440 C   0  0  0  0  0  2  0  0  0  0  0  0
  188.7550  175.5140  141.9810 C   0  0  0  0  0  0  0  0  0  0  0  0
  184.8820  177.9570  142.4430 C   0  0  0  0  0  3  0  0  0  0  0  0
  183.7080  178.1930  143.0280 C   0  0  0  0  0  3  0  0  0  0  0  0
  180.4000  179.3140  141.6680 C   0  0  0  0  0  2  0  0  0  0  0  0
  182.3940  178.1500  140.8870 C   0  0  0  0  0  2  0  0  0  0  0  0
  182.5470  178.5410  142.2700 N   0  0  0  0  0  0  0  0  0  0  0  0
  181.1100  178.8080  140.4190 C   0  0  0  0  0  2  0  0  0  0  0  0
  181.4280  179.3030  142.7840 C   0  0  0  0  0  2  0  0  0  0  0  0
  1 18  1  0  0  0  0
  2 14  2  0  0  0  0
  2 27  1  0  0  0  0
  3  7  1  0  0  0  0
  4 15  1  0  0  0  0
  5 19  1  0  0  0  0
  6 19  1  0  0  0  0
  7  6  1  0  0  0  0
  9 13  1  0  0  0  0
 10 22  1  0  0  0  0
 11  5  2  0  0  0  0
 12  8  1  0  0  0  0
 13 20  2  0  0  0  0
 13 24  1  0  0  0  0
 14 25  1  0  0  0  0
 15 12  1  0  0  0  0
 15  5  1  0  0  0  0
 16  3  1  0  0  0  0
 16  8  1  0  0  0  0
 17 10  2  0  0  0  0
 18  4  2  0  0  0  0
 18 20  1  0  0  0  0
 20 11  1  0  0  0  0
 21 23  1  0  0  0  0
 23  4  1  0  0  0  0
 24 22  2  0  0  0  0
 25  9  2  0  0  0  0
 25 17  1  0  0  0  0
 26 21  1  0  0  0  0
 26  1  1  0  0  0  0
 27  1  2  0  0  0  0
 27  9  1  0  0  0  0
 28 29  2  0  0  0  0
 28 17  1  0  0  0  0
 30 34  1  0  0  0  0
 31 32  1  0  0  0  0
 32 34  1  0  0  0  0
 32 29  1  0  0  0  0
 33 31  1  0  0  0  0
 33 30  1  0  0  0  0
M  END
>  <MODEL>
4

>  <REMARK>
 VINA RESULT:      -8.3      2.002      4.524
  Name = 
  2 active torsions:
  status: ('A' for Active; 'I' for Inactive)
    1  A    between atoms: C_17  and  C_28
    2  A    between atoms: C_29  and  N_32
                            x       y       z     vdW  Elec       q    Type
                         _______ _______ _______ _____ _____    ______ ____

>  <TORSDO>
F 2

$$$$
=
 OpenBabel11112417593D

 34 40  0  0  0  0  0  0  0  0999 V2000
  187.3450  176.4100  141.3060 C   0  0  0  0  0  0  0  0  0  0  0  0
  188.2290  174.7590  139.6540 C   0  0  0  0  0  3  0  0  0  0  0  0
  184.7830  176.9800  146.1070 O   0  0  0  0  0  0  0  0  0  0  0  0
  186.6620  177.9130  143.1260 C   0  0  0  0  0  0  0  0  0  0  0  0
  187.4850  177.5730  145.3410 C   0  0  0  0  0  0  0  0  0  0  0  0
  186.6910  176.7760  147.5650 C   0  0  0  0  0  2  0  0  0  0  0  0
  185.1770  176.9570  147.4530 C   0  0  0  0  0  2  0  0  0  0  0  0
  185.0610  179.3980  146.0060 C   0  0  0  0  0  2  0  0  0  0  0  0
  188.9020  174.6090  141.7790 C   0  0  0  0  0  0  0  0  0  0  0  0
  190.8600  172.4430  142.7280 C   0  0  0  0  0  3  0  0  0  0  0  0
  188.2330  176.4770  144.9110 C   0  0  0  0  0  3  0  0  0  0  0  0
  186.0410  179.5360  144.8380 C   0  0  0  0  0  2  0  0  0  0  0  0
  188.9840  174.9550  143.1360 C   0  0  0  0  0  0  0  0  0  0  0  0
  189.0780  173.7150  139.7330 N   0  0  0  0  0  0  0  0  0  0  0  0
  186.7200  178.2880  144.4480 N   0  0  0  0  0  0  0  0  0  0  0  0
  184.1120  178.1990  145.9040 C   0  0  0  0  0  2  0  0  0  0  0  0
  190.3900  172.6120  141.4230 C   0  0  0  0  0  0  0  0  0  0  0  0
  187.4110  176.8060  142.6630 C   0  0  0  0  0  0  0  0  0  0  0  0
  187.4730  177.8590  146.8150 C   0  0  0  0  0  2  0  0  0  0  0  0
  188.2190  176.0750  143.5740 C   0  0  0  0  0  0  0  0  0  0  0  0
  185.3460  177.8580  140.9910 C   0  0  0  0  0  2  0  0  0  0  0  0
  190.5890  173.1650  143.8820 C   0  0  0  0  0  3  0  0  0  0  0  0
  185.8560  178.7250  142.1340 C   0  0  0  0  0  2  0  0  0  0  0  0
  189.7670  174.2660  144.0620 C   0  0  0  0  0  3  0  0  0  0  0  0
  189.4950  173.6110  141.0190 C   0  0  0  0  0  0  0  0  0  0  0  0
  186.5240  177.1780  140.3070 C   0  0  0  0  0  2  0  0  0  0  0  0
  188.1110  175.3180  140.9060 C   0  0  0  0  0  0  0  0  0  0  0  0
  190.8690  171.6690  140.3890 C   0  0  0  0  0  3  0  0  0  0  0  0
  190.4430  170.4120  140.2830 C   0  0  0  0  0  3  0  0  0  0  0  0
  192.3530  168.1730  137.9620 C   0  0  0  0  0  2  0  0  0  0  0  0
  190.1470  169.2000  138.1020 C   0  0  0  0  0  2  0  0  0  0  0  0
  190.9340  169.5350  139.2660 N   0  0  0  0  0  0  0  0  0  0  0  0
  190.9600  168.1660  137.3460 C   0  0  0  0  0  2  0  0  0  0  0  0
  192.2360  168.9000  139.2880 C   0  0  0  0  0  2  0  0  0  0  0  0
  1 18  1  0  0  0  0
  2 14  2  0  0  0  0
  2 27  1  0  0  0  0
  3  7  1  0  0  0  0
  4 15  1  0  0  0  0
  5 19  1  0  0  0  0
  7  6  1  0  0  0  0
  9 13  1  0  0  0  0
 10 22  1  0  0  0  0
 11  5  2  0  0  0  0
 12  8  1  0  0  0  0
 13 20  2  0  0  0  0
 13 24  1  0  0  0  0
 14 25  1  0  0  0  0
 15 12  1  0  0  0  0
 15  5  1  0  0  0  0
 16  8  1  0  0  0  0
 16  3  1  0  0  0  0
 17 10  2  0  0  0  0
 18  4  2  0  0  0  0
 18 20  1  0  0  0  0
 19  6  1  0  0  0  0
 20 11  1  0  0  0  0
 21 23  1  0  0  0  0
 22 24  2  0  0  0  0
 23  4  1  0  0  0  0
 25 17  1  0  0  0  0
 25  9  2  0  0  0  0
 26 21  1  0  0  0  0
 26  1  1  0  0  0  0
 27  1  2  0  0  0  0
 27  9  1  0  0  0  0
 28 17  1  0  0  0  0
 29 28  2  0  0  0  0
 30 34  1  0  0  0  0
 31 32  1  0  0  0  0
 32 34  1  0  0  0  0
 32 29  1  0  0  0  0
 33 30  1  0  0  0  0
 33 31  1  0  0  0  0
M  END
>  <MODEL>
5

>  <REMARK>
 VINA RESULT:      -8.1      3.807      8.711
  Name = 
  2 active torsions:
  status: ('A' for Active; 'I' for Inactive)
    1  A    between atoms: C_17  and  C_28
    2  A    between atoms: C_29  and  N_32
                            x       y       z     vdW  Elec       q    Type
                         _______ _______ _______ _____ _____    ______ ____

>  <TORSDO>
F 2

$$$$
=
 OpenBabel11112417593D

 34 40  0  0  0  0  0  0  0  0999 V2000
  194.2630  174.4150  145.0470 C   0  0  0  0  0  0  0  0  0  0  0  0
  192.7380  176.3890  144.9350 C   0  0  0  0  0  3  0  0  0  0  0  0
  194.9910  169.4610  147.2520 O   0  0  0  0  0  0  0  0  0  0  0  0
  195.5380  172.3150  145.0510 C   0  0  0  0  0  0  0  0  0  0  0  0
  194.4560  170.2480  144.5440 C   0  0  0  0  0  0  0  0  0  0  0  0
  193.6890  168.1710  145.6880 C   0  0  0  0  0  2  0  0  0  0  0  0
  194.5410  168.1660  146.9570 C   0  0  0  0  0  2  0  0  0  0  0  0
  197.0050  169.1280  145.9220 C   0  0  0  0  0  2  0  0  0  0  0  0
  191.9050  174.3680  144.4740 C   0  0  0  0  0  0  0  0  0  0  0  0
  188.9590  173.9420  143.7230 C   0  0  0  0  0  3  0  0  0  0  0  0
  193.2450  170.9130  144.3490 C   0  0  0  0  0  3  0  0  0  0  0  0
  196.9110  170.3010  144.9430 C   0  0  0  0  0  2  0  0  0  0  0  0
  191.9150  172.9760  144.2940 C   0  0  0  0  0  0  0  0  0  0  0  0
  191.4310  176.5500  144.6440 N   0  0  0  0  0  0  0  0  0  0  0  0
  195.5910  170.9510  144.8780 N   0  0  0  0  0  0  0  0  0  0  0  0
  196.3950  169.3990  147.3010 C   0  0  0  0  0  2  0  0  0  0  0  0
  189.5630  175.1660  144.0210 C   0  0  0  0  0  0  0  0  0  0  0  0
  194.3240  173.0140  144.8590 C   0  0  0  0  0  0  0  0  0  0  0  0
  194.4320  168.7480  144.4790 C   0  0  0  0  0  2  0  0  0  0  0  0
  193.1530  172.2980  144.4940 C   0  0  0  0  0  0  0  0  0  0  0  0
  196.4780  174.3490  146.1780 C   0  0  0  0  0  2  0  0  0  0  0  0
  189.4930  172.6610  143.6830 C   0  0  0  0  0  3  0  0  0  0  0  0
  196.7950  173.0940  145.3750 C   0  0  0  0  0  2  0  0  0  0  0  0
  190.7880  172.2370  143.9330 C   0  0  0  0  0  3  0  0  0  0  0  0
  190.9110  175.3300  144.3620 C   0  0  0  0  0  0  0  0  0  0  0  0
  195.4900  175.2100  145.4040 C   0  0  0  0  0  2  0  0  0  0  0  0
  193.0420  175.0510  144.8350 C   0  0  0  0  0  0  0  0  0  0  0  0
  188.7200  176.3810  143.9770 C   0  0  0  0  0  3  0  0  0  0  0  0
  187.5660  176.5030  144.6320 C   0  0  0  0  0  3  0  0  0  0  0  0
  185.7120  179.6410  143.7580 C   0  0  0  0  0  2  0  0  0  0  0  0
  186.2620  178.3390  145.7450 C   0  0  0  0  0  2  0  0  0  0  0  0
  186.7840  177.6970  144.5600 N   0  0  0  0  0  0  0  0  0  0  0  0
  185.3990  179.4810  145.2400 C   0  0  0  0  0  2  0  0  0  0  0  0
  186.4340  178.3770  143.3300 C   0  0  0  0  0  2  0  0  0  0  0  0
  1 26  1  0  0  0  0
  3 16  1  0  0  0  0
  4 23  1  0  0  0  0
  5 15  1  0  0  0  0
  6  7  1  0  0  0  0
  7  3  1  0  0  0  0
  8 16  1  0  0  0  0
  9 27  1  0  0  0  0
 10 17  2  0  0  0  0
 11 20  1  0  0  0  0
 11  5  2  0  0  0  0
 12  8  1  0  0  0  0
 13  9  1  0  0  0  0
 13 20  2  0  0  0  0
 14  2  2  0  0  0  0
 15 12  1  0  0  0  0
 15  4  1  0  0  0  0
 17 25  1  0  0  0  0
 18  1  1  0  0  0  0
 18  4  2  0  0  0  0
 19  5  1  0  0  0  0
 19  6  1  0  0  0  0
 20 18  1  0  0  0  0
 22 10  1  0  0  0  0
 22 24  2  0  0  0  0
 23 21  1  0  0  0  0
 24 13  1  0  0  0  0
 25  9  2  0  0  0  0
 25 14  1  0  0  0  0
 26 21  1  0  0  0  0
 27  2  1  0  0  0  0
 27  1  2  0  0  0  0
 28 17  1  0  0  0  0
 28 29  2  0  0  0  0
 30 33  1  0  0  0  0
 32 29  1  0  0  0  0
 32 31  1  0  0  0  0
 33 31  1  0  0  0  0
 34 30  1  0  0  0  0
 34 32  1  0  0  0  0
M  END
>  <MODEL>
6

>  <REMARK>
 VINA RESULT:      -8.1      4.087      7.857
  Name = 
  2 active torsions:
  status: ('A' for Active; 'I' for Inactive)
    1  A    between atoms: C_17  and  C_28
    2  A    between atoms: C_29  and  N_32
                            x       y       z     vdW  Elec       q    Type
                         _______ _______ _______ _____ _____    ______ ____

>  <TORSDO>
F 2

$$$$
=
 OpenBabel11112417593D

 34 40  0  0  0  0  0  0  0  0999 V2000
  190.2130  172.7950  143.1500 C   0  0  0  0  0  0  0  0  0  0  0  0
  188.0320  173.3950  142.0910 C   0  0  0  0  0  3  0  0  0  0  0  0
  195.4730  174.2150  143.6410 O   0  0  0  0  0  0  0  0  0  0  0  0
  192.3470  172.4690  144.3220 C   0  0  0  0  0  0  0  0  0  0  0  0
  193.3320  174.2630  145.5520 C   0  0  0  0  0  0  0  0  0  0  0  0
  195.2470  175.8490  145.3980 C   0  0  0  0  0  2  0  0  0  0  0  0
  196.1860  175.1310  144.4280 C   0  0  0  0  0  2  0  0  0  0  0  0
  195.8340  172.4430  145.2740 C   0  0  0  0  0  2  0  0  0  0  0  0
  189.0960  174.9450  143.2980 C   0  0  0  0  0  0  0  0  0  0  0  0
  187.9740  177.7760  143.6850 C   0  0  0  0  0  3  0  0  0  0  0  0
  192.2630  175.0950  145.2220 C   0  0  0  0  0  3  0  0  0  0  0  0
  194.3950  172.0130  145.5680 C   0  0  0  0  0  2  0  0  0  0  0  0
  190.1120  175.4840  144.1020 C   0  0  0  0  0  0  0  0  0  0  0  0
  187.2790  174.5130  142.0620 N   0  0  0  0  0  0  0  0  0  0  0  0
  193.3600  172.9580  145.1140 N   0  0  0  0  0  0  0  0  0  0  0  0
  196.0670  172.9580  143.8490 C   0  0  0  0  0  2  0  0  0  0  0  0
  187.3770  176.7480  142.9520 C   0  0  0  0  0  0  0  0  0  0  0  0
  191.2500  173.2910  143.9730 C   0  0  0  0  0  0  0  0  0  0  0  0
  194.4770  174.8810  146.3010 C   0  0  0  0  0  2  0  0  0  0  0  0
  191.2040  174.6320  144.4380 C   0  0  0  0  0  0  0  0  0  0  0  0
  191.6380  170.8470  142.5450 C   0  0  0  0  0  2  0  0  0  0  0  0
  189.1650  177.7980  144.3980 C   0  0  0  0  0  3  0  0  0  0  0  0
  192.3550  171.0210  143.8770 C   0  0  0  0  0  2  0  0  0  0  0  0
  190.1030  176.7940  144.5820 C   0  0  0  0  0  3  0  0  0  0  0  0
  187.9130  175.4640  142.7920 C   0  0  0  0  0  0  0  0  0  0  0  0
  190.2130  171.3710  142.6640 C   0  0  0  0  0  2  0  0  0  0  0  0
  189.1540  173.6470  142.8470 C   0  0  0  0  0  0  0  0  0  0  0  0
  186.0830  177.0310  142.2940 C   0  0  0  0  0  3  0  0  0  0  0  0
  185.1680  177.8620  142.7900 C   0  0  0  0  0  3  0  0  0  0  0  0
  182.2970  178.3720  140.4360 C   0  0  0  0  0  2  0  0  0  0  0  0
  182.7770  178.6330  142.8110 C   0  0  0  0  0  2  0  0  0  0  0  0
  183.9300  178.1050  142.1180 N   0  0  0  0  0  0  0  0  0  0  0  0
  181.6530  178.6250  141.7930 C   0  0  0  0  0  2  0  0  0  0  0  0
  183.6960  177.8550  140.7110 C   0  0  0  0  0  2  0  0  0  0  0  0
  1 18  1  0  0  0  0
  2 27  1  0  0  0  0
  3 16  1  0  0  0  0
  3  7  1  0  0  0  0
  4 15  1  0  0  0  0
  5 19  1  0  0  0  0
  6 19  1  0  0  0  0
  7  6  1  0  0  0  0
  8 12  1  0  0  0  0
  9 13  1  0  0  0  0
 10 22  1  0  0  0  0
 11  5  2  0  0  0  0
 13 20  2  0  0  0  0
 13 24  1  0  0  0  0
 14  2  2  0  0  0  0
 14 25  1  0  0  0  0
 15  5  1  0  0  0  0
 15 12  1  0  0  0  0
 16  8  1  0  0  0  0
 17 10  2  0  0  0  0
 18  4  2  0  0  0  0
 18 20  1  0  0  0  0
 20 11  1  0  0  0  0
 21 26  1  0  0  0  0
 21 23  1  0  0  0  0
 22 24  2  0  0  0  0
 23  4  1  0  0  0  0
 25 17  1  0  0  0  0
 25  9  2  0  0  0  0
 26  1  1  0  0  0  0
 27  1  2  0  0  0  0
 27  9  1  0  0  0  0
 28 29  2  0  0  0  0
 28 17  1  0  0  0  0
 30 34  1  0  0  0  0
 30 33  1  0  0  0  0
 32 29  1  0  0  0  0
 32 31  1  0  0  0  0
 33 31  1  0  0  0  0
 34 32  1  0  0  0  0
M  END
>  <MODEL>
7

>  <REMARK>
 VINA RESULT:      -8.0      2.638      5.317
  Name = 
  2 active torsions:
  status: ('A' for Active; 'I' for Inactive)
    1  A    between atoms: C_17  and  C_28
    2  A    between atoms: C_29  and  N_32
                            x       y       z     vdW  Elec       q    Type
                         _______ _______ _______ _____ _____    ______ ____

>  <TORSDO>
F 2

$$$$
=
 OpenBabel11112417593D

 34 40  0  0  0  0  0  0  0  0999 V2000
  190.3070  176.4410  145.7640 C   0  0  0  0  0  0  0  0  0  0  0  0
  187.9780  177.3450  145.7690 C   0  0  0  0  0  3  0  0  0  0  0  0
  193.3610  171.9910  144.8740 O   0  0  0  0  0  0  0  0  0  0  0  0
  192.5540  175.4940  145.4730 C   0  0  0  0  0  0  0  0  0  0  0  0
  193.1660  174.4540  143.4120 C   0  0  0  0  0  0  0  0  0  0  0  0
  193.5970  172.1820  142.4820 C   0  0  0  0  0  2  0  0  0  0  0  0
  193.9070  171.3700  143.7400 C   0  0  0  0  0  2  0  0  0  0  0  0
  195.3990  173.2790  145.2230 C   0  0  0  0  0  2  0  0  0  0  0  0
  188.7340  176.3490  143.9170 C   0  0  0  0  0  0  0  0  0  0  0  0
  187.0070  176.0480  141.3970 C   0  0  0  0  0  3  0  0  0  0  0  0
  191.9050  174.7290  142.8830 C   0  0  0  0  0  3  0  0  0  0  0  0
  194.8510  174.7070  145.2260 C   0  0  0  0  0  2  0  0  0  0  0  0
  189.6520  175.6830  143.0910 C   0  0  0  0  0  0  0  0  0  0  0  0
  186.9830  177.3810  144.8590 N   0  0  0  0  0  0  0  0  0  0  0  0
  193.4850  174.8480  144.6920 N   0  0  0  0  0  0  0  0  0  0  0  0
  194.4280  172.2220  145.7600 C   0  0  0  0  0  2  0  0  0  0  0  0
  186.6180  176.6570  142.5920 C   0  0  0  0  0  0  0  0  0  0  0  0
  191.2690  175.7870  144.9600 C   0  0  0  0  0  0  0  0  0  0  0  0
  194.0970  173.6270  142.5730 C   0  0  0  0  0  2  0  0  0  0  0  0
  190.9390  175.4020  143.6340 C   0  0  0  0  0  0  0  0  0  0  0  0
  191.7010  175.9990  147.7760 C   0  0  0  0  0  2  0  0  0  0  0  0
  188.2080  175.4500  141.0410 C   0  0  0  0  0  3  0  0  0  0  0  0
  192.9200  175.9680  146.8640 C   0  0  0  0  0  2  0  0  0  0  0  0
  189.3680  175.2900  141.7820 C   0  0  0  0  0  3  0  0  0  0  0  0
  187.4280  176.7790  143.7280 C   0  0  0  0  0  0  0  0  0  0  0  0
  190.6310  176.8910  147.1620 C   0  0  0  0  0  2  0  0  0  0  0  0
  189.0610  176.7110  145.2030 C   0  0  0  0  0  0  0  0  0  0  0  0
  185.2500  177.2140  142.6700 C   0  0  0  0  0  3  0  0  0  0  0  0
  184.5820  177.6800  141.6170 C   0  0  0  0  0  3  0  0  0  0  0  0
  181.0900  178.9880  141.2310 C   0  0  0  0  0  2  0  0  0  0  0  0
  182.7790  178.7810  142.9770 C   0  0  0  0  0  2  0  0  0  0  0  0
  183.2600  178.2110  141.7400 N   0  0  0  0  0  0  0  0  0  0  0  0
  181.3170  179.1070  142.7320 C   0  0  0  0  0  2  0  0  0  0  0  0
  182.2810  178.2320  140.6720 C   0  0  0  0  0  2  0  0  0  0  0  0
  1 26  1  0  0  0  0
  3 16  1  0  0  0  0
  4 23  1  0  0  0  0
  5 15  1  0  0  0  0
  6 19  1  0  0  0  0
  6  7  1  0  0  0  0
  7  3  1  0  0  0  0
  8 12  1  0  0  0  0
  8 16  1  0  0  0  0
  9 27  1  0  0  0  0
 10 17  2  0  0  0  0
 11  5  2  0  0  0  0
 11 20  1  0  0  0  0
 13 20  2  0  0  0  0
 13  9  1  0  0  0  0
 14  2  2  0  0  0  0
 15 12  1  0  0  0  0
 15  4  1  0  0  0  0
 17 28  1  0  0  0  0
 17 25  1  0  0  0  0
 18  4  2  0  0  0  0
 18  1  1  0  0  0  0
 19  5  1  0  0  0  0
 20 18  1  0  0  0  0
 22 10  1  0  0  0  0
 22 24  2  0  0  0  0
 23 21  1  0  0  0  0
 24 13  1  0  0  0  0
 25  9  2  0  0  0  0
 25 14  1  0  0  0  0
 26 21  1  0  0  0  0
 27  1  2  0  0  0  0
 27  2  1  0  0  0  0
 29 32  1  0  0  0  0
 29 28  2  0  0  0  0
 30 33  1  0  0  0  0
 32 31  1  0  0  0  0
 33 31  1  0  0  0  0
 34 30  1  0  0  0  0
 34 32  1  0  0  0  0
M  END
>  <MODEL>
8

>  <REMARK>
 VINA RESULT:      -7.6      2.128      3.616
  Name = 
  2 active torsions:
  status: ('A' for Active; 'I' for Inactive)
    1  A    between atoms: C_17  and  C_28
    2  A    between atoms: C_29  and  N_32
                            x       y       z     vdW  Elec       q    Type
                         _______ _______ _______ _____ _____    ______ ____

>  <TORSDO>
F 2

$$$$
=
 OpenBabel11112417593D

 34 40  0  0  0  0  0  0  0  0999 V2000
  193.5870  174.8800  144.8860 C   0  0  0  0  0  0  0  0  0  0  0  0
  191.8610  176.6840  144.9550 C   0  0  0  0  0  3  0  0  0  0  0  0
  194.6530  169.6760  146.1950 O   0  0  0  0  0  0  0  0  0  0  0  0
  195.0900  172.9510  144.6570 C   0  0  0  0  0  0  0  0  0  0  0  0
  194.3170  170.9350  143.6370 C   0  0  0  0  0  0  0  0  0  0  0  0
  193.6830  168.6080  144.2650 C   0  0  0  0  0  2  0  0  0  0  0  0
  194.3910  168.4290  145.6080 C   0  0  0  0  0  2  0  0  0  0  0  0
  196.8200  169.8070  145.0900 C   0  0  0  0  0  2  0  0  0  0  0  0
  191.3240  174.7270  144.0220 C   0  0  0  0  0  0  0  0  0  0  0  0
  188.5430  174.1840  142.8380 C   0  0  0  0  0  3  0  0  0  0  0  0
  193.0640  171.5080  143.4200 C   0  0  0  0  0  3  0  0  0  0  0  0
  196.6940  171.1380  144.3460 C   0  0  0  0  0  2  0  0  0  0  0  0
  191.5150  173.4070  143.5860 C   0  0  0  0  0  0  0  0  0  0  0  0
  190.5820  176.7760  144.5380 N   0  0  0  0  0  0  0  0  0  0  0  0
  195.3200  171.6610  144.2390 N   0  0  0  0  0  0  0  0  0  0  0  0
  196.0410  169.7370  146.4080 C   0  0  0  0  0  2  0  0  0  0  0  0
  188.9650  175.3750  143.4350 C   0  0  0  0  0  0  0  0  0  0  0  0
  193.8300  173.5570  144.4480 C   0  0  0  0  0  0  0  0  0  0  0  0
  194.4760  169.4830  143.2900 C   0  0  0  0  0  2  0  0  0  0  0  0
  192.7960  172.8220  143.8100 C   0  0  0  0  0  0  0  0  0  0  0  0
  195.6630  174.7970  146.2550 C   0  0  0  0  0  2  0  0  0  0  0  0
  189.2240  172.9940  142.6270 C   0  0  0  0  0  3  0  0  0  0  0  0
  196.2070  173.7640  145.2770 C   0  0  0  0  0  2  0  0  0  0  0  0
  190.5270  172.6520  142.9540 C   0  0  0  0  0  3  0  0  0  0  0  0
  190.2410  175.5940  143.9680 C   0  0  0  0  0  0  0  0  0  0  0  0
  194.6670  175.6990  145.5380 C   0  0  0  0  0  2  0  0  0  0  0  0
  192.3290  175.4280  144.6450 C   0  0  0  0  0  0  0  0  0  0  0  0
  187.9950  176.4890  143.5150 C   0  0  0  0  0  3  0  0  0  0  0  0
  187.1010  176.6210  144.4930 C   0  0  0  0  0  3  0  0  0  0  0  0
  185.1570  179.8070  144.1470 C   0  0  0  0  0  2  0  0  0  0  0  0
  185.0750  177.7520  145.4560 C   0  0  0  0  0  2  0  0  0  0  0  0
  186.1820  177.7160  144.5290 N   0  0  0  0  0  0  0  0  0  0  0  0
  184.2820  178.9940  145.0940 C   0  0  0  0  0  2  0  0  0  0  0  0
  186.2530  178.8760  143.6640 C   0  0  0  0  0  2  0  0  0  0  0  0
  1 26  1  0  0  0  0
  3 16  1  0  0  0  0
  4 23  1  0  0  0  0
  5 15  1  0  0  0  0
  6  7  1  0  0  0  0
  7  3  1  0  0  0  0
  8 16  1  0  0  0  0
  9 27  1  0  0  0  0
 10 17  2  0  0  0  0
 11  5  2  0  0  0  0
 11 20  1  0  0  0  0
 12  8  1  0  0  0  0
 13 20  2  0  0  0  0
 13  9  1  0  0  0  0
 14  2  2  0  0  0  0
 15 12  1  0  0  0  0
 15  4  1  0  0  0  0
 17 28  1  0  0  0  0
 17 25  1  0  0  0  0
 18  4  2  0  0  0  0
 18  1  1  0  0  0  0
 19  5  1  0  0  0  0
 19  6  1  0  0  0  0
 20 18  1  0  0  0  0
 22 10  1  0  0  0  0
 22 24  2  0  0  0  0
 23 21  1  0  0  0  0
 24 13  1  0  0  0  0
 25  9  2  0  0  0  0
 25 14  1  0  0  0  0
 26 21  1  0  0  0  0
 27  1  2  0  0  0  0
 27  2  1  0  0  0  0
 28 29  2  0  0  0  0
 29 32  1  0  0  0  0
 30 33  1  0  0  0  0
 32 31  1  0  0  0  0
 33 31  1  0  0  0  0
 34 30  1  0  0  0  0
 34 32  1  0  0  0  0
M  END
>  <MODEL>
9

>  <REMARK>
 VINA RESULT:      -7.6      3.751      7.117
  Name = 
  2 active torsions:
  status: ('A' for Active; 'I' for Inactive)
    1  A    between atoms: C_17  and  C_28
    2  A    between atoms: C_29  and  N_32
                            x       y       z     vdW  Elec       q    Type
                         _______ _______ _______ _____ _____    ______ ____

>  <TORSDO>
F 2

$$$$
