=
 OpenBabel11112416393D

 32 37  0  0  1  0  0  0  0  0999 V2000
  192.7820  175.9410  143.4540 C   0  0  0  0  0  2  0  0  0  0  0  0
  187.3300  176.9010  143.6150 C   0  0  0  0  0  0  0  0  0  0  0  0
  185.9430  178.0360  148.1350 C   0  0  0  0  0  3  0  0  0  0  0  0
  184.7740  178.4480  147.6580 O   0  0  0  0  0  0  0  0  0  0  0  0
  185.7220  177.3390  141.7400 C   0  0  0  0  0  0  0  0  0  0  0  0
  184.4630  177.8040  141.3850 C   0  0  0  0  0  0  0  0  0  0  0  0
  189.7490  176.2240  143.1930 C   0  0  1  0  0  3  0  0  0  0  0  0
  188.9790  176.5770  145.5330 C   0  0  0  0  0  2  0  0  0  0  0  0
  182.4750  178.6390  141.6250 C   0  0  0  0  0  0  0  0  0  0  0  0
  191.1820  175.5260  145.2120 C   0  0  0  0  0  2  0  0  0  0  0  0
  186.9190  177.5290  147.2770 C   0  0  0  0  0  3  0  0  0  0  0  0
  187.6120  176.9490  145.0040 C   0  0  0  0  0  0  0  0  0  0  0  0
  186.6540  177.4580  145.9020 C   0  0  0  0  0  0  0  0  0  0  0  0
  185.1050  177.8630  144.0640 C   0  0  0  0  0  0  0  0  0  0  0  0
  182.6890  178.3990  140.3090 N   0  0  0  0  0  0  0  0  0  0  0  0
  191.9460  174.9280  142.6550 C   0  0  0  0  0  2  0  0  0  0  0  0
  189.7710  175.6510  144.6220 C   0  0  2  0  0  3  0  0  0  0  0  0
  183.9110  177.8860  140.1590 N   0  0  0  0  0  0  0  0  0  0  0  0
  190.6060  175.4750  142.1580 C   0  0  0  0  0  2  0  0  0  0  0  0
  192.0840  176.5100  144.6150 N   0  0  0  0  0  0  0  0  0  0  0  0
  184.4800  178.4010  146.3630 C   0  0  0  0  0  3  0  0  0  0  0  0
  185.4060  177.9050  145.4320 C   0  0  0  0  0  0  0  0  0  0  0  0
  183.8820  178.3060  143.6310 N   0  0  0  0  0  0  0  0  0  0  0  0
  188.3170  176.2400  142.6820 C   0  0  0  0  0  2  0  0  0  0  0  0
  186.5830  176.8910  140.7450 O   0  0  0  0  0  1  0  0  0  0  0  0
  181.2240  179.2140  142.1890 C   0  0  0  0  0  1  0  0  0  0  0  0
  186.0720  177.3560  143.1280 C   0  0  0  0  0  0  0  0  0  0  0  0
  183.5960  178.2630  142.3130 C   0  0  0  0  0  0  0  0  0  0  0  0
  193.1000  176.8140  145.6080 C   0  0  0  0  0  2  0  0  0  0  0  0
  194.4560  176.3180  145.1360 C   0  0  2  0  0  3  0  0  0  0  0  0
  194.9910  175.3040  146.1250 C   0  0  0  0  0  1  0  0  0  0  0  0
  195.3470  177.3880  145.0430 O   0  0  0  0  0  1  0  0  0  0  0  0
  1 20  1  0  0  0  0
  2 12  1  0  0  0  0
  4  3  1  0  0  0  0
  5 27  1  0  0  0  0
  6  5  2  0  0  0  0
  6 28  1  0  0  0  0
  7 19  1  6  0  0  0
  7 17  1  0  0  0  0
  9 26  1  0  0  0  0
  9 28  2  0  0  0  0
 11  3  2  0  0  0  0
 12  8  1  0  0  0  0
 12 13  2  0  0  0  0
 13 11  1  0  0  0  0
 14 22  1  0  0  0  0
 15  9  1  0  0  0  0
 16  1  1  0  0  0  0
 17 10  1  1  0  0  0
 17  8  1  0  0  0  0
 18 15  2  0  0  0  0
 18  6  1  0  0  0  0
 19 16  1  0  0  0  0
 20 10  1  0  0  0  0
 20 29  1  0  0  0  0
 21  4  1  0  0  0  0
 22 13  1  0  0  0  0
 22 21  2  0  0  0  0
 23 14  2  0  0  0  0
 24  7  1  0  0  0  0
 24  2  1  0  0  0  0
 25  5  1  0  0  0  0
 27  2  2  0  0  0  0
 27 14  1  0  0  0  0
 28 23  1  0  0  0  0
 30 29  1  0  0  0  0
 30 31  1  1  0  0  0
 32 30  1  0  0  0  0
M  END
>  <MODEL>
1

>  <REMARK>
 VINA RESULT:      -9.0      0.000      0.000
  Name = 
  2 active torsions:
  status: ('A' for Active; 'I' for Inactive)
    1  A    between atoms: N_20  and  C_29
    2  A    between atoms: C_29  and  C_30
                            x       y       z     vdW  Elec       q    Type
                         _______ _______ _______ _____ _____    ______ ____

>  <TORSDO>
F 2

$$$$
=
 OpenBabel11112416393D

 32 37  0  0  1  0  0  0  0  0999 V2000
  185.1610  179.1210  146.1970 C   0  0  0  0  0  2  0  0  0  0  0  0
  189.5930  176.0920  144.8370 C   0  0  0  0  0  0  0  0  0  0  0  0
  189.0130  174.1280  140.4260 C   0  0  0  0  0  3  0  0  0  0  0  0
  190.3030  173.8130  140.4130 O   0  0  0  0  0  0  0  0  0  0  0  0
  191.8850  176.0570  145.8540 C   0  0  0  0  0  0  0  0  0  0  0  0
  193.2100  175.6680  145.7020 C   0  0  0  0  0  0  0  0  0  0  0  0
  187.6750  177.4140  145.8680 C   0  0  1  0  0  3  0  0  0  0  0  0
  187.3040  176.2110  143.7200 C   0  0  0  0  0  2  0  0  0  0  0  0
  194.9680  174.8040  144.7700 C   0  0  0  0  0  0  0  0  0  0  0  0
  185.3220  177.1090  144.8730 C   0  0  0  0  0  2  0  0  0  0  0  0
  188.4560  174.7820  141.5250 C   0  0  0  0  0  3  0  0  0  0  0  0
  188.7470  175.7610  143.7480 C   0  0  0  0  0  0  0  0  0  0  0  0
  189.2720  175.1040  142.6190 C   0  0  0  0  0  0  0  0  0  0  0  0
  191.4880  175.0720  143.6340 C   0  0  0  0  0  0  0  0  0  0  0  0
  195.3200  175.3090  145.9750 N   0  0  0  0  0  0  0  0  0  0  0  0
  185.6860  178.2360  147.3390 C   0  0  0  0  0  2  0  0  0  0  0  0
  186.7110  176.4960  145.0930 C   0  0  2  0  0  3  0  0  0  0  0  0
  194.2410  175.8420  146.5500 N   0  0  0  0  0  0  0  0  0  0  0  0
  187.1760  177.9030  147.2380 C   0  0  0  0  0  2  0  0  0  0  0  0
  185.3960  178.5700  144.8550 N   0  0  0  0  0  0  0  0  0  0  0  0
  191.1140  174.1000  141.4250 C   0  0  0  0  0  3  0  0  0  0  0  0
  190.6350  174.7570  142.5690 C   0  0  0  0  0  0  0  0  0  0  0  0
  192.8130  174.7230  143.5610 N   0  0  0  0  0  0  0  0  0  0  0  0
  188.9910  176.6840  146.0890 C   0  0  0  0  0  2  0  0  0  0  0  0
  191.5060  176.7270  147.0120 O   0  0  0  0  0  1  0  0  0  0  0  0
  195.9020  174.1290  143.8270 C   0  0  0  0  0  1  0  0  0  0  0  0
  190.9740  175.7500  144.7930 C   0  0  0  0  0  0  0  0  0  0  0  0
  193.6310  175.0270  144.5890 C   0  0  0  0  0  0  0  0  0  0  0  0
  184.3120  179.0420  144.0110 C   0  0  0  0  0  2  0  0  0  0  0  0
  184.1970  178.1700  142.7720 C   0  0  2  0  0  3  0  0  0  0  0  0
  185.2530  178.5840  141.7690 C   0  0  0  0  0  1  0  0  0  0  0  0
  182.9340  178.3210  142.2010 O   0  0  0  0  0  1  0  0  0  0  0  0
  1 16  1  0  0  0  0
  2 24  1  0  0  0  0
  3 11  2  0  0  0  0
  4  3  1  0  0  0  0
  4 21  1  0  0  0  0
  5 25  1  0  0  0  0
  6  5  2  0  0  0  0
  6 18  1  0  0  0  0
  7 24  1  1  0  0  0
  7 19  1  0  0  0  0
  8 12  1  0  0  0  0
  9 15  1  0  0  0  0
 10 17  1  0  0  0  0
 11 13  1  0  0  0  0
 12  2  1  0  0  0  0
 13 12  2  0  0  0  0
 14 27  1  0  0  0  0
 15 18  2  0  0  0  0
 17  8  1  6  0  0  0
 17  7  1  0  0  0  0
 19 16  1  0  0  0  0
 20 10  1  0  0  0  0
 20  1  1  0  0  0  0
 21 22  2  0  0  0  0
 22 13  1  0  0  0  0
 22 14  1  0  0  0  0
 23 14  2  0  0  0  0
 23 28  1  0  0  0  0
 26  9  1  0  0  0  0
 27  2  2  0  0  0  0
 27  5  1  0  0  0  0
 28  9  2  0  0  0  0
 28  6  1  0  0  0  0
 29 20  1  0  0  0  0
 30 31  1  6  0  0  0
 30 29  1  0  0  0  0
 32 30  1  0  0  0  0
M  END
>  <MODEL>
2

>  <REMARK>
 VINA RESULT:      -8.9      2.329      8.819
  Name = 
  2 active torsions:
  status: ('A' for Active; 'I' for Inactive)
    1  A    between atoms: N_20  and  C_29
    2  A    between atoms: C_29  and  C_30
                            x       y       z     vdW  Elec       q    Type
                         _______ _______ _______ _____ _____    ______ ____

>  <TORSDO>
F 2

$$$$
=
 OpenBabel11112416393D

 32 37  0  0  1  0  0  0  0  0999 V2000
  184.0800  178.3380  143.1710 C   0  0  0  0  0  2  0  0  0  0  0  0
  188.9060  175.6330  143.4290 C   0  0  0  0  0  0  0  0  0  0  0  0
  191.1510  176.5730  147.6390 C   0  0  0  0  0  3  0  0  0  0  0  0
  191.9880  175.5700  147.4000 O   0  0  0  0  0  0  0  0  0  0  0  0
  189.7500  173.7230  142.0400 C   0  0  0  0  0  0  0  0  0  0  0  0
  190.6920  172.7080  141.9230 C   0  0  0  0  0  0  0  0  0  0  0  0
  186.7320  176.8450  142.8850 C   0  0  1  0  0  3  0  0  0  0  0  0
  188.0050  177.4920  144.9240 C   0  0  0  0  0  2  0  0  0  0  0  0
  192.3740  171.4420  142.4460 C   0  0  0  0  0  0  0  0  0  0  0  0
  186.1580  178.9640  144.2260 C   0  0  0  0  0  2  0  0  0  0  0  0
  190.1430  176.8860  146.7260 C   0  0  0  0  0  3  0  0  0  0  0  0
  189.0210  176.4190  144.6040 C   0  0  0  0  0  0  0  0  0  0  0  0
  190.0220  176.1310  145.5510 C   0  0  0  0  0  0  0  0  0  0  0  0
  190.8320  174.2880  144.1770 C   0  0  0  0  0  0  0  0  0  0  0  0
  191.8710  171.0280  141.2590 N   0  0  0  0  0  0  0  0  0  0  0  0
  184.8950  178.3900  141.8690 C   0  0  0  0  0  2  0  0  0  0  0  0
  187.2630  178.0320  143.7100 C   0  0  2  0  0  3  0  0  0  0  0  0
  190.8370  171.8040  140.9360 N   0  0  0  0  0  0  0  0  0  0  0  0
  185.8500  177.2090  141.6790 C   0  0  0  0  0  2  0  0  0  0  0  0
  184.8990  178.2370  144.3870 N   0  0  0  0  0  0  0  0  0  0  0  0
  191.9100  174.8270  146.3010 C   0  0  0  0  0  3  0  0  0  0  0  0
  190.9250  175.0750  145.3320 C   0  0  0  0  0  0  0  0  0  0  0  0
  191.7240  173.2630  143.9870 N   0  0  0  0  0  0  0  0  0  0  0  0
  187.9080  176.0300  142.3670 C   0  0  0  0  0  2  0  0  0  0  0  0
  188.7950  173.8770  141.0410 O   0  0  0  0  0  1  0  0  0  0  0  0
  193.5350  170.8210  143.1390 C   0  0  0  0  0  1  0  0  0  0  0  0
  189.8110  174.5580  143.2010 C   0  0  0  0  0  0  0  0  0  0  0  0
  191.6310  172.5080  142.8730 C   0  0  0  0  0  0  0  0  0  0  0  0
  184.1580  178.8980  145.4480 C   0  0  0  0  0  2  0  0  0  0  0  0
  184.3800  178.1770  146.7660 C   0  0  2  0  0  3  0  0  0  0  0  0
  185.4870  178.8680  147.5350 C   0  0  0  0  0  1  0  0  0  0  0  0
  184.7410  176.8510  146.5280 O   0  0  0  0  0  1  0  0  0  0  0  0
  1 20  1  0  0  0  0
  2 12  1  0  0  0  0
  4  3  1  0  0  0  0
  5 27  1  0  0  0  0
  6  5  2  0  0  0  0
  6 28  1  0  0  0  0
  7 19  1  6  0  0  0
  7 17  1  0  0  0  0
  9 28  2  0  0  0  0
  9 26  1  0  0  0  0
 10 20  1  0  0  0  0
 11  3  2  0  0  0  0
 12  8  1  0  0  0  0
 12 13  2  0  0  0  0
 13 11  1  0  0  0  0
 14 22  1  0  0  0  0
 15  9  1  0  0  0  0
 16  1  1  0  0  0  0
 17 10  1  1  0  0  0
 17  8  1  0  0  0  0
 18 15  2  0  0  0  0
 18  6  1  0  0  0  0
 19 16  1  0  0  0  0
 20 29  1  0  0  0  0
 21  4  1  0  0  0  0
 22 13  1  0  0  0  0
 22 21  2  0  0  0  0
 23 14  2  0  0  0  0
 24  7  1  0  0  0  0
 24  2  1  0  0  0  0
 25  5  1  0  0  0  0
 27  2  2  0  0  0  0
 27 14  1  0  0  0  0
 28 23  1  0  0  0  0
 29 30  1  0  0  0  0
 30 31  1  6  0  0  0
 32 30  1  0  0  0  0
M  END
>  <MODEL>
3

>  <REMARK>
 VINA RESULT:      -8.8      2.553      7.677
  Name = 
  2 active torsions:
  status: ('A' for Active; 'I' for Inactive)
    1  A    between atoms: N_20  and  C_29
    2  A    between atoms: C_29  and  C_30
                            x       y       z     vdW  Elec       q    Type
                         _______ _______ _______ _____ _____    ______ ____

>  <TORSDO>
F 2

$$$$
=
 OpenBabel11112416393D

 32 37  0  0  1  0  0  0  0  0999 V2000
  185.8320  178.8280  146.3450 C   0  0  0  0  0  2  0  0  0  0  0  0
  190.0990  175.9080  144.3610 C   0  0  0  0  0  0  0  0  0  0  0  0
  188.9160  173.8540  140.1150 C   0  0  0  0  0  3  0  0  0  0  0  0
  190.1980  173.5760  139.9080 O   0  0  0  0  0  0  0  0  0  0  0  0
  192.5190  175.9570  145.0160 C   0  0  0  0  0  0  0  0  0  0  0  0
  193.8160  175.6040  144.6690 C   0  0  0  0  0  0  0  0  0  0  0  0
  188.3190  177.1900  145.6570 C   0  0  1  0  0  3  0  0  0  0  0  0
  187.6630  175.9410  143.6050 C   0  0  0  0  0  2  0  0  0  0  0  0
  195.4390  174.7770  143.4890 C   0  0  0  0  0  0  0  0  0  0  0  0
  185.8530  176.8000  145.0360 C   0  0  0  0  0  2  0  0  0  0  0  0
  188.5130  174.5100  141.2780 C   0  0  0  0  0  3  0  0  0  0  0  0
  189.1070  175.5340  143.4180 C   0  0  0  0  0  0  0  0  0  0  0  0
  189.4750  174.8740  142.2300 C   0  0  0  0  0  0  0  0  0  0  0  0
  191.8200  174.9230  142.8950 C   0  0  0  0  0  0  0  0  0  0  0  0
  195.9540  175.3130  144.6210 N   0  0  0  0  0  0  0  0  0  0  0  0
  186.5520  177.9790  147.4040 C   0  0  0  0  0  2  0  0  0  0  0  0
  187.2780  176.2320  145.0480 C   0  0  2  0  0  3  0  0  0  0  0  0
  194.9590  175.8230  145.3470 N   0  0  0  0  0  0  0  0  0  0  0  0
  188.0200  177.6870  147.0810 C   0  0  0  0  0  2  0  0  0  0  0  0
  185.8770  178.2620  144.9890 N   0  0  0  0  0  0  0  0  0  0  0  0
  191.1450  173.9040  140.7810 C   0  0  0  0  0  3  0  0  0  0  0  0
  190.8240  174.5660  141.9760 C   0  0  0  0  0  0  0  0  0  0  0  0
  193.1280  174.6130  142.6250 N   0  0  0  0  0  0  0  0  0  0  0  0
  189.6760  176.5030  145.6830 C   0  0  0  0  0  2  0  0  0  0  0  0
  192.3000  176.6350  146.2100 O   0  0  0  0  0  1  0  0  0  0  0  0
  196.2380  174.1140  142.4240 C   0  0  0  0  0  1  0  0  0  0  0  0
  191.4670  175.6060  144.1110 C   0  0  0  0  0  0  0  0  0  0  0  0
  194.0830  174.9580  143.5130 C   0  0  0  0  0  0  0  0  0  0  0  0
  184.6630  178.6880  144.3160 C   0  0  0  0  0  2  0  0  0  0  0  0
  184.9650  179.0460  142.8710 C   0  0  2  0  0  3  0  0  0  0  0  0
  184.3370  178.0150  141.9570 C   0  0  0  0  0  1  0  0  0  0  0  0
  186.3450  179.0650  142.6650 O   0  0  0  0  0  1  0  0  0  0  0  0
  1 16  1  0  0  0  0
  2 24  1  0  0  0  0
  3 11  2  0  0  0  0
  4  3  1  0  0  0  0
  4 21  1  0  0  0  0
  5 25  1  0  0  0  0
  6  5  2  0  0  0  0
  6 18  1  0  0  0  0
  7 24  1  1  0  0  0
  7 19  1  0  0  0  0
  9 28  2  0  0  0  0
  9 15  1  0  0  0  0
 10 17  1  0  0  0  0
 11 13  1  0  0  0  0
 12  8  1  0  0  0  0
 12  2  1  0  0  0  0
 13 12  2  0  0  0  0
 14 27  1  0  0  0  0
 15 18  2  0  0  0  0
 17  8  1  6  0  0  0
 17  7  1  0  0  0  0
 19 16  1  0  0  0  0
 20 10  1  0  0  0  0
 20  1  1  0  0  0  0
 21 22  2  0  0  0  0
 22 13  1  0  0  0  0
 22 14  1  0  0  0  0
 23 14  2  0  0  0  0
 23 28  1  0  0  0  0
 26  9  1  0  0  0  0
 27  2  2  0  0  0  0
 27  5  1  0  0  0  0
 28  6  1  0  0  0  0
 29 20  1  0  0  0  0
 30 31  1  6  0  0  0
 30 29  1  0  0  0  0
 32 30  1  0  0  0  0
M  END
>  <MODEL>
4

>  <REMARK>
 VINA RESULT:      -8.2      2.285      8.745
  Name = 
  2 active torsions:
  status: ('A' for Active; 'I' for Inactive)
    1  A    between atoms: N_20  and  C_29
    2  A    between atoms: C_29  and  C_30
                            x       y       z     vdW  Elec       q    Type
                         _______ _______ _______ _____ _____    ______ ____

>  <TORSDO>
F 2

$$$$
=
 OpenBabel11112416393D

 32 37  0  0  1  0  0  0  0  0999 V2000
  184.3880  178.1810  143.3630 C   0  0  0  0  0  2  0  0  0  0  0  0
  188.9490  175.2770  142.1630 C   0  0  0  0  0  0  0  0  0  0  0  0
  191.7920  174.8920  146.0890 C   0  0  0  0  0  3  0  0  0  0  0  0
  192.5000  173.9560  145.4670 O   0  0  0  0  0  0  0  0  0  0  0  0
  189.4350  173.7930  140.2010 C   0  0  0  0  0  0  0  0  0  0  0  0
  190.2600  172.8070  139.6770 C   0  0  0  0  0  0  0  0  0  0  0  0
  186.8390  176.6990  142.2950 C   0  0  1  0  0  3  0  0  0  0  0  0
  188.4160  176.6870  144.2210 C   0  0  0  0  0  2  0  0  0  0  0  0
  191.8780  171.3640  139.5830 C   0  0  0  0  0  0  0  0  0  0  0  0
  186.6320  178.3840  144.2280 C   0  0  0  0  0  2  0  0  0  0  0  0
  190.7070  175.4970  145.4550 C   0  0  0  0  0  3  0  0  0  0  0  0
  189.2840  175.6980  143.4760 C   0  0  0  0  0  0  0  0  0  0  0  0
  190.3690  175.1080  144.1510 C   0  0  0  0  0  0  0  0  0  0  0  0
  190.8290  173.6840  142.2270 C   0  0  0  0  0  0  0  0  0  0  0  0
  191.1910  171.3230  138.4160 N   0  0  0  0  0  0  0  0  0  0  0  0
  185.0290  178.5550  142.0180 C   0  0  0  0  0  2  0  0  0  0  0  0
  187.5740  177.5800  143.3220 C   0  0  2  0  0  3  0  0  0  0  0  0
  190.1960  172.2090  138.4720 N   0  0  0  0  0  0  0  0  0  0  0  0
  185.8440  177.4280  141.3770 C   0  0  0  0  0  2  0  0  0  0  0  0
  185.3450  177.7040  144.3720 N   0  0  0  0  0  0  0  0  0  0  0  0
  192.2150  173.5540  144.2330 C   0  0  0  0  0  3  0  0  0  0  0  0
  191.1400  174.1120  143.5240 C   0  0  0  0  0  0  0  0  0  0  0  0
  191.5950  172.7110  141.6370 N   0  0  0  0  0  0  0  0  0  0  0  0
  187.8610  176.0050  141.4080 C   0  0  0  0  0  2  0  0  0  0  0  0
  188.3770  174.2670  139.4340 O   0  0  0  0  0  1  0  0  0  0  0  0
  193.0590  170.5170  139.9030 C   0  0  0  0  0  1  0  0  0  0  0  0
  189.7180  174.2660  141.5220 C   0  0  0  0  0  0  0  0  0  0  0  0
  191.2930  172.3030  140.3880 C   0  0  0  0  0  0  0  0  0  0  0  0
  184.8080  178.0770  145.6690 C   0  0  0  0  0  2  0  0  0  0  0  0
  185.9380  178.2690  146.6660 C   0  0  2  0  0  3  0  0  0  0  0  0
  186.1380  176.9890  147.4490 C   0  0  0  0  0  1  0  0  0  0  0  0
  185.6240  179.3050  147.5460 O   0  0  0  0  0  1  0  0  0  0  0  0
  1 20  1  0  0  0  0
  2 12  1  0  0  0  0
  4  3  1  0  0  0  0
  5 27  1  0  0  0  0
  6  5  2  0  0  0  0
  6 28  1  0  0  0  0
  7 19  1  6  0  0  0
  7 17  1  0  0  0  0
  9 26  1  0  0  0  0
  9 28  2  0  0  0  0
 10 20  1  0  0  0  0
 11  3  2  0  0  0  0
 12 13  2  0  0  0  0
 12  8  1  0  0  0  0
 13 11  1  0  0  0  0
 14 22  1  0  0  0  0
 15 18  2  0  0  0  0
 15  9  1  0  0  0  0
 16  1  1  0  0  0  0
 17  8  1  1  0  0  0
 17 10  1  0  0  0  0
 18  6  1  0  0  0  0
 19 16  1  0  0  0  0
 20 29  1  0  0  0  0
 21  4  1  0  0  0  0
 22 13  1  0  0  0  0
 22 21  2  0  0  0  0
 23 14  2  0  0  0  0
 24  2  1  0  0  0  0
 24  7  1  0  0  0  0
 25  5  1  0  0  0  0
 27  2  2  0  0  0  0
 27 14  1  0  0  0  0
 28 23  1  0  0  0  0
 29 30  1  0  0  0  0
 30 31  1  1  0  0  0
 30 32  1  0  0  0  0
M  END
>  <MODEL>
5

>  <REMARK>
 VINA RESULT:      -8.1      3.067      7.649
  Name = 
  2 active torsions:
  status: ('A' for Active; 'I' for Inactive)
    1  A    between atoms: N_20  and  C_29
    2  A    between atoms: C_29  and  C_30
                            x       y       z     vdW  Elec       q    Type
                         _______ _______ _______ _____ _____    ______ ____

>  <TORSDO>
F 2

$$$$
=
 OpenBabel11112416393D

 32 37  0  0  1  0  0  0  0  0999 V2000
  195.1710  173.8000  145.7220 C   0  0  0  0  0  2  0  0  0  0  0  0
  190.2640  176.2570  144.9790 C   0  0  0  0  0  0  0  0  0  0  0  0
  188.3290  174.9210  140.7230 C   0  0  0  0  0  3  0  0  0  0  0  0
  187.1680  175.4400  141.1040 O   0  0  0  0  0  0  0  0  0  0  0  0
  188.7840  177.4170  146.6380 C   0  0  0  0  0  0  0  0  0  0  0  0
  187.5140  177.9150  146.9020 C   0  0  0  0  0  0  0  0  0  0  0  0
  192.6060  175.4560  145.5830 C   0  0  1  0  0  3  0  0  0  0  0  0
  191.7050  174.9730  143.3130 C   0  0  0  0  0  2  0  0  0  0  0  0
  185.4230  178.3930  146.5770 C   0  0  0  0  0  0  0  0  0  0  0  0
  194.1020  174.5540  143.6940 C   0  0  0  0  0  2  0  0  0  0  0  0
  189.4380  174.9730  141.5670 C   0  0  0  0  0  3  0  0  0  0  0  0
  190.4130  175.6540  143.7040 C   0  0  0  0  0  0  0  0  0  0  0  0
  189.3160  175.5790  142.8250 C   0  0  0  0  0  0  0  0  0  0  0  0
  187.9010  176.7190  144.4500 C   0  0  0  0  0  0  0  0  0  0  0  0
  185.7810  178.8250  147.8100 N   0  0  0  0  0  0  0  0  0  0  0  0
  195.1530  175.2870  146.1110 C   0  0  0  0  0  2  0  0  0  0  0  0
  192.9270  175.4630  144.0770 C   0  0  2  0  0  3  0  0  0  0  0  0
  187.0660  178.5320  148.0120 N   0  0  0  0  0  0  0  0  0  0  0  0
  193.7740  175.8120  146.5180 C   0  0  0  0  0  2  0  0  0  0  0  0
  194.2350  173.4500  144.6450 N   0  0  0  0  0  0  0  0  0  0  0  0
  187.0050  176.0220  142.2870 C   0  0  0  0  0  3  0  0  0  0  0  0
  188.0700  176.1160  143.1960 C   0  0  0  0  0  0  0  0  0  0  0  0
  186.6760  177.2340  144.7880 N   0  0  0  0  0  0  0  0  0  0  0  0
  191.4780  176.4390  145.8590 C   0  0  0  0  0  2  0  0  0  0  0  0
  189.7700  177.5320  147.6110 O   0  0  0  0  0  1  0  0  0  0  0  0
  184.0630  178.5370  145.9900 C   0  0  0  0  0  1  0  0  0  0  0  0
  189.0060  176.7980  145.3670 C   0  0  0  0  0  0  0  0  0  0  0  0
  186.5180  177.8150  145.9960 C   0  0  0  0  0  0  0  0  0  0  0  0
  194.8220  172.3340  143.9250 C   0  0  0  0  0  2  0  0  0  0  0  0
  194.0160  171.0710  144.1710 C   0  0  2  0  0  3  0  0  0  0  0  0
  192.5480  171.4260  144.2790 C   0  0  0  0  0  1  0  0  0  0  0  0
  194.4330  170.4660  145.3570 O   0  0  0  0  0  1  0  0  0  0  0  0
  1 16  1  0  0  0  0
  2 27  2  0  0  0  0
  2 24  1  0  0  0  0
  3  4  1  0  0  0  0
  3 11  2  0  0  0  0
  4 21  1  0  0  0  0
  5  6  2  0  0  0  0
  5 25  1  0  0  0  0
  6 18  1  0  0  0  0
  7 24  1  6  0  0  0
  7 19  1  0  0  0  0
  8 12  1  0  0  0  0
  9 15  1  0  0  0  0
 10 17  1  0  0  0  0
 10 20  1  0  0  0  0
 11 13  1  0  0  0  0
 12  2  1  0  0  0  0
 13 22  1  0  0  0  0
 13 12  2  0  0  0  0
 14 23  2  0  0  0  0
 14 27  1  0  0  0  0
 15 18  2  0  0  0  0
 16 19  1  0  0  0  0
 17  8  1  6  0  0  0
 17  7  1  0  0  0  0
 20  1  1  0  0  0  0
 21 22  2  0  0  0  0
 22 14  1  0  0  0  0
 23 28  1  0  0  0  0
 26  9  1  0  0  0  0
 27  5  1  0  0  0  0
 28  9  2  0  0  0  0
 28  6  1  0  0  0  0
 29 30  1  0  0  0  0
 29 20  1  0  0  0  0
 30 31  1  1  0  0  0
 30 32  1  0  0  0  0
M  END
>  <MODEL>
6

>  <REMARK>
 VINA RESULT:      -8.0      2.830      5.365
  Name = 
  2 active torsions:
  status: ('A' for Active; 'I' for Inactive)
    1  A    between atoms: N_20  and  C_29
    2  A    between atoms: C_29  and  C_30
                            x       y       z     vdW  Elec       q    Type
                         _______ _______ _______ _____ _____    ______ ____

>  <TORSDO>
F 2

$$$$
=
 OpenBabel11112416393D

 32 37  0  0  1  0  0  0  0  0999 V2000
  192.8180  170.6270  141.9400 C   0  0  0  0  0  2  0  0  0  0  0  0
  189.4710  174.5940  143.8730 C   0  0  0  0  0  0  0  0  0  0  0  0
  191.2400  176.4320  148.0130 C   0  0  0  0  0  3  0  0  0  0  0  0
  190.3770  177.4380  147.9180 O   0  0  0  0  0  0  0  0  0  0  0  0
  187.6300  175.8430  142.7170 C   0  0  0  0  0  0  0  0  0  0  0  0
  186.7880  176.9470  142.7470 C   0  0  0  0  0  0  0  0  0  0  0  0
  190.6610  172.6220  142.7840 C   0  0  1  0  0  3  0  0  0  0  0  0
  191.4210  173.4140  145.0180 C   0  0  0  0  0  2  0  0  0  0  0  0
  185.8990  178.7920  143.4650 C   0  0  0  0  0  0  0  0  0  0  0  0
  192.3170  171.2670  144.2130 C   0  0  0  0  0  2  0  0  0  0  0  0
  191.2680  175.4310  147.0420 C   0  0  0  0  0  3  0  0  0  0  0  0
  190.3720  174.5010  144.9660 C   0  0  0  0  0  0  0  0  0  0  0  0
  190.3760  175.4950  145.9630 C   0  0  0  0  0  0  0  0  0  0  0  0
  188.5780  176.6850  144.8260 C   0  0  0  0  0  0  0  0  0  0  0  0
  185.2940  178.4410  142.3050 N   0  0  0  0  0  0  0  0  0  0  0  0
  191.3240  170.2740  141.8650 C   0  0  0  0  0  2  0  0  0  0  0  0
  191.0830  172.1780  144.1970 C   0  0  2  0  0  3  0  0  0  0  0  0
  185.8400  177.3070  141.8620 N   0  0  0  0  0  0  0  0  0  0  0  0
  190.3970  171.4890  141.7780 C   0  0  0  0  0  2  0  0  0  0  0  0
  193.1670  171.5240  143.0510 N   0  0  0  0  0  0  0  0  0  0  0  0
  189.5150  177.5400  146.9130 C   0  0  0  0  0  3  0  0  0  0  0  0
  189.4780  176.5750  145.8940 C   0  0  0  0  0  0  0  0  0  0  0  0
  187.7130  177.7480  144.7810 N   0  0  0  0  0  0  0  0  0  0  0  0
  189.3940  173.4590  142.8790 C   0  0  0  0  0  2  0  0  0  0  0  0
  187.5390  174.9530  141.6520 O   0  0  0  0  0  1  0  0  0  0  0  0
  185.5650  180.0030  144.2630 C   0  0  0  0  0  1  0  0  0  0  0  0
  188.5630  175.6860  143.7910 C   0  0  0  0  0  0  0  0  0  0  0  0
  186.8480  177.8490  143.7510 C   0  0  0  0  0  0  0  0  0  0  0  0
  194.5290  171.2020  143.4390 C   0  0  0  0  0  2  0  0  0  0  0  0
  195.3270  172.4760  143.6520 C   0  0  2  0  0  3  0  0  0  0  0  0
  195.5570  172.6830  145.1340 C   0  0  0  0  0  1  0  0  0  0  0  0
  194.6270  173.5670  143.1370 O   0  0  0  0  0  1  0  0  0  0  0  0
  1 20  1  0  0  0  0
  2 12  1  0  0  0  0
  4  3  1  0  0  0  0
  5  6  2  0  0  0  0
  5 27  1  0  0  0  0
  6 28  1  0  0  0  0
  7 19  1  6  0  0  0
  7 24  1  0  0  0  0
  7 17  1  0  0  0  0
  9 28  2  0  0  0  0
  9 26  1  0  0  0  0
 11  3  2  0  0  0  0
 12  8  1  0  0  0  0
 12 13  2  0  0  0  0
 13 11  1  0  0  0  0
 14 22  1  0  0  0  0
 15  9  1  0  0  0  0
 16  1  1  0  0  0  0
 17 10  1  6  0  0  0
 17  8  1  0  0  0  0
 18 15  2  0  0  0  0
 18  6  1  0  0  0  0
 19 16  1  0  0  0  0
 20 29  1  0  0  0  0
 20 10  1  0  0  0  0
 21  4  1  0  0  0  0
 22 13  1  0  0  0  0
 22 21  2  0  0  0  0
 23 14  2  0  0  0  0
 24  2  1  0  0  0  0
 25  5  1  0  0  0  0
 27  2  2  0  0  0  0
 27 14  1  0  0  0  0
 28 23  1  0  0  0  0
 29 30  1  0  0  0  0
 30 31  1  1  0  0  0
 32 30  1  0  0  0  0
M  END
>  <MODEL>
7

>  <REMARK>
 VINA RESULT:      -7.9      3.007      4.170
  Name = 
  2 active torsions:
  status: ('A' for Active; 'I' for Inactive)
    1  A    between atoms: N_20  and  C_29
    2  A    between atoms: C_29  and  C_30
                            x       y       z     vdW  Elec       q    Type
                         _______ _______ _______ _____ _____    ______ ____

>  <TORSDO>
F 2

$$$$
=
 OpenBabel11112416393D

 32 37  0  0  1  0  0  0  0  0999 V2000
  185.4090  177.5690  141.1170 C   0  0  0  0  0  2  0  0  0  0  0  0
  189.9500  175.3580  143.3890 C   0  0  0  0  0  0  0  0  0  0  0  0
  190.6570  177.1560  147.8510 C   0  0  0  0  0  3  0  0  0  0  0  0
  191.5530  176.2020  148.0790 O   0  0  0  0  0  0  0  0  0  0  0  0
  191.2560  173.3260  142.7130 C   0  0  0  0  0  0  0  0  0  0  0  0
  192.2090  172.3890  143.0890 C   0  0  0  0  0  0  0  0  0  0  0  0
  188.0460  176.2780  141.9680 C   0  0  1  0  0  3  0  0  0  0  0  0
  188.5580  177.3530  144.1540 C   0  0  0  0  0  2  0  0  0  0  0  0
  193.6590  171.3720  144.3420 C   0  0  0  0  0  0  0  0  0  0  0  0
  187.0060  178.5310  142.6490 C   0  0  0  0  0  2  0  0  0  0  0  0
  189.9990  177.2310  146.6240 C   0  0  0  0  0  3  0  0  0  0  0  0
  189.6510  176.3320  144.3760 C   0  0  0  0  0  0  0  0  0  0  0  0
  190.2920  176.2870  145.6290 C   0  0  0  0  0  0  0  0  0  0  0  0
  191.5570  174.3200  144.9440 C   0  0  0  0  0  0  0  0  0  0  0  0
  193.5860  170.7290  143.1520 N   0  0  0  0  0  0  0  0  0  0  0  0
  186.6060  177.4770  140.1560 C   0  0  0  0  0  2  0  0  0  0  0  0
  188.2430  177.6240  142.6910 C   0  0  2  0  0  3  0  0  0  0  0  0
  192.6950  171.3520  142.3810 N   0  0  0  0  0  0  0  0  0  0  0  0
  187.6010  176.3660  140.4990 C   0  0  0  0  0  2  0  0  0  0  0  0
  185.7840  177.7370  142.5280 N   0  0  0  0  0  0  0  0  0  0  0  0
  191.8600  175.2860  147.1660 C   0  0  0  0  0  3  0  0  0  0  0  0
  191.2440  175.2900  145.9050 C   0  0  0  0  0  0  0  0  0  0  0  0
  192.4880  173.3570  145.2380 N   0  0  0  0  0  0  0  0  0  0  0  0
  189.3480  175.4920  142.0100 C   0  0  0  0  0  2  0  0  0  0  0  0
  190.6790  173.2350  141.4510 O   0  0  0  0  0  1  0  0  0  0  0  0
  194.5420  170.9710  145.4710 C   0  0  0  0  0  1  0  0  0  0  0  0
  190.9080  174.3410  143.6610 C   0  0  0  0  0  0  0  0  0  0  0  0
  192.7880  172.4260  144.3090 C   0  0  0  0  0  0  0  0  0  0  0  0
  184.7180  178.4960  143.1580 C   0  0  0  0  0  2  0  0  0  0  0  0
  185.1960  179.0670  144.4810 C   0  0  2  0  0  3  0  0  0  0  0  0
  184.5430  178.3110  145.6190 C   0  0  0  0  0  1  0  0  0  0  0  0
  184.8520  180.4170  144.5670 O   0  0  0  0  0  1  0  0  0  0  0  0
  1 20  1  0  0  0  0
  2 27  2  0  0  0  0
  2 12  1  0  0  0  0
  3  4  1  0  0  0  0
  5  6  2  0  0  0  0
  5 27  1  0  0  0  0
  6 28  1  0  0  0  0
  7 19  1  6  0  0  0
  7 24  1  0  0  0  0
  7 17  1  0  0  0  0
  8 12  1  0  0  0  0
  9 26  1  0  0  0  0
 11  3  2  0  0  0  0
 12 13  2  0  0  0  0
 13 22  1  0  0  0  0
 13 11  1  0  0  0  0
 14 23  2  0  0  0  0
 14 22  1  0  0  0  0
 15  9  1  0  0  0  0
 16 19  1  0  0  0  0
 16  1  1  0  0  0  0
 17 10  1  1  0  0  0
 17  8  1  0  0  0  0
 18  6  1  0  0  0  0
 18 15  2  0  0  0  0
 20 10  1  0  0  0  0
 20 29  1  0  0  0  0
 21  4  1  0  0  0  0
 22 21  2  0  0  0  0
 24  2  1  0  0  0  0
 25  5  1  0  0  0  0
 27 14  1  0  0  0  0
 28  9  2  0  0  0  0
 28 23  1  0  0  0  0
 29 30  1  0  0  0  0
 30 32  1  0  0  0  0
 30 31  1  1  0  0  0
M  END
>  <MODEL>
8

>  <REMARK>
 VINA RESULT:      -7.7      2.828      8.058
  Name = 
  2 active torsions:
  status: ('A' for Active; 'I' for Inactive)
    1  A    between atoms: N_20  and  C_29
    2  A    between atoms: C_29  and  C_30
                            x       y       z     vdW  Elec       q    Type
                         _______ _______ _______ _____ _____    ______ ____

>  <TORSDO>
F 2

$$$$
=
 OpenBabel11112416393D

 32 37  0  0  1  0  0  0  0  0999 V2000
  194.2240  173.7490  140.3680 C   0  0  0  0  0  2  0  0  0  0  0  0
  190.0190  175.6140  143.4520 C   0  0  0  0  0  0  0  0  0  0  0  0
  191.6010  176.9120  147.8630 C   0  0  0  0  0  3  0  0  0  0  0  0
  190.4410  177.5210  148.0840 O   0  0  0  0  0  0  0  0  0  0  0  0
  187.7210  176.3410  142.7590 C   0  0  0  0  0  0  0  0  0  0  0  0
  186.5640  177.0160  143.1260 C   0  0  0  0  0  0  0  0  0  0  0  0
  191.6510  174.5440  141.8140 C   0  0  1  0  0  3  0  0  0  0  0  0
  192.3930  174.9940  144.1480 C   0  0  0  0  0  2  0  0  0  0  0  0
  185.2040  178.1720  144.3600 C   0  0  0  0  0  0  0  0  0  0  0  0
  193.8510  173.5890  142.7470 C   0  0  0  0  0  2  0  0  0  0  0  0
  191.8370  176.2580  146.6540 C   0  0  0  0  0  3  0  0  0  0  0  0
  191.0370  175.5970  144.4390 C   0  0  0  0  0  0  0  0  0  0  0  0
  190.8380  176.2500  145.6710 C   0  0  0  0  0  0  0  0  0  0  0  0
  188.6030  176.9340  144.9790 C   0  0  0  0  0  0  0  0  0  0  0  0
  184.6030  177.9160  143.1730 N   0  0  0  0  0  0  0  0  0  0  0  0
  192.9460  172.9020  140.2580 C   0  0  0  0  0  2  0  0  0  0  0  0
  192.3890  173.9580  143.0330 C   0  0  2  0  0  3  0  0  0  0  0  0
  185.4380  177.2060  142.4130 N   0  0  0  0  0  0  0  0  0  0  0  0
  191.6560  173.6740  140.5470 C   0  0  0  0  0  2  0  0  0  0  0  0
  194.3930  174.4140  141.6670 N   0  0  0  0  0  0  0  0  0  0  0  0
  189.4670  177.5400  147.1810 C   0  0  0  0  0  3  0  0  0  0  0  0
  189.6240  176.9070  145.9380 C   0  0  0  0  0  0  0  0  0  0  0  0
  187.4290  177.5820  145.2640 N   0  0  0  0  0  0  0  0  0  0  0  0
  190.2000  174.8080  142.1870 C   0  0  0  0  0  2  0  0  0  0  0  0
  187.7960  175.7660  141.4960 O   0  0  0  0  0  1  0  0  0  0  0  0
  184.5880  178.9440  145.4730 C   0  0  0  0  0  1  0  0  0  0  0  0
  188.7890  176.2820  143.7100 C   0  0  0  0  0  0  0  0  0  0  0  0
  186.4480  177.6040  144.3370 C   0  0  0  0  0  0  0  0  0  0  0  0
  195.8230  174.5300  141.8970 C   0  0  0  0  0  2  0  0  0  0  0  0
  196.2080  175.9900  142.0630 C   0  0  2  0  0  3  0  0  0  0  0  0
  196.0360  176.3910  143.5130 C   0  0  0  0  0  1  0  0  0  0  0  0
  195.3930  176.7900  141.2630 O   0  0  0  0  0  1  0  0  0  0  0  0
  1 20  1  0  0  0  0
  2 27  2  0  0  0  0
  2 12  1  0  0  0  0
  3  4  1  0  0  0  0
  5  6  2  0  0  0  0
  5 27  1  0  0  0  0
  6 28  1  0  0  0  0
  7 19  1  6  0  0  0
  7 24  1  0  0  0  0
  7 17  1  0  0  0  0
  8 12  1  0  0  0  0
  9 26  1  0  0  0  0
 11  3  2  0  0  0  0
 12 13  2  0  0  0  0
 13 22  1  0  0  0  0
 13 11  1  0  0  0  0
 14 23  2  0  0  0  0
 14 22  1  0  0  0  0
 15  9  1  0  0  0  0
 16  1  1  0  0  0  0
 16 19  1  0  0  0  0
 17 10  1  6  0  0  0
 17  8  1  0  0  0  0
 18  6  1  0  0  0  0
 18 15  2  0  0  0  0
 20 29  1  0  0  0  0
 20 10  1  0  0  0  0
 21  4  1  0  0  0  0
 22 21  2  0  0  0  0
 24  2  1  0  0  0  0
 25  5  1  0  0  0  0
 27 14  1  0  0  0  0
 28  9  2  0  0  0  0
 28 23  1  0  0  0  0
 29 30  1  0  0  0  0
 30 31  1  1  0  0  0
 32 30  1  0  0  0  0
M  END
>  <MODEL>
9

>  <REMARK>
 VINA RESULT:      -7.7      2.450      3.876
  Name = 
  2 active torsions:
  status: ('A' for Active; 'I' for Inactive)
    1  A    between atoms: N_20  and  C_29
    2  A    between atoms: C_29  and  C_30
                            x       y       z     vdW  Elec       q    Type
                         _______ _______ _______ _____ _____    ______ ____

>  <TORSDO>
F 2

$$$$
