=
 OpenBabel11112417413D

 28 32  0  0  1  0  0  0  0  0999 V2000
  190.2870  175.8800  143.6690 C   0  0  0  0  0  0  0  0  0  0  0  0
  188.4730  177.8480  141.6730 O   0  0  0  0  0  0  0  0  0  0  0  0
  186.2930  177.1190  147.8090 O   0  0  0  0  0  0  0  0  0  0  0  0
  190.1510  173.2650  142.6650 C   0  0  0  0  0  3  0  0  0  0  0  0
  185.5280  177.8680  145.6370 C   0  0  2  0  0  3  0  0  0  0  0  0
  190.4440  177.2810  144.1720 C   0  0  0  0  0  2  0  0  0  0  0  0
  187.8360  175.9620  140.2310 O   0  0  0  0  0  0  0  0  0  0  0  0
  187.3480  176.9420  141.2600 S   0  0  0  0  0  0  0  0  0  0  0  0
  184.8200  178.0150  141.2680 C   0  0  0  0  0  0  0  0  0  0  0  0
  186.6720  176.0450  142.6560 C   0  0  2  0  0  3  0  0  0  0  0  0
  190.4940  177.2900  147.8520 O   0  0  0  0  0  0  0  0  0  0  0  0
  187.6590  177.2300  144.5480 C   0  0  1  0  0  3  0  0  0  0  0  0
  184.6110  177.5210  142.4540 N   0  0  0  0  0  0  0  0  0  0  0  0
  186.0740  177.8890  140.5990 N   0  0  0  0  0  2  0  0  0  0  0  0
  190.0850  176.9710  146.7060 C   0  0  0  0  0  0  0  0  0  0  0  0
  189.0200  175.2730  143.4520 C   0  0  0  0  0  0  0  0  0  0  0  0
  186.5220  177.3160  146.5870 C   0  0  0  0  0  0  0  0  0  0  0  0
  183.7010  178.6960  140.5660 C   0  0  0  0  0  1  0  0  0  0  0  0
  188.8070  176.1990  146.5950 C   0  0  0  0  0  2  0  0  0  0  0  0
  188.9780  173.9610  142.9580 C   0  0  0  0  0  3  0  0  0  0  0  0
  191.4550  175.1700  143.3700 C   0  0  0  0  0  3  0  0  0  0  0  0
  191.3890  173.8690  142.8700 C   0  0  0  0  0  3  0  0  0  0  0  0
  190.8810  177.3180  145.5640 N   0  0  0  0  0  2  0  0  0  0  0  0
  186.2660  177.8320  144.2910 C   0  0  1  0  0  3  0  0  0  0  0  0
  187.7530  176.9910  145.9740 N   0  0  0  0  0  0  0  0  0  0  0  0
  185.5780  176.8610  143.3380 C   0  0  2  0  0  3  0  0  0  0  0  0
  185.2130  179.3080  145.9960 C   0  0  0  0  0  1  0  0  0  0  0  0
  187.6830  175.9090  143.7860 C   0  0  2  0  0  3  0  0  0  0  0  0
  1  6  1  0  0  0  0
  4 22  2  0  0  0  0
  4 20  1  0  0  0  0
  5 27  1  1  0  0  0
  5 17  1  0  0  0  0
  6 23  1  0  0  0  0
  7  8  2  0  0  0  0
  8  2  2  0  0  0  0
  9 13  2  0  0  0  0
 10  8  1  6  0  0  0
 10 26  1  0  0  0  0
 10 28  1  0  0  0  0
 12 25  1  1  0  0  0
 13 26  1  0  0  0  0
 14  8  1  0  0  0  0
 14  9  1  0  0  0  0
 15 11  2  0  0  0  0
 16  1  1  0  0  0  0
 16 28  1  0  0  0  0
 17  3  2  0  0  0  0
 18  9  1  0  0  0  0
 19 15  1  0  0  0  0
 20 16  2  0  0  0  0
 21  1  2  0  0  0  0
 22 21  1  0  0  0  0
 23 15  1  0  0  0  0
 24 12  1  0  0  0  0
 24  5  1  0  0  0  0
 25 17  1  0  0  0  0
 25 19  1  0  0  0  0
 26 24  1  0  0  0  0
 28 12  1  0  0  0  0
M  END
>  <MODEL>
1

>  <REMARK>
 VINA RESULT:      -9.0      0.000      0.000
  Name = 
  0 active torsions:
  status: ('A' for Active; 'I' for Inactive)
                            x       y       z     vdW  Elec       q    Type
                         _______ _______ _______ _____ _____    ______ ____

>  <TORSDO>
F 0

$$$$
=
 OpenBabel11112417413D

 28 32  0  0  1  0  0  0  0  0999 V2000
  186.9680  178.1790  144.2120 C   0  0  0  0  0  0  0  0  0  0  0  0
  190.1910  178.0950  145.0810 O   0  0  0  0  0  0  0  0  0  0  0  0
  188.2180  173.5770  140.7640 O   0  0  0  0  0  0  0  0  0  0  0  0
  185.4420  177.5540  146.4800 C   0  0  0  0  0  3  0  0  0  0  0  0
  190.0560  174.0350  142.2720 C   0  0  2  0  0  3  0  0  0  0  0  0
  187.7580  178.5990  143.0120 C   0  0  0  0  0  2  0  0  0  0  0  0
  189.6500  177.4660  147.3960 O   0  0  0  0  0  0  0  0  0  0  0  0
  190.2240  176.9850  146.0930 S   0  0  0  0  0  0  0  0  0  0  0  0
  192.3010  175.1960  145.9090 C   0  0  0  0  0  0  0  0  0  0  0  0
  189.3050  175.5510  145.5360 C   0  0  2  0  0  3  0  0  0  0  0  0
  186.2410  177.2010  139.9650 O   0  0  0  0  0  0  0  0  0  0  0  0
  188.9510  176.0590  143.1750 C   0  0  1  0  0  3  0  0  0  0  0  0
  191.5430  174.3830  145.2320 N   0  0  0  0  0  0  0  0  0  0  0  0
  191.8530  176.4840  146.3290 N   0  0  0  0  0  2  0  0  0  0  0  0
  186.6680  177.1920  141.1480 C   0  0  0  0  0  0  0  0  0  0  0  0
  187.2220  176.9740  144.9240 C   0  0  0  0  0  0  0  0  0  0  0  0
  188.7520  174.3200  141.6290 C   0  0  0  0  0  0  0  0  0  0  0  0
  193.6640  174.7530  146.2970 C   0  0  0  0  0  1  0  0  0  0  0  0
  186.7570  175.8790  141.8620 C   0  0  0  0  0  2  0  0  0  0  0  0
  186.4390  176.6790  146.0490 C   0  0  0  0  0  3  0  0  0  0  0  0
  185.9650  179.0470  144.6570 C   0  0  0  0  0  3  0  0  0  0  0  0
  185.2050  178.7380  145.7860 C   0  0  0  0  0  3  0  0  0  0  0  0
  187.0030  178.4380  141.7740 N   0  0  0  0  0  2  0  0  0  0  0  0
  190.2100  175.1800  143.2840 C   0  0  1  0  0  3  0  0  0  0  0  0
  188.1410  175.4970  142.1140 N   0  0  0  0  0  0  0  0  0  0  0  0
  190.1960  174.6320  144.7060 C   0  0  2  0  0  3  0  0  0  0  0  0
  191.1700  174.1230  141.2450 C   0  0  0  0  0  1  0  0  0  0  0  0
  188.2380  175.9230  144.5170 C   0  0  2  0  0  3  0  0  0  0  0  0
  1 21  2  0  0  0  0
  1 16  1  0  0  0  0
  2  8  2  0  0  0  0
  3 17  2  0  0  0  0
  5 27  1  6  0  0  0
  5 24  1  0  0  0  0
  6  1  1  0  0  0  0
  8 14  1  0  0  0  0
  8  7  2  0  0  0  0
  9 18  1  0  0  0  0
  9 14  1  0  0  0  0
 10  8  1  6  0  0  0
 11 15  2  0  0  0  0
 12 25  1  6  0  0  0
 12 24  1  0  0  0  0
 12 28  1  0  0  0  0
 13  9  2  0  0  0  0
 15 23  1  0  0  0  0
 15 19  1  0  0  0  0
 16 20  2  0  0  0  0
 17 25  1  0  0  0  0
 17  5  1  0  0  0  0
 19 25  1  0  0  0  0
 20  4  1  0  0  0  0
 21 22  1  0  0  0  0
 22  4  2  0  0  0  0
 23  6  1  0  0  0  0
 24 26  1  0  0  0  0
 26 13  1  0  0  0  0
 26 10  1  0  0  0  0
 28 16  1  0  0  0  0
 28 10  1  0  0  0  0
M  END
>  <MODEL>
2

>  <REMARK>
 VINA RESULT:      -8.5      2.137      6.567
  Name = 
  0 active torsions:
  status: ('A' for Active; 'I' for Inactive)
                            x       y       z     vdW  Elec       q    Type
                         _______ _______ _______ _____ _____    ______ ____

>  <TORSDO>
F 0

$$$$
=
 OpenBabel11112417413D

 28 32  0  0  1  0  0  0  0  0999 V2000
  190.2910  174.5390  141.8300 C   0  0  0  0  0  0  0  0  0  0  0  0
  189.0040  177.6190  141.8740 O   0  0  0  0  0  0  0  0  0  0  0  0
  189.4150  174.5490  147.6490 O   0  0  0  0  0  0  0  0  0  0  0  0
  188.5390  172.8870  140.3910 C   0  0  0  0  0  3  0  0  0  0  0  0
  188.3000  176.4340  146.6160 C   0  0  2  0  0  3  0  0  0  0  0  0
  191.2820  175.4190  142.5250 C   0  0  0  0  0  2  0  0  0  0  0  0
  187.0300  176.9170  140.5880 O   0  0  0  0  0  0  0  0  0  0  0  0
  187.5270  177.3510  141.9370 S   0  0  0  0  0  0  0  0  0  0  0  0
  186.0600  178.8830  143.6840 C   0  0  0  0  0  0  0  0  0  0  0  0
  187.1320  176.0900  143.1470 C   0  0  2  0  0  3  0  0  0  0  0  0
  192.8030  173.6060  145.3430 O   0  0  0  0  0  0  0  0  0  0  0  0
  189.2280  175.8980  144.3830 C   0  0  1  0  0  3  0  0  0  0  0  0
  186.1380  177.9420  144.5790 N   0  0  0  0  0  0  0  0  0  0  0  0
  186.7130  178.7880  142.4180 N   0  0  0  0  0  2  0  0  0  0  0  0
  191.8710  174.0070  144.5990 C   0  0  0  0  0  0  0  0  0  0  0  0
  188.9230  174.4610  142.2090 C   0  0  0  0  0  0  0  0  0  0  0  0
  189.1980  175.2560  146.6290 C   0  0  0  0  0  0  0  0  0  0  0  0
  185.2260  180.0790  143.9690 C   0  0  0  0  0  1  0  0  0  0  0  0
  190.4590  173.7420  145.0220 C   0  0  0  0  0  2  0  0  0  0  0  0
  188.0690  173.6210  141.4810 C   0  0  0  0  0  3  0  0  0  0  0  0
  190.7480  173.7980  140.7330 C   0  0  0  0  0  3  0  0  0  0  0  0
  189.8780  172.9760  140.0170 C   0  0  0  0  0  3  0  0  0  0  0  0
  192.2010  174.6550  143.3630 N   0  0  0  0  0  2  0  0  0  0  0  0
  188.3200  176.8790  145.1470 C   0  0  1  0  0  3  0  0  0  0  0  0
  189.7600  174.9740  145.3650 N   0  0  0  0  0  0  0  0  0  0  0  0
  186.9370  176.7120  144.5260 C   0  0  2  0  0  3  0  0  0  0  0  0
  188.8820  177.5370  147.4800 C   0  0  0  0  0  1  0  0  0  0  0  0
  188.3130  175.1660  143.4070 C   0  0  2  0  0  3  0  0  0  0  0  0
  1 16  1  0  0  0  0
  1  6  1  0  0  0  0
  2  8  2  0  0  0  0
  4 20  1  0  0  0  0
  5 17  1  0  0  0  0
  5 27  1  1  0  0  0
  6 23  1  0  0  0  0
  7  8  2  0  0  0  0
  8 14  1  0  0  0  0
  9 18  1  0  0  0  0
  9 13  2  0  0  0  0
 10  8  1  6  0  0  0
 10 28  1  0  0  0  0
 10 26  1  0  0  0  0
 12 24  1  0  0  0  0
 12 25  1  1  0  0  0
 14  9  1  0  0  0  0
 15 19  1  0  0  0  0
 15 11  2  0  0  0  0
 16 28  1  0  0  0  0
 17  3  2  0  0  0  0
 19 25  1  0  0  0  0
 20 16  2  0  0  0  0
 21  1  2  0  0  0  0
 22  4  2  0  0  0  0
 22 21  1  0  0  0  0
 23 15  1  0  0  0  0
 24  5  1  0  0  0  0
 25 17  1  0  0  0  0
 26 13  1  0  0  0  0
 26 24  1  0  0  0  0
 28 12  1  0  0  0  0
M  END
>  <MODEL>
3

>  <REMARK>
 VINA RESULT:      -8.2      2.036      2.874
  Name = 
  0 active torsions:
  status: ('A' for Active; 'I' for Inactive)
                            x       y       z     vdW  Elec       q    Type
                         _______ _______ _______ _____ _____    ______ ____

>  <TORSDO>
F 0

$$$$
=
 OpenBabel11112417413D

 28 32  0  0  1  0  0  0  0  0999 V2000
  188.1280  177.4640  144.2900 C   0  0  0  0  0  0  0  0  0  0  0  0
  191.4160  177.5210  144.8670 O   0  0  0  0  0  0  0  0  0  0  0  0
  189.2600  172.9110  140.7380 O   0  0  0  0  0  0  0  0  0  0  0  0
  186.8380  176.7810  146.6850 C   0  0  0  0  0  3  0  0  0  0  0  0
  191.2050  173.4520  142.0760 C   0  0  2  0  0  3  0  0  0  0  0  0
  188.7890  177.9160  143.0250 C   0  0  0  0  0  2  0  0  0  0  0  0
  191.1120  176.8750  147.2200 O   0  0  0  0  0  0  0  0  0  0  0  0
  191.5870  176.4160  145.8710 S   0  0  0  0  0  0  0  0  0  0  0  0
  193.7140  174.7170  145.4980 C   0  0  0  0  0  0  0  0  0  0  0  0
  190.6850  174.9430  145.3960 C   0  0  2  0  0  3  0  0  0  0  0  0
  187.0660  176.4460  140.1240 O   0  0  0  0  0  0  0  0  0  0  0  0
  190.0990  175.4290  143.0770 C   0  0  1  0  0  3  0  0  0  0  0  0
  192.9340  173.8700  144.8920 N   0  0  0  0  0  0  0  0  0  0  0  0
  193.2500  175.9860  145.9590 N   0  0  0  0  0  2  0  0  0  0  0  0
  187.5970  176.4580  141.2640 C   0  0  0  0  0  0  0  0  0  0  0  0
  188.4950  176.2740  144.9740 C   0  0  0  0  0  0  0  0  0  0  0  0
  189.8370  173.6790  141.5520 C   0  0  0  0  0  0  0  0  0  0  0  0
  195.1240  174.3340  145.7630 C   0  0  0  0  0  1  0  0  0  0  0  0
  187.8060  175.1520  141.9650 C   0  0  0  0  0  2  0  0  0  0  0  0
  187.8300  175.9490  146.1650 C   0  0  0  0  0  3  0  0  0  0  0  0
  187.1320  178.2910  144.8240 C   0  0  0  0  0  3  0  0  0  0  0  0
  186.4900  177.9520  146.0160 C   0  0  0  0  0  3  0  0  0  0  0  0
  187.9330  177.7190  141.8590 N   0  0  0  0  0  2  0  0  0  0  0  0
  191.3990  174.6050  143.0710 C   0  0  1  0  0  3  0  0  0  0  0  0
  189.2220  174.8310  142.0920 N   0  0  0  0  0  0  0  0  0  0  0  0
  191.5360  174.0610  144.4880 C   0  0  2  0  0  3  0  0  0  0  0  0
  192.2170  173.5850  140.9540 C   0  0  0  0  0  1  0  0  0  0  0  0
  189.5150  175.2660  144.4770 C   0  0  2  0  0  3  0  0  0  0  0  0
  1 21  2  0  0  0  0
  1 16  1  0  0  0  0
  2  8  2  0  0  0  0
  3 17  2  0  0  0  0
  5 27  1  6  0  0  0
  5 24  1  0  0  0  0
  6  1  1  0  0  0  0
  8 14  1  0  0  0  0
  8  7  2  0  0  0  0
  9 18  1  0  0  0  0
  9 14  1  0  0  0  0
 10  8  1  6  0  0  0
 11 15  2  0  0  0  0
 12 25  1  6  0  0  0
 12 28  1  0  0  0  0
 13  9  2  0  0  0  0
 15 23  1  0  0  0  0
 15 19  1  0  0  0  0
 16 20  2  0  0  0  0
 17  5  1  0  0  0  0
 17 25  1  0  0  0  0
 19 25  1  0  0  0  0
 20  4  1  0  0  0  0
 21 22  1  0  0  0  0
 22  4  2  0  0  0  0
 23  6  1  0  0  0  0
 24 12  1  0  0  0  0
 24 26  1  0  0  0  0
 26 13  1  0  0  0  0
 26 10  1  0  0  0  0
 28 16  1  0  0  0  0
 28 10  1  0  0  0  0
M  END
>  <MODEL>
4

>  <REMARK>
 VINA RESULT:      -8.0      2.538      6.878
  Name = 
  0 active torsions:
  status: ('A' for Active; 'I' for Inactive)
                            x       y       z     vdW  Elec       q    Type
                         _______ _______ _______ _____ _____    ______ ____

>  <TORSDO>
F 0

$$$$
=
 OpenBabel11112417413D

 28 32  0  0  1  0  0  0  0  0999 V2000
  189.0500  176.8910  144.5590 C   0  0  0  0  0  0  0  0  0  0  0  0
  192.3490  177.3950  144.6380 O   0  0  0  0  0  0  0  0  0  0  0  0
  190.1680  173.0640  140.2310 O   0  0  0  0  0  0  0  0  0  0  0  0
  188.2930  175.7120  146.9880 C   0  0  0  0  0  3  0  0  0  0  0  0
  192.2210  173.7320  141.3280 C   0  0  2  0  0  3  0  0  0  0  0  0
  189.4170  177.5980  143.2910 C   0  0  0  0  0  2  0  0  0  0  0  0
  192.5420  176.4160  146.8850 O   0  0  0  0  0  0  0  0  0  0  0  0
  192.8380  176.2130  145.4260 S   0  0  0  0  0  0  0  0  0  0  0  0
  195.0810  174.9350  144.4880 C   0  0  0  0  0  0  0  0  0  0  0  0
  192.0770  174.6870  144.8760 C   0  0  2  0  0  3  0  0  0  0  0  0
  187.4410  176.2540  140.4930 O   0  0  0  0  0  0  0  0  0  0  0  0
  191.0440  175.3650  142.7710 C   0  0  1  0  0  3  0  0  0  0  0  0
  194.3320  174.0590  143.8830 N   0  0  0  0  0  0  0  0  0  0  0  0
  194.5340  176.0450  145.1980 N   0  0  0  0  0  2  0  0  0  0  0  0
  188.1520  176.2050  141.5300 C   0  0  0  0  0  0  0  0  0  0  0  0
  189.6870  175.6960  144.9920 C   0  0  0  0  0  0  0  0  0  0  0  0
  190.7660  173.8040  141.0560 C   0  0  0  0  0  0  0  0  0  0  0  0
  196.5550  174.7500  144.4770 C   0  0  0  0  0  1  0  0  0  0  0  0
  188.6540  174.8710  141.9860 C   0  0  0  0  0  2  0  0  0  0  0  0
  189.2850  175.1210  146.2060 C   0  0  0  0  0  3  0  0  0  0  0  0
  188.0560  177.4740  145.3550 C   0  0  0  0  0  3  0  0  0  0  0  0
  187.6790  176.8890  146.5640 C   0  0  0  0  0  3  0  0  0  0  0  0
  188.4090  177.4180  142.2510 N   0  0  0  0  0  2  0  0  0  0  0  0
  192.4230  174.7650  142.4460 C   0  0  1  0  0  3  0  0  0  0  0  0
  190.1010  174.7650  141.8490 N   0  0  0  0  0  0  0  0  0  0  0  0
  192.8730  174.0740  143.7280 C   0  0  2  0  0  3  0  0  0  0  0  0
  192.9990  174.1650  140.1000 C   0  0  0  0  0  1  0  0  0  0  0  0
  190.7350  174.9350  144.2010 C   0  0  2  0  0  3  0  0  0  0  0  0
  1 16  2  0  0  0  0
  1 21  1  0  0  0  0
  2  8  2  0  0  0  0
  3 17  2  0  0  0  0
  5 27  1  6  0  0  0
  5 24  1  0  0  0  0
  6  1  1  0  0  0  0
  8  7  2  0  0  0  0
  9 14  1  0  0  0  0
 10  8  1  6  0  0  0
 11 15  2  0  0  0  0
 12 25  1  6  0  0  0
 12 28  1  0  0  0  0
 13  9  2  0  0  0  0
 14  8  1  0  0  0  0
 15 19  1  0  0  0  0
 15 23  1  0  0  0  0
 16 20  1  0  0  0  0
 17  5  1  0  0  0  0
 17 25  1  0  0  0  0
 18  9  1  0  0  0  0
 20  4  2  0  0  0  0
 21 22  2  0  0  0  0
 22  4  1  0  0  0  0
 23  6  1  0  0  0  0
 24 12  1  0  0  0  0
 24 26  1  0  0  0  0
 25 19  1  0  0  0  0
 26 13  1  0  0  0  0
 26 10  1  0  0  0  0
 28 10  1  0  0  0  0
 28 16  1  0  0  0  0
M  END
>  <MODEL>
5

>  <REMARK>
 VINA RESULT:      -7.8      3.014      7.226
  Name = 
  0 active torsions:
  status: ('A' for Active; 'I' for Inactive)
                            x       y       z     vdW  Elec       q    Type
                         _______ _______ _______ _____ _____    ______ ____

>  <TORSDO>
F 0

$$$$
=
 OpenBabel11112417413D

 28 32  0  0  1  0  0  0  0  0999 V2000
  193.0260  174.6810  145.2540 C   0  0  0  0  0  0  0  0  0  0  0  0
  190.0700  174.8290  146.7980 O   0  0  0  0  0  0  0  0  0  0  0  0
  189.9240  174.1330  140.2830 O   0  0  0  0  0  0  0  0  0  0  0  0
  194.2950  177.1620  145.5670 C   0  0  0  0  0  3  0  0  0  0  0  0
  188.4820  174.7690  142.1220 C   0  0  2  0  0  3  0  0  0  0  0  0
  192.4070  173.3220  145.1490 C   0  0  0  0  0  2  0  0  0  0  0  0
  190.4320  177.1650  147.4740 O   0  0  0  0  0  0  0  0  0  0  0  0
  189.6550  176.2550  146.5650 S   0  0  0  0  0  0  0  0  0  0  0  0
  187.0400  176.6870  145.8440 C   0  0  0  0  0  0  0  0  0  0  0  0
  189.9160  176.7530  144.8650 C   0  0  2  0  0  3  0  0  0  0  0  0
  193.1150  171.8780  141.8390 O   0  0  0  0  0  0  0  0  0  0  0  0
  190.3290  174.6140  143.7650 C   0  0  1  0  0  3  0  0  0  0  0  0
  187.3890  176.7200  144.5910 N   0  0  0  0  0  0  0  0  0  0  0  0
  187.9730  176.4130  146.8880 N   0  0  0  0  0  2  0  0  0  0  0  0
  192.7750  172.7700  142.6580 C   0  0  0  0  0  0  0  0  0  0  0  0
  192.3580  175.8700  144.8540 C   0  0  0  0  0  0  0  0  0  0  0  0
  189.7620  174.3340  141.5160 C   0  0  0  0  0  0  0  0  0  0  0  0
  185.6310  176.9890  146.2060 C   0  0  0  0  0  1  0  0  0  0  0  0
  192.2160  174.0520  142.1230 C   0  0  0  0  0  2  0  0  0  0  0  0
  193.0170  177.0970  145.0120 C   0  0  0  0  0  3  0  0  0  0  0  0
  194.3090  174.7600  145.8100 C   0  0  0  0  0  3  0  0  0  0  0  0
  194.9410  175.9940  145.9670 C   0  0  0  0  0  3  0  0  0  0  0  0
  192.9810  172.5400  144.0590 N   0  0  0  0  0  2  0  0  0  0  0  0
  188.8340  174.9440  143.6060 C   0  0  1  0  0  3  0  0  0  0  0  0
  190.8050  174.2040  142.4590 N   0  0  0  0  0  0  0  0  0  0  0  0
  188.7000  176.4070  144.0110 C   0  0  2  0  0  3  0  0  0  0  0  0
  187.4440  173.6720  141.9800 C   0  0  0  0  0  1  0  0  0  0  0  0
  190.9950  175.9190  144.1890 C   0  0  2  0  0  3  0  0  0  0  0  0
  1 21  1  0  0  0  0
  3 17  2  0  0  0  0
  4 22  1  0  0  0  0
  5 27  1  1  0  0  0
  5 24  1  0  0  0  0
  6  1  1  0  0  0  0
  8  2  2  0  0  0  0
  8 14  1  0  0  0  0
  8  7  2  0  0  0  0
  9 18  1  0  0  0  0
  9 14  1  0  0  0  0
 10  8  1  1  0  0  0
 11 15  2  0  0  0  0
 12 25  1  6  0  0  0
 12 28  1  0  0  0  0
 13  9  2  0  0  0  0
 15 23  1  0  0  0  0
 16 20  1  0  0  0  0
 16  1  2  0  0  0  0
 17  5  1  0  0  0  0
 17 25  1  0  0  0  0
 19 25  1  0  0  0  0
 19 15  1  0  0  0  0
 20  4  2  0  0  0  0
 21 22  2  0  0  0  0
 23  6  1  0  0  0  0
 24 12  1  0  0  0  0
 24 26  1  0  0  0  0
 26 13  1  0  0  0  0
 26 10  1  0  0  0  0
 28 16  1  0  0  0  0
 28 10  1  0  0  0  0
M  END
>  <MODEL>
6

>  <REMARK>
 VINA RESULT:      -7.5      2.940      5.663
  Name = 
  0 active torsions:
  status: ('A' for Active; 'I' for Inactive)
                            x       y       z     vdW  Elec       q    Type
                         _______ _______ _______ _____ _____    ______ ____

>  <TORSDO>
F 0

$$$$
=
 OpenBabel11112417413D

 28 32  0  0  1  0  0  0  0  0999 V2000
  186.0230  177.1340  144.0420 C   0  0  0  0  0  0  0  0  0  0  0  0
  187.9750  174.5560  143.2130 O   0  0  0  0  0  0  0  0  0  0  0  0
  190.0370  178.2910  148.1870 O   0  0  0  0  0  0  0  0  0  0  0  0
  186.0110  178.9390  141.8960 C   0  0  0  0  0  3  0  0  0  0  0  0
  190.8700  176.6300  146.6330 C   0  0  2  0  0  3  0  0  0  0  0  0
  185.9450  176.1450  145.1630 C   0  0  0  0  0  2  0  0  0  0  0  0
  188.5130  175.5430  141.0260 O   0  0  0  0  0  0  0  0  0  0  0  0
  189.0470  175.2140  142.3910 S   0  0  0  0  0  0  0  0  0  0  0  0
  191.6360  174.4290  142.8680 C   0  0  0  0  0  0  0  0  0  0  0  0
  189.6520  176.7120  143.1650 C   0  0  2  0  0  3  0  0  0  0  0  0
  185.8530  177.9160  148.3880 O   0  0  0  0  0  0  0  0  0  0  0  0
  188.7170  176.5350  145.4130 C   0  0  1  0  0  3  0  0  0  0  0  0
  191.8010  175.4460  143.6620 N   0  0  0  0  0  0  0  0  0  0  0  0
  190.3840  174.1420  142.2460 N   0  0  0  0  0  2  0  0  0  0  0  0
  186.2560  177.6630  147.2230 C   0  0  0  0  0  0  0  0  0  0  0  0
  187.2530  177.6330  143.5330 C   0  0  0  0  0  0  0  0  0  0  0  0
  189.8340  177.5130  147.2170 C   0  0  0  0  0  0  0  0  0  0  0  0
  192.8020  173.5600  142.5610 C   0  0  0  0  0  1  0  0  0  0  0  0
  187.4860  178.3590  146.7280 C   0  0  0  0  0  2  0  0  0  0  0  0
  187.2200  178.5420  142.4660 C   0  0  0  0  0  3  0  0  0  0  0  0
  184.8160  177.5410  143.4600 C   0  0  0  0  0  3  0  0  0  0  0  0
  184.8090  178.4390  142.3920 C   0  0  0  0  0  3  0  0  0  0  0  0
  185.4950  176.7610  146.4080 N   0  0  0  0  0  2  0  0  0  0  0  0
  190.1470  175.9670  145.4520 C   0  0  1  0  0  3  0  0  0  0  0  0
  188.5930  177.4280  146.5470 N   0  0  0  0  0  0  0  0  0  0  0  0
  190.7860  176.3940  144.1360 C   0  0  2  0  0  3  0  0  0  0  0  0
  191.2680  175.5660  147.6380 C   0  0  0  0  0  1  0  0  0  0  0  0
  188.6220  177.3180  144.1070 C   0  0  2  0  0  3  0  0  0  0  0  0
  1  6  1  0  0  0  0
  4 22  2  0  0  0  0
  4 20  1  0  0  0  0
  5 17  1  0  0  0  0
  5 27  1  1  0  0  0
  6 23  1  0  0  0  0
  7  8  2  0  0  0  0
  8  2  2  0  0  0  0
  9 13  2  0  0  0  0
 10  8  1  1  0  0  0
 10 28  1  0  0  0  0
 10 26  1  0  0  0  0
 12 24  1  0  0  0  0
 12 25  1  1  0  0  0
 13 26  1  0  0  0  0
 14  8  1  0  0  0  0
 14  9  1  0  0  0  0
 15 11  2  0  0  0  0
 16  1  1  0  0  0  0
 16 28  1  0  0  0  0
 17  3  2  0  0  0  0
 18  9  1  0  0  0  0
 19 15  1  0  0  0  0
 20 16  2  0  0  0  0
 21  1  2  0  0  0  0
 22 21  1  0  0  0  0
 23 15  1  0  0  0  0
 24  5  1  0  0  0  0
 25 19  1  0  0  0  0
 25 17  1  0  0  0  0
 26 24  1  0  0  0  0
 28 12  1  0  0  0  0
M  END
>  <MODEL>
7

>  <REMARK>
 VINA RESULT:      -7.3      2.060      5.273
  Name = 
  0 active torsions:
  status: ('A' for Active; 'I' for Inactive)
                            x       y       z     vdW  Elec       q    Type
                         _______ _______ _______ _____ _____    ______ ____

>  <TORSDO>
F 0

$$$$
=
 OpenBabel11112417413D

 28 32  0  0  1  0  0  0  0  0999 V2000
  189.1600  175.6430  144.2370 C   0  0  0  0  0  0  0  0  0  0  0  0
  192.4270  176.3280  144.2600 O   0  0  0  0  0  0  0  0  0  0  0  0
  190.7200  170.3340  142.2350 O   0  0  0  0  0  0  0  0  0  0  0  0
  188.2500  175.6660  146.8900 C   0  0  0  0  0  3  0  0  0  0  0  0
  192.6610  171.5550  143.0130 C   0  0  2  0  0  3  0  0  0  0  0  0
  189.6040  175.7110  142.8100 C   0  0  0  0  0  2  0  0  0  0  0  0
  192.4720  176.5020  146.7120 O   0  0  0  0  0  0  0  0  0  0  0  0
  192.8860  175.6710  145.5310 S   0  0  0  0  0  0  0  0  0  0  0  0
  195.2310  174.2450  145.4160 C   0  0  0  0  0  0  0  0  0  0  0  0
  192.2140  174.0190  145.7050 C   0  0  2  0  0  3  0  0  0  0  0  0
  187.8920  173.1160  140.8410 O   0  0  0  0  0  0  0  0  0  0  0  0
  191.3290  173.5920  143.4710 C   0  0  1  0  0  3  0  0  0  0  0  0
  194.5570  173.1450  145.2430 N   0  0  0  0  0  0  0  0  0  0  0  0
  194.6000  175.5210  145.5020 N   0  0  0  0  0  2  0  0  0  0  0  0
  188.5210  173.5920  141.8220 C   0  0  0  0  0  0  0  0  0  0  0  0
  189.7950  174.8220  145.2080 C   0  0  0  0  0  0  0  0  0  0  0  0
  191.2310  171.4050  142.6570 C   0  0  0  0  0  0  0  0  0  0  0  0
  196.7060  174.1650  145.5740 C   0  0  0  0  0  1  0  0  0  0  0  0
  189.0230  172.6480  142.8700 C   0  0  0  0  0  2  0  0  0  0  0  0
  189.3160  174.8430  146.5260 C   0  0  0  0  0  3  0  0  0  0  0  0
  188.0910  176.4640  144.6170 C   0  0  0  0  0  3  0  0  0  0  0  0
  187.6380  176.4770  145.9370 C   0  0  0  0  0  3  0  0  0  0  0  0
  188.6860  175.0130  141.9150 N   0  0  0  0  0  2  0  0  0  0  0  0
  192.7470  172.9960  143.5370 C   0  0  1  0  0  3  0  0  0  0  0  0
  190.4790  172.5800  142.8790 N   0  0  0  0  0  0  0  0  0  0  0  0
  193.1140  172.9980  145.0160 C   0  0  2  0  0  3  0  0  0  0  0  0
  193.5200  171.4240  141.7700 C   0  0  0  0  0  1  0  0  0  0  0  0
  190.9230  173.8480  144.9190 C   0  0  2  0  0  3  0  0  0  0  0  0
  1 21  2  0  0  0  0
  1 16  1  0  0  0  0
  2  8  2  0  0  0  0
  3 17  2  0  0  0  0
  5 27  1  6  0  0  0
  5 24  1  0  0  0  0
  6  1  1  0  0  0  0
  8  7  2  0  0  0  0
  9 14  1  0  0  0  0
  9 18  1  0  0  0  0
 10  8  1  6  0  0  0
 11 15  2  0  0  0  0
 12 25  1  1  0  0  0
 12 24  1  0  0  0  0
 12 28  1  0  0  0  0
 13  9  2  0  0  0  0
 14  8  1  0  0  0  0
 15 23  1  0  0  0  0
 15 19  1  0  0  0  0
 16 20  2  0  0  0  0
 17 25  1  0  0  0  0
 17  5  1  0  0  0  0
 19 25  1  0  0  0  0
 20  4  1  0  0  0  0
 21 22  1  0  0  0  0
 22  4  2  0  0  0  0
 23  6  1  0  0  0  0
 24 26  1  0  0  0  0
 26 13  1  0  0  0  0
 26 10  1  0  0  0  0
 28 16  1  0  0  0  0
 28 10  1  0  0  0  0
M  END
>  <MODEL>
8

>  <REMARK>
 VINA RESULT:      -7.3      3.459      7.699
  Name = 
  0 active torsions:
  status: ('A' for Active; 'I' for Inactive)
                            x       y       z     vdW  Elec       q    Type
                         _______ _______ _______ _____ _____    ______ ____

>  <TORSDO>
F 0

$$$$
=
 OpenBabel11112417413D

 28 32  0  0  1  0  0  0  0  0999 V2000
  188.5340  175.9190  145.6930 C   0  0  0  0  0  0  0  0  0  0  0  0
  188.9690  173.4140  143.5290 O   0  0  0  0  0  0  0  0  0  0  0  0
  194.3880  176.5000  145.5430 O   0  0  0  0  0  0  0  0  0  0  0  0
  187.1260  177.9620  144.3850 C   0  0  0  0  0  3  0  0  0  0  0  0
  193.6330  175.0150  143.7850 C   0  0  2  0  0  3  0  0  0  0  0  0
  189.2080  174.8080  146.4360 C   0  0  0  0  0  2  0  0  0  0  0  0
  187.8160  174.6380  141.7340 O   0  0  0  0  0  0  0  0  0  0  0  0
  189.1460  174.1410  142.2250 S   0  0  0  0  0  0  0  0  0  0  0  0
  191.1500  173.2510  140.5700 C   0  0  0  0  0  0  0  0  0  0  0  0
  190.2720  175.5250  142.3850 C   0  0  2  0  0  3  0  0  0  0  0  0
  191.7000  176.1920  148.7630 O   0  0  0  0  0  0  0  0  0  0  0  0
  191.2850  175.1080  144.5660 C   0  0  1  0  0  3  0  0  0  0  0  0
  191.9480  174.1660  141.0400 N   0  0  0  0  0  0  0  0  0  0  0  0
  189.8260  173.0650  141.0680 N   0  0  0  0  0  2  0  0  0  0  0  0
  191.0860  176.0680  147.6720 C   0  0  0  0  0  0  0  0  0  0  0  0
  189.0320  176.4480  144.4710 C   0  0  0  0  0  0  0  0  0  0  0  0
  193.4590  175.8450  144.9990 C   0  0  0  0  0  0  0  0  0  0  0  0
  191.6160  172.4000  139.4450 C   0  0  0  0  0  1  0  0  0  0  0  0
  191.6140  176.7910  146.4720 C   0  0  0  0  0  2  0  0  0  0  0  0
  188.3160  177.4750  143.8410 C   0  0  0  0  0  3  0  0  0  0  0  0
  187.3390  176.4160  146.2270 C   0  0  0  0  0  3  0  0  0  0  0  0
  186.6370  177.4320  145.5780 C   0  0  0  0  0  3  0  0  0  0  0  0
  189.8860  175.2830  147.6380 N   0  0  0  0  0  2  0  0  0  0  0  0
  192.2130  174.5090  143.4940 C   0  0  1  0  0  3  0  0  0  0  0  0
  192.1270  175.8650  145.4700 N   0  0  0  0  0  0  0  0  0  0  0  0
  191.7130  175.0730  142.1700 C   0  0  2  0  0  3  0  0  0  0  0  0
  194.5320  173.8320  144.0920 C   0  0  0  0  0  1  0  0  0  0  0  0
  190.3380  176.0390  143.8160 C   0  0  2  0  0  3  0  0  0  0  0  0
  1 21  1  0  0  0  0
  1  6  1  0  0  0  0
  4 22  1  0  0  0  0
  5 27  1  1  0  0  0
  5 17  1  0  0  0  0
  6 23  1  0  0  0  0
  7  8  2  0  0  0  0
  8  2  2  0  0  0  0
  9 13  2  0  0  0  0
  9 14  1  0  0  0  0
 10  8  1  1  0  0  0
 10 28  1  0  0  0  0
 12 25  1  1  0  0  0
 13 26  1  0  0  0  0
 14  8  1  0  0  0  0
 15 11  2  0  0  0  0
 16  1  2  0  0  0  0
 17 25  1  0  0  0  0
 17  3  2  0  0  0  0
 18  9  1  0  0  0  0
 19 15  1  0  0  0  0
 20  4  2  0  0  0  0
 20 16  1  0  0  0  0
 22 21  2  0  0  0  0
 23 15  1  0  0  0  0
 24  5  1  0  0  0  0
 24 12  1  0  0  0  0
 25 19  1  0  0  0  0
 26 10  1  0  0  0  0
 26 24  1  0  0  0  0
 28 16  1  0  0  0  0
 28 12  1  0  0  0  0
M  END
>  <MODEL>
9

>  <REMARK>
 VINA RESULT:      -7.2      2.967      5.805
  Name = 
  0 active torsions:
  status: ('A' for Active; 'I' for Inactive)
                            x       y       z     vdW  Elec       q    Type
                         _______ _______ _______ _____ _____    ______ ____

>  <TORSDO>
F 0

$$$$
