=
 OpenBabel11112416433D

 32 37  0  0  1  0  0  0  0  0999 V2000
  189.4490  175.0080  142.6970 C   0  0  1  0  0  3  0  0  0  0  0  0
  190.9530  176.3900  147.0610 N   0  0  0  0  0  0  0  0  0  0  0  0
  189.9490  177.3030  147.1390 C   0  0  0  0  0  3  0  0  0  0  0  0
  187.3810  176.1080  141.7360 C   0  0  0  0  0  0  0  0  0  0  0  0
  186.2220  176.9100  141.9420 N   0  0  0  0  0  0  0  0  0  0  0  0
  190.9620  173.7400  141.3780 C   0  0  2  0  0  3  0  0  0  0  0  0
  191.2640  173.7400  143.8490 O   0  0  0  0  0  0  0  0  0  0  0  0
  184.6790  178.2370  143.1410 C   0  0  2  0  0  3  0  0  0  0  0  0
  191.0080  175.4750  146.0580 C   0  0  0  0  0  3  0  0  0  0  0  0
  190.0190  174.4230  143.9850 C   0  0  1  0  0  3  0  0  0  0  0  0
  190.0220  175.4600  145.0640 C   0  0  0  0  0  0  0  0  0  0  0  0
  187.9240  176.3800  144.1100 N   0  0  0  0  0  0  0  0  0  0  0  0
  184.4080  178.3810  141.6440 C   0  0  0  0  0  2  0  0  0  0  0  0
  191.8930  173.9640  142.5960 C   0  0  2  0  0  3  0  0  0  0  0  0
  185.5730  177.7130  140.9290 C   0  0  0  0  0  2  0  0  0  0  0  0
  188.9370  177.3120  146.1770 C   0  0  0  0  0  3  0  0  0  0  0  0
  188.9580  176.3810  145.1270 C   0  0  0  0  0  0  0  0  0  0  0  0
  186.7640  177.2740  144.3040 C   0  0  0  0  0  2  0  0  0  0  0  0
  189.5440  173.9790  141.6750 N   0  0  0  0  0  2  0  0  0  0  0  0
  187.8360  175.9310  140.5730 O   0  0  0  0  0  0  0  0  0  0  0  0
  185.2430  179.4280  143.6090 O   0  0  0  0  0  1  0  0  0  0  0  0
  188.0040  175.4590  142.9450 C   0  0  2  0  0  3  0  0  0  0  0  0
  185.6560  177.0670  143.2600 C   0  0  2  0  0  3  0  0  0  0  0  0
  193.6110  175.4370  143.6280 C   0  0  0  0  0  2  0  0  0  0  0  0
  192.5570  175.3360  142.5460 C   0  0  1  0  0  3  0  0  0  0  0  0
  194.0220  175.1680  142.1970 C   0  0  1  0  0  3  0  0  0  0  0  0
  194.5260  176.4500  141.5640 C   0  0  0  0  0  2  0  0  0  0  0  0
  196.0140  176.4610  141.5590 C   0  0  0  0  0  0  0  0  0  0  0  0
  196.6430  176.0920  140.5330 O   0  0  0  0  0  0  0  0  0  0  0  0
  196.7100  176.9130  142.6720 O   0  0  0  0  0  1  0  0  0  0  0  0
  190.1890  171.4950  141.4090 F   0  0  0  0  0  0  0  0  0  0  0  0
  191.1430  172.3280  140.8560 C   0  0  0  0  0  2  0  0  0  0  0  0
  1 19  1  6  0  0  0
  1 22  1  0  0  0  0
  1 10  1  0  0  0  0
  2  3  1  0  0  0  0
  4  5  1  0  0  0  0
  5 23  1  0  0  0  0
  6 32  1  1  0  0  0
  6 19  1  0  0  0  0
  6 14  1  0  0  0  0
  8 23  1  0  0  0  0
  8 21  1  6  0  0  0
  9  2  2  0  0  0  0
 10  7  1  6  0  0  0
 10 11  1  0  0  0  0
 11 17  2  0  0  0  0
 11  9  1  0  0  0  0
 12 18  1  0  0  0  0
 12 17  1  0  0  0  0
 13  8  1  0  0  0  0
 14  7  1  1  0  0  0
 15 13  1  0  0  0  0
 15  5  1  0  0  0  0
 16  3  2  0  0  0  0
 17 16  1  0  0  0  0
 20  4  2  0  0  0  0
 22  4  1  6  0  0  0
 22 12  1  0  0  0  0
 23 18  1  1  0  0  0
 25 14  1  0  0  0  0
 25 24  1  1  0  0  0
 26 27  1  6  0  0  0
 26 25  1  0  0  0  0
 26 24  1  0  0  0  0
 28 27  1  0  0  0  0
 28 30  1  0  0  0  0
 29 28  2  0  0  0  0
 32 31  1  0  0  0  0
M  END
>  <MODEL>
1

>  <REMARK>
 VINA RESULT:      -7.3      0.000      0.000
  Name = 
  4 active torsions:
  status: ('A' for Active; 'I' for Inactive)
    1  A    between atoms: C_7  and  C_19
    2  A    between atoms: C_10  and  C_17
    3  A    between atoms: C_20  and  C_29
    4  A    between atoms: C_29  and  C_30
                            x       y       z     vdW  Elec       q    Type
                         _______ _______ _______ _____ _____    ______ ____

>  <TORSDO>
F 4

$$$$
=
 OpenBabel11112416433D

 32 37  0  0  1  0  0  0  0  0999 V2000
  190.5990  175.1000  145.0980 C   0  0  1  0  0  3  0  0  0  0  0  0
  191.2640  177.8390  149.0060 N   0  0  0  0  0  0  0  0  0  0  0  0
  190.1870  178.6010  148.6780 C   0  0  0  0  0  3  0  0  0  0  0  0
  188.6280  175.6110  143.5950 C   0  0  0  0  0  0  0  0  0  0  0  0
  187.3880  176.2850  143.4010 N   0  0  0  0  0  0  0  0  0  0  0  0
  192.4050  173.7140  144.4240 C   0  0  2  0  0  3  0  0  0  0  0  0
  192.3060  174.4510  146.8000 O   0  0  0  0  0  0  0  0  0  0  0  0
  185.5660  177.6900  143.9400 C   0  0  2  0  0  3  0  0  0  0  0  0
  191.5550  176.6930  148.3390 C   0  0  0  0  0  3  0  0  0  0  0  0
  191.0030  174.9810  146.5640 C   0  0  1  0  0  3  0  0  0  0  0  0
  190.7460  176.2720  147.2760 C   0  0  0  0  0  0  0  0  0  0  0  0
  188.7580  176.6100  145.8290 N   0  0  0  0  0  0  0  0  0  0  0  0
  185.5280  177.3690  142.4470 C   0  0  0  0  0  2  0  0  0  0  0  0
  193.1070  174.3890  145.6290 C   0  0  2  0  0  3  0  0  0  0  0  0
  186.8440  176.6800  142.1200 C   0  0  0  0  0  2  0  0  0  0  0  0
  189.3450  178.2100  147.6360 C   0  0  0  0  0  3  0  0  0  0  0  0
  189.6120  177.0300  146.9240 C   0  0  0  0  0  0  0  0  0  0  0  0
  187.5120  177.3680  145.5960 C   0  0  0  0  0  2  0  0  0  0  0  0
  190.9430  173.8440  144.4510 N   0  0  0  0  0  2  0  0  0  0  0  0
  189.2760  175.1720  142.6070 O   0  0  0  0  0  0  0  0  0  0  0  0
  185.9470  179.0260  144.1010 O   0  0  0  0  0  1  0  0  0  0  0  0
  189.1000  175.4150  145.0130 C   0  0  2  0  0  3  0  0  0  0  0  0
  186.6070  176.7350  144.5280 C   0  0  2  0  0  3  0  0  0  0  0  0
  194.5560  176.2740  146.3620 C   0  0  0  0  0  2  0  0  0  0  0  0
  193.6530  175.7630  145.2580 C   0  0  1  0  0  3  0  0  0  0  0  0
  195.1590  175.6770  145.1080 C   0  0  1  0  0  3  0  0  0  0  0  0
  195.6250  176.7900  144.1900 C   0  0  0  0  0  2  0  0  0  0  0  0
  196.6280  176.2630  143.2250 C   0  0  0  0  0  0  0  0  0  0  0  0
  196.6410  176.6830  142.0390 O   0  0  0  0  0  0  0  0  0  0  0  0
  197.5730  175.3350  143.6410 O   0  0  0  0  0  1  0  0  0  0  0  0
  193.6820  171.9570  145.3850 F   0  0  0  0  0  0  0  0  0  0  0  0
  192.7850  172.2470  144.3750 C   0  0  0  0  0  2  0  0  0  0  0  0
  1 19  1  6  0  0  0
  1 10  1  0  0  0  0
  3  2  1  0  0  0  0
  5  4  1  0  0  0  0
  5 23  1  0  0  0  0
  6 32  1  1  0  0  0
  6 19  1  0  0  0  0
  6 14  1  0  0  0  0
  8 21  1  6  0  0  0
  8 23  1  0  0  0  0
  9  2  2  0  0  0  0
 10  7  1  6  0  0  0
 10 11  1  0  0  0  0
 11  9  1  0  0  0  0
 12 17  1  0  0  0  0
 13  8  1  0  0  0  0
 14  7  1  1  0  0  0
 15 13  1  0  0  0  0
 15  5  1  0  0  0  0
 16  3  2  0  0  0  0
 17 11  2  0  0  0  0
 17 16  1  0  0  0  0
 18 12  1  0  0  0  0
 20  4  2  0  0  0  0
 22  4  1  6  0  0  0
 22  1  1  0  0  0  0
 22 12  1  0  0  0  0
 23 18  1  1  0  0  0
 25 14  1  0  0  0  0
 25 24  1  1  0  0  0
 26 27  1  6  0  0  0
 26 25  1  0  0  0  0
 26 24  1  0  0  0  0
 28 30  1  0  0  0  0
 28 27  1  0  0  0  0
 29 28  2  0  0  0  0
 32 31  1  0  0  0  0
M  END
>  <MODEL>
2

>  <REMARK>
 VINA RESULT:      -7.1      2.109      2.601
  Name = 
  4 active torsions:
  status: ('A' for Active; 'I' for Inactive)
    1  A    between atoms: C_7  and  C_19
    2  A    between atoms: C_10  and  C_17
    3  A    between atoms: C_20  and  C_29
    4  A    between atoms: C_29  and  C_30
                            x       y       z     vdW  Elec       q    Type
                         _______ _______ _______ _____ _____    ______ ____

>  <TORSDO>
F 4

$$$$
=
 OpenBabel11112416433D

 32 37  0  0  1  0  0  0  0  0999 V2000
  189.8970  174.8550  142.6590 C   0  0  1  0  0  3  0  0  0  0  0  0
  192.4840  176.5220  146.3670 N   0  0  0  0  0  0  0  0  0  0  0  0
  193.0790  175.3100  146.5210 C   0  0  0  0  0  3  0  0  0  0  0  0
  190.2570  172.4590  141.9260 C   0  0  0  0  0  0  0  0  0  0  0  0
  191.0510  171.2780  141.9740 N   0  0  0  0  0  0  0  0  0  0  0  0
  188.0200  176.1400  141.9810 C   0  0  2  0  0  3  0  0  0  0  0  0
  189.8500  177.2870  143.2190 O   0  0  0  0  0  0  0  0  0  0  0  0
  192.8460  169.8860  142.6280 C   0  0  2  0  0  3  0  0  0  0  0  0
  191.6920  176.7950  145.2980 C   0  0  0  0  0  3  0  0  0  0  0  0
  190.6450  176.1080  143.1040 C   0  0  1  0  0  3  0  0  0  0  0  0
  191.4590  175.8160  144.3260 C   0  0  0  0  0  0  0  0  0  0  0  0
  191.8520  173.5270  143.4490 N   0  0  0  0  0  0  0  0  0  0  0  0
  191.7800  169.0390  141.9350 C   0  0  0  0  0  2  0  0  0  0  0  0
  188.4540  177.0290  143.1720 C   0  0  2  0  0  3  0  0  0  0  0  0
  190.5610  169.9330  141.7650 C   0  0  0  0  0  2  0  0  0  0  0  0
  192.8870  174.3100  145.5670 C   0  0  0  0  0  3  0  0  0  0  0  0
  192.0760  174.5560  144.4470 C   0  0  0  0  0  0  0  0  0  0  0  0
  192.6320  172.2780  143.5570 C   0  0  0  0  0  2  0  0  0  0  0  0
  189.0720  175.2240  141.5210 N   0  0  0  0  0  2  0  0  0  0  0  0
  189.0590  172.4050  141.5360 O   0  0  0  0  0  0  0  0  0  0  0  0
  192.8290  169.5940  143.9950 O   0  0  0  0  0  1  0  0  0  0  0  0
  190.9130  173.7570  142.3180 C   0  0  2  0  0  3  0  0  0  0  0  0
  192.4410  171.3370  142.3580 C   0  0  2  0  0  3  0  0  0  0  0  0
  188.3280  177.4060  145.6280 C   0  0  0  0  0  2  0  0  0  0  0  0
  187.9480  176.4710  144.4980 C   0  0  1  0  0  3  0  0  0  0  0  0
  186.9180  177.4190  145.0770 C   0  0  1  0  0  3  0  0  0  0  0  0
  186.0040  176.6430  146.0050 C   0  0  0  0  0  2  0  0  0  0  0  0
  185.2560  177.5850  146.8820 C   0  0  0  0  0  0  0  0  0  0  0  0
  184.0800  177.9220  146.5860 O   0  0  0  0  0  0  0  0  0  0  0  0
  185.8400  178.0630  148.0470 O   0  0  0  0  0  1  0  0  0  0  0  0
  186.9980  178.1780  141.3170 F   0  0  0  0  0  0  0  0  0  0  0  0
  187.5720  177.0190  140.8290 C   0  0  0  0  0  2  0  0  0  0  0  0
  1 19  1  6  0  0  0
  1 10  1  0  0  0  0
  2  3  1  0  0  0  0
  4  5  1  0  0  0  0
  5 23  1  0  0  0  0
  6 32  1  6  0  0  0
  6 14  1  0  0  0  0
  8 21  1  1  0  0  0
  9  2  2  0  0  0  0
 10  7  1  1  0  0  0
 10 11  1  0  0  0  0
 11 17  2  0  0  0  0
 11  9  1  0  0  0  0
 12 18  1  0  0  0  0
 12 17  1  0  0  0  0
 13  8  1  0  0  0  0
 14  7  1  1  0  0  0
 14 25  1  0  0  0  0
 15 13  1  0  0  0  0
 15  5  1  0  0  0  0
 16  3  2  0  0  0  0
 17 16  1  0  0  0  0
 19  6  1  0  0  0  0
 20  4  2  0  0  0  0
 22  4  1  1  0  0  0
 22  1  1  0  0  0  0
 22 12  1  0  0  0  0
 23  8  1  0  0  0  0
 23 18  1  1  0  0  0
 25 26  1  0  0  0  0
 25 24  1  1  0  0  0
 26 24  1  0  0  0  0
 26 27  1  1  0  0  0
 27 28  1  0  0  0  0
 28 30  1  0  0  0  0
 29 28  2  0  0  0  0
 32 31  1  0  0  0  0
M  END
>  <MODEL>
3

>  <REMARK>
 VINA RESULT:      -7.1      3.234      7.297
  Name = 
  4 active torsions:
  status: ('A' for Active; 'I' for Inactive)
    1  A    between atoms: C_7  and  C_19
    2  A    between atoms: C_10  and  C_17
    3  A    between atoms: C_20  and  C_29
    4  A    between atoms: C_29  and  C_30
                            x       y       z     vdW  Elec       q    Type
                         _______ _______ _______ _____ _____    ______ ____

>  <TORSDO>
F 4

$$$$
=
 OpenBabel11112416433D

 32 37  0  0  1  0  0  0  0  0999 V2000
  191.8020  174.9890  144.3950 C   0  0  1  0  0  3  0  0  0  0  0  0
  189.7200  173.1860  140.4400 N   0  0  0  0  0  0  0  0  0  0  0  0
  190.8510  173.4120  139.7200 C   0  0  0  0  0  3  0  0  0  0  0  0
  194.2070  175.7620  144.2390 C   0  0  0  0  0  0  0  0  0  0  0  0
  195.4350  175.7810  143.5180 N   0  0  0  0  0  0  0  0  0  0  0  0
  190.3760  175.5760  146.2000 C   0  0  2  0  0  3  0  0  0  0  0  0
  189.5620  173.8970  144.5520 O   0  0  0  0  0  0  0  0  0  0  0  0
  196.9270  175.3080  141.7480 C   0  0  2  0  0  3  0  0  0  0  0  0
  189.6940  173.3400  141.7900 C   0  0  0  0  0  3  0  0  0  0  0  0
  190.8630  173.8650  143.9670 C   0  0  1  0  0  3  0  0  0  0  0  0
  190.8430  173.7510  142.4740 C   0  0  0  0  0  0  0  0  0  0  0  0
  193.2400  174.3970  142.4490 N   0  0  0  0  0  0  0  0  0  0  0  0
  197.5330  176.3900  142.6400 C   0  0  0  0  0  2  0  0  0  0  0  0
  189.2740  175.1210  145.2110 C   0  0  2  0  0  3  0  0  0  0  0  0
  196.4350  176.8230  143.6000 C   0  0  0  0  0  2  0  0  0  0  0  0
  192.0240  173.8070  140.3650 C   0  0  0  0  0  3  0  0  0  0  0  0
  192.0350  173.9740  141.7590 C   0  0  0  0  0  0  0  0  0  0  0  0
  194.4900  174.4820  141.6670 C   0  0  0  0  0  2  0  0  0  0  0  0
  191.7170  175.0960  145.8420 N   0  0  0  0  0  2  0  0  0  0  0  0
  193.9830  176.6170  145.1390 O   0  0  0  0  0  0  0  0  0  0  0  0
  196.5330  175.8930  140.5410 O   0  0  0  0  0  1  0  0  0  0  0  0
  193.2220  174.6700  143.9110 C   0  0  2  0  0  3  0  0  0  0  0  0
  195.7280  174.7700  142.5300 C   0  0  2  0  0  3  0  0  0  0  0  0
  187.7860  175.7760  143.3280 C   0  0  0  0  0  2  0  0  0  0  0  0
  188.9310  176.2220  144.2130 C   0  0  1  0  0  3  0  0  0  0  0  0
  187.5260  176.7200  144.4830 C   0  0  1  0  0  3  0  0  0  0  0  0
  187.3990  178.1370  143.9600 C   0  0  0  0  0  2  0  0  0  0  0  0
  186.0100  178.6310  144.1680 C   0  0  0  0  0  0  0  0  0  0  0  0
  185.6970  179.7960  143.8120 O   0  0  0  0  0  0  0  0  0  0  0  0
  185.0510  177.7950  144.7220 O   0  0  0  0  0  1  0  0  0  0  0  0
  188.8910  174.3200  147.5620 F   0  0  0  0  0  0  0  0  0  0  0  0
  190.0250  175.1090  147.5990 C   0  0  0  0  0  2  0  0  0  0  0  0
  1 19  1  1  0  0  0
  2  9  1  0  0  0  0
  3 16  1  0  0  0  0
  3  2  2  0  0  0  0
  4 20  2  0  0  0  0
  5 15  1  0  0  0  0
  5  4  1  0  0  0  0
  6 32  1  1  0  0  0
  8 21  1  6  0  0  0
  8 23  1  0  0  0  0
  8 13  1  0  0  0  0
  9 11  2  0  0  0  0
 10 11  1  6  0  0  0
 10  1  1  0  0  0  0
 10  7  1  0  0  0  0
 12 22  1  0  0  0  0
 13 15  1  0  0  0  0
 14  7  1  6  0  0  0
 14  6  1  0  0  0  0
 16 17  2  0  0  0  0
 17 12  1  0  0  0  0
 17 11  1  0  0  0  0
 18 12  1  0  0  0  0
 19  6  1  0  0  0  0
 22  4  1  6  0  0  0
 22  1  1  0  0  0  0
 23 18  1  6  0  0  0
 23  5  1  0  0  0  0
 24 26  1  0  0  0  0
 25 24  1  6  0  0  0
 25 26  1  0  0  0  0
 25 14  1  0  0  0  0
 26 27  1  6  0  0  0
 27 28  1  0  0  0  0
 28 30  1  0  0  0  0
 29 28  2  0  0  0  0
 31 32  1  0  0  0  0
M  END
>  <MODEL>
4

>  <REMARK>
 VINA RESULT:      -7.0      2.468      7.984
  Name = 
  4 active torsions:
  status: ('A' for Active; 'I' for Inactive)
    1  A    between atoms: C_7  and  C_19
    2  A    between atoms: C_10  and  C_17
    3  A    between atoms: C_20  and  C_29
    4  A    between atoms: C_29  and  C_30
                            x       y       z     vdW  Elec       q    Type
                         _______ _______ _______ _____ _____    ______ ____

>  <TORSDO>
F 4

$$$$
=
 OpenBabel11112416433D

 32 37  0  0  1  0  0  0  0  0999 V2000
  191.4460  175.5710  144.8300 C   0  0  1  0  0  3  0  0  0  0  0  0
  189.3930  171.9870  142.3490 N   0  0  0  0  0  0  0  0  0  0  0  0
  190.5720  171.7160  141.7290 C   0  0  0  0  0  3  0  0  0  0  0  0
  193.9170  176.0030  144.4920 C   0  0  0  0  0  0  0  0  0  0  0  0
  195.1730  175.5560  143.9940 N   0  0  0  0  0  0  0  0  0  0  0  0
  189.9980  177.1340  145.8780 C   0  0  2  0  0  3  0  0  0  0  0  0
  189.1100  174.8670  145.3580 O   0  0  0  0  0  0  0  0  0  0  0  0
  196.6970  174.1040  142.9190 C   0  0  2  0  0  3  0  0  0  0  0  0
  189.3180  172.8640  143.3820 C   0  0  0  0  0  3  0  0  0  0  0  0
  190.4280  174.4490  145.0070 C   0  0  1  0  0  3  0  0  0  0  0  0
  190.4670  173.5270  143.8290 C   0  0  0  0  0  0  0  0  0  0  0  0
  192.9120  173.9260  143.6690 N   0  0  0  0  0  0  0  0  0  0  0  0
  197.3580  175.4660  143.1190 C   0  0  0  0  0  2  0  0  0  0  0  0
  188.9050  176.2640  145.2070 C   0  0  2  0  0  3  0  0  0  0  0  0
  196.2610  176.4150  143.5800 C   0  0  0  0  0  2  0  0  0  0  0  0
  191.7450  172.3420  142.1530 C   0  0  0  0  0  3  0  0  0  0  0  0
  191.7070  173.2540  143.2200 C   0  0  0  0  0  0  0  0  0  0  0  0
  194.2000  173.4980  143.0860 C   0  0  0  0  0  2  0  0  0  0  0  0
  191.3040  176.4680  145.9650 N   0  0  0  0  0  2  0  0  0  0  0  0
  193.7320  177.2240  144.7500 O   0  0  0  0  0  0  0  0  0  0  0  0
  196.4150  173.9400  141.5590 O   0  0  0  0  0  1  0  0  0  0  0  0
  192.8510  174.9650  144.7320 C   0  0  2  0  0  3  0  0  0  0  0  0
  195.4170  174.1530  143.7560 C   0  0  2  0  0  3  0  0  0  0  0  0
  187.4770  175.9610  143.1930 C   0  0  0  0  0  2  0  0  0  0  0  0
  188.7140  176.6410  143.7420 C   0  0  1  0  0  3  0  0  0  0  0  0
  187.4220  177.4190  143.5930 C   0  0  1  0  0  3  0  0  0  0  0  0
  187.5140  178.2890  142.3540 C   0  0  0  0  0  2  0  0  0  0  0  0
  186.2070  178.2910  141.6400 C   0  0  0  0  0  0  0  0  0  0  0  0
  185.1650  178.6650  142.2360 O   0  0  0  0  0  1  0  0  0  0  0  0
  186.1440  177.9140  140.3050 O   0  0  0  0  0  0  0  0  0  0  0  0
  188.1960  177.8650  147.2420 F   0  0  0  0  0  0  0  0  0  0  0  0
  189.5400  177.5410  147.2650 C   0  0  0  0  0  2  0  0  0  0  0  0
  1 10  1  0  0  0  0
  1 19  1  1  0  0  0
  2  9  1  0  0  0  0
  3 16  1  0  0  0  0
  3  2  2  0  0  0  0
  4 20  2  0  0  0  0
  5  4  1  0  0  0  0
  6 19  1  0  0  0  0
  6 32  1  1  0  0  0
  8 21  1  6  0  0  0
  8 13  1  0  0  0  0
  8 23  1  0  0  0  0
  9 11  2  0  0  0  0
 10 11  1  6  0  0  0
 10  7  1  0  0  0  0
 12 22  1  0  0  0  0
 13 15  1  0  0  0  0
 14  7  1  6  0  0  0
 14  6  1  0  0  0  0
 15  5  1  0  0  0  0
 16 17  2  0  0  0  0
 17 12  1  0  0  0  0
 17 11  1  0  0  0  0
 18 12  1  0  0  0  0
 22  4  1  6  0  0  0
 22  1  1  0  0  0  0
 23 18  1  6  0  0  0
 23  5  1  0  0  0  0
 24 26  1  0  0  0  0
 25 24  1  6  0  0  0
 25 14  1  0  0  0  0
 26 27  1  6  0  0  0
 26 25  1  0  0  0  0
 28 29  1  0  0  0  0
 28 27  1  0  0  0  0
 30 28  2  0  0  0  0
 31 32  1  0  0  0  0
M  END
>  <MODEL>
5

>  <REMARK>
 VINA RESULT:      -6.9      2.619      7.926
  Name = 
  4 active torsions:
  status: ('A' for Active; 'I' for Inactive)
    1  A    between atoms: C_7  and  C_19
    2  A    between atoms: C_10  and  C_17
    3  A    between atoms: C_20  and  C_29
    4  A    between atoms: C_29  and  C_30
                            x       y       z     vdW  Elec       q    Type
                         _______ _______ _______ _____ _____    ______ ____

>  <TORSDO>
F 4

$$$$
=
 OpenBabel11112416433D

 32 37  0  0  1  0  0  0  0  0999 V2000
  191.3630  176.1380  144.4040 C   0  0  1  0  0  3  0  0  0  0  0  0
  189.8820  173.4910  140.6600 N   0  0  0  0  0  0  0  0  0  0  0  0
  188.5840  173.6810  141.0150 C   0  0  0  0  0  3  0  0  0  0  0  0
  189.6110  177.1770  145.9070 C   0  0  0  0  0  0  0  0  0  0  0  0
  188.2500  177.5360  146.1210 N   0  0  0  0  0  0  0  0  0  0  0  0
  193.6470  175.9570  145.0260 C   0  0  2  0  0  3  0  0  0  0  0  0
  193.0090  175.3700  142.6920 O   0  0  0  0  0  0  0  0  0  0  0  0
  185.9440  177.7200  145.6360 C   0  0  2  0  0  3  0  0  0  0  0  0
  190.8920  174.1650  141.2680 C   0  0  0  0  0  3  0  0  0  0  0  0
  191.6990  175.8790  142.9390 C   0  0  1  0  0  3  0  0  0  0  0  0
  190.6140  175.0740  142.2960 C   0  0  0  0  0  0  0  0  0  0  0  0
  188.9660  176.2480  143.7330 N   0  0  0  0  0  0  0  0  0  0  0  0
  186.1750  178.0530  147.1090 C   0  0  0  0  0  2  0  0  0  0  0  0
  193.6700  174.9280  143.8690 C   0  0  2  0  0  3  0  0  0  0  0  0
  187.6170  177.6790  147.4150 C   0  0  0  0  0  2  0  0  0  0  0  0
  188.2610  174.5910  142.0230 C   0  0  0  0  0  3  0  0  0  0  0  0
  189.2780  175.3070  142.6740 C   0  0  0  0  0  0  0  0  0  0  0  0
  187.5440  176.5520  143.9910 C   0  0  0  0  0  2  0  0  0  0  0  0
  192.4850  176.8550  144.9870 N   0  0  0  0  0  2  0  0  0  0  0  0
  190.4120  177.1060  146.8790 O   0  0  0  0  0  0  0  0  0  0  0  0
  185.3110  176.4760  145.5530 O   0  0  0  0  0  1  0  0  0  0  0  0
  190.0520  176.9300  144.4880 C   0  0  2  0  0  3  0  0  0  0  0  0
  187.3400  177.6830  145.0110 C   0  0  2  0  0  3  0  0  0  0  0  0
  193.3620  172.5440  143.2260 C   0  0  0  0  0  2  0  0  0  0  0  0
  193.1470  173.5690  144.3210 C   0  0  1  0  0  3  0  0  0  0  0  0
  194.3040  172.5940  144.4100 C   0  0  1  0  0  3  0  0  0  0  0  0
  193.9450  171.4950  145.3900 C   0  0  0  0  0  2  0  0  0  0  0  0
  195.1830  170.8140  145.8620 C   0  0  0  0  0  0  0  0  0  0  0  0
  196.3000  171.3780  145.7320 O   0  0  0  0  0  0  0  0  0  0  0  0
  195.1010  169.5720  146.4770 O   0  0  0  0  0  1  0  0  0  0  0  0
  194.8470  177.7980  145.9270 F   0  0  0  0  0  0  0  0  0  0  0  0
  194.9230  176.7760  145.0000 C   0  0  0  0  0  2  0  0  0  0  0  0
  1 22  1  0  0  0  0
  1 19  1  6  0  0  0
  2  3  2  0  0  0  0
  2  9  1  0  0  0  0
  3 16  1  0  0  0  0
  4  5  1  0  0  0  0
  4 20  2  0  0  0  0
  5 15  1  0  0  0  0
  6 32  1  6  0  0  0
  7 10  1  0  0  0  0
  8 21  1  1  0  0  0
  8 13  1  0  0  0  0
  9 11  2  0  0  0  0
 10 11  1  1  0  0  0
 10  1  1  0  0  0  0
 11 17  1  0  0  0  0
 12 18  1  0  0  0  0
 12 22  1  0  0  0  0
 13 15  1  0  0  0  0
 14  7  1  6  0  0  0
 14 25  1  0  0  0  0
 14  6  1  0  0  0  0
 16 17  2  0  0  0  0
 17 12  1  0  0  0  0
 19  6  1  0  0  0  0
 22  4  1  1  0  0  0
 23 18  1  6  0  0  0
 23  8  1  0  0  0  0
 23  5  1  0  0  0  0
 24 26  1  0  0  0  0
 25 24  1  6  0  0  0
 25 26  1  0  0  0  0
 26 27  1  1  0  0  0
 27 28  1  0  0  0  0
 28 30  1  0  0  0  0
 29 28  2  0  0  0  0
 32 31  1  0  0  0  0
M  END
>  <MODEL>
6

>  <REMARK>
 VINA RESULT:      -6.8      3.143      5.092
  Name = 
  4 active torsions:
  status: ('A' for Active; 'I' for Inactive)
    1  A    between atoms: C_7  and  C_19
    2  A    between atoms: C_10  and  C_17
    3  A    between atoms: C_20  and  C_29
    4  A    between atoms: C_29  and  C_30
                            x       y       z     vdW  Elec       q    Type
                         _______ _______ _______ _____ _____    ______ ____

>  <TORSDO>
F 4

$$$$
=
 OpenBabel11112416433D

 32 37  0  0  1  0  0  0  0  0999 V2000
  191.0630  174.1690  143.2650 C   0  0  1  0  0  3  0  0  0  0  0  0
  193.7850  177.3010  145.7160 N   0  0  0  0  0  0  0  0  0  0  0  0
  194.5670  176.2890  146.1760 C   0  0  0  0  0  3  0  0  0  0  0  0
  191.6880  171.7180  143.3450 C   0  0  0  0  0  0  0  0  0  0  0  0
  192.6490  170.7160  143.6630 N   0  0  0  0  0  0  0  0  0  0  0  0
  188.9500  174.9350  142.5000 C   0  0  2  0  0  3  0  0  0  0  0  0
  190.7200  176.6230  142.9620 O   0  0  0  0  0  0  0  0  0  0  0  0
  194.6930  169.8350  144.4550 C   0  0  2  0  0  3  0  0  0  0  0  0
  192.8420  177.0930  144.7600 C   0  0  0  0  0  3  0  0  0  0  0  0
  191.6620  175.5660  143.1300 C   0  0  1  0  0  3  0  0  0  0  0  0
  192.6470  175.8120  144.2300 C   0  0  0  0  0  0  0  0  0  0  0  0
  193.2720  173.4120  144.1340 N   0  0  0  0  0  0  0  0  0  0  0  0
  193.6930  168.6950  144.2730 C   0  0  0  0  0  2  0  0  0  0  0  0
  189.3820  176.2300  143.2310 C   0  0  2  0  0  3  0  0  0  0  0  0
  192.3430  169.3450  144.0070 C   0  0  0  0  0  2  0  0  0  0  0  0
  194.4160  174.9990  145.6630 C   0  0  0  0  0  3  0  0  0  0  0  0
  193.4540  174.7470  144.6730 C   0  0  0  0  0  0  0  0  0  0  0  0
  194.2360  172.3680  144.5350 C   0  0  0  0  0  2  0  0  0  0  0  0
  190.0660  174.0230  142.2170 N   0  0  0  0  0  2  0  0  0  0  0  0
  190.4730  171.4100  143.1930 O   0  0  0  0  0  0  0  0  0  0  0  0
  194.8790  170.0520  145.8240 O   0  0  0  0  0  1  0  0  0  0  0  0
  192.1850  173.1280  143.1590 C   0  0  2  0  0  3  0  0  0  0  0  0
  194.0490  171.0450  143.7760 C   0  0  2  0  0  3  0  0  0  0  0  0
  189.3120  177.4970  145.3710 C   0  0  0  0  0  2  0  0  0  0  0  0
  189.1210  176.1380  144.7300 C   0  0  1  0  0  3  0  0  0  0  0  0
  187.9170  176.9880  145.0810 C   0  0  1  0  0  3  0  0  0  0  0  0
  187.2960  176.4560  146.3570 C   0  0  0  0  0  2  0  0  0  0  0  0
  186.1120  177.2800  146.7250 C   0  0  0  0  0  0  0  0  0  0  0  0
  186.2720  178.4350  147.1980 O   0  0  0  0  0  1  0  0  0  0  0  0
  184.8300  176.7900  146.5130 O   0  0  0  0  0  0  0  0  0  0  0  0
  187.5480  176.4760  141.3610 F   0  0  0  0  0  0  0  0  0  0  0  0
  188.2460  175.2940  141.2060 C   0  0  0  0  0  2  0  0  0  0  0  0
  1 19  1  6  0  0  0
  2  3  1  0  0  0  0
  4  5  1  0  0  0  0
  5 23  1  0  0  0  0
  5 15  1  0  0  0  0
  6 32  1  6  0  0  0
  6 14  1  0  0  0  0
  8 21  1  1  0  0  0
  9  2  2  0  0  0  0
 10  7  1  1  0  0  0
 10  1  1  0  0  0  0
 10 11  1  0  0  0  0
 11 17  2  0  0  0  0
 11  9  1  0  0  0  0
 12 18  1  0  0  0  0
 12 17  1  0  0  0  0
 13  8  1  0  0  0  0
 14  7  1  1  0  0  0
 14 25  1  0  0  0  0
 15 13  1  0  0  0  0
 16  3  2  0  0  0  0
 17 16  1  0  0  0  0
 19  6  1  0  0  0  0
 20  4  2  0  0  0  0
 22  1  1  0  0  0  0
 22  4  1  1  0  0  0
 22 12  1  0  0  0  0
 23  8  1  0  0  0  0
 23 18  1  1  0  0  0
 25 26  1  0  0  0  0
 25 24  1  1  0  0  0
 26 24  1  0  0  0  0
 26 27  1  1  0  0  0
 27 28  1  0  0  0  0
 28 29  1  0  0  0  0
 30 28  2  0  0  0  0
 32 31  1  0  0  0  0
M  END
>  <MODEL>
7

>  <REMARK>
 VINA RESULT:      -6.6      3.184      7.655
  Name = 
  4 active torsions:
  status: ('A' for Active; 'I' for Inactive)
    1  A    between atoms: C_7  and  C_19
    2  A    between atoms: C_10  and  C_17
    3  A    between atoms: C_20  and  C_29
    4  A    between atoms: C_29  and  C_30
                            x       y       z     vdW  Elec       q    Type
                         _______ _______ _______ _____ _____    ______ ____

>  <TORSDO>
F 4

$$$$
=
 OpenBabel11112416433D

 32 37  0  0  1  0  0  0  0  0999 V2000
  191.4010  174.7260  142.9460 C   0  0  1  0  0  3  0  0  0  0  0  0
  188.7240  172.7420  139.4650 N   0  0  0  0  0  0  0  0  0  0  0  0
  189.7370  172.8980  138.5720 C   0  0  0  0  0  3  0  0  0  0  0  0
  193.7670  175.4320  142.3860 C   0  0  0  0  0  0  0  0  0  0  0  0
  194.8730  175.3790  141.4900 N   0  0  0  0  0  0  0  0  0  0  0  0
  190.2710  175.4530  144.9030 C   0  0  2  0  0  3  0  0  0  0  0  0
  189.1950  173.6990  143.5020 O   0  0  0  0  0  0  0  0  0  0  0  0
  196.0760  174.7670  139.5510 C   0  0  2  0  0  3  0  0  0  0  0  0
  188.9030  172.9760  140.7910 C   0  0  0  0  0  3  0  0  0  0  0  0
  190.3930  173.6020  142.7330 C   0  0  1  0  0  3  0  0  0  0  0  0
  190.1480  173.3990  141.2700 C   0  0  0  0  0  0  0  0  0  0  0  0
  192.5230  173.9860  140.8480 N   0  0  0  0  0  0  0  0  0  0  0  0
  196.8240  175.8860  140.2740 C   0  0  0  0  0  2  0  0  0  0  0  0
  189.0260  174.9670  144.1200 C   0  0  2  0  0  3  0  0  0  0  0  0
  195.8890  176.4000  141.3580 C   0  0  0  0  0  2  0  0  0  0  0  0
  191.0000  173.3030  139.0090 C   0  0  0  0  0  3  0  0  0  0  0  0
  191.2220  173.5520  140.3730 C   0  0  0  0  0  0  0  0  0  0  0  0
  193.6420  173.9950  139.8850 C   0  0  0  0  0  2  0  0  0  0  0  0
  191.5360  174.9210  144.3800 N   0  0  0  0  0  2  0  0  0  0  0  0
  193.6930  176.3440  143.2550 O   0  0  0  0  0  0  0  0  0  0  0  0
  195.5130  175.2890  138.3820 O   0  0  0  0  0  1  0  0  0  0  0  0
  192.7280  174.3460  142.2770 C   0  0  2  0  0  3  0  0  0  0  0  0
  194.9990  174.3050  140.5350 C   0  0  2  0  0  3  0  0  0  0  0  0
  187.2490  175.5720  142.4880 C   0  0  0  0  0  2  0  0  0  0  0  0
  188.5540  176.0140  143.1170 C   0  0  1  0  0  3  0  0  0  0  0  0
  187.2430  176.6050  143.5940 C   0  0  1  0  0  3  0  0  0  0  0  0
  187.0820  177.9880  142.9950 C   0  0  0  0  0  2  0  0  0  0  0  0
  185.7470  178.1070  142.3460 C   0  0  0  0  0  0  0  0  0  0  0  0
  185.6640  178.4270  141.1320 O   0  0  0  0  0  0  0  0  0  0  0  0
  184.5960  177.8290  143.0690 O   0  0  0  0  0  1  0  0  0  0  0  0
  189.1970  174.0650  146.5030 F   0  0  0  0  0  0  0  0  0  0  0  0
  190.1270  175.0780  146.3650 C   0  0  0  0  0  2  0  0  0  0  0  0
  1 19  1  1  0  0  0
  2  9  1  0  0  0  0
  3 16  1  0  0  0  0
  3  2  2  0  0  0  0
  4 20  2  0  0  0  0
  5  4  1  0  0  0  0
  6 32  1  1  0  0  0
  8 21  1  6  0  0  0
  8 13  1  0  0  0  0
  8 23  1  0  0  0  0
  9 11  2  0  0  0  0
 10 11  1  6  0  0  0
 10  1  1  0  0  0  0
 10  7  1  0  0  0  0
 12 22  1  0  0  0  0
 13 15  1  0  0  0  0
 14  7  1  6  0  0  0
 14  6  1  0  0  0  0
 15  5  1  0  0  0  0
 16 17  2  0  0  0  0
 17 12  1  0  0  0  0
 17 11  1  0  0  0  0
 18 12  1  0  0  0  0
 19  6  1  0  0  0  0
 22  4  1  6  0  0  0
 22  1  1  0  0  0  0
 23 18  1  6  0  0  0
 23  5  1  0  0  0  0
 24 26  1  0  0  0  0
 25 24  1  6  0  0  0
 25 26  1  0  0  0  0
 25 14  1  0  0  0  0
 26 27  1  6  0  0  0
 28 27  1  0  0  0  0
 28 30  1  0  0  0  0
 29 28  2  0  0  0  0
 32 31  1  0  0  0  0
M  END
>  <MODEL>
8

>  <REMARK>
 VINA RESULT:      -6.4      2.337      7.876
  Name = 
  4 active torsions:
  status: ('A' for Active; 'I' for Inactive)
    1  A    between atoms: C_7  and  C_19
    2  A    between atoms: C_10  and  C_17
    3  A    between atoms: C_20  and  C_29
    4  A    between atoms: C_29  and  C_30
                            x       y       z     vdW  Elec       q    Type
                         _______ _______ _______ _____ _____    ______ ____

>  <TORSDO>
F 4

$$$$
=
 OpenBabel11112416433D

 32 37  0  0  1  0  0  0  0  0999 V2000
  191.9330  174.7050  144.3640 C   0  0  1  0  0  3  0  0  0  0  0  0
  190.8750  170.6500  141.9860 N   0  0  0  0  0  0  0  0  0  0  0  0
  192.1360  170.5950  141.4820 C   0  0  0  0  0  3  0  0  0  0  0  0
  194.2880  175.6170  144.1930 C   0  0  0  0  0  0  0  0  0  0  0  0
  195.6490  175.4120  143.8280 N   0  0  0  0  0  0  0  0  0  0  0  0
  190.1120  175.9910  145.1820 C   0  0  2  0  0  3  0  0  0  0  0  0
  189.7470  173.5650  144.7540 O   0  0  0  0  0  0  0  0  0  0  0  0
  197.5240  174.2490  142.9810 C   0  0  2  0  0  3  0  0  0  0  0  0
  190.5320  171.5470  142.9460 C   0  0  0  0  0  3  0  0  0  0  0  0
  191.1480  173.4090  144.5390 C   0  0  1  0  0  3  0  0  0  0  0  0
  191.4790  172.4540  143.4350 C   0  0  0  0  0  0  0  0  0  0  0  0
  193.7990  173.3370  143.4410 N   0  0  0  0  0  0  0  0  0  0  0  0
  197.8780  175.7270  143.1370 C   0  0  0  0  0  2  0  0  0  0  0  0
  189.2820  174.8810  144.4900 C   0  0  2  0  0  3  0  0  0  0  0  0
  196.5760  176.4530  143.4420 C   0  0  0  0  0  2  0  0  0  0  0  0
  193.1170  171.4700  141.9520 C   0  0  0  0  0  3  0  0  0  0  0  0
  192.7990  172.4100  142.9460 C   0  0  0  0  0  0  0  0  0  0  0  0
  195.1940  173.1530  142.9920 C   0  0  0  0  0  2  0  0  0  0  0  0
  191.5110  175.6130  145.4190 N   0  0  0  0  0  2  0  0  0  0  0  0
  193.8400  176.7860  144.3490 O   0  0  0  0  0  0  0  0  0  0  0  0
  197.4070  173.9600  141.6180 O   0  0  0  0  0  1  0  0  0  0  0  0
  193.4350  174.3960  144.4190 C   0  0  2  0  0  3  0  0  0  0  0  0
  196.1890  174.0790  143.7090 C   0  0  2  0  0  3  0  0  0  0  0  0
  188.0940  174.2220  142.4050 C   0  0  0  0  0  2  0  0  0  0  0  0
  189.1540  175.1330  142.9910 C   0  0  1  0  0  3  0  0  0  0  0  0
  187.7690  175.6720  142.6930 C   0  0  1  0  0  3  0  0  0  0  0  0
  187.8200  176.4690  141.4050 C   0  0  0  0  0  2  0  0  0  0  0  0
  187.8500  177.9260  141.7120 C   0  0  0  0  0  0  0  0  0  0  0  0
  188.9340  178.5610  141.6440 O   0  0  0  0  0  0  0  0  0  0  0  0
  186.6770  178.5920  142.0380 O   0  0  0  0  0  1  0  0  0  0  0  0
  188.2990  175.6330  146.6730 F   0  0  0  0  0  0  0  0  0  0  0  0
  189.4570  176.3670  146.4960 C   0  0  0  0  0  2  0  0  0  0  0  0
  1 22  1  0  0  0  0
  1 10  1  0  0  0  0
  1 19  1  1  0  0  0
  2  9  1  0  0  0  0
  3 16  1  0  0  0  0
  3  2  2  0  0  0  0
  4 20  2  0  0  0  0
  5  4  1  0  0  0  0
  6 19  1  0  0  0  0
  6 32  1  1  0  0  0
  8 21  1  6  0  0  0
  8 13  1  0  0  0  0
  8 23  1  0  0  0  0
  9 11  2  0  0  0  0
 10 11  1  6  0  0  0
 10  7  1  0  0  0  0
 12 22  1  0  0  0  0
 13 15  1  0  0  0  0
 14  7  1  6  0  0  0
 14  6  1  0  0  0  0
 15  5  1  0  0  0  0
 16 17  2  0  0  0  0
 17 11  1  0  0  0  0
 17 12  1  0  0  0  0
 18 12  1  0  0  0  0
 22  4  1  6  0  0  0
 23 18  1  6  0  0  0
 23  5  1  0  0  0  0
 24 26  1  0  0  0  0
 25 24  1  6  0  0  0
 25 14  1  0  0  0  0
 26 27  1  6  0  0  0
 26 25  1  0  0  0  0
 27 28  1  0  0  0  0
 28 30  1  0  0  0  0
 29 28  2  0  0  0  0
 32 31  1  0  0  0  0
M  END
>  <MODEL>
9

>  <REMARK>
 VINA RESULT:      -6.2      2.749      7.884
  Name = 
  4 active torsions:
  status: ('A' for Active; 'I' for Inactive)
    1  A    between atoms: C_7  and  C_19
    2  A    between atoms: C_10  and  C_17
    3  A    between atoms: C_20  and  C_29
    4  A    between atoms: C_29  and  C_30
                            x       y       z     vdW  Elec       q    Type
                         _______ _______ _______ _____ _____    ______ ____

>  <TORSDO>
F 4

$$$$
