=
 OpenBabel11112416283D

 32 37  0  0  1  0  0  0  0  0999 V2000
  189.0080  175.4160  145.8280 C   0  0  1  0  0  3  0  0  0  0  0  0
  189.5360  174.3050  141.0410 C   0  0  0  0  0  3  0  0  0  0  0  0
  188.3720  175.0030  140.7340 C   0  0  0  0  0  3  0  0  0  0  0  0
  186.8540  176.5640  146.4580 C   0  0  0  0  0  0  0  0  0  0  0  0
  185.5520  177.1140  145.9850 C   0  0  1  0  0  3  0  0  0  0  0  0
  191.2170  175.7660  146.8600 N   0  0  0  0  0  0  0  0  0  0  0  0
  191.0110  174.1150  145.0180 C   0  0  0  0  0  2  0  0  0  0  0  0
  184.5320  178.5560  144.6730 C   0  0  1  0  0  3  0  0  0  0  0  0
  189.9700  174.2260  142.3650 C   0  0  0  0  0  3  0  0  0  0  0  0
  189.7020  174.7550  144.6740 C   0  0  0  0  0  0  0  0  0  0  0  0
  189.2490  174.8400  143.4060 C   0  0  0  0  0  0  0  0  0  0  0  0
  187.3420  176.1630  144.0520 C   0  0  0  0  0  0  0  0  0  0  0  0
  184.0470  178.7820  146.0400 N   0  0  0  0  0  2  0  0  0  0  0  0
  191.9150  175.1430  145.7110 C   0  0  2  0  0  3  0  0  0  0  0  0
  184.8630  178.0050  146.8910 N   0  0  0  0  0  2  0  0  0  0  0  0
  187.6420  175.6220  141.7480 C   0  0  0  0  0  3  0  0  0  0  0  0
  188.0610  175.5530  143.0890 C   0  0  0  0  0  0  0  0  0  0  0  0
  186.0540  176.9130  143.7250 C   0  0  0  0  0  2  0  0  0  0  0  0
  189.9780  176.4300  146.4280 C   0  0  0  0  0  2  0  0  0  0  0  0
  187.1220  176.4680  147.6850 O   0  0  0  0  0  0  0  0  0  0  0  0
  184.7320  179.8910  143.9800 C   0  0  0  0  0  1  0  0  0  0  0  0
  187.7480  176.0590  145.4440 N   0  0  0  0  0  0  0  0  0  0  0  0
  185.7980  177.8730  144.7930 N   0  0  2  0  0  0  0  0  0  0  0  0
  193.6100  173.5350  145.1610 O   0  0  0  0  0  0  0  0  0  0  0  0
  193.1800  174.4190  146.1680 C   0  0  1  0  0  3  0  0  0  0  0  0
  194.3080  174.7500  145.2690 C   0  0  1  0  0  3  0  0  0  0  0  0
  195.5650  174.5200  145.9600 N   0  0  0  0  0  2  0  0  0  0  0  0
  196.3640  173.6410  145.1230 C   0  0  0  0  0  3  0  0  0  0  0  0
  196.9060  172.5020  145.9600 C   0  0  0  0  0  1  0  0  0  0  0  0
  197.5240  174.4160  144.5270 C   0  0  0  0  0  1  0  0  0  0  0  0
  191.4010  177.4140  148.7400 C   0  0  0  0  0  1  0  0  0  0  0  0
  192.0620  176.7740  147.5180 C   0  0  0  0  0  2  0  0  0  0  0  0
  1 19  1  6  0  0  0
  2  9  2  0  0  0  0
  3  2  1  0  0  0  0
  3 16  2  0  0  0  0
  4 20  2  0  0  0  0
  5  4  1  1  0  0  0
  5 15  1  0  0  0  0
  6 32  1  0  0  0  0
  8 21  1  1  0  0  0
  8 23  1  0  0  0  0
  8 13  1  0  0  0  0
  9 11  1  0  0  0  0
 10  7  1  0  0  0  0
 10  1  1  0  0  0  0
 11 10  2  0  0  0  0
 12 22  1  0  0  0  0
 13 15  1  0  0  0  0
 14  7  1  1  0  0  0
 14 25  1  0  0  0  0
 14  6  1  0  0  0  0
 16 17  1  0  0  0  0
 17 11  1  0  0  0  0
 17 12  2  0  0  0  0
 18 12  1  0  0  0  0
 19  6  1  0  0  0  0
 22  1  1  0  0  0  0
 22  4  1  0  0  0  0
 23 18  1  6  0  0  0
 23  5  1  0  0  0  0
 24 26  1  0  0  0  0
 25 24  1  6  0  0  0
 26 27  1  1  0  0  0
 26 25  1  0  0  0  0
 28 29  1  0  0  0  0
 28 27  1  0  0  0  0
 30 28  1  0  0  0  0
 32 31  1  0  0  0  0
M  END
>  <MODEL>
1

>  <REMARK>
 VINA RESULT:      -7.8      0.000      0.000
  Name = 
  4 active torsions:
  status: ('A' for Active; 'I' for Inactive)
    1  A    between atoms: N_7  and  C_19
    2  A    between atoms: C_10  and  C_17
    3  A    between atoms: C_20  and  N_29
    4  A    between atoms: N_29  and  C_30
                            x       y       z     vdW  Elec       q    Type
                         _______ _______ _______ _____ _____    ______ ____

>  <TORSDO>
F 4

$$$$
=
 OpenBabel11112416283D

 32 37  0  0  1  0  0  0  0  0999 V2000
  189.2020  176.5970  142.7250 C   0  0  1  0  0  3  0  0  0  0  0  0
  191.9080  176.0680  146.8260 C   0  0  0  0  0  3  0  0  0  0  0  0
  190.9280  176.7130  147.5760 C   0  0  0  0  0  3  0  0  0  0  0  0
  187.1250  178.0070  142.9540 C   0  0  0  0  0  0  0  0  0  0  0  0
  186.2670  178.8220  143.8600 C   0  0  1  0  0  3  0  0  0  0  0  0
  189.4920  174.6330  141.2650 N   0  0  0  0  0  0  0  0  0  0  0  0
  191.4030  175.3670  142.6700 C   0  0  0  0  0  2  0  0  0  0  0  0
  185.0390  178.8630  145.6840 C   0  0  1  0  0  3  0  0  0  0  0  0
  191.7300  175.8920  145.4540 C   0  0  0  0  0  3  0  0  0  0  0  0
  190.4240  176.1620  143.4770 C   0  0  0  0  0  0  0  0  0  0  0  0
  190.5720  176.3580  144.8040 C   0  0  0  0  0  0  0  0  0  0  0  0
  188.4440  177.4730  144.9930 C   0  0  0  0  0  0  0  0  0  0  0  0
  184.2040  179.3480  144.5790 N   0  0  0  0  0  2  0  0  0  0  0  0
  190.6830  174.1780  142.0210 C   0  0  2  0  0  3  0  0  0  0  0  0
  184.9310  179.1120  143.3910 N   0  0  0  0  0  2  0  0  0  0  0  0
  189.7720  177.1820  146.9540 C   0  0  0  0  0  3  0  0  0  0  0  0
  189.5730  177.0160  145.5720 C   0  0  0  0  0  0  0  0  0  0  0  0
  187.3750  178.1980  145.8050 C   0  0  0  0  0  2  0  0  0  0  0  0
  188.5520  175.3440  142.1430 C   0  0  0  0  0  2  0  0  0  0  0  0
  186.9230  177.9710  141.7100 O   0  0  0  0  0  0  0  0  0  0  0  0
  184.2110  177.9700  146.5890 C   0  0  0  0  0  1  0  0  0  0  0  0
  188.2530  177.3410  143.5580 N   0  0  0  0  0  0  0  0  0  0  0  0
  186.1090  178.0990  145.0880 N   0  0  2  0  0  0  0  0  0  0  0  0
  192.8290  173.1200  141.8270 O   0  0  0  0  0  0  0  0  0  0  0  0
  191.6790  173.4760  141.0990 C   0  0  1  0  0  3  0  0  0  0  0  0
  191.9110  172.0890  141.5630 C   0  0  1  0  0  3  0  0  0  0  0  0
  192.4020  171.2820  140.4590 N   0  0  0  0  0  2  0  0  0  0  0  0
  191.5580  170.1020  140.3790 C   0  0  0  0  0  3  0  0  0  0  0  0
  190.5180  170.2990  139.2970 C   0  0  0  0  0  1  0  0  0  0  0  0
  190.8590  169.8820  141.7070 C   0  0  0  0  0  1  0  0  0  0  0  0
  187.9400  172.7070  141.6660 C   0  0  0  0  0  1  0  0  0  0  0  0
  188.7760  173.5000  140.6600 C   0  0  0  0  0  2  0  0  0  0  0  0
  1 19  1  1  0  0  0
  1 10  1  0  0  0  0
  1 22  1  0  0  0  0
  2  3  1  0  0  0  0
  4 22  1  0  0  0  0
  5  4  1  6  0  0  0
  5 23  1  0  0  0  0
  6 14  1  0  0  0  0
  6 19  1  0  0  0  0
  7 10  1  0  0  0  0
  8 21  1  1  0  0  0
  9  2  2  0  0  0  0
 10 11  2  0  0  0  0
 11  9  1  0  0  0  0
 11 17  1  0  0  0  0
 12 17  2  0  0  0  0
 12 18  1  0  0  0  0
 13  8  1  0  0  0  0
 14  7  1  6  0  0  0
 15  5  1  0  0  0  0
 15 13  1  0  0  0  0
 16  3  2  0  0  0  0
 17 16  1  0  0  0  0
 20  4  2  0  0  0  0
 22 12  1  0  0  0  0
 23  8  1  0  0  0  0
 23 18  1  1  0  0  0
 25 26  1  0  0  0  0
 25 24  1  1  0  0  0
 25 14  1  0  0  0  0
 26 27  1  6  0  0  0
 26 24  1  0  0  0  0
 28 27  1  0  0  0  0
 28 30  1  0  0  0  0
 29 28  1  0  0  0  0
 32  6  1  0  0  0  0
 32 31  1  0  0  0  0
M  END
>  <MODEL>
2

>  <REMARK>
 VINA RESULT:      -7.7      3.019      5.177
  Name = 
  4 active torsions:
  status: ('A' for Active; 'I' for Inactive)
    1  A    between atoms: N_7  and  C_19
    2  A    between atoms: C_10  and  C_17
    3  A    between atoms: C_20  and  N_29
    4  A    between atoms: N_29  and  C_30
                            x       y       z     vdW  Elec       q    Type
                         _______ _______ _______ _____ _____    ______ ____

>  <TORSDO>
F 4

$$$$
=
 OpenBabel11112416283D

 32 37  0  0  1  0  0  0  0  0999 V2000
  190.3830  175.3910  144.7810 C   0  0  1  0  0  3  0  0  0  0  0  0
  189.4110  173.8530  140.1860 C   0  0  0  0  0  3  0  0  0  0  0  0
  188.1990  174.5370  140.1960 C   0  0  0  0  0  3  0  0  0  0  0  0
  188.5150  176.6190  145.9470 C   0  0  0  0  0  0  0  0  0  0  0  0
  187.1220  177.1410  145.8570 C   0  0  1  0  0  3  0  0  0  0  0  0
  192.7980  175.8040  145.0390 N   0  0  0  0  0  0  0  0  0  0  0  0
  192.0540  173.9980  143.5060 C   0  0  0  0  0  2  0  0  0  0  0  0
  185.7220  178.4740  144.8060 C   0  0  1  0  0  3  0  0  0  0  0  0
  190.2370  173.8870  141.3100 C   0  0  0  0  0  3  0  0  0  0  0  0
  190.6930  174.6220  143.5310 C   0  0  0  0  0  0  0  0  0  0  0  0
  189.8670  174.6000  142.4650 C   0  0  0  0  0  0  0  0  0  0  0  0
  188.2360  175.9990  143.5540 C   0  0  0  0  0  0  0  0  0  0  0  0
  185.6830  178.8260  146.2300 N   0  0  0  0  0  2  0  0  0  0  0  0
  193.1130  175.0720  143.7890 C   0  0  2  0  0  3  0  0  0  0  0  0
  186.7360  178.1170  146.8500 N   0  0  0  0  0  2  0  0  0  0  0  0
  187.8110  175.2520  141.3280 C   0  0  0  0  0  3  0  0  0  0  0  0
  188.6290  175.2970  142.4730 C   0  0  0  0  0  0  0  0  0  0  0  0
  186.8980  176.7340  143.5790 C   0  0  0  0  0  2  0  0  0  0  0  0
  191.4760  176.4420  144.9570 C   0  0  0  0  0  2  0  0  0  0  0  0
  189.1530  176.6280  147.0330 O   0  0  0  0  0  0  0  0  0  0  0  0
  185.6750  179.7390  143.9700 C   0  0  0  0  0  1  0  0  0  0  0  0
  189.0570  176.0140  144.7530 N   0  0  0  0  0  0  0  0  0  0  0  0
  186.9730  177.7880  144.5850 N   0  0  2  0  0  0  0  0  0  0  0  0
  194.6570  173.5400  142.7750 O   0  0  0  0  0  0  0  0  0  0  0  0
  194.4680  174.3750  143.8910 C   0  0  1  0  0  3  0  0  0  0  0  0
  195.3320  174.7720  142.7550 C   0  0  1  0  0  3  0  0  0  0  0  0
  196.7260  174.5610  143.1060 N   0  0  0  0  0  2  0  0  0  0  0  0
  197.4850  175.6610  142.5360 C   0  0  0  0  0  3  0  0  0  0  0  0
  197.0520  176.9600  143.1810 C   0  0  0  0  0  1  0  0  0  0  0  0
  197.2310  175.7380  141.0420 C   0  0  0  0  0  1  0  0  0  0  0  0
  194.2510  176.8920  146.7660 C   0  0  0  0  0  1  0  0  0  0  0  0
  193.7910  176.8550  145.3080 C   0  0  0  0  0  2  0  0  0  0  0  0
  1 19  1  6  0  0  0
  2  3  1  0  0  0  0
  2  9  2  0  0  0  0
  3 16  2  0  0  0  0
  4 20  2  0  0  0  0
  5  4  1  1  0  0  0
  5 15  1  0  0  0  0
  6 32  1  0  0  0  0
  7 10  1  0  0  0  0
  8 21  1  6  0  0  0
  8 13  1  0  0  0  0
  9 11  1  0  0  0  0
 10  1  1  0  0  0  0
 11 17  1  0  0  0  0
 11 10  2  0  0  0  0
 12 18  1  0  0  0  0
 12 22  1  0  0  0  0
 13 15  1  0  0  0  0
 14  7  1  1  0  0  0
 14 25  1  0  0  0  0
 14  6  1  0  0  0  0
 16 17  1  0  0  0  0
 17 12  2  0  0  0  0
 19  6  1  0  0  0  0
 22  1  1  0  0  0  0
 22  4  1  0  0  0  0
 23 18  1  6  0  0  0
 23  8  1  0  0  0  0
 23  5  1  0  0  0  0
 25 24  1  6  0  0  0
 26 24  1  0  0  0  0
 26 27  1  1  0  0  0
 26 25  1  0  0  0  0
 28 27  1  0  0  0  0
 28 29  1  0  0  0  0
 30 28  1  0  0  0  0
 32 31  1  0  0  0  0
M  END
>  <MODEL>
3

>  <REMARK>
 VINA RESULT:      -7.6      1.817      2.220
  Name = 
  4 active torsions:
  status: ('A' for Active; 'I' for Inactive)
    1  A    between atoms: N_7  and  C_19
    2  A    between atoms: C_10  and  C_17
    3  A    between atoms: C_20  and  N_29
    4  A    between atoms: N_29  and  C_30
                            x       y       z     vdW  Elec       q    Type
                         _______ _______ _______ _____ _____    ______ ____

>  <TORSDO>
F 4

$$$$
=
 OpenBabel11112416283D

 32 37  0  0  1  0  0  0  0  0999 V2000
  191.4220  174.5950  144.1050 C   0  0  1  0  0  3  0  0  0  0  0  0
  189.0660  173.3010  139.9580 C   0  0  0  0  0  3  0  0  0  0  0  0
  189.7000  172.0620  139.9650 C   0  0  0  0  0  3  0  0  0  0  0  0
  193.1940  172.9910  144.9080 C   0  0  0  0  0  0  0  0  0  0  0  0
  193.9090  171.7060  144.6700 C   0  0  1  0  0  3  0  0  0  0  0  0
  189.9520  175.9850  145.5110 N   0  0  0  0  0  0  0  0  0  0  0  0
  189.7360  176.1400  143.0430 C   0  0  0  0  0  2  0  0  0  0  0  0
  193.7420  169.5230  144.4480 C   0  0  1  0  0  3  0  0  0  0  0  0
  189.3410  174.2280  140.9640 C   0  0  0  0  0  3  0  0  0  0  0  0
  190.4910  174.8500  142.9570 C   0  0  0  0  0  0  0  0  0  0  0  0
  190.2550  173.9370  141.9930 C   0  0  0  0  0  0  0  0  0  0  0  0
  191.7790  172.3450  142.9680 C   0  0  0  0  0  0  0  0  0  0  0  0
  194.7210  169.7860  145.5090 N   0  0  0  0  0  2  0  0  0  0  0  0
  189.0090  176.2180  144.3920 C   0  0  2  0  0  3  0  0  0  0  0  0
  194.6540  171.1690  145.7860 N   0  0  0  0  0  2  0  0  0  0  0  0
  190.6080  171.7500  140.9750 C   0  0  0  0  0  3  0  0  0  0  0  0
  190.9010  172.6710  141.9980 C   0  0  0  0  0  0  0  0  0  0  0  0
  192.4920  170.9960  142.9700 C   0  0  0  0  0  2  0  0  0  0  0  0
  190.6000  174.6710  145.3890 C   0  0  0  0  0  2  0  0  0  0  0  0
  193.5680  173.7980  145.8000 O   0  0  0  0  0  0  0  0  0  0  0  0
  192.8730  168.3440  144.8420 C   0  0  0  0  0  1  0  0  0  0  0  0
  192.1160  173.3080  144.0020 N   0  0  0  0  0  0  0  0  0  0  0  0
  192.9310  170.7110  144.3320 N   0  0  2  0  0  0  0  0  0  0  0  0
  187.4680  177.7880  143.4320 O   0  0  0  0  0  0  0  0  0  0  0  0
  188.3680  177.6000  144.4970 C   0  0  1  0  0  3  0  0  0  0  0  0
  186.9040  177.4700  144.6780 C   0  0  1  0  0  3  0  0  0  0  0  0
  186.3790  178.6790  145.2900 N   0  0  0  0  0  2  0  0  0  0  0  0
  185.3440  178.2740  146.2250 C   0  0  0  0  0  3  0  0  0  0  0  0
  185.3080  176.7630  146.3150 C   0  0  0  0  0  1  0  0  0  0  0  0
  183.9950  178.7770  145.7460 C   0  0  0  0  0  1  0  0  0  0  0  0
  189.0180  174.6450  147.4120 C   0  0  0  0  0  1  0  0  0  0  0  0
  189.2630  176.0290  146.8100 C   0  0  0  0  0  2  0  0  0  0  0  0
  1 19  1  1  0  0  0
  2  3  1  0  0  0  0
  2  9  2  0  0  0  0
  3 16  2  0  0  0  0
  4 20  2  0  0  0  0
  5  4  1  1  0  0  0
  5 15  1  0  0  0  0
  6 32  1  0  0  0  0
  8 21  1  1  0  0  0
  8 13  1  0  0  0  0
  9 11  1  0  0  0  0
 10  7  1  0  0  0  0
 10  1  1  0  0  0  0
 11 17  1  0  0  0  0
 11 10  2  0  0  0  0
 12 18  1  0  0  0  0
 12 22  1  0  0  0  0
 13 15  1  0  0  0  0
 14  7  1  6  0  0  0
 14 25  1  0  0  0  0
 14  6  1  0  0  0  0
 16 17  1  0  0  0  0
 17 12  2  0  0  0  0
 19  6  1  0  0  0  0
 22  1  1  0  0  0  0
 22  4  1  0  0  0  0
 23 18  1  6  0  0  0
 23  8  1  0  0  0  0
 23  5  1  0  0  0  0
 24 26  1  0  0  0  0
 25 24  1  6  0  0  0
 25 26  1  0  0  0  0
 26 27  1  1  0  0  0
 27 28  1  0  0  0  0
 28 29  1  0  0  0  0
 30 28  1  0  0  0  0
 32 31  1  0  0  0  0
M  END
>  <MODEL>
4

>  <REMARK>
 VINA RESULT:      -7.4      2.695      7.995
  Name = 
  4 active torsions:
  status: ('A' for Active; 'I' for Inactive)
    1  A    between atoms: N_7  and  C_19
    2  A    between atoms: C_10  and  C_17
    3  A    between atoms: C_20  and  N_29
    4  A    between atoms: N_29  and  C_30
                            x       y       z     vdW  Elec       q    Type
                         _______ _______ _______ _____ _____    ______ ____

>  <TORSDO>
F 4

$$$$
=
 OpenBabel11112416283D

 32 37  0  0  1  0  0  0  0  0999 V2000
  191.1230  176.2030  143.5590 C   0  0  1  0  0  3  0  0  0  0  0  0
  189.4210  172.8580  140.3440 C   0  0  0  0  0  3  0  0  0  0  0  0
  190.5290  172.0480  140.5740 C   0  0  0  0  0  3  0  0  0  0  0  0
  193.4410  175.7840  144.4560 C   0  0  0  0  0  0  0  0  0  0  0  0
  194.6340  174.8920  144.4530 C   0  0  1  0  0  3  0  0  0  0  0  0
  189.2440  177.2410  144.7690 N   0  0  0  0  0  0  0  0  0  0  0  0
  188.8970  176.5260  142.4170 C   0  0  0  0  0  2  0  0  0  0  0  0
  195.4240  172.8770  144.8450 C   0  0  1  0  0  3  0  0  0  0  0  0
  189.3000  174.0780  141.0100 C   0  0  0  0  0  3  0  0  0  0  0  0
  190.1340  175.6930  142.5530 C   0  0  0  0  0  0  0  0  0  0  0  0
  190.2850  174.5130  141.9160 C   0  0  0  0  0  0  0  0  0  0  0  0
  192.3810  174.0580  143.0140 C   0  0  0  0  0  0  0  0  0  0  0  0
  196.2280  173.8260  145.6250 N   0  0  0  0  0  2  0  0  0  0  0  0
  188.2550  176.7150  143.7980 C   0  0  2  0  0  3  0  0  0  0  0  0
  195.5770  175.0750  145.5330 N   0  0  0  0  0  2  0  0  0  0  0  0
  191.5170  172.4580  141.4690 C   0  0  0  0  0  3  0  0  0  0  0  0
  191.4160  173.6850  142.1490 C   0  0  0  0  0  0  0  0  0  0  0  0
  193.6090  173.1840  143.2560 C   0  0  0  0  0  2  0  0  0  0  0  0
  190.3930  176.3330  144.8940 C   0  0  0  0  0  2  0  0  0  0  0  0
  193.4580  176.9060  145.0300 O   0  0  0  0  0  0  0  0  0  0  0  0
  195.1670  171.6310  145.6730 C   0  0  0  0  0  1  0  0  0  0  0  0
  192.3020  175.3430  143.6880 N   0  0  0  0  0  0  0  0  0  0  0  0
  194.1740  173.5370  144.5530 N   0  0  2  0  0  0  0  0  0  0  0  0
  186.0910  177.0920  142.8300 O   0  0  0  0  0  0  0  0  0  0  0  0
  187.0820  177.6800  143.6380 C   0  0  1  0  0  3  0  0  0  0  0  0
  185.8540  177.0870  144.2140 C   0  0  1  0  0  3  0  0  0  0  0  0
  184.9110  178.1430  144.5420 N   0  0  0  0  0  2  0  0  0  0  0  0
  184.6220  178.0370  145.9620 C   0  0  0  0  0  3  0  0  0  0  0  0
  185.4190  179.0810  146.7170 C   0  0  0  0  0  1  0  0  0  0  0  0
  185.0080  176.6590  146.4620 C   0  0  0  0  0  1  0  0  0  0  0  0
  188.4700  176.0790  146.8500 C   0  0  0  0  0  1  0  0  0  0  0  0
  188.6490  177.4020  146.1040 C   0  0  0  0  0  2  0  0  0  0  0  0
  1 22  1  0  0  0  0
  1 19  1  1  0  0  0
  2  3  1  0  0  0  0
  2  9  2  0  0  0  0
  3 16  2  0  0  0  0
  4 20  2  0  0  0  0
  5  4  1  1  0  0  0
  5 23  1  0  0  0  0
  5 15  1  0  0  0  0
  6 19  1  0  0  0  0
  6 32  1  0  0  0  0
  7 10  1  0  0  0  0
  8 13  1  0  0  0  0
  8 21  1  1  0  0  0
  9 11  1  0  0  0  0
 10  1  1  0  0  0  0
 11 17  1  0  0  0  0
 11 10  2  0  0  0  0
 12 18  1  0  0  0  0
 12 22  1  0  0  0  0
 14  7  1  6  0  0  0
 14  6  1  0  0  0  0
 15 13  1  0  0  0  0
 16 17  1  0  0  0  0
 17 12  2  0  0  0  0
 22  4  1  0  0  0  0
 23 18  1  6  0  0  0
 23  8  1  0  0  0  0
 24 26  1  0  0  0  0
 25 24  1  6  0  0  0
 25 14  1  0  0  0  0
 25 26  1  0  0  0  0
 26 27  1  6  0  0  0
 27 28  1  0  0  0  0
 28 30  1  0  0  0  0
 28 29  1  0  0  0  0
 32 31  1  0  0  0  0
M  END
>  <MODEL>
5

>  <REMARK>
 VINA RESULT:      -7.4      2.118      7.946
  Name = 
  4 active torsions:
  status: ('A' for Active; 'I' for Inactive)
    1  A    between atoms: N_7  and  C_19
    2  A    between atoms: C_10  and  C_17
    3  A    between atoms: C_20  and  N_29
    4  A    between atoms: N_29  and  C_30
                            x       y       z     vdW  Elec       q    Type
                         _______ _______ _______ _____ _____    ______ ____

>  <TORSDO>
F 4

$$$$
=
 OpenBabel11112416283D

 32 37  0  0  1  0  0  0  0  0999 V2000
  189.8520  174.7730  143.6760 C   0  0  1  0  0  3  0  0  0  0  0  0
  192.2880  176.6470  147.5470 C   0  0  0  0  0  3  0  0  0  0  0  0
  193.5020  176.4620  146.8930 C   0  0  0  0  0  3  0  0  0  0  0  0
  191.2830  173.7900  141.8490 C   0  0  0  0  0  0  0  0  0  0  0  0
  192.6640  173.5020  141.3680 C   0  0  1  0  0  3  0  0  0  0  0  0
  187.6990  175.9370  143.3920 N   0  0  0  0  0  0  0  0  0  0  0  0
  188.6050  175.6490  145.6860 C   0  0  0  0  0  2  0  0  0  0  0  0
  194.6240  174.3260  140.8050 C   0  0  1  0  0  3  0  0  0  0  0  0
  191.0980  176.2690  146.9230 C   0  0  0  0  0  3  0  0  0  0  0  0
  189.9310  175.3520  145.0580 C   0  0  0  0  0  0  0  0  0  0  0  0
  191.0990  175.6960  145.6380 C   0  0  0  0  0  0  0  0  0  0  0  0
  192.3900  174.9710  143.7370 C   0  0  0  0  0  0  0  0  0  0  0  0
  194.1430  173.5190  139.6770 N   0  0  0  0  0  2  0  0  0  0  0  0
  187.7820  176.5390  144.7440 C   0  0  2  0  0  3  0  0  0  0  0  0
  192.8030  173.1810  139.9660 N   0  0  0  0  0  2  0  0  0  0  0  0
  193.5280  175.8990  145.6170 C   0  0  0  0  0  3  0  0  0  0  0  0
  192.3410  175.5090  144.9720 C   0  0  0  0  0  0  0  0  0  0  0  0
  193.7200  174.7470  143.0230 C   0  0  0  0  0  2  0  0  0  0  0  0
  189.0390  175.7400  142.8200 C   0  0  0  0  0  2  0  0  0  0  0  0
  190.2700  173.3390  141.2510 O   0  0  0  0  0  0  0  0  0  0  0  0
  195.2860  175.5870  140.2790 C   0  0  0  0  0  1  0  0  0  0  0  0
  191.1700  174.5290  143.0840 N   0  0  0  0  0  0  0  0  0  0  0  0
  193.4630  174.6730  141.5890 N   0  0  2  0  0  0  0  0  0  0  0  0
  186.4990  177.3060  146.6220 O   0  0  0  0  0  0  0  0  0  0  0  0
  186.3920  176.7040  145.3540 C   0  0  1  0  0  3  0  0  0  0  0  0
  186.0960  178.1400  145.5650 C   0  0  1  0  0  3  0  0  0  0  0  0
  184.6580  178.3360  145.6310 N   0  0  0  0  0  2  0  0  0  0  0  0
  184.3020  179.2730  144.5790 C   0  0  0  0  0  3  0  0  0  0  0  0
  183.8000  178.5080  143.3720 C   0  0  0  0  0  1  0  0  0  0  0  0
  185.5200  180.0850  144.1820 C   0  0  0  0  0  1  0  0  0  0  0  0
  187.7370  177.9880  141.9520 C   0  0  0  0  0  1  0  0  0  0  0  0
  186.9360  176.7930  142.4710 C   0  0  0  0  0  2  0  0  0  0  0  0
  1 19  1  6  0  0  0
  1 10  1  0  0  0  0
  3  2  1  0  0  0  0
  4 22  1  0  0  0  0
  5 15  1  6  0  0  0
  5 23  1  0  0  0  0
  5  4  1  0  0  0  0
  6 14  1  0  0  0  0
  8 21  1  6  0  0  0
  8 23  1  0  0  0  0
  9  2  2  0  0  0  0
 10 11  2  0  0  0  0
 10  7  1  0  0  0  0
 11  9  1  0  0  0  0
 12 17  2  0  0  0  0
 13 15  1  0  0  0  0
 13  8  1  0  0  0  0
 14 25  1  0  0  0  0
 14  7  1  1  0  0  0
 16  3  2  0  0  0  0
 17 16  1  0  0  0  0
 17 11  1  0  0  0  0
 18 12  1  0  0  0  0
 19  6  1  0  0  0  0
 20  4  2  0  0  0  0
 22  1  1  0  0  0  0
 22 12  1  0  0  0  0
 23 18  1  1  0  0  0
 25 26  1  0  0  0  0
 25 24  1  1  0  0  0
 26 27  1  1  0  0  0
 26 24  1  0  0  0  0
 28 27  1  0  0  0  0
 29 28  1  0  0  0  0
 30 28  1  0  0  0  0
 31 32  1  0  0  0  0
 32  6  1  0  0  0  0
M  END
>  <MODEL>
6

>  <REMARK>
 VINA RESULT:      -7.4      2.803      8.443
  Name = 
  4 active torsions:
  status: ('A' for Active; 'I' for Inactive)
    1  A    between atoms: N_7  and  C_19
    2  A    between atoms: C_10  and  C_17
    3  A    between atoms: C_20  and  N_29
    4  A    between atoms: N_29  and  C_30
                            x       y       z     vdW  Elec       q    Type
                         _______ _______ _______ _____ _____    ______ ____

>  <TORSDO>
F 4

$$$$
=
 OpenBabel11112416283D

 32 37  0  0  1  0  0  0  0  0999 V2000
  192.1460  175.8850  144.0690 C   0  0  1  0  0  3  0  0  0  0  0  0
  190.3040  173.0040  140.5000 C   0  0  0  0  0  3  0  0  0  0  0  0
  191.3170  172.0730  140.7060 C   0  0  0  0  0  3  0  0  0  0  0  0
  194.3650  175.1650  145.0250 C   0  0  0  0  0  0  0  0  0  0  0  0
  195.4670  174.1620  144.9950 C   0  0  1  0  0  3  0  0  0  0  0  0
  190.3140  176.9990  145.2820 N   0  0  0  0  0  0  0  0  0  0  0  0
  190.0240  176.5200  142.8630 C   0  0  0  0  0  2  0  0  0  0  0  0
  196.0400  172.0530  145.2430 C   0  0  1  0  0  3  0  0  0  0  0  0
  190.2650  174.1700  141.2650 C   0  0  0  0  0  3  0  0  0  0  0  0
  191.1670  175.5610  142.9790 C   0  0  0  0  0  0  0  0  0  0  0  0
  191.2390  174.4290  142.2480 C   0  0  0  0  0  0  0  0  0  0  0  0
  193.2220  173.6780  143.3920 C   0  0  0  0  0  0  0  0  0  0  0  0
  196.8890  172.8490  146.1370 N   0  0  0  0  0  2  0  0  0  0  0  0
  189.3320  176.6570  144.2260 C   0  0  2  0  0  3  0  0  0  0  0  0
  196.3650  174.1600  146.1280 N   0  0  0  0  0  2  0  0  0  0  0  0
  192.2910  172.3060  141.6760 C   0  0  0  0  0  3  0  0  0  0  0  0
  192.2720  173.4760  142.4570 C   0  0  0  0  0  0  0  0  0  0  0  0
  194.3470  172.6700  143.6090 C   0  0  0  0  0  2  0  0  0  0  0  0
  191.3640  175.9740  145.3760 C   0  0  0  0  0  2  0  0  0  0  0  0
  194.4590  176.2280  145.6960 O   0  0  0  0  0  0  0  0  0  0  0  0
  195.6230  170.7740  145.9460 C   0  0  0  0  0  1  0  0  0  0  0  0
  193.2300  174.9040  144.1720 N   0  0  0  0  0  0  0  0  0  0  0  0
  194.8750  172.8560  144.9560 N   0  0  2  0  0  0  0  0  0  0  0  0
  187.4110  177.4460  143.0230 O   0  0  0  0  0  0  0  0  0  0  0  0
  188.2650  177.7430  144.1010 C   0  0  1  0  0  3  0  0  0  0  0  0
  186.9200  177.1610  144.3080 C   0  0  1  0  0  3  0  0  0  0  0  0
  185.9940  178.2060  144.7100 N   0  0  0  0  0  2  0  0  0  0  0  0
  184.9970  177.5910  145.5700 C   0  0  0  0  0  3  0  0  0  0  0  0
  184.0860  178.6630  146.1310 C   0  0  0  0  0  1  0  0  0  0  0  0
  185.6830  176.8720  146.7160 C   0  0  0  0  0  1  0  0  0  0  0  0
  189.2730  175.7520  147.1910 C   0  0  0  0  0  1  0  0  0  0  0  0
  189.6690  177.1060  146.5990 C   0  0  0  0  0  2  0  0  0  0  0  0
  1 22  1  0  0  0  0
  1 19  1  1  0  0  0
  2  3  1  0  0  0  0
  2  9  2  0  0  0  0
  3 16  2  0  0  0  0
  4 20  2  0  0  0  0
  5  4  1  1  0  0  0
  5 15  1  0  0  0  0
  6 19  1  0  0  0  0
  6 32  1  0  0  0  0
  7 10  1  0  0  0  0
  8 21  1  1  0  0  0
  8 13  1  0  0  0  0
  9 11  1  0  0  0  0
 10  1  1  0  0  0  0
 11 17  1  0  0  0  0
 11 10  2  0  0  0  0
 12 18  1  0  0  0  0
 12 22  1  0  0  0  0
 14  7  1  6  0  0  0
 14  6  1  0  0  0  0
 15 13  1  0  0  0  0
 16 17  1  0  0  0  0
 17 12  2  0  0  0  0
 22  4  1  0  0  0  0
 23 18  1  6  0  0  0
 23  5  1  0  0  0  0
 23  8  1  0  0  0  0
 24 26  1  0  0  0  0
 25 24  1  6  0  0  0
 25 14  1  0  0  0  0
 25 26  1  0  0  0  0
 26 27  1  1  0  0  0
 27 28  1  0  0  0  0
 28 29  1  0  0  0  0
 28 30  1  0  0  0  0
 32 31  1  0  0  0  0
M  END
>  <MODEL>
7

>  <REMARK>
 VINA RESULT:      -7.3      2.010      8.168
  Name = 
  4 active torsions:
  status: ('A' for Active; 'I' for Inactive)
    1  A    between atoms: N_7  and  C_19
    2  A    between atoms: C_10  and  C_17
    3  A    between atoms: C_20  and  N_29
    4  A    between atoms: N_29  and  C_30
                            x       y       z     vdW  Elec       q    Type
                         _______ _______ _______ _____ _____    ______ ____

>  <TORSDO>
F 4

$$$$
=
 OpenBabel11112416283D

 32 37  0  0  1  0  0  0  0  0999 V2000
  186.7000  176.1630  142.9220 C   0  0  1  0  0  3  0  0  0  0  0  0
  185.3500  178.9890  146.7460 C   0  0  0  0  0  3  0  0  0  0  0  0
  186.4820  178.6000  147.4550 C   0  0  0  0  0  3  0  0  0  0  0  0
  188.6970  174.6740  143.3080 C   0  0  0  0  0  0  0  0  0  0  0  0
  189.7520  174.2300  144.2620 C   0  0  1  0  0  3  0  0  0  0  0  0
  186.0650  177.2510  140.8050 N   0  0  0  0  0  0  0  0  0  0  0  0
  184.6280  177.5970  142.8010 C   0  0  0  0  0  2  0  0  0  0  0  0
  191.4630  174.8160  145.5140 C   0  0  1  0  0  3  0  0  0  0  0  0
  185.1210  178.4800  145.4670 C   0  0  0  0  0  3  0  0  0  0  0  0
  185.7720  177.1040  143.6320 C   0  0  0  0  0  0  0  0  0  0  0  0
  186.0160  177.5700  144.8750 C   0  0  0  0  0  0  0  0  0  0  0  0
  188.0610  176.3100  145.0700 C   0  0  0  0  0  0  0  0  0  0  0  0
  191.9140  173.7370  144.6270 N   0  0  0  0  0  2  0  0  0  0  0  0
  185.1690  178.2060  141.5000 C   0  0  2  0  0  3  0  0  0  0  0  0
  190.8780  173.5260  143.6910 N   0  0  0  0  0  2  0  0  0  0  0  0
  187.3850  177.7010  146.8870 C   0  0  0  0  0  3  0  0  0  0  0  0
  187.1720  177.1740  145.6010 C   0  0  0  0  0  0  0  0  0  0  0  0
  189.2940  175.8640  145.8500 C   0  0  0  0  0  2  0  0  0  0  0  0
  187.1950  176.8700  141.6640 C   0  0  0  0  0  2  0  0  0  0  0  0
  188.5230  174.0970  142.2020 O   0  0  0  0  0  0  0  0  0  0  0  0
  192.5550  175.8630  145.6340 C   0  0  0  0  0  1  0  0  0  0  0  0
  187.8230  175.7310  143.7580 N   0  0  0  0  0  0  0  0  0  0  0  0
  190.2950  175.3960  144.8970 N   0  0  2  0  0  0  0  0  0  0  0  0
  183.3080  177.3960  140.2180 O   0  0  0  0  0  0  0  0  0  0  0  0
  183.9720  178.5690  140.6220 C   0  0  1  0  0  3  0  0  0  0  0  0
  182.7160  178.1220  141.2650 C   0  0  1  0  0  3  0  0  0  0  0  0
  181.6000  178.8930  140.7430 N   0  0  0  0  0  2  0  0  0  0  0  0
  180.3810  178.2000  141.1240 C   0  0  0  0  0  3  0  0  0  0  0  0
  179.4430  178.1420  139.9370 C   0  0  0  0  0  1  0  0  0  0  0  0
  179.7030  178.9440  142.2590 C   0  0  0  0  0  1  0  0  0  0  0  0
  186.6390  176.8480  138.3990 C   0  0  0  0  0  1  0  0  0  0  0  0
  186.6120  177.8320  139.5700 C   0  0  0  0  0  2  0  0  0  0  0  0
  1 19  1  6  0  0  0
  1 10  1  0  0  0  0
  1 22  1  0  0  0  0
  2  3  1  0  0  0  0
  4 22  1  0  0  0  0
  5  4  1  6  0  0  0
  5 23  1  0  0  0  0
  6 14  1  0  0  0  0
  6 19  1  0  0  0  0
  7 10  1  0  0  0  0
  8 21  1  6  0  0  0
  9  2  2  0  0  0  0
 10 11  2  0  0  0  0
 11  9  1  0  0  0  0
 11 17  1  0  0  0  0
 12 17  2  0  0  0  0
 12 18  1  0  0  0  0
 13  8  1  0  0  0  0
 14  7  1  1  0  0  0
 15  5  1  0  0  0  0
 15 13  1  0  0  0  0
 16  3  2  0  0  0  0
 17 16  1  0  0  0  0
 20  4  2  0  0  0  0
 22 12  1  0  0  0  0
 23  8  1  0  0  0  0
 23 18  1  1  0  0  0
 24 26  1  0  0  0  0
 25 24  1  6  0  0  0
 25 26  1  0  0  0  0
 25 14  1  0  0  0  0
 26 27  1  6  0  0  0
 27 28  1  0  0  0  0
 28 30  1  0  0  0  0
 29 28  1  0  0  0  0
 31 32  1  0  0  0  0
 32  6  1  0  0  0  0
M  END
>  <MODEL>
8

>  <REMARK>
 VINA RESULT:      -7.2      3.444      9.440
  Name = 
  4 active torsions:
  status: ('A' for Active; 'I' for Inactive)
    1  A    between atoms: N_7  and  C_19
    2  A    between atoms: C_10  and  C_17
    3  A    between atoms: C_20  and  N_29
    4  A    between atoms: N_29  and  C_30
                            x       y       z     vdW  Elec       q    Type
                         _______ _______ _______ _____ _____    ______ ____

>  <TORSDO>
F 4

$$$$
=
 OpenBabel11112416283D

 32 37  0  0  1  0  0  0  0  0999 V2000
  192.1670  175.1910  144.3780 C   0  0  1  0  0  3  0  0  0  0  0  0
  189.4420  172.2300  141.5080 C   0  0  0  0  0  3  0  0  0  0  0  0
  190.3480  171.1900  141.6930 C   0  0  0  0  0  3  0  0  0  0  0  0
  194.3970  174.2670  145.1050 C   0  0  0  0  0  0  0  0  0  0  0  0
  195.3440  173.1180  145.0550 C   0  0  1  0  0  3  0  0  0  0  0  0
  190.7020  176.6870  145.6760 N   0  0  0  0  0  0  0  0  0  0  0  0
  189.9810  175.9900  143.4050 C   0  0  0  0  0  2  0  0  0  0  0  0
  195.6760  170.9880  145.4960 C   0  0  1  0  0  3  0  0  0  0  0  0
  189.6710  173.4670  142.1120 C   0  0  0  0  0  3  0  0  0  0  0  0
  190.9970  174.8930  143.4870 C   0  0  0  0  0  0  0  0  0  0  0  0
  190.8100  173.6890  142.9080 C   0  0  0  0  0  0  0  0  0  0  0  0
  192.8350  172.7900  143.8550 C   0  0  0  0  0  0  0  0  0  0  0  0
  196.7470  171.7470  146.1520 N   0  0  0  0  0  2  0  0  0  0  0  0
  189.5320  176.3760  144.8200 C   0  0  2  0  0  3  0  0  0  0  0  0
  196.3990  173.1120  146.0430 N   0  0  0  0  0  2  0  0  0  0  0  0
  191.4820  171.3850  142.4790 C   0  0  0  0  0  3  0  0  0  0  0  0
  191.7330  172.6250  143.0950 C   0  0  0  0  0  0  0  0  0  0  0  0
  193.8430  171.6590  144.0450 C   0  0  0  0  0  2  0  0  0  0  0  0
  191.6150  175.5380  145.7580 C   0  0  0  0  0  2  0  0  0  0  0  0
  194.7280  175.3730  145.6100 O   0  0  0  0  0  0  0  0  0  0  0  0
  195.2130  169.8700  146.4120 C   0  0  0  0  0  1  0  0  0  0  0  0
  193.1200  174.0810  144.4590 N   0  0  0  0  0  0  0  0  0  0  0  0
  194.5920  171.9150  145.2700 N   0  0  2  0  0  0  0  0  0  0  0  0
  187.5580  177.2940  143.8090 O   0  0  0  0  0  0  0  0  0  0  0  0
  188.6060  177.5850  144.7020 C   0  0  1  0  0  3  0  0  0  0  0  0
  187.2480  177.2340  145.1780 C   0  0  1  0  0  3  0  0  0  0  0  0
  186.5390  178.4430  145.5610 N   0  0  0  0  0  2  0  0  0  0  0  0
  185.9060  178.1820  146.8430 C   0  0  0  0  0  3  0  0  0  0  0  0
  186.3170  176.8120  147.3390 C   0  0  0  0  0  1  0  0  0  0  0  0
  184.3980  178.2220  146.6860 C   0  0  0  0  0  1  0  0  0  0  0  0
  191.3310  176.6700  148.1020 C   0  0  0  0  0  1  0  0  0  0  0  0
  190.2870  177.0330  147.0440 C   0  0  0  0  0  2  0  0  0  0  0  0
  1 22  1  0  0  0  0
  1 19  1  1  0  0  0
  2  3  1  0  0  0  0
  2  9  2  0  0  0  0
  3 16  2  0  0  0  0
  4 20  2  0  0  0  0
  5  4  1  1  0  0  0
  5 23  1  0  0  0  0
  5 15  1  0  0  0  0
  6 19  1  0  0  0  0
  6 32  1  0  0  0  0
  7 10  1  0  0  0  0
  8 13  1  0  0  0  0
  8 21  1  1  0  0  0
  9 11  1  0  0  0  0
 10  1  1  0  0  0  0
 11 17  1  0  0  0  0
 11 10  2  0  0  0  0
 12 18  1  0  0  0  0
 12 22  1  0  0  0  0
 14  7  1  6  0  0  0
 14  6  1  0  0  0  0
 15 13  1  0  0  0  0
 16 17  1  0  0  0  0
 17 12  2  0  0  0  0
 22  4  1  0  0  0  0
 23 18  1  6  0  0  0
 23  8  1  0  0  0  0
 24 26  1  0  0  0  0
 25 24  1  6  0  0  0
 25 14  1  0  0  0  0
 25 26  1  0  0  0  0
 26 27  1  6  0  0  0
 27 28  1  0  0  0  0
 28 29  1  0  0  0  0
 30 28  1  0  0  0  0
 32 31  1  0  0  0  0
M  END
>  <MODEL>
9

>  <REMARK>
 VINA RESULT:      -7.2      2.110      8.110
  Name = 
  4 active torsions:
  status: ('A' for Active; 'I' for Inactive)
    1  A    between atoms: N_7  and  C_19
    2  A    between atoms: C_10  and  C_17
    3  A    between atoms: C_20  and  N_29
    4  A    between atoms: N_29  and  C_30
                            x       y       z     vdW  Elec       q    Type
                         _______ _______ _______ _____ _____    ______ ____

>  <TORSDO>
F 4

$$$$
