=
 OpenBabel11112416543D

 31 35  0  0  1  0  0  0  0  0999 V2000
  184.9560  178.5070  146.1000 C   0  0  0  0  0  0  0  0  0  0  0  0
  187.8400  177.7480  143.6820 C   0  0  1  0  0  3  0  0  0  0  0  0
  187.1250  177.5940  142.3510 C   0  0  0  0  0  0  0  0  0  0  0  0
  191.1240  176.2310  147.6570 O   0  0  0  0  0  0  0  0  0  0  0  0
  191.6120  175.8640  146.5550 C   0  0  0  0  0  0  0  0  0  0  0  0
  185.4350  178.3120  140.7540 C   0  0  0  0  0  0  0  0  0  0  0  0
  186.9830  177.8250  144.9370 C   0  0  0  0  0  0  0  0  0  0  0  0
  185.5390  178.1770  147.3250 C   0  0  0  0  0  3  0  0  0  0  0  0
  186.0220  178.3970  142.0190 C   0  0  0  0  0  3  0  0  0  0  0  0
  189.5840  176.6360  145.2030 C   0  0  0  0  0  0  0  0  0  0  0  0
  183.6950  178.9980  146.0600 F   0  0  0  0  0  0  0  0  0  0  0  0
  188.8260  176.0220  141.6380 O   0  0  0  0  0  0  0  0  0  0  0  0
  184.3560  179.0750  140.4570 F   0  0  0  0  0  0  0  0  0  0  0  0
  188.9040  176.9840  146.2560 N   0  0  0  0  0  0  0  0  0  0  0  0
  188.9770  176.7630  143.8670 C   0  0  0  0  0  0  0  0  0  0  0  0
  190.8920  176.0620  145.3310 N   0  0  0  0  0  2  0  0  0  0  0  0
  185.6800  178.3460  144.9170 C   0  0  0  0  0  3  0  0  0  0  0  0
  185.9650  177.4480  139.7950 C   0  0  0  0  0  3  0  0  0  0  0  0
  187.5690  177.5080  146.1840 C   0  0  0  0  0  0  0  0  0  0  0  0
  186.8430  177.6810  147.3670 C   0  0  0  0  0  3  0  0  0  0  0  0
  189.4100  176.0240  142.8900 N   0  0  0  0  0  0  0  0  0  0  0  0
  187.6770  176.7600  141.3630 C   0  0  0  0  0  0  0  0  0  0  0  0
  187.0890  176.6780  140.0970 C   0  0  0  0  0  3  0  0  0  0  0  0
  194.4990  175.9070  144.1070 C   0  0  1  0  0  3  0  0  0  0  0  0
  194.0900  176.2670  146.5600 C   0  0  0  0  0  2  0  0  0  0  0  0
  192.0800  173.1720  145.3290 C   0  0  0  0  0  1  0  0  0  0  0  0
  194.6270  176.5490  142.8770 O   0  0  0  0  0  1  0  0  0  0  0  0
  194.2500  176.9450  145.1970 C   0  0  0  0  0  2  0  0  0  0  0  0
  193.1810  174.2160  145.3930 C   0  0  2  0  0  3  0  0  0  0  0  0
  192.9700  175.2210  146.5400 C   0  0  2  0  0  3  0  0  0  0  0  0
  193.3440  174.9140  144.0440 C   0  0  0  0  0  2  0  0  0  0  0  0
  1  8  1  0  0  0  0
  2  3  1  6  0  0  0
  2 15  1  0  0  0  0
  2  7  1  0  0  0  0
  5  4  2  0  0  0  0
  6  9  2  0  0  0  0
  7 19  2  0  0  0  0
  8 20  2  0  0  0  0
  9  3  1  0  0  0  0
 10 16  1  0  0  0  0
 10 14  2  0  0  0  0
 11  1  1  0  0  0  0
 12 21  1  0  0  0  0
 13  6  1  0  0  0  0
 15 10  1  0  0  0  0
 16  5  1  0  0  0  0
 17  7  1  0  0  0  0
 17  1  2  0  0  0  0
 18 23  2  0  0  0  0
 18  6  1  0  0  0  0
 19 14  1  0  0  0  0
 19 20  1  0  0  0  0
 21 15  2  0  0  0  0
 22 12  1  0  0  0  0
 22  3  2  0  0  0  0
 23 22  1  0  0  0  0
 24 27  1  6  0  0  0
 24 28  1  0  0  0  0
 28 25  1  0  0  0  0
 29 26  1  6  0  0  0
 29 30  1  0  0  0  0
 30  5  1  6  0  0  0
 30 25  1  0  0  0  0
 31 24  1  0  0  0  0
 31 29  1  0  0  0  0
M  END
>  <MODEL>
1

>  <REMARK>
 VINA RESULT:     -10.0      0.000      0.000
  Name = 
  1 active torsions:
  status: ('A' for Active; 'I' for Inactive)
    1  A    between atoms: C_5  and  C_30
                            x       y       z     vdW  Elec       q    Type
                         _______ _______ _______ _____ _____    ______ ____

>  <TORSDO>
F 1

$$$$
=
 OpenBabel11112416543D

 31 35  0  0  1  0  0  0  0  0999 V2000
  185.6830  177.6170  141.2880 C   0  0  0  0  0  0  0  0  0  0  0  0
  187.3020  176.5790  144.6120 C   0  0  1  0  0  3  0  0  0  0  0  0
  186.5470  177.4220  145.6250 C   0  0  0  0  0  0  0  0  0  0  0  0
  191.6850  174.6440  142.1770 O   0  0  0  0  0  0  0  0  0  0  0  0
  191.9140  174.7600  143.4100 C   0  0  0  0  0  0  0  0  0  0  0  0
  184.4750  178.3820  146.4640 C   0  0  0  0  0  0  0  0  0  0  0  0
  187.0920  176.8960  143.1380 C   0  0  0  0  0  0  0  0  0  0  0  0
  186.6650  177.2230  140.3760 C   0  0  0  0  0  3  0  0  0  0  0  0
  185.1770  177.6880  145.4760 C   0  0  0  0  0  3  0  0  0  0  0  0
  189.6650  175.8720  143.9000 C   0  0  0  0  0  0  0  0  0  0  0  0
  184.5240  178.1570  140.8430 F   0  0  0  0  0  0  0  0  0  0  0  0
  188.5200  177.4670  147.0320 O   0  0  0  0  0  0  0  0  0  0  0  0
  183.1580  178.6520  146.2960 F   0  0  0  0  0  0  0  0  0  0  0  0
  189.3120  175.9110  142.6490 N   0  0  0  0  0  0  0  0  0  0  0  0
  188.7770  176.4440  144.9270 C   0  0  0  0  0  0  0  0  0  0  0  0
  190.9400  175.3410  144.2870 N   0  0  0  0  0  2  0  0  0  0  0  0
  185.8910  177.4400  142.6580 C   0  0  0  0  0  3  0  0  0  0  0  0
  185.1270  178.7890  147.6290 C   0  0  0  0  0  3  0  0  0  0  0  0
  188.0730  176.4850  142.2050 C   0  0  0  0  0  0  0  0  0  0  0  0
  187.8550  176.6560  140.8350 C   0  0  0  0  0  3  0  0  0  0  0  0
  189.2740  176.8350  146.0620 N   0  0  0  0  0  0  0  0  0  0  0  0
  187.1840  177.7980  146.8210 C   0  0  0  0  0  0  0  0  0  0  0  0
  186.4790  178.4920  147.8100 C   0  0  0  0  0  3  0  0  0  0  0  0
  194.2200  175.9610  146.1630 C   0  0  1  0  0  3  0  0  0  0  0  0
  193.1020  173.8370  145.4200 C   0  0  0  0  0  2  0  0  0  0  0  0
  194.5390  175.7190  142.3330 C   0  0  0  0  0  1  0  0  0  0  0  0
  194.1090  177.0570  147.0150 O   0  0  0  0  0  1  0  0  0  0  0  0
  193.0160  175.0430  146.3570 C   0  0  0  0  0  2  0  0  0  0  0  0
  194.3960  175.2530  143.7710 C   0  0  2  0  0  3  0  0  0  0  0  0
  193.2260  174.2680  143.9540 C   0  0  2  0  0  3  0  0  0  0  0  0
  194.2920  176.4460  144.7190 C   0  0  0  0  0  2  0  0  0  0  0  0
  1 17  1  0  0  0  0
  2  7  1  6  0  0  0
  2 15  1  0  0  0  0
  2  3  1  0  0  0  0
  3 22  1  0  0  0  0
  4  5  2  0  0  0  0
  5 16  1  0  0  0  0
  6 18  2  0  0  0  0
  8 20  1  0  0  0  0
  8  1  2  0  0  0  0
  9  3  2  0  0  0  0
  9  6  1  0  0  0  0
 10 16  1  0  0  0  0
 10 15  1  0  0  0  0
 11  1  1  0  0  0  0
 13  6  1  0  0  0  0
 14 10  2  0  0  0  0
 15 21  2  0  0  0  0
 17  7  2  0  0  0  0
 18 23  1  0  0  0  0
 19 14  1  0  0  0  0
 19  7  1  0  0  0  0
 20 19  2  0  0  0  0
 21 12  1  0  0  0  0
 22 12  1  0  0  0  0
 22 23  2  0  0  0  0
 24 28  1  0  0  0  0
 24 27  1  1  0  0  0
 25 28  1  0  0  0  0
 29 26  1  6  0  0  0
 29 30  1  0  0  0  0
 29 31  1  0  0  0  0
 30  5  1  1  0  0  0
 30 25  1  0  0  0  0
 31 24  1  0  0  0  0
M  END
>  <MODEL>
2

>  <REMARK>
 VINA RESULT:      -9.7      1.318      4.436
  Name = 
  1 active torsions:
  status: ('A' for Active; 'I' for Inactive)
    1  A    between atoms: C_5  and  C_30
                            x       y       z     vdW  Elec       q    Type
                         _______ _______ _______ _____ _____    ______ ____

>  <TORSDO>
F 1

$$$$
=
 OpenBabel11112416543D

 31 35  0  0  1  0  0  0  0  0999 V2000
  184.9980  177.4380  146.5710 C   0  0  0  0  0  0  0  0  0  0  0  0
  187.2490  178.0460  143.5200 C   0  0  1  0  0  3  0  0  0  0  0  0
  186.2690  177.9580  142.3630 C   0  0  0  0  0  0  0  0  0  0  0  0
  191.7150  176.7910  146.2330 O   0  0  0  0  0  0  0  0  0  0  0  0
  191.9710  176.8070  145.0000 C   0  0  0  0  0  0  0  0  0  0  0  0
  184.1010  178.4550  141.3750 C   0  0  0  0  0  0  0  0  0  0  0  0
  186.7540  177.6190  144.8950 C   0  0  0  0  0  0  0  0  0  0  0  0
  185.9400  177.0560  147.5280 C   0  0  0  0  0  3  0  0  0  0  0  0
  184.9610  178.4540  142.4760 C   0  0  0  0  0  3  0  0  0  0  0  0
  189.5390  177.2090  144.3240 C   0  0  0  0  0  0  0  0  0  0  0  0
  183.6910  177.5400  146.9100 F   0  0  0  0  0  0  0  0  0  0  0  0
  188.0460  177.1210  140.9430 O   0  0  0  0  0  0  0  0  0  0  0  0
  182.8340  178.9160  141.5050 F   0  0  0  0  0  0  0  0  0  0  0  0
  189.0940  177.1290  145.5430 N   0  0  0  0  0  0  0  0  0  0  0  0
  188.5930  177.4170  143.2140 C   0  0  0  0  0  0  0  0  0  0  0  0
  190.9320  177.0260  144.0370 N   0  0  0  0  0  2  0  0  0  0  0  0
  185.4060  177.7330  145.2680 C   0  0  0  0  0  3  0  0  0  0  0  0
  184.5520  177.9910  140.1380 C   0  0  0  0  0  3  0  0  0  0  0  0
  187.7020  177.2450  145.8750 C   0  0  0  0  0  0  0  0  0  0  0  0
  187.2890  176.9620  147.1810 C   0  0  0  0  0  3  0  0  0  0  0  0
  188.9180  177.0440  142.0120 N   0  0  0  0  0  0  0  0  0  0  0  0
  186.7250  177.5330  141.1030 C   0  0  0  0  0  0  0  0  0  0  0  0
  185.8640  177.5370  140.0000 C   0  0  0  0  0  3  0  0  0  0  0  0
  194.2970  173.8190  144.9530 C   0  0  1  0  0  3  0  0  0  0  0  0
  193.4770  175.6060  143.3890 C   0  0  0  0  0  2  0  0  0  0  0  0
  194.2930  177.1660  146.8590 C   0  0  0  0  0  1  0  0  0  0  0  0
  194.0890  172.5100  145.3810 O   0  0  0  0  0  1  0  0  0  0  0  0
  193.2830  174.1660  143.8670 C   0  0  0  0  0  2  0  0  0  0  0  0
  194.3620  176.2110  145.6800 C   0  0  2  0  0  3  0  0  0  0  0  0
  193.3900  176.6030  144.5510 C   0  0  2  0  0  3  0  0  0  0  0  0
  194.1540  174.7690  146.1380 C   0  0  0  0  0  2  0  0  0  0  0  0
  1 11  1  0  0  0  0
  1  8  1  0  0  0  0
  2  3  1  6  0  0  0
  2  7  1  0  0  0  0
  3  9  1  0  0  0  0
  5  4  2  0  0  0  0
  6 13  1  0  0  0  0
  6  9  2  0  0  0  0
  7 17  1  0  0  0  0
  7 19  2  0  0  0  0
 10 14  2  0  0  0  0
 12 22  1  0  0  0  0
 12 21  1  0  0  0  0
 14 19  1  0  0  0  0
 15  2  1  0  0  0  0
 15 10  1  0  0  0  0
 16 10  1  0  0  0  0
 16  5  1  0  0  0  0
 17  1  2  0  0  0  0
 18  6  1  0  0  0  0
 19 20  1  0  0  0  0
 20  8  2  0  0  0  0
 21 15  2  0  0  0  0
 22  3  2  0  0  0  0
 23 18  2  0  0  0  0
 23 22  1  0  0  0  0
 24 27  1  1  0  0  0
 24 31  1  0  0  0  0
 25 28  1  0  0  0  0
 25 30  1  0  0  0  0
 28 24  1  0  0  0  0
 29 31  1  0  0  0  0
 29 26  1  1  0  0  0
 30  5  1  1  0  0  0
 30 29  1  0  0  0  0
M  END
>  <MODEL>
3

>  <REMARK>
 VINA RESULT:      -9.3      1.440      2.021
  Name = 
  1 active torsions:
  status: ('A' for Active; 'I' for Inactive)
    1  A    between atoms: C_5  and  C_30
                            x       y       z     vdW  Elec       q    Type
                         _______ _______ _______ _____ _____    ______ ____

>  <TORSDO>
F 1

$$$$
=
 OpenBabel11112416543D

 31 35  0  0  1  0  0  0  0  0999 V2000
  185.4100  177.9760  141.1040 C   0  0  0  0  0  0  0  0  0  0  0  0
  186.9920  176.5180  144.2850 C   0  0  1  0  0  3  0  0  0  0  0  0
  186.3700  177.3640  145.3830 C   0  0  0  0  0  0  0  0  0  0  0  0
  191.0480  174.2800  141.5600 O   0  0  0  0  0  0  0  0  0  0  0  0
  191.3250  174.2780  142.7890 C   0  0  0  0  0  0  0  0  0  0  0  0
  184.4480  178.4900  146.3640 C   0  0  0  0  0  0  0  0  0  0  0  0
  186.7780  176.9640  142.8460 C   0  0  0  0  0  0  0  0  0  0  0  0
  186.3120  177.5410  140.1320 C   0  0  0  0  0  3  0  0  0  0  0  0
  185.0360  177.7950  145.3040 C   0  0  0  0  0  3  0  0  0  0  0  0
  189.2350  175.6000  143.4390 C   0  0  0  0  0  0  0  0  0  0  0  0
  184.3090  178.6760  140.7420 F   0  0  0  0  0  0  0  0  0  0  0  0
  188.3740  177.0800  146.7150 O   0  0  0  0  0  0  0  0  0  0  0  0
  183.1680  178.9190  146.2630 F   0  0  0  0  0  0  0  0  0  0  0  0
  188.8530  175.7720  142.2070 N   0  0  0  0  0  0  0  0  0  0  0  0
  188.4500  176.1930  144.5350 C   0  0  0  0  0  0  0  0  0  0  0  0
  190.4500  174.9000  143.7400 N   0  0  0  0  0  2  0  0  0  0  0  0
  185.6350  177.6760  142.4500 C   0  0  0  0  0  3  0  0  0  0  0  0
  185.1770  178.7320  147.5290 C   0  0  0  0  0  3  0  0  0  0  0  0
  187.6770  176.5150  141.8510 C   0  0  0  0  0  0  0  0  0  0  0  0
  187.4410  176.8100  140.5050 C   0  0  0  0  0  3  0  0  0  0  0  0
  189.0220  176.4390  145.6760 N   0  0  0  0  0  0  0  0  0  0  0  0
  187.0800  177.5760  146.5770 C   0  0  0  0  0  0  0  0  0  0  0  0
  186.4900  178.2700  147.6380 C   0  0  0  0  0  3  0  0  0  0  0  0
  194.9810  175.2610  142.7630 C   0  0  1  0  0  3  0  0  0  0  0  0
  193.2670  174.3830  144.3770 C   0  0  0  0  0  2  0  0  0  0  0  0
  192.9410  172.5300  140.9710 C   0  0  0  0  0  1  0  0  0  0  0  0
  195.5990  176.4160  142.2890 O   0  0  0  0  0  1  0  0  0  0  0  0
  193.9740  175.6330  143.8480 C   0  0  0  0  0  2  0  0  0  0  0  0
  193.5840  173.2900  142.1180 C   0  0  2  0  0  3  0  0  0  0  0  0
  192.5850  173.6010  143.2480 C   0  0  2  0  0  3  0  0  0  0  0  0
  194.2820  174.5490  141.6090 C   0  0  0  0  0  2  0  0  0  0  0  0
  1 17  1  0  0  0  0
  2  7  1  6  0  0  0
  2 15  1  0  0  0  0
  2  3  1  0  0  0  0
  3 22  1  0  0  0  0
  4  5  2  0  0  0  0
  5 16  1  0  0  0  0
  6 18  2  0  0  0  0
  8 20  1  0  0  0  0
  8  1  2  0  0  0  0
  9  3  2  0  0  0  0
  9  6  1  0  0  0  0
 10 16  1  0  0  0  0
 10 15  1  0  0  0  0
 11  1  1  0  0  0  0
 13  6  1  0  0  0  0
 14 10  2  0  0  0  0
 15 21  2  0  0  0  0
 17  7  2  0  0  0  0
 18 23  1  0  0  0  0
 19 14  1  0  0  0  0
 19  7  1  0  0  0  0
 20 19  2  0  0  0  0
 21 12  1  0  0  0  0
 22 12  1  0  0  0  0
 22 23  2  0  0  0  0
 24 27  1  6  0  0  0
 24 28  1  0  0  0  0
 28 25  1  0  0  0  0
 29 26  1  6  0  0  0
 29 30  1  0  0  0  0
 30  5  1  6  0  0  0
 30 25  1  0  0  0  0
 31 29  1  0  0  0  0
 31 24  1  0  0  0  0
M  END
>  <MODEL>
4

>  <REMARK>
 VINA RESULT:      -8.8      1.559      4.465
  Name = 
  1 active torsions:
  status: ('A' for Active; 'I' for Inactive)
    1  A    between atoms: C_5  and  C_30
                            x       y       z     vdW  Elec       q    Type
                         _______ _______ _______ _____ _____    ______ ____

>  <TORSDO>
F 1

$$$$
=
 OpenBabel11112416543D

 31 35  0  0  1  0  0  0  0  0999 V2000
  185.3420  177.9080  141.2150 C   0  0  0  0  0  0  0  0  0  0  0  0
  187.1290  176.6430  144.3700 C   0  0  1  0  0  3  0  0  0  0  0  0
  186.4490  177.4320  145.4750 C   0  0  0  0  0  0  0  0  0  0  0  0
  191.3310  174.8000  141.5710 O   0  0  0  0  0  0  0  0  0  0  0  0
  191.6320  174.8360  142.7930 C   0  0  0  0  0  0  0  0  0  0  0  0
  184.4450  178.3670  146.4900 C   0  0  0  0  0  0  0  0  0  0  0  0
  186.8410  177.0530  142.9330 C   0  0  0  0  0  0  0  0  0  0  0  0
  186.2630  177.5570  140.2260 C   0  0  0  0  0  3  0  0  0  0  0  0
  185.0770  177.7260  145.4220 C   0  0  0  0  0  3  0  0  0  0  0  0
  189.4340  175.9470  143.4800 C   0  0  0  0  0  0  0  0  0  0  0  0
  184.1690  178.4900  140.8730 F   0  0  0  0  0  0  0  0  0  0  0  0
  188.4990  177.3620  146.7650 O   0  0  0  0  0  0  0  0  0  0  0  0
  183.1250  178.6660  146.4150 F   0  0  0  0  0  0  0  0  0  0  0  0
  189.0120  176.0700  142.2570 N   0  0  0  0  0  0  0  0  0  0  0  0
  188.6180  176.4680  144.5900 C   0  0  0  0  0  0  0  0  0  0  0  0
  190.7200  175.3760  143.7590 N   0  0  0  0  0  2  0  0  0  0  0  0
  185.6240  177.6430  142.5570 C   0  0  0  0  0  3  0  0  0  0  0  0
  185.1700  178.6920  147.6380 C   0  0  0  0  0  3  0  0  0  0  0  0
  187.7600  176.6880  141.9220 C   0  0  0  0  0  0  0  0  0  0  0  0
  187.4670  176.9460  140.5790 C   0  0  0  0  0  3  0  0  0  0  0  0
  189.1860  176.7800  145.7160 N   0  0  0  0  0  0  0  0  0  0  0  0
  187.1590  177.7240  146.6520 C   0  0  0  0  0  0  0  0  0  0  0  0
  186.5240  178.3650  147.7210 C   0  0  0  0  0  3  0  0  0  0  0  0
  192.8980  171.3650  143.6220 C   0  0  1  0  0  3  0  0  0  0  0  0
  193.5470  173.3270  142.1920 C   0  0  0  0  0  2  0  0  0  0  0  0
  192.3690  174.5740  145.6840 C   0  0  0  0  0  1  0  0  0  0  0  0
  192.2330  170.1420  143.6250 O   0  0  0  0  0  1  0  0  0  0  0  0
  192.8370  171.9720  142.2230 C   0  0  0  0  0  2  0  0  0  0  0  0
  192.9580  173.6520  144.6300 C   0  0  2  0  0  3  0  0  0  0  0  0
  192.9640  174.2930  143.2300 C   0  0  2  0  0  3  0  0  0  0  0  0
  192.2490  172.3000  144.6370 C   0  0  0  0  0  2  0  0  0  0  0  0
  1 17  1  0  0  0  0
  2  7  1  6  0  0  0
  2 15  1  0  0  0  0
  2  3  1  0  0  0  0
  3 22  1  0  0  0  0
  4  5  2  0  0  0  0
  5 16  1  0  0  0  0
  6 18  2  0  0  0  0
  8 20  1  0  0  0  0
  8  1  2  0  0  0  0
  9  3  2  0  0  0  0
  9  6  1  0  0  0  0
 10 16  1  0  0  0  0
 10 15  1  0  0  0  0
 11  1  1  0  0  0  0
 13  6  1  0  0  0  0
 14 10  2  0  0  0  0
 15 21  2  0  0  0  0
 17  7  2  0  0  0  0
 18 23  1  0  0  0  0
 19 14  1  0  0  0  0
 19  7  1  0  0  0  0
 20 19  2  0  0  0  0
 21 12  1  0  0  0  0
 22 12  1  0  0  0  0
 22 23  2  0  0  0  0
 24 27  1  6  0  0  0
 24 31  1  0  0  0  0
 25 28  1  0  0  0  0
 25 30  1  0  0  0  0
 28 24  1  0  0  0  0
 29 31  1  0  0  0  0
 29 26  1  1  0  0  0
 30  5  1  6  0  0  0
 30 29  1  0  0  0  0
M  END
>  <MODEL>
5

>  <REMARK>
 VINA RESULT:      -8.6      1.908      4.762
  Name = 
  1 active torsions:
  status: ('A' for Active; 'I' for Inactive)
    1  A    between atoms: C_5  and  C_30
                            x       y       z     vdW  Elec       q    Type
                         _______ _______ _______ _____ _____    ______ ____

>  <TORSDO>
F 1

$$$$
=
 OpenBabel11112416543D

 31 35  0  0  1  0  0  0  0  0999 V2000
  193.8610  175.7830  143.3720 C   0  0  0  0  0  0  0  0  0  0  0  0
  190.2160  174.6360  142.9940 C   0  0  1  0  0  3  0  0  0  0  0  0
  190.1540  174.2010  141.5400 C   0  0  0  0  0  0  0  0  0  0  0  0
  188.6260  177.3800  147.3330 O   0  0  0  0  0  0  0  0  0  0  0  0
  187.6130  177.0260  146.6740 C   0  0  0  0  0  0  0  0  0  0  0  0
  191.1360  173.0750  139.6190 C   0  0  0  0  0  0  0  0  0  0  0  0
  191.4610  175.3810  143.4530 C   0  0  0  0  0  0  0  0  0  0  0  0
  193.7720  176.5910  144.5070 C   0  0  0  0  0  3  0  0  0  0  0  0
  191.2400  173.5570  140.9260 C   0  0  0  0  0  3  0  0  0  0  0  0
  188.9890  176.0420  144.7570 C   0  0  0  0  0  0  0  0  0  0  0  0
  195.0600  175.5790  142.7780 F   0  0  0  0  0  0  0  0  0  0  0  0
  187.8160  174.8350  141.4650 O   0  0  0  0  0  0  0  0  0  0  0  0
  192.2000  172.4780  139.0310 F   0  0  0  0  0  0  0  0  0  0  0  0
  190.1260  176.4220  145.2610 N   0  0  0  0  0  0  0  0  0  0  0  0
  188.9620  175.3500  143.4570 C   0  0  0  0  0  0  0  0  0  0  0  0
  187.7530  176.3520  145.4160 N   0  0  0  0  0  2  0  0  0  0  0  0
  192.7150  175.1700  142.8590 C   0  0  0  0  0  3  0  0  0  0  0  0
  189.9320  173.2010  138.9230 C   0  0  0  0  0  3  0  0  0  0  0  0
  191.3850  176.1890  144.6110 C   0  0  0  0  0  0  0  0  0  0  0  0
  192.5370  176.7910  145.1260 C   0  0  0  0  0  3  0  0  0  0  0  0
  187.8830  175.3800  142.7340 N   0  0  0  0  0  0  0  0  0  0  0  0
  188.9350  174.2830  140.8460 C   0  0  0  0  0  0  0  0  0  0  0  0
  188.8310  173.7980  139.5380 C   0  0  0  0  0  3  0  0  0  0  0  0
  184.6390  179.0140  145.4330 C   0  0  1  0  0  3  0  0  0  0  0  0
  185.1410  176.7270  146.3450 C   0  0  0  0  0  2  0  0  0  0  0  0
  187.0660  179.4160  148.3950 C   0  0  0  0  0  1  0  0  0  0  0  0
  184.4750  179.7520  144.2630 O   0  0  0  0  0  1  0  0  0  0  0  0
  184.9400  177.5600  145.0770 C   0  0  0  0  0  2  0  0  0  0  0  0
  185.9810  178.7970  147.5310 C   0  0  2  0  0  3  0  0  0  0  0  0
  186.2470  177.3090  147.2330 C   0  0  2  0  0  3  0  0  0  0  0  0
  185.7780  179.6080  146.2530 C   0  0  0  0  0  2  0  0  0  0  0  0
  1  8  1  0  0  0  0
  2  3  1  6  0  0  0
  2  7  1  0  0  0  0
  2 15  1  0  0  0  0
  5  4  2  0  0  0  0
  6  9  2  0  0  0  0
  7 19  2  0  0  0  0
  8 20  2  0  0  0  0
  9  3  1  0  0  0  0
 10 14  2  0  0  0  0
 10 16  1  0  0  0  0
 11  1  1  0  0  0  0
 12 21  1  0  0  0  0
 13  6  1  0  0  0  0
 15 10  1  0  0  0  0
 16  5  1  0  0  0  0
 17  1  2  0  0  0  0
 17  7  1  0  0  0  0
 18 23  2  0  0  0  0
 18  6  1  0  0  0  0
 19 20  1  0  0  0  0
 19 14  1  0  0  0  0
 21 15  2  0  0  0  0
 22 12  1  0  0  0  0
 22  3  2  0  0  0  0
 23 22  1  0  0  0  0
 24 27  1  6  0  0  0
 24 31  1  0  0  0  0
 25 30  1  0  0  0  0
 28 24  1  0  0  0  0
 28 25  1  0  0  0  0
 29 26  1  6  0  0  0
 30  5  1  6  0  0  0
 30 29  1  0  0  0  0
 31 29  1  0  0  0  0
M  END
>  <MODEL>
6

>  <REMARK>
 VINA RESULT:      -8.5      3.814      6.972
  Name = 
  1 active torsions:
  status: ('A' for Active; 'I' for Inactive)
    1  A    between atoms: C_5  and  C_30
                            x       y       z     vdW  Elec       q    Type
                         _______ _______ _______ _____ _____    ______ ____

>  <TORSDO>
F 1

$$$$
=
 OpenBabel11112416543D

 31 35  0  0  1  0  0  0  0  0999 V2000
  190.5950  177.1330  147.3110 C   0  0  0  0  0  0  0  0  0  0  0  0
  188.9610  176.7390  143.8580 C   0  0  1  0  0  3  0  0  0  0  0  0
  187.5410  177.2150  144.1070 C   0  0  0  0  0  0  0  0  0  0  0  0
  192.7230  173.2850  142.1820 O   0  0  0  0  0  0  0  0  0  0  0  0
  191.7450  173.2480  141.3890 C   0  0  0  0  0  0  0  0  0  0  0  0
  185.9730  178.7750  145.1220 C   0  0  0  0  0  0  0  0  0  0  0  0
  189.8560  176.5290  145.0720 C   0  0  0  0  0  0  0  0  0  0  0  0
  191.6920  176.2790  147.1880 C   0  0  0  0  0  3  0  0  0  0  0  0
  187.2730  178.2840  144.9770 C   0  0  0  0  0  3  0  0  0  0  0  0
  190.3200  174.8360  142.7980 C   0  0  0  0  0  0  0  0  0  0  0  0
  190.4140  177.8450  148.4490 F   0  0  0  0  0  0  0  0  0  0  0  0
  186.7490  175.7010  142.3890 O   0  0  0  0  0  0  0  0  0  0  0  0
  185.7250  179.7910  145.9840 F   0  0  0  0  0  0  0  0  0  0  0  0
  191.1950  174.9110  143.7570 N   0  0  0  0  0  0  0  0  0  0  0  0
  189.0380  175.5500  142.9230 C   0  0  0  0  0  0  0  0  0  0  0  0
  190.5570  174.0090  141.6510 N   0  0  0  0  0  2  0  0  0  0  0  0
  189.6920  177.2680  146.2530 C   0  0  0  0  0  3  0  0  0  0  0  0
  184.9320  178.2260  144.3730 C   0  0  0  0  0  3  0  0  0  0  0  0
  190.9790  175.6770  144.9520 C   0  0  0  0  0  0  0  0  0  0  0  0
  191.8840  175.5550  146.0110 C   0  0  0  0  0  3  0  0  0  0  0  0
  188.0040  175.1400  142.2500 N   0  0  0  0  0  0  0  0  0  0  0  0
  186.4930  176.6990  143.3250 C   0  0  0  0  0  0  0  0  0  0  0  0
  185.1920  177.1930  143.4710 C   0  0  0  0  0  3  0  0  0  0  0  0
  189.4520  172.6530  138.4340 C   0  0  1  0  0  3  0  0  0  0  0  0
  191.8510  173.2540  138.8800 C   0  0  0  0  0  2  0  0  0  0  0  0
  190.7270  170.4320  141.3110 C   0  0  0  0  0  1  0  0  0  0  0  0
  188.1910  173.1730  138.1550 O   0  0  0  0  0  1  0  0  0  0  0  0
  190.4570  173.7950  138.5570 C   0  0  0  0  0  2  0  0  0  0  0  0
  190.7780  171.2910  140.0590 C   0  0  2  0  0  3  0  0  0  0  0  0
  191.8430  172.3990  140.1530 C   0  0  2  0  0  3  0  0  0  0  0  0
  189.3960  171.8520  139.7310 C   0  0  0  0  0  2  0  0  0  0  0  0
  1 11  1  0  0  0  0
  2 15  1  1  0  0  0
  2  3  1  0  0  0  0
  2  7  1  0  0  0  0
  3  9  1  0  0  0  0
  5 16  1  0  0  0  0
  5  4  2  0  0  0  0
  6 13  1  0  0  0  0
  7 17  1  0  0  0  0
  8  1  1  0  0  0  0
  9  6  2  0  0  0  0
 10 15  1  0  0  0  0
 10 14  2  0  0  0  0
 12 22  1  0  0  0  0
 14 19  1  0  0  0  0
 16 10  1  0  0  0  0
 17  1  2  0  0  0  0
 18  6  1  0  0  0  0
 19  7  2  0  0  0  0
 19 20  1  0  0  0  0
 20  8  2  0  0  0  0
 21 12  1  0  0  0  0
 21 15  2  0  0  0  0
 22 23  1  0  0  0  0
 22  3  2  0  0  0  0
 23 18  2  0  0  0  0
 24 27  1  1  0  0  0
 24 28  1  0  0  0  0
 24 31  1  0  0  0  0
 25 30  1  0  0  0  0
 28 25  1  0  0  0  0
 29 30  1  0  0  0  0
 29 26  1  1  0  0  0
 30  5  1  1  0  0  0
 31 29  1  0  0  0  0
M  END
>  <MODEL>
7

>  <REMARK>
 VINA RESULT:      -8.3      3.305      5.367
  Name = 
  1 active torsions:
  status: ('A' for Active; 'I' for Inactive)
    1  A    between atoms: C_5  and  C_30
                            x       y       z     vdW  Elec       q    Type
                         _______ _______ _______ _____ _____    ______ ____

>  <TORSDO>
F 1

$$$$
=
 OpenBabel11112416543D

 31 35  0  0  1  0  0  0  0  0999 V2000
  188.1420  176.0140  146.8330 C   0  0  0  0  0  0  0  0  0  0  0  0
  188.8830  176.0970  143.0660 C   0  0  1  0  0  3  0  0  0  0  0  0
  187.7110  176.8900  142.5150 C   0  0  0  0  0  0  0  0  0  0  0  0
  192.2160  171.8900  143.3610 O   0  0  0  0  0  0  0  0  0  0  0  0
  191.9260  172.1040  142.1540 C   0  0  0  0  0  0  0  0  0  0  0  0
  186.1520  178.7520  142.6630 C   0  0  0  0  0  0  0  0  0  0  0  0
  188.8100  175.6530  144.5200 C   0  0  0  0  0  0  0  0  0  0  0  0
  188.9200  174.9270  147.2360 C   0  0  0  0  0  3  0  0  0  0  0  0
  187.1650  177.9710  143.2250 C   0  0  0  0  0  3  0  0  0  0  0  0
  190.2460  173.9510  142.7050 C   0  0  0  0  0  0  0  0  0  0  0  0
  187.4400  176.7210  147.7490 F   0  0  0  0  0  0  0  0  0  0  0  0
  187.8640  175.6460  140.4410 O   0  0  0  0  0  0  0  0  0  0  0  0
  185.6180  179.7780  143.3700 F   0  0  0  0  0  0  0  0  0  0  0  0
  190.3620  173.7950  143.9910 N   0  0  0  0  0  0  0  0  0  0  0  0
  189.2980  174.9450  142.1730 C   0  0  0  0  0  0  0  0  0  0  0  0
  190.9770  173.1180  141.7950 N   0  0  0  0  0  2  0  0  0  0  0  0
  188.1010  176.3820  145.4860 C   0  0  0  0  0  3  0  0  0  0  0  0
  185.6960  178.4830  141.3720 C   0  0  0  0  0  3  0  0  0  0  0  0
  189.6080  174.5630  144.9410 C   0  0  0  0  0  0  0  0  0  0  0  0
  189.6530  174.2060  146.2920 C   0  0  0  0  0  3  0  0  0  0  0  0
  188.8270  174.8070  140.9700 N   0  0  0  0  0  0  0  0  0  0  0  0
  187.2760  176.6550  141.1990 C   0  0  0  0  0  0  0  0  0  0  0  0
  186.2620  177.4390  140.6380 C   0  0  0  0  0  3  0  0  0  0  0  0
  191.4640  171.7940  138.4090 C   0  0  1  0  0  3  0  0  0  0  0  0
  193.3160  172.1710  140.0650 C   0  0  0  0  0  2  0  0  0  0  0  0
  190.9270  169.3910  141.3700 C   0  0  0  0  0  1  0  0  0  0  0  0
  190.5630  172.4300  137.5570 O   0  0  0  0  0  1  0  0  0  0  0  0
  192.3260  172.8410  139.1090 C   0  0  0  0  0  2  0  0  0  0  0  0
  191.6710  170.2770  140.3850 C   0  0  2  0  0  3  0  0  0  0  0  0
  192.5990  171.2850  141.0890 C   0  0  2  0  0  3  0  0  0  0  0  0
  190.6960  170.9660  139.4330 C   0  0  0  0  0  2  0  0  0  0  0  0
  1  8  1  0  0  0  0
  1 11  1  0  0  0  0
  2 15  1  6  0  0  0
  2  7  1  0  0  0  0
  3  2  1  0  0  0  0
  3  9  1  0  0  0  0
  5  4  2  0  0  0  0
  6  9  2  0  0  0  0
  6 13  1  0  0  0  0
  7 19  2  0  0  0  0
  7 17  1  0  0  0  0
 10 14  2  0  0  0  0
 12 21  1  0  0  0  0
 12 22  1  0  0  0  0
 14 19  1  0  0  0  0
 15 10  1  0  0  0  0
 16  5  1  0  0  0  0
 16 10  1  0  0  0  0
 17  1  2  0  0  0  0
 18  6  1  0  0  0  0
 19 20  1  0  0  0  0
 20  8  2  0  0  0  0
 21 15  2  0  0  0  0
 22  3  2  0  0  0  0
 23 22  1  0  0  0  0
 23 18  2  0  0  0  0
 24 27  1  6  0  0  0
 24 28  1  0  0  0  0
 24 31  1  0  0  0  0
 25 30  1  0  0  0  0
 28 25  1  0  0  0  0
 29 30  1  0  0  0  0
 29 26  1  1  0  0  0
 30  5  1  1  0  0  0
 31 29  1  0  0  0  0
M  END
>  <MODEL>
8

>  <REMARK>
 VINA RESULT:      -8.3      3.611      4.693
  Name = 
  1 active torsions:
  status: ('A' for Active; 'I' for Inactive)
    1  A    between atoms: C_5  and  C_30
                            x       y       z     vdW  Elec       q    Type
                         _______ _______ _______ _____ _____    ______ ____

>  <TORSDO>
F 1

$$$$
=
 OpenBabel11112416543D

 31 35  0  0  1  0  0  0  0  0999 V2000
  186.2420  178.7630  142.8670 C   0  0  0  0  0  0  0  0  0  0  0  0
  188.6650  175.8160  143.3020 C   0  0  1  0  0  3  0  0  0  0  0  0
  189.4980  176.2460  144.4970 C   0  0  0  0  0  0  0  0  0  0  0  0
  187.8770  174.0830  138.2760 O   0  0  0  0  0  0  0  0  0  0  0  0
  188.8930  173.5140  138.7550 C   0  0  0  0  0  0  0  0  0  0  0  0
  189.6820  177.2520  146.7050 C   0  0  0  0  0  0  0  0  0  0  0  0
  187.7380  176.8520  142.6820 C   0  0  0  0  0  0  0  0  0  0  0  0
  185.8360  178.5840  141.5430 C   0  0  0  0  0  3  0  0  0  0  0  0
  188.9270  176.9480  145.5690 C   0  0  0  0  0  3  0  0  0  0  0  0
  188.8430  174.8670  140.9240 C   0  0  0  0  0  0  0  0  0  0  0  0
  185.7190  179.7700  143.6060 F   0  0  0  0  0  0  0  0  0  0  0  0
  191.3830  175.0090  143.6060 O   0  0  0  0  0  0  0  0  0  0  0  0
  189.1240  177.9520  147.7220 F   0  0  0  0  0  0  0  0  0  0  0  0
  187.8480  175.6110  140.5400 N   0  0  0  0  0  0  0  0  0  0  0  0
  189.4720  175.1090  142.2330 C   0  0  0  0  0  0  0  0  0  0  0  0
  189.3840  173.8610  140.0570 N   0  0  0  0  0  2  0  0  0  0  0  0
  187.1750  177.8920  143.4350 C   0  0  0  0  0  3  0  0  0  0  0  0
  191.0080  176.8270  146.7950 C   0  0  0  0  0  3  0  0  0  0  0  0
  187.3090  176.6700  141.3460 C   0  0  0  0  0  0  0  0  0  0  0  0
  186.3670  177.5380  140.7860 C   0  0  0  0  0  3  0  0  0  0  0  0
  190.6990  174.7310  142.4380 N   0  0  0  0  0  0  0  0  0  0  0  0
  190.8210  175.7850  144.6170 C   0  0  0  0  0  0  0  0  0  0  0  0
  191.5750  176.0890  145.7550 C   0  0  0  0  0  3  0  0  0  0  0  0
  192.0620  171.4980  139.2330 C   0  0  1  0  0  3  0  0  0  0  0  0
  189.6380  171.1160  138.6950 C   0  0  0  0  0  2  0  0  0  0  0  0
  190.9650  174.1800  136.6980 C   0  0  0  0  0  1  0  0  0  0  0  0
  193.0000  171.5260  140.2630 O   0  0  0  0  0  1  0  0  0  0  0  0
  190.6930  171.1390  139.8030 C   0  0  0  0  0  2  0  0  0  0  0  0
  190.9770  172.8510  137.4320 C   0  0  2  0  0  3  0  0  0  0  0  0
  189.5800  172.4520  137.9440 C   0  0  2  0  0  3  0  0  0  0  0  0
  192.0150  172.8620  138.5530 C   0  0  0  0  0  2  0  0  0  0  0  0
  1 17  1  0  0  0  0
  1 11  1  0  0  0  0
  2 15  1  6  0  0  0
  2  3  1  0  0  0  0
  3 22  2  0  0  0  0
  3  9  1  0  0  0  0
  4  5  2  0  0  0  0
  5 16  1  0  0  0  0
  6 18  1  0  0  0  0
  6 13  1  0  0  0  0
  7  2  1  0  0  0  0
  7 17  2  0  0  0  0
  8  1  2  0  0  0  0
  9  6  2  0  0  0  0
 10 15  1  0  0  0  0
 12 22  1  0  0  0  0
 14 10  2  0  0  0  0
 14 19  1  0  0  0  0
 15 21  2  0  0  0  0
 16 10  1  0  0  0  0
 19  7  1  0  0  0  0
 20 19  2  0  0  0  0
 20  8  1  0  0  0  0
 21 12  1  0  0  0  0
 22 23  1  0  0  0  0
 23 18  2  0  0  0  0
 24 28  1  0  0  0  0
 24 27  1  1  0  0  0
 25 28  1  0  0  0  0
 29 26  1  1  0  0  0
 29 30  1  0  0  0  0
 29 31  1  0  0  0  0
 30 25  1  0  0  0  0
 30  5  1  1  0  0  0
 31 24  1  0  0  0  0
M  END
>  <MODEL>
9

>  <REMARK>
 VINA RESULT:      -8.2      3.669      6.449
  Name = 
  1 active torsions:
  status: ('A' for Active; 'I' for Inactive)
    1  A    between atoms: C_5  and  C_30
                            x       y       z     vdW  Elec       q    Type
                         _______ _______ _______ _____ _____    ______ ____

>  <TORSDO>
F 1

$$$$
