=
 OpenBabel11112417233D

 37 42  0  0  1  0  0  0  0  0999 V2000
  185.3900  178.1500  142.5370 S   0  0  0  0  0  0  0  0  0  0  0  0
  188.3470  175.8810  144.7980 C   0  0  0  0  0  0  0  0  0  0  0  0
  191.0230  173.6260  142.8680 C   0  0  0  0  0  2  0  0  0  0  0  0
  186.2710  177.1460  144.9020 C   0  0  0  0  0  0  0  0  0  0  0  0
  189.2680  175.3700  143.7120 C   0  0  1  0  0  3  0  0  0  0  0  0
  187.2760  176.4860  144.1790 C   0  0  0  0  0  0  0  0  0  0  0  0
  190.1050  174.1060  144.0150 C   0  0  2  0  0  3  0  0  0  0  0  0
  186.3700  177.1670  146.2970 C   0  0  0  0  0  3  0  0  0  0  0  0
  187.3290  176.3510  142.7660 N   0  0  0  0  0  0  0  0  0  0  0  0
  186.2250  179.3950  142.4530 O   0  0  0  0  0  0  0  0  0  0  0  0
  189.6480  175.4050  146.9860 C   0  0  0  0  0  2  0  0  0  0  0  0
  187.4640  176.5660  146.9410 C   0  0  0  0  0  3  0  0  0  0  0  0
  186.2830  176.7790  141.8430 C   0  0  0  0  0  2  0  0  0  0  0  0
  189.7270  172.9200  141.1510 C   0  0  1  0  0  3  0  0  0  0  0  0
  190.5340  173.9810  141.6020 O   0  0  0  0  0  0  0  0  0  0  0  0
  188.4690  175.9140  146.2080 C   0  0  0  0  0  0  0  0  0  0  0  0
  188.3500  175.3640  142.4460 C   0  0  2  0  0  3  0  0  0  0  0  0
  185.0670  177.7510  144.2420 C   0  0  0  0  0  2  0  0  0  0  0  0
  190.8890  174.3090  145.2310 N   0  0  0  0  0  0  0  0  0  0  0  0
  184.0990  178.3550  141.7970 O   0  0  0  0  0  0  0  0  0  0  0  0
  188.4520  172.7640  141.9950 C   0  0  0  0  0  2  0  0  0  0  0  0
  187.6120  174.0360  142.1530 C   0  0  0  0  0  2  0  0  0  0  0  0
  190.1810  174.0780  146.4780 C   0  0  0  0  0  2  0  0  0  0  0  0
  192.1560  176.4140  144.9150 C   0  0  0  0  0  3  0  0  0  0  0  0
  192.1340  175.0450  145.2380 C   0  0  0  0  0  0  0  0  0  0  0  0
  193.3040  174.4170  145.5450 N   0  0  0  0  0  0  0  0  0  0  0  0
  195.7440  174.3310  145.8600 C   0  0  0  0  0  1  0  0  0  0  0  0
  194.5470  176.4340  145.2260 C   0  0  0  0  0  3  0  0  0  0  0  0
  194.4950  175.0720  145.5460 C   0  0  0  0  0  0  0  0  0  0  0  0
  193.3670  177.1050  144.9120 C   0  0  0  0  0  3  0  0  0  0  0  0
  189.1510  173.5130  136.8370 O   0  0  0  0  0  0  0  0  0  0  0  0
  190.2120  173.8620  137.4200 C   0  0  0  0  0  0  0  0  0  0  0  0
  189.3940  173.1080  139.7050 C   0  0  0  0  0  0  0  0  0  0  0  0
  190.3870  173.6490  138.8260 N   0  0  0  0  0  2  0  0  0  0  0  0
  188.2550  172.7880  139.2710 O   0  0  0  0  0  0  0  0  0  0  0  0
  192.4450  174.6030  137.4310 O   0  0  0  0  0  1  0  0  0  0  0  0
  191.3140  174.4690  136.6290 C   0  0  0  0  0  2  0  0  0  0  0  0
  1 18  1  0  0  0  0
  2 16  1  0  0  0  0
  4  8  2  0  0  0  0
  5  7  1  0  0  0  0
  5  2  1  1  0  0  0
  6  2  2  0  0  0  0
  6  4  1  0  0  0  0
  7  3  1  6  0  0  0
  7 19  1  0  0  0  0
  8 12  1  0  0  0  0
  9  6  1  0  0  0  0
 10  1  2  0  0  0  0
 13  1  1  0  0  0  0
 13  9  1  0  0  0  0
 14 33  1  6  0  0  0
 14 15  1  0  0  0  0
 14 21  1  0  0  0  0
 15  3  1  0  0  0  0
 16 12  2  0  0  0  0
 16 11  1  0  0  0  0
 17 22  1  1  0  0  0
 17  9  1  0  0  0  0
 17  5  1  0  0  0  0
 18  4  1  0  0  0  0
 19 25  1  0  0  0  0
 19 23  1  0  0  0  0
 20  1  2  0  0  0  0
 21 22  1  0  0  0  0
 23 11  1  0  0  0  0
 24 25  1  0  0  0  0
 25 26  2  0  0  0  0
 26 29  1  0  0  0  0
 28 29  2  0  0  0  0
 29 27  1  0  0  0  0
 30 24  2  0  0  0  0
 30 28  1  0  0  0  0
 31 32  2  0  0  0  0
 32 34  1  0  0  0  0
 34 33  1  0  0  0  0
 35 33  2  0  0  0  0
 37 32  1  0  0  0  0
 37 36  1  0  0  0  0
M  END
>  <MODEL>
1

>  <REMARK>
 VINA RESULT:      -8.9      0.000      0.000
  Name = 
  3 active torsions:
  status: ('A' for Active; 'I' for Inactive)
    1  A    between atoms: C_4  and  C_37
    2  A    between atoms: C_8  and  C_18
    3  A    between atoms: N_23  and  C_30
                            x       y       z     vdW  Elec       q    Type
                         _______ _______ _______ _____ _____    ______ ____

>  <TORSDO>
F 3

$$$$
=
 OpenBabel11112417233D

 37 42  0  0  1  0  0  0  0  0999 V2000
  185.4150  178.1330  142.4760 S   0  0  0  0  0  0  0  0  0  0  0  0
  188.3420  175.8950  144.8080 C   0  0  0  0  0  0  0  0  0  0  0  0
  191.0870  173.6690  142.9430 C   0  0  0  0  0  2  0  0  0  0  0  0
  186.2500  177.1380  144.8620 C   0  0  0  0  0  0  0  0  0  0  0  0
  189.2940  175.3940  143.7440 C   0  0  1  0  0  3  0  0  0  0  0  0
  187.2800  176.4880  144.1640 C   0  0  0  0  0  0  0  0  0  0  0  0
  190.1360  174.1390  144.0670 C   0  0  2  0  0  3  0  0  0  0  0  0
  186.3160  177.1590  146.2590 C   0  0  0  0  0  3  0  0  0  0  0  0
  187.3670  176.3540  142.7520 N   0  0  0  0  0  0  0  0  0  0  0  0
  186.2380  179.3860  142.4120 O   0  0  0  0  0  0  0  0  0  0  0  0
  189.5950  175.4330  147.0270 C   0  0  0  0  0  2  0  0  0  0  0  0
  187.4000  176.5700  146.9290 C   0  0  0  0  0  3  0  0  0  0  0  0
  186.3390  176.7710  141.8040 C   0  0  0  0  0  2  0  0  0  0  0  0
  189.8390  172.9500  141.1950 C   0  0  1  0  0  3  0  0  0  0  0  0
  190.6240  174.0180  141.6650 O   0  0  0  0  0  0  0  0  0  0  0  0
  188.4290  175.9290  146.2210 C   0  0  0  0  0  0  0  0  0  0  0  0
  188.4060  175.3780  142.4570 C   0  0  2  0  0  3  0  0  0  0  0  0
  185.0560  177.7300  144.1730 C   0  0  0  0  0  2  0  0  0  0  0  0
  190.8890  174.3500  145.3010 N   0  0  0  0  0  0  0  0  0  0  0  0
  184.1400  178.3240  141.7060 O   0  0  0  0  0  0  0  0  0  0  0  0
  188.5470  172.7790  142.0090 C   0  0  0  0  0  2  0  0  0  0  0  0
  187.6890  174.0430  142.1460 C   0  0  0  0  0  2  0  0  0  0  0  0
  190.1540  174.1110  146.5310 C   0  0  0  0  0  2  0  0  0  0  0  0
  192.1400  176.4690  145.0190 C   0  0  0  0  0  3  0  0  0  0  0  0
  192.1260  175.0990  145.3380 C   0  0  0  0  0  0  0  0  0  0  0  0
  193.2950  174.4830  145.6700 N   0  0  0  0  0  0  0  0  0  0  0  0
  195.7280  174.4230  146.0400 C   0  0  0  0  0  1  0  0  0  0  0  0
  194.5230  176.5140  145.3830 C   0  0  0  0  0  3  0  0  0  0  0  0
  194.4790  175.1500  145.6990 C   0  0  0  0  0  0  0  0  0  0  0  0
  193.3440  177.1730  145.0440 C   0  0  0  0  0  3  0  0  0  0  0  0
  188.9700  173.0830  136.8920 O   0  0  0  0  0  0  0  0  0  0  0  0
  189.4730  172.0650  137.4370 C   0  0  0  0  0  0  0  0  0  0  0  0
  189.5400  173.1340  139.7410 C   0  0  0  0  0  0  0  0  0  0  0  0
  189.7390  172.0350  138.8450 N   0  0  0  0  0  2  0  0  0  0  0  0
  189.1150  174.2430  139.3170 O   0  0  0  0  0  0  0  0  0  0  0  0
  189.7360  169.7270  137.4190 O   0  0  0  0  0  1  0  0  0  0  0  0
  189.7610  170.8620  136.6120 C   0  0  0  0  0  2  0  0  0  0  0  0
  1 18  1  0  0  0  0
  2 16  1  0  0  0  0
  4  8  2  0  0  0  0
  5  7  1  0  0  0  0
  5  2  1  1  0  0  0
  6  2  2  0  0  0  0
  6  4  1  0  0  0  0
  7  3  1  6  0  0  0
  7 19  1  0  0  0  0
  8 12  1  0  0  0  0
  9  6  1  0  0  0  0
 10  1  2  0  0  0  0
 13  1  1  0  0  0  0
 13  9  1  0  0  0  0
 14 33  1  6  0  0  0
 14 15  1  0  0  0  0
 14 21  1  0  0  0  0
 15  3  1  0  0  0  0
 16 12  2  0  0  0  0
 16 11  1  0  0  0  0
 17 22  1  1  0  0  0
 17  9  1  0  0  0  0
 17  5  1  0  0  0  0
 18  4  1  0  0  0  0
 19 25  1  0  0  0  0
 19 23  1  0  0  0  0
 20  1  2  0  0  0  0
 21 22  1  0  0  0  0
 23 11  1  0  0  0  0
 24 30  2  0  0  0  0
 24 25  1  0  0  0  0
 25 26  2  0  0  0  0
 26 29  1  0  0  0  0
 28 29  2  0  0  0  0
 29 27  1  0  0  0  0
 30 28  1  0  0  0  0
 31 32  2  0  0  0  0
 32 34  1  0  0  0  0
 34 33  1  0  0  0  0
 35 33  2  0  0  0  0
 37 36  1  0  0  0  0
 37 32  1  0  0  0  0
M  END
>  <MODEL>
2

>  <REMARK>
 VINA RESULT:      -8.8      0.973      1.238
  Name = 
  3 active torsions:
  status: ('A' for Active; 'I' for Inactive)
    1  A    between atoms: C_4  and  C_37
    2  A    between atoms: C_8  and  C_18
    3  A    between atoms: N_23  and  C_30
                            x       y       z     vdW  Elec       q    Type
                         _______ _______ _______ _____ _____    ______ ____

>  <TORSDO>
F 3

$$$$
=
 OpenBabel11112417233D

 37 42  0  0  1  0  0  0  0  0999 V2000
  185.4300  178.1600  142.5210 S   0  0  0  0  0  0  0  0  0  0  0  0
  188.3930  175.8590  144.7420 C   0  0  0  0  0  0  0  0  0  0  0  0
  191.1400  173.7270  142.7720 C   0  0  0  0  0  2  0  0  0  0  0  0
  186.2930  177.0810  144.8600 C   0  0  0  0  0  0  0  0  0  0  0  0
  189.3400  175.4060  143.6530 C   0  0  1  0  0  3  0  0  0  0  0  0
  187.3210  176.4670  144.1300 C   0  0  0  0  0  0  0  0  0  0  0  0
  190.1950  174.1470  143.9210 C   0  0  2  0  0  3  0  0  0  0  0  0
  186.3700  177.0510  146.2570 C   0  0  0  0  0  3  0  0  0  0  0  0
  187.3980  176.3870  142.7130 N   0  0  0  0  0  0  0  0  0  0  0  0
  186.2430  179.4210  142.4980 O   0  0  0  0  0  0  0  0  0  0  0  0
  189.6690  175.3230  146.9320 C   0  0  0  0  0  2  0  0  0  0  0  0
  187.4650  176.4450  146.8950 C   0  0  0  0  0  3  0  0  0  0  0  0
  186.3590  176.8320  141.7900 C   0  0  0  0  0  2  0  0  0  0  0  0
  189.8840  173.0640  141.0090 C   0  0  1  0  0  3  0  0  0  0  0  0
  190.6640  174.1210  141.5120 O   0  0  0  0  0  0  0  0  0  0  0  0
  188.4920  175.8400  146.1550 C   0  0  0  0  0  0  0  0  0  0  0  0
  188.4420  175.4320  142.3730 C   0  0  2  0  0  3  0  0  0  0  0  0
  185.0880  177.6900  144.2040 C   0  0  0  0  0  2  0  0  0  0  0  0
  190.9570  174.3170  145.1570 N   0  0  0  0  0  0  0  0  0  0  0  0
  184.1470  178.3690  141.7680 O   0  0  0  0  0  0  0  0  0  0  0  0
  188.5990  172.8530  141.8260 C   0  0  0  0  0  2  0  0  0  0  0  0
  187.7330  174.1030  142.0180 C   0  0  0  0  0  2  0  0  0  0  0  0
  190.2340  174.0260  146.3830 C   0  0  0  0  0  2  0  0  0  0  0  0
  192.1940  176.4480  144.9140 C   0  0  0  0  0  3  0  0  0  0  0  0
  192.1880  175.0740  145.2120 C   0  0  0  0  0  0  0  0  0  0  0  0
  193.3600  174.4600  145.5410 N   0  0  0  0  0  0  0  0  0  0  0  0
  195.7910  174.4120  145.9220 C   0  0  0  0  0  1  0  0  0  0  0  0
  194.5750  176.5040  145.2920 C   0  0  0  0  0  3  0  0  0  0  0  0
  194.5390  175.1360  145.5870 C   0  0  0  0  0  0  0  0  0  0  0  0
  193.3920  177.1610  144.9570 C   0  0  0  0  0  3  0  0  0  0  0  0
  188.7650  174.0950  136.8880 O   0  0  0  0  0  0  0  0  0  0  0  0
  188.1650  174.5850  137.8820 C   0  0  0  0  0  0  0  0  0  0  0  0
  189.5700  173.3010  139.5650 C   0  0  0  0  0  0  0  0  0  0  0  0
  188.5520  174.2460  139.2200 N   0  0  0  0  0  2  0  0  0  0  0  0
  190.2000  172.6750  138.6700 O   0  0  0  0  0  0  0  0  0  0  0  0
  187.1950  176.1360  136.4030 O   0  0  0  0  0  1  0  0  0  0  0  0
  187.0630  175.5580  137.6630 C   0  0  0  0  0  2  0  0  0  0  0  0
  1 18  1  0  0  0  0
  2 16  1  0  0  0  0
  4  8  2  0  0  0  0
  5  7  1  0  0  0  0
  5  2  1  1  0  0  0
  6  2  2  0  0  0  0
  6  4  1  0  0  0  0
  7  3  1  6  0  0  0
  7 19  1  0  0  0  0
  8 12  1  0  0  0  0
  9  6  1  0  0  0  0
 10  1  2  0  0  0  0
 13  1  1  0  0  0  0
 13  9  1  0  0  0  0
 14 33  1  6  0  0  0
 14 15  1  0  0  0  0
 14 21  1  0  0  0  0
 15  3  1  0  0  0  0
 16 12  2  0  0  0  0
 16 11  1  0  0  0  0
 17 22  1  1  0  0  0
 17  9  1  0  0  0  0
 17  5  1  0  0  0  0
 18  4  1  0  0  0  0
 19 25  1  0  0  0  0
 19 23  1  0  0  0  0
 20  1  2  0  0  0  0
 21 22  1  0  0  0  0
 23 11  1  0  0  0  0
 24 30  2  0  0  0  0
 24 25  1  0  0  0  0
 25 26  2  0  0  0  0
 26 29  1  0  0  0  0
 28 29  2  0  0  0  0
 29 27  1  0  0  0  0
 30 28  1  0  0  0  0
 31 32  2  0  0  0  0
 32 34  1  0  0  0  0
 34 33  1  0  0  0  0
 35 33  2  0  0  0  0
 36 37  1  0  0  0  0
 37 32  1  0  0  0  0
M  END
>  <MODEL>
3

>  <REMARK>
 VINA RESULT:      -8.8      1.010      1.328
  Name = 
  3 active torsions:
  status: ('A' for Active; 'I' for Inactive)
    1  A    between atoms: C_4  and  C_37
    2  A    between atoms: C_8  and  C_18
    3  A    between atoms: N_23  and  C_30
                            x       y       z     vdW  Elec       q    Type
                         _______ _______ _______ _____ _____    ______ ____

>  <TORSDO>
F 3

$$$$
=
 OpenBabel11112417233D

 37 42  0  0  1  0  0  0  0  0999 V2000
  187.1480  177.2310  142.1940 S   0  0  0  0  0  0  0  0  0  0  0  0
  190.4900  175.7330  144.5580 C   0  0  0  0  0  0  0  0  0  0  0  0
  192.7180  172.7210  143.1670 C   0  0  0  0  0  2  0  0  0  0  0  0
  188.4820  177.1060  144.5570 C   0  0  0  0  0  0  0  0  0  0  0  0
  191.1740  174.7860  143.5970 C   0  0  1  0  0  3  0  0  0  0  0  0
  189.3200  176.1490  143.9660 C   0  0  0  0  0  0  0  0  0  0  0  0
  192.0490  173.6620  144.1950 C   0  0  2  0  0  3  0  0  0  0  0  0
  188.8580  177.6330  145.7970 C   0  0  0  0  0  3  0  0  0  0  0  0
  189.0870  175.4970  142.7250 N   0  0  0  0  0  0  0  0  0  0  0  0
  187.9530  178.2860  141.4940 O   0  0  0  0  0  0  0  0  0  0  0  0
  192.2020  175.9990  146.4840 C   0  0  0  0  0  2  0  0  0  0  0  0
  190.0570  177.2290  146.4060 C   0  0  0  0  0  3  0  0  0  0  0  0
  187.8790  175.6340  141.9180 C   0  0  0  0  0  2  0  0  0  0  0  0
  191.1020  171.5350  142.1150 C   0  0  1  0  0  3  0  0  0  0  0  0
  191.9860  172.6200  141.9740 O   0  0  0  0  0  0  0  0  0  0  0  0
  190.8920  176.2760  145.8030 C   0  0  0  0  0  0  0  0  0  0  0  0
  190.0200  174.3850  142.6200 C   0  0  2  0  0  3  0  0  0  0  0  0
  187.1710  177.5170  143.9510 C   0  0  0  0  0  2  0  0  0  0  0  0
  193.0620  174.2380  145.0770 N   0  0  0  0  0  0  0  0  0  0  0  0
  185.7350  177.2480  141.6830 O   0  0  0  0  0  0  0  0  0  0  0  0
  190.0220  171.8020  143.1750 C   0  0  0  0  0  2  0  0  0  0  0  0
  189.2340  173.1050  142.9920 C   0  0  0  0  0  2  0  0  0  0  0  0
  192.6180  174.5410  146.4270 C   0  0  0  0  0  2  0  0  0  0  0  0
  194.2490  175.9840  143.7830 C   0  0  0  0  0  3  0  0  0  0  0  0
  194.2860  174.8230  144.5760 C   0  0  0  0  0  0  0  0  0  0  0  0
  195.4900  174.2490  144.8560 N   0  0  0  0  0  0  0  0  0  0  0  0
  197.9410  174.0780  144.7000 C   0  0  0  0  0  1  0  0  0  0  0  0
  196.6520  175.9140  143.5950 C   0  0  0  0  0  3  0  0  0  0  0  0
  196.6590  174.7610  144.3890 C   0  0  0  0  0  0  0  0  0  0  0  0
  195.4370  176.5280  143.2950 C   0  0  0  0  0  3  0  0  0  0  0  0
  189.3370  170.9450  138.1360 O   0  0  0  0  0  0  0  0  0  0  0  0
  189.4150  172.0850  138.6660 C   0  0  0  0  0  0  0  0  0  0  0  0
  190.4870  171.2000  140.7930 C   0  0  0  0  0  0  0  0  0  0  0  0
  190.0050  172.2600  139.9600 N   0  0  0  0  0  2  0  0  0  0  0  0
  190.3990  169.9980  140.4220 O   0  0  0  0  0  0  0  0  0  0  0  0
  188.2710  174.1370  138.7990 O   0  0  0  0  0  1  0  0  0  0  0  0
  188.9210  173.2720  137.9210 C   0  0  0  0  0  2  0  0  0  0  0  0
  1 18  1  0  0  0  0
  2 16  1  0  0  0  0
  4  8  2  0  0  0  0
  5  7  1  0  0  0  0
  5  2  1  1  0  0  0
  6  4  1  0  0  0  0
  6  2  2  0  0  0  0
  7  3  1  6  0  0  0
  7 19  1  0  0  0  0
  8 12  1  0  0  0  0
  9  6  1  0  0  0  0
 10  1  2  0  0  0  0
 13  1  1  0  0  0  0
 13  9  1  0  0  0  0
 14 33  1  6  0  0  0
 14 21  1  0  0  0  0
 15 14  1  0  0  0  0
 15  3  1  0  0  0  0
 16 12  2  0  0  0  0
 16 11  1  0  0  0  0
 17  9  1  0  0  0  0
 17 22  1  1  0  0  0
 17  5  1  0  0  0  0
 18  4  1  0  0  0  0
 19 23  1  0  0  0  0
 20  1  2  0  0  0  0
 22 21  1  0  0  0  0
 23 11  1  0  0  0  0
 24 25  1  0  0  0  0
 25 26  2  0  0  0  0
 25 19  1  0  0  0  0
 28 29  2  0  0  0  0
 29 27  1  0  0  0  0
 29 26  1  0  0  0  0
 30 28  1  0  0  0  0
 30 24  2  0  0  0  0
 31 32  2  0  0  0  0
 32 34  1  0  0  0  0
 34 33  1  0  0  0  0
 35 33  2  0  0  0  0
 37 32  1  0  0  0  0
 37 36  1  0  0  0  0
M  END
>  <MODEL>
4

>  <REMARK>
 VINA RESULT:      -7.9      1.893      2.435
  Name = 
  3 active torsions:
  status: ('A' for Active; 'I' for Inactive)
    1  A    between atoms: C_4  and  C_37
    2  A    between atoms: C_8  and  C_18
    3  A    between atoms: N_23  and  C_30
                            x       y       z     vdW  Elec       q    Type
                         _______ _______ _______ _____ _____    ______ ____

>  <TORSDO>
F 3

$$$$
=
 OpenBabel11112417233D

 37 42  0  0  1  0  0  0  0  0999 V2000
  195.8520  170.2310  145.3830 S   0  0  0  0  0  0  0  0  0  0  0  0
  193.6590  173.9690  144.9110 C   0  0  0  0  0  0  0  0  0  0  0  0
  190.2500  174.0240  142.8250 C   0  0  0  0  0  2  0  0  0  0  0  0
  195.7600  172.9390  145.5770 C   0  0  0  0  0  0  0  0  0  0  0  0
  192.3650  173.5110  144.2740 C   0  0  1  0  0  3  0  0  0  0  0  0
  194.5000  172.8810  144.9620 C   0  0  0  0  0  0  0  0  0  0  0  0
  191.5600  174.5480  143.4570 C   0  0  2  0  0  3  0  0  0  0  0  0
  196.1620  174.1560  146.1380 C   0  0  0  0  0  3  0  0  0  0  0  0
  193.9390  171.7400  144.3280 N   0  0  0  0  0  0  0  0  0  0  0  0
  195.1790  169.8530  146.6700 O   0  0  0  0  0  0  0  0  0  0  0  0
  193.1700  176.4140  145.6140 C   0  0  0  0  0  2  0  0  0  0  0  0
  195.3080  175.2700  146.1050 C   0  0  0  0  0  3  0  0  0  0  0  0
  194.6310  170.4730  144.1150 C   0  0  0  0  0  2  0  0  0  0  0  0
  190.7750  172.4950  141.2390 C   0  0  1  0  0  3  0  0  0  0  0  0
  190.2970  172.6480  142.5530 O   0  0  0  0  0  0  0  0  0  0  0  0
  194.0470  175.2000  145.4940 C   0  0  0  0  0  0  0  0  0  0  0  0
  192.7720  172.1730  143.5740 C   0  0  2  0  0  3  0  0  0  0  0  0
  196.7110  171.7780  145.5800 C   0  0  0  0  0  2  0  0  0  0  0  0
  191.2810  175.7220  144.2820 N   0  0  0  0  0  0  0  0  0  0  0  0
  196.8130  169.1510  144.9780 O   0  0  0  0  0  0  0  0  0  0  0  0
  192.2410  172.9360  141.1020 C   0  0  0  0  0  2  0  0  0  0  0  0
  193.2130  172.2900  142.0960 C   0  0  0  0  0  2  0  0  0  0  0  0
  192.3540  176.6970  144.3660 C   0  0  0  0  0  2  0  0  0  0  0  0
  190.2080  174.8820  146.3500 C   0  0  0  0  0  3  0  0  0  0  0  0
  190.2040  175.7540  145.2470 C   0  0  0  0  0  0  0  0  0  0  0  0
  189.1660  176.6240  145.0920 N   0  0  0  0  0  0  0  0  0  0  0  0
  187.0080  177.6180  145.7350 C   0  0  0  0  0  1  0  0  0  0  0  0
  188.1040  175.8130  147.0740 C   0  0  0  0  0  3  0  0  0  0  0  0
  188.1290  176.6720  145.9690 C   0  0  0  0  0  0  0  0  0  0  0  0
  189.1540  174.9160  147.2630 C   0  0  0  0  0  3  0  0  0  0  0  0
  190.3790  168.4610  139.5490 O   0  0  0  0  0  0  0  0  0  0  0  0
  190.4580  169.4830  138.8180 C   0  0  0  0  0  0  0  0  0  0  0  0
  190.5940  171.0810  140.7880 C   0  0  0  0  0  0  0  0  0  0  0  0
  190.6000  170.7900  139.3860 N   0  0  0  0  0  2  0  0  0  0  0  0
  190.4410  170.1600  141.6370 O   0  0  0  0  0  0  0  0  0  0  0  0
  189.7580  170.3920  136.7630 O   0  0  0  0  0  1  0  0  0  0  0  0
  190.4440  169.3250  137.3400 C   0  0  0  0  0  2  0  0  0  0  0  0
  1 18  1  0  0  0  0
  1 10  2  0  0  0  0
  2  6  2  0  0  0  0
  2 16  1  0  0  0  0
  4 18  1  0  0  0  0
  4  8  2  0  0  0  0
  5  2  1  6  0  0  0
  6  4  1  0  0  0  0
  7  3  1  1  0  0  0
  7  5  1  0  0  0  0
  7 19  1  0  0  0  0
  9  6  1  0  0  0  0
 12  8  1  0  0  0  0
 13  9  1  0  0  0  0
 13  1  1  0  0  0  0
 14 33  1  1  0  0  0
 14 15  1  0  0  0  0
 15  3  1  0  0  0  0
 16 11  1  0  0  0  0
 16 12  2  0  0  0  0
 17 22  1  6  0  0  0
 17  5  1  0  0  0  0
 17  9  1  0  0  0  0
 19 23  1  0  0  0  0
 19 25  1  0  0  0  0
 20  1  2  0  0  0  0
 21 14  1  0  0  0  0
 21 22  1  0  0  0  0
 23 11  1  0  0  0  0
 24 30  1  0  0  0  0
 25 24  2  0  0  0  0
 26 25  1  0  0  0  0
 26 29  2  0  0  0  0
 27 29  1  0  0  0  0
 28 30  2  0  0  0  0
 29 28  1  0  0  0  0
 32 34  1  0  0  0  0
 32 31  2  0  0  0  0
 33 35  2  0  0  0  0
 34 33  1  0  0  0  0
 36 37  1  0  0  0  0
 37 32  1  0  0  0  0
M  END
>  <MODEL>
5

>  <REMARK>
 VINA RESULT:      -7.9      3.708      7.172
  Name = 
  3 active torsions:
  status: ('A' for Active; 'I' for Inactive)
    1  A    between atoms: C_4  and  C_37
    2  A    between atoms: C_8  and  C_18
    3  A    between atoms: N_23  and  C_30
                            x       y       z     vdW  Elec       q    Type
                         _______ _______ _______ _____ _____    ______ ____

>  <TORSDO>
F 3

$$$$
=
 OpenBabel11112417233D

 37 42  0  0  1  0  0  0  0  0999 V2000
  189.3950  172.8810  139.6200 S   0  0  0  0  0  0  0  0  0  0  0  0
  193.0390  174.4230  141.4500 C   0  0  0  0  0  0  0  0  0  0  0  0
  192.9550  175.7860  145.2060 C   0  0  0  0  0  2  0  0  0  0  0  0
  191.9560  173.7540  139.3770 C   0  0  0  0  0  0  0  0  0  0  0  0
  192.6260  174.6130  142.8930 C   0  0  1  0  0  3  0  0  0  0  0  0
  191.9100  174.0850  140.7390 C   0  0  0  0  0  0  0  0  0  0  0  0
  193.4240  175.6290  143.7410 C   0  0  2  0  0  3  0  0  0  0  0  0
  193.1980  173.7870  138.7340 C   0  0  0  0  0  3  0  0  0  0  0  0
  190.7400  174.1210  141.5450 N   0  0  0  0  0  0  0  0  0  0  0  0
  189.6400  171.4590  140.0320 O   0  0  0  0  0  0  0  0  0  0  0  0
  195.6170  174.6670  141.5080 C   0  0  0  0  0  2  0  0  0  0  0  0
  194.3600  174.1170  139.4500 C   0  0  0  0  0  3  0  0  0  0  0  0
  189.3790  173.9290  141.0560 C   0  0  0  0  0  2  0  0  0  0  0  0
  190.8860  176.7070  145.2070 C   0  0  1  0  0  3  0  0  0  0  0  0
  191.5900  175.5010  145.3680 O   0  0  0  0  0  0  0  0  0  0  0  0
  194.3040  174.4400  140.8140 C   0  0  0  0  0  0  0  0  0  0  0  0
  191.0750  174.7870  142.7940 C   0  0  2  0  0  3  0  0  0  0  0  0
  190.7230  173.4480  138.5780 C   0  0  0  0  0  2  0  0  0  0  0  0
  194.8460  175.2980  143.7060 N   0  0  0  0  0  0  0  0  0  0  0  0
  188.0850  172.9790  138.8920 O   0  0  0  0  0  0  0  0  0  0  0  0
  190.9710  177.2400  143.7680 C   0  0  0  0  0  2  0  0  0  0  0  0
  190.5640  176.2420  142.6770 C   0  0  0  0  0  2  0  0  0  0  0  0
  195.5720  175.7770  142.5420 C   0  0  0  0  0  2  0  0  0  0  0  0
  196.5890  174.5160  145.2820 C   0  0  0  0  0  3  0  0  0  0  0  0
  195.4240  174.2640  144.5360 C   0  0  0  0  0  0  0  0  0  0  0  0
  194.8520  173.0280  144.5940 N   0  0  0  0  0  0  0  0  0  0  0  0
  194.7290  170.6890  145.3520 C   0  0  0  0  0  1  0  0  0  0  0  0
  196.5360  172.2480  146.1000 C   0  0  0  0  0  3  0  0  0  0  0  0
  195.3760  172.0260  145.3490 C   0  0  0  0  0  0  0  0  0  0  0  0
  197.1410  173.5030  146.0660 C   0  0  0  0  0  3  0  0  0  0  0  0
  186.6100  176.4790  146.1850 O   0  0  0  0  0  0  0  0  0  0  0  0
  187.1030  177.4730  145.5890 C   0  0  0  0  0  0  0  0  0  0  0  0
  189.4630  176.5310  145.6330 C   0  0  0  0  0  0  0  0  0  0  0  0
  188.4990  177.5240  145.2670 N   0  0  0  0  0  2  0  0  0  0  0  0
  189.1230  175.5180  146.3030 O   0  0  0  0  0  0  0  0  0  0  0  0
  185.5520  179.0940  146.2960 O   0  0  0  0  0  1  0  0  0  0  0  0
  186.2160  178.5930  145.1790 C   0  0  0  0  0  2  0  0  0  0  0  0
  1 10  2  0  0  0  0
  1 13  1  0  0  0  0
  3 15  1  0  0  0  0
  4  6  1  0  0  0  0
  5  2  1  6  0  0  0
  5  7  1  0  0  0  0
  6  2  2  0  0  0  0
  6  9  1  0  0  0  0
  7  3  1  1  0  0  0
  8  4  2  0  0  0  0
  8 12  1  0  0  0  0
  9 17  1  0  0  0  0
 11 23  1  0  0  0  0
 12 16  2  0  0  0  0
 13  9  1  0  0  0  0
 14 15  1  0  0  0  0
 14 33  1  6  0  0  0
 16  2  1  0  0  0  0
 16 11  1  0  0  0  0
 17 22  1  6  0  0  0
 17  5  1  0  0  0  0
 18  4  1  0  0  0  0
 18  1  1  0  0  0  0
 19  7  1  0  0  0  0
 19 25  1  0  0  0  0
 20  1  2  0  0  0  0
 21 14  1  0  0  0  0
 22 21  1  0  0  0  0
 23 19  1  0  0  0  0
 24 30  1  0  0  0  0
 25 26  1  0  0  0  0
 25 24  2  0  0  0  0
 26 29  2  0  0  0  0
 29 27  1  0  0  0  0
 29 28  1  0  0  0  0
 30 28  2  0  0  0  0
 32 31  2  0  0  0  0
 33 35  2  0  0  0  0
 34 32  1  0  0  0  0
 34 33  1  0  0  0  0
 37 32  1  0  0  0  0
 37 36  1  0  0  0  0
M  END
>  <MODEL>
6

>  <REMARK>
 VINA RESULT:      -7.8      2.901      6.882
  Name = 
  3 active torsions:
  status: ('A' for Active; 'I' for Inactive)
    1  A    between atoms: C_4  and  C_37
    2  A    between atoms: C_8  and  C_18
    3  A    between atoms: N_23  and  C_30
                            x       y       z     vdW  Elec       q    Type
                         _______ _______ _______ _____ _____    ______ ____

>  <TORSDO>
F 3

$$$$
=
 OpenBabel11112417233D

 37 42  0  0  1  0  0  0  0  0999 V2000
  195.4300  170.5670  144.9490 S   0  0  0  0  0  0  0  0  0  0  0  0
  193.3760  174.4030  144.6740 C   0  0  0  0  0  0  0  0  0  0  0  0
  190.1740  174.7780  142.3140 C   0  0  0  0  0  2  0  0  0  0  0  0
  195.3840  173.2440  145.4130 C   0  0  0  0  0  0  0  0  0  0  0  0
  192.1350  174.0540  143.8820 C   0  0  1  0  0  3  0  0  0  0  0  0
  194.1840  173.2890  144.6860 C   0  0  0  0  0  0  0  0  0  0  0  0
  191.4320  175.1930  143.1090 C   0  0  2  0  0  3  0  0  0  0  0  0
  195.7620  174.3830  146.1290 C   0  0  0  0  0  3  0  0  0  0  0  0
  193.6560  172.2360  143.8920 N   0  0  0  0  0  0  0  0  0  0  0  0
  194.6340  170.0830  146.1260 O   0  0  0  0  0  0  0  0  0  0  0  0
  192.8830  176.7790  145.5810 C   0  0  0  0  0  2  0  0  0  0  0  0
  194.9400  175.5230  146.1370 C   0  0  0  0  0  3  0  0  0  0  0  0
  194.3350  170.9750  143.6100 C   0  0  0  0  0  2  0  0  0  0  0  0
  190.8040  173.4010  140.6300 C   0  0  1  0  0  3  0  0  0  0  0  0
  190.2120  173.4360  141.9060 O   0  0  0  0  0  0  0  0  0  0  0  0
  193.7380  175.5550  145.4130 C   0  0  0  0  0  0  0  0  0  0  0  0
  192.5730  172.7810  143.0870 C   0  0  2  0  0  3  0  0  0  0  0  0
  196.3040  172.0580  145.3800 C   0  0  0  0  0  2  0  0  0  0  0  0
  191.1070  176.2860  144.0230 N   0  0  0  0  0  0  0  0  0  0  0  0
  196.3990  169.5020  144.5200 O   0  0  0  0  0  0  0  0  0  0  0  0
  192.2870  173.8050  140.6690 C   0  0  0  0  0  2  0  0  0  0  0  0
  193.1490  173.0320  141.6730 C   0  0  0  0  0  2  0  0  0  0  0  0
  192.1910  177.2120  144.3020 C   0  0  0  0  0  2  0  0  0  0  0  0
  189.8560  175.3120  145.9260 C   0  0  0  0  0  3  0  0  0  0  0  0
  189.9480  176.2560  144.8880 C   0  0  0  0  0  0  0  0  0  0  0  0
  188.9240  177.1360  144.6980 N   0  0  0  0  0  0  0  0  0  0  0  0
  186.7130  178.0900  145.2110 C   0  0  0  0  0  1  0  0  0  0  0  0
  187.6930  176.1970  146.5190 C   0  0  0  0  0  3  0  0  0  0  0  0
  187.8120  177.1270  145.4800 C   0  0  0  0  0  0  0  0  0  0  0  0
  188.7250  175.2870  146.7410 C   0  0  0  0  0  3  0  0  0  0  0  0
  190.2730  169.2740  139.2240 O   0  0  0  0  0  0  0  0  0  0  0  0
  190.6330  169.5330  140.4030 C   0  0  0  0  0  0  0  0  0  0  0  0
  190.6320  172.0450  140.0220 C   0  0  0  0  0  0  0  0  0  0  0  0
  190.7890  170.8860  140.8480 N   0  0  0  0  0  2  0  0  0  0  0  0
  190.3500  171.9320  138.7980 O   0  0  0  0  0  0  0  0  0  0  0  0
  191.6790  168.8560  142.3990 O   0  0  0  0  0  1  0  0  0  0  0  0
  190.8630  168.4180  141.3580 C   0  0  0  0  0  2  0  0  0  0  0  0
  1 18  1  0  0  0  0
  1 10  2  0  0  0  0
  2  6  2  0  0  0  0
  2 16  1  0  0  0  0
  4  8  2  0  0  0  0
  5  2  1  6  0  0  0
  6  4  1  0  0  0  0
  7  3  1  1  0  0  0
  7  5  1  0  0  0  0
  7 19  1  0  0  0  0
  8 12  1  0  0  0  0
  9  6  1  0  0  0  0
 13  9  1  0  0  0  0
 13  1  1  0  0  0  0
 14 33  1  1  0  0  0
 14 21  1  0  0  0  0
 14 15  1  0  0  0  0
 15  3  1  0  0  0  0
 16 11  1  0  0  0  0
 16 12  2  0  0  0  0
 17 22  1  6  0  0  0
 17  5  1  0  0  0  0
 17  9  1  0  0  0  0
 18  4  1  0  0  0  0
 19 23  1  0  0  0  0
 19 25  1  0  0  0  0
 20  1  2  0  0  0  0
 21 22  1  0  0  0  0
 23 11  1  0  0  0  0
 24 30  1  0  0  0  0
 25 24  2  0  0  0  0
 26 25  1  0  0  0  0
 26 29  2  0  0  0  0
 27 29  1  0  0  0  0
 28 30  2  0  0  0  0
 29 28  1  0  0  0  0
 31 32  2  0  0  0  0
 32 34  1  0  0  0  0
 32 37  1  0  0  0  0
 33 34  1  0  0  0  0
 35 33  2  0  0  0  0
 37 36  1  0  0  0  0
M  END
>  <MODEL>
7

>  <REMARK>
 VINA RESULT:      -7.6      3.556      7.057
  Name = 
  3 active torsions:
  status: ('A' for Active; 'I' for Inactive)
    1  A    between atoms: C_4  and  C_37
    2  A    between atoms: C_8  and  C_18
    3  A    between atoms: N_23  and  C_30
                            x       y       z     vdW  Elec       q    Type
                         _______ _______ _______ _____ _____    ______ ____

>  <TORSDO>
F 3

$$$$
=
 OpenBabel11112417233D

 37 42  0  0  1  0  0  0  0  0999 V2000
  192.7470  176.3920  146.0260 S   0  0  0  0  0  0  0  0  0  0  0  0
  191.1920  173.7640  142.9140 C   0  0  0  0  0  0  0  0  0  0  0  0
  188.1910  175.0020  140.5840 C   0  0  0  0  0  2  0  0  0  0  0  0
  192.5760  173.9210  144.9090 C   0  0  0  0  0  0  0  0  0  0  0  0
  190.2570  174.6770  142.1520 C   0  0  1  0  0  3  0  0  0  0  0  0
  191.6240  174.4520  144.0260 C   0  0  0  0  0  0  0  0  0  0  0  0
  189.1190  174.0220  141.3380 C   0  0  2  0  0  3  0  0  0  0  0  0
  193.0810  172.6440  144.6430 C   0  0  0  0  0  3  0  0  0  0  0  0
  190.9940  175.7190  144.1490 N   0  0  0  0  0  0  0  0  0  0  0  0
  193.8090  177.0000  145.1570 O   0  0  0  0  0  0  0  0  0  0  0  0
  191.4170  171.6890  141.3800 C   0  0  0  0  0  2  0  0  0  0  0  0
  192.6600  171.9370  143.5050 C   0  0  0  0  0  3  0  0  0  0  0  0
  191.1520  176.6280  145.2790 C   0  0  0  0  0  2  0  0  0  0  0  0
  187.0310  176.2140  142.1040 C   0  0  1  0  0  3  0  0  0  0  0  0
  188.1130  176.2570  141.2070 O   0  0  0  0  0  0  0  0  0  0  0  0
  191.7120  172.4790  142.6230 C   0  0  0  0  0  0  0  0  0  0  0  0
  189.8790  175.7590  143.2150 C   0  0  2  0  0  3  0  0  0  0  0  0
  193.0050  174.6350  146.1580 C   0  0  0  0  0  2  0  0  0  0  0  0
  189.6740  173.0430  140.4050 N   0  0  0  0  0  0  0  0  0  0  0  0
  192.7810  177.0260  147.3870 O   0  0  0  0  0  0  0  0  0  0  0  0
  187.2880  175.2500  143.2740 C   0  0  0  0  0  2  0  0  0  0  0  0
  188.5970  175.4810  144.0360 C   0  0  0  0  0  2  0  0  0  0  0  0
  189.9570  171.7340  140.9670 C   0  0  0  0  0  2  0  0  0  0  0  0
  189.5000  173.3780  137.9570 C   0  0  0  0  0  3  0  0  0  0  0  0
  190.2610  173.4230  139.1390 C   0  0  0  0  0  0  0  0  0  0  0  0
  191.5640  173.8170  139.0750 N   0  0  0  0  0  0  0  0  0  0  0  0
  193.5870  174.5590  137.8840 C   0  0  0  0  0  1  0  0  0  0  0  0
  191.4220  174.1280  136.7090 C   0  0  0  0  0  3  0  0  0  0  0  0
  192.1550  174.1660  137.9010 C   0  0  0  0  0  0  0  0  0  0  0  0
  190.0860  173.7340  136.7420 C   0  0  0  0  0  3  0  0  0  0  0  0
  185.9410  180.0800  143.8820 O   0  0  0  0  0  0  0  0  0  0  0  0
  185.3750  179.0080  144.2230 C   0  0  0  0  0  0  0  0  0  0  0  0
  186.7210  177.5910  142.6000 C   0  0  0  0  0  0  0  0  0  0  0  0
  185.7520  177.7540  143.6420 N   0  0  0  0  0  2  0  0  0  0  0  0
  187.3110  178.5900  142.1060 O   0  0  0  0  0  0  0  0  0  0  0  0
  184.4410  177.9140  146.0860 O   0  0  0  0  0  1  0  0  0  0  0  0
  184.3250  179.0400  145.2740 C   0  0  0  0  0  2  0  0  0  0  0  0
  1 18  1  0  0  0  0
  1 20  2  0  0  0  0
  2  6  1  0  0  0  0
  3 15  1  0  0  0  0
  4 18  1  0  0  0  0
  5  2  1  1  0  0  0
  5 17  1  0  0  0  0
  6  9  1  0  0  0  0
  6  4  2  0  0  0  0
  7  3  1  6  0  0  0
  7  5  1  0  0  0  0
  8  4  1  0  0  0  0
  9 13  1  0  0  0  0
 10  1  2  0  0  0  0
 11 16  1  0  0  0  0
 12  8  2  0  0  0  0
 13  1  1  0  0  0  0
 14 33  1  1  0  0  0
 14 21  1  0  0  0  0
 15 14  1  0  0  0  0
 16  2  2  0  0  0  0
 16 12  1  0  0  0  0
 17 22  1  1  0  0  0
 17  9  1  0  0  0  0
 19 23  1  0  0  0  0
 19  7  1  0  0  0  0
 21 22  1  0  0  0  0
 23 11  1  0  0  0  0
 24 25  1  0  0  0  0
 25 19  1  0  0  0  0
 26 25  2  0  0  0  0
 27 29  1  0  0  0  0
 28 30  1  0  0  0  0
 28 29  2  0  0  0  0
 29 26  1  0  0  0  0
 30 24  2  0  0  0  0
 31 32  2  0  0  0  0
 32 37  1  0  0  0  0
 33 34  1  0  0  0  0
 34 32  1  0  0  0  0
 35 33  2  0  0  0  0
 37 36  1  0  0  0  0
M  END
>  <MODEL>
8

>  <REMARK>
 VINA RESULT:      -7.4      2.748      7.189
  Name = 
  3 active torsions:
  status: ('A' for Active; 'I' for Inactive)
    1  A    between atoms: C_4  and  C_37
    2  A    between atoms: C_8  and  C_18
    3  A    between atoms: N_23  and  C_30
                            x       y       z     vdW  Elec       q    Type
                         _______ _______ _______ _____ _____    ______ ____

>  <TORSDO>
F 3

$$$$
=
 OpenBabel11112417233D

 37 42  0  0  1  0  0  0  0  0999 V2000
  190.1870  176.2000  146.5750 S   0  0  0  0  0  0  0  0  0  0  0  0
  190.0420  174.5350  142.5480 C   0  0  0  0  0  0  0  0  0  0  0  0
  193.3440  172.9830  140.9180 C   0  0  0  0  0  2  0  0  0  0  0  0
  188.8930  175.8960  144.2050 C   0  0  0  0  0  0  0  0  0  0  0  0
  191.3970  173.8760  142.4170 C   0  0  1  0  0  3  0  0  0  0  0  0
  190.0360  175.2350  143.7330 C   0  0  0  0  0  0  0  0  0  0  0  0
  191.9530  173.6540  140.9920 C   0  0  2  0  0  3  0  0  0  0  0  0
  187.7330  175.8430  143.4250 C   0  0  0  0  0  3  0  0  0  0  0  0
  191.3000  175.1980  144.3820 N   0  0  0  0  0  0  0  0  0  0  0  0
  189.7960  174.9200  147.2530 O   0  0  0  0  0  0  0  0  0  0  0  0
  188.7130  173.6230  140.5200 C   0  0  0  0  0  2  0  0  0  0  0  0
  187.7200  175.1210  142.2200 C   0  0  0  0  0  3  0  0  0  0  0  0
  191.6440  175.9390  145.5910 C   0  0  0  0  0  2  0  0  0  0  0  0
  194.8780  174.3990  141.7960 C   0  0  1  0  0  3  0  0  0  0  0  0
  194.1260  173.2390  142.0540 O   0  0  0  0  0  0  0  0  0  0  0  0
  188.8680  174.4570  141.7600 C   0  0  0  0  0  0  0  0  0  0  0  0
  192.2750  174.6720  143.4380 C   0  0  2  0  0  3  0  0  0  0  0  0
  188.8950  176.7150  145.4630 C   0  0  0  0  0  2  0  0  0  0  0  0
  190.9910  172.8970  140.1950 N   0  0  0  0  0  0  0  0  0  0  0  0
  190.4410  177.2630  147.6050 O   0  0  0  0  0  0  0  0  0  0  0  0
  193.9910  175.6490  141.6840 C   0  0  0  0  0  2  0  0  0  0  0  0
  193.0430  175.8870  142.8660 C   0  0  0  0  0  2  0  0  0  0  0  0
  189.9190  173.6760  139.6010 C   0  0  0  0  0  2  0  0  0  0  0  0
  190.9250  170.8190  141.5410 C   0  0  0  0  0  3  0  0  0  0  0  0
  190.8650  171.4590  140.2910 C   0  0  0  0  0  0  0  0  0  0  0  0
  190.6990  170.7060  139.1670 N   0  0  0  0  0  0  0  0  0  0  0  0
  190.4430  168.5770  137.9570 C   0  0  0  0  0  1  0  0  0  0  0  0
  190.6520  168.6870  140.4470 C   0  0  0  0  0  3  0  0  0  0  0  0
  190.5930  169.3510  139.2150 C   0  0  0  0  0  0  0  0  0  0  0  0
  190.8170  169.4300  141.6140 C   0  0  0  0  0  3  0  0  0  0  0  0
  197.8670  174.5420  145.0100 O   0  0  0  0  0  0  0  0  0  0  0  0
  196.9180  173.7130  145.0210 C   0  0  0  0  0  0  0  0  0  0  0  0
  195.9270  174.5760  142.8460 C   0  0  0  0  0  0  0  0  0  0  0  0
  195.9600  173.6730  143.9570 N   0  0  0  0  0  2  0  0  0  0  0  0
  196.7710  175.5080  142.7480 O   0  0  0  0  0  0  0  0  0  0  0  0
  197.1910  171.4730  145.6870 O   0  0  0  0  0  1  0  0  0  0  0  0
  196.8150  172.7370  146.1370 C   0  0  0  0  0  2  0  0  0  0  0  0
  1 10  2  0  0  0  0
  1 20  2  0  0  0  0
  2  6  1  0  0  0  0
  3 15  1  0  0  0  0
  4 18  1  0  0  0  0
  5  2  1  6  0  0  0
  5 17  1  0  0  0  0
  6  4  2  0  0  0  0
  6  9  1  0  0  0  0
  7  3  1  1  0  0  0
  7  5  1  0  0  0  0
  8  4  1  0  0  0  0
  9 13  1  0  0  0  0
 11 16  1  0  0  0  0
 12  8  2  0  0  0  0
 13  1  1  0  0  0  0
 14 15  1  0  0  0  0
 14 33  1  1  0  0  0
 16 12  1  0  0  0  0
 16  2  2  0  0  0  0
 17 22  1  6  0  0  0
 17  9  1  0  0  0  0
 18  1  1  0  0  0  0
 19 25  1  0  0  0  0
 19  7  1  0  0  0  0
 21 14  1  0  0  0  0
 21 22  1  0  0  0  0
 23 19  1  0  0  0  0
 23 11  1  0  0  0  0
 24 30  1  0  0  0  0
 25 24  2  0  0  0  0
 26 29  2  0  0  0  0
 26 25  1  0  0  0  0
 27 29  1  0  0  0  0
 28 30  2  0  0  0  0
 29 28  1  0  0  0  0
 31 32  2  0  0  0  0
 32 37  1  0  0  0  0
 33 34  1  0  0  0  0
 34 32  1  0  0  0  0
 35 33  2  0  0  0  0
 36 37  1  0  0  0  0
M  END
>  <MODEL>
9

>  <REMARK>
 VINA RESULT:      -7.2      3.661      7.033
  Name = 
  3 active torsions:
  status: ('A' for Active; 'I' for Inactive)
    1  A    between atoms: C_4  and  C_37
    2  A    between atoms: C_8  and  C_18
    3  A    between atoms: N_23  and  C_30
                            x       y       z     vdW  Elec       q    Type
                         _______ _______ _______ _____ _____    ______ ____

>  <TORSDO>
F 3

$$$$
