=
 OpenBabel11112416193D

 30 35  0  0  1  0  0  0  0  0999 V2000
  186.2580  177.3960  143.7910 C   0  0  0  0  0  0  0  0  0  0  0  0
  184.5400  178.5700  145.2490 C   0  0  0  0  0  0  0  0  0  0  0  0
  188.4520  176.3000  147.1500 O   0  0  0  0  0  0  0  0  0  0  0  0
  187.4820  176.6580  143.7100 C   0  0  0  0  0  0  0  0  0  0  0  0
  185.5840  177.6780  142.5980 C   0  0  0  0  0  3  0  0  0  0  0  0
  187.7600  176.1700  140.0360 O   0  0  0  0  0  1  0  0  0  0  0  0
  190.4770  176.2480  142.9810 C   0  0  1  0  0  3  0  0  0  0  0  0
  187.2730  176.5670  141.2790 C   0  0  0  0  0  0  0  0  0  0  0  0
  190.5570  176.1620  144.4580 N   0  0  2  0  0  0  0  0  0  0  0  0
  189.5530  175.5490  146.6500 C   0  0  1  0  0  3  0  0  0  0  0  0
  186.0730  177.2760  141.3590 C   0  0  0  0  0  0  0  0  0  0  0  0
  187.9910  176.2600  142.4470 C   0  0  0  0  0  0  0  0  0  0  0  0
  184.1250  178.9280  146.5350 C   0  0  0  0  0  3  0  0  0  0  0  0
  191.7380  175.3490  144.7300 C   0  0  0  0  0  2  0  0  0  0  0  0
  191.7960  175.7810  142.3950 C   0  0  0  0  0  2  0  0  0  0  0  0
  183.4720  179.1210  143.9600 Cl  0  0  0  0  0  0  0  0  0  0  0  0
  187.6590  176.7420  146.1130 C   0  0  0  0  0  0  0  0  0  0  0  0
  184.8630  178.5690  147.6570 C   0  0  0  0  0  3  0  0  0  0  0  0
  185.7460  177.8210  145.0660 C   0  0  0  0  0  0  0  0  0  0  0  0
  188.1530  176.3560  144.9040 C   0  0  0  0  0  0  0  0  0  0  0  0
  189.4850  174.1310  147.1790 C   0  0  0  0  0  1  0  0  0  0  0  0
  189.3930  175.5390  145.1090 C   0  0  1  0  0  3  0  0  0  0  0  0
  192.6930  175.5450  143.5800 C   0  0  0  0  0  2  0  0  0  0  0  0
  189.1910  174.0370  142.5650 C   0  0  0  0  0  1  0  0  0  0  0  0
  186.0390  177.8430  147.5080 C   0  0  0  0  0  3  0  0  0  0  0  0
  186.4830  177.4720  146.2370 C   0  0  0  0  0  0  0  0  0  0  0  0
  189.3000  175.5330  142.2920 C   0  0  2  0  0  3  0  0  0  0  0  0
  185.2870  177.5980  140.1310 C   0  0  0  0  0  2  0  0  0  0  0  0
  182.8390  177.9180  140.2930 C   0  0  0  0  0  1  0  0  0  0  0  0
  184.1860  178.5890  140.4600 C   0  0  0  0  0  2  0  0  0  0  0  0
  1 19  1  0  0  0  0
  2 13  1  0  0  0  0
  4  1  1  0  0  0  0
  4 20  1  0  0  0  0
  5  1  2  0  0  0  0
  6  8  1  0  0  0  0
  7 15  1  6  0  0  0
  7  9  1  0  0  0  0
  8 11  2  0  0  0  0
  8 12  1  0  0  0  0
  9 14  1  6  0  0  0
  9 22  1  0  0  0  0
 10  3  1  0  0  0  0
 10 21  1  1  0  0  0
 11  5  1  0  0  0  0
 12  4  2  0  0  0  0
 13 18  2  0  0  0  0
 15 23  1  0  0  0  0
 16  2  1  0  0  0  0
 17 26  1  0  0  0  0
 17  3  1  0  0  0  0
 19  2  2  0  0  0  0
 19 26  1  0  0  0  0
 20 17  2  0  0  0  0
 22 20  1  1  0  0  0
 22 10  1  0  0  0  0
 23 14  1  0  0  0  0
 25 18  1  0  0  0  0
 26 25  2  0  0  0  0
 27 12  1  0  0  0  0
 27 24  1  1  0  0  0
 27  7  1  0  0  0  0
 28 30  1  0  0  0  0
 28 11  1  0  0  0  0
 29 30  1  0  0  0  0
M  END
>  <MODEL>
1

>  <REMARK>
 VINA RESULT:      -8.6      0.000      0.000
  Name = 
  2 active torsions:
  status: ('A' for Active; 'I' for Inactive)
    1  A    between atoms: C_11  and  C_28
    2  A    between atoms: C_28  and  C_30
                            x       y       z     vdW  Elec       q    Type
                         _______ _______ _______ _____ _____    ______ ____

>  <TORSDO>
F 2

$$$$
=
 OpenBabel11112416193D

 30 35  0  0  1  0  0  0  0  0999 V2000
  188.2210  177.1800  145.8850 C   0  0  0  0  0  0  0  0  0  0  0  0
  186.3330  178.4530  147.0130 C   0  0  0  0  0  0  0  0  0  0  0  0
  185.9850  176.8310  142.3950 O   0  0  0  0  0  0  0  0  0  0  0  0
  188.7000  176.4960  144.7220 C   0  0  0  0  0  0  0  0  0  0  0  0
  189.0730  177.2680  146.9910 C   0  0  0  0  0  3  0  0  0  0  0  0
  192.0820  175.4650  145.8670 O   0  0  0  0  0  1  0  0  0  0  0  0
  189.5880  174.0000  143.0930 C   0  0  1  0  0  3  0  0  0  0  0  0
  190.8090  176.0290  145.8600 C   0  0  0  0  0  0  0  0  0  0  0  0
  188.3800  174.3910  142.3290 N   0  0  2  0  0  0  0  0  0  0  0  0
  186.8250  176.1360  141.4800 C   0  0  1  0  0  3  0  0  0  0  0  0
  190.3460  176.7070  146.9900 C   0  0  0  0  0  0  0  0  0  0  0  0
  189.9920  175.9090  144.7240 C   0  0  0  0  0  0  0  0  0  0  0  0
  185.0450  178.9870  146.9190 C   0  0  0  0  0  3  0  0  0  0  0  0
  188.5990  173.8780  140.9800 C   0  0  0  0  0  2  0  0  0  0  0  0
  190.3560  172.9640  142.2930 C   0  0  0  0  0  2  0  0  0  0  0  0
  187.1180  178.7120  148.5690 Cl  0  0  0  0  0  0  0  0  0  0  0  0
  186.6180  176.9850  143.6090 C   0  0  0  0  0  0  0  0  0  0  0  0
  184.2940  178.8620  145.7560 C   0  0  0  0  0  3  0  0  0  0  0  0
  186.9040  177.7600  145.8980 C   0  0  0  0  0  0  0  0  0  0  0  0
  187.8570  176.4200  143.6040 C   0  0  0  0  0  0  0  0  0  0  0  0
  187.1220  177.0240  140.2880 C   0  0  0  0  0  1  0  0  0  0  0  0
  188.1360  175.8400  142.2500 C   0  0  1  0  0  3  0  0  0  0  0  0
  189.4900  172.6670  141.1000 C   0  0  0  0  0  2  0  0  0  0  0  0
  191.0860  176.0140  142.4460 C   0  0  0  0  0  1  0  0  0  0  0  0
  184.8240  178.1930  144.6600 C   0  0  0  0  0  3  0  0  0  0  0  0
  186.1070  177.6450  144.7210 C   0  0  0  0  0  0  0  0  0  0  0  0
  190.5300  175.1280  143.5560 C   0  0  2  0  0  3  0  0  0  0  0  0
  191.2050  176.8590  148.2010 C   0  0  0  0  0  2  0  0  0  0  0  0
  191.5690  178.1650  150.2710 C   0  0  0  0  0  1  0  0  0  0  0  0
  190.8410  178.1310  148.9440 C   0  0  0  0  0  2  0  0  0  0  0  0
  1 19  1  0  0  0  0
  1  5  1  0  0  0  0
  2 16  1  0  0  0  0
  3 17  1  0  0  0  0
  4 12  1  0  0  0  0
  4  1  2  0  0  0  0
  7 15  1  6  0  0  0
  7 27  1  0  0  0  0
  8  6  1  0  0  0  0
  8 11  1  0  0  0  0
  9 14  1  6  0  0  0
  9  7  1  0  0  0  0
 10 21  1  6  0  0  0
 10 22  1  0  0  0  0
 10  3  1  0  0  0  0
 11  5  2  0  0  0  0
 11 28  1  0  0  0  0
 12  8  2  0  0  0  0
 13  2  1  0  0  0  0
 14 23  1  0  0  0  0
 17 26  1  0  0  0  0
 18 13  2  0  0  0  0
 19  2  2  0  0  0  0
 20 17  2  0  0  0  0
 20  4  1  0  0  0  0
 22  9  1  0  0  0  0
 22 20  1  1  0  0  0
 23 15  1  0  0  0  0
 25 26  2  0  0  0  0
 25 18  1  0  0  0  0
 26 19  1  0  0  0  0
 27 24  1  6  0  0  0
 27 12  1  0  0  0  0
 28 30  1  0  0  0  0
 30 29  1  0  0  0  0
M  END
>  <MODEL>
2

>  <REMARK>
 VINA RESULT:      -8.5      2.184      5.404
  Name = 
  2 active torsions:
  status: ('A' for Active; 'I' for Inactive)
    1  A    between atoms: C_11  and  C_28
    2  A    between atoms: C_28  and  C_30
                            x       y       z     vdW  Elec       q    Type
                         _______ _______ _______ _____ _____    ______ ____

>  <TORSDO>
F 2

$$$$
=
 OpenBabel11112416193D

 30 35  0  0  1  0  0  0  0  0999 V2000
  187.9750  175.9490  141.9830 C   0  0  0  0  0  0  0  0  0  0  0  0
  186.2650  177.8290  141.9450 C   0  0  0  0  0  0  0  0  0  0  0  0
  188.7080  176.6140  146.0220 O   0  0  0  0  0  0  0  0  0  0  0  0
  188.9330  175.1930  142.7310 C   0  0  0  0  0  0  0  0  0  0  0  0
  187.7830  175.6150  140.6380 C   0  0  0  0  0  3  0  0  0  0  0  0
  190.1560  172.8440  140.1240 O   0  0  0  0  0  1  0  0  0  0  0  0
  191.7970  174.2550  143.4970 C   0  0  1  0  0  3  0  0  0  0  0  0
  189.4410  173.8630  140.7480 C   0  0  0  0  0  0  0  0  0  0  0  0
  191.4080  174.9460  144.7490 N   0  0  2  0  0  0  0  0  0  0  0  0
  189.6750  175.6380  146.3930 C   0  0  1  0  0  3  0  0  0  0  0  0
  188.4970  174.5930  140.0210 C   0  0  0  0  0  0  0  0  0  0  0  0
  189.6740  174.1600  142.1010 C   0  0  0  0  0  0  0  0  0  0  0  0
  185.5940  178.8320  142.6490 C   0  0  0  0  0  3  0  0  0  0  0  0
  192.2030  174.3140  145.7980 C   0  0  0  0  0  2  0  0  0  0  0  0
  193.0630  173.4590  143.7540 C   0  0  0  0  0  2  0  0  0  0  0  0
  185.8100  177.7000  140.2470 Cl  0  0  0  0  0  0  0  0  0  0  0  0
  188.4020  176.5050  144.6840 C   0  0  0  0  0  0  0  0  0  0  0  0
  185.8460  179.0610  143.9960 C   0  0  0  0  0  3  0  0  0  0  0  0
  187.2340  177.0120  142.6100 C   0  0  0  0  0  0  0  0  0  0  0  0
  189.1160  175.5120  144.0850 C   0  0  0  0  0  0  0  0  0  0  0  0
  189.0890  174.7130  147.4400 C   0  0  0  0  0  1  0  0  0  0  0  0
  189.9840  174.8380  145.1040 C   0  0  1  0  0  3  0  0  0  0  0  0
  193.4730  173.8130  145.1570 C   0  0  0  0  0  2  0  0  0  0  0  0
  190.1670  172.2470  143.6800 C   0  0  0  0  0  1  0  0  0  0  0  0
  186.7830  178.2830  144.6660 C   0  0  0  0  0  3  0  0  0  0  0  0
  187.4730  177.2740  143.9910 C   0  0  0  0  0  0  0  0  0  0  0  0
  190.7350  173.3700  142.8170 C   0  0  2  0  0  3  0  0  0  0  0  0
  188.2240  174.2810  138.5870 C   0  0  0  0  0  2  0  0  0  0  0  0
  187.6660  175.4760  136.4930 C   0  0  0  0  0  1  0  0  0  0  0  0
  187.3610  175.3670  137.9720 C   0  0  0  0  0  2  0  0  0  0  0  0
  1 19  1  0  0  0  0
  1  4  1  0  0  0  0
  2 19  2  0  0  0  0
  2 13  1  0  0  0  0
  3 10  1  0  0  0  0
  4 20  1  0  0  0  0
  5  1  2  0  0  0  0
  6  8  1  0  0  0  0
  7 15  1  1  0  0  0
  7  9  1  0  0  0  0
  8 12  1  0  0  0  0
  9 22  1  0  0  0  0
  9 14  1  1  0  0  0
 10 21  1  1  0  0  0
 11  5  1  0  0  0  0
 11  8  2  0  0  0  0
 12  4  2  0  0  0  0
 12 27  1  0  0  0  0
 13 18  2  0  0  0  0
 15 23  1  0  0  0  0
 16  2  1  0  0  0  0
 17  3  1  0  0  0  0
 18 25  1  0  0  0  0
 19 26  1  0  0  0  0
 20 17  2  0  0  0  0
 22 20  1  6  0  0  0
 22 10  1  0  0  0  0
 23 14  1  0  0  0  0
 26 25  2  0  0  0  0
 26 17  1  0  0  0  0
 27  7  1  0  0  0  0
 27 24  1  1  0  0  0
 28 11  1  0  0  0  0
 29 30  1  0  0  0  0
 30 28  1  0  0  0  0
M  END
>  <MODEL>
3

>  <REMARK>
 VINA RESULT:      -7.9      2.142      3.201
  Name = 
  2 active torsions:
  status: ('A' for Active; 'I' for Inactive)
    1  A    between atoms: C_11  and  C_28
    2  A    between atoms: C_28  and  C_30
                            x       y       z     vdW  Elec       q    Type
                         _______ _______ _______ _____ _____    ______ ____

>  <TORSDO>
F 2

$$$$
=
 OpenBabel11112416193D

 30 35  0  0  1  0  0  0  0  0999 V2000
  188.6240  176.0880  143.7490 C   0  0  0  0  0  0  0  0  0  0  0  0
  186.3790  177.1400  144.3070 C   0  0  0  0  0  0  0  0  0  0  0  0
  190.1100  177.1210  147.4930 O   0  0  0  0  0  0  0  0  0  0  0  0
  189.9640  175.7950  144.1580 C   0  0  0  0  0  0  0  0  0  0  0  0
  188.2190  175.6600  142.4790 C   0  0  0  0  0  3  0  0  0  0  0  0
  191.2430  174.0320  141.1470 O   0  0  0  0  0  1  0  0  0  0  0  0
  193.0590  176.0860  144.0710 C   0  0  1  0  0  3  0  0  0  0  0  0
  190.3880  174.7080  142.0140 C   0  0  0  0  0  0  0  0  0  0  0  0
  192.7880  176.6090  145.4300 N   0  0  2  0  0  0  0  0  0  0  0  0
  191.4400  176.6170  147.5200 C   0  0  1  0  0  3  0  0  0  0  0  0
  189.0760  174.9820  141.6200 C   0  0  0  0  0  0  0  0  0  0  0  0
  190.8450  175.1170  143.2770 C   0  0  0  0  0  0  0  0  0  0  0  0
  185.5900  177.8210  145.2380 C   0  0  0  0  0  3  0  0  0  0  0  0
  194.0190  176.3760  146.1810 C   0  0  0  0  0  2  0  0  0  0  0  0
  194.5520  175.8610  143.9240 C   0  0  0  0  0  2  0  0  0  0  0  0
  185.5660  176.7860  142.7840 Cl  0  0  0  0  0  0  0  0  0  0  0  0
  189.5190  176.8560  146.2770 C   0  0  0  0  0  0  0  0  0  0  0  0
  186.0900  178.1750  146.4860 C   0  0  0  0  0  3  0  0  0  0  0  0
  187.7300  176.7930  144.6290 C   0  0  0  0  0  0  0  0  0  0  0  0
  190.3690  176.2050  145.4370 C   0  0  0  0  0  0  0  0  0  0  0  0
  191.5660  175.5710  148.6090 C   0  0  0  0  0  1  0  0  0  0  0  0
  191.6720  175.9610  146.1370 C   0  0  1  0  0  3  0  0  0  0  0  0
  195.1580  176.3950  145.1930 C   0  0  0  0  0  2  0  0  0  0  0  0
  192.4500  173.6060  144.5170 C   0  0  0  0  0  1  0  0  0  0  0  0
  187.3980  177.8510  146.8240 C   0  0  0  0  0  3  0  0  0  0  0  0
  188.2150  177.1740  145.9150 C   0  0  0  0  0  0  0  0  0  0  0  0
  192.2810  174.8320  143.6260 C   0  0  2  0  0  3  0  0  0  0  0  0
  188.5660  174.5410  140.2880 C   0  0  0  0  0  2  0  0  0  0  0  0
  188.5840  172.4110  139.0280 C   0  0  0  0  0  1  0  0  0  0  0  0
  188.1910  173.0710  140.3330 C   0  0  0  0  0  2  0  0  0  0  0  0
  1  4  1  0  0  0  0
  1 19  1  0  0  0  0
  2 19  2  0  0  0  0
  2 13  1  0  0  0  0
  3 10  1  0  0  0  0
  4 20  1  0  0  0  0
  5  1  2  0  0  0  0
  6  8  1  0  0  0  0
  7 15  1  1  0  0  0
  7  9  1  0  0  0  0
  8 12  1  0  0  0  0
  9 22  1  0  0  0  0
  9 14  1  1  0  0  0
 10 21  1  1  0  0  0
 11  8  2  0  0  0  0
 11  5  1  0  0  0  0
 12 27  1  0  0  0  0
 12  4  2  0  0  0  0
 13 18  2  0  0  0  0
 15 23  1  0  0  0  0
 16  2  1  0  0  0  0
 17  3  1  0  0  0  0
 18 25  1  0  0  0  0
 19 26  1  0  0  0  0
 20 17  2  0  0  0  0
 22 20  1  6  0  0  0
 22 10  1  0  0  0  0
 23 14  1  0  0  0  0
 26 17  1  0  0  0  0
 26 25  2  0  0  0  0
 27  7  1  0  0  0  0
 27 24  1  1  0  0  0
 28 30  1  0  0  0  0
 28 11  1  0  0  0  0
 29 30  1  0  0  0  0
M  END
>  <MODEL>
4

>  <REMARK>
 VINA RESULT:      -7.8      2.286      3.413
  Name = 
  2 active torsions:
  status: ('A' for Active; 'I' for Inactive)
    1  A    between atoms: C_11  and  C_28
    2  A    between atoms: C_28  and  C_30
                            x       y       z     vdW  Elec       q    Type
                         _______ _______ _______ _____ _____    ______ ____

>  <TORSDO>
F 2

$$$$
=
 OpenBabel11112416193D

 30 35  0  0  1  0  0  0  0  0999 V2000
  188.2760  175.7480  141.8690 C   0  0  0  0  0  0  0  0  0  0  0  0
  186.6440  176.9590  140.3430 C   0  0  0  0  0  0  0  0  0  0  0  0
  186.9400  177.9390  145.1420 O   0  0  0  0  0  0  0  0  0  0  0  0
  188.8200  175.5880  143.1830 C   0  0  0  0  0  0  0  0  0  0  0  0
  188.7760  174.9310  140.8490 C   0  0  0  0  0  3  0  0  0  0  0  0
  191.3240  172.9090  142.5780 O   0  0  0  0  0  1  0  0  0  0  0  0
  191.0390  175.7870  145.3530 C   0  0  1  0  0  3  0  0  0  0  0  0
  190.3180  173.8460  142.3570 C   0  0  0  0  0  0  0  0  0  0  0  0
  190.0460  176.7340  145.9110 N   0  0  2  0  0  0  0  0  0  0  0  0
  187.6890  177.4530  146.2490 C   0  0  1  0  0  3  0  0  0  0  0  0
  189.7790  173.9940  141.0760 C   0  0  0  0  0  0  0  0  0  0  0  0
  189.8540  174.6430  143.4150 C   0  0  0  0  0  0  0  0  0  0  0  0
  185.6400  177.9220  140.2110 C   0  0  0  0  0  3  0  0  0  0  0  0
  190.2940  176.7440  147.3500 C   0  0  0  0  0  2  0  0  0  0  0  0
  192.0900  175.5040  146.4100 C   0  0  0  0  0  2  0  0  0  0  0  0
  187.0650  176.1340  138.8440 Cl  0  0  0  0  0  0  0  0  0  0  0  0
  187.3190  177.2960  143.9840 C   0  0  0  0  0  0  0  0  0  0  0  0
  185.2000  178.6600  141.3030 C   0  0  0  0  0  3  0  0  0  0  0  0
  187.2430  176.7180  141.6210 C   0  0  0  0  0  0  0  0  0  0  0  0
  188.3100  176.3910  144.2130 C   0  0  0  0  0  0  0  0  0  0  0  0
  186.7530  176.8240  147.2610 C   0  0  0  0  0  1  0  0  0  0  0  0
  188.6390  176.3720  145.6760 C   0  0  1  0  0  3  0  0  0  0  0  0
  191.7520  176.4180  147.5560 C   0  0  0  0  0  2  0  0  0  0  0  0
  189.6900  173.6040  145.7150 C   0  0  0  0  0  1  0  0  0  0  0  0
  185.7640  178.4470  142.5540 C   0  0  0  0  0  3  0  0  0  0  0  0
  186.7730  177.4950  142.7210 C   0  0  0  0  0  0  0  0  0  0  0  0
  190.5060  174.4680  144.7600 C   0  0  2  0  0  3  0  0  0  0  0  0
  190.2480  173.1450  139.9420 C   0  0  0  0  0  2  0  0  0  0  0  0
  190.2020  173.7840  137.5520 C   0  0  0  0  0  1  0  0  0  0  0  0
  189.3570  173.3520  138.7320 C   0  0  0  0  0  2  0  0  0  0  0  0
  1  4  1  0  0  0  0
  2 19  1  0  0  0  0
  3 10  1  0  0  0  0
  4 12  1  0  0  0  0
  4 20  2  0  0  0  0
  5 11  2  0  0  0  0
  5  1  1  0  0  0  0
  7  9  1  0  0  0  0
  7 15  1  1  0  0  0
  8  6  1  0  0  0  0
  8 12  2  0  0  0  0
  9 14  1  1  0  0  0
 10 21  1  1  0  0  0
 11  8  1  0  0  0  0
 12 27  1  0  0  0  0
 13  2  2  0  0  0  0
 13 18  1  0  0  0  0
 14 23  1  0  0  0  0
 15 23  1  0  0  0  0
 16  2  1  0  0  0  0
 17 20  1  0  0  0  0
 17  3  1  0  0  0  0
 18 25  2  0  0  0  0
 19  1  2  0  0  0  0
 19 26  1  0  0  0  0
 22 20  1  6  0  0  0
 22  9  1  0  0  0  0
 22 10  1  0  0  0  0
 25 26  1  0  0  0  0
 26 17  2  0  0  0  0
 27  7  1  0  0  0  0
 27 24  1  1  0  0  0
 28 11  1  0  0  0  0
 29 30  1  0  0  0  0
 30 28  1  0  0  0  0
M  END
>  <MODEL>
5

>  <REMARK>
 VINA RESULT:      -7.8      2.427      4.547
  Name = 
  2 active torsions:
  status: ('A' for Active; 'I' for Inactive)
    1  A    between atoms: C_11  and  C_28
    2  A    between atoms: C_28  and  C_30
                            x       y       z     vdW  Elec       q    Type
                         _______ _______ _______ _____ _____    ______ ____

>  <TORSDO>
F 2

$$$$
=
 OpenBabel11112416193D

 30 35  0  0  1  0  0  0  0  0999 V2000
  187.9460  175.8250  141.8370 C   0  0  0  0  0  0  0  0  0  0  0  0
  189.5750  173.9240  141.4020 C   0  0  0  0  0  0  0  0  0  0  0  0
  188.8870  175.7890  145.8880 O   0  0  0  0  0  0  0  0  0  0  0  0
  187.3300  176.7050  142.7840 C   0  0  0  0  0  0  0  0  0  0  0  0
  187.5790  175.9500  140.4920 C   0  0  0  0  0  3  0  0  0  0  0  0
  185.0890  178.6630  140.5580 O   0  0  0  0  0  1  0  0  0  0  0  0
  184.9640  177.8100  144.4720 C   0  0  1  0  0  3  0  0  0  0  0  0
  186.0310  177.7340  140.9910 C   0  0  0  0  0  0  0  0  0  0  0  0
  185.8410  177.3060  145.5550 N   0  0  2  0  0  0  0  0  0  0  0  0
  188.1070  176.8300  146.4630 C   0  0  1  0  0  3  0  0  0  0  0  0
  186.6410  176.8830  140.0660 C   0  0  0  0  0  0  0  0  0  0  0  0
  186.3610  177.6480  142.3530 C   0  0  0  0  0  0  0  0  0  0  0  0
  190.5080  173.0230  141.9230 C   0  0  0  0  0  3  0  0  0  0  0  0
  185.4980  178.1050  146.7270 C   0  0  0  0  0  2  0  0  0  0  0  0
  183.8710  178.6630  145.0890 C   0  0  0  0  0  2  0  0  0  0  0  0
  189.3200  173.7870  139.6640 Cl  0  0  0  0  0  0  0  0  0  0  0  0
  188.6370  175.6890  144.5370 C   0  0  0  0  0  0  0  0  0  0  0  0
  190.8160  173.0040  143.2780 C   0  0  0  0  0  3  0  0  0  0  0  0
  188.9140  174.8520  142.2690 C   0  0  0  0  0  0  0  0  0  0  0  0
  187.7070  176.5970  144.1300 C   0  0  0  0  0  0  0  0  0  0  0  0
  189.0210  177.8880  147.0460 C   0  0  0  0  0  1  0  0  0  0  0  0
  187.2840  177.4350  145.2990 C   0  0  1  0  0  3  0  0  0  0  0  0
  184.0600  178.5320  146.5750 C   0  0  0  0  0  2  0  0  0  0  0  0
  186.4540  179.7860  143.7010 C   0  0  0  0  0  1  0  0  0  0  0  0
  190.1880  173.8940  144.1410 C   0  0  0  0  0  3  0  0  0  0  0  0
  189.2480  174.8050  143.6550 C   0  0  0  0  0  0  0  0  0  0  0  0
  185.6370  178.5600  143.3070 C   0  0  2  0  0  3  0  0  0  0  0  0
  186.3160  176.9700  138.6110 C   0  0  0  0  0  2  0  0  0  0  0  0
  187.0630  176.2160  136.3760 C   0  0  0  0  0  1  0  0  0  0  0  0
  187.0270  175.8680  137.8500 C   0  0  0  0  0  2  0  0  0  0  0  0
  1 19  2  0  0  0  0
  1  4  1  0  0  0  0
  2 13  2  0  0  0  0
  2 19  1  0  0  0  0
  3 10  1  0  0  0  0
  4 20  2  0  0  0  0
  5  1  1  0  0  0  0
  6  8  1  0  0  0  0
  7 15  1  1  0  0  0
  7  9  1  0  0  0  0
  8 12  2  0  0  0  0
  9 14  1  1  0  0  0
 10 21  1  6  0  0  0
 11  5  2  0  0  0  0
 11  8  1  0  0  0  0
 12  4  1  0  0  0  0
 12 27  1  0  0  0  0
 13 18  1  0  0  0  0
 15 23  1  0  0  0  0
 16  2  1  0  0  0  0
 17  3  1  0  0  0  0
 18 25  2  0  0  0  0
 19 26  1  0  0  0  0
 20 17  1  0  0  0  0
 22 20  1  6  0  0  0
 22  9  1  0  0  0  0
 22 10  1  0  0  0  0
 23 14  1  0  0  0  0
 26 25  1  0  0  0  0
 26 17  2  0  0  0  0
 27 24  1  1  0  0  0
 27  7  1  0  0  0  0
 28 11  1  0  0  0  0
 29 30  1  0  0  0  0
 30 28  1  0  0  0  0
M  END
>  <MODEL>
6

>  <REMARK>
 VINA RESULT:      -7.7      2.534      5.491
  Name = 
  2 active torsions:
  status: ('A' for Active; 'I' for Inactive)
    1  A    between atoms: C_11  and  C_28
    2  A    between atoms: C_28  and  C_30
                            x       y       z     vdW  Elec       q    Type
                         _______ _______ _______ _____ _____    ______ ____

>  <TORSDO>
F 2

$$$$
=
 OpenBabel11112416193D

 30 35  0  0  1  0  0  0  0  0999 V2000
  189.5840  175.9360  144.8370 C   0  0  0  0  0  0  0  0  0  0  0  0
  191.1410  176.6580  146.7110 C   0  0  0  0  0  0  0  0  0  0  0  0
  192.3910  173.1850  143.4780 O   0  0  0  0  0  0  0  0  0  0  0  0
  189.3650  175.1090  143.6900 C   0  0  0  0  0  0  0  0  0  0  0  0
  188.5550  176.8010  145.2270 C   0  0  0  0  0  3  0  0  0  0  0  0
  185.9410  176.1690  142.7090 O   0  0  0  0  0  1  0  0  0  0  0  0
  188.9790  174.5520  140.6550 C   0  0  1  0  0  3  0  0  0  0  0  0
  187.1450  176.0820  143.4040 C   0  0  0  0  0  0  0  0  0  0  0  0
  190.2590  173.8420  140.8870 N   0  0  2  0  0  0  0  0  0  0  0  0
  191.7780  172.5430  142.3660 C   0  0  1  0  0  3  0  0  0  0  0  0
  187.3530  176.8810  144.5310 C   0  0  0  0  0  0  0  0  0  0  0  0
  188.1460  175.1990  142.9690 C   0  0  0  0  0  0  0  0  0  0  0  0
  192.3760  176.5060  147.3480 C   0  0  0  0  0  3  0  0  0  0  0  0
  190.3130  172.8060  139.8600 C   0  0  0  0  0  2  0  0  0  0  0  0
  188.4470  174.1620  139.2880 C   0  0  0  0  0  2  0  0  0  0  0  0
  190.0880  177.8670  147.4420 Cl  0  0  0  0  0  0  0  0  0  0  0  0
  191.5540  174.1460  144.0010 C   0  0  0  0  0  0  0  0  0  0  0  0
  193.3180  175.5930  146.8880 C   0  0  0  0  0  3  0  0  0  0  0  0
  190.8250  175.8660  145.5610 C   0  0  0  0  0  0  0  0  0  0  0  0
  190.3860  174.2270  143.3060 C   0  0  0  0  0  0  0  0  0  0  0  0
  191.6080  171.0660  142.6620 C   0  0  0  0  0  1  0  0  0  0  0  0
  190.3880  173.2060  142.2080 C   0  0  1  0  0  3  0  0  0  0  0  0
  189.5220  173.3060  138.6770 C   0  0  0  0  0  2  0  0  0  0  0  0
  187.4420  172.9660  142.0120 C   0  0  0  0  0  1  0  0  0  0  0  0
  193.0370  174.8130  145.7730 C   0  0  0  0  0  3  0  0  0  0  0  0
  191.8140  174.9410  145.1120 C   0  0  0  0  0  0  0  0  0  0  0  0
  187.8790  174.3980  141.7230 C   0  0  2  0  0  3  0  0  0  0  0  0
  186.2940  177.8130  145.0180 C   0  0  0  0  0  2  0  0  0  0  0  0
  184.4400  178.1250  146.6270 C   0  0  0  0  0  1  0  0  0  0  0  0
  185.4780  177.1510  146.1120 C   0  0  0  0  0  2  0  0  0  0  0  0
  1  5  1  0  0  0  0
  1 19  1  0  0  0  0
  2 13  1  0  0  0  0
  2 16  1  0  0  0  0
  3 17  1  0  0  0  0
  4  1  2  0  0  0  0
  6  8  1  0  0  0  0
  7 15  1  6  0  0  0
  7  9  1  0  0  0  0
  7 27  1  0  0  0  0
  8 11  1  0  0  0  0
  9 14  1  6  0  0  0
  9 22  1  0  0  0  0
 10 21  1  1  0  0  0
 10  3  1  0  0  0  0
 11 28  1  0  0  0  0
 11  5  2  0  0  0  0
 12  8  2  0  0  0  0
 12  4  1  0  0  0  0
 17 26  1  0  0  0  0
 18 13  2  0  0  0  0
 19  2  2  0  0  0  0
 20  4  1  0  0  0  0
 20 17  2  0  0  0  0
 22 10  1  0  0  0  0
 22 20  1  1  0  0  0
 23 15  1  0  0  0  0
 23 14  1  0  0  0  0
 25 18  1  0  0  0  0
 26 19  1  0  0  0  0
 26 25  2  0  0  0  0
 27 24  1  1  0  0  0
 27 12  1  0  0  0  0
 28 30  1  0  0  0  0
 30 29  1  0  0  0  0
M  END
>  <MODEL>
7

>  <REMARK>
 VINA RESULT:      -7.5      2.839      5.318
  Name = 
  2 active torsions:
  status: ('A' for Active; 'I' for Inactive)
    1  A    between atoms: C_11  and  C_28
    2  A    between atoms: C_28  and  C_30
                            x       y       z     vdW  Elec       q    Type
                         _______ _______ _______ _____ _____    ______ ____

>  <TORSDO>
F 2

$$$$
=
 OpenBabel11112416193D

 30 35  0  0  1  0  0  0  0  0999 V2000
  189.1470  173.9940  141.5150 C   0  0  0  0  0  0  0  0  0  0  0  0
  190.6480  171.9780  141.8890 C   0  0  0  0  0  0  0  0  0  0  0  0
  189.4450  175.0390  145.5290 O   0  0  0  0  0  0  0  0  0  0  0  0
  188.4740  175.1270  142.0730 C   0  0  0  0  0  0  0  0  0  0  0  0
  189.0060  173.7570  140.1430 C   0  0  0  0  0  3  0  0  0  0  0  0
  186.7870  176.4890  139.0540 O   0  0  0  0  0  1  0  0  0  0  0  0
  185.9830  176.7580  142.9710 C   0  0  1  0  0  3  0  0  0  0  0  0
  187.5640  175.6760  139.8740 C   0  0  0  0  0  0  0  0  0  0  0  0
  186.6340  176.5360  144.2840 N   0  0  2  0  0  0  0  0  0  0  0  0
  188.6810  176.2320  145.6640 C   0  0  1  0  0  3  0  0  0  0  0  0
  188.2320  174.5760  139.3280 C   0  0  0  0  0  0  0  0  0  0  0  0
  187.6710  175.9560  141.2470 C   0  0  0  0  0  0  0  0  0  0  0  0
  191.4050  171.2160  142.7830 C   0  0  0  0  0  3  0  0  0  0  0  0
  186.1870  177.6430  145.1240 C   0  0  0  0  0  2  0  0  0  0  0  0
  184.8890  177.7950  143.1400 C   0  0  0  0  0  2  0  0  0  0  0  0
  190.6540  171.3760  140.2330 Cl  0  0  0  0  0  0  0  0  0  0  0  0
  189.3980  174.5800  144.2310 C   0  0  0  0  0  0  0  0  0  0  0  0
  191.4970  171.5600  144.1270 C   0  0  0  0  0  3  0  0  0  0  0  0
  189.9470  173.1380  142.3500 C   0  0  0  0  0  0  0  0  0  0  0  0
  188.6270  175.3800  143.4440 C   0  0  0  0  0  0  0  0  0  0  0  0
  189.5840  177.3690  146.0940 C   0  0  0  0  0  1  0  0  0  0  0  0
  188.1050  176.5260  144.2560 C   0  0  1  0  0  3  0  0  0  0  0  0
  184.8330  178.0720  144.6180 C   0  0  0  0  0  2  0  0  0  0  0  0
  187.7440  178.3770  141.9730 C   0  0  0  0  0  1  0  0  0  0  0  0
  190.8250  172.6800  144.6010 C   0  0  0  0  0  3  0  0  0  0  0  0
  190.0570  173.4610  143.7350 C   0  0  0  0  0  0  0  0  0  0  0  0
  186.8920  177.1270  141.7830 C   0  0  2  0  0  3  0  0  0  0  0  0
  188.1440  174.2720  137.8690 C   0  0  0  0  0  2  0  0  0  0  0  0
  189.3960  172.4950  136.6860 C   0  0  0  0  0  1  0  0  0  0  0  0
  189.5040  173.8570  137.3400 C   0  0  0  0  0  2  0  0  0  0  0  0
  1  4  1  0  0  0  0
  1 19  1  0  0  0  0
  2 19  2  0  0  0  0
  2 13  1  0  0  0  0
  3 10  1  0  0  0  0
  4 20  1  0  0  0  0
  5  1  2  0  0  0  0
  6  8  1  0  0  0  0
  7 15  1  1  0  0  0
  7  9  1  0  0  0  0
  8 12  1  0  0  0  0
  9 14  1  1  0  0  0
 10 21  1  6  0  0  0
 11  8  2  0  0  0  0
 11  5  1  0  0  0  0
 12 27  1  0  0  0  0
 12  4  2  0  0  0  0
 13 18  2  0  0  0  0
 15 23  1  0  0  0  0
 16  2  1  0  0  0  0
 17  3  1  0  0  0  0
 18 25  1  0  0  0  0
 19 26  1  0  0  0  0
 20 17  2  0  0  0  0
 22 20  1  6  0  0  0
 22  9  1  0  0  0  0
 22 10  1  0  0  0  0
 23 14  1  0  0  0  0
 26 17  1  0  0  0  0
 26 25  2  0  0  0  0
 27 24  1  1  0  0  0
 27  7  1  0  0  0  0
 28 11  1  0  0  0  0
 29 30  1  0  0  0  0
 30 28  1  0  0  0  0
M  END
>  <MODEL>
8

>  <REMARK>
 VINA RESULT:      -7.4      3.224      6.076
  Name = 
  2 active torsions:
  status: ('A' for Active; 'I' for Inactive)
    1  A    between atoms: C_11  and  C_28
    2  A    between atoms: C_28  and  C_30
                            x       y       z     vdW  Elec       q    Type
                         _______ _______ _______ _____ _____    ______ ____

>  <TORSDO>
F 2

$$$$
=
 OpenBabel11112416193D

 30 35  0  0  1  0  0  0  0  0999 V2000
  188.0450  175.7830  140.9520 C   0  0  0  0  0  0  0  0  0  0  0  0
  188.1190  174.5750  138.7180 C   0  0  0  0  0  0  0  0  0  0  0  0
  190.9870  173.2720  142.4790 O   0  0  0  0  0  0  0  0  0  0  0  0
  188.5300  175.8860  142.2950 C   0  0  0  0  0  0  0  0  0  0  0  0
  187.0790  176.7050  140.5330 C   0  0  0  0  0  3  0  0  0  0  0  0
  186.5430  178.7700  143.5360 O   0  0  0  0  0  1  0  0  0  0  0  0
  188.3070  175.6860  145.3900 C   0  0  1  0  0  3  0  0  0  0  0  0
  187.0470  177.7830  142.6930 C   0  0  0  0  0  0  0  0  0  0  0  0
  189.3180  174.6330  145.1360 N   0  0  2  0  0  0  0  0  0  0  0  0
  191.2170  173.7280  143.8080 C   0  0  1  0  0  3  0  0  0  0  0  0
  186.5820  177.6910  141.3790 C   0  0  0  0  0  0  0  0  0  0  0  0
  188.0140  176.8810  143.1650 C   0  0  0  0  0  0  0  0  0  0  0  0
  188.6790  173.5560  137.9420 C   0  0  0  0  0  3  0  0  0  0  0  0
  190.0890  174.5370  146.3720 C   0  0  0  0  0  2  0  0  0  0  0  0
  188.2590  175.9640  146.8810 C   0  0  0  0  0  2  0  0  0  0  0  0
  186.8950  175.5340  137.8890 Cl  0  0  0  0  0  0  0  0  0  0  0  0
  190.0030  174.0230  141.8750 C   0  0  0  0  0  0  0  0  0  0  0  0
  189.6550  172.7110  138.4550 C   0  0  0  0  0  3  0  0  0  0  0  0
  188.5480  174.7640  140.0710 C   0  0  0  0  0  0  0  0  0  0  0  0
  189.5120  174.9760  142.7150 C   0  0  0  0  0  0  0  0  0  0  0  0
  192.6460  174.2150  143.9390 C   0  0  0  0  0  1  0  0  0  0  0  0
  190.2410  174.9110  144.0230 C   0  0  1  0  0  3  0  0  0  0  0  0
  189.1780  174.9480  147.5010 C   0  0  0  0  0  2  0  0  0  0  0  0
  189.7670  177.7370  144.7740 C   0  0  0  0  0  1  0  0  0  0  0  0
  190.0890  172.8720  139.7650 C   0  0  0  0  0  3  0  0  0  0  0  0
  189.5490  173.8780  140.5690 C   0  0  0  0  0  0  0  0  0  0  0  0
  188.4420  177.0030  144.6030 C   0  0  2  0  0  3  0  0  0  0  0  0
  185.5670  178.6510  140.8540 C   0  0  0  0  0  2  0  0  0  0  0  0
  183.3490  178.2900  141.8920 C   0  0  0  0  0  1  0  0  0  0  0  0
  184.2250  177.9600  140.7010 C   0  0  0  0  0  2  0  0  0  0  0  0
  1  4  1  0  0  0  0
  2 19  1  0  0  0  0
  3 10  1  0  0  0  0
  4 20  1  0  0  0  0
  4 12  2  0  0  0  0
  5  1  2  0  0  0  0
  5 11  1  0  0  0  0
  7 15  1  1  0  0  0
  8 12  1  0  0  0  0
  8  6  1  0  0  0  0
  9  7  1  0  0  0  0
  9 14  1  1  0  0  0
 10 21  1  6  0  0  0
 10 22  1  0  0  0  0
 11  8  2  0  0  0  0
 12 27  1  0  0  0  0
 13 18  1  0  0  0  0
 13  2  2  0  0  0  0
 14 23  1  0  0  0  0
 15 23  1  0  0  0  0
 16  2  1  0  0  0  0
 17  3  1  0  0  0  0
 17 20  2  0  0  0  0
 18 25  2  0  0  0  0
 19 26  2  0  0  0  0
 19  1  1  0  0  0  0
 22 20  1  6  0  0  0
 22  9  1  0  0  0  0
 25 26  1  0  0  0  0
 26 17  1  0  0  0  0
 27 24  1  6  0  0  0
 27  7  1  0  0  0  0
 28 11  1  0  0  0  0
 30 28  1  0  0  0  0
 30 29  1  0  0  0  0
M  END
>  <MODEL>
9

>  <REMARK>
 VINA RESULT:      -7.3      2.681      5.398
  Name = 
  2 active torsions:
  status: ('A' for Active; 'I' for Inactive)
    1  A    between atoms: C_11  and  C_28
    2  A    between atoms: C_28  and  C_30
                            x       y       z     vdW  Elec       q    Type
                         _______ _______ _______ _____ _____    ______ ____

>  <TORSDO>
F 2

$$$$
