=
 OpenBabel11112416473D

 31 35  0  0  1  0  0  0  0  0999 V2000
  185.1190  178.2910  141.2310 C   0  0  0  0  0  0  0  0  0  0  0  0
  187.6240  177.6450  144.0160 C   0  0  0  0  0  0  0  0  0  0  0  0
  186.8270  178.0440  145.2450 C   0  0  0  0  0  0  0  0  0  0  0  0
  184.7390  177.7200  146.4530 C   0  0  2  0  0  3  0  0  0  0  0  0
  186.9870  177.7210  142.6780 C   0  0  0  0  0  0  0  0  0  0  0  0
  185.7930  177.7400  140.1390 C   0  0  0  0  0  3  0  0  0  0  0  0
  185.6100  177.2360  145.3640 N   0  0  0  0  0  2  0  0  0  0  0  0
  189.7390  176.9430  142.8860 C   0  0  1  0  0  3  0  0  0  0  0  0
  183.8860  178.8290  141.0670 F   0  0  0  0  0  0  0  0  0  0  0  0
  189.0100  177.5400  146.5120 C   0  0  0  0  0  3  0  0  0  0  0  0
  183.6910  178.6660  145.9010 C   0  0  0  0  0  1  0  0  0  0  0  0
  188.9360  176.6460  141.7420 O   0  0  0  0  0  0  0  0  0  0  0  0
  188.9180  177.2500  144.1200 C   0  0  0  0  0  0  0  0  0  0  0  0
  185.7110  178.2770  142.4970 C   0  0  0  0  0  3  0  0  0  0  0  0
  185.4790  178.3860  147.6380 C   0  0  0  0  0  2  0  0  0  0  0  0
  187.6650  177.1890  141.5720 C   0  0  0  0  0  0  0  0  0  0  0  0
  187.0660  177.1870  140.3080 C   0  0  0  0  0  3  0  0  0  0  0  0
  189.5910  177.2400  145.3920 N   0  0  0  0  0  0  0  0  0  0  0  0
  187.6000  177.9220  146.5270 C   0  0  0  0  0  0  0  0  0  0  0  0
  186.9400  178.0450  147.6720 C   0  0  0  0  0  2  0  0  0  0  0  0
  192.5820  177.1320  143.1060 O   0  0  0  0  0  0  0  0  0  0  0  0
  192.0610  175.9940  143.2460 C   0  0  0  0  0  0  0  0  0  0  0  0
  190.6430  175.8330  143.1490 N   0  0  0  0  0  2  0  0  0  0  0  0
  195.6870  175.6020  143.6360 C   0  0  1  0  0  3  0  0  0  0  0  0
  193.7230  174.9780  144.8370 C   0  0  0  0  0  2  0  0  0  0  0  0
  193.1900  174.3830  141.1530 C   0  0  0  0  0  1  0  0  0  0  0  0
  196.7340  176.5990  143.5130 N   0  0  0  0  0  1  0  0  0  0  0  0
  194.7640  175.9970  144.6990 N   0  0  0  0  0  2  0  0  0  0  0  0
  193.8890  174.4760  142.4280 N   0  0  0  0  0  0  0  0  0  0  0  0
  192.9520  174.8080  143.5210 C   0  0  2  0  0  3  0  0  0  0  0  0
  194.9370  175.4890  142.3100 C   0  0  0  0  0  2  0  0  0  0  0  0
  1 14  1  0  0  0  0
  2 13  2  0  0  0  0
  2  3  1  0  0  0  0
  3  7  1  0  0  0  0
  3 19  2  0  0  0  0
  4 11  1  6  0  0  0
  4 15  1  0  0  0  0
  5  2  1  0  0  0  0
  6 17  1  0  0  0  0
  6  1  2  0  0  0  0
  7  4  1  0  0  0  0
  8 23  1  1  0  0  0
  8 13  1  0  0  0  0
  9  1  1  0  0  0  0
 10 19  1  0  0  0  0
 12  8  1  0  0  0  0
 13 18  1  0  0  0  0
 14  5  2  0  0  0  0
 15 20  1  0  0  0  0
 16 12  1  0  0  0  0
 16  5  1  0  0  0  0
 17 16  2  0  0  0  0
 18 10  2  0  0  0  0
 19 20  1  0  0  0  0
 21 22  2  0  0  0  0
 23 22  1  0  0  0  0
 24 27  1  6  0  0  0
 24 28  1  0  0  0  0
 26 29  1  0  0  0  0
 28 25  1  0  0  0  0
 29 30  1  0  0  0  0
 30 22  1  6  0  0  0
 30 25  1  0  0  0  0
 31 29  1  0  0  0  0
 31 24  1  0  0  0  0
M  END
>  <MODEL>
1

>  <REMARK>
 VINA RESULT:      -8.6      0.000      0.000
  Name = 
  2 active torsions:
  status: ('A' for Active; 'I' for Inactive)
    1  A    between atoms: C_5  and  C_30
    2  A    between atoms: C_10  and  N_16
                            x       y       z     vdW  Elec       q    Type
                         _______ _______ _______ _____ _____    ______ ____

>  <TORSDO>
F 2

$$$$
=
 OpenBabel11112416473D

 31 35  0  0  1  0  0  0  0  0999 V2000
  185.0240  178.3050  141.2270 C   0  0  0  0  0  0  0  0  0  0  0  0
  187.5850  177.5660  143.9360 C   0  0  0  0  0  0  0  0  0  0  0  0
  186.8320  177.9710  145.1910 C   0  0  0  0  0  0  0  0  0  0  0  0
  184.7680  177.6850  146.4500 C   0  0  2  0  0  3  0  0  0  0  0  0
  186.9150  177.6730  142.6170 C   0  0  0  0  0  0  0  0  0  0  0  0
  185.6560  177.7500  140.1110 C   0  0  0  0  0  3  0  0  0  0  0  0
  185.5980  177.1920  145.3330 N   0  0  0  0  0  2  0  0  0  0  0  0
  189.6510  176.8240  142.7430 C   0  0  1  0  0  3  0  0  0  0  0  0
  183.8020  178.8760  141.1010 F   0  0  0  0  0  0  0  0  0  0  0  0
  189.0330  177.3980  146.3930 C   0  0  0  0  0  3  0  0  0  0  0  0
  183.7300  178.6630  145.9360 C   0  0  0  0  0  1  0  0  0  0  0  0
  188.8110  176.5600  141.6180 O   0  0  0  0  0  0  0  0  0  0  0  0
  188.8710  177.1370  144.0010 C   0  0  0  0  0  0  0  0  0  0  0  0
  185.6490  178.2630  142.4760 C   0  0  0  0  0  3  0  0  0  0  0  0
  185.5560  178.3190  147.6220 C   0  0  0  0  0  2  0  0  0  0  0  0
  187.5500  177.1370  141.4870 C   0  0  0  0  0  0  0  0  0  0  0  0
  186.9180  177.1640  140.2400 C   0  0  0  0  0  3  0  0  0  0  0  0
  189.5770  177.0970  145.2550 N   0  0  0  0  0  0  0  0  0  0  0  0
  187.6340  177.8150  146.4500 C   0  0  0  0  0  0  0  0  0  0  0  0
  187.0080  177.9410  147.6130 C   0  0  0  0  0  2  0  0  0  0  0  0
  192.5060  176.8930  142.6380 O   0  0  0  0  0  0  0  0  0  0  0  0
  191.9580  175.7890  142.9010 C   0  0  0  0  0  0  0  0  0  0  0  0
  190.5330  175.6890  142.9700 N   0  0  0  0  0  2  0  0  0  0  0  0
  191.2770  172.4130  144.1620 C   0  0  1  0  0  3  0  0  0  0  0  0
  192.3840  173.3870  142.2870 C   0  0  0  0  0  2  0  0  0  0  0  0
  193.2700  175.3030  145.4100 C   0  0  0  0  0  1  0  0  0  0  0  0
  190.0290  171.8480  144.6400 N   0  0  0  0  0  1  0  0  0  0  0  0
  191.1160  172.8400  142.7730 N   0  0  0  0  0  2  0  0  0  0  0  0
  192.9250  174.1700  144.5620 N   0  0  0  0  0  0  0  0  0  0  0  0
  192.8260  174.5790  143.1460 C   0  0  2  0  0  3  0  0  0  0  0  0
  191.6600  173.6060  145.0340 C   0  0  0  0  0  2  0  0  0  0  0  0
  1 14  1  0  0  0  0
  2 13  2  0  0  0  0
  2  3  1  0  0  0  0
  3  7  1  0  0  0  0
  3 19  2  0  0  0  0
  4 11  1  6  0  0  0
  4 15  1  0  0  0  0
  5  2  1  0  0  0  0
  6 17  1  0  0  0  0
  6  1  2  0  0  0  0
  7  4  1  0  0  0  0
  8 23  1  1  0  0  0
  8 13  1  0  0  0  0
  9  1  1  0  0  0  0
 10 19  1  0  0  0  0
 12  8  1  0  0  0  0
 13 18  1  0  0  0  0
 14  5  2  0  0  0  0
 16 12  1  0  0  0  0
 16  5  1  0  0  0  0
 17 16  2  0  0  0  0
 18 10  2  0  0  0  0
 19 20  1  0  0  0  0
 20 15  1  0  0  0  0
 21 22  2  0  0  0  0
 22 23  1  0  0  0  0
 24 27  1  1  0  0  0
 24 31  1  0  0  0  0
 25 28  1  0  0  0  0
 25 30  1  0  0  0  0
 28 24  1  0  0  0  0
 29 31  1  0  0  0  0
 29 26  1  0  0  0  0
 30 22  1  1  0  0  0
 30 29  1  0  0  0  0
M  END
>  <MODEL>
2

>  <REMARK>
 VINA RESULT:      -8.6      1.314      2.435
  Name = 
  2 active torsions:
  status: ('A' for Active; 'I' for Inactive)
    1  A    between atoms: C_5  and  C_30
    2  A    between atoms: C_10  and  N_16
                            x       y       z     vdW  Elec       q    Type
                         _______ _______ _______ _____ _____    ______ ____

>  <TORSDO>
F 2

$$$$
=
 OpenBabel11112416473D

 31 35  0  0  1  0  0  0  0  0999 V2000
  185.0290  177.9590  146.6980 C   0  0  0  0  0  0  0  0  0  0  0  0
  187.5650  177.1020  144.0000 C   0  0  0  0  0  0  0  0  0  0  0  0
  186.7150  177.1770  142.7440 C   0  0  0  0  0  0  0  0  0  0  0  0
  185.1690  178.5580  141.4680 C   0  0  2  0  0  3  0  0  0  0  0  0
  186.9500  177.4050  145.3160 C   0  0  0  0  0  0  0  0  0  0  0  0
  185.8620  178.0760  147.8130 C   0  0  0  0  0  3  0  0  0  0  0  0
  186.1320  178.5130  142.5860 N   0  0  0  0  0  2  0  0  0  0  0  0
  189.6900  176.5690  145.2010 C   0  0  1  0  0  3  0  0  0  0  0  0
  183.6970  178.1750  146.8210 F   0  0  0  0  0  0  0  0  0  0  0  0
  188.8600  176.4010  141.5520 C   0  0  0  0  0  3  0  0  0  0  0  0
  183.7610  178.3370  141.9830 C   0  0  0  0  0  1  0  0  0  0  0  0
  189.1430  177.2730  146.3180 O   0  0  0  0  0  0  0  0  0  0  0  0
  188.8700  176.7350  143.9400 C   0  0  0  0  0  0  0  0  0  0  0  0
  185.5710  177.6290  145.4530 C   0  0  0  0  0  3  0  0  0  0  0  0
  185.4660  177.5780  140.3080 C   0  0  0  0  0  2  0  0  0  0  0  0
  187.7750  177.5050  146.4450 C   0  0  0  0  0  0  0  0  0  0  0  0
  187.2360  177.8510  147.6880 C   0  0  0  0  0  3  0  0  0  0  0  0
  189.4780  176.3580  142.6910 N   0  0  0  0  0  0  0  0  0  0  0  0
  187.4680  176.8410  141.4890 C   0  0  0  0  0  0  0  0  0  0  0  0
  186.8800  177.0750  140.3230 C   0  0  0  0  0  2  0  0  0  0  0  0
  191.9480  174.8570  144.8320 O   0  0  0  0  0  0  0  0  0  0  0  0
  192.1470  176.1000  144.7950 C   0  0  0  0  0  0  0  0  0  0  0  0
  191.0580  177.0110  144.9700 N   0  0  0  0  0  2  0  0  0  0  0  0
  195.4340  174.4790  144.6490 C   0  0  1  0  0  3  0  0  0  0  0  0
  194.1690  175.9870  143.3020 C   0  0  0  0  0  2  0  0  0  0  0  0
  193.8620  176.9740  146.9270 C   0  0  0  0  0  1  0  0  0  0  0  0
  195.7790  173.0860  144.8650 N   0  0  0  0  0  1  0  0  0  0  0  0
  194.4950  174.5790  143.5330 N   0  0  0  0  0  2  0  0  0  0  0  0
  194.4620  176.4540  145.7060 N   0  0  0  0  0  0  0  0  0  0  0  0
  193.5460  176.6130  144.5570 C   0  0  2  0  0  3  0  0  0  0  0  0
  194.7990  175.0470  145.9170 C   0  0  0  0  0  2  0  0  0  0  0  0
  1  9  1  0  0  0  0
  1  6  1  0  0  0  0
  2  5  1  0  0  0  0
  3  2  2  0  0  0  0
  4 11  1  1  0  0  0
  4  7  1  0  0  0  0
  5 14  1  0  0  0  0
  5 16  2  0  0  0  0
  7  3  1  0  0  0  0
  8 23  1  6  0  0  0
  8 12  1  0  0  0  0
 10 18  1  0  0  0  0
 12 16  1  0  0  0  0
 13  2  1  0  0  0  0
 13  8  1  0  0  0  0
 14  1  2  0  0  0  0
 15 20  1  0  0  0  0
 15  4  1  0  0  0  0
 16 17  1  0  0  0  0
 17  6  2  0  0  0  0
 18 13  2  0  0  0  0
 19 10  2  0  0  0  0
 19  3  1  0  0  0  0
 20 19  1  0  0  0  0
 22 21  2  0  0  0  0
 22 23  1  0  0  0  0
 24 27  1  1  0  0  0
 24 31  1  0  0  0  0
 25 28  1  0  0  0  0
 25 30  1  0  0  0  0
 28 24  1  0  0  0  0
 29 31  1  0  0  0  0
 29 26  1  0  0  0  0
 30 22  1  1  0  0  0
 30 29  1  0  0  0  0
M  END
>  <MODEL>
3

>  <REMARK>
 VINA RESULT:      -8.5      1.976      4.350
  Name = 
  2 active torsions:
  status: ('A' for Active; 'I' for Inactive)
    1  A    between atoms: C_5  and  C_30
    2  A    between atoms: C_10  and  N_16
                            x       y       z     vdW  Elec       q    Type
                         _______ _______ _______ _____ _____    ______ ____

>  <TORSDO>
F 2

$$$$
=
 OpenBabel11112416473D

 31 35  0  0  1  0  0  0  0  0999 V2000
  184.5720  178.2430  146.1010 C   0  0  0  0  0  0  0  0  0  0  0  0
  187.3470  176.6200  144.0750 C   0  0  0  0  0  0  0  0  0  0  0  0
  186.8120  176.7490  142.6600 C   0  0  0  0  0  0  0  0  0  0  0  0
  185.9110  178.2940  141.0080 C   0  0  2  0  0  3  0  0  0  0  0  0
  186.5600  177.1700  145.2060 C   0  0  0  0  0  0  0  0  0  0  0  0
  185.1640  178.2910  147.3660 C   0  0  0  0  0  3  0  0  0  0  0  0
  186.5890  178.1560  142.3120 N   0  0  0  0  0  2  0  0  0  0  0  0
  189.0060  175.7720  145.7400 C   0  0  1  0  0  3  0  0  0  0  0  0
  183.3270  178.7440  145.9160 F   0  0  0  0  0  0  0  0  0  0  0  0
  188.9240  175.4310  142.0110 C   0  0  0  0  0  3  0  0  0  0  0  0
  184.4140  178.4230  141.2100 C   0  0  0  0  0  1  0  0  0  0  0  0
  188.4140  176.6780  146.6730 O   0  0  0  0  0  0  0  0  0  0  0  0
  188.5200  175.9830  144.3230 C   0  0  0  0  0  0  0  0  0  0  0  0
  185.2690  177.6890  145.0240 C   0  0  0  0  0  3  0  0  0  0  0  0
  186.2110  177.1660  139.9910 C   0  0  0  0  0  2  0  0  0  0  0  0
  187.1380  177.2030  146.4830 C   0  0  0  0  0  0  0  0  0  0  0  0
  186.4470  177.7720  147.5580 C   0  0  0  0  0  3  0  0  0  0  0  0
  189.2700  175.3690  143.2590 N   0  0  0  0  0  0  0  0  0  0  0  0
  187.7100  176.1440  141.6210 C   0  0  0  0  0  0  0  0  0  0  0  0
  187.4410  176.3820  140.3430 C   0  0  0  0  0  2  0  0  0  0  0  0
  190.8560  173.5940  145.7400 O   0  0  0  0  0  0  0  0  0  0  0  0
  191.3290  174.7610  145.7940 C   0  0  0  0  0  0  0  0  0  0  0  0
  190.4550  175.8930  145.7960 N   0  0  0  0  0  2  0  0  0  0  0  0
  193.8130  175.9890  143.3910 C   0  0  1  0  0  3  0  0  0  0  0  0
  193.2190  176.4150  145.6620 C   0  0  0  0  0  2  0  0  0  0  0  0
  193.1760  172.7010  145.0230 C   0  0  0  0  0  1  0  0  0  0  0  0
  193.6250  176.4160  142.0170 N   0  0  0  0  0  1  0  0  0  0  0  0
  193.0080  176.8320  144.2750 N   0  0  0  0  0  2  0  0  0  0  0  0
  193.5860  174.0940  144.9140 N   0  0  0  0  0  0  0  0  0  0  0  0
  192.8250  174.9450  145.8530 C   0  0  2  0  0  3  0  0  0  0  0  0
  193.3860  174.5300  143.5320 C   0  0  0  0  0  2  0  0  0  0  0  0
  1  6  1  0  0  0  0
  2 13  1  0  0  0  0
  2  5  1  0  0  0  0
  3  2  2  0  0  0  0
  4 11  1  1  0  0  0
  4  7  1  0  0  0  0
  5 16  2  0  0  0  0
  6 17  2  0  0  0  0
  7  3  1  0  0  0  0
  8 23  1  6  0  0  0
  8 12  1  0  0  0  0
  9  1  1  0  0  0  0
 10 18  1  0  0  0  0
 13  8  1  0  0  0  0
 14  5  1  0  0  0  0
 14  1  2  0  0  0  0
 15 20  1  0  0  0  0
 15  4  1  0  0  0  0
 16 12  1  0  0  0  0
 16 17  1  0  0  0  0
 18 13  2  0  0  0  0
 19 10  2  0  0  0  0
 19  3  1  0  0  0  0
 20 19  1  0  0  0  0
 21 22  2  0  0  0  0
 22 23  1  0  0  0  0
 24 27  1  6  0  0  0
 24 31  1  0  0  0  0
 24 28  1  0  0  0  0
 25 30  1  0  0  0  0
 28 25  1  0  0  0  0
 29 26  1  0  0  0  0
 29 30  1  0  0  0  0
 30 22  1  6  0  0  0
 31 29  1  0  0  0  0
M  END
>  <MODEL>
4

>  <REMARK>
 VINA RESULT:      -8.4      2.155      4.310
  Name = 
  2 active torsions:
  status: ('A' for Active; 'I' for Inactive)
    1  A    between atoms: C_5  and  C_30
    2  A    between atoms: C_10  and  N_16
                            x       y       z     vdW  Elec       q    Type
                         _______ _______ _______ _____ _____    ______ ____

>  <TORSDO>
F 2

$$$$
=
 OpenBabel11112416473D

 31 35  0  0  1  0  0  0  0  0999 V2000
  193.6860  174.7020  145.4900 C   0  0  0  0  0  0  0  0  0  0  0  0
  190.2370  175.1830  143.9670 C   0  0  0  0  0  0  0  0  0  0  0  0
  190.1720  174.0290  142.9820 C   0  0  0  0  0  0  0  0  0  0  0  0
  190.4360  171.6240  142.7150 C   0  0  2  0  0  3  0  0  0  0  0  0
  191.4420  175.3500  144.8160 C   0  0  0  0  0  0  0  0  0  0  0  0
  193.6500  175.6440  146.5210 C   0  0  0  0  0  3  0  0  0  0  0  0
  190.3260  172.7440  143.6700 N   0  0  0  0  0  2  0  0  0  0  0  0
  189.3280  177.2800  144.9760 C   0  0  1  0  0  3  0  0  0  0  0  0
  194.7830  173.9270  145.3170 F   0  0  0  0  0  0  0  0  0  0  0  0
  187.8970  175.0430  142.3340 C   0  0  0  0  0  3  0  0  0  0  0  0
  191.8940  171.3090  142.4470 C   0  0  0  0  0  1  0  0  0  0  0  0
  190.2980  177.1090  146.0110 O   0  0  0  0  0  0  0  0  0  0  0  0
  189.2220  176.0790  144.0620 C   0  0  0  0  0  0  0  0  0  0  0  0
  192.5840  174.5520  144.6430 C   0  0  0  0  0  3  0  0  0  0  0  0
  189.6860  171.8280  141.3770 C   0  0  0  0  0  2  0  0  0  0  0  0
  191.4240  176.3060  145.8410 C   0  0  0  0  0  0  0  0  0  0  0  0
  192.5190  176.4460  146.6990 C   0  0  0  0  0  3  0  0  0  0  0  0
  188.0740  175.9930  143.1980 N   0  0  0  0  0  0  0  0  0  0  0  0
  188.8980  173.9880  142.1890 C   0  0  0  0  0  0  0  0  0  0  0  0
  188.6500  172.9110  141.4540 C   0  0  0  0  0  2  0  0  0  0  0  0
  188.1020  175.8200  147.1040 O   0  0  0  0  0  0  0  0  0  0  0  0
  187.4720  176.8030  146.6320 C   0  0  0  0  0  0  0  0  0  0  0  0
  188.0310  177.5750  145.5670 N   0  0  0  0  0  2  0  0  0  0  0  0
  184.7250  178.9510  145.4940 C   0  0  1  0  0  3  0  0  0  0  0  0
  184.9820  176.7150  146.2820 C   0  0  0  0  0  2  0  0  0  0  0  0
  187.0700  179.0410  148.3880 C   0  0  0  0  0  1  0  0  0  0  0  0
  184.6480  179.7900  144.3120 N   0  0  0  0  0  1  0  0  0  0  0  0
  184.9290  177.5610  145.0880 N   0  0  0  0  0  2  0  0  0  0  0  0
  185.9580  178.5790  147.5670 N   0  0  0  0  0  0  0  0  0  0  0  0
  186.1220  177.1550  147.2100 C   0  0  2  0  0  3  0  0  0  0  0  0
  185.8870  179.4150  146.3700 C   0  0  0  0  0  2  0  0  0  0  0  0
  1  6  1  0  0  0  0
  2 13  1  0  0  0  0
  2  5  1  0  0  0  0
  3  7  1  0  0  0  0
  3  2  2  0  0  0  0
  4 11  1  6  0  0  0
  4  7  1  0  0  0  0
  5 16  2  0  0  0  0
  6 17  2  0  0  0  0
  8 23  1  1  0  0  0
  8 12  1  0  0  0  0
  9  1  1  0  0  0  0
 10 18  1  0  0  0  0
 13  8  1  0  0  0  0
 14  5  1  0  0  0  0
 14  1  2  0  0  0  0
 15 20  1  0  0  0  0
 15  4  1  0  0  0  0
 16 12  1  0  0  0  0
 16 17  1  0  0  0  0
 18 13  2  0  0  0  0
 19 10  2  0  0  0  0
 19  3  1  0  0  0  0
 20 19  1  0  0  0  0
 22 21  2  0  0  0  0
 23 22  1  0  0  0  0
 24 27  1  6  0  0  0
 24 31  1  0  0  0  0
 25 30  1  0  0  0  0
 28 24  1  0  0  0  0
 28 25  1  0  0  0  0
 29 26  1  0  0  0  0
 30 22  1  6  0  0  0
 30 29  1  0  0  0  0
 31 29  1  0  0  0  0
M  END
>  <MODEL>
5

>  <REMARK>
 VINA RESULT:      -7.9      3.752      8.230
  Name = 
  2 active torsions:
  status: ('A' for Active; 'I' for Inactive)
    1  A    between atoms: C_5  and  C_30
    2  A    between atoms: C_10  and  N_16
                            x       y       z     vdW  Elec       q    Type
                         _______ _______ _______ _____ _____    ______ ____

>  <TORSDO>
F 2

$$$$
=
 OpenBabel11112416473D

 31 35  0  0  1  0  0  0  0  0999 V2000
  185.0430  178.2900  141.2350 C   0  0  0  0  0  0  0  0  0  0  0  0
  187.5660  177.5370  143.9770 C   0  0  0  0  0  0  0  0  0  0  0  0
  186.8000  177.9490  145.2210 C   0  0  0  0  0  0  0  0  0  0  0  0
  184.7200  177.6810  146.4570 C   0  0  2  0  0  3  0  0  0  0  0  0
  186.9120  177.6460  142.6490 C   0  0  0  0  0  0  0  0  0  0  0  0
  185.6840  177.7280  140.1280 C   0  0  0  0  0  3  0  0  0  0  0  0
  185.5590  177.1800  145.3510 N   0  0  0  0  0  2  0  0  0  0  0  0
  189.6400  176.7780  142.8100 C   0  0  1  0  0  3  0  0  0  0  0  0
  183.8270  178.8700  141.0940 F   0  0  0  0  0  0  0  0  0  0  0  0
  188.9830  177.3620  146.4510 C   0  0  0  0  0  3  0  0  0  0  0  0
  183.6960  178.6660  145.9280 C   0  0  0  0  0  1  0  0  0  0  0  0
  188.8120  176.5170  141.6750 O   0  0  0  0  0  0  0  0  0  0  0  0
  188.8480  177.0980  144.0580 C   0  0  0  0  0  0  0  0  0  0  0  0
  185.6530  178.2450  142.4920 C   0  0  0  0  0  3  0  0  0  0  0  0
  185.4980  178.3120  147.6360 C   0  0  0  0  0  2  0  0  0  0  0  0
  187.5570  177.1030  141.5290 C   0  0  0  0  0  0  0  0  0  0  0  0
  186.9400  177.1330  140.2740 C   0  0  0  0  0  3  0  0  0  0  0  0
  189.5380  177.0550  145.3200 N   0  0  0  0  0  0  0  0  0  0  0  0
  187.5870  177.7890  146.4900 C   0  0  0  0  0  0  0  0  0  0  0  0
  186.9470  177.9230  147.6460 C   0  0  0  0  0  2  0  0  0  0  0  0
  189.7120  174.3870  141.2470 O   0  0  0  0  0  0  0  0  0  0  0  0
  190.4980  174.4650  142.2290 C   0  0  0  0  0  0  0  0  0  0  0  0
  190.5110  175.6360  143.0490 N   0  0  0  0  0  2  0  0  0  0  0  0
  191.0970  171.2370  140.5930 C   0  0  1  0  0  3  0  0  0  0  0  0
  192.4080  173.0730  141.3690 C   0  0  0  0  0  2  0  0  0  0  0  0
  189.7460  172.2610  143.9110 C   0  0  0  0  0  1  0  0  0  0  0  0
  190.4350  170.6580  139.4400 N   0  0  0  0  0  1  0  0  0  0  0  0
  191.7200  172.5040  140.2090 N   0  0  0  0  0  2  0  0  0  0  0  0
  190.7410  172.0470  142.8690 N   0  0  0  0  0  0  0  0  0  0  0  0
  191.4240  173.3100  142.5220 C   0  0  2  0  0  3  0  0  0  0  0  0
  190.0730  171.4750  141.7000 C   0  0  0  0  0  2  0  0  0  0  0  0
  1 14  1  0  0  0  0
  2 13  2  0  0  0  0
  2  3  1  0  0  0  0
  3  7  1  0  0  0  0
  3 19  2  0  0  0  0
  4 11  1  6  0  0  0
  4 15  1  0  0  0  0
  5  2  1  0  0  0  0
  6 17  1  0  0  0  0
  6  1  2  0  0  0  0
  7  4  1  0  0  0  0
  8 23  1  1  0  0  0
  8 13  1  0  0  0  0
  9  1  1  0  0  0  0
 10 19  1  0  0  0  0
 12  8  1  0  0  0  0
 13 18  1  0  0  0  0
 14  5  2  0  0  0  0
 15 20  1  0  0  0  0
 16 12  1  0  0  0  0
 16  5  1  0  0  0  0
 17 16  2  0  0  0  0
 18 10  2  0  0  0  0
 19 20  1  0  0  0  0
 21 22  2  0  0  0  0
 22 23  1  0  0  0  0
 24 27  1  6  0  0  0
 24 31  1  0  0  0  0
 25 30  1  0  0  0  0
 28 24  1  0  0  0  0
 28 25  1  0  0  0  0
 29 26  1  0  0  0  0
 30 22  1  6  0  0  0
 30 29  1  0  0  0  0
 31 29  1  0  0  0  0
M  END
>  <MODEL>
6

>  <REMARK>
 VINA RESULT:      -7.7      2.226      3.168
  Name = 
  2 active torsions:
  status: ('A' for Active; 'I' for Inactive)
    1  A    between atoms: C_5  and  C_30
    2  A    between atoms: C_10  and  N_16
                            x       y       z     vdW  Elec       q    Type
                         _______ _______ _______ _____ _____    ______ ____

>  <TORSDO>
F 2

$$$$
=
 OpenBabel11112416473D

 31 35  0  0  1  0  0  0  0  0999 V2000
  186.7880  177.0440  141.9610 C   0  0  0  0  0  0  0  0  0  0  0  0
  189.1170  174.2050  142.9430 C   0  0  0  0  0  0  0  0  0  0  0  0
  189.1420  173.3750  141.6720 C   0  0  0  0  0  0  0  0  0  0  0  0
  189.5110  173.4300  139.2670 C   0  0  2  0  0  3  0  0  0  0  0  0
  188.3240  175.4590  142.9790 C   0  0  0  0  0  0  0  0  0  0  0  0
  186.9300  177.8920  143.0620 C   0  0  0  0  0  3  0  0  0  0  0  0
  189.6380  174.1640  140.5410 N   0  0  0  0  0  2  0  0  0  0  0  0
  189.6830  174.5830  145.3470 C   0  0  1  0  0  3  0  0  0  0  0  0
  185.9820  177.3980  140.9310 F   0  0  0  0  0  0  0  0  0  0  0  0
  190.6090  171.7720  143.0510 C   0  0  0  0  0  3  0  0  0  0  0  0
  188.2180  173.8110  138.5730 C   0  0  0  0  0  1  0  0  0  0  0  0
  189.2650  175.9360  145.1510 O   0  0  0  0  0  0  0  0  0  0  0  0
  189.7850  173.8040  144.0540 C   0  0  0  0  0  0  0  0  0  0  0  0
  187.4860  175.8340  141.9170 C   0  0  0  0  0  3  0  0  0  0  0  0
  189.6120  171.8900  139.3850 C   0  0  0  0  0  2  0  0  0  0  0  0
  188.4440  176.3070  144.0890 C   0  0  0  0  0  0  0  0  0  0  0  0
  187.7590  177.5260  144.1260 C   0  0  0  0  0  3  0  0  0  0  0  0
  190.5000  172.5550  144.0790 N   0  0  0  0  0  0  0  0  0  0  0  0
  189.9810  172.1340  141.7830 C   0  0  0  0  0  0  0  0  0  0  0  0
  190.2380  171.4490  140.6760 C   0  0  0  0  0  2  0  0  0  0  0  0
  192.0830  175.8540  144.4560 O   0  0  0  0  0  0  0  0  0  0  0  0
  192.1270  175.2210  145.5440 C   0  0  0  0  0  0  0  0  0  0  0  0
  190.9600  174.5640  146.0450 N   0  0  0  0  0  2  0  0  0  0  0  0
  195.5810  176.1360  144.7130 C   0  0  1  0  0  3  0  0  0  0  0  0
  194.0350  176.5690  146.4780 C   0  0  0  0  0  2  0  0  0  0  0  0
  193.8590  172.9290  145.5120 C   0  0  0  0  0  1  0  0  0  0  0  0
  196.1210  176.6340  143.4620 N   0  0  0  0  0  1  0  0  0  0  0  0
  194.5600  177.0610  145.2030 N   0  0  0  0  0  2  0  0  0  0  0  0
  194.4350  174.2460  145.7510 N   0  0  0  0  0  0  0  0  0  0  0  0
  193.4270  175.1700  146.3100 C   0  0  2  0  0  3  0  0  0  0  0  0
  194.9680  174.7550  144.4880 C   0  0  0  0  0  2  0  0  0  0  0  0
  1  6  1  0  0  0  0
  2  5  1  0  0  0  0
  2 13  1  0  0  0  0
  3 19  1  0  0  0  0
  3  2  2  0  0  0  0
  4 11  1  1  0  0  0
  4 15  1  0  0  0  0
  4  7  1  0  0  0  0
  5 16  2  0  0  0  0
  6 17  2  0  0  0  0
  7  3  1  0  0  0  0
  8 23  1  6  0  0  0
  9  1  1  0  0  0  0
 10 18  1  0  0  0  0
 12  8  1  0  0  0  0
 13 18  2  0  0  0  0
 13  8  1  0  0  0  0
 14  1  2  0  0  0  0
 14  5  1  0  0  0  0
 15 20  1  0  0  0  0
 16 17  1  0  0  0  0
 16 12  1  0  0  0  0
 19 10  2  0  0  0  0
 20 19  1  0  0  0  0
 21 22  2  0  0  0  0
 22 23  1  0  0  0  0
 24 27  1  6  0  0  0
 24 28  1  0  0  0  0
 26 29  1  0  0  0  0
 28 25  1  0  0  0  0
 29 30  1  0  0  0  0
 30 22  1  6  0  0  0
 30 25  1  0  0  0  0
 31 24  1  0  0  0  0
 31 29  1  0  0  0  0
M  END
>  <MODEL>
7

>  <REMARK>
 VINA RESULT:      -7.6      2.745      5.178
  Name = 
  2 active torsions:
  status: ('A' for Active; 'I' for Inactive)
    1  A    between atoms: C_5  and  C_30
    2  A    between atoms: C_10  and  N_16
                            x       y       z     vdW  Elec       q    Type
                         _______ _______ _______ _____ _____    ______ ____

>  <TORSDO>
F 2

$$$$
=
 OpenBabel11112416473D

 31 35  0  0  1  0  0  0  0  0999 V2000
  186.9620  177.8310  146.7890 C   0  0  0  0  0  0  0  0  0  0  0  0
  189.7200  176.4430  144.5720 C   0  0  0  0  0  0  0  0  0  0  0  0
  190.9450  176.6350  145.4470 C   0  0  0  0  0  0  0  0  0  0  0  0
  191.9030  176.2200  147.6460 C   0  0  2  0  0  3  0  0  0  0  0  0
  188.3860  176.8400  145.0860 C   0  0  0  0  0  0  0  0  0  0  0  0
  185.8300  177.4710  146.0560 C   0  0  0  0  0  3  0  0  0  0  0  0
  190.8010  175.9100  146.7130 N   0  0  0  0  0  2  0  0  0  0  0  0
  188.6220  175.8380  142.4100 C   0  0  1  0  0  3  0  0  0  0  0  0
  186.8270  178.4800  147.9710 F   0  0  0  0  0  0  0  0  0  0  0  0
  192.2290  175.7230  143.4130 C   0  0  0  0  0  3  0  0  0  0  0  0
  191.4900  177.3340  148.5880 C   0  0  0  0  0  1  0  0  0  0  0  0
  187.3860  175.8430  143.1280 O   0  0  0  0  0  0  0  0  0  0  0  0
  189.8300  175.9410  143.3150 C   0  0  0  0  0  0  0  0  0  0  0  0
  188.2360  177.5130  146.3090 C   0  0  0  0  0  3  0  0  0  0  0  0
  193.2520  176.5710  146.9740 C   0  0  0  0  0  2  0  0  0  0  0  0
  187.2440  176.5010  144.3470 C   0  0  0  0  0  0  0  0  0  0  0  0
  185.9680  176.8040  144.8350 C   0  0  0  0  0  3  0  0  0  0  0  0
  191.1160  175.6200  142.7550 N   0  0  0  0  0  0  0  0  0  0  0  0
  192.2230  176.1940  144.7950 C   0  0  0  0  0  0  0  0  0  0  0  0
  193.3180  176.1250  145.5430 C   0  0  0  0  0  2  0  0  0  0  0  0
  187.6520  175.5710  139.7350 O   0  0  0  0  0  0  0  0  0  0  0  0
  188.2000  174.5650  140.2600 C   0  0  0  0  0  0  0  0  0  0  0  0
  188.7070  174.6350  141.5960 N   0  0  0  0  0  2  0  0  0  0  0  0
  191.0470  172.6870  138.9130 C   0  0  1  0  0  3  0  0  0  0  0  0
  189.1080  172.2200  140.2200 C   0  0  0  0  0  2  0  0  0  0  0  0
  188.1920  174.5320  137.3880 C   0  0  0  0  0  1  0  0  0  0  0  0
  192.4620  173.0070  138.9620 N   0  0  0  0  0  1  0  0  0  0  0  0
  190.5290  172.5670  140.2750 N   0  0  0  0  0  2  0  0  0  0  0  0
  188.8790  173.4660  138.1050 N   0  0  0  0  0  0  0  0  0  0  0  0
  188.3160  173.2910  139.4600 C   0  0  2  0  0  3  0  0  0  0  0  0
  190.3040  173.7930  138.1670 C   0  0  0  0  0  2  0  0  0  0  0  0
  1  9  1  0  0  0  0
  2  5  1  0  0  0  0
  2  3  1  0  0  0  0
  3  7  1  0  0  0  0
  4 11  1  6  0  0  0
  5 14  2  0  0  0  0
  6  1  2  0  0  0  0
  7  4  1  0  0  0  0
  8 23  1  1  0  0  0
  8 12  1  0  0  0  0
  8 13  1  0  0  0  0
 10 19  1  0  0  0  0
 12 16  1  0  0  0  0
 13  2  2  0  0  0  0
 14  1  1  0  0  0  0
 15  4  1  0  0  0  0
 16 17  2  0  0  0  0
 16  5  1  0  0  0  0
 17  6  1  0  0  0  0
 18 13  1  0  0  0  0
 18 10  2  0  0  0  0
 19  3  2  0  0  0  0
 19 20  1  0  0  0  0
 20 15  1  0  0  0  0
 21 22  2  0  0  0  0
 22 23  1  0  0  0  0
 24 27  1  1  0  0  0
 24 28  1  0  0  0  0
 25 28  1  0  0  0  0
 26 29  1  0  0  0  0
 29 31  1  0  0  0  0
 29 30  1  0  0  0  0
 30 25  1  0  0  0  0
 30 22  1  1  0  0  0
 31 24  1  0  0  0  0
M  END
>  <MODEL>
8

>  <REMARK>
 VINA RESULT:      -7.4      3.101      5.663
  Name = 
  2 active torsions:
  status: ('A' for Active; 'I' for Inactive)
    1  A    between atoms: C_5  and  C_30
    2  A    between atoms: C_10  and  N_16
                            x       y       z     vdW  Elec       q    Type
                         _______ _______ _______ _____ _____    ______ ____

>  <TORSDO>
F 2

$$$$
=
 OpenBabel11112416473D

 31 35  0  0  1  0  0  0  0  0999 V2000
  191.0070  176.8030  147.4680 C   0  0  0  0  0  0  0  0  0  0  0  0
  189.0870  175.8230  144.3380 C   0  0  0  0  0  0  0  0  0  0  0  0
  187.7230  176.4320  144.6090 C   0  0  0  0  0  0  0  0  0  0  0  0
  186.5420  178.4690  145.2260 C   0  0  2  0  0  3  0  0  0  0  0  0
  190.1770  176.0020  145.3290 C   0  0  0  0  0  0  0  0  0  0  0  0
  192.3000  176.4080  147.1170 C   0  0  0  0  0  3  0  0  0  0  0  0
  187.8260  177.8820  144.7940 N   0  0  0  0  0  2  0  0  0  0  0  0
  190.6460  174.4080  142.9920 C   0  0  1  0  0  3  0  0  0  0  0  0
  190.7780  177.3880  148.6690 F   0  0  0  0  0  0  0  0  0  0  0  0
  187.0630  175.3140  142.3880 C   0  0  0  0  0  3  0  0  0  0  0  0
  186.5050  178.5860  146.7370 C   0  0  0  0  0  1  0  0  0  0  0  0
  191.7050  174.9800  143.7630 O   0  0  0  0  0  0  0  0  0  0  0  0
  189.3160  175.0920  143.2170 C   0  0  0  0  0  0  0  0  0  0  0  0
  189.9500  176.6060  146.5760 C   0  0  0  0  0  3  0  0  0  0  0  0
  185.2810  177.7270  144.7230 C   0  0  0  0  0  2  0  0  0  0  0  0
  191.4740  175.5900  144.9940 C   0  0  0  0  0  0  0  0  0  0  0  0
  192.5360  175.8030  145.8800 C   0  0  0  0  0  3  0  0  0  0  0  0
  188.2610  174.8320  142.2730 N   0  0  0  0  0  0  0  0  0  0  0  0
  186.7200  176.1660  143.5240 C   0  0  0  0  0  0  0  0  0  0  0  0
  185.5670  176.8210  143.5610 C   0  0  0  0  0  2  0  0  0  0  0  0
  190.3520  172.2420  141.1520 O   0  0  0  0  0  0  0  0  0  0  0  0
  190.8260  173.3220  140.7100 C   0  0  0  0  0  0  0  0  0  0  0  0
  190.9970  174.4440  141.5800 N   0  0  0  0  0  2  0  0  0  0  0  0
  190.3120  171.1150  137.8260 C   0  0  1  0  0  3  0  0  0  0  0  0
  189.9660  173.4160  138.3480 C   0  0  0  0  0  2  0  0  0  0  0  0
  193.3110  172.3100  139.6860 C   0  0  0  0  0  1  0  0  0  0  0  0
  189.6910  169.8040  137.7740 N   0  0  0  0  0  1  0  0  0  0  0  0
  189.3430  172.0910  138.3210 N   0  0  0  0  0  2  0  0  0  0  0  0
  192.1590  172.3820  138.7980 N   0  0  0  0  0  0  0  0  0  0  0  0
  191.2050  173.4150  139.2520 C   0  0  2  0  0  3  0  0  0  0  0  0
  191.5240  171.0650  138.7540 C   0  0  0  0  0  2  0  0  0  0  0  0
  1  9  1  0  0  0  0
  2  3  1  0  0  0  0
  2  5  1  0  0  0  0
  3  7  1  0  0  0  0
  4 11  1  1  0  0  0
  5 14  1  0  0  0  0
  6  1  1  0  0  0  0
  7  4  1  0  0  0  0
  8 23  1  6  0  0  0
  8 13  1  0  0  0  0
  8 12  1  0  0  0  0
 10 19  1  0  0  0  0
 12 16  1  0  0  0  0
 13  2  2  0  0  0  0
 14  1  2  0  0  0  0
 15  4  1  0  0  0  0
 16  5  2  0  0  0  0
 16 17  1  0  0  0  0
 17  6  2  0  0  0  0
 18 10  2  0  0  0  0
 18 13  1  0  0  0  0
 19 20  1  0  0  0  0
 19  3  2  0  0  0  0
 20 15  1  0  0  0  0
 22 21  2  0  0  0  0
 22 23  1  0  0  0  0
 24 27  1  1  0  0  0
 24 28  1  0  0  0  0
 24 31  1  0  0  0  0
 25 30  1  0  0  0  0
 28 25  1  0  0  0  0
 29 30  1  0  0  0  0
 29 26  1  0  0  0  0
 30 22  1  1  0  0  0
 31 29  1  0  0  0  0
M  END
>  <MODEL>
9

>  <REMARK>
 VINA RESULT:      -7.2      3.670      5.871
  Name = 
  2 active torsions:
  status: ('A' for Active; 'I' for Inactive)
    1  A    between atoms: C_5  and  C_30
    2  A    between atoms: C_10  and  N_16
                            x       y       z     vdW  Elec       q    Type
                         _______ _______ _______ _____ _____    ______ ____

>  <TORSDO>
F 2

$$$$
