=
 OpenBabel11112417353D

 28 32  0  0  1  0  0  0  0  0999 V2000
  186.1140  178.2830  144.4650 C   0  0  0  0  0  0  0  0  0  0  0  0
  189.5760  178.2800  147.4840 O   0  0  0  0  0  0  0  0  0  0  0  0
  187.6190  173.4690  141.1940 C   0  0  0  0  0  1  0  0  0  0  0  0
  185.2580  176.7990  146.6790 C   0  0  0  0  0  3  0  0  0  0  0  0
  189.6260  174.2210  142.4840 C   0  0  2  0  0  3  0  0  0  0  0  0
  186.4580  178.9560  143.1740 C   0  0  0  0  0  2  0  0  0  0  0  0
  188.6950  175.9820  147.7030 O   0  0  0  0  0  0  0  0  0  0  0  0
  189.6900  176.8620  147.0010 S   0  0  0  0  0  0  0  0  0  0  0  0
  192.1660  176.2620  146.0050 C   0  0  1  0  0  3  0  0  0  0  0  0
  189.5710  176.7790  145.2310 C   0  0  1  0  0  3  0  0  0  0  0  0
  186.2800  177.2720  139.8380 O   0  0  0  0  0  1  0  0  0  0  0  0
  188.2730  175.8140  143.4900 C   0  0  2  0  0  3  0  0  0  0  0  0
  191.6370  175.4370  144.8960 N   0  0  0  0  0  2  0  0  0  0  0  0
  191.3270  176.2060  147.2960 C   0  0  0  0  0  2  0  0  0  0  0  0
  186.9010  177.9160  140.9090 C   0  0  2  0  0  3  0  0  0  0  0  0
  186.9720  177.3160  145.0330 C   0  0  0  0  0  0  0  0  0  0  0  0
  188.5530  174.6340  141.4540 C   0  0  2  0  0  3  0  0  0  0  0  0
  193.5890  175.8450  146.3090 C   0  0  0  0  0  1  0  0  0  0  0  0
  188.1290  177.1160  141.3500 C   0  0  0  0  0  2  0  0  0  0  0  0
  186.5110  176.5540  146.1130 C   0  0  0  0  0  3  0  0  0  0  0  0
  184.8580  178.5230  145.0340 C   0  0  0  0  0  3  0  0  0  0  0  0
  184.4360  177.7930  146.1470 C   0  0  0  0  0  3  0  0  0  0  0  0
  185.8850  178.1340  142.0270 C   0  0  0  0  0  2  0  0  0  0  0  0
  189.7040  175.4440  143.3490 C   0  0  1  0  0  3  0  0  0  0  0  0
  187.7640  175.8110  142.0650 C   0  0  2  0  0  3  0  0  0  0  0  0
  190.1690  175.4520  144.7770 C   0  0  2  0  0  3  0  0  0  0  0  0
  190.9520  173.9910  141.7870 C   0  0  0  0  0  1  0  0  0  0  0  0
  188.3020  177.0350  144.3820 C   0  0  1  0  0  3  0  0  0  0  0  0
  1 16  2  0  0  0  0
  1 21  1  0  0  0  0
  3 17  1  0  0  0  0
  5 27  1  6  0  0  0
  5 24  1  0  0  0  0
  6  1  1  0  0  0  0
  8 14  1  0  0  0  0
  8  2  2  0  0  0  0
  8  7  2  0  0  0  0
  9 18  1  1  0  0  0
  9 14  1  0  0  0  0
 10  8  1  1  0  0  0
 11 15  1  0  0  0  0
 12 28  1  0  0  0  0
 13  9  1  0  0  0  0
 15 19  1  0  0  0  0
 15 23  1  0  0  0  0
 16 20  1  0  0  0  0
 17 25  1  0  0  0  0
 17  5  1  0  0  0  0
 19 25  1  0  0  0  0
 20  4  2  0  0  0  0
 21 22  2  0  0  0  0
 22  4  1  0  0  0  0
 23  6  1  0  0  0  0
 24 12  1  0  0  0  0
 24 26  1  0  0  0  0
 25 12  1  0  0  0  0
 26 13  1  0  0  0  0
 26 10  1  0  0  0  0
 28 16  1  0  0  0  0
 28 10  1  0  0  0  0
M  END
>  <MODEL>
1

>  <REMARK>
 VINA RESULT:      -9.0      0.000      0.000
  Name = 
  0 active torsions:
  status: ('A' for Active; 'I' for Inactive)
                            x       y       z     vdW  Elec       q    Type
                         _______ _______ _______ _____ _____    ______ ____

>  <TORSDO>
F 0

$$$$
=
 OpenBabel11112417353D

 28 32  0  0  1  0  0  0  0  0999 V2000
  191.3790  174.5320  142.0130 C   0  0  0  0  0  0  0  0  0  0  0  0
  187.4400  176.5870  140.8470 O   0  0  0  0  0  0  0  0  0  0  0  0
  191.1910  175.2920  147.9730 C   0  0  0  0  0  1  0  0  0  0  0  0
  189.4090  172.5440  141.9710 C   0  0  0  0  0  3  0  0  0  0  0  0
  189.5880  176.8910  146.9100 C   0  0  2  0  0  3  0  0  0  0  0  0
  192.5170  175.4900  142.1780 C   0  0  0  0  0  2  0  0  0  0  0  0
  186.6910  174.9550  142.5440 O   0  0  0  0  0  0  0  0  0  0  0  0
  187.1600  176.3620  142.3050 S   0  0  0  0  0  0  0  0  0  0  0  0
  186.5500  178.6660  143.6490 C   0  0  1  0  0  3  0  0  0  0  0  0
  188.5600  176.8110  143.3010 C   0  0  1  0  0  3  0  0  0  0  0  0
  194.4840  175.8560  145.3390 O   0  0  0  0  0  1  0  0  0  0  0  0
  190.1010  175.9120  144.8710 C   0  0  2  0  0  3  0  0  0  0  0  0
  187.3060  178.2840  144.8620 N   0  0  0  0  0  2  0  0  0  0  0  0
  185.9020  177.4830  142.9040 C   0  0  0  0  0  2  0  0  0  0  0  0
  193.6390  176.2700  144.3080 C   0  0  2  0  0  3  0  0  0  0  0  0
  190.1310  174.7710  142.6290 C   0  0  0  0  0  0  0  0  0  0  0  0
  191.0580  176.4260  146.9760 C   0  0  2  0  0  3  0  0  0  0  0  0
  185.4850  179.6770  144.0160 C   0  0  0  0  0  1  0  0  0  0  0  0
  192.3920  176.9330  144.8990 C   0  0  0  0  0  2  0  0  0  0  0  0
  189.1730  173.7500  142.6350 C   0  0  0  0  0  3  0  0  0  0  0  0
  191.6110  173.3200  141.3510 C   0  0  0  0  0  3  0  0  0  0  0  0
  190.6240  172.3350  141.3180 C   0  0  0  0  0  3  0  0  0  0  0  0
  193.3230  175.0820  143.4040 C   0  0  0  0  0  2  0  0  0  0  0  0
  189.4000  177.0930  145.4360 C   0  0  1  0  0  3  0  0  0  0  0  0
  191.4440  175.9320  145.5660 C   0  0  2  0  0  3  0  0  0  0  0  0
  188.0760  177.0360  144.7290 C   0  0  2  0  0  3  0  0  0  0  0  0
  189.4290  178.2100  147.6390 C   0  0  0  0  0  1  0  0  0  0  0  0
  189.9120  176.0610  143.3780 C   0  0  1  0  0  3  0  0  0  0  0  0
  1  6  1  0  0  0  0
  1 16  1  0  0  0  0
  2  8  2  0  0  0  0
  4 20  1  0  0  0  0
  5 17  1  0  0  0  0
  5 27  1  1  0  0  0
  6 23  1  0  0  0  0
  8  7  2  0  0  0  0
  8 14  1  0  0  0  0
  9 18  1  1  0  0  0
  9 13  1  0  0  0  0
 10  8  1  6  0  0  0
 10 28  1  0  0  0  0
 10 26  1  0  0  0  0
 12 24  1  0  0  0  0
 12 25  1  0  0  0  0
 14  9  1  0  0  0  0
 15 19  1  0  0  0  0
 15 11  1  0  0  0  0
 16 20  2  0  0  0  0
 16 28  1  0  0  0  0
 17  3  1  0  0  0  0
 19 25  1  0  0  0  0
 21  1  2  0  0  0  0
 22 21  1  0  0  0  0
 22  4  2  0  0  0  0
 23 15  1  0  0  0  0
 24  5  1  0  0  0  0
 25 17  1  0  0  0  0
 26 13  1  0  0  0  0
 26 24  1  0  0  0  0
 28 12  1  0  0  0  0
M  END
>  <MODEL>
2

>  <REMARK>
 VINA RESULT:      -8.1      2.568      6.529
  Name = 
  0 active torsions:
  status: ('A' for Active; 'I' for Inactive)
                            x       y       z     vdW  Elec       q    Type
                         _______ _______ _______ _____ _____    ______ ____

>  <TORSDO>
F 0

$$$$
=
 OpenBabel11112417353D

 28 32  0  0  1  0  0  0  0  0999 V2000
  188.1770  176.6110  144.7390 C   0  0  0  0  0  0  0  0  0  0  0  0
  187.6220  172.9340  142.0440 O   0  0  0  0  0  0  0  0  0  0  0  0
  194.1610  176.5460  145.3200 C   0  0  0  0  0  1  0  0  0  0  0  0
  188.2120  177.5310  142.0950 C   0  0  0  0  0  3  0  0  0  0  0  0
  193.4080  174.2990  144.5200 C   0  0  2  0  0  3  0  0  0  0  0  0
  188.2830  176.2680  146.1910 C   0  0  0  0  0  2  0  0  0  0  0  0
  189.2670  174.2660  140.7710 O   0  0  0  0  0  0  0  0  0  0  0  0
  189.0820  173.1830  141.7960 S   0  0  0  0  0  0  0  0  0  0  0  0
  190.6530  171.0160  142.3620 C   0  0  1  0  0  3  0  0  0  0  0  0
  189.9420  173.5040  143.3150 C   0  0  1  0  0  3  0  0  0  0  0  0
  191.2190  177.1610  148.3310 O   0  0  0  0  0  1  0  0  0  0  0  0
  191.2570  175.1580  144.4040 C   0  0  2  0  0  3  0  0  0  0  0  0
  191.7410  171.8270  142.9530 N   0  0  0  0  0  2  0  0  0  0  0  0
  189.9010  171.7070  141.2080 C   0  0  0  0  0  2  0  0  0  0  0  0
  190.3250  176.3040  147.6870 C   0  0  2  0  0  3  0  0  0  0  0  0
  188.9470  175.9300  143.7710 C   0  0  0  0  0  0  0  0  0  0  0  0
  193.2720  175.3590  145.6330 C   0  0  2  0  0  3  0  0  0  0  0  0
  191.2130  169.6950  141.8820 C   0  0  0  0  0  1  0  0  0  0  0  0
  191.1000  175.2410  146.9060 C   0  0  0  0  0  2  0  0  0  0  0  0
  188.9860  176.4280  142.4640 C   0  0  0  0  0  3  0  0  0  0  0  0
  187.4060  177.7180  144.3650 C   0  0  0  0  0  3  0  0  0  0  0  0
  187.4110  178.1680  143.0440 C   0  0  0  0  0  3  0  0  0  0  0  0
  189.3760  177.1250  146.8170 C   0  0  0  0  0  2  0  0  0  0  0  0
  191.9840  173.8650  144.3380 C   0  0  1  0  0  3  0  0  0  0  0  0
  191.7950  175.8030  145.6620 C   0  0  2  0  0  3  0  0  0  0  0  0
  191.4290  173.2600  143.0800 C   0  0  2  0  0  3  0  0  0  0  0  0
  194.2470  173.1360  145.0110 C   0  0  0  0  0  1  0  0  0  0  0  0
  189.8100  174.7700  144.1980 C   0  0  1  0  0  3  0  0  0  0  0  0
  1  6  1  0  0  0  0
  3 17  1  0  0  0  0
  4 20  2  0  0  0  0
  4 22  1  0  0  0  0
  5 27  1  1  0  0  0
  5 17  1  0  0  0  0
  6 23  1  0  0  0  0
  7  8  2  0  0  0  0
  8  2  2  0  0  0  0
  9 18  1  6  0  0  0
  9 13  1  0  0  0  0
 10  8  1  6  0  0  0
 10 28  1  0  0  0  0
 12 25  1  0  0  0  0
 13 26  1  0  0  0  0
 14  8  1  0  0  0  0
 14  9  1  0  0  0  0
 15 11  1  0  0  0  0
 16 28  1  0  0  0  0
 16  1  2  0  0  0  0
 17 25  1  0  0  0  0
 19 15  1  0  0  0  0
 20 16  1  0  0  0  0
 21  1  1  0  0  0  0
 22 21  2  0  0  0  0
 23 15  1  0  0  0  0
 24 12  1  0  0  0  0
 24  5  1  0  0  0  0
 25 19  1  0  0  0  0
 26 10  1  0  0  0  0
 26 24  1  0  0  0  0
 28 12  1  0  0  0  0
M  END
>  <MODEL>
3

>  <REMARK>
 VINA RESULT:      -8.0      2.572      5.708
  Name = 
  0 active torsions:
  status: ('A' for Active; 'I' for Inactive)
                            x       y       z     vdW  Elec       q    Type
                         _______ _______ _______ _____ _____    ______ ____

>  <TORSDO>
F 0

$$$$
=
 OpenBabel11112417353D

 28 32  0  0  1  0  0  0  0  0999 V2000
  190.3170  177.1920  145.5830 C   0  0  0  0  0  0  0  0  0  0  0  0
  194.8810  177.5930  145.2600 O   0  0  0  0  0  0  0  0  0  0  0  0
  189.5890  171.8060  143.0150 C   0  0  0  0  0  1  0  0  0  0  0  0
  191.3900  176.1730  147.9590 C   0  0  0  0  0  3  0  0  0  0  0  0
  191.8420  172.6950  142.3890 C   0  0  2  0  0  3  0  0  0  0  0  0
  189.5990  177.6050  144.3370 C   0  0  0  0  0  2  0  0  0  0  0  0
  194.6300  175.4130  146.3940 O   0  0  0  0  0  0  0  0  0  0  0  0
  194.7650  176.1080  145.0690 S   0  0  0  0  0  0  0  0  0  0  0  0
  195.8980  175.2340  142.7370 C   0  0  1  0  0  3  0  0  0  0  0  0
  193.4600  175.7100  143.9340 C   0  0  1  0  0  3  0  0  0  0  0  0
  187.3200  175.3520  142.4070 O   0  0  0  0  0  1  0  0  0  0  0  0
  191.4200  174.4990  143.7830 C   0  0  2  0  0  3  0  0  0  0  0  0
  194.8300  174.2450  142.4660 N   0  0  0  0  0  2  0  0  0  0  0  0
  196.2020  175.4490  144.2320 C   0  0  0  0  0  2  0  0  0  0  0  0
  188.4430  176.1540  142.6150 C   0  0  2  0  0  3  0  0  0  0  0  0
  191.4170  176.3100  145.5310 C   0  0  0  0  0  0  0  0  0  0  0  0
  190.3210  172.9590  142.3580 C   0  0  2  0  0  3  0  0  0  0  0  0
  197.1640  174.8200  142.0180 C   0  0  0  0  0  1  0  0  0  0  0  0
  189.7030  175.3960  142.1890 C   0  0  0  0  0  2  0  0  0  0  0  0
  191.9150  175.7770  146.7260 C   0  0  0  0  0  3  0  0  0  0  0  0
  189.7930  177.5840  146.8210 C   0  0  0  0  0  3  0  0  0  0  0  0
  190.3380  177.0870  148.0060 C   0  0  0  0  0  3  0  0  0  0  0  0
  188.4740  176.6130  144.0700 C   0  0  0  0  0  2  0  0  0  0  0  0
  192.3780  174.0510  142.7420 C   0  0  1  0  0  3  0  0  0  0  0  0
  190.0680  174.2590  143.1490 C   0  0  2  0  0  3  0  0  0  0  0  0
  193.7010  174.2990  143.4090 C   0  0  2  0  0  3  0  0  0  0  0  0
  192.3250  172.2880  141.0110 C   0  0  0  0  0  1  0  0  0  0  0  0
  191.9400  175.8600  144.1910 C   0  0  1  0  0  3  0  0  0  0  0  0
  1 21  1  0  0  0  0
  4 22  1  0  0  0  0
  5 27  1  6  0  0  0
  5 24  1  0  0  0  0
  6  1  1  0  0  0  0
  8  2  2  0  0  0  0
  8  7  2  0  0  0  0
  9 18  1  6  0  0  0
  9 14  1  0  0  0  0
 10 28  1  0  0  0  0
 10  8  1  1  0  0  0
 11 15  1  0  0  0  0
 12 28  1  0  0  0  0
 13  9  1  0  0  0  0
 13 26  1  0  0  0  0
 14  8  1  0  0  0  0
 15 23  1  0  0  0  0
 16  1  2  0  0  0  0
 16 20  1  0  0  0  0
 17  5  1  0  0  0  0
 17  3  1  0  0  0  0
 17 25  1  0  0  0  0
 19 15  1  0  0  0  0
 19 25  1  0  0  0  0
 20  4  2  0  0  0  0
 21 22  2  0  0  0  0
 23  6  1  0  0  0  0
 24 26  1  0  0  0  0
 24 12  1  0  0  0  0
 25 12  1  0  0  0  0
 26 10  1  0  0  0  0
 28 16  1  0  0  0  0
M  END
>  <MODEL>
4

>  <REMARK>
 VINA RESULT:      -7.5      3.031      4.424
  Name = 
  0 active torsions:
  status: ('A' for Active; 'I' for Inactive)
                            x       y       z     vdW  Elec       q    Type
                         _______ _______ _______ _____ _____    ______ ____

>  <TORSDO>
F 0

$$$$
=
 OpenBabel11112417353D

 28 32  0  0  1  0  0  0  0  0999 V2000
  186.3070  176.8910  143.4190 C   0  0  0  0  0  0  0  0  0  0  0  0
  188.5780  173.3860  141.5080 O   0  0  0  0  0  0  0  0  0  0  0  0
  190.2240  178.4110  147.7190 C   0  0  0  0  0  1  0  0  0  0  0  0
  187.8330  177.9570  141.3280 C   0  0  0  0  0  3  0  0  0  0  0  0
  190.7630  176.1020  146.9230 C   0  0  2  0  0  3  0  0  0  0  0  0
  185.5180  176.4950  144.6270 C   0  0  0  0  0  2  0  0  0  0  0  0
  190.2580  175.1950  141.4340 O   0  0  0  0  0  0  0  0  0  0  0  0
  189.7230  174.0380  142.2280 S   0  0  0  0  0  0  0  0  0  0  0  0
  191.0120  172.3450  143.9490 C   0  0  1  0  0  3  0  0  0  0  0  0
  189.2660  174.4790  143.8860 C   0  0  1  0  0  3  0  0  0  0  0  0
  186.0000  178.0060  148.0140 O   0  0  0  0  0  1  0  0  0  0  0  0
  189.0870  176.3510  145.3390 C   0  0  2  0  0  3  0  0  0  0  0  0
  191.2040  173.3800  144.9900 N   0  0  0  0  0  2  0  0  0  0  0  0
  191.0570  172.8800  142.5040 C   0  0  0  0  0  2  0  0  0  0  0  0
  185.9910  176.9840  147.0650 C   0  0  2  0  0  3  0  0  0  0  0  0
  187.6580  176.5090  143.2740 C   0  0  0  0  0  0  0  0  0  0  0  0
  189.6760  177.0090  147.5370 C   0  0  2  0  0  3  0  0  0  0  0  0
  192.0520  171.2590  144.1190 C   0  0  0  0  0  1  0  0  0  0  0  0
  187.3190  176.2240  147.1140 C   0  0  0  0  0  2  0  0  0  0  0  0
  188.4180  177.0840  142.2480 C   0  0  0  0  0  3  0  0  0  0  0  0
  185.7260  177.7700  142.4960 C   0  0  0  0  0  3  0  0  0  0  0  0
  186.4830  178.2900  141.4450 C   0  0  0  0  0  3  0  0  0  0  0  0
  185.6790  177.5720  145.6910 C   0  0  0  0  0  2  0  0  0  0  0  0
  189.9690  175.3110  145.9250 C   0  0  1  0  0  3  0  0  0  0  0  0
  188.4910  177.0340  146.5500 C   0  0  2  0  0  3  0  0  0  0  0  0
  190.5440  174.6630  144.6980 C   0  0  2  0  0  3  0  0  0  0  0  0
  191.3290  175.1800  147.9840 C   0  0  0  0  0  1  0  0  0  0  0  0
  188.2830  175.6000  144.3020 C   0  0  1  0  0  3  0  0  0  0  0  0
  1  6  1  0  0  0  0
  2  8  2  0  0  0  0
  4 22  2  0  0  0  0
  4 20  1  0  0  0  0
  5 17  1  0  0  0  0
  5 27  1  1  0  0  0
  6 23  1  0  0  0  0
  7  8  2  0  0  0  0
  8 14  1  0  0  0  0
  9 18  1  6  0  0  0
  9 13  1  0  0  0  0
 10  8  1  6  0  0  0
 10 28  1  0  0  0  0
 10 26  1  0  0  0  0
 12 24  1  0  0  0  0
 12 25  1  0  0  0  0
 14  9  1  0  0  0  0
 15 19  1  0  0  0  0
 15 11  1  0  0  0  0
 16  1  1  0  0  0  0
 16 28  1  0  0  0  0
 17  3  1  0  0  0  0
 20 16  2  0  0  0  0
 21  1  2  0  0  0  0
 22 21  1  0  0  0  0
 23 15  1  0  0  0  0
 24  5  1  0  0  0  0
 25 19  1  0  0  0  0
 25 17  1  0  0  0  0
 26 13  1  0  0  0  0
 26 24  1  0  0  0  0
 28 12  1  0  0  0  0
M  END
>  <MODEL>
5

>  <REMARK>
 VINA RESULT:      -7.5      2.306      5.030
  Name = 
  0 active torsions:
  status: ('A' for Active; 'I' for Inactive)
                            x       y       z     vdW  Elec       q    Type
                         _______ _______ _______ _____ _____    ______ ____

>  <TORSDO>
F 0

$$$$
=
 OpenBabel11112417353D

 28 32  0  0  1  0  0  0  0  0999 V2000
  190.5330  176.7910  145.8220 C   0  0  0  0  0  0  0  0  0  0  0  0
  194.8370  176.7910  144.2180 O   0  0  0  0  0  0  0  0  0  0  0  0
  188.0980  172.6660  142.1900 C   0  0  0  0  0  1  0  0  0  0  0  0
  191.9680  174.9360  147.3500 C   0  0  0  0  0  3  0  0  0  0  0  0
  190.2370  173.4690  141.1720 C   0  0  2  0  0  3  0  0  0  0  0  0
  189.6100  177.6660  145.0340 C   0  0  0  0  0  2  0  0  0  0  0  0
  194.4640  174.3980  144.7040 O   0  0  0  0  0  0  0  0  0  0  0  0
  194.3820  175.4730  143.6580 S   0  0  0  0  0  0  0  0  0  0  0  0
  194.6630  175.3050  140.9420 C   0  0  1  0  0  3  0  0  0  0  0  0
  192.7710  175.6140  142.9240 C   0  0  1  0  0  3  0  0  0  0  0  0
  186.5020  176.4330  143.3560 O   0  0  0  0  0  1  0  0  0  0  0  0
  190.5650  174.7440  143.0810 C   0  0  2  0  0  3  0  0  0  0  0  0
  193.3870  174.5800  140.7490 N   0  0  0  0  0  2  0  0  0  0  0  0
  195.3860  174.9800  142.2640 C   0  0  0  0  0  2  0  0  0  0  0  0
  187.7770  176.9970  143.4220 C   0  0  2  0  0  3  0  0  0  0  0  0
  191.3830  175.8650  145.1800 C   0  0  0  0  0  0  0  0  0  0  0  0
  188.8460  173.8870  141.6940 C   0  0  2  0  0  3  0  0  0  0  0  0
  195.5870  175.0210  139.7770 C   0  0  0  0  0  1  0  0  0  0  0  0
  188.7040  176.2940  142.4270 C   0  0  0  0  0  2  0  0  0  0  0  0
  192.0600  174.9170  145.9570 C   0  0  0  0  0  3  0  0  0  0  0  0
  190.4420  176.8040  147.2190 C   0  0  0  0  0  3  0  0  0  0  0  0
  191.1690  175.8890  147.9820 C   0  0  0  0  0  3  0  0  0  0  0  0
  188.2810  176.9430  144.8620 C   0  0  0  0  0  2  0  0  0  0  0  0
  191.1060  174.5660  141.7100 C   0  0  1  0  0  3  0  0  0  0  0  0
  189.0740  174.8720  142.8590 C   0  0  2  0  0  3  0  0  0  0  0  0
  192.5800  174.4390  141.9710 C   0  0  2  0  0  3  0  0  0  0  0  0
  190.2500  173.4910  139.6560 C   0  0  0  0  0  1  0  0  0  0  0  0
  191.4340  175.8300  143.6740 C   0  0  1  0  0  3  0  0  0  0  0  0
  1 21  1  0  0  0  0
  4 22  1  0  0  0  0
  5 27  1  6  0  0  0
  5 17  1  0  0  0  0
  5 24  1  0  0  0  0
  6  1  1  0  0  0  0
  8  2  2  0  0  0  0
  8  7  2  0  0  0  0
  9 18  1  6  0  0  0
  9 14  1  0  0  0  0
 10  8  1  1  0  0  0
 10 28  1  0  0  0  0
 11 15  1  0  0  0  0
 12 28  1  0  0  0  0
 13  9  1  0  0  0  0
 13 26  1  0  0  0  0
 14  8  1  0  0  0  0
 15 23  1  0  0  0  0
 16  1  2  0  0  0  0
 16 20  1  0  0  0  0
 17  3  1  0  0  0  0
 17 25  1  0  0  0  0
 19 25  1  0  0  0  0
 19 15  1  0  0  0  0
 20  4  2  0  0  0  0
 21 22  2  0  0  0  0
 23  6  1  0  0  0  0
 24 26  1  0  0  0  0
 24 12  1  0  0  0  0
 25 12  1  0  0  0  0
 26 10  1  0  0  0  0
 28 16  1  0  0  0  0
M  END
>  <MODEL>
6

>  <REMARK>
 VINA RESULT:      -7.5      3.013      4.653
  Name = 
  0 active torsions:
  status: ('A' for Active; 'I' for Inactive)
                            x       y       z     vdW  Elec       q    Type
                         _______ _______ _______ _____ _____    ______ ____

>  <TORSDO>
F 0

$$$$
=
 OpenBabel11112417353D

 28 32  0  0  1  0  0  0  0  0999 V2000
  188.5350  176.7380  145.5200 C   0  0  0  0  0  0  0  0  0  0  0  0
  193.0530  176.5540  146.3240 O   0  0  0  0  0  0  0  0  0  0  0  0
  188.1900  173.0040  140.8210 C   0  0  0  0  0  1  0  0  0  0  0  0
  188.9410  174.7050  147.4010 C   0  0  0  0  0  3  0  0  0  0  0  0
  190.5690  173.7260  141.0990 C   0  0  2  0  0  3  0  0  0  0  0  0
  188.1650  177.7160  144.4500 C   0  0  0  0  0  2  0  0  0  0  0  0
  192.4240  174.1660  146.3490 O   0  0  0  0  0  0  0  0  0  0  0  0
  192.9140  175.3050  145.5020 S   0  0  0  0  0  0  0  0  0  0  0  0
  194.5380  175.2820  143.3000 C   0  0  1  0  0  3  0  0  0  0  0  0
  191.9080  175.5930  144.0680 C   0  0  1  0  0  3  0  0  0  0  0  0
  186.3190  176.7900  141.3310 O   0  0  0  0  0  1  0  0  0  0  0  0
  189.9090  174.8610  143.0110 C   0  0  2  0  0  3  0  0  0  0  0  0
  193.5210  174.6540  142.4260 N   0  0  0  0  0  2  0  0  0  0  0  0
  194.4760  174.8320  144.7730 C   0  0  0  0  0  2  0  0  0  0  0  0
  187.3950  177.2650  142.0810 C   0  0  2  0  0  3  0  0  0  0  0  0
  189.5690  175.7980  145.3210 C   0  0  0  0  0  0  0  0  0  0  0  0
  189.1180  174.2020  140.8770 C   0  0  2  0  0  3  0  0  0  0  0  0
  195.9190  175.0090  142.7450 C   0  0  0  0  0  1  0  0  0  0  0  0
  188.6820  176.5640  141.6380 C   0  0  0  0  0  2  0  0  0  0  0  0
  189.7310  174.7630  146.2500 C   0  0  0  0  0  3  0  0  0  0  0  0
  187.7440  176.6730  146.6730 C   0  0  0  0  0  3  0  0  0  0  0  0
  187.9560  175.6690  147.6190 C   0  0  0  0  0  3  0  0  0  0  0  0
  187.0920  177.0930  143.5670 C   0  0  0  0  0  2  0  0  0  0  0  0
  191.0690  174.7310  142.0940 C   0  0  1  0  0  3  0  0  0  0  0  0
  188.7430  175.0980  142.0760 C   0  0  2  0  0  3  0  0  0  0  0  0
  192.1990  174.4920  143.0540 C   0  0  2  0  0  3  0  0  0  0  0  0
  191.3540  173.8380  139.8070 C   0  0  0  0  0  1  0  0  0  0  0  0
  190.3810  175.8510  144.0520 C   0  0  1  0  0  3  0  0  0  0  0  0
  1 21  1  0  0  0  0
  3 17  1  0  0  0  0
  4 22  1  0  0  0  0
  5 27  1  6  0  0  0
  5 24  1  0  0  0  0
  6  1  1  0  0  0  0
  8  2  2  0  0  0  0
  8  7  2  0  0  0  0
  9 18  1  6  0  0  0
  9 14  1  0  0  0  0
 10  8  1  1  0  0  0
 11 15  1  0  0  0  0
 12 28  1  0  0  0  0
 13 26  1  0  0  0  0
 13  9  1  0  0  0  0
 14  8  1  0  0  0  0
 15 23  1  0  0  0  0
 16  1  2  0  0  0  0
 16 20  1  0  0  0  0
 17  5  1  0  0  0  0
 17 25  1  0  0  0  0
 19 25  1  0  0  0  0
 19 15  1  0  0  0  0
 20  4  2  0  0  0  0
 21 22  2  0  0  0  0
 23  6  1  0  0  0  0
 24 12  1  0  0  0  0
 24 26  1  0  0  0  0
 25 12  1  0  0  0  0
 26 10  1  0  0  0  0
 28 10  1  0  0  0  0
 28 16  1  0  0  0  0
M  END
>  <MODEL>
7

>  <REMARK>
 VINA RESULT:      -7.4      2.207      3.000
  Name = 
  0 active torsions:
  status: ('A' for Active; 'I' for Inactive)
                            x       y       z     vdW  Elec       q    Type
                         _______ _______ _______ _____ _____    ______ ____

>  <TORSDO>
F 0

$$$$
=
 OpenBabel11112417353D

 28 32  0  0  1  0  0  0  0  0999 V2000
  195.3280  173.3030  144.7610 C   0  0  0  0  0  0  0  0  0  0  0  0
  193.1710  171.4150  141.1730 O   0  0  0  0  0  0  0  0  0  0  0  0
  190.5850  175.3760  147.8180 C   0  0  0  0  0  1  0  0  0  0  0  0
  194.8680  170.6200  145.4120 C   0  0  0  0  0  3  0  0  0  0  0  0
  189.8820  174.9160  145.4620 C   0  0  2  0  0  3  0  0  0  0  0  0
  195.5550  174.7740  144.6060 C   0  0  0  0  0  2  0  0  0  0  0  0
  192.0340  170.3420  143.0860 O   0  0  0  0  0  0  0  0  0  0  0  0
  192.0110  171.4950  142.1240 S   0  0  0  0  0  0  0  0  0  0  0  0
  189.8880  172.8930  141.1120 C   0  0  1  0  0  3  0  0  0  0  0  0
  191.9540  173.0770  142.9290 C   0  0  1  0  0  3  0  0  0  0  0  0
  194.2690  177.3410  147.0040 O   0  0  0  0  0  1  0  0  0  0  0  0
  192.0110  174.0790  145.0830 C   0  0  2  0  0  3  0  0  0  0  0  0
  189.5720  173.5510  142.4000 N   0  0  0  0  0  2  0  0  0  0  0  0
  190.4520  171.4660  141.2480 C   0  0  0  0  0  2  0  0  0  0  0  0
  194.3890  176.6930  145.7740 C   0  0  2  0  0  3  0  0  0  0  0  0
  194.0600  172.7320  144.5180 C   0  0  0  0  0  0  0  0  0  0  0  0
  190.8570  175.7040  146.3630 C   0  0  2  0  0  3  0  0  0  0  0  0
  188.6500  172.8670  140.2410 C   0  0  0  0  0  1  0  0  0  0  0  0
  192.9970  176.3820  145.2190 C   0  0  0  0  0  2  0  0  0  0  0  0
  193.8360  171.4010  144.8890 C   0  0  0  0  0  3  0  0  0  0  0  0
  196.3590  172.5170  145.2890 C   0  0  0  0  0  3  0  0  0  0  0  0
  196.1350  171.1750  145.6000 C   0  0  0  0  0  3  0  0  0  0  0  0
  195.2680  175.4560  145.9370 C   0  0  0  0  0  2  0  0  0  0  0  0
  190.7850  174.4790  144.3480 C   0  0  1  0  0  3  0  0  0  0  0  0
  192.2860  175.2630  145.9850 C   0  0  2  0  0  3  0  0  0  0  0  0
  190.5440  173.2830  143.4720 C   0  0  2  0  0  3  0  0  0  0  0  0
  188.8080  175.8420  144.9270 C   0  0  0  0  0  1  0  0  0  0  0  0
  192.9470  173.6030  143.9940 C   0  0  1  0  0  3  0  0  0  0  0  0
  1 21  1  0  0  0  0
  2  8  2  0  0  0  0
  4 22  1  0  0  0  0
  5 27  1  6  0  0  0
  5 17  1  0  0  0  0
  6  1  1  0  0  0  0
  6 23  1  0  0  0  0
  8  7  2  0  0  0  0
  9 18  1  6  0  0  0
  9 14  1  0  0  0  0
  9 13  1  0  0  0  0
 10  8  1  1  0  0  0
 10 26  1  0  0  0  0
 10 28  1  0  0  0  0
 12 25  1  0  0  0  0
 13 26  1  0  0  0  0
 14  8  1  0  0  0  0
 15 23  1  0  0  0  0
 15 11  1  0  0  0  0
 16  1  2  0  0  0  0
 16 20  1  0  0  0  0
 17  3  1  0  0  0  0
 19 15  1  0  0  0  0
 19 25  1  0  0  0  0
 20  4  2  0  0  0  0
 21 22  2  0  0  0  0
 24 12  1  0  0  0  0
 24  5  1  0  0  0  0
 25 17  1  0  0  0  0
 26 24  1  0  0  0  0
 28 16  1  0  0  0  0
 28 12  1  0  0  0  0
M  END
>  <MODEL>
8

>  <REMARK>
 VINA RESULT:      -7.2      3.883      8.100
  Name = 
  0 active torsions:
  status: ('A' for Active; 'I' for Inactive)
                            x       y       z     vdW  Elec       q    Type
                         _______ _______ _______ _____ _____    ______ ____

>  <TORSDO>
F 0

$$$$
=
 OpenBabel11112417353D

 28 32  0  0  1  0  0  0  0  0999 V2000
  193.3420  174.5490  145.5930 C   0  0  0  0  0  0  0  0  0  0  0  0
  189.7580  177.2450  146.5870 O   0  0  0  0  0  0  0  0  0  0  0  0
  191.9940  173.1270  139.9090 C   0  0  0  0  0  1  0  0  0  0  0  0
  194.1120  177.1740  144.9980 C   0  0  0  0  0  3  0  0  0  0  0  0
  189.9330  173.9950  141.0300 C   0  0  2  0  0  3  0  0  0  0  0  0
  193.0490  173.0920  145.7630 C   0  0  0  0  0  2  0  0  0  0  0  0
  190.6390  178.2910  144.5290 O   0  0  0  0  0  0  0  0  0  0  0  0
  189.6700  177.2870  145.0880 S   0  0  0  0  0  0  0  0  0  0  0  0
  187.2400  176.4750  144.1310 C   0  0  1  0  0  3  0  0  0  0  0  0
  189.8630  175.6660  144.3900 C   0  0  1  0  0  3  0  0  0  0  0  0
  193.3720  170.5710  143.0180 O   0  0  0  0  0  1  0  0  0  0  0  0
  191.2360  174.4250  142.8990 C   0  0  2  0  0  3  0  0  0  0  0  0
  187.8180  175.7470  142.9790 N   0  0  0  0  0  2  0  0  0  0  0  0
  188.0250  177.7330  144.5480 C   0  0  0  0  0  2  0  0  0  0  0  0
  192.7050  171.3230  143.9860 C   0  0  2  0  0  3  0  0  0  0  0  0
  192.4650  175.3890  144.8720 C   0  0  0  0  0  0  0  0  0  0  0  0
  191.0450  172.9260  141.0740 C   0  0  2  0  0  3  0  0  0  0  0  0
  185.8070  176.8530  143.8200 C   0  0  0  0  0  1  0  0  0  0  0  0
  191.4630  171.9720  143.3690 C   0  0  0  0  0  2  0  0  0  0  0  0
  192.8840  176.6850  144.5470 C   0  0  0  0  0  3  0  0  0  0  0  0
  194.5730  175.0440  146.0400 C   0  0  0  0  0  3  0  0  0  0  0  0
  194.9510  176.3570  145.7570 C   0  0  0  0  0  3  0  0  0  0  0  0
  193.6730  172.3300  144.6010 C   0  0  0  0  0  2  0  0  0  0  0  0
  189.8140  174.3700  142.4770 C   0  0  1  0  0  3  0  0  0  0  0  0
  191.8030  173.1120  142.4050 C   0  0  2  0  0  3  0  0  0  0  0  0
  189.2890  175.6850  142.9780 C   0  0  2  0  0  3  0  0  0  0  0  0
  188.6370  173.3740  140.5460 C   0  0  0  0  0  1  0  0  0  0  0  0
  191.1650  174.8290  144.3550 C   0  0  1  0  0  3  0  0  0  0  0  0
  1  6  1  0  0  0  0
  1 21  1  0  0  0  0
  3 17  1  0  0  0  0
  4 22  1  0  0  0  0
  5 27  1  1  0  0  0
  5 17  1  0  0  0  0
  5 24  1  0  0  0  0
  7  8  2  0  0  0  0
  8  2  2  0  0  0  0
  9 18  1  6  0  0  0
  9 14  1  0  0  0  0
 10  8  1  6  0  0  0
 11 15  1  0  0  0  0
 12 28  1  0  0  0  0
 13  9  1  0  0  0  0
 14  8  1  0  0  0  0
 15 23  1  0  0  0  0
 16  1  2  0  0  0  0
 17 25  1  0  0  0  0
 19 15  1  0  0  0  0
 20 16  1  0  0  0  0
 20  4  2  0  0  0  0
 22 21  2  0  0  0  0
 23  6  1  0  0  0  0
 24 12  1  0  0  0  0
 24 26  1  0  0  0  0
 25 12  1  0  0  0  0
 25 19  1  0  0  0  0
 26 13  1  0  0  0  0
 26 10  1  0  0  0  0
 28 10  1  0  0  0  0
 28 16  1  0  0  0  0
M  END
>  <MODEL>
9

>  <REMARK>
 VINA RESULT:      -7.0      2.590      6.326
  Name = 
  0 active torsions:
  status: ('A' for Active; 'I' for Inactive)
                            x       y       z     vdW  Elec       q    Type
                         _______ _______ _______ _____ _____    ______ ____

>  <TORSDO>
F 0

$$$$
