=
 OpenBabel11112416303D

 32 38  0  0  1  0  0  0  0  0999 V2000
  190.4550  171.4650  140.6480 C   0  0  2  0  0  3  0  0  0  0  0  0
  189.2170  175.2240  143.8080 C   0  0  1  0  0  3  0  0  0  0  0  0
  191.4490  175.6140  148.3380 C   0  0  0  0  0  2  0  0  0  0  0  0
  191.3220  177.1220  148.1570 C   0  0  0  0  0  2  0  0  0  0  0  0
  187.0840  176.5940  143.4760 C   0  0  0  0  0  0  0  0  0  0  0  0
  186.8140  178.0850  143.4880 C   0  0  1  0  0  3  0  0  0  0  0  0
  189.8890  173.2740  142.3820 C   0  0  1  0  0  3  0  0  0  0  0  0
  191.2230  173.9520  144.2620 O   0  0  0  0  0  0  0  0  0  0  0  0
  185.3360  179.0330  145.1590 C   0  0  1  0  0  3  0  0  0  0  0  0
  191.8620  171.8820  143.2080 C   0  0  0  0  0  2  0  0  0  0  0  0
  191.4560  174.8990  146.9830 C   0  0  0  0  0  2  0  0  0  0  0  0
  190.1230  174.5800  144.8810 C   0  0  1  0  0  3  0  0  0  0  0  0
  190.6210  175.6060  145.9010 C   0  0  1  0  0  3  0  0  0  0  0  0
  188.6020  177.0400  145.4280 C   0  0  2  0  0  3  0  0  0  0  0  0
  184.8020  179.2660  143.7650 C   0  0  0  0  0  2  0  0  0  0  0  0
  189.3780  172.4020  140.1100 C   0  0  0  0  0  2  0  0  0  0  0  0
  190.7190  172.8220  143.5940 C   0  0  2  0  0  3  0  0  0  0  0  0
  185.5340  178.3920  142.8510 N   0  0  0  0  0  2  0  0  0  0  0  0
  189.3940  172.0750  141.5850 C   0  0  1  0  0  3  0  0  0  0  0  0
  192.6110  172.3710  141.9730 C   0  0  0  0  0  2  0  0  0  0  0  0
  189.9940  177.4850  147.4830 C   0  0  0  0  0  2  0  0  0  0  0  0
  189.4590  176.4020  146.5240 C   0  0  2  0  0  3  0  0  0  0  0  0
  187.4400  177.8390  146.0050 C   0  0  0  0  0  2  0  0  0  0  0  0
  188.7160  174.1060  142.8850 C   0  0  0  0  0  2  0  0  0  0  0  0
  186.5060  175.8830  142.6670 O   0  0  0  0  0  0  0  0  0  0  0  0
  184.4110  177.6810  145.8870 Cl  0  0  0  0  0  0  0  0  0  0  0  0
  188.0480  175.9720  144.4720 C   0  0  2  0  0  3  0  0  0  0  0  0
  186.7830  178.6790  144.9000 C   0  0  1  0  0  3  0  0  0  0  0  0
  191.8740  172.1090  140.6460 C   0  0  2  0  0  3  0  0  0  0  0  0
  192.1370  173.1620  139.6130 C   0  0  0  0  0  0  0  0  0  0  0  0
  192.3440  174.3560  139.9590 O   0  0  0  0  0  0  0  0  0  0  0  0
  192.1330  172.8150  138.2340 N   0  0  0  0  0  1  0  0  0  0  0  0
  1 16  1  6  0  0  0
  1 19  1  0  0  0  0
  2 24  1  6  0  0  0
  2 27  1  0  0  0  0
  2 12  1  0  0  0  0
  4  3  1  0  0  0  0
  5  6  1  0  0  0  0
  6 18  1  1  0  0  0
  6 28  1  0  0  0  0
  7 24  1  1  0  0  0
  7 17  1  0  0  0  0
  9 26  1  6  0  0  0
 11  3  1  0  0  0  0
 12  8  1  6  0  0  0
 12 13  1  0  0  0  0
 13 22  1  0  0  0  0
 13 11  1  1  0  0  0
 14 23  1  1  0  0  0
 14 22  1  0  0  0  0
 15  9  1  0  0  0  0
 17 10  1  6  0  0  0
 17  8  1  0  0  0  0
 18 15  1  0  0  0  0
 19 16  1  6  0  0  0
 19  7  1  0  0  0  0
 20 10  1  0  0  0  0
 21  4  1  0  0  0  0
 22 21  1  1  0  0  0
 25  5  2  0  0  0  0
 27  5  1  6  0  0  0
 27 14  1  0  0  0  0
 28  9  1  0  0  0  0
 28 23  1  1  0  0  0
 29 30  1  1  0  0  0
 29  1  1  0  0  0  0
 29 20  1  0  0  0  0
 30 31  2  0  0  0  0
 32 30  1  0  0  0  0
M  END
>  <MODEL>
1

>  <REMARK>
 VINA RESULT:      -8.1      0.000      0.000
  Name = 
  1 active torsions:
  status: ('A' for Active; 'I' for Inactive)
    1  A    between atoms: C_29  and  C_30
                            x       y       z     vdW  Elec       q    Type
                         _______ _______ _______ _____ _____    ______ ____

>  <TORSDO>
F 1

$$$$
=
 OpenBabel11112416303D

 32 38  0  0  1  0  0  0  0  0999 V2000
  190.5420  171.1470  138.9890 C   0  0  2  0  0  3  0  0  0  0  0  0
  189.9160  174.6070  142.6330 C   0  0  1  0  0  3  0  0  0  0  0  0
  193.0770  174.7750  146.5880 C   0  0  0  0  0  2  0  0  0  0  0  0
  192.8680  176.2840  146.5600 C   0  0  0  0  0  2  0  0  0  0  0  0
  187.7230  175.8960  142.8830 C   0  0  0  0  0  0  0  0  0  0  0  0
  187.4180  177.3680  143.0730 C   0  0  1  0  0  3  0  0  0  0  0  0
  190.3170  172.7980  140.9450 C   0  0  1  0  0  3  0  0  0  0  0  0
  192.0110  173.4010  142.5390 O   0  0  0  0  0  0  0  0  0  0  0  0
  186.3150  178.1240  145.0950 C   0  0  1  0  0  3  0  0  0  0  0  0
  192.4640  171.4440  141.2090 C   0  0  0  0  0  2  0  0  0  0  0  0
  192.8070  174.1600  145.2110 C   0  0  0  0  0  2  0  0  0  0  0  0
  191.0550  173.9310  143.4290 C   0  0  1  0  0  3  0  0  0  0  0  0
  191.7340  174.9030  144.3970 C   0  0  1  0  0  3  0  0  0  0  0  0
  189.6190  176.2720  144.4890 C   0  0  2  0  0  3  0  0  0  0  0  0
  185.4820  178.4310  143.8740 C   0  0  0  0  0  2  0  0  0  0  0  0
  189.3450  172.0680  138.7750 C   0  0  0  0  0  2  0  0  0  0  0  0
  191.4060  172.3000  141.9080 C   0  0  2  0  0  3  0  0  0  0  0  0
  186.0200  177.6600  142.7550 N   0  0  0  0  0  2  0  0  0  0  0  0
  189.6940  171.6370  140.1800 C   0  0  1  0  0  3  0  0  0  0  0  0
  192.9080  172.0550  139.8830 C   0  0  0  0  0  2  0  0  0  0  0  0
  191.4140  176.6320  146.2220 C   0  0  0  0  0  2  0  0  0  0  0  0
  190.7140  175.5970  145.3180 C   0  0  2  0  0  3  0  0  0  0  0  0
  188.5880  176.9720  145.3660 C   0  0  0  0  0  2  0  0  0  0  0  0
  189.2590  173.5360  141.7550 C   0  0  0  0  0  2  0  0  0  0  0  0
  187.0030  175.2190  142.1640 O   0  0  0  0  0  0  0  0  0  0  0  0
  185.6140  176.6820  145.8950 Cl  0  0  0  0  0  0  0  0  0  0  0  0
  188.9010  175.2500  143.5930 C   0  0  2  0  0  3  0  0  0  0  0  0
  187.6800  177.8570  144.5010 C   0  0  1  0  0  3  0  0  0  0  0  0
  191.9050  171.8550  138.7320 C   0  0  2  0  0  3  0  0  0  0  0  0
  191.9030  172.9900  137.7540 C   0  0  0  0  0  0  0  0  0  0  0  0
  191.9780  174.1800  138.1600 O   0  0  0  0  0  0  0  0  0  0  0  0
  191.7960  172.7230  136.3620 N   0  0  0  0  0  1  0  0  0  0  0  0
  1 16  1  6  0  0  0
  1 19  1  0  0  0  0
  2 24  1  1  0  0  0
  2 12  1  0  0  0  0
  2 27  1  0  0  0  0
  4  3  1  0  0  0  0
  5  6  1  0  0  0  0
  6 18  1  1  0  0  0
  6 28  1  0  0  0  0
  7 24  1  1  0  0  0
  7 17  1  0  0  0  0
  9 26  1  6  0  0  0
 11  3  1  0  0  0  0
 12  8  1  6  0  0  0
 12 13  1  0  0  0  0
 13 11  1  1  0  0  0
 13 22  1  0  0  0  0
 14 22  1  0  0  0  0
 14 23  1  1  0  0  0
 15  9  1  0  0  0  0
 17 10  1  6  0  0  0
 17  8  1  0  0  0  0
 18 15  1  0  0  0  0
 19 16  1  6  0  0  0
 19  7  1  0  0  0  0
 20 10  1  0  0  0  0
 21  4  1  0  0  0  0
 22 21  1  6  0  0  0
 25  5  2  0  0  0  0
 27  5  1  6  0  0  0
 27 14  1  0  0  0  0
 28  9  1  0  0  0  0
 28 23  1  1  0  0  0
 29 30  1  1  0  0  0
 29  1  1  0  0  0  0
 29 20  1  0  0  0  0
 30 31  2  0  0  0  0
 32 30  1  0  0  0  0
M  END
>  <MODEL>
2

>  <REMARK>
 VINA RESULT:      -7.6      1.385      1.728
  Name = 
  1 active torsions:
  status: ('A' for Active; 'I' for Inactive)
    1  A    between atoms: C_29  and  C_30
                            x       y       z     vdW  Elec       q    Type
                         _______ _______ _______ _____ _____    ______ ____

>  <TORSDO>
F 1

$$$$
=
 OpenBabel11112416303D

 32 38  0  0  1  0  0  0  0  0999 V2000
  193.4900  172.5940  139.9930 C   0  0  2  0  0  3  0  0  0  0  0  0
  190.7410  175.4980  143.0990 C   0  0  1  0  0  3  0  0  0  0  0  0
  191.5650  175.4170  148.0960 C   0  0  0  0  0  2  0  0  0  0  0  0
  191.1960  176.8950  148.0770 C   0  0  0  0  0  2  0  0  0  0  0  0
  188.5470  176.5620  142.3310 C   0  0  0  0  0  0  0  0  0  0  0  0
  187.9940  177.9680  142.4520 C   0  0  1  0  0  3  0  0  0  0  0  0
  192.1390  173.9580  141.6990 C   0  0  1  0  0  3  0  0  0  0  0  0
  192.7640  174.4890  143.9580 O   0  0  0  0  0  0  0  0  0  0  0  0
  185.9680  178.3670  143.7220 C   0  0  1  0  0  3  0  0  0  0  0  0
  194.0550  172.7610  142.8850 C   0  0  0  0  0  2  0  0  0  0  0  0
  192.0730  174.9630  146.7230 C   0  0  0  0  0  2  0  0  0  0  0  0
  191.4370  174.8210  144.3000 C   0  0  1  0  0  3  0  0  0  0  0  0
  191.4330  175.7140  145.5430 C   0  0  1  0  0  3  0  0  0  0  0  0
  189.3720  176.8830  144.6840 C   0  0  2  0  0  3  0  0  0  0  0  0
  185.7900  178.7590  142.2740 C   0  0  0  0  0  2  0  0  0  0  0  0
  192.4330  173.4350  139.2860 C   0  0  0  0  0  2  0  0  0  0  0  0
  192.6880  173.4310  143.0340 C   0  0  2  0  0  3  0  0  0  0  0  0
  186.8950  178.1840  141.5120 N   0  0  0  0  0  2  0  0  0  0  0  0
  192.1200  172.8580  140.6460 C   0  0  1  0  0  3  0  0  0  0  0  0
  194.9940  173.5700  141.9950 C   0  0  0  0  0  2  0  0  0  0  0  0
  190.0500  177.1640  147.0950 C   0  0  0  0  0  2  0  0  0  0  0  0
  190.0140  176.1990  145.8930 C   0  0  2  0  0  3  0  0  0  0  0  0
  187.9640  177.3790  144.9900 C   0  0  0  0  0  2  0  0  0  0  0  0
  190.7340  174.4990  141.9360 C   0  0  0  0  0  2  0  0  0  0  0  0
  188.3570  175.9260  141.3050 O   0  0  0  0  0  0  0  0  0  0  0  0
  185.1690  176.7820  143.9690 Cl  0  0  0  0  0  0  0  0  0  0  0  0
  189.3140  175.9290  143.4800 C   0  0  2  0  0  3  0  0  0  0  0  0
  187.4730  178.2910  143.8570 C   0  0  1  0  0  3  0  0  0  0  0  0
  194.7030  173.4380  140.4890 C   0  0  2  0  0  3  0  0  0  0  0  0
  195.0180  174.6840  139.7210 C   0  0  0  0  0  0  0  0  0  0  0  0
  194.7160  175.8140  140.1890 O   0  0  0  0  0  0  0  0  0  0  0  0
  195.6440  174.5900  138.4480 N   0  0  0  0  0  1  0  0  0  0  0  0
  1 16  1  6  0  0  0
  1 29  1  0  0  0  0
  1 19  1  0  0  0  0
  2 24  1  6  0  0  0
  2 27  1  0  0  0  0
  2 12  1  0  0  0  0
  4  3  1  0  0  0  0
  5  6  1  0  0  0  0
  6 18  1  6  0  0  0
  6 28  1  0  0  0  0
  7 24  1  1  0  0  0
  7 17  1  0  0  0  0
  9 28  1  0  0  0  0
  9 26  1  6  0  0  0
 11  3  1  0  0  0  0
 12  8  1  6  0  0  0
 12 13  1  0  0  0  0
 13 22  1  0  0  0  0
 13 11  1  1  0  0  0
 14 23  1  1  0  0  0
 14 22  1  0  0  0  0
 15  9  1  0  0  0  0
 17 10  1  6  0  0  0
 17  8  1  0  0  0  0
 18 15  1  0  0  0  0
 19 16  1  6  0  0  0
 19  7  1  0  0  0  0
 20 10  1  0  0  0  0
 21  4  1  0  0  0  0
 22 21  1  1  0  0  0
 25  5  2  0  0  0  0
 27  5  1  6  0  0  0
 27 14  1  0  0  0  0
 28 23  1  1  0  0  0
 29 30  1  1  0  0  0
 29 20  1  0  0  0  0
 30 31  2  0  0  0  0
 32 30  1  0  0  0  0
M  END
>  <MODEL>
3

>  <REMARK>
 VINA RESULT:      -7.6      1.762      2.141
  Name = 
  1 active torsions:
  status: ('A' for Active; 'I' for Inactive)
    1  A    between atoms: C_29  and  C_30
                            x       y       z     vdW  Elec       q    Type
                         _______ _______ _______ _____ _____    ______ ____

>  <TORSDO>
F 1

$$$$
=
 OpenBabel11112416303D

 32 38  0  0  1  0  0  0  0  0999 V2000
  196.0790  175.7300  144.2100 C   0  0  2  0  0  3  0  0  0  0  0  0
  191.0510  175.4410  143.6890 C   0  0  1  0  0  3  0  0  0  0  0  0
  189.0110  173.4240  139.5130 C   0  0  0  0  0  2  0  0  0  0  0  0
  187.9010  172.9150  140.4250 C   0  0  0  0  0  2  0  0  0  0  0  0
  189.4780  176.8090  145.1680 C   0  0  0  0  0  0  0  0  0  0  0  0
  188.2300  176.4440  145.9460 C   0  0  1  0  0  3  0  0  0  0  0  0
  193.5530  175.5720  143.7720 C   0  0  1  0  0  3  0  0  0  0  0  0
  192.4400  174.1520  142.1850 O   0  0  0  0  0  0  0  0  0  0  0  0
  186.1070  177.4680  145.3770 C   0  0  1  0  0  3  0  0  0  0  0  0
  194.8220  174.3770  141.9080 C   0  0  0  0  0  2  0  0  0  0  0  0
  190.3040  173.6590  140.3020 C   0  0  0  0  0  2  0  0  0  0  0  0
  191.2600  174.9210  142.2480 C   0  0  1  0  0  3  0  0  0  0  0  0
  190.0730  174.0870  141.7620 C   0  0  1  0  0  3  0  0  0  0  0  0
  188.5640  175.3190  143.3620 C   0  0  2  0  0  3  0  0  0  0  0  0
  186.5110  177.8040  146.7930 C   0  0  0  0  0  2  0  0  0  0  0  0
  195.2970  176.3060  145.3860 C   0  0  0  0  0  2  0  0  0  0  0  0
  193.5130  175.0490  142.3280 C   0  0  2  0  0  3  0  0  0  0  0  0
  187.9220  177.4590  146.9530 N   0  0  0  0  0  2  0  0  0  0  0  0
  194.7540  176.4840  143.9880 C   0  0  1  0  0  3  0  0  0  0  0  0
  195.3590  173.4460  142.9910 C   0  0  0  0  0  2  0  0  0  0  0  0
  187.5550  173.9500  141.5010 C   0  0  0  0  0  2  0  0  0  0  0  0
  188.7410  174.8430  141.9180 C   0  0  2  0  0  3  0  0  0  0  0  0
  187.2550  176.0740  143.5590 C   0  0  0  0  0  2  0  0  0  0  0  0
  192.2540  176.3190  144.0500 C   0  0  0  0  0  2  0  0  0  0  0  0
  190.2800  177.5950  145.6500 O   0  0  0  0  0  0  0  0  0  0  0  0
  186.4570  178.8930  144.3490 Cl  0  0  0  0  0  0  0  0  0  0  0  0
  189.7310  176.2250  143.7890 C   0  0  2  0  0  3  0  0  0  0  0  0
  186.9920  176.2840  145.0560 C   0  0  1  0  0  3  0  0  0  0  0  0
  196.0430  174.1730  144.1630 C   0  0  2  0  0  3  0  0  0  0  0  0
  195.8750  173.4610  145.4700 C   0  0  0  0  0  0  0  0  0  0  0  0
  194.7820  172.9020  145.7560 O   0  0  0  0  0  0  0  0  0  0  0  0
  196.9480  173.4330  146.4030 N   0  0  0  0  0  1  0  0  0  0  0  0
  1 16  1  1  0  0  0
  2 27  1  0  0  0  0
  2 24  1  6  0  0  0
  3 11  1  0  0  0  0
  3  4  1  0  0  0  0
  4 21  1  0  0  0  0
  5 25  2  0  0  0  0
  6  5  1  6  0  0  0
  6 18  1  0  0  0  0
  7 19  1  0  0  0  0
  7 24  1  6  0  0  0
  8 17  1  0  0  0  0
  9 26  1  6  0  0  0
  9 15  1  0  0  0  0
 10 20  1  0  0  0  0
 12  8  1  1  0  0  0
 12  2  1  0  0  0  0
 13 11  1  6  0  0  0
 13 22  1  0  0  0  0
 13 12  1  0  0  0  0
 14 23  1  6  0  0  0
 14 27  1  0  0  0  0
 15 18  1  0  0  0  0
 17 10  1  1  0  0  0
 17  7  1  0  0  0  0
 19  1  1  0  0  0  0
 19 16  1  1  0  0  0
 20 29  1  0  0  0  0
 22 21  1  1  0  0  0
 22 14  1  0  0  0  0
 27  5  1  1  0  0  0
 28 23  1  6  0  0  0
 28  9  1  0  0  0  0
 28  6  1  0  0  0  0
 29  1  1  0  0  0  0
 29 30  1  1  0  0  0
 30 31  2  0  0  0  0
 30 32  1  0  0  0  0
M  END
>  <MODEL>
4

>  <REMARK>
 VINA RESULT:      -7.5      3.293      5.448
  Name = 
  1 active torsions:
  status: ('A' for Active; 'I' for Inactive)
    1  A    between atoms: C_29  and  C_30
                            x       y       z     vdW  Elec       q    Type
                         _______ _______ _______ _____ _____    ______ ____

>  <TORSDO>
F 1

$$$$
=
 OpenBabel11112416303D

 32 38  0  0  1  0  0  0  0  0999 V2000
  186.3160  179.1070  144.9250 C   0  0  2  0  0  3  0  0  0  0  0  0
  189.2100  175.2600  143.3560 C   0  0  1  0  0  3  0  0  0  0  0  0
  193.5630  174.1890  145.7150 C   0  0  0  0  0  2  0  0  0  0  0  0
  193.2630  172.7310  145.3880 C   0  0  0  0  0  2  0  0  0  0  0  0
  188.8800  174.1990  141.0540 C   0  0  0  0  0  0  0  0  0  0  0  0
  188.7810  172.7570  140.5970 C   0  0  1  0  0  3  0  0  0  0  0  0
  187.9200  177.2330  144.2090 C   0  0  1  0  0  3  0  0  0  0  0  0
  189.6610  176.2280  145.5260 O   0  0  0  0  0  0  0  0  0  0  0  0
  190.4450  171.8510  139.0840 C   0  0  1  0  0  3  0  0  0  0  0  0
  188.7520  178.2910  146.3780 C   0  0  0  0  0  2  0  0  0  0  0  0
  192.2750  175.0180  145.7540 C   0  0  0  0  0  2  0  0  0  0  0  0
  190.2830  175.6870  144.3830 C   0  0  1  0  0  3  0  0  0  0  0  0
  191.1850  174.5190  144.7890 C   0  0  1  0  0  3  0  0  0  0  0  0
  190.7030  173.3940  142.5860 C   0  0  2  0  0  3  0  0  0  0  0  0
  189.0670  171.8130  138.4650 C   0  0  0  0  0  2  0  0  0  0  0  0
  185.7610  178.3630  143.7150 C   0  0  0  0  0  2  0  0  0  0  0  0
  189.1190  177.4670  145.1410 C   0  0  2  0  0  3  0  0  0  0  0  0
  188.1910  172.6690  139.2620 N   0  0  0  0  0  2  0  0  0  0  0  0
  187.2550  178.5510  143.8360 C   0  0  1  0  0  3  0  0  0  0  0  0
  187.4410  177.8270  147.0030 C   0  0  0  0  0  2  0  0  0  0  0  0
  192.6340  172.5970  143.9970 C   0  0  0  0  0  2  0  0  0  0  0  0
  191.8010  173.8200  143.5640 C   0  0  2  0  0  3  0  0  0  0  0  0
  191.2730  172.6950  141.3570 C   0  0  0  0  0  2  0  0  0  0  0  0
  188.4140  176.5090  142.9620 C   0  0  0  0  0  2  0  0  0  0  0  0
  188.1670  175.0460  140.5370 O   0  0  0  0  0  0  0  0  0  0  0  0
  191.3330  173.2350  138.3710 Cl  0  0  0  0  0  0  0  0  0  0  0  0
  189.8720  174.6040  142.1320 C   0  0  2  0  0  3  0  0  0  0  0  0
  190.1380  172.0460  140.5520 C   0  0  1  0  0  3  0  0  0  0  0  0
  186.1830  178.2970  146.2490 C   0  0  2  0  0  3  0  0  0  0  0  0
  185.0530  177.3180  146.3310 C   0  0  0  0  0  0  0  0  0  0  0  0
  185.2710  176.0820  146.2170 O   0  0  0  0  0  0  0  0  0  0  0  0
  183.7230  177.7870  146.5180 N   0  0  0  0  0  1  0  0  0  0  0  0
  1 16  1  6  0  0  0
  1 29  1  0  0  0  0
  2 24  1  6  0  0  0
  2 12  1  0  0  0  0
  3 11  1  0  0  0  0
  4  3  1  0  0  0  0
  6 18  1  6  0  0  0
  6  5  1  0  0  0  0
  7 24  1  6  0  0  0
  7 17  1  0  0  0  0
  9 26  1  6  0  0  0
  9 28  1  0  0  0  0
 10 20  1  0  0  0  0
 12 13  1  0  0  0  0
 12  8  1  1  0  0  0
 13 11  1  1  0  0  0
 14 23  1  6  0  0  0
 14 22  1  0  0  0  0
 15  9  1  0  0  0  0
 15 18  1  0  0  0  0
 17  8  1  0  0  0  0
 17 10  1  1  0  0  0
 19 16  1  6  0  0  0
 19  7  1  0  0  0  0
 19  1  1  0  0  0  0
 21  4  1  0  0  0  0
 22 21  1  1  0  0  0
 22 13  1  0  0  0  0
 25  5  2  0  0  0  0
 27  5  1  6  0  0  0
 27 14  1  0  0  0  0
 27  2  1  0  0  0  0
 28  6  1  0  0  0  0
 28 23  1  6  0  0  0
 29 30  1  6  0  0  0
 29 20  1  0  0  0  0
 30 32  1  0  0  0  0
 31 30  2  0  0  0  0
M  END
>  <MODEL>
5

>  <REMARK>
 VINA RESULT:      -7.4      2.790      7.137
  Name = 
  1 active torsions:
  status: ('A' for Active; 'I' for Inactive)
    1  A    between atoms: C_29  and  C_30
                            x       y       z     vdW  Elec       q    Type
                         _______ _______ _______ _____ _____    ______ ____

>  <TORSDO>
F 1

$$$$
=
 OpenBabel11112416303D

 32 38  0  0  1  0  0  0  0  0999 V2000
  196.3050  175.5730  144.0490 C   0  0  2  0  0  3  0  0  0  0  0  0
  191.4240  175.1480  142.7710 C   0  0  1  0  0  3  0  0  0  0  0  0
  190.0780  172.7340  138.5260 C   0  0  0  0  0  2  0  0  0  0  0  0
  188.8400  172.2880  139.2940 C   0  0  0  0  0  2  0  0  0  0  0  0
  189.6310  176.6130  143.8560 C   0  0  0  0  0  0  0  0  0  0  0  0
  188.2770  176.2960  144.4570 C   0  0  1  0  0  3  0  0  0  0  0  0
  193.8810  175.3310  143.2350 C   0  0  1  0  0  3  0  0  0  0  0  0
  193.0380  173.7570  141.6280 O   0  0  0  0  0  0  0  0  0  0  0  0
  186.2680  177.2270  143.4710 C   0  0  1  0  0  3  0  0  0  0  0  0
  195.4330  173.9990  141.7090 C   0  0  0  0  0  2  0  0  0  0  0  0
  191.2290  173.0600  139.4850 C   0  0  0  0  0  2  0  0  0  0  0  0
  191.8600  174.5070  141.4350 C   0  0  1  0  0  3  0  0  0  0  0  0
  190.7680  173.6120  140.8450 C   0  0  1  0  0  3  0  0  0  0  0  0
  189.0210  174.9540  142.0700 C   0  0  2  0  0  3  0  0  0  0  0  0
  186.4410  177.6940  144.8970 C   0  0  0  0  0  2  0  0  0  0  0  0
  195.3440  176.2360  145.0310 C   0  0  0  0  0  2  0  0  0  0  0  0
  194.0720  174.6820  141.8560 C   0  0  2  0  0  3  0  0  0  0  0  0
  187.8100  177.3910  145.3070 N   0  0  0  0  0  2  0  0  0  0  0  0
  195.0290  176.2800  143.5540 C   0  0  1  0  0  3  0  0  0  0  0  0
  195.7950  173.1780  142.9420 C   0  0  0  0  0  2  0  0  0  0  0  0
  188.3240  173.4070  140.2050 C   0  0  0  0  0  2  0  0  0  0  0  0
  189.4250  174.3550  140.7210 C   0  0  2  0  0  3  0  0  0  0  0  0
  187.6940  175.6990  141.9890 C   0  0  0  0  0  2  0  0  0  0  0  0
  192.5520  176.0760  143.2370 C   0  0  0  0  0  2  0  0  0  0  0  0
  190.3440  177.4540  144.3840 O   0  0  0  0  0  0  0  0  0  0  0  0
  186.7710  178.5620  142.3870 Cl  0  0  0  0  0  0  0  0  0  0  0  0
  190.1010  175.9140  142.5910 C   0  0  2  0  0  3  0  0  0  0  0  0
  187.1960  176.0360  143.4020 C   0  0  1  0  0  3  0  0  0  0  0  0
  196.2820  174.0170  144.1370 C   0  0  2  0  0  3  0  0  0  0  0  0
  195.9130  173.4210  145.4610 C   0  0  0  0  0  0  0  0  0  0  0  0
  196.7230  173.4610  146.4260 O   0  0  0  0  0  0  0  0  0  0  0  0
  194.6500  172.7890  145.6240 N   0  0  0  0  0  1  0  0  0  0  0  0
  1 29  1  0  0  0  0
  1 16  1  1  0  0  0
  2 24  1  6  0  0  0
  3  4  1  0  0  0  0
  3 11  1  0  0  0  0
  4 21  1  0  0  0  0
  5 25  2  0  0  0  0
  6  5  1  6  0  0  0
  6 18  1  0  0  0  0
  7 24  1  6  0  0  0
  7 19  1  0  0  0  0
  8 17  1  0  0  0  0
  9 26  1  6  0  0  0
  9 15  1  0  0  0  0
 10 20  1  0  0  0  0
 12  8  1  1  0  0  0
 12  2  1  0  0  0  0
 13 11  1  6  0  0  0
 13 12  1  0  0  0  0
 14 23  1  6  0  0  0
 14 27  1  0  0  0  0
 15 18  1  0  0  0  0
 17 10  1  1  0  0  0
 17  7  1  0  0  0  0
 19  1  1  0  0  0  0
 19 16  1  1  0  0  0
 20 29  1  0  0  0  0
 22 21  1  1  0  0  0
 22 13  1  0  0  0  0
 22 14  1  0  0  0  0
 27  2  1  0  0  0  0
 27  5  1  1  0  0  0
 28 23  1  6  0  0  0
 28  9  1  0  0  0  0
 28  6  1  0  0  0  0
 29 30  1  1  0  0  0
 30 32  1  0  0  0  0
 30 31  2  0  0  0  0
M  END
>  <MODEL>
6

>  <REMARK>
 VINA RESULT:      -7.3      3.314      5.760
  Name = 
  1 active torsions:
  status: ('A' for Active; 'I' for Inactive)
    1  A    between atoms: C_29  and  C_30
                            x       y       z     vdW  Elec       q    Type
                         _______ _______ _______ _____ _____    ______ ____

>  <TORSDO>
F 1

$$$$
=
 OpenBabel11112416303D

 32 38  0  0  1  0  0  0  0  0999 V2000
  190.1950  177.9510  145.3130 C   0  0  2  0  0  3  0  0  0  0  0  0
  191.4600  173.4510  143.3660 C   0  0  1  0  0  3  0  0  0  0  0  0
  195.2210  170.7360  145.4020 C   0  0  0  0  0  2  0  0  0  0  0  0
  194.4070  169.5080  145.0140 C   0  0  0  0  0  2  0  0  0  0  0  0
  190.6910  172.7470  141.0330 C   0  0  0  0  0  0  0  0  0  0  0  0
  190.0660  171.4720  140.5030 C   0  0  1  0  0  3  0  0  0  0  0  0
  190.9940  175.6860  144.4020 C   0  0  1  0  0  3  0  0  0  0  0  0
  192.3040  174.0360  145.5560 O   0  0  0  0  0  0  0  0  0  0  0  0
  191.2400  170.1460  138.8470 C   0  0  1  0  0  3  0  0  0  0  0  0
  192.2260  176.2190  146.5730 C   0  0  0  0  0  2  0  0  0  0  0  0
  194.3180  171.9630  145.5630 C   0  0  0  0  0  2  0  0  0  0  0  0
  192.6510  173.3940  144.3500 C   0  0  1  0  0  3  0  0  0  0  0  0
  193.0880  171.9560  144.6380 C   0  0  1  0  0  3  0  0  0  0  0  0
  192.1570  171.2380  142.4080 C   0  0  2  0  0  3  0  0  0  0  0  0
  189.9200  170.6450  138.3090 C   0  0  0  0  0  2  0  0  0  0  0  0
  189.3670  177.5420  144.0990 C   0  0  0  0  0  2  0  0  0  0  0  0
  192.2290  175.4110  145.2730 C   0  0  2  0  0  3  0  0  0  0  0  0
  189.4370  171.6960  139.2020 N   0  0  0  0  0  2  0  0  0  0  0  0
  190.8320  177.1780  144.1420 C   0  0  1  0  0  3  0  0  0  0  0  0
  190.8580  176.2070  147.2480 C   0  0  0  0  0  2  0  0  0  0  0  0
  193.7230  169.7070  143.6560 C   0  0  0  0  0  2  0  0  0  0  0  0
  193.3690  171.1740  143.3410 C   0  0  2  0  0  3  0  0  0  0  0  0
  192.3950  170.4740  141.1110 C   0  0  0  0  0  2  0  0  0  0  0  0
  191.1510  174.9270  143.0900 C   0  0  0  0  0  2  0  0  0  0  0  0
  190.3110  173.8270  140.6060 O   0  0  0  0  0  0  0  0  0  0  0  0
  192.5400  171.1730  138.1610 Cl  0  0  0  0  0  0  0  0  0  0  0  0
  191.8000  172.6940  142.0710 C   0  0  2  0  0  3  0  0  0  0  0  0
  191.0760  170.3300  140.3390 C   0  0  1  0  0  3  0  0  0  0  0  0
  189.8270  177.1460  146.5960 C   0  0  2  0  0  3  0  0  0  0  0  0
  188.4240  176.6300  146.6900 C   0  0  0  0  0  0  0  0  0  0  0  0
  188.1910  175.3950  146.5880 O   0  0  0  0  0  0  0  0  0  0  0  0
  187.3460  177.5390  146.8750 N   0  0  0  0  0  1  0  0  0  0  0  0
  1 16  1  6  0  0  0
  1 29  1  0  0  0  0
  2 24  1  6  0  0  0
  2 12  1  0  0  0  0
  3 11  1  0  0  0  0
  4  3  1  0  0  0  0
  6 18  1  6  0  0  0
  6  5  1  0  0  0  0
  7 24  1  6  0  0  0
  7 17  1  0  0  0  0
  9 26  1  6  0  0  0
  9 28  1  0  0  0  0
 10 20  1  0  0  0  0
 12 13  1  0  0  0  0
 12  8  1  1  0  0  0
 13 11  1  1  0  0  0
 14 23  1  6  0  0  0
 14 22  1  0  0  0  0
 15  9  1  0  0  0  0
 15 18  1  0  0  0  0
 17  8  1  0  0  0  0
 17 10  1  1  0  0  0
 19 16  1  6  0  0  0
 19  7  1  0  0  0  0
 19  1  1  0  0  0  0
 21  4  1  0  0  0  0
 22 21  1  1  0  0  0
 22 13  1  0  0  0  0
 25  5  2  0  0  0  0
 27  5  1  6  0  0  0
 27 14  1  0  0  0  0
 27  2  1  0  0  0  0
 28  6  1  0  0  0  0
 28 23  1  1  0  0  0
 29 30  1  6  0  0  0
 29 20  1  0  0  0  0
 30 32  1  0  0  0  0
 31 30  2  0  0  0  0
M  END
>  <MODEL>
7

>  <REMARK>
 VINA RESULT:      -7.1      3.234      7.578
  Name = 
  1 active torsions:
  status: ('A' for Active; 'I' for Inactive)
    1  A    between atoms: C_29  and  C_30
                            x       y       z     vdW  Elec       q    Type
                         _______ _______ _______ _____ _____    ______ ____

>  <TORSDO>
F 1

$$$$
=
 OpenBabel11112416303D

 32 38  0  0  1  0  0  0  0  0999 V2000
  191.2600  171.0330  138.9450 C   0  0  2  0  0  3  0  0  0  0  0  0
  191.1350  174.4360  142.6930 C   0  0  1  0  0  3  0  0  0  0  0  0
  195.0090  174.8360  145.9320 C   0  0  0  0  0  2  0  0  0  0  0  0
  194.6890  176.3260  145.9700 C   0  0  0  0  0  2  0  0  0  0  0  0
  188.9490  175.5580  143.3990 C   0  0  0  0  0  0  0  0  0  0  0  0
  188.5820  177.0040  143.6690 C   0  0  1  0  0  3  0  0  0  0  0  0
  191.3160  172.6620  140.9300 C   0  0  1  0  0  3  0  0  0  0  0  0
  193.2490  173.3890  142.1590 O   0  0  0  0  0  0  0  0  0  0  0  0
  187.8600  177.6750  145.8840 C   0  0  1  0  0  3  0  0  0  0  0  0
  193.5650  171.4710  140.7350 C   0  0  0  0  0  2  0  0  0  0  0  0
  194.5110  174.2030  144.6280 C   0  0  0  0  0  2  0  0  0  0  0  0
  192.4570  173.8450  143.2320 C   0  0  1  0  0  3  0  0  0  0  0  0
  193.2450  174.8650  144.0580 C   0  0  1  0  0  3  0  0  0  0  0  0
  191.0980  176.0730  144.5960 C   0  0  2  0  0  3  0  0  0  0  0  0
  186.7760  177.9200  144.8600 C   0  0  0  0  0  2  0  0  0  0  0  0
  189.9820  171.8640  138.9900 C   0  0  0  0  0  2  0  0  0  0  0  0
  192.6100  172.2460  141.6460 C   0  0  2  0  0  3  0  0  0  0  0  0
  187.1330  177.1910  143.6440 N   0  0  0  0  0  2  0  0  0  0  0  0
  190.6380  171.4590  140.2890 C   0  0  1  0  0  3  0  0  0  0  0  0
  193.6860  172.1140  139.3570 C   0  0  0  0  0  2  0  0  0  0  0  0
  193.1760  176.5650  145.9370 C   0  0  0  0  0  2  0  0  0  0  0  0
  192.3850  175.4810  145.1770 C   0  0  2  0  0  3  0  0  0  0  0  0
  190.2180  176.6940  145.6730 C   0  0  0  0  0  2  0  0  0  0  0  0
  190.3930  173.3200  141.9480 C   0  0  0  0  0  2  0  0  0  0  0  0
  188.1500  174.8300  142.8290 O   0  0  0  0  0  0  0  0  0  0  0  0
  187.4410  176.1840  146.7860 Cl  0  0  0  0  0  0  0  0  0  0  0  0
  190.2900  175.0010  143.8470 C   0  0  2  0  0  3  0  0  0  0  0  0
  189.0920  177.5100  145.0230 C   0  0  1  0  0  3  0  0  0  0  0  0
  192.4890  171.8410  138.4290 C   0  0  2  0  0  3  0  0  0  0  0  0
  192.2070  172.9730  137.4890 C   0  0  0  0  0  0  0  0  0  0  0  0
  192.3460  174.1660  137.8700 O   0  0  0  0  0  0  0  0  0  0  0  0
  191.7610  172.7000  136.1670 N   0  0  0  0  0  1  0  0  0  0  0  0
  1 16  1  6  0  0  0
  1 19  1  0  0  0  0
  2 24  1  1  0  0  0
  2 12  1  0  0  0  0
  2 27  1  0  0  0  0
  3  4  1  0  0  0  0
  6  5  1  1  0  0  0
  6 28  1  0  0  0  0
  7 17  1  0  0  0  0
  7 24  1  1  0  0  0
  9 26  1  6  0  0  0
 11  3  1  0  0  0  0
 12  8  1  6  0  0  0
 12 13  1  0  0  0  0
 13 11  1  1  0  0  0
 13 22  1  0  0  0  0
 14 22  1  0  0  0  0
 14 23  1  1  0  0  0
 15  9  1  0  0  0  0
 17 10  1  6  0  0  0
 17  8  1  0  0  0  0
 18  6  1  0  0  0  0
 18 15  1  0  0  0  0
 19 16  1  6  0  0  0
 19  7  1  0  0  0  0
 20 10  1  0  0  0  0
 21  4  1  0  0  0  0
 22 21  1  6  0  0  0
 25  5  2  0  0  0  0
 27  5  1  6  0  0  0
 27 14  1  0  0  0  0
 28 23  1  1  0  0  0
 28  9  1  0  0  0  0
 29 30  1  1  0  0  0
 29  1  1  0  0  0  0
 29 20  1  0  0  0  0
 30 31  2  0  0  0  0
 32 30  1  0  0  0  0
M  END
>  <MODEL>
8

>  <REMARK>
 VINA RESULT:      -7.0      2.057      2.777
  Name = 
  1 active torsions:
  status: ('A' for Active; 'I' for Inactive)
    1  A    between atoms: C_29  and  C_30
                            x       y       z     vdW  Elec       q    Type
                         _______ _______ _______ _____ _____    ______ ____

>  <TORSDO>
F 1

$$$$
=
 OpenBabel11112416303D

 32 38  0  0  1  0  0  0  0  0999 V2000
  187.7030  177.4390  143.5650 C   0  0  2  0  0  3  0  0  0  0  0  0
  191.5070  174.1220  143.1580 C   0  0  1  0  0  3  0  0  0  0  0  0
  196.2960  175.6020  143.8880 C   0  0  0  0  0  2  0  0  0  0  0  0
  196.5290  174.2140  144.4710 C   0  0  0  0  0  2  0  0  0  0  0  0
  191.1850  171.8600  142.0120 C   0  0  0  0  0  0  0  0  0  0  0  0
  191.5670  170.4480  142.4090 C   0  0  1  0  0  3  0  0  0  0  0  0
  189.7400  175.8920  143.3310 C   0  0  1  0  0  3  0  0  0  0  0  0
  191.9500  176.2590  144.2020 O   0  0  0  0  0  0  0  0  0  0  0  0
  193.1320  169.1920  141.0490 C   0  0  1  0  0  3  0  0  0  0  0  0
  190.4920  178.1770  144.1850 C   0  0  0  0  0  2  0  0  0  0  0  0
  194.8200  176.0000  143.9930 C   0  0  0  0  0  2  0  0  0  0  0  0
  192.5040  175.2890  143.3420 C   0  0  1  0  0  3  0  0  0  0  0  0
  193.8470  174.8120  143.9000 C   0  0  1  0  0  3  0  0  0  0  0  0
  193.4310  172.5270  142.9200 C   0  0  2  0  0  3  0  0  0  0  0  0
  191.7870  168.5070  141.1050 C   0  0  0  0  0  2  0  0  0  0  0  0
  187.2610  176.0250  143.2000 C   0  0  0  0  0  2  0  0  0  0  0  0
  190.9080  176.8790  143.4900 C   0  0  2  0  0  3  0  0  0  0  0  0
  190.8160  169.4620  141.6330 N   0  0  0  0  0  2  0  0  0  0  0  0
  188.5580  176.5550  142.6370 C   0  0  1  0  0  3  0  0  0  0  0  0
  189.6070  177.9160  145.4000 C   0  0  0  0  0  2  0  0  0  0  0  0
  195.7500  173.1510  143.6890 C   0  0  0  0  0  2  0  0  0  0  0  0
  194.4420  173.6680  143.0570 C   0  0  2  0  0  3  0  0  0  0  0  0
  193.9830  171.3720  142.0920 C   0  0  0  0  0  2  0  0  0  0  0  0
  190.2300  174.6920  142.5310 C   0  0  0  0  0  2  0  0  0  0  0  0
  190.1150  172.0610  141.4570 O   0  0  0  0  0  0  0  0  0  0  0  0
  193.2620  170.0280  139.4690 Cl  0  0  0  0  0  0  0  0  0  0  0  0
  192.1260  173.0230  142.2780 C   0  0  2  0  0  3  0  0  0  0  0  0
  193.0590  170.1530  142.2150 C   0  0  1  0  0  3  0  0  0  0  0  0
  188.1480  177.5690  145.0520 C   0  0  2  0  0  3  0  0  0  0  0  0
  187.5230  176.6220  146.0300 C   0  0  0  0  0  0  0  0  0  0  0  0
  188.1910  175.6660  146.5070 O   0  0  0  0  0  0  0  0  0  0  0  0
  186.1620  176.7910  146.4080 N   0  0  0  0  0  1  0  0  0  0  0  0
  1 16  1  1  0  0  0
  1 29  1  0  0  0  0
  2 24  1  6  0  0  0
  2 12  1  0  0  0  0
  3 11  1  0  0  0  0
  3  4  1  0  0  0  0
  5  6  1  0  0  0  0
  6 18  1  6  0  0  0
  7 24  1  6  0  0  0
  7 17  1  0  0  0  0
  9 26  1  6  0  0  0
  9 15  1  0  0  0  0
  9 28  1  0  0  0  0
 10 20  1  0  0  0  0
 12 13  1  0  0  0  0
 12  8  1  1  0  0  0
 13 11  1  6  0  0  0
 14 23  1  6  0  0  0
 14 22  1  0  0  0  0
 15 18  1  0  0  0  0
 17 10  1  1  0  0  0
 17  8  1  0  0  0  0
 19 16  1  1  0  0  0
 19  7  1  0  0  0  0
 19  1  1  0  0  0  0
 21  4  1  0  0  0  0
 22 21  1  1  0  0  0
 22 13  1  0  0  0  0
 25  5  2  0  0  0  0
 27  5  1  1  0  0  0
 27 14  1  0  0  0  0
 27  2  1  0  0  0  0
 28 23  1  6  0  0  0
 28  6  1  0  0  0  0
 29 20  1  0  0  0  0
 29 30  1  1  0  0  0
 30 32  1  0  0  0  0
 30 31  2  0  0  0  0
M  END
>  <MODEL>
9

>  <REMARK>
 VINA RESULT:      -7.0      3.663      7.676
  Name = 
  1 active torsions:
  status: ('A' for Active; 'I' for Inactive)
    1  A    between atoms: C_29  and  C_30
                            x       y       z     vdW  Elec       q    Type
                         _______ _______ _______ _____ _____    ______ ____

>  <TORSDO>
F 1

$$$$
