=
 OpenBabel11112416493D

 31 35  0  0  1  0  0  0  0  0999 V2000
  194.3890  176.1230  144.8850 C   0  0  0  0  0  0  0  0  0  0  0  0
  190.8680  177.0730  143.8060 C   0  0  2  0  0  3  0  0  0  0  0  0
  190.3290  175.8870  143.0290 C   0  0  0  0  0  0  0  0  0  0  0  0
  190.6560  173.8450  141.7510 C   0  0  0  0  0  0  0  0  0  0  0  0
  192.0410  176.7120  144.6910 C   0  0  0  0  0  0  0  0  0  0  0  0
  194.2350  175.9410  146.2600 C   0  0  0  0  0  3  0  0  0  0  0  0
  191.1810  174.9190  142.4750 C   0  0  0  0  0  3  0  0  0  0  0  0
  189.4020  176.9530  145.8650 C   0  0  2  0  0  3  0  0  0  0  0  0
  195.6280  175.9190  144.2930 O   0  0  0  0  0  1  0  0  0  0  0  0
  188.0930  176.7690  143.3120 O   0  0  0  0  0  0  0  0  0  0  0  0
  191.7290  172.6360  141.0810 Cl  0  0  0  0  0  0  0  0  0  0  0  0
  190.6100  176.8770  146.7940 C   0  0  0  0  0  2  0  0  0  0  0  0
  189.7530  177.7700  144.6140 C   0  0  2  0  0  3  0  0  0  0  0  0
  193.2980  176.5090  144.1050 C   0  0  0  0  0  3  0  0  0  0  0  0
  189.2750  173.7350  141.5660 C   0  0  0  0  0  3  0  0  0  0  0  0
  191.8880  176.5300  146.0840 C   0  0  0  0  0  0  0  0  0  0  0  0
  192.9900  176.1540  146.8590 C   0  0  0  0  0  3  0  0  0  0  0  0
  188.5780  177.9870  143.7630 N   0  0  0  0  0  2  0  0  0  0  0  0
  188.9460  175.7880  142.8030 C   0  0  0  0  0  0  0  0  0  0  0  0
  188.4200  174.7070  142.0900 C   0  0  0  0  0  3  0  0  0  0  0  0
  188.3320  177.5360  146.5570 O   0  0  0  0  0  0  0  0  0  0  0  0
  187.8590  175.4490  147.3580 O   0  0  0  0  0  1  0  0  0  0  0  0
  187.3500  176.5400  146.6450 C   0  0  1  0  0  3  0  0  0  0  0  0
  185.4160  178.9710  145.3240 C   0  0  0  0  0  0  0  0  0  0  0  0
  184.8480  176.8030  146.5060 C   0  0  0  0  0  2  0  0  0  0  0  0
  187.2290  178.9450  148.4330 O   0  0  0  0  0  1  0  0  0  0  0  0
  185.3700  179.8030  144.0950 C   0  0  0  0  0  1  0  0  0  0  0  0
  184.8470  177.6530  145.3130 N   0  0  0  0  0  2  0  0  0  0  0  0
  186.1320  178.5850  147.6490 C   0  0  2  0  0  3  0  0  0  0  0  0
  186.0950  177.0740  147.3560 C   0  0  2  0  0  3  0  0  0  0  0  0
  186.0700  179.4140  146.3990 C   0  0  0  0  0  3  0  0  0  0  0  0
  1  6  1  0  0  0  0
  2  3  1  1  0  0  0
  2 13  1  0  0  0  0
  2  5  1  0  0  0  0
  4  7  1  0  0  0  0
  5 16  2  0  0  0  0
  6 17  2  0  0  0  0
  7  3  2  0  0  0  0
  8 21  1  1  0  0  0
  8 12  1  0  0  0  0
  9  1  1  0  0  0  0
 10 18  1  0  0  0  0
 11  4  1  0  0  0  0
 13 18  1  6  0  0  0
 13  8  1  0  0  0  0
 14  5  1  0  0  0  0
 14  1  2  0  0  0  0
 15  4  2  0  0  0  0
 15 20  1  0  0  0  0
 16 12  1  0  0  0  0
 16 17  1  0  0  0  0
 19  3  1  0  0  0  0
 19 10  1  0  0  0  0
 20 19  2  0  0  0  0
 21 23  1  0  0  0  0
 23 22  1  1  0  0  0
 24 31  2  0  0  0  0
 25 30  1  0  0  0  0
 27 24  1  0  0  0  0
 28 24  1  0  0  0  0
 28 25  1  0  0  0  0
 29 26  1  6  0  0  0
 30 23  1  6  0  0  0
 30 29  1  0  0  0  0
 31 29  1  0  0  0  0
M  END
>  <MODEL>
1

>  <REMARK>
 VINA RESULT:      -8.8      0.000      0.000
  Name = 
  3 active torsions:
  status: ('A' for Active; 'I' for Inactive)
    1  A    between atoms: C_5  and  O_16
    2  A    between atoms: C_5  and  C_30
    3  A    between atoms: C_10  and  O_16
                            x       y       z     vdW  Elec       q    Type
                         _______ _______ _______ _____ _____    ______ ____

>  <TORSDO>
F 3

$$$$
=
 OpenBabel11112416493D

 31 35  0  0  1  0  0  0  0  0999 V2000
  186.9660  177.5220  140.9100 C   0  0  0  0  0  0  0  0  0  0  0  0
  188.6500  177.7580  144.3110 C   0  0  2  0  0  3  0  0  0  0  0  0
  187.5320  177.8360  145.3330 C   0  0  0  0  0  0  0  0  0  0  0  0
  185.2240  178.2980  145.9410 C   0  0  0  0  0  0  0  0  0  0  0  0
  188.1930  177.2020  142.9810 C   0  0  0  0  0  0  0  0  0  0  0  0
  187.2280  176.2010  140.5450 C   0  0  0  0  0  3  0  0  0  0  0  0
  186.2310  178.2210  144.9740 C   0  0  0  0  0  3  0  0  0  0  0  0
  189.5730  175.4630  144.8450 C   0  0  2  0  0  3  0  0  0  0  0  0
  186.2250  178.3410  140.0690 O   0  0  0  0  0  1  0  0  0  0  0  0
  189.1200  177.2390  147.0590 O   0  0  0  0  0  0  0  0  0  0  0  0
  183.6010  178.7610  145.4770 Cl  0  0  0  0  0  0  0  0  0  0  0  0
  189.3750  174.9840  143.4090 C   0  0  0  0  0  2  0  0  0  0  0  0
  189.8590  176.9710  144.8600 C   0  0  2  0  0  3  0  0  0  0  0  0
  187.4490  178.0210  142.1210 C   0  0  0  0  0  3  0  0  0  0  0  0
  185.5120  178.0020  147.2760 C   0  0  0  0  0  3  0  0  0  0  0  0
  188.4600  175.8650  142.6070 C   0  0  0  0  0  0  0  0  0  0  0  0
  187.9810  175.3780  141.3860 C   0  0  0  0  0  3  0  0  0  0  0  0
  190.1960  177.4430  146.2080 N   0  0  0  0  0  2  0  0  0  0  0  0
  187.8200  177.5790  146.6840 C   0  0  0  0  0  0  0  0  0  0  0  0
  186.8100  177.6450  147.6480 C   0  0  0  0  0  3  0  0  0  0  0  0
  190.6320  174.7480  145.4200 O   0  0  0  0  0  0  0  0  0  0  0  0
  192.5260  175.1340  144.2010 O   0  0  0  0  0  1  0  0  0  0  0  0
  191.4130  174.2990  144.3460 C   0  0  1  0  0  3  0  0  0  0  0  0
  191.4570  171.9820  141.8930 C   0  0  0  0  0  0  0  0  0  0  0  0
  193.1170  172.5520  143.7200 C   0  0  0  0  0  2  0  0  0  0  0  0
  189.6600  171.9590  145.0100 O   0  0  0  0  0  1  0  0  0  0  0  0
  191.1330  171.8960  140.4460 C   0  0  0  0  0  1  0  0  0  0  0  0
  192.7420  172.4690  142.3060 N   0  0  0  0  0  2  0  0  0  0  0  0
  190.8260  171.7850  144.2660 C   0  0  2  0  0  3  0  0  0  0  0  0
  191.8870  172.8550  144.5840 C   0  0  2  0  0  3  0  0  0  0  0  0
  190.5190  171.6980  142.7990 C   0  0  0  0  0  3  0  0  0  0  0  0
  1 14  1  0  0  0  0
  2  5  1  6  0  0  0
  2 13  1  0  0  0  0
  2  3  1  0  0  0  0
  3 19  1  0  0  0  0
  4 15  2  0  0  0  0
  6  1  2  0  0  0  0
  6 17  1  0  0  0  0
  7  3  2  0  0  0  0
  7  4  1  0  0  0  0
  8 13  1  0  0  0  0
  8 21  1  6  0  0  0
  9  1  1  0  0  0  0
 11  4  1  0  0  0  0
 12  8  1  0  0  0  0
 13 18  1  1  0  0  0
 14  5  2  0  0  0  0
 15 20  1  0  0  0  0
 16  5  1  0  0  0  0
 16 12  1  0  0  0  0
 17 16  2  0  0  0  0
 18 10  1  0  0  0  0
 19 10  1  0  0  0  0
 19 20  2  0  0  0  0
 23 22  1  1  0  0  0
 23 21  1  0  0  0  0
 24 28  1  0  0  0  0
 24 31  2  0  0  0  0
 25 30  1  0  0  0  0
 27 24  1  0  0  0  0
 28 25  1  0  0  0  0
 29 30  1  0  0  0  0
 29 26  1  1  0  0  0
 30 23  1  6  0  0  0
 31 29  1  0  0  0  0
M  END
>  <MODEL>
2

>  <REMARK>
 VINA RESULT:      -8.3      3.292      7.183
  Name = 
  3 active torsions:
  status: ('A' for Active; 'I' for Inactive)
    1  A    between atoms: C_5  and  O_16
    2  A    between atoms: C_5  and  C_30
    3  A    between atoms: C_10  and  O_16
                            x       y       z     vdW  Elec       q    Type
                         _______ _______ _______ _____ _____    ______ ____

>  <TORSDO>
F 3

$$$$
=
 OpenBabel11112416493D

 31 35  0  0  1  0  0  0  0  0999 V2000
  191.4260  171.4500  142.9730 C   0  0  0  0  0  0  0  0  0  0  0  0
  190.6110  173.8430  145.8140 C   0  0  2  0  0  3  0  0  0  0  0  0
  191.8590  174.6750  146.0380 C   0  0  0  0  0  0  0  0  0  0  0  0
  194.2540  175.0320  145.8230 C   0  0  0  0  0  0  0  0  0  0  0  0
  190.5830  173.1800  144.4540 C   0  0  0  0  0  0  0  0  0  0  0  0
  190.6560  171.9640  141.9280 C   0  0  0  0  0  3  0  0  0  0  0  0
  193.1190  174.2510  145.5890 C   0  0  0  0  0  3  0  0  0  0  0  0
  189.0670  175.6140  144.8740 C   0  0  2  0  0  3  0  0  0  0  0  0
  192.2310  170.3390  142.7610 O   0  0  0  0  0  1  0  0  0  0  0  0
  190.5220  176.2790  147.2610 O   0  0  0  0  0  0  0  0  0  0  0  0
  195.8160  174.4990  145.2410 Cl  0  0  0  0  0  0  0  0  0  0  0  0
  188.8070  174.8020  143.6080 C   0  0  0  0  0  2  0  0  0  0  0  0
  189.3320  174.6720  146.0570 C   0  0  2  0  0  3  0  0  0  0  0  0
  191.3870  172.0540  144.2310 C   0  0  0  0  0  3  0  0  0  0  0  0
  194.1410  176.2380  146.5190 C   0  0  0  0  0  3  0  0  0  0  0  0
  189.8020  173.6950  143.3950 C   0  0  0  0  0  0  0  0  0  0  0  0
  189.8390  173.0760  142.1420 C   0  0  0  0  0  3  0  0  0  0  0  0
  189.4440  175.4100  147.3200 N   0  0  0  0  0  2  0  0  0  0  0  0
  191.7630  175.8700  146.7720 C   0  0  0  0  0  0  0  0  0  0  0  0
  192.8960  176.6560  146.9950 C   0  0  0  0  0  3  0  0  0  0  0  0
  187.9550  176.4300  145.1260 O   0  0  0  0  0  0  0  0  0  0  0  0
  186.0000  176.3460  143.9450 O   0  0  0  0  0  1  0  0  0  0  0  0
  187.3630  176.6590  143.8760 C   0  0  1  0  0  3  0  0  0  0  0  0
  186.6720  177.7370  140.7540 C   0  0  0  0  0  0  0  0  0  0  0  0
  186.1740  178.7150  143.0370 C   0  0  0  0  0  2  0  0  0  0  0  0
  189.7800  177.8540  142.5640 O   0  0  0  0  0  1  0  0  0  0  0  0
  186.1760  177.1730  139.4730 C   0  0  0  0  0  1  0  0  0  0  0  0
  185.7360  178.1340  141.7660 N   0  0  0  0  0  2  0  0  0  0  0  0
  188.5040  178.3430  142.2850 C   0  0  2  0  0  3  0  0  0  0  0  0
  187.5270  178.1290  143.4560 C   0  0  2  0  0  3  0  0  0  0  0  0
  187.9840  177.7820  140.9940 C   0  0  0  0  0  3  0  0  0  0  0  0
  1 14  1  0  0  0  0
  2  5  1  6  0  0  0
  2  3  1  0  0  0  0
  2 13  1  0  0  0  0
  3 19  1  0  0  0  0
  4 15  2  0  0  0  0
  6 17  1  0  0  0  0
  6  1  2  0  0  0  0
  7  4  1  0  0  0  0
  7  3  2  0  0  0  0
  8 21  1  1  0  0  0
  8 13  1  0  0  0  0
  9  1  1  0  0  0  0
 10 18  1  0  0  0  0
 11  4  1  0  0  0  0
 12  8  1  0  0  0  0
 13 18  1  1  0  0  0
 14  5  2  0  0  0  0
 15 20  1  0  0  0  0
 16 12  1  0  0  0  0
 16  5  1  0  0  0  0
 17 16  2  0  0  0  0
 19 20  2  0  0  0  0
 19 10  1  0  0  0  0
 23 22  1  1  0  0  0
 23 21  1  0  0  0  0
 24 31  2  0  0  0  0
 24 28  1  0  0  0  0
 25 30  1  0  0  0  0
 27 24  1  0  0  0  0
 28 25  1  0  0  0  0
 29 26  1  1  0  0  0
 29 30  1  0  0  0  0
 30 23  1  6  0  0  0
 31 29  1  0  0  0  0
M  END
>  <MODEL>
3

>  <REMARK>
 VINA RESULT:      -7.9      2.878      5.008
  Name = 
  3 active torsions:
  status: ('A' for Active; 'I' for Inactive)
    1  A    between atoms: C_5  and  O_16
    2  A    between atoms: C_5  and  C_30
    3  A    between atoms: C_10  and  O_16
                            x       y       z     vdW  Elec       q    Type
                         _______ _______ _______ _____ _____    ______ ____

>  <TORSDO>
F 3

$$$$
=
 OpenBabel11112416493D

 31 35  0  0  1  0  0  0  0  0999 V2000
  193.3650  170.8650  144.4750 C   0  0  0  0  0  0  0  0  0  0  0  0
  194.3320  174.3560  145.6350 C   0  0  2  0  0  3  0  0  0  0  0  0
  195.2930  174.8970  144.5930 C   0  0  0  0  0  0  0  0  0  0  0  0
  196.8710  174.5740  142.7730 C   0  0  0  0  0  0  0  0  0  0  0  0
  193.4980  173.2020  145.1220 C   0  0  0  0  0  0  0  0  0  0  0  0
  192.0380  171.0450  144.0820 C   0  0  0  0  0  3  0  0  0  0  0  0
  195.9800  174.0480  143.7120 C   0  0  0  0  0  3  0  0  0  0  0  0
  192.3390  175.8570  145.2150 C   0  0  2  0  0  3  0  0  0  0  0  0
  193.9640  169.6190  144.3480 O   0  0  0  0  0  1  0  0  0  0  0  0
  194.9070  177.1260  145.4530 O   0  0  0  0  0  0  0  0  0  0  0  0
  197.7080  173.5060  141.6680 Cl  0  0  0  0  0  0  0  0  0  0  0  0
  191.4160  174.6660  144.9760 C   0  0  0  0  0  2  0  0  0  0  0  0
  193.4410  175.4760  146.2130 C   0  0  2  0  0  3  0  0  0  0  0  0
  194.0900  171.9390  144.9960 C   0  0  0  0  0  3  0  0  0  0  0  0
  197.0910  175.9530  142.7140 C   0  0  0  0  0  3  0  0  0  0  0  0
  192.1530  173.3800  144.7260 C   0  0  0  0  0  0  0  0  0  0  0  0
  191.4320  172.2960  144.2160 C   0  0  0  0  0  3  0  0  0  0  0  0
  194.2640  176.6330  146.5780 N   0  0  0  0  0  2  0  0  0  0  0  0
  195.5520  176.2770  144.5520 C   0  0  0  0  0  0  0  0  0  0  0  0
  196.4330  176.8040  143.6050 C   0  0  0  0  0  3  0  0  0  0  0  0
  191.5790  176.9310  145.6980 O   0  0  0  0  0  0  0  0  0  0  0  0
  189.5880  176.3790  146.6750 O   0  0  0  0  0  1  0  0  0  0  0  0
  190.2420  176.5880  145.4550 C   0  0  1  0  0  3  0  0  0  0  0  0
  188.1360  175.9470  142.8970 C   0  0  0  0  0  0  0  0  0  0  0  0
  188.0060  177.5710  144.8370 C   0  0  0  0  0  2  0  0  0  0  0  0
  191.1930  177.8440  142.9040 O   0  0  0  0  0  1  0  0  0  0  0  0
  187.5870  174.7650  142.1850 C   0  0  0  0  0  1  0  0  0  0  0  0
  187.5160  176.3980  144.1100 N   0  0  0  0  0  2  0  0  0  0  0  0
  189.8300  177.7150  143.1670 C   0  0  2  0  0  3  0  0  0  0  0  0
  189.5250  177.7050  144.6770 C   0  0  2  0  0  3  0  0  0  0  0  0
  189.2570  176.5220  142.4580 C   0  0  0  0  0  3  0  0  0  0  0  0
  1 14  1  0  0  0  0
  2  3  1  6  0  0  0
  2 13  1  0  0  0  0
  4  7  1  0  0  0  0
  5  2  1  0  0  0  0
  6 17  1  0  0  0  0
  6  1  2  0  0  0  0
  7  3  2  0  0  0  0
  8 21  1  1  0  0  0
  8 13  1  0  0  0  0
  9  1  1  0  0  0  0
 10 18  1  0  0  0  0
 11  4  1  0  0  0  0
 12  8  1  0  0  0  0
 13 18  1  6  0  0  0
 14  5  2  0  0  0  0
 15  4  2  0  0  0  0
 15 20  1  0  0  0  0
 16 12  1  0  0  0  0
 16  5  1  0  0  0  0
 17 16  2  0  0  0  0
 19  3  1  0  0  0  0
 19 10  1  0  0  0  0
 20 19  2  0  0  0  0
 23 21  1  0  0  0  0
 23 22  1  1  0  0  0
 24 28  1  0  0  0  0
 27 24  1  0  0  0  0
 28 25  1  0  0  0  0
 29 26  1  1  0  0  0
 29 30  1  0  0  0  0
 30 25  1  0  0  0  0
 30 23  1  1  0  0  0
 31 24  2  0  0  0  0
 31 29  1  0  0  0  0
M  END
>  <MODEL>
4

>  <REMARK>
 VINA RESULT:      -7.9      3.103      5.361
  Name = 
  3 active torsions:
  status: ('A' for Active; 'I' for Inactive)
    1  A    between atoms: C_5  and  O_16
    2  A    between atoms: C_5  and  C_30
    3  A    between atoms: C_10  and  O_16
                            x       y       z     vdW  Elec       q    Type
                         _______ _______ _______ _____ _____    ______ ____

>  <TORSDO>
F 3

$$$$
=
 OpenBabel11112416493D

 31 35  0  0  1  0  0  0  0  0999 V2000
  186.0890  177.9310  147.0340 C   0  0  0  0  0  0  0  0  0  0  0  0
  188.8110  177.9240  144.3780 C   0  0  2  0  0  3  0  0  0  0  0  0
  190.0020  177.2160  144.9950 C   0  0  0  0  0  0  0  0  0  0  0  0
  191.2540  176.4290  146.9250 C   0  0  0  0  0  0  0  0  0  0  0  0
  187.5120  177.6190  145.0920 C   0  0  0  0  0  0  0  0  0  0  0  0
  185.1700  177.0190  146.5140 C   0  0  0  0  0  3  0  0  0  0  0  0
  190.1380  177.0740  146.3850 C   0  0  0  0  0  3  0  0  0  0  0  0
  188.1420  176.2190  142.6320 C   0  0  2  0  0  3  0  0  0  0  0  0
  185.8460  178.5400  148.2580 O   0  0  0  0  0  1  0  0  0  0  0  0
  190.9250  176.9220  142.7770 O   0  0  0  0  0  0  0  0  0  0  0  0
  191.4010  176.2420  148.6580 Cl  0  0  0  0  0  0  0  0  0  0  0  0
  186.7220  176.1230  143.1840 C   0  0  0  0  0  2  0  0  0  0  0  0
  188.7020  177.6290  142.8670 C   0  0  2  0  0  3  0  0  0  0  0  0
  187.2530  178.2320  146.3250 C   0  0  0  0  0  3  0  0  0  0  0  0
  192.2500  175.9300  146.0800 C   0  0  0  0  0  3  0  0  0  0  0  0
  186.5780  176.6980  144.5650 C   0  0  0  0  0  0  0  0  0  0  0  0
  185.4100  176.4120  145.2790 C   0  0  0  0  0  3  0  0  0  0  0  0
  190.0090  177.8050  142.2260 N   0  0  0  0  0  2  0  0  0  0  0  0
  191.0290  176.7470  144.1570 C   0  0  0  0  0  0  0  0  0  0  0  0
  192.1380  176.0910  144.6970 C   0  0  0  0  0  3  0  0  0  0  0  0
  188.1200  175.9140  141.2650 O   0  0  0  0  0  0  0  0  0  0  0  0
  189.2240  174.2550  142.3840 O   0  0  0  0  0  1  0  0  0  0  0  0
  188.9190  174.7710  141.1190 C   0  0  1  0  0  3  0  0  0  0  0  0
  190.5160  172.8290  138.8680 C   0  0  0  0  0  0  0  0  0  0  0  0
  188.7550  172.3090  140.6140 C   0  0  0  0  0  2  0  0  0  0  0  0
  187.8000  175.1340  138.3610 O   0  0  0  0  0  1  0  0  0  0  0  0
  191.8950  172.6380  138.3530 C   0  0  0  0  0  1  0  0  0  0  0  0
  190.1100  172.1690  140.0770 N   0  0  0  0  0  2  0  0  0  0  0  0
  188.2990  173.8970  138.7690 C   0  0  2  0  0  3  0  0  0  0  0  0
  188.1910  173.6980  140.2930 C   0  0  2  0  0  3  0  0  0  0  0  0
  189.6950  173.6870  138.2600 C   0  0  0  0  0  3  0  0  0  0  0  0
  1  9  1  0  0  0  0
  2  3  1  1  0  0  0
  2  5  1  0  0  0  0
  3  7  1  0  0  0  0
  4 11  1  0  0  0  0
  5 14  1  0  0  0  0
  6  1  1  0  0  0  0
  7  4  2  0  0  0  0
  8 21  1  6  0  0  0
  8 13  1  0  0  0  0
  8 12  1  0  0  0  0
 10 19  1  0  0  0  0
 12 16  1  0  0  0  0
 13 18  1  1  0  0  0
 13  2  1  0  0  0  0
 14  1  2  0  0  0  0
 15  4  1  0  0  0  0
 16  5  2  0  0  0  0
 16 17  1  0  0  0  0
 17  6  2  0  0  0  0
 18 10  1  0  0  0  0
 19 20  1  0  0  0  0
 19  3  2  0  0  0  0
 20 15  2  0  0  0  0
 23 21  1  0  0  0  0
 23 22  1  1  0  0  0
 24 28  1  0  0  0  0
 27 24  1  0  0  0  0
 28 25  1  0  0  0  0
 29 26  1  1  0  0  0
 29 30  1  0  0  0  0
 30 25  1  0  0  0  0
 30 23  1  1  0  0  0
 31 29  1  0  0  0  0
 31 24  2  0  0  0  0
M  END
>  <MODEL>
5

>  <REMARK>
 VINA RESULT:      -7.8      2.864      7.129
  Name = 
  3 active torsions:
  status: ('A' for Active; 'I' for Inactive)
    1  A    between atoms: C_5  and  O_16
    2  A    between atoms: C_5  and  C_30
    3  A    between atoms: C_10  and  O_16
                            x       y       z     vdW  Elec       q    Type
                         _______ _______ _______ _____ _____    ______ ____

>  <TORSDO>
F 3

$$$$
=
 OpenBabel11112416493D

 31 35  0  0  1  0  0  0  0  0999 V2000
  186.1520  177.2530  142.7520 C   0  0  0  0  0  0  0  0  0  0  0  0
  188.5660  174.3250  143.0000 C   0  0  2  0  0  3  0  0  0  0  0  0
  189.0200  174.0300  141.5830 C   0  0  0  0  0  0  0  0  0  0  0  0
  188.7240  174.1660  139.1740 C   0  0  0  0  0  0  0  0  0  0  0  0
  187.9870  175.7150  143.1530 C   0  0  0  0  0  0  0  0  0  0  0  0
  186.8930  178.2930  143.3150 C   0  0  0  0  0  3  0  0  0  0  0  0
  188.2890  174.4660  140.4680 C   0  0  0  0  0  3  0  0  0  0  0  0
  190.7230  175.2210  143.9740 C   0  0  2  0  0  3  0  0  0  0  0  0
  184.8730  177.4960  142.2670 O   0  0  0  0  0  1  0  0  0  0  0  0
  190.8790  172.7680  142.4840 O   0  0  0  0  0  0  0  0  0  0  0  0
  187.8120  174.7310  137.7920 Cl  0  0  0  0  0  0  0  0  0  0  0  0
  190.0600  176.5300  144.3940 C   0  0  0  0  0  2  0  0  0  0  0  0
  189.7000  174.0770  144.0170 C   0  0  2  0  0  3  0  0  0  0  0  0
  186.6950  175.9700  142.6740 C   0  0  0  0  0  3  0  0  0  0  0  0
  189.8890  173.4170  138.9840 C   0  0  0  0  0  3  0  0  0  0  0  0
  188.7340  176.7680  143.7270 C   0  0  0  0  0  0  0  0  0  0  0  0
  188.1770  178.0480  143.8100 C   0  0  0  0  0  3  0  0  0  0  0  0
  190.3310  172.7780  143.7580 N   0  0  0  0  0  2  0  0  0  0  0  0
  190.1680  173.2440  141.3820 C   0  0  0  0  0  0  0  0  0  0  0  0
  190.6090  172.9550  140.0880 C   0  0  0  0  0  3  0  0  0  0  0  0
  191.7980  174.9600  144.8340 O   0  0  0  0  0  0  0  0  0  0  0  0
  192.5910  175.3680  142.7300 O   0  0  0  0  0  1  0  0  0  0  0  0
  192.9540  175.1510  144.0630 C   0  0  1  0  0  3  0  0  0  0  0  0
  195.8940  174.8090  145.6850 C   0  0  0  0  0  0  0  0  0  0  0  0
  195.1250  176.4160  143.8840 C   0  0  0  0  0  2  0  0  0  0  0  0
  192.8270  176.3030  146.8290 O   0  0  0  0  0  1  0  0  0  0  0  0
  196.8000  173.7130  146.1140 C   0  0  0  0  0  1  0  0  0  0  0  0
  195.9820  175.3220  144.3480 N   0  0  0  0  0  2  0  0  0  0  0  0
  194.0120  176.3440  146.0950 C   0  0  2  0  0  3  0  0  0  0  0  0
  193.7580  176.3570  144.5760 C   0  0  2  0  0  3  0  0  0  0  0  0
  194.9410  175.2420  146.5130 C   0  0  0  0  0  3  0  0  0  0  0  0
  1  6  1  0  0  0  0
  2  3  1  6  0  0  0
  2  5  1  0  0  0  0
  2 13  1  0  0  0  0
  4  7  1  0  0  0  0
  5 16  2  0  0  0  0
  6 17  2  0  0  0  0
  7  3  2  0  0  0  0
  8 13  1  0  0  0  0
  8 12  1  0  0  0  0
  8 21  1  1  0  0  0
  9  1  1  0  0  0  0
 10 18  1  0  0  0  0
 11  4  1  0  0  0  0
 13 18  1  6  0  0  0
 14  1  2  0  0  0  0
 14  5  1  0  0  0  0
 15  4  2  0  0  0  0
 15 20  1  0  0  0  0
 16 17  1  0  0  0  0
 16 12  1  0  0  0  0
 19  3  1  0  0  0  0
 19 10  1  0  0  0  0
 20 19  2  0  0  0  0
 23 22  1  6  0  0  0
 23 21  1  0  0  0  0
 24 27  1  0  0  0  0
 24 31  2  0  0  0  0
 25 28  1  0  0  0  0
 25 30  1  0  0  0  0
 28 24  1  0  0  0  0
 29 31  1  0  0  0  0
 29 26  1  1  0  0  0
 30 23  1  6  0  0  0
 30 29  1  0  0  0  0
M  END
>  <MODEL>
6

>  <REMARK>
 VINA RESULT:      -7.8      3.321      6.930
  Name = 
  3 active torsions:
  status: ('A' for Active; 'I' for Inactive)
    1  A    between atoms: C_5  and  O_16
    2  A    between atoms: C_5  and  C_30
    3  A    between atoms: C_10  and  O_16
                            x       y       z     vdW  Elec       q    Type
                         _______ _______ _______ _____ _____    ______ ____

>  <TORSDO>
F 3

$$$$
=
 OpenBabel11112416493D

 31 35  0  0  1  0  0  0  0  0999 V2000
  185.7210  178.0660  147.3890 C   0  0  0  0  0  0  0  0  0  0  0  0
  187.8070  175.7460  145.2140 C   0  0  2  0  0  3  0  0  0  0  0  0
  187.5710  176.1820  143.7810 C   0  0  0  0  0  0  0  0  0  0  0  0
  186.2520  177.3220  142.0860 C   0  0  0  0  0  0  0  0  0  0  0  0
  187.4450  176.8140  146.2210 C   0  0  0  0  0  0  0  0  0  0  0  0
  186.7000  178.8500  148.0020 C   0  0  0  0  0  3  0  0  0  0  0  0
  186.4520  176.9470  143.4180 C   0  0  0  0  0  3  0  0  0  0  0  0
  190.2250  176.4400  145.4910 C   0  0  2  0  0  3  0  0  0  0  0  0
  184.3790  178.2960  147.6570 O   0  0  0  0  0  1  0  0  0  0  0  0
  189.5520  174.9580  143.1230 O   0  0  0  0  0  0  0  0  0  0  0  0
  184.8620  178.2920  141.6510 Cl  0  0  0  0  0  0  0  0  0  0  0  0
  189.8990  177.3070  146.7040 C   0  0  0  0  0  2  0  0  0  0  0  0
  189.2560  175.2520  145.4200 C   0  0  2  0  0  3  0  0  0  0  0  0
  186.0930  177.0510  146.5050 C   0  0  0  0  0  3  0  0  0  0  0  0
  187.1640  176.9260  141.1040 C   0  0  0  0  0  3  0  0  0  0  0  0
  188.4330  177.6070  146.8470 C   0  0  0  0  0  0  0  0  0  0  0  0
  188.0510  178.6140  147.7390 C   0  0  0  0  0  3  0  0  0  0  0  0
  189.6240  174.3180  144.3510 N   0  0  0  0  0  2  0  0  0  0  0  0
  188.4600  175.7560  142.7790 C   0  0  0  0  0  0  0  0  0  0  0  0
  188.2670  176.1420  141.4500 C   0  0  0  0  0  3  0  0  0  0  0  0
  191.5500  175.9970  145.5930 O   0  0  0  0  0  0  0  0  0  0  0  0
  191.5550  177.6120  143.9760 O   0  0  0  0  0  1  0  0  0  0  0  0
  192.1920  176.4530  144.4330 C   0  0  1  0  0  3  0  0  0  0  0  0
  194.4450  174.0400  145.1320 C   0  0  0  0  0  0  0  0  0  0  0  0
  194.5630  176.0980  143.6600 C   0  0  0  0  0  2  0  0  0  0  0  0
  193.4220  176.8450  147.1390 O   0  0  0  0  0  1  0  0  0  0  0  0
  194.4780  172.5600  145.2600 C   0  0  0  0  0  1  0  0  0  0  0  0
  194.5680  174.6440  143.8360 N   0  0  0  0  0  2  0  0  0  0  0  0
  194.1620  176.2880  146.0960 C   0  0  2  0  0  3  0  0  0  0  0  0
  193.6720  176.7630  144.7150 C   0  0  2  0  0  3  0  0  0  0  0  0
  194.2040  174.7920  146.2070 C   0  0  0  0  0  3  0  0  0  0  0  0
  1  9  1  0  0  0  0
  1  6  1  0  0  0  0
  2  3  1  6  0  0  0
  2 13  1  0  0  0  0
  2  5  1  0  0  0  0
  4  7  2  0  0  0  0
  5 14  1  0  0  0  0
  5 16  2  0  0  0  0
  7  3  1  0  0  0  0
  8 21  1  1  0  0  0
  8 12  1  0  0  0  0
 10 18  1  0  0  0  0
 11  4  1  0  0  0  0
 12 16  1  0  0  0  0
 13 18  1  6  0  0  0
 13  8  1  0  0  0  0
 14  1  2  0  0  0  0
 15 20  2  0  0  0  0
 15  4  1  0  0  0  0
 16 17  1  0  0  0  0
 17  6  2  0  0  0  0
 19 10  1  0  0  0  0
 19  3  2  0  0  0  0
 20 19  1  0  0  0  0
 23 22  1  1  0  0  0
 23 21  1  0  0  0  0
 24 27  1  0  0  0  0
 24 31  2  0  0  0  0
 25 28  1  0  0  0  0
 25 30  1  0  0  0  0
 28 24  1  0  0  0  0
 29 31  1  0  0  0  0
 29 26  1  1  0  0  0
 30 23  1  6  0  0  0
 30 29  1  0  0  0  0
M  END
>  <MODEL>
7

>  <REMARK>
 VINA RESULT:      -7.8      2.919      6.772
  Name = 
  3 active torsions:
  status: ('A' for Active; 'I' for Inactive)
    1  A    between atoms: C_5  and  O_16
    2  A    between atoms: C_5  and  C_30
    3  A    between atoms: C_10  and  O_16
                            x       y       z     vdW  Elec       q    Type
                         _______ _______ _______ _____ _____    ______ ____

>  <TORSDO>
F 3

$$$$
=
 OpenBabel11112416493D

 31 35  0  0  1  0  0  0  0  0999 V2000
  186.2200  178.0620  147.4670 C   0  0  0  0  0  0  0  0  0  0  0  0
  188.4580  175.4610  145.8260 C   0  0  2  0  0  3  0  0  0  0  0  0
  188.3570  175.6990  144.3310 C   0  0  0  0  0  0  0  0  0  0  0  0
  187.2140  176.6010  142.3850 C   0  0  0  0  0  0  0  0  0  0  0  0
  188.0220  176.6580  146.6420 C   0  0  0  0  0  0  0  0  0  0  0  0
  187.1510  178.9200  148.0550 C   0  0  0  0  0  3  0  0  0  0  0  0
  187.2870  176.4100  143.7680 C   0  0  0  0  0  3  0  0  0  0  0  0
  190.8510  176.1810  146.2260 C   0  0  2  0  0  3  0  0  0  0  0  0
  184.8620  178.3300  147.5780 O   0  0  0  0  0  1  0  0  0  0  0  0
  190.3710  174.3910  144.0290 O   0  0  0  0  0  0  0  0  0  0  0  0
  185.8830  177.5050  141.6970 Cl  0  0  0  0  0  0  0  0  0  0  0  0
  190.4300  177.2060  147.2750 C   0  0  0  0  0  2  0  0  0  0  0  0
  189.8740  174.9970  146.2280 C   0  0  2  0  0  3  0  0  0  0  0  0
  186.6540  176.9350  146.7660 C   0  0  0  0  0  3  0  0  0  0  0  0
  188.2050  176.0720  141.5530 C   0  0  0  0  0  3  0  0  0  0  0  0
  188.9620  177.5270  147.2420 C   0  0  0  0  0  0  0  0  0  0  0  0
  188.5170  178.6470  147.9510 C   0  0  0  0  0  3  0  0  0  0  0  0
  190.3230  173.9250  145.3340 N   0  0  0  0  0  2  0  0  0  0  0  0
  189.3270  175.1370  143.4830 C   0  0  0  0  0  0  0  0  0  0  0  0
  189.2590  175.3390  142.1010 C   0  0  0  0  0  3  0  0  0  0  0  0
  192.1550  175.7520  146.5070 O   0  0  0  0  0  0  0  0  0  0  0  0
  192.9480  177.3790  145.1110 O   0  0  0  0  0  1  0  0  0  0  0  0
  192.8940  176.0000  145.3420 C   0  0  1  0  0  3  0  0  0  0  0  0
  194.6150  174.7680  142.7120 C   0  0  0  0  0  0  0  0  0  0  0  0
  195.2940  176.2800  144.6280 C   0  0  0  0  0  2  0  0  0  0  0  0
  193.6400  173.1260  145.7620 O   0  0  0  0  0  1  0  0  0  0  0  0
  194.4150  174.5700  141.2540 C   0  0  0  0  0  1  0  0  0  0  0  0
  195.0620  176.0410  143.2020 N   0  0  0  0  0  2  0  0  0  0  0  0
  194.4760  173.9790  145.0410 C   0  0  2  0  0  3  0  0  0  0  0  0
  194.3240  175.4490  145.4760 C   0  0  2  0  0  3  0  0  0  0  0  0
  194.2860  173.7950  143.5640 C   0  0  0  0  0  3  0  0  0  0  0  0
  1  9  1  0  0  0  0
  1  6  1  0  0  0  0
  2  3  1  6  0  0  0
  2 13  1  0  0  0  0
  2  5  1  0  0  0  0
  4  7  2  0  0  0  0
  5 14  1  0  0  0  0
  5 16  2  0  0  0  0
  7  3  1  0  0  0  0
  8 13  1  0  0  0  0
  8 21  1  1  0  0  0
  8 12  1  0  0  0  0
 10 18  1  0  0  0  0
 11  4  1  0  0  0  0
 13 18  1  6  0  0  0
 14  1  2  0  0  0  0
 15 20  2  0  0  0  0
 15  4  1  0  0  0  0
 16 12  1  0  0  0  0
 16 17  1  0  0  0  0
 17  6  2  0  0  0  0
 19 10  1  0  0  0  0
 19  3  2  0  0  0  0
 20 19  1  0  0  0  0
 23 22  1  1  0  0  0
 23 21  1  0  0  0  0
 24 28  1  0  0  0  0
 24 31  2  0  0  0  0
 25 30  1  0  0  0  0
 27 24  1  0  0  0  0
 28 25  1  0  0  0  0
 29 30  1  0  0  0  0
 29 26  1  1  0  0  0
 30 23  1  6  0  0  0
 31 29  1  0  0  0  0
M  END
>  <MODEL>
8

>  <REMARK>
 VINA RESULT:      -7.6      2.858      6.837
  Name = 
  3 active torsions:
  status: ('A' for Active; 'I' for Inactive)
    1  A    between atoms: C_5  and  O_16
    2  A    between atoms: C_5  and  C_30
    3  A    between atoms: C_10  and  O_16
                            x       y       z     vdW  Elec       q    Type
                         _______ _______ _______ _____ _____    ______ ____

>  <TORSDO>
F 3

$$$$
=
 OpenBabel11112416493D

 31 35  0  0  1  0  0  0  0  0999 V2000
  192.5050  176.4070  146.5060 C   0  0  0  0  0  0  0  0  0  0  0  0
  190.3080  175.7290  143.4760 C   0  0  2  0  0  3  0  0  0  0  0  0
  190.3540  174.2300  143.2470 C   0  0  0  0  0  0  0  0  0  0  0  0
  191.4050  172.0570  143.5360 C   0  0  0  0  0  0  0  0  0  0  0  0
  190.7270  176.1220  144.8750 C   0  0  0  0  0  0  0  0  0  0  0  0
  191.5630  176.7420  147.4810 C   0  0  0  0  0  3  0  0  0  0  0  0
  191.3810  173.4340  143.7760 C   0  0  0  0  0  3  0  0  0  0  0  0
  187.9050  175.9850  144.2270 C   0  0  2  0  0  3  0  0  0  0  0  0
  193.8550  176.3770  146.8270 O   0  0  0  0  0  1  0  0  0  0  0  0
  188.3780  174.4220  141.8620 O   0  0  0  0  0  0  0  0  0  0  0  0
  192.6820  171.0740  144.2170 Cl  0  0  0  0  0  0  0  0  0  0  0  0
  188.3230  176.6540  145.5340 C   0  0  0  0  0  2  0  0  0  0  0  0
  188.9220  176.3100  143.1240 C   0  0  2  0  0  3  0  0  0  0  0  0
  192.0880  176.1020  145.2090 C   0  0  0  0  0  3  0  0  0  0  0  0
  190.4080  171.4660  142.7550 C   0  0  0  0  0  3  0  0  0  0  0  0
  189.7770  176.4660  145.8630 C   0  0  0  0  0  0  0  0  0  0  0  0
  190.2050  176.7810  147.1570 C   0  0  0  0  0  3  0  0  0  0  0  0
  188.4830  175.8040  141.8190 N   0  0  0  0  0  2  0  0  0  0  0  0
  189.3790  173.6320  142.4300 C   0  0  0  0  0  0  0  0  0  0  0  0
  189.3970  172.2540  142.2000 C   0  0  0  0  0  3  0  0  0  0  0  0
  186.6260  176.4350  143.8740 O   0  0  0  0  0  0  0  0  0  0  0  0
  186.8440  178.6660  143.4260 O   0  0  0  0  0  1  0  0  0  0  0  0
  186.5180  177.7260  144.4110 C   0  0  1  0  0  3  0  0  0  0  0  0
  185.8840  179.4150  147.2630 C   0  0  0  0  0  0  0  0  0  0  0  0
  184.8150  179.4960  144.9680 C   0  0  0  0  0  2  0  0  0  0  0  0
  185.0060  176.0400  146.3770 O   0  0  0  0  0  1  0  0  0  0  0  0
  186.6490  180.0980  148.3380 C   0  0  0  0  0  1  0  0  0  0  0  0
  185.5840  180.1180  146.0480 N   0  0  0  0  0  2  0  0  0  0  0  0
  184.7990  177.4180  146.3140 C   0  0  2  0  0  3  0  0  0  0  0  0
  185.0890  177.9890  144.9130 C   0  0  2  0  0  3  0  0  0  0  0  0
  185.5670  178.1260  147.3930 C   0  0  0  0  0  3  0  0  0  0  0  0
  1  9  1  0  0  0  0
  1  6  1  0  0  0  0
  2  3  1  1  0  0  0
  2  5  1  0  0  0  0
  3  7  1  0  0  0  0
  4  7  2  0  0  0  0
  4 11  1  0  0  0  0
  5 14  1  0  0  0  0
  5 16  2  0  0  0  0
  8 21  1  6  0  0  0
  8 12  1  0  0  0  0
 10 19  1  0  0  0  0
 12 16  1  0  0  0  0
 13 18  1  6  0  0  0
 13  2  1  0  0  0  0
 13  8  1  0  0  0  0
 14  1  2  0  0  0  0
 15  4  1  0  0  0  0
 16 17  1  0  0  0  0
 17  6  2  0  0  0  0
 18 10  1  0  0  0  0
 19  3  2  0  0  0  0
 20 19  1  0  0  0  0
 20 15  2  0  0  0  0
 21 23  1  0  0  0  0
 23 22  1  6  0  0  0
 24 31  2  0  0  0  0
 24 27  1  0  0  0  0
 25 28  1  0  0  0  0
 28 24  1  0  0  0  0
 29 26  1  6  0  0  0
 29 31  1  0  0  0  0
 30 23  1  1  0  0  0
 30 25  1  0  0  0  0
 30 29  1  0  0  0  0
M  END
>  <MODEL>
9

>  <REMARK>
 VINA RESULT:      -7.6      1.914      2.812
  Name = 
  3 active torsions:
  status: ('A' for Active; 'I' for Inactive)
    1  A    between atoms: C_5  and  O_16
    2  A    between atoms: C_5  and  C_30
    3  A    between atoms: C_10  and  O_16
                            x       y       z     vdW  Elec       q    Type
                         _______ _______ _______ _____ _____    ______ ____

>  <TORSDO>
F 3

$$$$
