=
 OpenBabel11112417083D

 37 43  0  0  1  0  0  0  0  0999 V2000
  188.1870  174.6890  140.6670 C   0  0  0  0  0  2  0  0  0  0  0  0
  186.1430  177.5840  143.2570 C   0  0  0  0  0  0  0  0  0  0  0  0
  189.3440  175.6710  145.2780 C   0  0  2  0  0  3  0  0  0  0  0  0
  188.5840  173.7510  139.5160 C   0  0  2  0  0  3  0  0  0  0  0  0
  190.9070  172.9020  143.8320 O   0  0  0  0  0  0  0  0  0  0  0  0
  187.8300  177.5720  145.1660 C   0  0  2  0  0  3  0  0  0  0  0  0
  189.8010  175.0080  144.2030 C   0  0  0  0  0  0  0  0  0  0  0  0
  189.8750  172.0610  140.2520 C   0  0  2  0  0  3  0  0  0  0  0  0
  187.9330  176.0720  145.0600 C   0  0  1  0  0  3  0  0  0  0  0  0
  191.1120  174.2870  143.9630 C   0  0  1  0  0  3  0  0  0  0  0  0
  188.1910  177.9560  146.5980 C   0  0  0  0  0  2  0  0  0  0  0  0
  189.9220  173.3320  139.6460 O   0  0  0  0  0  0  0  0  0  0  0  0
  187.6960  175.6700  143.6640 C   0  0  1  0  0  3  0  0  0  0  0  0
  186.9680  178.4550  142.3240 C   0  0  0  0  0  1  0  0  0  0  0  0
  191.4880  175.8870  146.6740 C   0  0  0  0  0  2  0  0  0  0  0  0
  189.6570  177.5590  146.8880 C   0  0  0  0  0  2  0  0  0  0  0  0
  186.4450  176.0930  142.9620 C   0  0  0  0  0  2  0  0  0  0  0  0
  189.8010  172.1500  141.7930 C   0  0  1  0  0  3  0  0  0  0  0  0
  191.1080  172.6320  142.4660 C   0  0  0  0  0  2  0  0  0  0  0  0
  189.9820  176.0750  146.5910 C   0  0  1  0  0  3  0  0  0  0  0  0
  188.7520  175.0280  143.1870 C   0  0  0  0  0  0  0  0  0  0  0  0
  186.4200  177.9890  144.7310 C   0  0  0  0  0  2  0  0  0  0  0  0
  192.2620  174.6350  144.9110 C   0  0  1  0  0  3  0  0  0  0  0  0
  184.6800  177.8370  142.9610 C   0  0  0  0  0  1  0  0  0  0  0  0
  188.6460  172.8520  142.2130 O   0  0  0  0  0  0  0  0  0  0  0  0
  190.9820  171.3090  139.8580 O   0  0  0  0  0  1  0  0  0  0  0  0
  188.8590  174.2150  141.9450 C   0  0  1  0  0  3  0  0  0  0  0  0
  191.8630  174.5370  146.3030 N   0  0  0  0  0  2  0  0  0  0  0  0
  193.8980  172.8520  145.5410 C   0  0  0  0  0  3  0  0  0  0  0  0
  193.5060  173.8450  144.6360 C   0  0  0  0  0  0  0  0  0  0  0  0
  194.3060  174.1130  143.5140 C   0  0  0  0  0  3  0  0  0  0  0  0
  196.2820  173.6560  142.1550 N   0  0  0  0  0  1  0  0  0  0  0  0
  195.8590  172.3870  144.1990 C   0  0  0  0  0  3  0  0  0  0  0  0
  195.4770  173.3830  143.2960 C   0  0  0  0  0  0  0  0  0  0  0  0
  195.0700  172.1230  145.3220 C   0  0  0  0  0  3  0  0  0  0  0  0
  189.4030  174.0670  137.2960 O   0  0  0  0  0  1  0  0  0  0  0  0
  188.3930  174.4480  138.1820 C   0  0  0  0  0  2  0  0  0  0  0  0
  1 27  1  0  0  0  0
  2 22  1  0  0  0  0
  3  7  1  6  0  0  0
  3 20  1  0  0  0  0
  4 37  1  6  0  0  0
  4 12  1  0  0  0  0
  4  1  1  0  0  0  0
  5 10  1  0  0  0  0
  6 22  1  1  0  0  0
  6 11  1  0  0  0  0
  8 26  1  1  0  0  0
  8 18  1  0  0  0  0
  9  6  1  0  0  0  0
  9  3  1  0  0  0  0
 10  7  1  0  0  0  0
 10 23  1  0  0  0  0
 11 16  1  0  0  0  0
 12  8  1  0  0  0  0
 13  9  1  0  0  0  0
 14  2  1  0  0  0  0
 17  2  1  0  0  0  0
 17 13  1  0  0  0  0
 18 25  1  0  0  0  0
 18 19  1  0  0  0  0
 19  5  1  0  0  0  0
 20 15  1  0  0  0  0
 20 16  1  0  0  0  0
 21 13  1  0  0  0  0
 21  7  2  0  0  0  0
 23 28  1  0  0  0  0
 24  2  1  0  0  0  0
 27 25  1  0  0  0  0
 27 21  1  0  0  0  0
 28 15  1  0  0  0  0
 30 23  1  0  0  0  0
 30 29  2  0  0  0  0
 31 30  1  0  0  0  0
 32 34  1  0  0  0  0
 33 35  2  0  0  0  0
 34 31  2  0  0  0  0
 34 33  1  0  0  0  0
 35 29  1  0  0  0  0
 36 37  1  0  0  0  0
M  END
>  <MODEL>
1

>  <REMARK>
 VINA RESULT:      -8.8      0.000      0.000
  Name = 
  2 active torsions:
  status: ('A' for Active; 'I' for Inactive)
    1  A    between atoms: C_4  and  C_37
    2  A    between atoms: C_23  and  C_30
                            x       y       z     vdW  Elec       q    Type
                         _______ _______ _______ _____ _____    ______ ____

>  <TORSDO>
F 2

$$$$
=
 OpenBabel11112417083D

 37 43  0  0  1  0  0  0  0  0999 V2000
  186.9120  176.6730  141.9150 C   0  0  0  0  0  2  0  0  0  0  0  0
  185.0070  178.8420  145.2210 C   0  0  0  0  0  0  0  0  0  0  0  0
  188.5900  176.9400  146.4620 C   0  0  2  0  0  3  0  0  0  0  0  0
  187.2250  175.9980  140.5710 C   0  0  2  0  0  3  0  0  0  0  0  0
  190.1600  174.6440  144.3500 O   0  0  0  0  0  0  0  0  0  0  0  0
  186.9280  178.6660  146.8850 C   0  0  2  0  0  3  0  0  0  0  0  0
  188.9510  176.5270  145.2360 C   0  0  0  0  0  0  0  0  0  0  0  0
  188.7320  174.3460  140.8200 C   0  0  2  0  0  3  0  0  0  0  0  0
  187.1350  177.2270  146.4880 C   0  0  1  0  0  3  0  0  0  0  0  0
  190.2710  175.9980  144.7150 C   0  0  1  0  0  3  0  0  0  0  0  0
  187.4450  178.8270  148.3120 C   0  0  0  0  0  2  0  0  0  0  0  0
  188.5970  175.7010  140.4620 O   0  0  0  0  0  0  0  0  0  0  0  0
  186.7470  177.0550  145.0790 C   0  0  1  0  0  3  0  0  0  0  0  0
  185.6290  179.9440  144.3790 C   0  0  0  0  0  1  0  0  0  0  0  0
  190.8760  177.1250  147.6150 C   0  0  0  0  0  2  0  0  0  0  0  0
  188.9630  178.5370  148.3500 C   0  0  0  0  0  2  0  0  0  0  0  0
  185.3840  177.4660  144.6190 C   0  0  0  0  0  2  0  0  0  0  0  0
  188.8560  174.1540  142.3500 C   0  0  1  0  0  3  0  0  0  0  0  0
  190.1990  174.6400  142.9440 C   0  0  0  0  0  2  0  0  0  0  0  0
  189.3620  177.1690  147.7440 C   0  0  1  0  0  3  0  0  0  0  0  0
  187.7780  176.6190  144.3700 C   0  0  0  0  0  0  0  0  0  0  0  0
  185.4450  179.0070  146.7020 C   0  0  0  0  0  2  0  0  0  0  0  0
  191.5060  176.2890  145.5710 C   0  0  1  0  0  3  0  0  0  0  0  0
  183.5020  178.9930  145.1510 C   0  0  0  0  0  1  0  0  0  0  0  0
  187.7160  174.6490  143.0250 O   0  0  0  0  0  0  0  0  0  0  0  0
  189.8340  173.7920  140.1670 O   0  0  0  0  0  1  0  0  0  0  0  0
  187.7830  176.0520  142.9940 C   0  0  1  0  0  3  0  0  0  0  0  0
  191.3040  175.9070  146.9560 N   0  0  0  0  0  2  0  0  0  0  0  0
  193.3340  174.5850  145.6470 C   0  0  0  0  0  3  0  0  0  0  0  0
  192.7610  175.6910  145.0100 C   0  0  0  0  0  0  0  0  0  0  0  0
  193.3930  176.2470  143.8860 C   0  0  0  0  0  3  0  0  0  0  0  0
  195.2140  176.2530  142.2600 N   0  0  0  0  0  1  0  0  0  0  0  0
  195.1420  174.5800  144.0370 C   0  0  0  0  0  3  0  0  0  0  0  0
  194.5790  175.6890  143.4010 C   0  0  0  0  0  0  0  0  0  0  0  0
  194.5200  174.0290  145.1610 C   0  0  0  0  0  3  0  0  0  0  0  0
  185.9820  177.9210  139.8930 O   0  0  0  0  0  1  0  0  0  0  0  0
  186.8040  176.8960  139.4210 C   0  0  0  0  0  2  0  0  0  0  0  0
  1 27  1  0  0  0  0
  2 22  1  0  0  0  0
  3  7  1  6  0  0  0
  3  9  1  0  0  0  0
  3 20  1  0  0  0  0
  4 37  1  6  0  0  0
  4  1  1  0  0  0  0
  5 10  1  0  0  0  0
  6 22  1  1  0  0  0
  6 11  1  0  0  0  0
  8 26  1  6  0  0  0
  8 18  1  0  0  0  0
  9  6  1  0  0  0  0
 10  7  1  0  0  0  0
 10 23  1  0  0  0  0
 11 16  1  0  0  0  0
 12  4  1  0  0  0  0
 12  8  1  0  0  0  0
 13  9  1  0  0  0  0
 14  2  1  0  0  0  0
 15 20  1  0  0  0  0
 17 13  1  0  0  0  0
 17  2  1  0  0  0  0
 18 19  1  0  0  0  0
 18 25  1  0  0  0  0
 19  5  1  0  0  0  0
 20 16  1  0  0  0  0
 21 13  1  0  0  0  0
 21  7  2  0  0  0  0
 23 28  1  0  0  0  0
 24  2  1  0  0  0  0
 27 25  1  0  0  0  0
 27 21  1  0  0  0  0
 28 15  1  0  0  0  0
 30 23  1  0  0  0  0
 30 29  2  0  0  0  0
 31 30  1  0  0  0  0
 32 34  1  0  0  0  0
 33 35  2  0  0  0  0
 34 31  2  0  0  0  0
 34 33  1  0  0  0  0
 35 29  1  0  0  0  0
 37 36  1  0  0  0  0
M  END
>  <MODEL>
2

>  <REMARK>
 VINA RESULT:      -8.2      1.899      2.473
  Name = 
  2 active torsions:
  status: ('A' for Active; 'I' for Inactive)
    1  A    between atoms: C_4  and  C_37
    2  A    between atoms: C_23  and  C_30
                            x       y       z     vdW  Elec       q    Type
                         _______ _______ _______ _____ _____    ______ ____

>  <TORSDO>
F 2

$$$$
=
 OpenBabel11112417083D

 37 43  0  0  1  0  0  0  0  0999 V2000
  193.8580  174.3700  145.1370 C   0  0  0  0  0  2  0  0  0  0  0  0
  191.0980  176.7080  147.6230 C   0  0  0  0  0  0  0  0  0  0  0  0
  189.5880  176.1730  143.6950 C   0  0  2  0  0  3  0  0  0  0  0  0
  195.0740  173.6100  144.5860 C   0  0  2  0  0  3  0  0  0  0  0  0
  191.6560  174.8730  141.2000 O   0  0  0  0  0  0  0  0  0  0  0  0
  189.1140  176.6890  146.0260 C   0  0  2  0  0  3  0  0  0  0  0  0
  190.5620  175.3420  143.2920 C   0  0  0  0  0  0  0  0  0  0  0  0
  195.0710  173.5920  142.3350 C   0  0  2  0  0  3  0  0  0  0  0  0
  190.0460  176.9530  144.8710 C   0  0  1  0  0  3  0  0  0  0  0  0
  190.6560  174.4320  142.0840 C   0  0  1  0  0  3  0  0  0  0  0  0
  187.7390  177.2260  145.6370 C   0  0  0  0  0  2  0  0  0  0  0  0
  194.7170  172.8320  143.4670 O   0  0  0  0  0  0  0  0  0  0  0  0
  191.3580  176.3530  145.1640 C   0  0  1  0  0  3  0  0  0  0  0  0
  190.9120  175.2840  148.1210 C   0  0  0  0  0  1  0  0  0  0  0  0
  187.6500  175.4360  142.1800 C   0  0  0  0  0  2  0  0  0  0  0  0
  187.2070  176.4510  144.4090 C   0  0  0  0  0  2  0  0  0  0  0  0
  192.0800  176.7050  146.4260 C   0  0  0  0  0  2  0  0  0  0  0  0
  193.9640  174.5940  141.9350 C   0  0  1  0  0  3  0  0  0  0  0  0
  192.6990  173.9380  141.3330 C   0  0  0  0  0  2  0  0  0  0  0  0
  188.1780  176.4280  143.2040 C   0  0  1  0  0  3  0  0  0  0  0  0
  191.6690  175.4580  144.2390 C   0  0  0  0  0  0  0  0  0  0  0  0
  189.7140  177.3270  147.2840 C   0  0  0  0  0  2  0  0  0  0  0  0
  189.3380  174.0990  141.3800 C   0  0  1  0  0  3  0  0  0  0  0  0
  191.7180  177.5170  148.7420 C   0  0  0  0  0  1  0  0  0  0  0  0
  193.6950  175.5090  142.9810 O   0  0  0  0  0  0  0  0  0  0  0  0
  195.3690  172.7420  141.2700 O   0  0  0  0  0  1  0  0  0  0  0  0
  192.9860  174.8170  143.9760 C   0  0  1  0  0  3  0  0  0  0  0  0
  188.5740  175.2950  141.0720 N   0  0  0  0  0  2  0  0  0  0  0  0
  189.2200  173.7560  138.9070 C   0  0  0  0  0  3  0  0  0  0  0  0
  189.5230  173.2350  140.1690 C   0  0  0  0  0  0  0  0  0  0  0  0
  189.9520  171.9030  140.2840 C   0  0  0  0  0  3  0  0  0  0  0  0
  190.5260  169.7610  139.2640 N   0  0  0  0  0  1  0  0  0  0  0  0
  189.7910  171.6370  137.8840 C   0  0  0  0  0  3  0  0  0  0  0  0
  190.0880  171.1090  139.1430 C   0  0  0  0  0  0  0  0  0  0  0  0
  189.3560  172.9600  137.7660 C   0  0  0  0  0  3  0  0  0  0  0  0
  196.9070  173.2160  146.0650 O   0  0  0  0  0  1  0  0  0  0  0  0
  195.6670  172.7170  145.6610 C   0  0  0  0  0  2  0  0  0  0  0  0
  2 14  1  0  0  0  0
  2 24  1  0  0  0  0
  3  7  1  1  0  0  0
  3  9  1  0  0  0  0
  4  1  1  0  0  0  0
  4 37  1  1  0  0  0
  5 19  1  0  0  0  0
  5 10  1  0  0  0  0
  6 11  1  6  0  0  0
  6 22  1  0  0  0  0
  7 21  2  0  0  0  0
  8 26  1  6  0  0  0
  8 12  1  0  0  0  0
  9 13  1  0  0  0  0
  9  6  1  0  0  0  0
 10  7  1  0  0  0  0
 12  4  1  0  0  0  0
 13 17  1  0  0  0  0
 15 20  1  0  0  0  0
 16 11  1  0  0  0  0
 17  2  1  0  0  0  0
 18  8  1  0  0  0  0
 18 25  1  0  0  0  0
 19 18  1  0  0  0  0
 20  3  1  0  0  0  0
 20 16  1  0  0  0  0
 21 13  1  0  0  0  0
 22  2  1  0  0  0  0
 23 10  1  0  0  0  0
 25 27  1  0  0  0  0
 27 21  1  0  0  0  0
 27  1  1  0  0  0  0
 28 23  1  0  0  0  0
 28 15  1  0  0  0  0
 29 30  1  0  0  0  0
 30 31  2  0  0  0  0
 30 23  1  0  0  0  0
 33 34  2  0  0  0  0
 34 32  1  0  0  0  0
 34 31  1  0  0  0  0
 35 33  1  0  0  0  0
 35 29  2  0  0  0  0
 37 36  1  0  0  0  0
M  END
>  <MODEL>
3

>  <REMARK>
 VINA RESULT:      -8.0      2.639      6.118
  Name = 
  2 active torsions:
  status: ('A' for Active; 'I' for Inactive)
    1  A    between atoms: C_4  and  C_37
    2  A    between atoms: C_23  and  C_30
                            x       y       z     vdW  Elec       q    Type
                         _______ _______ _______ _____ _____    ______ ____

>  <TORSDO>
F 2

$$$$
=
 OpenBabel11112417083D

 37 43  0  0  1  0  0  0  0  0999 V2000
  189.5080  174.4010  141.8410 C   0  0  0  0  0  2  0  0  0  0  0  0
  189.2150  176.3380  145.7690 C   0  0  0  0  0  0  0  0  0  0  0  0
  193.1590  174.9860  144.9870 C   0  0  2  0  0  3  0  0  0  0  0  0
  189.2030  173.7530  140.4820 C   0  0  2  0  0  3  0  0  0  0  0  0
  193.7710  172.8980  142.2550 O   0  0  0  0  0  0  0  0  0  0  0  0
  191.7110  176.4670  146.2630 C   0  0  2  0  0  3  0  0  0  0  0  0
  192.9190  174.6060  143.7210 C   0  0  0  0  0  0  0  0  0  0  0  0
  190.8410  172.3350  139.8700 C   0  0  2  0  0  3  0  0  0  0  0  0
  191.8830  175.0640  145.7390 C   0  0  1  0  0  3  0  0  0  0  0  0
  193.8670  174.2600  142.5910 C   0  0  1  0  0  3  0  0  0  0  0  0
  192.8380  176.7250  147.2600 C   0  0  0  0  0  2  0  0  0  0  0  0
  190.3690  173.6510  139.6980 O   0  0  0  0  0  0  0  0  0  0  0  0
  190.8770  174.8130  144.6940 C   0  0  1  0  0  3  0  0  0  0  0  0
  189.1890  177.5010  144.7910 C   0  0  0  0  0  1  0  0  0  0  0  0
  195.6690  175.5140  144.8770 C   0  0  0  0  0  2  0  0  0  0  0  0
  194.2000  176.6530  146.5320 C   0  0  0  0  0  2  0  0  0  0  0  0
  189.4240  175.0180  144.9850 C   0  0  0  0  0  2  0  0  0  0  0  0
  191.7280  172.1910  141.1280 C   0  0  1  0  0  3  0  0  0  0  0  0
  193.1110  172.8740  141.0130 C   0  0  0  0  0  2  0  0  0  0  0  0
  194.4250  175.3460  145.7350 C   0  0  1  0  0  3  0  0  0  0  0  0
  191.4710  174.5150  143.5480 C   0  0  0  0  0  0  0  0  0  0  0  0
  190.3000  176.5910  146.8510 C   0  0  0  0  0  2  0  0  0  0  0  0
  195.3130  174.7390  142.7450 C   0  0  1  0  0  3  0  0  0  0  0  0
  187.8670  176.2720  146.4540 C   0  0  0  0  0  1  0  0  0  0  0  0
  191.0150  172.5320  142.3020 O   0  0  0  0  0  0  0  0  0  0  0  0
  191.5390  171.9310  138.7310 O   0  0  0  0  0  1  0  0  0  0  0  0
  190.8720  173.9290  142.3190 C   0  0  1  0  0  3  0  0  0  0  0  0
  195.8730  174.3570  144.0280 N   0  0  0  0  0  2  0  0  0  0  0  0
  197.0800  173.2480  141.7950 C   0  0  0  0  0  3  0  0  0  0  0  0
  196.1940  174.3140  141.6090 C   0  0  0  0  0  0  0  0  0  0  0  0
  196.1770  174.9950  140.3810 C   0  0  0  0  0  3  0  0  0  0  0  0
  197.0070  175.2890  138.1040 N   0  0  0  0  0  1  0  0  0  0  0  0
  197.9080  173.5280  139.5360 C   0  0  0  0  0  3  0  0  0  0  0  0
  197.0300  174.5990  139.3480 C   0  0  0  0  0  0  0  0  0  0  0  0
  197.9330  172.8530  140.7610 C   0  0  0  0  0  3  0  0  0  0  0  0
  187.8170  175.6960  140.4750 O   0  0  0  0  0  1  0  0  0  0  0  0
  188.1560  174.5610  139.7380 C   0  0  0  0  0  2  0  0  0  0  0  0
  1 27  1  0  0  0  0
  2 24  1  0  0  0  0
  2 22  1  0  0  0  0
  3  7  1  6  0  0  0
  3 20  1  0  0  0  0
  3  9  1  0  0  0  0
  4 37  1  6  0  0  0
  4  1  1  0  0  0  0
  5 10  1  0  0  0  0
  6 22  1  1  0  0  0
  6 11  1  0  0  0  0
  8 26  1  6  0  0  0
  8 18  1  0  0  0  0
  9  6  1  0  0  0  0
 10 23  1  0  0  0  0
 10  7  1  0  0  0  0
 12  8  1  0  0  0  0
 12  4  1  0  0  0  0
 13 17  1  0  0  0  0
 13  9  1  0  0  0  0
 14  2  1  0  0  0  0
 15 20  1  0  0  0  0
 16 11  1  0  0  0  0
 17  2  1  0  0  0  0
 18 25  1  0  0  0  0
 19 18  1  0  0  0  0
 19  5  1  0  0  0  0
 20 16  1  0  0  0  0
 21  7  2  0  0  0  0
 21 13  1  0  0  0  0
 23 28  1  0  0  0  0
 25 27  1  0  0  0  0
 27 21  1  0  0  0  0
 28 15  1  0  0  0  0
 30 29  1  0  0  0  0
 30 23  1  0  0  0  0
 31 30  2  0  0  0  0
 32 34  1  0  0  0  0
 33 35  1  0  0  0  0
 34 33  2  0  0  0  0
 34 31  1  0  0  0  0
 35 29  2  0  0  0  0
 37 36  1  0  0  0  0
M  END
>  <MODEL>
4

>  <REMARK>
 VINA RESULT:      -7.9      2.156      3.707
  Name = 
  2 active torsions:
  status: ('A' for Active; 'I' for Inactive)
    1  A    between atoms: C_4  and  C_37
    2  A    between atoms: C_23  and  C_30
                            x       y       z     vdW  Elec       q    Type
                         _______ _______ _______ _____ _____    ______ ____

>  <TORSDO>
F 2

$$$$
=
 OpenBabel11112417083D

 37 43  0  0  1  0  0  0  0  0999 V2000
  193.1180  175.5940  145.1350 C   0  0  0  0  0  2  0  0  0  0  0  0
  193.8020  173.3540  141.4240 C   0  0  0  0  0  0  0  0  0  0  0  0
  189.6850  174.1990  141.9990 C   0  0  2  0  0  3  0  0  0  0  0  0
  193.2710  176.2860  146.4990 C   0  0  2  0  0  3  0  0  0  0  0  0
  188.5810  175.4600  145.0630 O   0  0  0  0  0  0  0  0  0  0  0  0
  191.4630  173.6050  140.4470 C   0  0  2  0  0  3  0  0  0  0  0  0
  189.8600  174.9720  143.0830 C   0  0  0  0  0  0  0  0  0  0  0  0
  191.2970  176.4160  147.5720 C   0  0  2  0  0  3  0  0  0  0  0  0
  190.8710  173.3280  141.8050 C   0  0  1  0  0  3  0  0  0  0  0  0
  188.9180  175.9310  143.7820 C   0  0  1  0  0  3  0  0  0  0  0  0
  190.4270  173.1950  139.4030 C   0  0  0  0  0  2  0  0  0  0  0  0
  192.1840  177.1440  146.7540 O   0  0  0  0  0  0  0  0  0  0  0  0
  191.7970  173.8100  142.8420 C   0  0  1  0  0  3  0  0  0  0  0  0
  194.2650  174.7620  141.0850 C   0  0  0  0  0  1  0  0  0  0  0  0
  187.4980  175.1570  141.0550 C   0  0  0  0  0  2  0  0  0  0  0  0
  189.1620  174.0690  139.5570 C   0  0  0  0  0  2  0  0  0  0  0  0
  193.2180  173.3410  142.8580 C   0  0  0  0  0  2  0  0  0  0  0  0
  190.3410  175.5230  146.7480 C   0  0  1  0  0  3  0  0  0  0  0  0
  189.2670  176.3040  145.9540 C   0  0  0  0  0  2  0  0  0  0  0  0
  188.5660  174.0770  140.9860 C   0  0  1  0  0  3  0  0  0  0  0  0
  191.2050  174.7240  143.5960 C   0  0  0  0  0  0  0  0  0  0  0  0
  192.8000  172.8610  140.3440 C   0  0  0  0  0  2  0  0  0  0  0  0
  187.7030  176.3990  142.9760 C   0  0  1  0  0  3  0  0  0  0  0  0
  195.0130  172.4450  141.3980 C   0  0  0  0  0  1  0  0  0  0  0  0
  191.0570  174.5810  145.9730 O   0  0  0  0  0  0  0  0  0  0  0  0
  190.5720  177.2930  148.3800 O   0  0  0  0  0  1  0  0  0  0  0  0
  191.6500  175.2750  144.9050 C   0  0  1  0  0  3  0  0  0  0  0  0
  186.9750  175.2830  142.4010 N   0  0  0  0  0  2  0  0  0  0  0  0
  186.7530  178.6660  143.4320 C   0  0  0  0  0  3  0  0  0  0  0  0
  186.7990  177.3050  143.7550 C   0  0  0  0  0  0  0  0  0  0  0  0
  186.0320  176.8220  144.8280 C   0  0  0  0  0  3  0  0  0  0  0  0
  184.4410  177.1980  146.6410 N   0  0  0  0  0  1  0  0  0  0  0  0
  185.1720  179.0500  145.2260 C   0  0  0  0  0  3  0  0  0  0  0  0
  185.2190  177.6930  145.5580 C   0  0  0  0  0  0  0  0  0  0  0  0
  185.9410  179.5360  144.1640 C   0  0  0  0  0  3  0  0  0  0  0  0
  194.9370  177.4590  145.2540 O   0  0  0  0  0  1  0  0  0  0  0  0
  194.5670  177.0750  146.5440 C   0  0  0  0  0  2  0  0  0  0  0  0
  1  4  1  0  0  0  0
  2 17  1  0  0  0  0
  3  7  1  6  0  0  0
  4 37  1  6  0  0  0
  4 12  1  0  0  0  0
  5 19  1  0  0  0  0
  6 11  1  6  0  0  0
  6  9  1  0  0  0  0
  7 21  2  0  0  0  0
  7 10  1  0  0  0  0
  8 26  1  6  0  0  0
  9  3  1  0  0  0  0
  9 13  1  0  0  0  0
 10  5  1  0  0  0  0
 11 16  1  0  0  0  0
 12  8  1  0  0  0  0
 13 17  1  0  0  0  0
 13 21  1  0  0  0  0
 14  2  1  0  0  0  0
 15 28  1  0  0  0  0
 16 20  1  0  0  0  0
 18  8  1  0  0  0  0
 19 18  1  0  0  0  0
 20 15  1  0  0  0  0
 20  3  1  0  0  0  0
 21 27  1  0  0  0  0
 22  6  1  0  0  0  0
 22  2  1  0  0  0  0
 23 30  1  0  0  0  0
 23 10  1  0  0  0  0
 24  2  1  0  0  0  0
 25 18  1  0  0  0  0
 27  1  1  0  0  0  0
 27 25  1  0  0  0  0
 28 23  1  0  0  0  0
 29 30  2  0  0  0  0
 29 35  1  0  0  0  0
 30 31  1  0  0  0  0
 31 34  2  0  0  0  0
 33 34  1  0  0  0  0
 34 32  1  0  0  0  0
 35 33  2  0  0  0  0
 36 37  1  0  0  0  0
M  END
>  <MODEL>
5

>  <REMARK>
 VINA RESULT:      -7.7      3.189      8.042
  Name = 
  2 active torsions:
  status: ('A' for Active; 'I' for Inactive)
    1  A    between atoms: C_4  and  C_37
    2  A    between atoms: C_23  and  C_30
                            x       y       z     vdW  Elec       q    Type
                         _______ _______ _______ _____ _____    ______ ____

>  <TORSDO>
F 2

$$$$
=
 OpenBabel11112417083D

 37 43  0  0  1  0  0  0  0  0999 V2000
  188.8770  174.6610  141.8290 C   0  0  0  0  0  2  0  0  0  0  0  0
  187.4980  176.8130  145.3960 C   0  0  0  0  0  0  0  0  0  0  0  0
  191.4750  175.4130  145.8600 C   0  0  2  0  0  3  0  0  0  0  0  0
  188.9660  173.9380  140.4750 C   0  0  2  0  0  3  0  0  0  0  0  0
  192.8120  173.1760  143.5350 O   0  0  0  0  0  0  0  0  0  0  0  0
  189.7470  176.9650  146.5830 C   0  0  2  0  0  3  0  0  0  0  0  0
  191.6040  174.9640  144.6000 C   0  0  0  0  0  0  0  0  0  0  0  0
  190.6850  172.4860  140.4380 C   0  0  2  0  0  3  0  0  0  0  0  0
  190.0380  175.5350  146.2060 C   0  0  1  0  0  3  0  0  0  0  0  0
  192.8310  174.5540  143.8120 C   0  0  1  0  0  3  0  0  0  0  0  0
  190.5430  177.2770  147.8480 C   0  0  0  0  0  2  0  0  0  0  0  0
  190.3060  173.7920  140.0690 O   0  0  0  0  0  0  0  0  0  0  0  0
  189.3720  175.2290  144.9300 C   0  0  1  0  0  3  0  0  0  0  0  0
  187.7750  177.9200  144.3930 C   0  0  0  0  0  1  0  0  0  0  0  0
  193.9190  175.9310  146.4520 C   0  0  0  0  0  2  0  0  0  0  0  0
  192.0560  177.1620  147.5490 C   0  0  0  0  0  2  0  0  0  0  0  0
  187.9000  175.4520  144.7770 C   0  0  0  0  0  2  0  0  0  0  0  0
  191.1680  172.4110  141.9050 C   0  0  1  0  0  3  0  0  0  0  0  0
  192.5380  173.0840  142.1580 C   0  0  0  0  0  2  0  0  0  0  0  0
  192.4780  175.8120  146.9210 C   0  0  1  0  0  3  0  0  0  0  0  0
  190.2660  174.8660  144.0220 C   0  0  0  0  0  0  0  0  0  0  0  0
  188.2290  177.1240  146.7310 C   0  0  0  0  0  2  0  0  0  0  0  0
  194.1790  175.0380  144.3520 C   0  0  1  0  0  3  0  0  0  0  0  0
  186.0080  176.7880  145.6650 C   0  0  0  0  0  1  0  0  0  0  0  0
  190.1530  172.8180  142.8030 O   0  0  0  0  0  0  0  0  0  0  0  0
  191.6740  172.0180  139.5730 O   0  0  0  0  0  1  0  0  0  0  0  0
  190.0360  174.2140  142.7040 C   0  0  1  0  0  3  0  0  0  0  0  0
  194.3390  174.7280  145.7600 N   0  0  0  0  0  2  0  0  0  0  0  0
  196.1510  173.5310  144.0570 C   0  0  0  0  0  3  0  0  0  0  0  0
  195.3430  174.5500  143.5430 C   0  0  0  0  0  0  0  0  0  0  0  0
  195.6600  175.1260  142.3020 C   0  0  0  0  0  3  0  0  0  0  0  0
  197.0830  175.2580  140.3230 N   0  0  0  0  0  1  0  0  0  0  0  0
  197.5680  173.6500  142.0970 C   0  0  0  0  0  3  0  0  0  0  0  0
  196.7680  174.6740  141.5810 C   0  0  0  0  0  0  0  0  0  0  0  0
  197.2600  173.0800  143.3360 C   0  0  0  0  0  3  0  0  0  0  0  0
  188.0510  173.9250  138.2700 O   0  0  0  0  0  1  0  0  0  0  0  0
  188.1920  174.7060  139.4190 C   0  0  0  0  0  2  0  0  0  0  0  0
  1 27  1  0  0  0  0
  2 24  1  0  0  0  0
  2 22  1  0  0  0  0
  3  7  1  6  0  0  0
  3  9  1  0  0  0  0
  3 20  1  0  0  0  0
  4 37  1  6  0  0  0
  4  1  1  0  0  0  0
  5 10  1  0  0  0  0
  6 22  1  1  0  0  0
  6 11  1  0  0  0  0
  8 26  1  6  0  0  0
  8 18  1  0  0  0  0
  9  6  1  0  0  0  0
 10 23  1  0  0  0  0
 10  7  1  0  0  0  0
 12  8  1  0  0  0  0
 12  4  1  0  0  0  0
 13  9  1  0  0  0  0
 14  2  1  0  0  0  0
 15 20  1  0  0  0  0
 16 11  1  0  0  0  0
 17 13  1  0  0  0  0
 17  2  1  0  0  0  0
 18 19  1  0  0  0  0
 18 25  1  0  0  0  0
 19  5  1  0  0  0  0
 20 16  1  0  0  0  0
 21  7  2  0  0  0  0
 21 13  1  0  0  0  0
 23 28  1  0  0  0  0
 27 25  1  0  0  0  0
 27 21  1  0  0  0  0
 28 15  1  0  0  0  0
 30 29  1  0  0  0  0
 30 23  1  0  0  0  0
 31 30  2  0  0  0  0
 32 34  1  0  0  0  0
 33 35  1  0  0  0  0
 34 33  2  0  0  0  0
 34 31  1  0  0  0  0
 35 29  2  0  0  0  0
 36 37  1  0  0  0  0
M  END
>  <MODEL>
6

>  <REMARK>
 VINA RESULT:      -7.6      1.488      2.177
  Name = 
  2 active torsions:
  status: ('A' for Active; 'I' for Inactive)
    1  A    between atoms: C_4  and  C_37
    2  A    between atoms: C_23  and  C_30
                            x       y       z     vdW  Elec       q    Type
                         _______ _______ _______ _____ _____    ______ ____

>  <TORSDO>
F 2

$$$$
=
 OpenBabel11112417083D

 37 43  0  0  1  0  0  0  0  0999 V2000
  192.3040  170.5960  142.1290 C   0  0  0  0  0  2  0  0  0  0  0  0
  195.7380  171.0610  144.8220 C   0  0  0  0  0  0  0  0  0  0  0  0
  193.8280  174.7740  144.0760 C   0  0  2  0  0  3  0  0  0  0  0  0
  191.2550  170.0570  141.1440 C   0  0  2  0  0  3  0  0  0  0  0  0
  191.4060  175.0100  141.5700 O   0  0  0  0  0  0  0  0  0  0  0  0
  195.2930  173.4710  145.5160 C   0  0  2  0  0  3  0  0  0  0  0  0
  192.8020  174.2560  143.3800 C   0  0  0  0  0  0  0  0  0  0  0  0
  190.3270  171.7230  139.9500 C   0  0  2  0  0  3  0  0  0  0  0  0
  194.9610  173.8170  144.0870 C   0  0  1  0  0  3  0  0  0  0  0  0
  191.4760  174.8610  142.9660 C   0  0  1  0  0  3  0  0  0  0  0  0
  195.7750  174.7490  146.1970 C   0  0  0  0  0  2  0  0  0  0  0  0
  190.1350  170.9080  141.0830 O   0  0  0  0  0  0  0  0  0  0  0  0
  194.3910  172.6330  143.4250 C   0  0  1  0  0  3  0  0  0  0  0  0
  194.6690  170.4430  145.7070 C   0  0  0  0  0  1  0  0  0  0  0  0
  192.7590  176.9100  145.0180 C   0  0  0  0  0  2  0  0  0  0  0  0
  194.6320  175.7910  146.2140 C   0  0  0  0  0  2  0  0  0  0  0  0
  195.1420  171.3390  143.4200 C   0  0  0  0  0  2  0  0  0  0  0  0
  191.1970  172.9630  140.2620 C   0  0  1  0  0  3  0  0  0  0  0  0
  190.4970  174.0260  141.1430 C   0  0  0  0  0  2  0  0  0  0  0  0
  194.0160  176.0770  144.8230 C   0  0  1  0  0  3  0  0  0  0  0  0
  193.1680  172.8980  142.9880 C   0  0  0  0  0  0  0  0  0  0  0  0
  196.3160  172.3290  145.5090 C   0  0  0  0  0  2  0  0  0  0  0  0
  191.0350  176.1150  143.7250 C   0  0  1  0  0  3  0  0  0  0  0  0
  196.8580  170.0530  144.6670 C   0  0  0  0  0  1  0  0  0  0  0  0
  192.4800  172.5880  140.7240 O   0  0  0  0  0  0  0  0  0  0  0  0
  189.0900  172.1110  139.4330 O   0  0  0  0  0  1  0  0  0  0  0  0
  192.3340  172.1120  142.0380 C   0  0  1  0  0  3  0  0  0  0  0  0
  192.0790  177.1230  143.7550 N   0  0  0  0  0  2  0  0  0  0  0  0
  189.7580  177.8220  142.4180 C   0  0  0  0  0  3  0  0  0  0  0  0
  189.7390  176.6780  143.2220 C   0  0  0  0  0  0  0  0  0  0  0  0
  188.5090  176.1030  143.5800 C   0  0  0  0  0  3  0  0  0  0  0  0
  186.0690  176.0760  143.4860 N   0  0  0  0  0  1  0  0  0  0  0  0
  187.3390  177.8030  142.3140 C   0  0  0  0  0  3  0  0  0  0  0  0
  187.3130  176.6640  143.1240 C   0  0  0  0  0  0  0  0  0  0  0  0
  188.5610  178.3820  141.9630 C   0  0  0  0  0  3  0  0  0  0  0  0
  191.6670  168.1670  142.5440 O   0  0  0  0  0  1  0  0  0  0  0  0
  190.8160  168.6630  141.5550 C   0  0  0  0  0  2  0  0  0  0  0  0
  2 22  1  0  0  0  0
  2 14  1  0  0  0  0
  3  7  1  1  0  0  0
  3  9  1  0  0  0  0
  3 20  1  0  0  0  0
  4 37  1  1  0  0  0
  4  1  1  0  0  0  0
  5 10  1  0  0  0  0
  6 22  1  6  0  0  0
  6 11  1  0  0  0  0
  8 26  1  1  0  0  0
  8 18  1  0  0  0  0
  8 12  1  0  0  0  0
  9  6  1  0  0  0  0
 10  7  1  0  0  0  0
 10 23  1  0  0  0  0
 11 16  1  0  0  0  0
 12  4  1  0  0  0  0
 13  9  1  0  0  0  0
 17 13  1  0  0  0  0
 17  2  1  0  0  0  0
 18 25  1  0  0  0  0
 18 19  1  0  0  0  0
 19  5  1  0  0  0  0
 20 15  1  0  0  0  0
 20 16  1  0  0  0  0
 21  7  2  0  0  0  0
 21 13  1  0  0  0  0
 23 28  1  0  0  0  0
 24  2  1  0  0  0  0
 25 27  1  0  0  0  0
 27  1  1  0  0  0  0
 27 21  1  0  0  0  0
 28 15  1  0  0  0  0
 29 30  1  0  0  0  0
 30 31  2  0  0  0  0
 30 23  1  0  0  0  0
 33 34  2  0  0  0  0
 34 32  1  0  0  0  0
 34 31  1  0  0  0  0
 35 33  1  0  0  0  0
 35 29  2  0  0  0  0
 37 36  1  0  0  0  0
M  END
>  <MODEL>
7

>  <REMARK>
 VINA RESULT:      -7.5      2.325      7.045
  Name = 
  2 active torsions:
  status: ('A' for Active; 'I' for Inactive)
    1  A    between atoms: C_4  and  C_37
    2  A    between atoms: C_23  and  C_30
                            x       y       z     vdW  Elec       q    Type
                         _______ _______ _______ _____ _____    ______ ____

>  <TORSDO>
F 2

$$$$
=
 OpenBabel11112417083D

 37 43  0  0  1  0  0  0  0  0999 V2000
  189.7810  174.6870  141.0720 C   0  0  0  0  0  2  0  0  0  0  0  0
  193.7310  173.5180  142.5850 C   0  0  0  0  0  0  0  0  0  0  0  0
  191.7380  176.1220  145.2760 C   0  0  2  0  0  3  0  0  0  0  0  0
  188.5350  174.9160  140.2020 C   0  0  2  0  0  3  0  0  0  0  0  0
  188.8240  177.7630  144.2700 O   0  0  0  0  0  0  0  0  0  0  0  0
  193.4740  174.4500  144.9420 C   0  0  2  0  0  3  0  0  0  0  0  0
  190.5790  176.1490  144.5990 C   0  0  0  0  0  0  0  0  0  0  0  0
  187.3810  176.7210  140.8910 C   0  0  2  0  0  3  0  0  0  0  0  0
  192.8370  175.6930  144.3770 C   0  0  1  0  0  3  0  0  0  0  0  0
  189.2000  176.6260  145.0070 C   0  0  1  0  0  3  0  0  0  0  0  0
  194.1070  174.8270  146.2790 C   0  0  0  0  0  2  0  0  0  0  0  0
  187.4370  175.3170  140.9880 O   0  0  0  0  0  0  0  0  0  0  0  0
  192.1220  175.3480  143.1370 C   0  0  1  0  0  3  0  0  0  0  0  0
  192.8790  172.2810  142.8120 C   0  0  0  0  0  1  0  0  0  0  0  0
  190.9250  176.5890  147.6660 C   0  0  0  0  0  2  0  0  0  0  0  0
  193.0070  175.2860  147.2630 C   0  0  0  0  0  2  0  0  0  0  0  0
  192.8410  174.6550  142.0230 C   0  0  0  0  0  2  0  0  0  0  0  0
  188.3100  177.4160  141.9130 C   0  0  1  0  0  3  0  0  0  0  0  0
  187.8330  177.3100  143.3810 C   0  0  0  0  0  2  0  0  0  0  0  0
  192.1000  176.4160  146.7170 C   0  0  1  0  0  3  0  0  0  0  0  0
  190.8360  175.6430  143.2530 C   0  0  0  0  0  0  0  0  0  0  0  0
  194.4590  173.8990  143.9040 C   0  0  0  0  0  2  0  0  0  0  0  0
  188.9500  176.7760  146.5100 C   0  0  1  0  0  3  0  0  0  0  0  0
  194.7790  173.1810  141.5460 C   0  0  0  0  0  1  0  0  0  0  0  0
  189.6600  177.0420  141.7180 O   0  0  0  0  0  0  0  0  0  0  0  0
  186.0640  177.1530  141.0540 O   0  0  0  0  0  1  0  0  0  0  0  0
  189.8050  175.7240  142.1830 C   0  0  1  0  0  3  0  0  0  0  0  0
  189.9840  177.5650  147.1530 N   0  0  0  0  0  2  0  0  0  0  0  0
  186.4600  176.5600  146.4280 C   0  0  0  0  0  3  0  0  0  0  0  0
  187.5800  177.2980  146.8260 C   0  0  0  0  0  0  0  0  0  0  0  0
  187.4030  178.5310  147.4730 C   0  0  0  0  0  3  0  0  0  0  0  0
  185.9410  180.2600  148.3880 N   0  0  0  0  0  1  0  0  0  0  0  0
  185.0010  178.2660  147.3360 C   0  0  0  0  0  3  0  0  0  0  0  0
  186.1160  179.0110  147.7290 C   0  0  0  0  0  0  0  0  0  0  0  0
  185.1730  177.0410  146.6840 C   0  0  0  0  0  3  0  0  0  0  0  0
  187.9520  173.9460  138.1000 O   0  0  0  0  0  1  0  0  0  0  0  0
  188.1850  173.6490  139.4440 C   0  0  0  0  0  2  0  0  0  0  0  0
  1 27  1  0  0  0  0
  2 14  1  0  0  0  0
  2 22  1  0  0  0  0
  3  7  1  1  0  0  0
  3 20  1  0  0  0  0
  4 37  1  1  0  0  0
  4 12  1  0  0  0  0
  4  1  1  0  0  0  0
  5 10  1  0  0  0  0
  6 22  1  6  0  0  0
  6 11  1  0  0  0  0
  7 10  1  0  0  0  0
  8 12  1  0  0  0  0
  8 26  1  1  0  0  0
  8 18  1  0  0  0  0
  9  6  1  0  0  0  0
  9  3  1  0  0  0  0
 10 23  1  0  0  0  0
 11 16  1  0  0  0  0
 13 21  1  0  0  0  0
 13  9  1  0  0  0  0
 17  2  1  0  0  0  0
 17 13  1  0  0  0  0
 18 19  1  0  0  0  0
 19  5  1  0  0  0  0
 20 16  1  0  0  0  0
 20 15  1  0  0  0  0
 21  7  2  0  0  0  0
 23 30  1  0  0  0  0
 23 28  1  0  0  0  0
 24  2  1  0  0  0  0
 25 18  1  0  0  0  0
 25 27  1  0  0  0  0
 27 21  1  0  0  0  0
 28 15  1  0  0  0  0
 29 35  2  0  0  0  0
 29 30  1  0  0  0  0
 30 31  2  0  0  0  0
 31 34  1  0  0  0  0
 33 34  2  0  0  0  0
 34 32  1  0  0  0  0
 35 33  1  0  0  0  0
 36 37  1  0  0  0  0
M  END
>  <MODEL>
8

>  <REMARK>
 VINA RESULT:      -7.4      2.606      6.679
  Name = 
  2 active torsions:
  status: ('A' for Active; 'I' for Inactive)
    1  A    between atoms: C_4  and  C_37
    2  A    between atoms: C_23  and  C_30
                            x       y       z     vdW  Elec       q    Type
                         _______ _______ _______ _____ _____    ______ ____

>  <TORSDO>
F 2

$$$$
=
 OpenBabel11112417083D

 37 43  0  0  1  0  0  0  0  0999 V2000
  188.7010  175.3230  141.8060 C   0  0  0  0  0  2  0  0  0  0  0  0
  189.9640  175.9000  145.9690 C   0  0  0  0  0  0  0  0  0  0  0  0
  186.6070  178.3090  145.0090 C   0  0  2  0  0  3  0  0  0  0  0  0
  188.6120  174.9150  140.3270 C   0  0  2  0  0  3  0  0  0  0  0  0
  185.5860  178.6220  141.6840 O   0  0  0  0  0  0  0  0  0  0  0  0
  187.9510  177.2560  146.7430 C   0  0  2  0  0  3  0  0  0  0  0  0
  186.4210  177.7920  143.7830 C   0  0  0  0  0  0  0  0  0  0  0  0
  187.3500  176.3650  139.1570 C   0  0  2  0  0  3  0  0  0  0  0  0
  187.9950  178.0460  145.4600 C   0  0  1  0  0  3  0  0  0  0  0  0
  185.2440  177.8870  142.8330 C   0  0  1  0  0  3  0  0  0  0  0  0
  187.2920  178.1360  147.8010 C   0  0  0  0  0  2  0  0  0  0  0  0
  187.3140  175.1250  139.8230 O   0  0  0  0  0  0  0  0  0  0  0  0
  188.5270  177.1920  144.3860 C   0  0  1  0  0  3  0  0  0  0  0  0
  189.2620  174.5520  145.9900 C   0  0  0  0  0  1  0  0  0  0  0  0
  184.2250  179.0700  145.5920 C   0  0  0  0  0  2  0  0  0  0  0  0
  185.8360  178.4480  147.3840 C   0  0  0  0  0  2  0  0  0  0  0  0
  189.8500  176.5130  144.5510 C   0  0  0  0  0  2  0  0  0  0  0  0
  187.1200  177.5530  140.1190 C   0  0  1  0  0  3  0  0  0  0  0  0
  185.6730  177.6690  140.6530 C   0  0  0  0  0  2  0  0  0  0  0  0
  185.6990  179.0520  145.9660 C   0  0  1  0  0  3  0  0  0  0  0  0
  187.6390  177.0780  143.4100 C   0  0  0  0  0  0  0  0  0  0  0  0
  189.3770  176.8100  147.0830 C   0  0  0  0  0  2  0  0  0  0  0  0
  183.9090  178.3180  143.4450 C   0  0  1  0  0  3  0  0  0  0  0  0
  191.4300  175.6690  146.2680 C   0  0  0  0  0  1  0  0  0  0  0  0
  188.1110  177.5960  141.1290 O   0  0  0  0  0  0  0  0  0  0  0  0
  186.4040  176.3780  138.1300 O   0  0  0  0  0  1  0  0  0  0  0  0
  187.8400  176.5540  142.0310 C   0  0  1  0  0  3  0  0  0  0  0  0
  184.0420  179.5320  144.2300 N   0  0  0  0  0  2  0  0  0  0  0  0
  181.7130  179.2560  142.7050 C   0  0  0  0  0  3  0  0  0  0  0  0
  182.8110  178.4340  142.4310 C   0  0  0  0  0  0  0  0  0  0  0  0
  182.8450  177.7000  141.2340 C   0  0  0  0  0  3  0  0  0  0  0  0
  181.8360  177.0590  139.1060 N   0  0  0  0  0  1  0  0  0  0  0  0
  180.7040  178.6300  140.5940 C   0  0  0  0  0  3  0  0  0  0  0  0
  181.7950  177.8010  140.3180 C   0  0  0  0  0  0  0  0  0  0  0  0
  180.6630  179.3560  141.7880 C   0  0  0  0  0  3  0  0  0  0  0  0
  189.2680  172.8890  141.4070 O   0  0  0  0  0  1  0  0  0  0  0  0
  188.9950  173.4550  140.1610 C   0  0  0  0  0  2  0  0  0  0  0  0
  1 27  1  0  0  0  0
  2 14  1  0  0  0  0
  2 24  1  0  0  0  0
  2 22  1  0  0  0  0
  3  7  1  1  0  0  0
  3  9  1  0  0  0  0
  3 20  1  0  0  0  0
  4 37  1  1  0  0  0
  4  1  1  0  0  0  0
  5 10  1  0  0  0  0
  6 22  1  1  0  0  0
  6 11  1  0  0  0  0
  8 26  1  6  0  0  0
  8 12  1  0  0  0  0
  8 18  1  0  0  0  0
  9  6  1  0  0  0  0
 10 23  1  0  0  0  0
 10  7  1  0  0  0  0
 12  4  1  0  0  0  0
 13 17  1  0  0  0  0
 13  9  1  0  0  0  0
 15 20  1  0  0  0  0
 16 11  1  0  0  0  0
 17  2  1  0  0  0  0
 18 19  1  0  0  0  0
 18 25  1  0  0  0  0
 19  5  1  0  0  0  0
 20 16  1  0  0  0  0
 21  7  2  0  0  0  0
 21 13  1  0  0  0  0
 23 28  1  0  0  0  0
 25 27  1  0  0  0  0
 27 21  1  0  0  0  0
 28 15  1  0  0  0  0
 30 29  1  0  0  0  0
 30 23  1  0  0  0  0
 31 30  2  0  0  0  0
 32 34  1  0  0  0  0
 33 35  1  0  0  0  0
 34 33  2  0  0  0  0
 34 31  1  0  0  0  0
 35 29  2  0  0  0  0
 37 36  1  0  0  0  0
M  END
>  <MODEL>
9

>  <REMARK>
 VINA RESULT:      -7.2      3.680      7.930
  Name = 
  2 active torsions:
  status: ('A' for Active; 'I' for Inactive)
    1  A    between atoms: C_4  and  C_37
    2  A    between atoms: C_23  and  C_30
                            x       y       z     vdW  Elec       q    Type
                         _______ _______ _______ _____ _____    ______ ____

>  <TORSDO>
F 2

$$$$
