=
 OpenBabel11112417013D

 31 35  0  0  1  0  0  0  0  0999 V2000
  184.6540  178.2650  146.6780 C   0  0  0  0  0  0  0  0  0  0  0  0
  187.2770  176.0920  144.9820 C   0  0  2  0  0  3  0  0  0  0  0  0
  187.5300  176.7050  143.5810 C   0  0  2  0  0  3  0  0  0  0  0  0
  186.4610  177.7830  141.5860 C   0  0  2  0  0  3  0  0  0  0  0  0
  186.6410  177.0810  145.9350 C   0  0  0  0  0  0  0  0  0  0  0  0
  185.4170  178.9720  147.6090 C   0  0  0  0  0  3  0  0  0  0  0  0
  186.2070  177.1600  142.9520 C   0  0  0  0  0  2  0  0  0  0  0  0
  189.5050  176.6620  146.0210 C   0  0  2  0  0  3  0  0  0  0  0  0
  183.3230  178.4960  146.5780 F   0  0  0  0  0  0  0  0  0  0  0  0
  189.4650  175.3250  143.2510 C   0  0  0  0  0  2  0  0  0  0  0  0
  185.1420  178.1380  140.9360 C   0  0  0  0  0  1  0  0  0  0  0  0
  188.8530  177.4690  147.1420 C   0  0  0  0  0  2  0  0  0  0  0  0
  188.5770  175.5200  145.5770 C   0  0  2  0  0  3  0  0  0  0  0  0
  185.2630  177.3220  145.8480 C   0  0  0  0  0  3  0  0  0  0  0  0
  187.2180  176.8010  140.7030 C   0  0  0  0  0  2  0  0  0  0  0  0
  187.4090  177.7930  146.8840 C   0  0  0  0  0  0  0  0  0  0  0  0
  186.7880  178.7280  147.7170 C   0  0  0  0  0  3  0  0  0  0  0  0
  189.2560  174.5940  144.5700 C   0  0  0  0  0  2  0  0  0  0  0  0
  188.1790  175.7230  142.6880 N   0  0  2  0  0  0  0  0  0  0  0  0
  188.4960  176.3730  141.4150 C   0  0  0  0  0  2  0  0  0  0  0  0
  192.0390  177.1340  144.7990 O   0  0  0  0  0  0  0  0  0  0  0  0
  192.0150  176.4140  145.8350 C   0  0  0  0  0  0  0  0  0  0  0  0
  190.7780  176.1310  146.4890 N   0  0  0  0  0  2  0  0  0  0  0  0
  195.5640  176.1320  144.5390 C   0  0  1  0  0  3  0  0  0  0  0  0
  194.3610  176.9020  146.6030 C   0  0  0  0  0  2  0  0  0  0  0  0
  192.8300  173.7120  145.3180 O   0  0  0  0  0  1  0  0  0  0  0  0
  196.1270  176.5500  143.3350 O   0  0  0  0  0  1  0  0  0  0  0  0
  194.9940  177.3370  145.2810 C   0  0  0  0  0  2  0  0  0  0  0  0
  193.8310  174.6520  145.5700 C   0  0  2  0  0  3  0  0  0  0  0  0
  193.2840  175.8330  146.3890 C   0  0  2  0  0  3  0  0  0  0  0  0
  194.4610  175.1160  144.2580 C   0  0  0  0  0  2  0  0  0  0  0  0
  1  6  1  0  0  0  0
  2 13  1  0  0  0  0
  2  5  1  1  0  0  0
  3  7  1  6  0  0  0
  3  2  1  0  0  0  0
  4 11  1  6  0  0  0
  4  7  1  0  0  0  0
  5 16  2  0  0  0  0
  6 17  2  0  0  0  0
  8 23  1  1  0  0  0
  8 12  1  0  0  0  0
  9  1  1  0  0  0  0
 10 18  1  0  0  0  0
 13 18  1  6  0  0  0
 13  8  1  0  0  0  0
 14  5  1  0  0  0  0
 14  1  2  0  0  0  0
 15 20  1  0  0  0  0
 15  4  1  0  0  0  0
 16 12  1  0  0  0  0
 16 17  1  0  0  0  0
 19 20  1  6  0  0  0
 19 10  1  0  0  0  0
 19  3  1  0  0  0  0
 21 22  2  0  0  0  0
 22 23  1  0  0  0  0
 24 27  1  6  0  0  0
 24 28  1  0  0  0  0
 28 25  1  0  0  0  0
 29 26  1  6  0  0  0
 29 30  1  0  0  0  0
 30 22  1  6  0  0  0
 30 25  1  0  0  0  0
 31 24  1  0  0  0  0
 31 29  1  0  0  0  0
M  END
>  <MODEL>
1

>  <REMARK>
 VINA RESULT:      -9.3      0.000      0.000
  Name = 
  2 active torsions:
  status: ('A' for Active; 'I' for Inactive)
    1  A    between atoms: C_5  and  C_30
    2  A    between atoms: C_10  and  N_16
                            x       y       z     vdW  Elec       q    Type
                         _______ _______ _______ _____ _____    ______ ____

>  <TORSDO>
F 2

$$$$
=
 OpenBabel11112417013D

 31 35  0  0  1  0  0  0  0  0999 V2000
  184.7510  177.8020  146.7330 C   0  0  0  0  0  0  0  0  0  0  0  0
  187.1130  176.1650  144.2380 C   0  0  2  0  0  3  0  0  0  0  0  0
  187.0140  176.9830  142.9250 C   0  0  2  0  0  3  0  0  0  0  0  0
  185.4660  178.1950  141.3700 C   0  0  2  0  0  3  0  0  0  0  0  0
  186.6200  176.9450  145.4380 C   0  0  0  0  0  0  0  0  0  0  0  0
  185.6380  178.4560  147.5900 C   0  0  0  0  0  3  0  0  0  0  0  0
  185.5560  177.3730  142.6490 C   0  0  0  0  0  2  0  0  0  0  0  0
  189.4600  176.8270  144.8860 C   0  0  2  0  0  3  0  0  0  0  0  0
  183.4160  177.9000  146.9370 F   0  0  0  0  0  0  0  0  0  0  0  0
  188.9350  175.8730  142.0100 C   0  0  0  0  0  2  0  0  0  0  0  0
  184.0150  178.4900  141.0580 C   0  0  0  0  0  1  0  0  0  0  0  0
  189.0010  177.4040  146.2240 C   0  0  0  0  0  2  0  0  0  0  0  0
  188.5500  175.6620  144.4680 C   0  0  2  0  0  3  0  0  0  0  0  0
  185.2400  177.0480  145.6650 C   0  0  0  0  0  3  0  0  0  0  0  0
  186.0910  177.4250  140.2160 C   0  0  0  0  0  2  0  0  0  0  0  0
  187.5150  177.6030  146.3110 C   0  0  0  0  0  0  0  0  0  0  0  0
  187.0150  178.3480  147.3840 C   0  0  0  0  0  3  0  0  0  0  0  0
  189.0680  174.9550  143.2170 C   0  0  0  0  0  2  0  0  0  0  0  0
  187.5320  176.2030  141.7810 N   0  0  2  0  0  0  0  0  0  0  0  0
  187.5200  177.0450  140.5850 C   0  0  0  0  0  2  0  0  0  0  0  0
  191.7360  178.1970  143.8460 O   0  0  0  0  0  0  0  0  0  0  0  0
  191.9380  177.1180  144.4680 C   0  0  0  0  0  0  0  0  0  0  0  0
  190.8410  176.3780  145.0050 N   0  0  0  0  0  2  0  0  0  0  0  0
  193.3960  173.6470  144.8900 C   0  0  1  0  0  3  0  0  0  0  0  0
  193.7550  175.6890  143.4750 C   0  0  0  0  0  2  0  0  0  0  0  0
  193.1110  176.6780  147.0500 O   0  0  0  0  0  1  0  0  0  0  0  0
  192.7750  172.4010  144.9410 O   0  0  0  0  0  1  0  0  0  0  0  0
  193.0910  174.3140  143.5520 C   0  0  0  0  0  2  0  0  0  0  0  0
  193.5610  175.8860  145.9920 C   0  0  2  0  0  3  0  0  0  0  0  0
  193.3320  176.5870  144.6430 C   0  0  2  0  0  3  0  0  0  0  0  0
  192.8910  174.5140  146.0390 C   0  0  0  0  0  2  0  0  0  0  0  0
  1  9  1  0  0  0  0
  1  6  1  0  0  0  0
  2 13  1  0  0  0  0
  2  5  1  1  0  0  0
  3  7  1  6  0  0  0
  3  2  1  0  0  0  0
  4 11  1  6  0  0  0
  4  7  1  0  0  0  0
  5 14  1  0  0  0  0
  5 16  2  0  0  0  0
  8 23  1  1  0  0  0
  8 12  1  0  0  0  0
 10 18  1  0  0  0  0
 12 16  1  0  0  0  0
 13 18  1  6  0  0  0
 13  8  1  0  0  0  0
 14  1  2  0  0  0  0
 15 20  1  0  0  0  0
 15  4  1  0  0  0  0
 16 17  1  0  0  0  0
 17  6  2  0  0  0  0
 19 20  1  6  0  0  0
 19 10  1  0  0  0  0
 19  3  1  0  0  0  0
 21 22  2  0  0  0  0
 22 23  1  0  0  0  0
 24 27  1  6  0  0  0
 24 31  1  0  0  0  0
 25 28  1  0  0  0  0
 25 30  1  0  0  0  0
 28 24  1  0  0  0  0
 29 31  1  0  0  0  0
 29 26  1  1  0  0  0
 30 22  1  6  0  0  0
 30 29  1  0  0  0  0
M  END
>  <MODEL>
2

>  <REMARK>
 VINA RESULT:      -9.1      1.355      1.960
  Name = 
  2 active torsions:
  status: ('A' for Active; 'I' for Inactive)
    1  A    between atoms: C_5  and  C_30
    2  A    between atoms: C_10  and  N_16
                            x       y       z     vdW  Elec       q    Type
                         _______ _______ _______ _____ _____    ______ ____

>  <TORSDO>
F 2

$$$$
=
 OpenBabel11112417013D

 31 35  0  0  1  0  0  0  0  0999 V2000
  186.1490  178.1430  140.8090 C   0  0  0  0  0  0  0  0  0  0  0  0
  188.3290  177.8020  143.9090 C   0  0  2  0  0  3  0  0  0  0  0  0
  187.3980  177.3540  145.0650 C   0  0  2  0  0  3  0  0  0  0  0  0
  185.1410  177.6420  146.1160 C   0  0  2  0  0  3  0  0  0  0  0  0
  187.7290  177.5240  142.5480 C   0  0  0  0  0  0  0  0  0  0  0  0
  186.5080  177.0130  140.0730 C   0  0  0  0  0  3  0  0  0  0  0  0
  186.0610  178.1020  144.9930 C   0  0  0  0  0  2  0  0  0  0  0  0
  189.6430  175.6620  143.6670 C   0  0  2  0  0  3  0  0  0  0  0  0
  185.2060  178.9910  140.3320 F   0  0  0  0  0  0  0  0  0  0  0  0
  189.2760  176.8600  146.4760 C   0  0  0  0  0  2  0  0  0  0  0  0
  183.8660  178.4560  146.0930 C   0  0  0  0  0  1  0  0  0  0  0  0
  189.2370  175.4980  142.2030 C   0  0  0  0  0  2  0  0  0  0  0  0
  189.7190  177.1520  144.0350 C   0  0  2  0  0  3  0  0  0  0  0  0
  186.7580  178.3980  142.0390 C   0  0  0  0  0  3  0  0  0  0  0  0
  185.8360  177.8190  147.4580 C   0  0  0  0  0  2  0  0  0  0  0  0
  188.0950  176.3850  141.7970 C   0  0  0  0  0  0  0  0  0  0  0  0
  187.4850  176.1430  140.5620 C   0  0  0  0  0  3  0  0  0  0  0  0
  190.2750  177.3630  145.4420 C   0  0  0  0  0  2  0  0  0  0  0  0
  188.0290  177.6110  146.3760 N   0  0  2  0  0  0  0  0  0  0  0  0
  187.1680  177.0780  147.4330 C   0  0  0  0  0  2  0  0  0  0  0  0
  190.0730  173.3190  145.2360 O   0  0  0  0  0  0  0  0  0  0  0  0
  191.0770  173.8380  144.6750 C   0  0  0  0  0  0  0  0  0  0  0  0
  190.9320  175.0170  143.8830 N   0  0  0  0  0  2  0  0  0  0  0  0
  194.5950  175.0500  143.9610 C   0  0  1  0  0  3  0  0  0  0  0  0
  193.2980  174.0110  145.8440 C   0  0  0  0  0  2  0  0  0  0  0  0
  192.3830  172.3800  142.5770 O   0  0  0  0  0  1  0  0  0  0  0  0
  195.0500  176.2540  143.4300 O   0  0  0  0  0  1  0  0  0  0  0  0
  193.8170  175.3200  145.2460 C   0  0  0  0  0  2  0  0  0  0  0  0
  193.1910  173.0290  143.5130 C   0  0  2  0  0  3  0  0  0  0  0  0
  192.4410  173.2330  144.8400 C   0  0  2  0  0  3  0  0  0  0  0  0
  193.7020  174.3500  142.9420 C   0  0  0  0  0  2  0  0  0  0  0  0
  1 14  1  0  0  0  0
  2  5  1  6  0  0  0
  2 13  1  0  0  0  0
  2  3  1  0  0  0  0
  3  7  1  1  0  0  0
  3 19  1  0  0  0  0
  4 11  1  1  0  0  0
  4 15  1  0  0  0  0
  6 17  1  0  0  0  0
  6  1  2  0  0  0  0
  7  4  1  0  0  0  0
  8 23  1  6  0  0  0
  8 13  1  0  0  0  0
  9  1  1  0  0  0  0
 12  8  1  0  0  0  0
 13 18  1  1  0  0  0
 14  5  2  0  0  0  0
 16 12  1  0  0  0  0
 16  5  1  0  0  0  0
 17 16  2  0  0  0  0
 18 10  1  0  0  0  0
 19 10  1  6  0  0  0
 19 20  1  0  0  0  0
 20 15  1  0  0  0  0
 22 21  2  0  0  0  0
 23 22  1  0  0  0  0
 24 27  1  6  0  0  0
 24 28  1  0  0  0  0
 28 25  1  0  0  0  0
 29 26  1  6  0  0  0
 29 30  1  0  0  0  0
 30 22  1  6  0  0  0
 30 25  1  0  0  0  0
 31 29  1  0  0  0  0
 31 24  1  0  0  0  0
M  END
>  <MODEL>
3

>  <REMARK>
 VINA RESULT:      -8.7      1.986      4.305
  Name = 
  2 active torsions:
  status: ('A' for Active; 'I' for Inactive)
    1  A    between atoms: C_5  and  C_30
    2  A    between atoms: C_10  and  N_16
                            x       y       z     vdW  Elec       q    Type
                         _______ _______ _______ _____ _____    ______ ____

>  <TORSDO>
F 2

$$$$
=
 OpenBabel11112417013D

 31 35  0  0  1  0  0  0  0  0999 V2000
  194.3950  176.3880  145.1030 C   0  0  0  0  0  0  0  0  0  0  0  0
  190.9470  176.6600  143.5190 C   0  0  2  0  0  3  0  0  0  0  0  0
  190.6300  175.2770  142.8940 C   0  0  2  0  0  3  0  0  0  0  0  0
  191.5700  173.3320  141.6240 C   0  0  2  0  0  3  0  0  0  0  0  0
  192.0330  176.5800  144.5690 C   0  0  0  0  0  0  0  0  0  0  0  0
  194.0890  176.3340  146.4640 C   0  0  0  0  0  3  0  0  0  0  0  0
  191.8790  174.7000  142.2170 C   0  0  0  0  0  2  0  0  0  0  0  0
  189.2570  176.5940  145.3910 C   0  0  2  0  0  3  0  0  0  0  0  0
  195.6860  176.3160  144.6960 F   0  0  0  0  0  0  0  0  0  0  0  0
  188.3340  175.8850  142.5440 C   0  0  0  0  0  2  0  0  0  0  0  0
  192.7810  172.8170  140.8760 C   0  0  0  0  0  1  0  0  0  0  0  0
  190.3340  176.7600  146.4610 C   0  0  0  0  0  2  0  0  0  0  0  0
  189.6750  177.3090  144.0980 C   0  0  2  0  0  3  0  0  0  0  0  0
  193.3730  176.5140  144.1610 C   0  0  0  0  0  3  0  0  0  0  0  0
  190.3870  173.4360  140.6720 C   0  0  0  0  0  2  0  0  0  0  0  0
  191.7270  176.5320  145.9480 C   0  0  0  0  0  0  0  0  0  0  0  0
  192.7600  176.4160  146.8840 C   0  0  0  0  0  3  0  0  0  0  0  0
  188.5590  177.3020  143.0560 C   0  0  0  0  0  2  0  0  0  0  0  0
  189.5450  175.3880  141.8970 N   0  0  2  0  0  0  0  0  0  0  0  0
  189.2040  174.0500  141.4110 C   0  0  0  0  0  2  0  0  0  0  0  0
  187.7120  175.4880  147.5190 O   0  0  0  0  0  0  0  0  0  0  0  0
  187.2780  176.5360  146.9660 C   0  0  0  0  0  0  0  0  0  0  0  0
  187.9990  177.1350  145.8890 N   0  0  0  0  0  2  0  0  0  0  0  0
  184.8990  179.0610  145.4440 C   0  0  1  0  0  3  0  0  0  0  0  0
  184.8170  176.7910  146.5130 C   0  0  0  0  0  2  0  0  0  0  0  0
  187.1940  179.0270  148.3880 O   0  0  0  0  0  1  0  0  0  0  0  0
  184.9500  179.7380  144.2270 O   0  0  0  0  0  1  0  0  0  0  0  0
  184.8630  177.5570  145.1900 C   0  0  0  0  0  2  0  0  0  0  0  0
  186.0830  178.6860  147.6150 C   0  0  2  0  0  3  0  0  0  0  0  0
  185.9920  177.1640  147.4230 C   0  0  2  0  0  3  0  0  0  0  0  0
  186.1230  179.4250  146.2790 C   0  0  0  0  0  2  0  0  0  0  0  0
  1  6  1  0  0  0  0
  2 13  1  0  0  0  0
  2  5  1  1  0  0  0
  3  7  1  6  0  0  0
  3  2  1  0  0  0  0
  4 11  1  6  0  0  0
  4  7  1  0  0  0  0
  5 16  2  0  0  0  0
  6 17  2  0  0  0  0
  8 23  1  1  0  0  0
  8 12  1  0  0  0  0
  9  1  1  0  0  0  0
 10 18  1  0  0  0  0
 13 18  1  6  0  0  0
 13  8  1  0  0  0  0
 14  5  1  0  0  0  0
 14  1  2  0  0  0  0
 15 20  1  0  0  0  0
 15  4  1  0  0  0  0
 16 12  1  0  0  0  0
 16 17  1  0  0  0  0
 19 20  1  1  0  0  0
 19 10  1  0  0  0  0
 19  3  1  0  0  0  0
 22 21  2  0  0  0  0
 23 22  1  0  0  0  0
 24 27  1  6  0  0  0
 24 31  1  0  0  0  0
 25 30  1  0  0  0  0
 28 24  1  0  0  0  0
 28 25  1  0  0  0  0
 29 26  1  6  0  0  0
 30 22  1  6  0  0  0
 30 29  1  0  0  0  0
 31 29  1  0  0  0  0
M  END
>  <MODEL>
4

>  <REMARK>
 VINA RESULT:      -8.5      3.576      7.124
  Name = 
  2 active torsions:
  status: ('A' for Active; 'I' for Inactive)
    1  A    between atoms: C_5  and  C_30
    2  A    between atoms: C_10  and  N_16
                            x       y       z     vdW  Elec       q    Type
                         _______ _______ _______ _____ _____    ______ ____

>  <TORSDO>
F 2

$$$$
=
 OpenBabel11112417013D

 31 35  0  0  1  0  0  0  0  0999 V2000
  191.6870  173.0640  141.3240 C   0  0  0  0  0  0  0  0  0  0  0  0
  191.0850  174.0670  144.9450 C   0  0  2  0  0  3  0  0  0  0  0  0
  192.1070  175.1840  145.2770 C   0  0  2  0  0  3  0  0  0  0  0  0
  194.4670  175.9690  144.9660 C   0  0  2  0  0  3  0  0  0  0  0  0
  190.8760  173.9040  143.4550 C   0  0  0  0  0  0  0  0  0  0  0  0
  190.5980  173.6470  140.6740 C   0  0  0  0  0  3  0  0  0  0  0  0
  193.4720  174.8580  144.6570 C   0  0  0  0  0  2  0  0  0  0  0  0
  188.9950  175.4800  144.9910 C   0  0  2  0  0  3  0  0  0  0  0  0
  192.6140  172.3790  140.6120 F   0  0  0  0  0  0  0  0  0  0  0  0
  190.9780  175.7000  147.3310 C   0  0  0  0  0  2  0  0  0  0  0  0
  195.8320  175.5900  144.4340 C   0  0  0  0  0  1  0  0  0  0  0  0
  188.6400  175.1230  143.5490 C   0  0  0  0  0  2  0  0  0  0  0  0
  189.7430  174.3160  145.6590 C   0  0  2  0  0  3  0  0  0  0  0  0
  191.8230  173.1900  142.7070 C   0  0  0  0  0  3  0  0  0  0  0  0
  194.5480  176.1860  146.4700 C   0  0  0  0  0  2  0  0  0  0  0  0
  189.7710  174.4870  142.7940 C   0  0  0  0  0  0  0  0  0  0  0  0
  189.6390  174.3470  141.4090 C   0  0  0  0  0  3  0  0  0  0  0  0
  189.9770  174.5680  147.1470 C   0  0  0  0  0  2  0  0  0  0  0  0
  192.2620  175.3360  146.7390 N   0  0  2  0  0  0  0  0  0  0  0  0
  193.1500  176.4670  147.0090 C   0  0  0  0  0  2  0  0  0  0  0  0
  188.5950  177.7740  146.6390 O   0  0  0  0  0  0  0  0  0  0  0  0
  187.6360  176.9620  146.5260 C   0  0  0  0  0  0  0  0  0  0  0  0
  187.7740  175.7880  145.7240 N   0  0  0  0  0  2  0  0  0  0  0  0
  184.5240  178.9650  145.7180 C   0  0  1  0  0  3  0  0  0  0  0  0
  185.1400  176.6500  146.4690 C   0  0  0  0  0  2  0  0  0  0  0  0
  187.2370  179.2050  148.2710 O   0  0  0  0  0  1  0  0  0  0  0  0
  184.2110  179.7500  144.6100 O   0  0  0  0  0  1  0  0  0  0  0  0
  184.7840  177.5300  145.2700 C   0  0  0  0  0  2  0  0  0  0  0  0
  186.1160  178.6800  147.6260 C   0  0  2  0  0  3  0  0  0  0  0  0
  186.3390  177.2080  147.2430 C   0  0  2  0  0  3  0  0  0  0  0  0
  185.7580  179.5330  146.4110 C   0  0  0  0  0  2  0  0  0  0  0  0
  1 14  1  0  0  0  0
  2  5  1  6  0  0  0
  2  3  1  0  0  0  0
  2 13  1  0  0  0  0
  3  7  1  6  0  0  0
  3 19  1  0  0  0  0
  4 11  1  1  0  0  0
  4 15  1  0  0  0  0
  6  1  2  0  0  0  0
  6 17  1  0  0  0  0
  7  4  1  0  0  0  0
  8 13  1  0  0  0  0
  8 23  1  1  0  0  0
  9  1  1  0  0  0  0
 12  8  1  0  0  0  0
 13 18  1  1  0  0  0
 14  5  2  0  0  0  0
 15 20  1  0  0  0  0
 16  5  1  0  0  0  0
 16 12  1  0  0  0  0
 17 16  2  0  0  0  0
 18 10  1  0  0  0  0
 19 20  1  6  0  0  0
 19 10  1  0  0  0  0
 22 21  2  0  0  0  0
 23 22  1  0  0  0  0
 24 27  1  6  0  0  0
 24 31  1  0  0  0  0
 25 30  1  0  0  0  0
 28 24  1  0  0  0  0
 28 25  1  0  0  0  0
 29 26  1  6  0  0  0
 30 22  1  6  0  0  0
 30 29  1  0  0  0  0
 31 29  1  0  0  0  0
M  END
>  <MODEL>
5

>  <REMARK>
 VINA RESULT:      -7.8      3.503      7.899
  Name = 
  2 active torsions:
  status: ('A' for Active; 'I' for Inactive)
    1  A    between atoms: C_5  and  C_30
    2  A    between atoms: C_10  and  N_16
                            x       y       z     vdW  Elec       q    Type
                         _______ _______ _______ _____ _____    ______ ____

>  <TORSDO>
F 2

$$$$
=
 OpenBabel11112417013D

 31 35  0  0  1  0  0  0  0  0999 V2000
  190.5100  171.3890  142.8290 C   0  0  0  0  0  0  0  0  0  0  0  0
  189.8650  174.3610  145.1150 C   0  0  2  0  0  3  0  0  0  0  0  0
  191.1920  175.1580  145.2010 C   0  0  2  0  0  3  0  0  0  0  0  0
  193.6870  174.9830  145.3630 C   0  0  2  0  0  3  0  0  0  0  0  0
  189.8170  173.4540  143.9050 C   0  0  0  0  0  0  0  0  0  0  0  0
  189.8470  171.7680  141.6610 C   0  0  0  0  0  3  0  0  0  0  0  0
  192.3830  174.1970  145.3020 C   0  0  0  0  0  2  0  0  0  0  0  0
  188.5310  176.0460  143.7920 C   0  0  2  0  0  3  0  0  0  0  0  0
  191.1730  170.2080  142.8790 F   0  0  0  0  0  0  0  0  0  0  0  0
  190.0920  177.0090  146.2600 C   0  0  0  0  0  2  0  0  0  0  0  0
  194.8450  174.0290  145.5610 C   0  0  0  0  0  1  0  0  0  0  0  0
  188.2660  175.0510  142.6630 C   0  0  0  0  0  2  0  0  0  0  0  0
  188.6500  175.3090  145.1340 C   0  0  2  0  0  3  0  0  0  0  0  0
  190.4920  172.2260  143.9460 C   0  0  0  0  0  3  0  0  0  0  0  0
  193.6390  175.9740  146.5160 C   0  0  0  0  0  2  0  0  0  0  0  0
  189.1400  173.8320  142.7230 C   0  0  0  0  0  0  0  0  0  0  0  0
  189.1560  172.9810  141.6130 C   0  0  0  0  0  3  0  0  0  0  0  0
  188.7570  176.2790  146.3090 C   0  0  0  0  0  2  0  0  0  0  0  0
  191.1900  176.0550  146.3750 N   0  0  2  0  0  0  0  0  0  0  0  0
  192.4110  176.8630  146.3590 C   0  0  0  0  0  2  0  0  0  0  0  0
  188.1950  178.2300  141.9890 O   0  0  0  0  0  0  0  0  0  0  0  0
  187.3320  178.0860  142.8980 C   0  0  0  0  0  0  0  0  0  0  0  0
  187.4470  177.0180  143.8390 N   0  0  0  0  0  2  0  0  0  0  0  0
  184.4830  178.4800  145.3630 C   0  0  1  0  0  3  0  0  0  0  0  0
  186.2600  179.8890  144.2870 C   0  0  0  0  0  2  0  0  0  0  0  0
  184.7550  177.5380  141.7610 O   0  0  0  0  0  1  0  0  0  0  0  0
  184.1570  177.7430  146.5000 O   0  0  0  0  0  1  0  0  0  0  0  0
  185.8750  179.0820  145.5280 C   0  0  0  0  0  2  0  0  0  0  0  0
  184.8030  178.3640  142.8850 C   0  0  2  0  0  3  0  0  0  0  0  0
  186.1780  179.0400  143.0130 C   0  0  2  0  0  3  0  0  0  0  0  0
  184.4430  177.5700  144.1390 C   0  0  0  0  0  2  0  0  0  0  0  0
  1  9  1  0  0  0  0
  1 14  1  0  0  0  0
  2  5  1  6  0  0  0
  2 13  1  0  0  0  0
  2  3  1  0  0  0  0
  3  7  1  1  0  0  0
  3 19  1  0  0  0  0
  4 11  1  1  0  0  0
  4 15  1  0  0  0  0
  5 14  2  0  0  0  0
  6  1  2  0  0  0  0
  7  4  1  0  0  0  0
  8 23  1  1  0  0  0
  8 13  1  0  0  0  0
 10 18  1  0  0  0  0
 12 16  1  0  0  0  0
 12  8  1  0  0  0  0
 13 18  1  1  0  0  0
 16  5  1  0  0  0  0
 17  6  1  0  0  0  0
 17 16  2  0  0  0  0
 19 10  1  6  0  0  0
 20 19  1  0  0  0  0
 20 15  1  0  0  0  0
 21 22  2  0  0  0  0
 22 23  1  0  0  0  0
 24 28  1  0  0  0  0
 24 27  1  1  0  0  0
 25 28  1  0  0  0  0
 29 26  1  6  0  0  0
 29 30  1  0  0  0  0
 29 31  1  0  0  0  0
 30 22  1  1  0  0  0
 30 25  1  0  0  0  0
 31 24  1  0  0  0  0
M  END
>  <MODEL>
6

>  <REMARK>
 VINA RESULT:      -7.6      3.549      7.870
  Name = 
  2 active torsions:
  status: ('A' for Active; 'I' for Inactive)
    1  A    between atoms: C_5  and  C_30
    2  A    between atoms: C_10  and  N_16
                            x       y       z     vdW  Elec       q    Type
                         _______ _______ _______ _____ _____    ______ ____

>  <TORSDO>
F 2

$$$$
=
 OpenBabel11112417013D

 31 35  0  0  1  0  0  0  0  0999 V2000
  185.5120  178.3150  140.9480 C   0  0  0  0  0  0  0  0  0  0  0  0
  188.1780  178.1120  143.6550 C   0  0  2  0  0  3  0  0  0  0  0  0
  187.5150  177.4470  144.8890 C   0  0  2  0  0  3  0  0  0  0  0  0
  185.4340  177.3090  146.2780 C   0  0  2  0  0  3  0  0  0  0  0  0
  187.4180  177.8350  142.3760 C   0  0  0  0  0  0  0  0  0  0  0  0
  185.9100  177.3060  140.0690 C   0  0  0  0  0  3  0  0  0  0  0  0
  186.0900  177.9810  145.0790 C   0  0  0  0  0  2  0  0  0  0  0  0
  189.7320  176.2230  143.0330 C   0  0  2  0  0  3  0  0  0  0  0  0
  184.3940  179.0360  140.6900 F   0  0  0  0  0  0  0  0  0  0  0  0
  189.6430  177.1580  145.9620 C   0  0  0  0  0  2  0  0  0  0  0  0
  184.0670  177.9140  146.5140 C   0  0  0  0  0  1  0  0  0  0  0  0
  189.1290  176.0960  141.6350 C   0  0  0  0  0  2  0  0  0  0  0  0
  189.6500  177.6780  143.5190 C   0  0  2  0  0  3  0  0  0  0  0  0
  186.2640  178.5790  142.0940 C   0  0  0  0  0  3  0  0  0  0  0  0
  186.2990  177.5030  147.5160 C   0  0  0  0  0  2  0  0  0  0  0  0
  187.8220  176.8190  141.4800 C   0  0  0  0  0  0  0  0  0  0  0  0
  187.0670  176.5690  140.3300 C   0  0  0  0  0  3  0  0  0  0  0  0
  190.3840  177.8790  144.8430 C   0  0  0  0  0  2  0  0  0  0  0  0
  188.3010  177.7120  146.1120 N   0  0  2  0  0  0  0  0  0  0  0  0
  187.7020  176.9810  147.2300 C   0  0  0  0  0  2  0  0  0  0  0  0
  190.8230  174.1230  144.6260 O   0  0  0  0  0  0  0  0  0  0  0  0
  191.5980  174.7080  143.8200 C   0  0  0  0  0  0  0  0  0  0  0  0
  191.1180  175.7740  143.0010 N   0  0  0  0  0  2  0  0  0  0  0  0
  193.3920  171.3720  143.7350 C   0  0  1  0  0  3  0  0  0  0  0  0
  193.3280  173.5180  142.4330 C   0  0  0  0  0  2  0  0  0  0  0  0
  193.2350  174.2330  146.1290 O   0  0  0  0  0  1  0  0  0  0  0  0
  192.8950  170.0720  143.7980 O   0  0  0  0  0  1  0  0  0  0  0  0
  192.8050  172.0840  142.5200 C   0  0  0  0  0  2  0  0  0  0  0  0
  193.5580  173.5490  144.9550 C   0  0  2  0  0  3  0  0  0  0  0  0
  193.0410  174.3020  143.7190 C   0  0  2  0  0  3  0  0  0  0  0  0
  193.0240  172.1200  145.0130 C   0  0  0  0  0  2  0  0  0  0  0  0
  1 14  1  0  0  0  0
  2  5  1  6  0  0  0
  2  3  1  0  0  0  0
  3  7  1  1  0  0  0
  3 19  1  0  0  0  0
  4 11  1  1  0  0  0
  4 15  1  0  0  0  0
  6 17  1  0  0  0  0
  6  1  2  0  0  0  0
  7  4  1  0  0  0  0
  8 23  1  6  0  0  0
  8 13  1  0  0  0  0
  9  1  1  0  0  0  0
 12  8  1  0  0  0  0
 13  2  1  0  0  0  0
 13 18  1  1  0  0  0
 14  5  2  0  0  0  0
 16 12  1  0  0  0  0
 16  5  1  0  0  0  0
 17 16  2  0  0  0  0
 18 10  1  0  0  0  0
 19 10  1  6  0  0  0
 19 20  1  0  0  0  0
 20 15  1  0  0  0  0
 22 21  2  0  0  0  0
 23 22  1  0  0  0  0
 24 27  1  1  0  0  0
 24 31  1  0  0  0  0
 25 28  1  0  0  0  0
 25 30  1  0  0  0  0
 28 24  1  0  0  0  0
 29 31  1  0  0  0  0
 29 26  1  1  0  0  0
 30 22  1  1  0  0  0
 30 29  1  0  0  0  0
M  END
>  <MODEL>
7

>  <REMARK>
 VINA RESULT:      -7.5      2.364      4.741
  Name = 
  2 active torsions:
  status: ('A' for Active; 'I' for Inactive)
    1  A    between atoms: C_5  and  C_30
    2  A    between atoms: C_10  and  N_16
                            x       y       z     vdW  Elec       q    Type
                         _______ _______ _______ _____ _____    ______ ____

>  <TORSDO>
F 2

$$$$
=
 OpenBabel11112417013D

 31 35  0  0  1  0  0  0  0  0999 V2000
  186.3750  178.4820  144.4950 C   0  0  0  0  0  0  0  0  0  0  0  0
  189.7280  176.9150  143.6110 C   0  0  2  0  0  3  0  0  0  0  0  0
  190.3170  176.3450  144.9270 C   0  0  2  0  0  3  0  0  0  0  0  0
  190.6250  176.7400  147.3820 C   0  0  2  0  0  3  0  0  0  0  0  0
  188.2330  177.1340  143.6990 C   0  0  0  0  0  0  0  0  0  0  0  0
  185.4720  177.5500  143.9800 C   0  0  0  0  0  3  0  0  0  0  0  0
  190.0650  177.3140  146.0880 C   0  0  0  0  0  2  0  0  0  0  0  0
  189.2470  174.7200  142.4630 C   0  0  2  0  0  3  0  0  0  0  0  0
  185.9190  179.5850  145.1360 F   0  0  0  0  0  0  0  0  0  0  0  0
  192.0180  175.1500  143.7260 C   0  0  0  0  0  2  0  0  0  0  0  0
  190.4560  177.7480  148.4990 C   0  0  0  0  0  1  0  0  0  0  0  0
  187.7600  175.0400  142.3240 C   0  0  0  0  0  2  0  0  0  0  0  0
  190.0770  176.0120  142.4130 C   0  0  2  0  0  3  0  0  0  0  0  0
  187.7480  178.2760  144.3520 C   0  0  0  0  0  3  0  0  0  0  0  0
  192.1010  176.4140  147.2070 C   0  0  0  0  0  2  0  0  0  0  0  0
  187.3150  176.1960  143.1730 C   0  0  0  0  0  0  0  0  0  0  0  0
  185.9420  176.4170  143.3130 C   0  0  0  0  0  3  0  0  0  0  0  0
  191.5770  175.7250  142.3880 C   0  0  0  0  0  2  0  0  0  0  0  0
  191.7710  176.1140  144.7940 N   0  0  2  0  0  0  0  0  0  0  0  0
  192.2670  175.4780  146.0150 C   0  0  0  0  0  2  0  0  0  0  0  0
  189.3170  171.8740  142.6430 O   0  0  0  0  0  0  0  0  0  0  0  0
  189.6500  172.3980  141.5440 C   0  0  0  0  0  0  0  0  0  0  0  0
  189.6460  173.8170  141.3900 N   0  0  0  0  0  2  0  0  0  0  0  0
  191.7840  172.9860  138.4700 C   0  0  1  0  0  3  0  0  0  0  0  0
  191.5850  171.3270  140.3440 C   0  0  0  0  0  2  0  0  0  0  0  0
  188.1690  172.2910  139.0890 O   0  0  0  0  0  1  0  0  0  0  0  0
  192.4550  174.1270  138.0350 O   0  0  0  0  0  1  0  0  0  0  0  0
  192.3140  172.5730  139.8400 C   0  0  0  0  0  2  0  0  0  0  0  0
  189.5390  172.0340  139.0290 C   0  0  2  0  0  3  0  0  0  0  0  0
  190.0670  171.5390  140.3850 C   0  0  2  0  0  3  0  0  0  0  0  0
  190.2880  173.2750  138.5480 C   0  0  0  0  0  2  0  0  0  0  0  0
  1  9  1  0  0  0  0
  2  5  1  1  0  0  0
  2  3  1  0  0  0  0
  3  7  1  1  0  0  0
  4 11  1  1  0  0  0
  5 14  2  0  0  0  0
  6  1  2  0  0  0  0
  7  4  1  0  0  0  0
  8 23  1  6  0  0  0
 12  8  1  0  0  0  0
 12 16  1  0  0  0  0
 13 18  1  1  0  0  0
 13  8  1  0  0  0  0
 13  2  1  0  0  0  0
 14  1  1  0  0  0  0
 15  4  1  0  0  0  0
 16 17  2  0  0  0  0
 16  5  1  0  0  0  0
 17  6  1  0  0  0  0
 18 10  1  0  0  0  0
 19 10  1  6  0  0  0
 19  3  1  0  0  0  0
 19 20  1  0  0  0  0
 20 15  1  0  0  0  0
 22 21  2  0  0  0  0
 23 22  1  0  0  0  0
 24 27  1  1  0  0  0
 24 31  1  0  0  0  0
 24 28  1  0  0  0  0
 25 30  1  0  0  0  0
 28 25  1  0  0  0  0
 29 26  1  1  0  0  0
 29 30  1  0  0  0  0
 30 22  1  1  0  0  0
 31 29  1  0  0  0  0
M  END
>  <MODEL>
8

>  <REMARK>
 VINA RESULT:      -7.4      3.438      5.894
  Name = 
  2 active torsions:
  status: ('A' for Active; 'I' for Inactive)
    1  A    between atoms: C_5  and  C_30
    2  A    between atoms: C_10  and  N_16
                            x       y       z     vdW  Elec       q    Type
                         _______ _______ _______ _____ _____    ______ ____

>  <TORSDO>
F 2

$$$$
=
 OpenBabel11112417013D

 31 35  0  0  1  0  0  0  0  0999 V2000
  186.9680  176.8220  140.5720 C   0  0  0  0  0  0  0  0  0  0  0  0
  189.2730  177.2600  143.5670 C   0  0  2  0  0  3  0  0  0  0  0  0
  188.4440  176.9050  144.8270 C   0  0  2  0  0  3  0  0  0  0  0  0
  186.2040  177.0990  145.9350 C   0  0  2  0  0  3  0  0  0  0  0  0
  188.6690  176.6910  142.3020 C   0  0  0  0  0  0  0  0  0  0  0  0
  187.4410  175.6350  140.0100 C   0  0  0  0  0  3  0  0  0  0  0  0
  187.0230  177.4690  144.7060 C   0  0  0  0  0  2  0  0  0  0  0  0
  190.8340  175.2780  143.6050 C   0  0  2  0  0  3  0  0  0  0  0  0
  185.9130  177.4630  140.0140 F   0  0  0  0  0  0  0  0  0  0  0  0
  190.4130  176.8760  146.1990 C   0  0  0  0  0  2  0  0  0  0  0  0
  184.8370  177.7430  145.8480 C   0  0  0  0  0  1  0  0  0  0  0  0
  190.4050  174.8260  142.2110 C   0  0  0  0  0  2  0  0  0  0  0  0
  190.7370  176.8060  143.7240 C   0  0  2  0  0  3  0  0  0  0  0  0
  187.5810  177.3490  141.7100 C   0  0  0  0  0  3  0  0  0  0  0  0
  186.9150  177.5770  147.1930 C   0  0  0  0  0  2  0  0  0  0  0  0
  189.1490  175.4930  141.7270 C   0  0  0  0  0  0  0  0  0  0  0  0
  188.5340  174.9790  140.5800 C   0  0  0  0  0  3  0  0  0  0  0  0
  191.3070  177.3130  145.0470 C   0  0  0  0  0  2  0  0  0  0  0  0
  189.0800  177.4500  146.0450 N   0  0  2  0  0  0  0  0  0  0  0  0
  188.3260  177.0030  147.2170 C   0  0  0  0  0  2  0  0  0  0  0  0
  191.5660  172.9060  145.0110 O   0  0  0  0  0  0  0  0  0  0  0  0
  192.4970  173.6280  144.5590 C   0  0  0  0  0  0  0  0  0  0  0  0
  192.1990  174.8330  143.8550 N   0  0  0  0  0  2  0  0  0  0  0  0
  195.7920  175.4700  144.2460 C   0  0  1  0  0  3  0  0  0  0  0  0
  194.5830  174.0280  145.9080 C   0  0  0  0  0  2  0  0  0  0  0  0
  194.1540  172.6500  142.4310 O   0  0  0  0  0  1  0  0  0  0  0  0
  196.0660  176.7860  143.8780 O   0  0  0  0  0  1  0  0  0  0  0  0
  194.9060  175.4620  145.4880 C   0  0  0  0  0  2  0  0  0  0  0  0
  194.7820  173.3120  143.4870 C   0  0  2  0  0  3  0  0  0  0  0  0
  193.9330  173.2390  144.7660 C   0  0  2  0  0  3  0  0  0  0  0  0
  195.0930  174.7550  143.0950 C   0  0  0  0  0  2  0  0  0  0  0  0
  1 14  1  0  0  0  0
  2  5  1  6  0  0  0
  2 13  1  0  0  0  0
  2  3  1  0  0  0  0
  3  7  1  6  0  0  0
  3 19  1  0  0  0  0
  4 11  1  6  0  0  0
  4 15  1  0  0  0  0
  6  1  2  0  0  0  0
  6 17  1  0  0  0  0
  7  4  1  0  0  0  0
  8 13  1  0  0  0  0
  8 23  1  6  0  0  0
  9  1  1  0  0  0  0
 12  8  1  0  0  0  0
 13 18  1  1  0  0  0
 14  5  2  0  0  0  0
 15 20  1  0  0  0  0
 16 12  1  0  0  0  0
 16  5  1  0  0  0  0
 17 16  2  0  0  0  0
 18 10  1  0  0  0  0
 19 10  1  1  0  0  0
 19 20  1  0  0  0  0
 22 21  2  0  0  0  0
 23 22  1  0  0  0  0
 24 27  1  6  0  0  0
 24 28  1  0  0  0  0
 28 25  1  0  0  0  0
 29 26  1  6  0  0  0
 29 30  1  0  0  0  0
 30 22  1  6  0  0  0
 30 25  1  0  0  0  0
 31 29  1  0  0  0  0
 31 24  1  0  0  0  0
M  END
>  <MODEL>
9

>  <REMARK>
 VINA RESULT:      -7.4      2.123      4.470
  Name = 
  2 active torsions:
  status: ('A' for Active; 'I' for Inactive)
    1  A    between atoms: C_5  and  C_30
    2  A    between atoms: C_10  and  N_16
                            x       y       z     vdW  Elec       q    Type
                         _______ _______ _______ _____ _____    ______ ____

>  <TORSDO>
F 2

$$$$
