=
 OpenBabel11112418023D

 34 40  0  0  1  0  0  0  0  0999 V2000
  189.5480  174.9260  142.0130 C   0  0  1  0  0  3  0  0  0  0  0  0
  187.1900  175.6870  142.5820 C   0  0  0  0  0  2  0  0  0  0  0  0
  195.3500  172.8610  144.4470 C   0  0  0  0  0  0  0  0  0  0  0  0
  191.8670  173.9700  141.9350 C   0  0  0  0  0  0  0  0  0  0  0  0
  193.4320  174.3200  143.7670 C   0  0  0  0  0  0  0  0  0  0  0  0
  194.8790  174.9350  145.7760 C   0  0  0  0  0  1  0  0  0  0  0  0
  195.3720  172.1880  145.5110 O   0  0  0  0  0  0  0  0  0  0  0  0
  195.5930  172.9860  141.9820 C   0  0  0  0  0  2  0  0  0  0  0  0
  189.0360  176.3440  143.9110 N   0  0  2  0  0  0  0  0  0  0  0  0
  188.5960  177.4690  146.8950 C   0  0  0  0  0  2  0  0  0  0  0  0
  192.4430  174.9760  144.4400 N   0  0  0  0  0  0  0  0  0  0  0  0
  194.1110  172.9430  141.6380 C   0  0  0  0  0  2  0  0  0  0  0  0
  190.1210  175.8320  144.7690 C   0  0  1  0  0  3  0  0  0  0  0  0
  186.6330  176.4930  143.7340 C   0  0  0  0  0  2  0  0  0  0  0  0
  193.1610  173.7970  142.4640 C   0  0  0  0  0  0  0  0  0  0  0  0
  195.8190  172.2850  143.2340 N   0  0  0  0  0  2  0  0  0  0  0  0
  187.7090  176.5360  146.0800 C   0  0  2  0  0  3  0  0  0  0  0  0
  190.8960  174.6790  142.6550 C   0  0  0  0  0  0  0  0  0  0  0  0
  194.7990  174.2530  144.4140 C   0  0  1  0  0  3  0  0  0  0  0  0
  191.2040  175.1850  143.9260 C   0  0  0  0  0  0  0  0  0  0  0  0
  190.2650  173.2960  140.2780 C   0  0  0  0  0  3  0  0  0  0  0  0
  190.0280  176.9620  146.9790 C   0  0  0  0  0  2  0  0  0  0  0  0
  191.5050  173.3960  140.6650 N   0  0  0  0  0  0  0  0  0  0  0  0
  190.7030  176.9560  145.6180 C   0  0  0  0  0  2  0  0  0  0  0  0
  187.8430  176.9000  144.5800 C   0  0  1  0  0  3  0  0  0  0  0  0
  189.1360  173.7090  141.1830 C   0  0  0  0  0  2  0  0  0  0  0  0
  188.5300  175.2430  143.1030 C   0  0  2  0  0  3  0  0  0  0  0  0
  186.2860  176.6970  146.6010 C   0  0  0  0  0  2  0  0  0  0  0  0
  186.1560  178.0110  147.3520 C   0  0  0  0  0  2  0  0  0  0  0  0
  185.0340  179.7530  144.3610 N   0  0  0  0  0  2  0  0  0  0  0  0
  184.1250  178.1690  145.9240 C   0  0  0  0  0  2  0  0  0  0  0  0
  185.2070  178.9440  146.6220 C   0  0  2  0  0  3  0  0  0  0  0  0
  183.8400  178.9800  144.6840 C   0  0  0  0  0  2  0  0  0  0  0  0
  185.9360  179.6510  145.5040 C   0  0  0  0  0  2  0  0  0  0  0  0
  1 26  1  1  0  0  0
  1 18  1  0  0  0  0
  1 27  1  0  0  0  0
  2 27  1  0  0  0  0
  2 14  1  0  0  0  0
  3  7  2  0  0  0  0
  4 15  2  0  0  0  0
  4 18  1  0  0  0  0
  5 19  1  0  0  0  0
  5 11  2  0  0  0  0
  8 16  1  0  0  0  0
  9 25  1  0  0  0  0
  9 13  1  0  0  0  0
 10 22  1  0  0  0  0
 12  8  1  0  0  0  0
 12 15  1  0  0  0  0
 13 24  1  0  0  0  0
 14 25  1  0  0  0  0
 15  5  1  0  0  0  0
 16  3  1  0  0  0  0
 17 28  1  0  0  0  0
 17 10  1  0  0  0  0
 18 20  2  0  0  0  0
 19  3  1  0  0  0  0
 19  6  1  0  0  0  0
 20 11  1  0  0  0  0
 20 13  1  0  0  0  0
 21 23  2  0  0  0  0
 21 26  1  0  0  0  0
 23  4  1  0  0  0  0
 24 22  1  0  0  0  0
 25 17  1  0  0  0  0
 27  9  1  0  0  0  0
 28 29  1  0  0  0  0
 30 33  1  0  0  0  0
 30 34  1  0  0  0  0
 31 32  1  0  0  0  0
 32 29  1  0  0  0  0
 33 31  1  0  0  0  0
 34 32  1  0  0  0  0
M  END
>  <MODEL>
1

>  <REMARK>
 VINA RESULT:      -8.5      0.000      0.000
  Name = 
  3 active torsions:
  status: ('A' for Active; 'I' for Inactive)
    1  A    between atoms: C_17  and  C_28
    2  A    between atoms: C_28  and  C_29
    3  A    between atoms: C_29  and  C_32
                            x       y       z     vdW  Elec       q    Type
                         _______ _______ _______ _____ _____    ______ ____

>  <TORSDO>
F 3

$$$$
=
 OpenBabel11112418023D

 34 40  0  0  1  0  0  0  0  0999 V2000
  189.5500  176.7690  146.7370 C   0  0  1  0  0  3  0  0  0  0  0  0
  187.1770  177.6810  146.7700 C   0  0  0  0  0  2  0  0  0  0  0  0
  194.9420  175.7270  143.0360 C   0  0  0  0  0  0  0  0  0  0  0  0
  191.9420  176.1650  146.2720 C   0  0  0  0  0  0  0  0  0  0  0  0
  192.6600  175.5040  144.0420 C   0  0  0  0  0  0  0  0  0  0  0  0
  193.0970  174.7550  141.6430 C   0  0  0  0  0  1  0  0  0  0  0  0
  195.2190  176.5270  142.1040 O   0  0  0  0  0  0  0  0  0  0  0  0
  195.4160  174.8150  145.2930 C   0  0  0  0  0  2  0  0  0  0  0  0
  187.9970  176.4840  144.8990 N   0  0  2  0  0  0  0  0  0  0  0  0
  186.5190  176.6830  142.0450 C   0  0  0  0  0  2  0  0  0  0  0  0
  191.3920  175.7450  143.6010 N   0  0  0  0  0  0  0  0  0  0  0  0
  194.3510  175.5990  146.0470 C   0  0  0  0  0  2  0  0  0  0  0  0
  189.0230  176.4970  143.8400 C   0  0  1  0  0  3  0  0  0  0  0  0
  186.0790  177.6900  145.7320 C   0  0  0  0  0  2  0  0  0  0  0  0
  192.9680  175.7060  145.4230 C   0  0  0  0  0  0  0  0  0  0  0  0
  195.8400  175.5720  144.1280 N   0  0  0  0  0  2  0  0  0  0  0  0
  186.5350  177.6880  143.1910 C   0  0  2  0  0  3  0  0  0  0  0  0
  190.6470  176.3670  145.7750 C   0  0  0  0  0  0  0  0  0  0  0  0
  193.6600  174.9540  143.0470 C   0  0  1  0  0  3  0  0  0  0  0  0
  190.3840  176.1490  144.4150 C   0  0  0  0  0  0  0  0  0  0  0  0
  191.3700  177.1450  148.3890 C   0  0  0  0  0  3  0  0  0  0  0  0
  187.9240  176.2820  141.6220 C   0  0  0  0  0  2  0  0  0  0  0  0
  192.2060  176.4670  147.6550 N   0  0  0  0  0  0  0  0  0  0  0  0
  188.6500  175.5280  142.7240 C   0  0  0  0  0  2  0  0  0  0  0  0
  186.6330  176.9170  144.5310 C   0  0  1  0  0  3  0  0  0  0  0  0
  190.1100  177.7180  147.7980 C   0  0  0  0  0  2  0  0  0  0  0  0
  188.4090  177.4030  145.9510 C   0  0  2  0  0  3  0  0  0  0  0  0
  185.2610  178.5170  143.0800 C   0  0  0  0  0  2  0  0  0  0  0  0
  184.6640  178.3670  141.6910 C   0  0  0  0  0  2  0  0  0  0  0  0
  181.1170  179.1070  142.0210 N   0  0  0  0  0  2  0  0  0  0  0  0
  182.5470  177.9990  140.4380 C   0  0  0  0  0  2  0  0  0  0  0  0
  183.2110  177.9420  141.7850 C   0  0  2  0  0  3  0  0  0  0  0  0
  181.1240  178.3900  140.7500 C   0  0  0  0  0  2  0  0  0  0  0  0
  182.4360  178.9310  142.6220 C   0  0  0  0  0  2  0  0  0  0  0  0
  1 26  1  1  0  0  0
  3 19  1  0  0  0  0
  3 16  1  0  0  0  0
  4 23  1  0  0  0  0
  5 15  1  0  0  0  0
  6 19  1  0  0  0  0
  7  3  2  0  0  0  0
  8 12  1  0  0  0  0
  9 27  1  0  0  0  0
 10 17  1  0  0  0  0
 11  5  2  0  0  0  0
 11 20  1  0  0  0  0
 13 20  1  0  0  0  0
 13  9  1  0  0  0  0
 14  2  1  0  0  0  0
 15 12  1  0  0  0  0
 15  4  2  0  0  0  0
 16  8  1  0  0  0  0
 17 25  1  0  0  0  0
 18  4  1  0  0  0  0
 18  1  1  0  0  0  0
 19  5  1  0  0  0  0
 20 18  2  0  0  0  0
 22 10  1  0  0  0  0
 22 24  1  0  0  0  0
 23 21  2  0  0  0  0
 24 13  1  0  0  0  0
 25  9  1  0  0  0  0
 25 14  1  0  0  0  0
 26 21  1  0  0  0  0
 27  1  1  0  0  0  0
 27  2  1  0  0  0  0
 28 17  1  0  0  0  0
 29 32  1  0  0  0  0
 29 28  1  0  0  0  0
 30 34  1  0  0  0  0
 31 33  1  0  0  0  0
 31 32  1  0  0  0  0
 32 34  1  0  0  0  0
 33 30  1  0  0  0  0
M  END
>  <MODEL>
2

>  <REMARK>
 VINA RESULT:      -8.1      2.370      4.573
  Name = 
  3 active torsions:
  status: ('A' for Active; 'I' for Inactive)
    1  A    between atoms: C_17  and  C_28
    2  A    between atoms: C_28  and  C_29
    3  A    between atoms: C_29  and  C_32
                            x       y       z     vdW  Elec       q    Type
                         _______ _______ _______ _____ _____    ______ ____

>  <TORSDO>
F 3

$$$$
=
 OpenBabel11112418023D

 34 40  0  0  1  0  0  0  0  0999 V2000
  192.2000  175.8720  145.6190 C   0  0  1  0  0  3  0  0  0  0  0  0
  190.1780  177.0670  146.5910 C   0  0  0  0  0  2  0  0  0  0  0  0
  195.4340  174.2510  140.0730 C   0  0  0  0  0  0  0  0  0  0  0  0
  194.1000  174.9880  144.2360 C   0  0  0  0  0  0  0  0  0  0  0  0
  193.7560  174.2900  141.9300 C   0  0  0  0  0  0  0  0  0  0  0  0
  193.0780  173.5410  139.5870 C   0  0  0  0  0  1  0  0  0  0  0  0
  195.4000  175.0300  139.0840 O   0  0  0  0  0  0  0  0  0  0  0  0
  196.6780  173.2420  141.9660 C   0  0  0  0  0  2  0  0  0  0  0  0
  190.0080  175.8180  144.5870 N   0  0  2  0  0  0  0  0  0  0  0  0
  187.5270  176.2540  142.5830 C   0  0  0  0  0  2  0  0  0  0  0  0
  192.4570  174.6940  142.0390 N   0  0  0  0  0  0  0  0  0  0  0  0
  196.1180  174.1350  143.0640 C   0  0  0  0  0  2  0  0  0  0  0  0
  190.5040  175.7250  143.2010 C   0  0  1  0  0  3  0  0  0  0  0  0
  188.7600  177.2330  146.0930 C   0  0  0  0  0  2  0  0  0  0  0  0
  194.6250  174.4240  143.0580 C   0  0  0  0  0  0  0  0  0  0  0  0
  196.6750  173.9640  140.7070 N   0  0  0  0  0  2  0  0  0  0  0  0
  188.1310  177.2260  143.5890 C   0  0  2  0  0  3  0  0  0  0  0  0
  192.7500  175.3580  144.3060 C   0  0  0  0  0  0  0  0  0  0  0  0
  194.1860  173.6420  140.6320 C   0  0  1  0  0  3  0  0  0  0  0  0
  191.9280  175.2020  143.1810 C   0  0  0  0  0  0  0  0  0  0  0  0
  194.5680  175.9880  146.3700 C   0  0  0  0  0  3  0  0  0  0  0  0
  188.5760  175.6930  141.6350 C   0  0  0  0  0  2  0  0  0  0  0  0
  194.9420  175.2280  145.3800 N   0  0  0  0  0  0  0  0  0  0  0  0
  189.5930  174.8330  142.3670 C   0  0  0  0  0  2  0  0  0  0  0  0
  188.6770  176.4220  144.7950 C   0  0  1  0  0  3  0  0  0  0  0  0
  193.2550  176.7240  146.3270 C   0  0  0  0  0  2  0  0  0  0  0  0
  190.9220  176.6570  145.3490 C   0  0  2  0  0  3  0  0  0  0  0  0
  187.0340  178.2080  143.9820 C   0  0  0  0  0  2  0  0  0  0  0  0
  185.7010  177.4860  144.0710 C   0  0  0  0  0  2  0  0  0  0  0  0
  185.4580  177.4680  147.7020 N   0  0  0  0  0  2  0  0  0  0  0  0
  185.5480  179.1100  145.9490 C   0  0  0  0  0  2  0  0  0  0  0  0
  184.9960  177.8390  145.3680 C   0  0  2  0  0  3  0  0  0  0  0  0
  185.4460  178.9030  147.4400 C   0  0  0  0  0  2  0  0  0  0  0  0
  185.2910  176.7940  146.4180 C   0  0  0  0  0  2  0  0  0  0  0  0
  1 26  1  6  0  0  0
  3 19  1  0  0  0  0
  3 16  1  0  0  0  0
  4 18  1  0  0  0  0
  4 23  1  0  0  0  0
  5 11  2  0  0  0  0
  5 15  1  0  0  0  0
  6 19  1  0  0  0  0
  7  3  2  0  0  0  0
  8 12  1  0  0  0  0
  9 25  1  0  0  0  0
  9 27  1  0  0  0  0
 10 17  1  0  0  0  0
 11 20  1  0  0  0  0
 13  9  1  0  0  0  0
 14  2  1  0  0  0  0
 15 12  1  0  0  0  0
 15  4  2  0  0  0  0
 16  8  1  0  0  0  0
 17 28  1  0  0  0  0
 17 25  1  0  0  0  0
 18  1  1  0  0  0  0
 19  5  1  0  0  0  0
 20 13  1  0  0  0  0
 20 18  2  0  0  0  0
 22 24  1  0  0  0  0
 22 10  1  0  0  0  0
 23 21  2  0  0  0  0
 24 13  1  0  0  0  0
 25 14  1  0  0  0  0
 26 21  1  0  0  0  0
 27  1  1  0  0  0  0
 27  2  1  0  0  0  0
 28 29  1  0  0  0  0
 29 32  1  0  0  0  0
 31 33  1  0  0  0  0
 32 31  1  0  0  0  0
 32 34  1  0  0  0  0
 33 30  1  0  0  0  0
 34 30  1  0  0  0  0
M  END
>  <MODEL>
3

>  <REMARK>
 VINA RESULT:      -8.1      2.019      4.014
  Name = 
  3 active torsions:
  status: ('A' for Active; 'I' for Inactive)
    1  A    between atoms: C_17  and  C_28
    2  A    between atoms: C_28  and  C_29
    3  A    between atoms: C_29  and  C_32
                            x       y       z     vdW  Elec       q    Type
                         _______ _______ _______ _____ _____    ______ ____

>  <TORSDO>
F 3

$$$$
=
 OpenBabel11112418023D

 34 40  0  0  1  0  0  0  0  0999 V2000
  189.4120  174.5300  142.6470 C   0  0  1  0  0  3  0  0  0  0  0  0
  191.7160  173.5340  143.0540 C   0  0  0  0  0  2  0  0  0  0  0  0
  185.2210  179.4070  144.2270 C   0  0  0  0  0  0  0  0  0  0  0  0
  187.3510  175.9480  142.4480 C   0  0  0  0  0  0  0  0  0  0  0  0
  186.5720  177.3010  144.3170 C   0  0  0  0  0  0  0  0  0  0  0  0
  185.9420  178.5270  146.4630 C   0  0  0  0  0  1  0  0  0  0  0  0
  185.6750  180.5410  144.5310 O   0  0  0  0  0  0  0  0  0  0  0  0
  184.0480  177.9250  142.6210 C   0  0  0  0  0  2  0  0  0  0  0  0
  190.4560  174.4560  144.8330 N   0  0  2  0  0  0  0  0  0  0  0  0
  191.8760  175.2670  147.6060 C   0  0  0  0  0  2  0  0  0  0  0  0
  187.6690  176.8960  145.0200 N   0  0  0  0  0  0  0  0  0  0  0  0
  185.2840  177.2630  142.0300 C   0  0  0  0  0  2  0  0  0  0  0  0
  189.8380  175.7000  145.3290 C   0  0  1  0  0  3  0  0  0  0  0  0
  192.5810  173.4480  144.2910 C   0  0  0  0  0  2  0  0  0  0  0  0
  186.3810  176.8170  142.9840 C   0  0  0  0  0  0  0  0  0  0  0  0
  184.3890  179.2590  143.0830 N   0  0  0  0  0  2  0  0  0  0  0  0
  192.4790  175.1710  146.2100 C   0  0  2  0  0  3  0  0  0  0  0  0
  188.4430  175.5380  143.2250 C   0  0  0  0  0  0  0  0  0  0  0  0
  185.5690  178.1870  145.0230 C   0  0  1  0  0  3  0  0  0  0  0  0
  188.5900  176.0280  144.5300 C   0  0  0  0  0  0  0  0  0  0  0  0
  188.2640  174.9240  140.4770 C   0  0  0  0  0  3  0  0  0  0  0  0
  190.6450  176.1610  147.6330 C   0  0  0  0  0  2  0  0  0  0  0  0
  187.2620  175.4910  141.0850 N   0  0  0  0  0  0  0  0  0  0  0  0
  189.5080  175.5760  146.8120 C   0  0  0  0  0  2  0  0  0  0  0  0
  191.7480  174.0540  145.4240 C   0  0  1  0  0  3  0  0  0  0  0  0
  189.6030  174.7890  141.1510 C   0  0  0  0  0  2  0  0  0  0  0  0
  190.7290  174.6120  143.4110 C   0  0  2  0  0  3  0  0  0  0  0  0
  193.9680  174.8940  146.3800 C   0  0  0  0  0  2  0  0  0  0  0  0
  194.7690  176.1380  146.0350 C   0  0  0  0  0  2  0  0  0  0  0  0
  196.0680  173.9750  143.4130 N   0  0  0  0  0  2  0  0  0  0  0  0
  194.9270  176.0860  143.5530 C   0  0  0  0  0  2  0  0  0  0  0  0
  195.6680  175.8710  144.8420 C   0  0  2  0  0  3  0  0  0  0  0  0
  195.5280  175.0700  142.6140 C   0  0  0  0  0  2  0  0  0  0  0  0
  196.0590  174.4130  144.8050 C   0  0  0  0  0  2  0  0  0  0  0  0
  1 26  1  6  0  0  0
  1 18  1  0  0  0  0
  1 27  1  0  0  0  0
  2 27  1  0  0  0  0
  2 14  1  0  0  0  0
  3  7  2  0  0  0  0
  3 19  1  0  0  0  0
  4 15  2  0  0  0  0
  4 18  1  0  0  0  0
  5 11  2  0  0  0  0
  5 19  1  0  0  0  0
  8 16  1  0  0  0  0
  9 13  1  0  0  0  0
  9 25  1  0  0  0  0
 10 22  1  0  0  0  0
 12  8  1  0  0  0  0
 12 15  1  0  0  0  0
 13 24  1  0  0  0  0
 14 25  1  0  0  0  0
 15  5  1  0  0  0  0
 16  3  1  0  0  0  0
 17 28  1  0  0  0  0
 17 10  1  0  0  0  0
 18 20  2  0  0  0  0
 19  6  1  0  0  0  0
 20 11  1  0  0  0  0
 20 13  1  0  0  0  0
 21 23  2  0  0  0  0
 21 26  1  0  0  0  0
 23  4  1  0  0  0  0
 24 22  1  0  0  0  0
 25 17  1  0  0  0  0
 27  9  1  0  0  0  0
 29 28  1  0  0  0  0
 30 34  1  0  0  0  0
 31 32  1  0  0  0  0
 32 29  1  0  0  0  0
 33 30  1  0  0  0  0
 33 31  1  0  0  0  0
 34 32  1  0  0  0  0
M  END
>  <MODEL>
4

>  <REMARK>
 VINA RESULT:      -8.0      2.740      7.923
  Name = 
  3 active torsions:
  status: ('A' for Active; 'I' for Inactive)
    1  A    between atoms: C_17  and  C_28
    2  A    between atoms: C_28  and  C_29
    3  A    between atoms: C_29  and  C_32
                            x       y       z     vdW  Elec       q    Type
                         _______ _______ _______ _____ _____    ______ ____

>  <TORSDO>
F 3

$$$$
=
 OpenBabel11112418023D

 34 40  0  0  1  0  0  0  0  0999 V2000
  194.1690  175.7050  144.4710 C   0  0  1  0  0  3  0  0  0  0  0  0
  192.8570  176.4770  146.5080 C   0  0  0  0  0  2  0  0  0  0  0  0
  194.0660  174.9080  137.8980 C   0  0  0  0  0  0  0  0  0  0  0  0
  195.1140  175.2330  142.1940 C   0  0  0  0  0  0  0  0  0  0  0  0
  193.6730  174.5720  140.3470 C   0  0  0  0  0  0  0  0  0  0  0  0
  191.9400  173.8030  138.6400 C   0  0  0  0  0  1  0  0  0  0  0  0
  193.3990  175.7050  137.1860 O   0  0  0  0  0  0  0  0  0  0  0  0
  196.2570  174.0700  138.7020 C   0  0  0  0  0  2  0  0  0  0  0  0
  191.7970  175.2940  144.7520 N   0  0  2  0  0  0  0  0  0  0  0  0
  188.5940  175.3500  144.4320 C   0  0  0  0  0  2  0  0  0  0  0  0
  192.6000  174.7300  141.1750 N   0  0  0  0  0  0  0  0  0  0  0  0
  196.2680  174.8050  140.0350 C   0  0  0  0  0  2  0  0  0  0  0  0
  191.4710  175.3460  143.3150 C   0  0  1  0  0  3  0  0  0  0  0  0
  191.3890  176.4020  146.8580 C   0  0  0  0  0  2  0  0  0  0  0  0
  194.9870  174.8190  140.8540 C   0  0  0  0  0  0  0  0  0  0  0  0
  195.4770  174.8280  137.7390 N   0  0  0  0  0  2  0  0  0  0  0  0
  189.5120  176.3770  145.0850 C   0  0  2  0  0  3  0  0  0  0  0  0
  193.9820  175.3500  143.0120 C   0  0  0  0  0  0  0  0  0  0  0  0
  193.4130  174.0620  138.9460 C   0  0  1  0  0  3  0  0  0  0  0  0
  192.7110  175.0900  142.4790 C   0  0  0  0  0  0  0  0  0  0  0  0
  196.5260  176.2190  143.8690 C   0  0  0  0  0  3  0  0  0  0  0  0
  189.0260  175.0240  143.0110 C   0  0  0  0  0  2  0  0  0  0  0  0
  196.4010  175.5780  142.7420 N   0  0  0  0  0  0  0  0  0  0  0  0
  190.3800  174.3360  142.9790 C   0  0  0  0  0  2  0  0  0  0  0  0
  190.7240  175.6390  145.7070 C   0  0  1  0  0  3  0  0  0  0  0  0
  195.3160  176.7060  144.6200 C   0  0  0  0  0  2  0  0  0  0  0  0
  192.8570  176.2560  145.0190 C   0  0  2  0  0  3  0  0  0  0  0  0
  188.6840  177.1280  146.1210 C   0  0  0  0  0  2  0  0  0  0  0  0
  187.8150  176.1520  146.8950 C   0  0  0  0  0  2  0  0  0  0  0  0
  185.5490  178.9970  146.9970 N   0  0  0  0  0  2  0  0  0  0  0  0
  185.5710  176.7950  146.0350 C   0  0  0  0  0  2  0  0  0  0  0  0
  186.4790  176.7890  147.2320 C   0  0  2  0  0  3  0  0  0  0  0  0
  184.7690  178.0630  146.1930 C   0  0  0  0  0  2  0  0  0  0  0  0
  186.6710  178.2510  147.5570 C   0  0  0  0  0  2  0  0  0  0  0  0
  1 26  1  6  0  0  0
  1 27  1  0  0  0  0
  2 14  1  0  0  0  0
  3 19  1  0  0  0  0
  4 23  1  0  0  0  0
  4 18  1  0  0  0  0
  5 15  1  0  0  0  0
  5 11  2  0  0  0  0
  6 19  1  0  0  0  0
  7  3  2  0  0  0  0
  8 12  1  0  0  0  0
  9 27  1  0  0  0  0
  9 25  1  0  0  0  0
 10 17  1  0  0  0  0
 11 20  1  0  0  0  0
 12 15  1  0  0  0  0
 13  9  1  0  0  0  0
 15  4  2  0  0  0  0
 16  3  1  0  0  0  0
 16  8  1  0  0  0  0
 17 25  1  0  0  0  0
 17 28  1  0  0  0  0
 18  1  1  0  0  0  0
 19  5  1  0  0  0  0
 20 18  2  0  0  0  0
 20 13  1  0  0  0  0
 21 26  1  0  0  0  0
 22 10  1  0  0  0  0
 23 21  2  0  0  0  0
 24 22  1  0  0  0  0
 24 13  1  0  0  0  0
 25 14  1  0  0  0  0
 27  2  1  0  0  0  0
 28 29  1  0  0  0  0
 29 32  1  0  0  0  0
 30 34  1  0  0  0  0
 31 33  1  0  0  0  0
 31 32  1  0  0  0  0
 32 34  1  0  0  0  0
 33 30  1  0  0  0  0
M  END
>  <MODEL>
5

>  <REMARK>
 VINA RESULT:      -7.7      2.668      4.676
  Name = 
  3 active torsions:
  status: ('A' for Active; 'I' for Inactive)
    1  A    between atoms: C_17  and  C_28
    2  A    between atoms: C_28  and  C_29
    3  A    between atoms: C_29  and  C_32
                            x       y       z     vdW  Elec       q    Type
                         _______ _______ _______ _____ _____    ______ ____

>  <TORSDO>
F 3

$$$$
=
 OpenBabel11112418023D

 34 40  0  0  1  0  0  0  0  0999 V2000
  192.5550  175.9550  145.3190 C   0  0  1  0  0  3  0  0  0  0  0  0
  190.8950  177.7600  144.6460 C   0  0  0  0  0  2  0  0  0  0  0  0
  195.1610  170.0780  143.7350 C   0  0  0  0  0  0  0  0  0  0  0  0
  194.1560  174.0290  145.4790 C   0  0  0  0  0  0  0  0  0  0  0  0
  193.5920  171.8480  144.5570 C   0  0  0  0  0  0  0  0  0  0  0  0
  192.6910  169.6640  143.5950 C   0  0  0  0  0  1  0  0  0  0  0  0
  195.2800  169.7580  142.5230 O   0  0  0  0  0  0  0  0  0  0  0  0
  196.1900  170.7800  145.8800 C   0  0  0  0  0  2  0  0  0  0  0  0
  190.3820  175.4660  144.3650 N   0  0  2  0  0  0  0  0  0  0  0  0
  188.0140  174.5430  142.3890 C   0  0  0  0  0  2  0  0  0  0  0  0
  192.4270  172.3850  144.0920 N   0  0  0  0  0  0  0  0  0  0  0  0
  195.8850  172.2670  145.7630 C   0  0  0  0  0  2  0  0  0  0  0  0
  190.8020  174.2330  143.6740 C   0  0  1  0  0  3  0  0  0  0  0  0
  189.5410  177.6960  143.9770 C   0  0  0  0  0  2  0  0  0  0  0  0
  194.5010  172.6770  145.2850 C   0  0  0  0  0  0  0  0  0  0  0  0
  196.3190  170.2080  144.5510 N   0  0  0  0  0  2  0  0  0  0  0  0
  188.8560  175.8120  142.3510 C   0  0  2  0  0  3  0  0  0  0  0  0
  192.9320  174.5230  145.0080 C   0  0  0  0  0  0  0  0  0  0  0  0
  193.8220  170.3670  144.3390 C   0  0  1  0  0  3  0  0  0  0  0  0
  192.0640  173.6750  144.3060 C   0  0  0  0  0  0  0  0  0  0  0  0
  194.9050  176.2290  146.0830 C   0  0  0  0  0  3  0  0  0  0  0  0
  188.8750  173.2900  142.4220 C   0  0  0  0  0  2  0  0  0  0  0  0
  195.0630  174.9380  146.1310 N   0  0  0  0  0  0  0  0  0  0  0  0
  189.6840  173.1970  143.7050 C   0  0  0  0  0  2  0  0  0  0  0  0
  189.2340  176.2060  143.8010 C   0  0  1  0  0  3  0  0  0  0  0  0
  193.7990  176.8440  145.2670 C   0  0  0  0  0  2  0  0  0  0  0  0
  191.4870  176.4130  144.3310 C   0  0  2  0  0  3  0  0  0  0  0  0
  188.0300  176.8800  141.6460 C   0  0  0  0  0  2  0  0  0  0  0  0
  186.5560  176.6850  141.9590 C   0  0  0  0  0  2  0  0  0  0  0  0
  183.7760  178.6660  143.2190 N   0  0  0  0  0  2  0  0  0  0  0  0
  185.8020  177.7140  144.0940 C   0  0  0  0  0  2  0  0  0  0  0  0
  185.9870  177.9280  142.6180 C   0  0  2  0  0  3  0  0  0  0  0  0
  184.5780  178.5310  144.4290 C   0  0  0  0  0  2  0  0  0  0  0  0
  184.5920  178.1940  142.1050 C   0  0  0  0  0  2  0  0  0  0  0  0
  1 26  1  6  0  0  0
  3 19  1  0  0  0  0
  3 16  1  0  0  0  0
  4 23  1  0  0  0  0
  5 15  2  0  0  0  0
  6 19  1  0  0  0  0
  7  3  2  0  0  0  0
 10 22  1  0  0  0  0
 11 20  2  0  0  0  0
 11  5  1  0  0  0  0
 12  8  1  0  0  0  0
 13 24  1  0  0  0  0
 13 20  1  0  0  0  0
 13  9  1  0  0  0  0
 14  2  1  0  0  0  0
 15  4  1  0  0  0  0
 15 12  1  0  0  0  0
 16  8  1  0  0  0  0
 17 10  1  0  0  0  0
 17 25  1  0  0  0  0
 18  1  1  0  0  0  0
 18  4  2  0  0  0  0
 19  5  1  0  0  0  0
 20 18  1  0  0  0  0
 21 23  2  0  0  0  0
 22 24  1  0  0  0  0
 25 14  1  0  0  0  0
 25  9  1  0  0  0  0
 26 21  1  0  0  0  0
 27  9  1  0  0  0  0
 27  2  1  0  0  0  0
 27  1  1  0  0  0  0
 28 29  1  0  0  0  0
 28 17  1  0  0  0  0
 29 32  1  0  0  0  0
 30 33  1  0  0  0  0
 31 33  1  0  0  0  0
 32 31  1  0  0  0  0
 34 32  1  0  0  0  0
 34 30  1  0  0  0  0
M  END
>  <MODEL>
6

>  <REMARK>
 VINA RESULT:      -7.7      2.183      4.248
  Name = 
  3 active torsions:
  status: ('A' for Active; 'I' for Inactive)
    1  A    between atoms: C_17  and  C_28
    2  A    between atoms: C_28  and  C_29
    3  A    between atoms: C_29  and  C_32
                            x       y       z     vdW  Elec       q    Type
                         _______ _______ _______ _____ _____    ______ ____

>  <TORSDO>
F 3

$$$$
=
 OpenBabel11112418023D

 34 40  0  0  1  0  0  0  0  0999 V2000
  190.6990  172.8410  141.9940 C   0  0  1  0  0  3  0  0  0  0  0  0
  188.2420  173.4940  141.9920 C   0  0  0  0  0  2  0  0  0  0  0  0
  196.5940  173.7980  144.8550 C   0  0  0  0  0  0  0  0  0  0  0  0
  193.1200  172.3940  142.4840 C   0  0  0  0  0  0  0  0  0  0  0  0
  194.5440  174.1140  143.4520 C   0  0  0  0  0  0  0  0  0  0  0  0
  195.8110  176.1310  144.3660 C   0  0  0  0  0  1  0  0  0  0  0  0
  196.6510  174.0780  146.0810 O   0  0  0  0  0  0  0  0  0  0  0  0
  196.9320  172.1810  143.0060 C   0  0  0  0  0  2  0  0  0  0  0  0
  189.9310  175.1090  142.3720 N   0  0  2  0  0  0  0  0  0  0  0  0
  189.2200  177.9440  143.7220 C   0  0  0  0  0  2  0  0  0  0  0  0
  193.4520  174.9290  143.5220 N   0  0  0  0  0  0  0  0  0  0  0  0
  195.4830  171.7330  142.8730 C   0  0  0  0  0  2  0  0  0  0  0  0
  191.0300  175.4830  143.2810 C   0  0  1  0  0  3  0  0  0  0  0  0
  187.5380  174.8020  142.2730 C   0  0  0  0  0  2  0  0  0  0  0  0
  194.4000  172.7990  142.9110 C   0  0  0  0  0  0  0  0  0  0  0  0
  197.1850  172.5980  144.3730 N   0  0  0  0  0  2  0  0  0  0  0  0
  188.4930  176.6110  143.8480 C   0  0  2  0  0  3  0  0  0  0  0  0
  192.0360  173.2810  142.5490 C   0  0  0  0  0  0  0  0  0  0  0  0
  195.8780  174.6850  143.8830 C   0  0  1  0  0  3  0  0  0  0  0  0
  192.2220  174.5660  143.0790 C   0  0  0  0  0  0  0  0  0  0  0  0
  191.6900  170.5640  141.8700 C   0  0  0  0  0  3  0  0  0  0  0  0
  190.6980  177.8190  144.0600 C   0  0  0  0  0  2  0  0  0  0  0  0
  192.8890  171.0550  142.0070 N   0  0  0  0  0  0  0  0  0  0  0  0
  191.4300  176.9370  143.0620 C   0  0  0  0  0  2  0  0  0  0  0  0
  188.6490  175.8270  142.5210 C   0  0  1  0  0  3  0  0  0  0  0  0
  190.4780  171.3550  142.2840 C   0  0  0  0  0  2  0  0  0  0  0  0
  189.6010  173.7090  142.6000 C   0  0  2  0  0  3  0  0  0  0  0  0
  187.0390  176.9210  144.1820 C   0  0  0  0  0  2  0  0  0  0  0  0
  186.7050  178.3450  143.7710 C   0  0  0  0  0  2  0  0  0  0  0  0
  183.7580  178.7650  145.8630 N   0  0  0  0  0  2  0  0  0  0  0  0
  186.0990  178.3250  146.1830 C   0  0  0  0  0  2  0  0  0  0  0  0
  185.9350  179.0460  144.8750 C   0  0  2  0  0  3  0  0  0  0  0  0
  184.7770  178.5320  146.8800 C   0  0  0  0  0  2  0  0  0  0  0  0
  184.4530  178.9750  144.5970 C   0  0  0  0  0  2  0  0  0  0  0  0
  1 26  1  1  0  0  0
  1 18  1  0  0  0  0
  1 27  1  0  0  0  0
  2 14  1  0  0  0  0
  2 27  1  0  0  0  0
  3  7  2  0  0  0  0
  4 18  2  0  0  0  0
  4 15  1  0  0  0  0
  5 11  1  0  0  0  0
  5 19  1  0  0  0  0
  8 16  1  0  0  0  0
  9 25  1  0  0  0  0
  9 27  1  0  0  0  0
  9 13  1  0  0  0  0
 10 17  1  0  0  0  0
 10 22  1  0  0  0  0
 12 15  1  0  0  0  0
 12  8  1  0  0  0  0
 14 25  1  0  0  0  0
 15  5  2  0  0  0  0
 16  3  1  0  0  0  0
 17 28  1  0  0  0  0
 18 20  1  0  0  0  0
 19  6  1  0  0  0  0
 19  3  1  0  0  0  0
 20 13  1  0  0  0  0
 20 11  2  0  0  0  0
 21 23  2  0  0  0  0
 21 26  1  0  0  0  0
 23  4  1  0  0  0  0
 24 13  1  0  0  0  0
 24 22  1  0  0  0  0
 25 17  1  0  0  0  0
 29 28  1  0  0  0  0
 29 32  1  0  0  0  0
 30 33  1  0  0  0  0
 31 33  1  0  0  0  0
 32 31  1  0  0  0  0
 34 32  1  0  0  0  0
 34 30  1  0  0  0  0
M  END
>  <MODEL>
7

>  <REMARK>
 VINA RESULT:      -7.7      1.693      2.308
  Name = 
  3 active torsions:
  status: ('A' for Active; 'I' for Inactive)
    1  A    between atoms: C_17  and  C_28
    2  A    between atoms: C_28  and  C_29
    3  A    between atoms: C_29  and  C_32
                            x       y       z     vdW  Elec       q    Type
                         _______ _______ _______ _____ _____    ______ ____

>  <TORSDO>
F 3

$$$$
=
 OpenBabel11112418023D

 34 40  0  0  1  0  0  0  0  0999 V2000
  190.2400  174.8260  142.0360 C   0  0  1  0  0  3  0  0  0  0  0  0
  188.6990  176.7300  142.7190 C   0  0  0  0  0  2  0  0  0  0  0  0
  193.5410  169.4730  144.1070 C   0  0  0  0  0  0  0  0  0  0  0  0
  191.5890  172.7220  141.8070 C   0  0  0  0  0  0  0  0  0  0  0  0
  192.8830  171.8490  143.6750 C   0  0  0  0  0  0  0  0  0  0  0  0
  194.2140  171.2330  145.7620 C   0  0  0  0  0  1  0  0  0  0  0  0
  193.0700  168.7760  145.0440 O   0  0  0  0  0  0  0  0  0  0  0  0
  194.0540  169.7620  141.6980 C   0  0  0  0  0  2  0  0  0  0  0  0
  190.4470  176.0070  144.1420 N   0  0  2  0  0  0  0  0  0  0  0  0
  190.4390  176.7660  147.2710 C   0  0  0  0  0  2  0  0  0  0  0  0
  192.3860  172.8600  144.4450 N   0  0  0  0  0  0  0  0  0  0  0  0
  192.8560  170.6340  141.3480 C   0  0  0  0  0  2  0  0  0  0  0  0
  190.9530  174.8520  144.9060 C   0  0  1  0  0  3  0  0  0  0  0  0
  188.5940  177.5460  143.9870 C   0  0  0  0  0  2  0  0  0  0  0  0
  192.4910  171.7610  142.3020 C   0  0  0  0  0  0  0  0  0  0  0  0
  193.7140  168.9000  142.8160 N   0  0  0  0  0  2  0  0  0  0  0  0
  189.2630  176.6410  146.3100 C   0  0  2  0  0  3  0  0  0  0  0  0
  191.1320  173.7590  142.6310 C   0  0  0  0  0  0  0  0  0  0  0  0
  193.8930  170.9140  144.3040 C   0  0  1  0  0  3  0  0  0  0  0  0
  191.5480  173.8160  143.9690 C   0  0  0  0  0  0  0  0  0  0  0  0
  190.0620  173.3330  140.0560 C   0  0  0  0  0  3  0  0  0  0  0  0
  191.3060  175.5160  147.2730 C   0  0  0  0  0  2  0  0  0  0  0  0
  191.0900  172.6420  140.4580 N   0  0  0  0  0  0  0  0  0  0  0  0
  191.9860  175.3020  145.9320 C   0  0  0  0  0  2  0  0  0  0  0  0
  189.7280  177.0570  144.8920 C   0  0  1  0  0  3  0  0  0  0  0  0
  189.2890  174.1990  141.0140 C   0  0  0  0  0  2  0  0  0  0  0  0
  189.4850  175.5260  143.1610 C   0  0  2  0  0  3  0  0  0  0  0  0
  188.1460  177.5270  146.8470 C   0  0  0  0  0  2  0  0  0  0  0  0
  186.9850  176.6680  147.3200 C   0  0  0  0  0  2  0  0  0  0  0  0
  185.0130  179.1980  145.6000 N   0  0  0  0  0  2  0  0  0  0  0  0
  185.5650  176.8790  145.2880 C   0  0  0  0  0  2  0  0  0  0  0  0
  185.6780  177.1910  146.7530 C   0  0  2  0  0  3  0  0  0  0  0  0
  184.8000  178.0510  144.7240 C   0  0  0  0  0  2  0  0  0  0  0  0
  185.6550  178.7000  146.8130 C   0  0  0  0  0  2  0  0  0  0  0  0
  1 26  1  6  0  0  0
  1 18  1  0  0  0  0
  1 27  1  0  0  0  0
  2 27  1  0  0  0  0
  2 14  1  0  0  0  0
  3 19  1  0  0  0  0
  3  7  2  0  0  0  0
  4 15  2  0  0  0  0
  4 18  1  0  0  0  0
  5 19  1  0  0  0  0
  5 11  2  0  0  0  0
  8 16  1  0  0  0  0
  9 25  1  0  0  0  0
  9 13  1  0  0  0  0
 10 22  1  0  0  0  0
 12  8  1  0  0  0  0
 12 15  1  0  0  0  0
 13 24  1  0  0  0  0
 14 25  1  0  0  0  0
 15  5  1  0  0  0  0
 16  3  1  0  0  0  0
 17 28  1  0  0  0  0
 17 10  1  0  0  0  0
 18 20  2  0  0  0  0
 19  6  1  0  0  0  0
 20 11  1  0  0  0  0
 20 13  1  0  0  0  0
 21 23  2  0  0  0  0
 21 26  1  0  0  0  0
 23  4  1  0  0  0  0
 24 22  1  0  0  0  0
 25 17  1  0  0  0  0
 27  9  1  0  0  0  0
 28 29  1  0  0  0  0
 30 34  1  0  0  0  0
 31 32  1  0  0  0  0
 32 34  1  0  0  0  0
 32 29  1  0  0  0  0
 33 31  1  0  0  0  0
 33 30  1  0  0  0  0
M  END
>  <MODEL>
8

>  <REMARK>
 VINA RESULT:      -7.6      1.914      2.223
  Name = 
  3 active torsions:
  status: ('A' for Active; 'I' for Inactive)
    1  A    between atoms: C_17  and  C_28
    2  A    between atoms: C_28  and  C_29
    3  A    between atoms: C_29  and  C_32
                            x       y       z     vdW  Elec       q    Type
                         _______ _______ _______ _____ _____    ______ ____

>  <TORSDO>
F 3

$$$$
=
 OpenBabel11112418023D

 34 40  0  0  1  0  0  0  0  0999 V2000
  192.1650  175.4890  145.8420 C   0  0  1  0  0  3  0  0  0  0  0  0
  190.0460  176.2920  146.9960 C   0  0  0  0  0  2  0  0  0  0  0  0
  195.3030  174.8200  140.0500 C   0  0  0  0  0  0  0  0  0  0  0  0
  194.0960  175.0100  144.3120 C   0  0  0  0  0  0  0  0  0  0  0  0
  193.7350  174.4600  141.9690 C   0  0  0  0  0  0  0  0  0  0  0  0
  193.0500  173.8150  139.5980 C   0  0  0  0  0  1  0  0  0  0  0  0
  195.1060  175.6640  139.1360 O   0  0  0  0  0  0  0  0  0  0  0  0
  196.7750  173.8530  141.7950 C   0  0  0  0  0  2  0  0  0  0  0  0
  189.9520  175.1990  144.8980 N   0  0  2  0  0  0  0  0  0  0  0  0
  187.3330  175.4290  143.0410 C   0  0  0  0  0  2  0  0  0  0  0  0
  192.4000  174.6590  142.1640 N   0  0  0  0  0  0  0  0  0  0  0  0
  196.1520  174.5620  142.9890 C   0  0  0  0  0  2  0  0  0  0  0  0
  190.3830  175.2940  143.4910 C   0  0  1  0  0  3  0  0  0  0  0  0
  188.5950  176.2870  146.5720 C   0  0  0  0  0  2  0  0  0  0  0  0
  194.6340  174.6280  143.0680 C   0  0  0  0  0  0  0  0  0  0  0  0
  196.6030  174.6680  140.6060 N   0  0  0  0  0  2  0  0  0  0  0  0
  187.8440  176.3940  144.1040 C   0  0  2  0  0  3  0  0  0  0  0  0
  192.7130  175.1710  144.4680 C   0  0  0  0  0  0  0  0  0  0  0  0
  194.1860  173.9910  140.6020 C   0  0  1  0  0  3  0  0  0  0  0  0
  191.8640  174.9880  143.3670 C   0  0  0  0  0  0  0  0  0  0  0  0
  194.5280  175.8900  146.5050 C   0  0  0  0  0  3  0  0  0  0  0  0
  188.4000  175.1070  142.0060 C   0  0  0  0  0  2  0  0  0  0  0  0
  194.9540  175.2770  145.4390 N   0  0  0  0  0  0  0  0  0  0  0  0
  189.5660  174.3490  142.6180 C   0  0  0  0  0  2  0  0  0  0  0  0
  188.5610  175.5820  145.2120 C   0  0  1  0  0  3  0  0  0  0  0  0
  193.1230  176.4260  146.5810 C   0  0  0  0  0  2  0  0  0  0  0  0
  190.7750  176.0980  145.6940 C   0  0  2  0  0  3  0  0  0  0  0  0
  186.6400  177.1680  144.6260 C   0  0  0  0  0  2  0  0  0  0  0  0
  186.8030  178.6470  144.3210 C   0  0  0  0  0  2  0  0  0  0  0  0
  184.7910  178.2660  141.3130 N   0  0  0  0  0  2  0  0  0  0  0  0
  184.4080  178.4410  143.6800 C   0  0  0  0  0  2  0  0  0  0  0  0
  185.7170  179.1120  143.3680 C   0  0  2  0  0  3  0  0  0  0  0  0
  183.7470  178.2910  142.3320 C   0  0  0  0  0  2  0  0  0  0  0  0
  186.0360  178.6650  141.9620 C   0  0  0  0  0  2  0  0  0  0  0  0
  1 26  1  6  0  0  0
  3 19  1  0  0  0  0
  3 16  1  0  0  0  0
  4 18  1  0  0  0  0
  4 23  1  0  0  0  0
  5 11  2  0  0  0  0
  5 15  1  0  0  0  0
  6 19  1  0  0  0  0
  7  3  2  0  0  0  0
  8 12  1  0  0  0  0
  9 25  1  0  0  0  0
  9 27  1  0  0  0  0
 10 17  1  0  0  0  0
 11 20  1  0  0  0  0
 12 15  1  0  0  0  0
 13  9  1  0  0  0  0
 14  2  1  0  0  0  0
 15  4  2  0  0  0  0
 16  8  1  0  0  0  0
 17 28  1  0  0  0  0
 17 25  1  0  0  0  0
 18  1  1  0  0  0  0
 19  5  1  0  0  0  0
 20 13  1  0  0  0  0
 20 18  2  0  0  0  0
 21 26  1  0  0  0  0
 22 24  1  0  0  0  0
 22 10  1  0  0  0  0
 23 21  2  0  0  0  0
 24 13  1  0  0  0  0
 25 14  1  0  0  0  0
 27  1  1  0  0  0  0
 27  2  1  0  0  0  0
 29 28  1  0  0  0  0
 30 34  1  0  0  0  0
 30 33  1  0  0  0  0
 32 31  1  0  0  0  0
 32 29  1  0  0  0  0
 33 31  1  0  0  0  0
 34 32  1  0  0  0  0
M  END
>  <MODEL>
9

>  <REMARK>
 VINA RESULT:      -7.6      2.210      4.055
  Name = 
  3 active torsions:
  status: ('A' for Active; 'I' for Inactive)
    1  A    between atoms: C_17  and  C_28
    2  A    between atoms: C_28  and  C_29
    3  A    between atoms: C_29  and  C_32
                            x       y       z     vdW  Elec       q    Type
                         _______ _______ _______ _____ _____    ______ ____

>  <TORSDO>
F 3

$$$$
