=
 OpenBabel11112417303D

 37 42  0  0  1  0  0  0  0  0999 V2000
  187.4630  176.8850  141.3020 C   0  0  0  0  0  0  0  0  0  0  0  0
  189.6140  174.1770  142.9600 C   0  0  1  0  0  3  0  0  0  0  0  0
  190.6020  174.3820  146.1120 O   0  0  0  0  0  0  0  0  0  0  0  0
  187.7080  174.4460  141.2590 N   0  0  2  0  0  0  0  0  0  0  0  0
  190.0770  175.2770  143.9150 C   0  0  2  0  0  3  0  0  0  0  0  0
  188.1420  174.5200  142.6670 C   0  0  2  0  0  3  0  0  0  0  0  0
  191.1690  174.8480  144.9150 C   0  0  2  0  0  3  0  0  0  0  0  0
  188.3500  173.3150  140.5900 C   0  0  0  0  0  2  0  0  0  0  0  0
  187.8290  175.8600  143.3480 C   0  0  2  0  0  3  0  0  0  0  0  0
  186.0930  176.8020  141.5100 F   0  0  0  0  0  0  0  0  0  0  0  0
  191.7570  173.4060  142.0160 N   0  0  0  0  0  2  0  0  0  0  0  0
  189.8730  173.4660  140.5010 C   0  0  0  0  0  2  0  0  0  0  0  0
  188.1610  176.9630  142.5220 O   0  0  0  0  0  0  0  0  0  0  0  0
  190.7820  176.6330  146.7710 O   0  0  0  0  0  0  0  0  0  0  0  0
  190.9660  175.2850  147.1380 C   0  0  0  0  0  2  0  0  0  0  0  0
  190.5240  174.1320  141.7180 C   0  0  1  0  0  3  0  0  0  0  0  0
  188.7870  175.8290  144.5330 C   0  0  2  0  0  3  0  0  0  0  0  0
  187.9610  175.6820  140.5150 C   0  0  0  0  0  2  0  0  0  0  0  0
  192.2250  173.8700  144.3590 C   0  0  1  0  0  3  0  0  0  0  0  0
  187.7260  178.0250  140.5660 F   0  0  0  0  0  0  0  0  0  0  0  0
  189.4020  176.8470  146.7310 C   0  0  0  0  0  2  0  0  0  0  0  0
  188.9560  177.1540  145.3040 C   0  0  2  0  0  3  0  0  0  0  0  0
  192.5930  174.1920  142.9130 C   0  0  0  0  0  2  0  0  0  0  0  0
  194.1990  175.1650  145.2680 C   0  0  0  0  0  2  0  0  0  0  0  0
  193.4990  173.8040  145.2080 C   0  0  2  0  0  3  0  0  0  0  0  0
  194.4560  172.6910  144.7570 C   0  0  0  0  0  2  0  0  0  0  0  0
  196.2290  171.7160  145.9710 O   0  0  0  0  0  0  0  0  0  0  0  0
  196.4010  174.0620  145.7650 C   0  0  0  0  0  2  0  0  0  0  0  0
  195.7220  172.7430  145.5540 C   0  0  0  0  0  0  0  0  0  0  0  0
  195.3860  175.1030  146.2280 C   0  0  0  0  0  2  0  0  0  0  0  0
  187.6360  177.9280  145.3860 C   0  0  0  0  0  2  0  0  0  0  0  0
  186.7020  177.4180  146.4900 C   0  0  1  0  0  3  0  0  0  0  0  0
  185.2550  178.3620  147.9460 O   0  0  0  0  0  1  0  0  0  0  0  0
  186.5480  178.4060  147.5470 N   0  0  0  0  0  2  0  0  0  0  0  0
  185.3350  177.0270  145.9440 C   0  0  0  0  0  2  0  0  0  0  0  0
  185.0480  177.7400  144.6330 C   0  0  0  0  0  2  0  0  0  0  0  0
  184.0810  178.7260  144.8280 O   0  0  0  0  0  1  0  0  0  0  0  0
  1 10  1  0  0  0  0
  1 13  1  0  0  0  0
  2  5  1  0  0  0  0
  3 15  1  0  0  0  0
  4  6  1  0  0  0  0
  5 17  1  0  0  0  0
  5  7  1  0  0  0  0
  6  2  1  0  0  0  0
  6  9  1  0  0  0  0
  7  3  1  0  0  0  0
  8  4  1  0  0  0  0
  9 17  1  0  0  0  0
 11 23  1  0  0  0  0
 12  8  1  0  0  0  0
 12 16  1  0  0  0  0
 13  9  1  0  0  0  0
 14 15  1  0  0  0  0
 16 11  1  0  0  0  0
 16  2  1  0  0  0  0
 17 22  1  0  0  0  0
 18  4  1  0  0  0  0
 18  1  1  0  0  0  0
 19  7  1  0  0  0  0
 19 25  1  0  0  0  0
 20  1  1  0  0  0  0
 21 14  1  0  0  0  0
 22 31  1  0  0  0  0
 22 21  1  0  0  0  0
 23 19  1  0  0  0  0
 24 30  1  0  0  0  0
 25 24  1  0  0  0  0
 26 25  1  0  0  0  0
 26 29  1  0  0  0  0
 28 30  1  0  0  0  0
 29 28  1  0  0  0  0
 29 27  2  0  0  0  0
 31 32  1  0  0  0  0
 32 34  1  0  0  0  0
 34 33  1  0  0  0  0
 35 32  1  0  0  0  0
 36 37  1  0  0  0  0
 36 35  1  0  0  0  0
M  END
>  <MODEL>
1

>  <REMARK>
 VINA RESULT:      -7.9      0.000      0.000
  Name = 
  6 active torsions:
  status: ('A' for Active; 'I' for Inactive)
    1  A    between atoms: C_1  and  C_4
    2  A    between atoms: C_1  and  C_27
    3  A    between atoms: C_4  and  C_12
    4  A    between atoms: C_4  and  N_37
    5  A    between atoms: C_8  and  C_12
    6  A    between atoms: C_23  and  C_30
                            x       y       z     vdW  Elec       q    Type
                         _______ _______ _______ _____ _____    ______ ____

>  <TORSDO>
F 6

$$$$
=
 OpenBabel11112417303D

 37 42  0  0  1  0  0  0  0  0999 V2000
  194.0020  175.8140  145.5990 C   0  0  0  0  0  0  0  0  0  0  0  0
  190.1850  175.5520  145.3350 C   0  0  1  0  0  3  0  0  0  0  0  0
  188.6790  174.1750  142.7300 O   0  0  0  0  0  0  0  0  0  0  0  0
  192.0790  175.4250  147.0680 N   0  0  2  0  0  0  0  0  0  0  0  0
  190.3980  175.5000  143.8230 C   0  0  2  0  0  3  0  0  0  0  0  0
  191.3960  174.8000  145.9170 C   0  0  2  0  0  3  0  0  0  0  0  0
  189.1020  175.4890  142.9870 C   0  0  2  0  0  3  0  0  0  0  0  0
  191.1000  176.0500  147.9570 C   0  0  0  0  0  2  0  0  0  0  0  0
  192.3320  174.4480  144.7530 C   0  0  2  0  0  3  0  0  0  0  0  0
  194.6690  174.6950  146.0790 F   0  0  0  0  0  0  0  0  0  0  0  0
  188.6910  177.5000  145.5600 N   0  0  0  0  0  2  0  0  0  0  0  0
  190.3540  177.2130  147.2930 C   0  0  0  0  0  2  0  0  0  0  0  0
  193.2340  175.5010  144.4610 O   0  0  0  0  0  0  0  0  0  0  0  0
  190.0060  174.4020  140.8000 O   0  0  0  0  0  0  0  0  0  0  0  0
  188.7800  173.9600  141.3360 C   0  0  0  0  0  2  0  0  0  0  0  0
  190.0470  177.0120  145.8050 C   0  0  1  0  0  3  0  0  0  0  0  0
  191.3440  174.3150  143.5990 C   0  0  2  0  0  3  0  0  0  0  0  0
  193.0960  176.4000  146.6710 C   0  0  0  0  0  2  0  0  0  0  0  0
  187.9570  176.3660  143.5360 C   0  0  1  0  0  3  0  0  0  0  0  0
  194.9410  176.7670  145.2530 F   0  0  0  0  0  0  0  0  0  0  0  0
  190.9820  173.5140  141.2600 C   0  0  0  0  0  2  0  0  0  0  0  0
  191.9570  174.2350  142.1870 C   0  0  2  0  0  3  0  0  0  0  0  0
  188.4750  177.6730  144.1300 C   0  0  0  0  0  2  0  0  0  0  0  0
  187.4810  177.2430  141.2110 C   0  0  0  0  0  2  0  0  0  0  0  0
  186.8740  176.6720  142.4950 C   0  0  2  0  0  3  0  0  0  0  0  0
  185.7580  177.5710  143.0470 C   0  0  0  0  0  2  0  0  0  0  0  0
  183.5890  177.8980  142.1760 O   0  0  0  0  0  0  0  0  0  0  0  0
  185.3100  178.3650  140.6280 C   0  0  0  0  0  2  0  0  0  0  0  0
  184.7890  177.9170  141.9590 C   0  0  0  0  0  0  0  0  0  0  0  0
  186.3990  177.4100  140.1460 C   0  0  0  0  0  2  0  0  0  0  0  0
  193.2690  173.4430  142.1880 C   0  0  0  0  0  2  0  0  0  0  0  0
  194.4210  174.1780  141.4890 C   0  0  1  0  0  3  0  0  0  0  0  0
  194.9860  176.3570  141.6860 O   0  0  0  0  0  1  0  0  0  0  0  0
  194.0460  175.5430  141.1510 N   0  0  0  0  0  2  0  0  0  0  0  0
  195.6870  174.1840  142.3350 C   0  0  0  0  0  2  0  0  0  0  0  0
  195.6670  173.0570  143.3550 C   0  0  0  0  0  2  0  0  0  0  0  0
  196.7400  173.1910  144.2350 O   0  0  0  0  0  1  0  0  0  0  0  0
  1 10  1  0  0  0  0
  1 18  1  0  0  0  0
  2 16  1  0  0  0  0
  2  6  1  0  0  0  0
  3  7  1  0  0  0  0
  4  8  1  0  0  0  0
  5  2  1  0  0  0  0
  6  4  1  0  0  0  0
  7 19  1  0  0  0  0
  7  5  1  0  0  0  0
  9  6  1  0  0  0  0
 11 16  1  0  0  0  0
 12  8  1  0  0  0  0
 13  9  1  0  0  0  0
 13  1  1  0  0  0  0
 14 21  1  0  0  0  0
 14 15  1  0  0  0  0
 15  3  1  0  0  0  0
 16 12  1  0  0  0  0
 17  5  1  0  0  0  0
 17  9  1  0  0  0  0
 18  4  1  0  0  0  0
 19 23  1  0  0  0  0
 20  1  1  0  0  0  0
 21 22  1  0  0  0  0
 22 31  1  0  0  0  0
 22 17  1  0  0  0  0
 23 11  1  0  0  0  0
 24 25  1  0  0  0  0
 25 26  1  0  0  0  0
 25 19  1  0  0  0  0
 28 29  1  0  0  0  0
 29 27  2  0  0  0  0
 29 26  1  0  0  0  0
 30 28  1  0  0  0  0
 30 24  1  0  0  0  0
 32 31  1  0  0  0  0
 32 35  1  0  0  0  0
 34 32  1  0  0  0  0
 34 33  1  0  0  0  0
 35 36  1  0  0  0  0
 36 37  1  0  0  0  0
M  END
>  <MODEL>
2

>  <REMARK>
 VINA RESULT:      -7.8      3.141      8.418
  Name = 
  6 active torsions:
  status: ('A' for Active; 'I' for Inactive)
    1  A    between atoms: C_1  and  C_4
    2  A    between atoms: C_1  and  C_27
    3  A    between atoms: C_4  and  C_12
    4  A    between atoms: C_4  and  N_37
    5  A    between atoms: C_8  and  C_12
    6  A    between atoms: C_23  and  C_30
                            x       y       z     vdW  Elec       q    Type
                         _______ _______ _______ _____ _____    ______ ____

>  <TORSDO>
F 6

$$$$
=
 OpenBabel11112417303D

 37 42  0  0  1  0  0  0  0  0999 V2000
  191.0310  175.9290  147.5990 C   0  0  0  0  0  0  0  0  0  0  0  0
  191.6270  175.8980  143.8110 C   0  0  1  0  0  3  0  0  0  0  0  0
  189.1690  176.2680  141.6270 O   0  0  0  0  0  0  0  0  0  0  0  0
  192.7270  176.6800  145.9970 N   0  0  2  0  0  0  0  0  0  0  0  0
  190.1670  175.4620  143.6900 C   0  0  2  0  0  3  0  0  0  0  0  0
  191.6410  176.8580  145.0140 C   0  0  2  0  0  3  0  0  0  0  0  0
  189.7060  175.1340  142.2550 C   0  0  2  0  0  3  0  0  0  0  0  0
  193.9730  176.3320  145.3150 C   0  0  0  0  0  2  0  0  0  0  0  0
  190.2350  176.8570  145.6300 C   0  0  2  0  0  3  0  0  0  0  0  0
  190.9690  177.1750  148.2060 F   0  0  0  0  0  0  0  0  0  0  0  0
  192.7910  174.0580  142.6540 N   0  0  0  0  0  2  0  0  0  0  0  0
  193.8980  174.9790  144.5970 C   0  0  0  0  0  2  0  0  0  0  0  0
  190.0720  175.8130  146.5740 O   0  0  0  0  0  0  0  0  0  0  0  0
  187.1420  175.4890  142.5320 O   0  0  0  0  0  0  0  0  0  0  0  0
  187.7940  176.0200  141.4020 C   0  0  0  0  0  2  0  0  0  0  0  0
  192.5400  174.6670  143.9590 C   0  0  1  0  0  3  0  0  0  0  0  0
  189.3700  176.5550  144.4120 C   0  0  2  0  0  3  0  0  0  0  0  0
  192.4160  175.6810  147.0210 C   0  0  0  0  0  2  0  0  0  0  0  0
  190.7560  174.4280  141.3710 C   0  0  1  0  0  3  0  0  0  0  0  0
  190.7790  174.9630  148.5550 F   0  0  0  0  0  0  0  0  0  0  0  0
  187.0580  176.5270  143.4640 C   0  0  0  0  0  2  0  0  0  0  0  0
  187.8970  176.1990  144.6960 C   0  0  2  0  0  3  0  0  0  0  0  0
  191.5790  173.4160  142.1630 C   0  0  0  0  0  2  0  0  0  0  0  0
  189.0210  172.7910  140.5310 C   0  0  0  0  0  2  0  0  0  0  0  0
  190.1520  173.7450  140.1400 C   0  0  2  0  0  3  0  0  0  0  0  0
  191.2090  173.0490  139.2700 C   0  0  0  0  0  2  0  0  0  0  0  0
  191.0200  172.3630  137.0190 O   0  0  0  0  0  0  0  0  0  0  0  0
  189.3540  171.4570  138.4280 C   0  0  0  0  0  2  0  0  0  0  0  0
  190.5490  172.3150  138.1430 C   0  0  0  0  0  0  0  0  0  0  0  0
  188.3490  172.2300  139.2790 C   0  0  0  0  0  2  0  0  0  0  0  0
  187.3390  177.0120  145.8690 C   0  0  0  0  0  2  0  0  0  0  0  0
  185.9410  177.5820  145.6000 C   0  0  1  0  0  3  0  0  0  0  0  0
  184.4290  178.0700  147.2070 O   0  0  0  0  0  1  0  0  0  0  0  0
  184.9600  177.0290  146.5220 N   0  0  0  0  0  2  0  0  0  0  0  0
  185.9220  179.1030  145.6740 C   0  0  0  0  0  2  0  0  0  0  0  0
  185.5180  179.7090  144.3410 C   0  0  0  0  0  2  0  0  0  0  0  0
  184.1990  179.3660  144.0410 O   0  0  0  0  0  1  0  0  0  0  0  0
  1 10  1  0  0  0  0
  1 20  1  0  0  0  0
  2 16  1  0  0  0  0
  2  6  1  0  0  0  0
  3  7  1  0  0  0  0
  4 18  1  0  0  0  0
  5  2  1  0  0  0  0
  5 17  1  0  0  0  0
  6  9  1  0  0  0  0
  6  4  1  0  0  0  0
  7  5  1  0  0  0  0
  8  4  1  0  0  0  0
  9 13  1  0  0  0  0
 11 16  1  0  0  0  0
 12  8  1  0  0  0  0
 13  1  1  0  0  0  0
 14 21  1  0  0  0  0
 15  3  1  0  0  0  0
 15 14  1  0  0  0  0
 16 12  1  0  0  0  0
 17 22  1  0  0  0  0
 17  9  1  0  0  0  0
 18  1  1  0  0  0  0
 19 23  1  0  0  0  0
 19  7  1  0  0  0  0
 21 22  1  0  0  0  0
 22 31  1  0  0  0  0
 23 11  1  0  0  0  0
 25 24  1  0  0  0  0
 25 19  1  0  0  0  0
 26 25  1  0  0  0  0
 27 29  2  0  0  0  0
 28 30  1  0  0  0  0
 29 28  1  0  0  0  0
 29 26  1  0  0  0  0
 30 24  1  0  0  0  0
 32 35  1  0  0  0  0
 32 31  1  0  0  0  0
 32 34  1  0  0  0  0
 34 33  1  0  0  0  0
 36 35  1  0  0  0  0
 37 36  1  0  0  0  0
M  END
>  <MODEL>
3

>  <REMARK>
 VINA RESULT:      -7.6      2.857      5.684
  Name = 
  6 active torsions:
  status: ('A' for Active; 'I' for Inactive)
    1  A    between atoms: C_1  and  C_4
    2  A    between atoms: C_1  and  C_27
    3  A    between atoms: C_4  and  C_12
    4  A    between atoms: C_4  and  N_37
    5  A    between atoms: C_8  and  C_12
    6  A    between atoms: C_23  and  C_30
                            x       y       z     vdW  Elec       q    Type
                         _______ _______ _______ _____ _____    ______ ____

>  <TORSDO>
F 6

$$$$
=
 OpenBabel11112417303D

 37 42  0  0  1  0  0  0  0  0999 V2000
  191.7250  171.4620  142.1700 C   0  0  0  0  0  0  0  0  0  0  0  0
  190.0700  174.9050  141.8350 C   0  0  1  0  0  3  0  0  0  0  0  0
  190.6260  177.3560  143.9880 O   0  0  0  0  0  0  0  0  0  0  0  0
  191.0460  173.0130  140.3970 N   0  0  2  0  0  0  0  0  0  0  0  0
  190.2840  175.0390  143.3420 C   0  0  2  0  0  3  0  0  0  0  0  0
  191.2980  174.1180  141.3430 C   0  0  2  0  0  3  0  0  0  0  0  0
  189.6860  176.3140  143.9710 C   0  0  2  0  0  3  0  0  0  0  0  0
  189.9810  173.3790  139.4640 C   0  0  0  0  0  2  0  0  0  0  0  0
  192.1170  173.7100  142.5750 C   0  0  2  0  0  3  0  0  0  0  0  0
  193.0060  171.3370  141.6490 F   0  0  0  0  0  0  0  0  0  0  0  0
  187.6290  175.2050  141.6520 N   0  0  0  0  0  2  0  0  0  0  0  0
  188.6300  173.5870  140.1590 C   0  0  0  0  0  2  0  0  0  0  0  0
  191.6630  172.4880  143.1320 O   0  0  0  0  0  0  0  0  0  0  0  0
  191.1690  176.4830  146.1040 O   0  0  0  0  0  0  0  0  0  0  0  0
  190.9220  177.6410  145.3410 C   0  0  0  0  0  2  0  0  0  0  0  0
  188.7150  174.2320  141.5460 C   0  0  1  0  0  3  0  0  0  0  0  0
  191.7900  174.8410  143.5440 C   0  0  2  0  0  3  0  0  0  0  0  0
  190.7220  171.7500  141.0630 C   0  0  0  0  0  2  0  0  0  0  0  0
  188.3340  176.7670  143.3800 C   0  0  1  0  0  3  0  0  0  0  0  0
  191.3790  170.2680  142.7710 F   0  0  0  0  0  0  0  0  0  0  0  0
  192.4040  175.9860  145.6790 C   0  0  0  0  0  2  0  0  0  0  0  0
  192.2230  174.6260  145.0080 C   0  0  2  0  0  3  0  0  0  0  0  0
  187.4320  175.5820  143.0450 C   0  0  0  0  0  2  0  0  0  0  0  0
  187.0710  177.0570  145.5530 C   0  0  0  0  0  2  0  0  0  0  0  0
  187.5750  177.7470  144.2830 C   0  0  2  0  0  3  0  0  0  0  0  0
  186.4450  178.4790  143.5440 C   0  0  0  0  0  2  0  0  0  0  0  0
  185.3440  180.4690  144.1770 O   0  0  0  0  0  0  0  0  0  0  0  0
  185.2570  178.7750  145.8210 C   0  0  0  0  0  2  0  0  0  0  0  0
  185.6790  179.3410  144.4990 C   0  0  0  0  0  0  0  0  0  0  0  0
  186.4410  178.0830  146.4930 C   0  0  0  0  0  2  0  0  0  0  0  0
  193.5610  173.8840  145.0950 C   0  0  0  0  0  2  0  0  0  0  0  0
  194.7760  174.8200  145.0750 C   0  0  1  0  0  3  0  0  0  0  0  0
  196.8760  174.1490  145.5680 O   0  0  0  0  0  1  0  0  0  0  0  0
  195.7050  174.5020  146.1480 N   0  0  0  0  0  2  0  0  0  0  0  0
  195.5000  174.7820  143.7350 C   0  0  0  0  0  2  0  0  0  0  0  0
  195.4470  176.1360  143.0480 C   0  0  0  0  0  2  0  0  0  0  0  0
  196.5490  176.9050  143.4220 O   0  0  0  0  0  1  0  0  0  0  0  0
  1 20  1  0  0  0  0
  1 13  1  0  0  0  0
  2  5  1  0  0  0  0
  3 15  1  0  0  0  0
  4 18  1  0  0  0  0
  4  6  1  0  0  0  0
  5 17  1  0  0  0  0
  5  7  1  0  0  0  0
  6  2  1  0  0  0  0
  6  9  1  0  0  0  0
  7  3  1  0  0  0  0
  8 12  1  0  0  0  0
  8  4  1  0  0  0  0
  9 13  1  0  0  0  0
  9 17  1  0  0  0  0
 10  1  1  0  0  0  0
 11 23  1  0  0  0  0
 12 16  1  0  0  0  0
 15 14  1  0  0  0  0
 16 11  1  0  0  0  0
 16  2  1  0  0  0  0
 17 22  1  0  0  0  0
 18  1  1  0  0  0  0
 19  7  1  0  0  0  0
 19 25  1  0  0  0  0
 21 14  1  0  0  0  0
 22 31  1  0  0  0  0
 22 21  1  0  0  0  0
 23 19  1  0  0  0  0
 24 30  1  0  0  0  0
 25 24  1  0  0  0  0
 26 25  1  0  0  0  0
 26 29  1  0  0  0  0
 27 29  2  0  0  0  0
 28 30  1  0  0  0  0
 29 28  1  0  0  0  0
 32 31  1  0  0  0  0
 32 34  1  0  0  0  0
 33 34  1  0  0  0  0
 35 32  1  0  0  0  0
 36 37  1  0  0  0  0
 36 35  1  0  0  0  0
M  END
>  <MODEL>
4

>  <REMARK>
 VINA RESULT:      -7.4      2.879      7.386
  Name = 
  6 active torsions:
  status: ('A' for Active; 'I' for Inactive)
    1  A    between atoms: C_1  and  C_4
    2  A    between atoms: C_1  and  C_27
    3  A    between atoms: C_4  and  C_12
    4  A    between atoms: C_4  and  N_37
    5  A    between atoms: C_8  and  C_12
    6  A    between atoms: C_23  and  C_30
                            x       y       z     vdW  Elec       q    Type
                         _______ _______ _______ _____ _____    ______ ____

>  <TORSDO>
F 6

$$$$
=
 OpenBabel11112417303D

 37 42  0  0  1  0  0  0  0  0999 V2000
  194.5440  175.0460  142.9440 C   0  0  0  0  0  0  0  0  0  0  0  0
  191.1790  175.2180  144.7760 C   0  0  1  0  0  3  0  0  0  0  0  0
  188.3060  174.5610  143.2710 O   0  0  0  0  0  0  0  0  0  0  0  0
  193.6300  174.5520  145.1640 N   0  0  2  0  0  0  0  0  0  0  0  0
  190.5600  175.4570  143.3990 C   0  0  2  0  0  3  0  0  0  0  0  0
  192.3440  174.2480  144.5070 C   0  0  2  0  0  3  0  0  0  0  0  0
  189.0450  175.7460  143.4120 C   0  0  2  0  0  3  0  0  0  0  0  0
  193.3990  175.0740  146.5110 C   0  0  0  0  0  2  0  0  0  0  0  0
  192.4500  174.0530  142.9880 C   0  0  2  0  0  3  0  0  0  0  0  0
  195.1320  173.7930  142.8430 F   0  0  0  0  0  0  0  0  0  0  0  0
  190.4290  177.2140  146.0130 N   0  0  0  0  0  2  0  0  0  0  0  0
  192.6570  176.4160  146.5080 C   0  0  0  0  0  2  0  0  0  0  0  0
  193.2530  175.0510  142.3810 O   0  0  0  0  0  0  0  0  0  0  0  0
  188.4520  175.0490  140.9740 O   0  0  0  0  0  0  0  0  0  0  0  0
  187.6240  174.6280  142.0340 C   0  0  0  0  0  2  0  0  0  0  0  0
  191.5900  176.5560  145.4170 C   0  0  1  0  0  3  0  0  0  0  0  0
  191.0030  174.2580  142.5550 C   0  0  2  0  0  3  0  0  0  0  0  0
  194.4600  175.4850  144.3980 C   0  0  0  0  0  2  0  0  0  0  0  0
  188.5470  176.5980  144.5980 C   0  0  1  0  0  3  0  0  0  0  0  0
  195.3300  175.9540  142.2600 F   0  0  0  0  0  0  0  0  0  0  0  0
  189.3310  173.9950  140.7160 C   0  0  0  0  0  2  0  0  0  0  0  0
  190.7640  174.4110  141.0390 C   0  0  2  0  0  3  0  0  0  0  0  0
  189.5390  177.6980  144.9650 C   0  0  0  0  0  2  0  0  0  0  0  0
  187.1810  178.1830  143.1750 C   0  0  0  0  0  2  0  0  0  0  0  0
  187.1640  177.2160  144.3620 C   0  0  2  0  0  3  0  0  0  0  0  0
  186.5850  177.8730  145.6240 C   0  0  0  0  0  2  0  0  0  0  0  0
  184.3380  178.4440  146.0670 O   0  0  0  0  0  0  0  0  0  0  0  0
  185.1870  179.4100  144.0860 C   0  0  0  0  0  2  0  0  0  0  0  0
  185.2860  178.5450  145.3060 C   0  0  0  0  0  0  0  0  0  0  0  0
  185.7660  178.6760  142.8790 C   0  0  0  0  0  2  0  0  0  0  0  0
  191.7030  173.5110  140.2280 C   0  0  0  0  0  2  0  0  0  0  0  0
  191.1180  172.1220  139.9470 C   0  0  1  0  0  3  0  0  0  0  0  0
  189.8970  171.5810  138.1240 O   0  0  0  0  0  1  0  0  0  0  0  0
  191.1700  171.8060  138.5280 N   0  0  0  0  0  2  0  0  0  0  0  0
  191.8250  171.0350  140.7450 C   0  0  0  0  0  2  0  0  0  0  0  0
  190.8230  170.1380  141.4520 C   0  0  0  0  0  2  0  0  0  0  0  0
  190.0930  170.8780  142.3820 O   0  0  0  0  0  1  0  0  0  0  0  0
  1 18  1  0  0  0  0
  2 16  1  0  0  0  0
  3  7  1  0  0  0  0
  4  8  1  0  0  0  0
  5  7  1  0  0  0  0
  5  2  1  0  0  0  0
  6  2  1  0  0  0  0
  6  4  1  0  0  0  0
  7 19  1  0  0  0  0
  9  6  1  0  0  0  0
 10  1  1  0  0  0  0
 12  8  1  0  0  0  0
 13  1  1  0  0  0  0
 13  9  1  0  0  0  0
 14 15  1  0  0  0  0
 15  3  1  0  0  0  0
 16 11  1  0  0  0  0
 16 12  1  0  0  0  0
 17  9  1  0  0  0  0
 17  5  1  0  0  0  0
 18  4  1  0  0  0  0
 19 23  1  0  0  0  0
 20  1  1  0  0  0  0
 21 14  1  0  0  0  0
 21 22  1  0  0  0  0
 22 17  1  0  0  0  0
 23 11  1  0  0  0  0
 24 25  1  0  0  0  0
 25 19  1  0  0  0  0
 25 26  1  0  0  0  0
 28 29  1  0  0  0  0
 29 26  1  0  0  0  0
 29 27  2  0  0  0  0
 30 24  1  0  0  0  0
 30 28  1  0  0  0  0
 31 22  1  0  0  0  0
 32 31  1  0  0  0  0
 32 35  1  0  0  0  0
 33 34  1  0  0  0  0
 34 32  1  0  0  0  0
 35 36  1  0  0  0  0
 36 37  1  0  0  0  0
M  END
>  <MODEL>
5

>  <REMARK>
 VINA RESULT:      -7.2      3.177      8.031
  Name = 
  6 active torsions:
  status: ('A' for Active; 'I' for Inactive)
    1  A    between atoms: C_1  and  C_4
    2  A    between atoms: C_1  and  C_27
    3  A    between atoms: C_4  and  C_12
    4  A    between atoms: C_4  and  N_37
    5  A    between atoms: C_8  and  C_12
    6  A    between atoms: C_23  and  C_30
                            x       y       z     vdW  Elec       q    Type
                         _______ _______ _______ _____ _____    ______ ____

>  <TORSDO>
F 6

$$$$
=
 OpenBabel11112417303D

 37 42  0  0  1  0  0  0  0  0999 V2000
  190.1290  177.7610  144.6330 C   0  0  0  0  0  0  0  0  0  0  0  0
  188.9480  174.5300  142.9370 C   0  0  1  0  0  3  0  0  0  0  0  0
  190.6540  171.7020  143.1290 O   0  0  0  0  0  0  0  0  0  0  0  0
  188.0260  176.5980  144.1520 N   0  0  2  0  0  0  0  0  0  0  0  0
  190.4180  174.1130  142.9440 C   0  0  2  0  0  3  0  0  0  0  0  0
  188.7710  175.3270  144.2430 C   0  0  2  0  0  3  0  0  0  0  0  0
  190.7150  172.7780  142.2300 C   0  0  2  0  0  3  0  0  0  0  0  0
  186.9140  176.4660  143.2110 C   0  0  0  0  0  2  0  0  0  0  0  0
  190.1510  175.4590  144.9010 C   0  0  2  0  0  3  0  0  0  0  0  0
  189.8080  177.9100  145.9750 F   0  0  0  0  0  0  0  0  0  0  0  0
  188.4060  174.4010  140.5360 N   0  0  0  0  0  2  0  0  0  0  0  0
  187.3820  176.2080  141.7740 C   0  0  0  0  0  2  0  0  0  0  0  0
  190.8660  176.5810  144.4140 O   0  0  0  0  0  0  0  0  0  0  0  0
  192.9480  172.1440  143.4090 O   0  0  0  0  0  0  0  0  0  0  0  0
  191.9560  171.1590  143.2320 C   0  0  0  0  0  2  0  0  0  0  0  0
  188.6230  175.3170  141.6540 C   0  0  1  0  0  3  0  0  0  0  0  0
  190.8410  174.1890  144.4150 C   0  0  2  0  0  3  0  0  0  0  0  0
  188.8710  177.7340  143.7790 C   0  0  0  0  0  2  0  0  0  0  0  0
  189.8850  172.5140  140.9560 C   0  0  1  0  0  3  0  0  0  0  0  0
  190.8960  178.8420  144.2450 F   0  0  0  0  0  0  0  0  0  0  0  0
  192.7830  172.6430  144.7040 C   0  0  0  0  0  2  0  0  0  0  0  0
  192.3620  174.1100  144.6550 C   0  0  2  0  0  3  0  0  0  0  0  0
  189.6680  173.7870  140.1430 C   0  0  0  0  0  2  0  0  0  0  0  0
  191.9440  171.7340  139.7120 C   0  0  0  0  0  2  0  0  0  0  0  0
  190.4840  171.4280  140.0560 C   0  0  2  0  0  3  0  0  0  0  0  0
  189.6430  171.1720  138.7970 C   0  0  0  0  0  2  0  0  0  0  0  0
  189.6920  169.2900  137.3720 O   0  0  0  0  0  0  0  0  0  0  0  0
  191.7930  170.3400  137.6270 C   0  0  0  0  0  2  0  0  0  0  0  0
  190.3300  170.1790  137.9100 C   0  0  0  0  0  0  0  0  0  0  0  0
  192.5540  170.5720  138.9300 C   0  0  0  0  0  2  0  0  0  0  0  0
  192.7550  174.7510  145.9900 C   0  0  0  0  0  2  0  0  0  0  0  0
  193.9080  175.7550  145.8640 C   0  0  1  0  0  3  0  0  0  0  0  0
  192.5480  176.7870  147.3440 O   0  0  0  0  0  1  0  0  0  0  0  0
  193.8220  176.7860  146.8860 N   0  0  0  0  0  2  0  0  0  0  0  0
  195.2670  175.0720  145.9300 C   0  0  0  0  0  2  0  0  0  0  0  0
  196.0510  175.2900  144.6470 C   0  0  0  0  0  2  0  0  0  0  0  0
  195.2800  176.0110  143.7340 O   0  0  0  0  0  1  0  0  0  0  0  0
  1 10  1  0  0  0  0
  2  5  1  0  0  0  0
  2  6  1  0  0  0  0
  3 15  1  0  0  0  0
  4  6  1  0  0  0  0
  5 17  1  0  0  0  0
  6  9  1  0  0  0  0
  7  5  1  0  0  0  0
  7  3  1  0  0  0  0
  8  4  1  0  0  0  0
 11 16  1  0  0  0  0
 12  8  1  0  0  0  0
 13  1  1  0  0  0  0
 13  9  1  0  0  0  0
 14 21  1  0  0  0  0
 15 14  1  0  0  0  0
 16 12  1  0  0  0  0
 16  2  1  0  0  0  0
 17 22  1  0  0  0  0
 17  9  1  0  0  0  0
 18  4  1  0  0  0  0
 18  1  1  0  0  0  0
 19  7  1  0  0  0  0
 20  1  1  0  0  0  0
 22 21  1  0  0  0  0
 22 31  1  0  0  0  0
 23 11  1  0  0  0  0
 23 19  1  0  0  0  0
 24 25  1  0  0  0  0
 25 19  1  0  0  0  0
 26 25  1  0  0  0  0
 27 29  2  0  0  0  0
 28 29  1  0  0  0  0
 28 30  1  0  0  0  0
 29 26  1  0  0  0  0
 30 24  1  0  0  0  0
 32 35  1  0  0  0  0
 32 31  1  0  0  0  0
 32 34  1  0  0  0  0
 34 33  1  0  0  0  0
 36 35  1  0  0  0  0
 37 36  1  0  0  0  0
M  END
>  <MODEL>
6

>  <REMARK>
 VINA RESULT:      -7.1      3.190      6.361
  Name = 
  6 active torsions:
  status: ('A' for Active; 'I' for Inactive)
    1  A    between atoms: C_1  and  C_4
    2  A    between atoms: C_1  and  C_27
    3  A    between atoms: C_4  and  C_12
    4  A    between atoms: C_4  and  N_37
    5  A    between atoms: C_8  and  C_12
    6  A    between atoms: C_23  and  C_30
                            x       y       z     vdW  Elec       q    Type
                         _______ _______ _______ _____ _____    ______ ____

>  <TORSDO>
F 6

$$$$
=
 OpenBabel11112417303D

 37 42  0  0  1  0  0  0  0  0999 V2000
  191.3500  175.7960  147.1980 C   0  0  0  0  0  0  0  0  0  0  0  0
  192.2120  174.5330  143.6810 C   0  0  1  0  0  3  0  0  0  0  0  0
  190.0130  174.5400  141.2070 O   0  0  0  0  0  0  0  0  0  0  0  0
  193.2590  175.7920  145.6600 N   0  0  2  0  0  0  0  0  0  0  0  0
  190.7130  174.2780  143.5190 C   0  0  2  0  0  3  0  0  0  0  0  0
  192.2910  175.8040  144.5460 C   0  0  2  0  0  3  0  0  0  0  0  0
  190.3130  173.5910  142.1970 C   0  0  2  0  0  3  0  0  0  0  0  0
  194.4790  175.0920  145.2620 C   0  0  0  0  0  2  0  0  0  0  0  0
  190.8620  176.1760  144.9640 C   0  0  2  0  0  3  0  0  0  0  0  0
  191.4450  177.1650  147.4050 F   0  0  0  0  0  0  0  0  0  0  0  0
  193.1460  172.2910  143.2550 N   0  0  0  0  0  2  0  0  0  0  0  0
  194.2400  173.6070  144.9640 C   0  0  0  0  0  2  0  0  0  0  0  0
  190.4630  175.5000  146.1450 O   0  0  0  0  0  0  0  0  0  0  0  0
  187.8260  174.3490  142.0520 O   0  0  0  0  0  0  0  0  0  0  0  0
  188.6370  174.4190  140.9020 C   0  0  0  0  0  2  0  0  0  0  0  0
  192.9010  173.2970  144.2870 C   0  0  1  0  0  3  0  0  0  0  0  0
  190.0520  175.6330  143.7920 C   0  0  2  0  0  3  0  0  0  0  0  0
  192.7160  175.2030  146.8860 C   0  0  0  0  0  2  0  0  0  0  0  0
  191.2980  172.5180  141.6870 C   0  0  1  0  0  3  0  0  0  0  0  0
  190.8750  175.2100  148.3550 F   0  0  0  0  0  0  0  0  0  0  0  0
  187.8420  175.6230  142.6260 C   0  0  0  0  0  2  0  0  0  0  0  0
  188.5240  175.5780  143.9910 C   0  0  2  0  0  3  0  0  0  0  0  0
  191.8860  171.6960  142.8310 C   0  0  0  0  0  2  0  0  0  0  0  0
  191.1720  170.1390  140.8370 C   0  0  0  0  0  2  0  0  0  0  0  0
  190.6840  171.5770  140.6450 C   0  0  2  0  0  3  0  0  0  0  0  0
  190.9010  172.0660  139.2050 C   0  0  0  0  0  2  0  0  0  0  0  0
  189.7350  171.4180  137.2570 O   0  0  0  0  0  0  0  0  0  0  0  0
  190.7030  169.6090  138.4260 C   0  0  0  0  0  2  0  0  0  0  0  0
  190.3720  171.0570  138.2320 C   0  0  0  0  0  0  0  0  0  0  0  0
  190.4420  169.2040  139.8750 C   0  0  0  0  0  2  0  0  0  0  0  0
  188.0190  176.7770  144.8010 C   0  0  0  0  0  2  0  0  0  0  0  0
  186.8650  176.4250  145.7480 C   0  0  1  0  0  3  0  0  0  0  0  0
  188.2590  177.6120  147.0720 O   0  0  0  0  0  1  0  0  0  0  0  0
  187.1720  176.8060  147.1180 N   0  0  0  0  0  2  0  0  0  0  0  0
  185.5560  177.0700  145.3120 C   0  0  0  0  0  2  0  0  0  0  0  0
  184.7640  177.5620  146.5120 C   0  0  0  0  0  2  0  0  0  0  0  0
  184.0100  178.6810  146.1600 O   0  0  0  0  0  1  0  0  0  0  0  0
  1 10  1  0  0  0  0
  1 20  1  0  0  0  0
  2 16  1  0  0  0  0
  2  6  1  0  0  0  0
  3  7  1  0  0  0  0
  4 18  1  0  0  0  0
  5  2  1  0  0  0  0
  5 17  1  0  0  0  0
  6  9  1  0  0  0  0
  6  4  1  0  0  0  0
  7  5  1  0  0  0  0
  8  4  1  0  0  0  0
  9 13  1  0  0  0  0
 11 16  1  0  0  0  0
 12  8  1  0  0  0  0
 13  1  1  0  0  0  0
 14 21  1  0  0  0  0
 15  3  1  0  0  0  0
 15 14  1  0  0  0  0
 16 12  1  0  0  0  0
 17 22  1  0  0  0  0
 17  9  1  0  0  0  0
 18  1  1  0  0  0  0
 19  7  1  0  0  0  0
 19 23  1  0  0  0  0
 21 22  1  0  0  0  0
 22 31  1  0  0  0  0
 23 11  1  0  0  0  0
 25 24  1  0  0  0  0
 25 19  1  0  0  0  0
 26 25  1  0  0  0  0
 27 29  2  0  0  0  0
 28 30  1  0  0  0  0
 29 28  1  0  0  0  0
 29 26  1  0  0  0  0
 30 24  1  0  0  0  0
 31 32  1  0  0  0  0
 32 34  1  0  0  0  0
 33 34  1  0  0  0  0
 35 32  1  0  0  0  0
 35 36  1  0  0  0  0
 37 36  1  0  0  0  0
M  END
>  <MODEL>
7

>  <REMARK>
 VINA RESULT:      -7.0      3.089      5.729
  Name = 
  6 active torsions:
  status: ('A' for Active; 'I' for Inactive)
    1  A    between atoms: C_1  and  C_4
    2  A    between atoms: C_1  and  C_27
    3  A    between atoms: C_4  and  C_12
    4  A    between atoms: C_4  and  N_37
    5  A    between atoms: C_8  and  C_12
    6  A    between atoms: C_23  and  C_30
                            x       y       z     vdW  Elec       q    Type
                         _______ _______ _______ _____ _____    ______ ____

>  <TORSDO>
F 6

$$$$
=
 OpenBabel11112417303D

 37 42  0  0  1  0  0  0  0  0999 V2000
  188.3850  176.4820  146.3950 C   0  0  0  0  0  0  0  0  0  0  0  0
  191.1850  175.0280  144.2150 C   0  0  1  0  0  3  0  0  0  0  0  0
  190.6800  174.0660  141.0890 O   0  0  0  0  0  0  0  0  0  0  0  0
  190.7890  176.7980  146.0350 N   0  0  2  0  0  0  0  0  0  0  0  0
  190.0720  174.3410  143.4250 C   0  0  2  0  0  3  0  0  0  0  0  0
  190.5790  176.3790  144.6350 C   0  0  2  0  0  3  0  0  0  0  0  0
  190.5580  173.3900  142.3130 C   0  0  2  0  0  3  0  0  0  0  0  0
  192.1300  176.4210  146.4790 C   0  0  0  0  0  2  0  0  0  0  0  0
  189.1080  176.3890  144.1950 C   0  0  2  0  0  3  0  0  0  0  0  0
  188.1260  177.8370  146.2480 F   0  0  0  0  0  0  0  0  0  0  0  0
  192.5600  173.1040  144.9100 N   0  0  0  0  0  2  0  0  0  0  0  0
  192.3380  174.9020  146.5120 C   0  0  0  0  0  2  0  0  0  0  0  0
  188.2600  175.8030  145.1680 O   0  0  0  0  0  0  0  0  0  0  0  0
  188.4470  173.3880  140.7900 O   0  0  0  0  0  0  0  0  0  0  0  0
  189.7210  173.5210  140.2030 C   0  0  0  0  0  2  0  0  0  0  0  0
  191.6390  174.1340  145.3840 C   0  0  1  0  0  3  0  0  0  0  0  0
  189.1520  175.4800  142.9720 C   0  0  2  0  0  3  0  0  0  0  0  0
  189.7830  176.2600  146.9530 C   0  0  0  0  0  2  0  0  0  0  0  0
  191.8260  172.5760  142.6510 C   0  0  1  0  0  3  0  0  0  0  0  0
  187.4720  175.9560  147.2880 F   0  0  0  0  0  0  0  0  0  0  0  0
  187.9420  174.6830  140.9350 C   0  0  0  0  0  2  0  0  0  0  0  0
  187.7880  175.0260  142.4150 C   0  0  2  0  0  3  0  0  0  0  0  0
  191.8410  172.1240  144.1080 C   0  0  0  0  0  2  0  0  0  0  0  0
  190.8320  170.4110  141.8000 C   0  0  0  0  0  2  0  0  0  0  0  0
  192.0290  171.3630  141.7360 C   0  0  2  0  0  3  0  0  0  0  0  0
  193.3530  170.6330  142.0060 C   0  0  0  0  0  2  0  0  0  0  0  0
  194.4930  169.1190  140.5990 O   0  0  0  0  0  0  0  0  0  0  0  0
  192.2670  168.4830  141.0680 C   0  0  0  0  0  2  0  0  0  0  0  0
  193.4470  169.4030  141.1570 C   0  0  0  0  0  0  0  0  0  0  0  0
  191.0010  169.2860  140.7810 C   0  0  0  0  0  2  0  0  0  0  0  0
  186.7370  176.1360  142.5270 C   0  0  0  0  0  2  0  0  0  0  0  0
  187.0570  177.3630  141.6630 C   0  0  1  0  0  3  0  0  0  0  0  0
  185.4540  178.3670  140.4280 O   0  0  0  0  0  1  0  0  0  0  0  0
  186.3230  177.3290  140.4080 N   0  0  0  0  0  2  0  0  0  0  0  0
  186.7680  178.6660  142.3970 C   0  0  0  0  0  2  0  0  0  0  0  0
  186.0650  178.4040  143.7180 C   0  0  0  0  0  2  0  0  0  0  0  0
  185.9350  179.5940  144.4330 O   0  0  0  0  0  1  0  0  0  0  0  0
  1 18  1  0  0  0  0
  1 20  1  0  0  0  0
  2  6  1  0  0  0  0
  2 16  1  0  0  0  0
  3  7  1  0  0  0  0
  4  8  1  0  0  0  0
  4 18  1  0  0  0  0
  5  2  1  0  0  0  0
  6  4  1  0  0  0  0
  7 19  1  0  0  0  0
  7  5  1  0  0  0  0
  8 12  1  0  0  0  0
  9  6  1  0  0  0  0
  9 13  1  0  0  0  0
 10  1  1  0  0  0  0
 11 16  1  0  0  0  0
 13  1  1  0  0  0  0
 14 21  1  0  0  0  0
 15 14  1  0  0  0  0
 15  3  1  0  0  0  0
 16 12  1  0  0  0  0
 17  5  1  0  0  0  0
 17  9  1  0  0  0  0
 19 23  1  0  0  0  0
 21 22  1  0  0  0  0
 22 31  1  0  0  0  0
 22 17  1  0  0  0  0
 23 11  1  0  0  0  0
 25 24  1  0  0  0  0
 25 26  1  0  0  0  0
 25 19  1  0  0  0  0
 27 29  2  0  0  0  0
 28 29  1  0  0  0  0
 29 26  1  0  0  0  0
 30 28  1  0  0  0  0
 30 24  1  0  0  0  0
 32 35  1  0  0  0  0
 32 31  1  0  0  0  0
 34 33  1  0  0  0  0
 34 32  1  0  0  0  0
 35 36  1  0  0  0  0
 36 37  1  0  0  0  0
M  END
>  <MODEL>
8

>  <REMARK>
 VINA RESULT:      -6.9      3.057      5.266
  Name = 
  6 active torsions:
  status: ('A' for Active; 'I' for Inactive)
    1  A    between atoms: C_1  and  C_4
    2  A    between atoms: C_1  and  C_27
    3  A    between atoms: C_4  and  C_12
    4  A    between atoms: C_4  and  N_37
    5  A    between atoms: C_8  and  C_12
    6  A    between atoms: C_23  and  C_30
                            x       y       z     vdW  Elec       q    Type
                         _______ _______ _______ _____ _____    ______ ____

>  <TORSDO>
F 6

$$$$
=
 OpenBabel11112417303D

 37 42  0  0  1  0  0  0  0  0999 V2000
  195.4700  174.9440  142.1350 C   0  0  0  0  0  0  0  0  0  0  0  0
  192.4210  174.9310  144.4620 C   0  0  1  0  0  3  0  0  0  0  0  0
  189.6120  173.3600  143.6940 O   0  0  0  0  0  0  0  0  0  0  0  0
  194.9890  174.8790  144.5380 N   0  0  2  0  0  0  0  0  0  0  0  0
  191.5920  174.6790  143.2030 C   0  0  2  0  0  3  0  0  0  0  0  0
  193.7360  174.1700  144.2130 C   0  0  2  0  0  3  0  0  0  0  0  0
  190.0660  174.6610  143.4260 C   0  0  2  0  0  3  0  0  0  0  0  0
  194.8170  175.6790  145.7510 C   0  0  0  0  0  2  0  0  0  0  0  0
  193.6890  173.6100  142.7840 C   0  0  2  0  0  3  0  0  0  0  0  0
  196.3160  173.8460  142.2160 F   0  0  0  0  0  0  0  0  0  0  0  0
  191.3910  176.9970  145.3290 N   0  0  0  0  0  2  0  0  0  0  0  0
  193.7890  176.8030  145.5780 C   0  0  0  0  0  2  0  0  0  0  0  0
  194.1520  174.5510  141.8310 O   0  0  0  0  0  0  0  0  0  0  0  0
  189.3440  173.2510  141.3590 O   0  0  0  0  0  0  0  0  0  0  0  0
  188.7800  172.9680  142.6190 C   0  0  0  0  0  2  0  0  0  0  0  0
  192.5870  176.4440  144.6970 C   0  0  1  0  0  3  0  0  0  0  0  0
  192.1910  173.4100  142.5860 C   0  0  2  0  0  3  0  0  0  0  0  0
  195.4730  175.7220  143.4420 C   0  0  0  0  0  2  0  0  0  0  0  0
  189.5390  175.6800  144.4580 C   0  0  1  0  0  3  0  0  0  0  0  0
  195.9280  175.7760  141.1320 F   0  0  0  0  0  0  0  0  0  0  0  0
  190.4050  172.3570  141.1910 C   0  0  0  0  0  2  0  0  0  0  0  0
  191.7300  173.1130  141.1450 C   0  0  2  0  0  3  0  0  0  0  0  0
  190.2860  177.0080  144.3800 C   0  0  0  0  0  2  0  0  0  0  0  0
  187.6870  176.6630  143.0430 C   0  0  0  0  0  2  0  0  0  0  0  0
  188.0320  175.9340  144.3440 C   0  0  2  0  0  3  0  0  0  0  0  0
  187.4580  176.6570  145.5720 C   0  0  0  0  0  2  0  0  0  0  0  0
  185.2040  176.7960  146.2570 O   0  0  0  0  0  0  0  0  0  0  0  0
  185.5730  177.5690  144.0560 C   0  0  0  0  0  2  0  0  0  0  0  0
  186.0090  176.9680  145.3570 C   0  0  0  0  0  0  0  0  0  0  0  0
  186.1710  176.7810  142.8920 C   0  0  0  0  0  2  0  0  0  0  0  0
  192.7410  172.2330  140.4020 C   0  0  0  0  0  2  0  0  0  0  0  0
  192.8670  172.5800  138.9130 C   0  0  1  0  0  3  0  0  0  0  0  0
  192.0430  172.2330  136.8390 O   0  0  0  0  0  1  0  0  0  0  0  0
  191.9840  171.7540  138.1040 N   0  0  0  0  0  2  0  0  0  0  0  0
  192.5870  174.0530  138.6470 C   0  0  0  0  0  2  0  0  0  0  0  0
  193.8590  174.7900  138.2630 C   0  0  0  0  0  2  0  0  0  0  0  0
  193.6040  175.6620  137.2050 O   0  0  0  0  0  1  0  0  0  0  0  0
  1 10  1  0  0  0  0
  1 18  1  0  0  0  0
  2 16  1  0  0  0  0
  4  8  1  0  0  0  0
  5  7  1  0  0  0  0
  5  2  1  0  0  0  0
  6  2  1  0  0  0  0
  6  4  1  0  0  0  0
  7  3  1  0  0  0  0
  7 19  1  0  0  0  0
  9  6  1  0  0  0  0
 12  8  1  0  0  0  0
 13  1  1  0  0  0  0
 13  9  1  0  0  0  0
 14 15  1  0  0  0  0
 15  3  1  0  0  0  0
 16 11  1  0  0  0  0
 16 12  1  0  0  0  0
 17  9  1  0  0  0  0
 17  5  1  0  0  0  0
 18  4  1  0  0  0  0
 20  1  1  0  0  0  0
 21 14  1  0  0  0  0
 22 21  1  0  0  0  0
 22 17  1  0  0  0  0
 23 19  1  0  0  0  0
 23 11  1  0  0  0  0
 24 25  1  0  0  0  0
 25 19  1  0  0  0  0
 25 26  1  0  0  0  0
 28 29  1  0  0  0  0
 29 26  1  0  0  0  0
 29 27  2  0  0  0  0
 30 24  1  0  0  0  0
 30 28  1  0  0  0  0
 31 22  1  0  0  0  0
 32 31  1  0  0  0  0
 33 34  1  0  0  0  0
 34 32  1  0  0  0  0
 35 32  1  0  0  0  0
 36 35  1  0  0  0  0
 37 36  1  0  0  0  0
M  END
>  <MODEL>
9

>  <REMARK>
 VINA RESULT:      -6.4      3.751      8.253
  Name = 
  6 active torsions:
  status: ('A' for Active; 'I' for Inactive)
    1  A    between atoms: C_1  and  C_4
    2  A    between atoms: C_1  and  C_27
    3  A    between atoms: C_4  and  C_12
    4  A    between atoms: C_4  and  N_37
    5  A    between atoms: C_8  and  C_12
    6  A    between atoms: C_23  and  C_30
                            x       y       z     vdW  Elec       q    Type
                         _______ _______ _______ _____ _____    ______ ____

>  <TORSDO>
F 6

$$$$
