=
 OpenBabel11112416183D

 30 36  0  0  1  0  0  0  0  0999 V2000
  187.6060  177.5770  144.7580 C   0  0  0  0  0  0  0  0  0  0  0  0
  185.8810  178.6110  146.2380 C   0  0  2  0  0  3  0  0  0  0  0  0
  190.5360  177.0680  147.7770 C   0  0  0  0  0  2  0  0  0  0  0  0
  188.9350  176.9390  144.5150 C   0  0  0  0  0  0  0  0  0  0  0  0
  186.6860  177.6360  143.7070 O   0  0  0  0  0  0  0  0  0  0  0  0
  188.3440  175.9030  141.0820 O   0  0  0  0  0  0  0  0  0  0  0  0
  191.6920  176.6970  143.1890 C   0  0  1  0  0  3  0  0  0  0  0  0
  188.2090  176.5280  142.1710 C   0  0  0  0  0  0  0  0  0  0  0  0
  192.0720  176.7710  144.6180 N   0  0  2  0  0  0  0  0  0  0  0  0
  191.5940  176.2730  147.0050 C   0  0  1  0  0  3  0  0  0  0  0  0
  187.0640  177.4950  142.3410 C   0  0  1  0  0  3  0  0  0  0  0  0
  189.2100  176.4060  143.1990 N   0  0  0  0  0  0  0  0  0  0  0  0
  185.8010  179.3320  147.5150 N   0  0  0  0  0  0  0  0  0  0  0  0
  193.3550  176.0790  144.7050 C   0  0  0  0  0  2  0  0  0  0  0  0
  192.9110  176.2930  142.3810 C   0  0  0  0  0  2  0  0  0  0  0  0
  184.6880  177.2860  146.2480 Cl  0  0  0  0  0  0  0  0  0  0  0  0
  189.4900  177.3470  146.8190 N   0  0  0  0  0  0  0  0  0  0  0  0
  186.7180  179.3060  148.4370 C   0  0  0  0  0  3  0  0  0  0  0  0
  187.2640  178.0580  145.9700 C   0  0  0  0  0  0  0  0  0  0  0  0
  189.8080  176.8390  145.5410 C   0  0  0  0  0  0  0  0  0  0  0  0
  191.7420  174.8970  147.6220 C   0  0  0  0  0  1  0  0  0  0  0  0
  191.1200  176.1350  145.5420 C   0  0  1  0  0  3  0  0  0  0  0  0
  194.0400  176.2360  143.3720 C   0  0  0  0  0  2  0  0  0  0  0  0
  190.5940  174.3450  143.2670 C   0  0  0  0  0  1  0  0  0  0  0  0
  187.9810  178.5800  148.2410 C   0  0  0  0  0  3  0  0  0  0  0  0
  188.2420  177.9950  147.0730 C   0  0  0  0  0  0  0  0  0  0  0  0
  190.4900  175.8010  142.8260 C   0  0  2  0  0  3  0  0  0  0  0  0
  185.8460  177.0910  141.5210 C   0  0  0  0  0  3  0  0  0  0  0  0
  184.9060  178.2750  141.3930 C   0  0  0  0  0  2  0  0  0  0  0  0
  185.8120  177.9020  140.2400 C   0  0  0  0  0  2  0  0  0  0  0  0
  1 19  2  0  0  0  0
  2 16  1  1  0  0  0
  2 13  1  0  0  0  0
  4  1  1  0  0  0  0
  4 20  2  0  0  0  0
  5  1  1  0  0  0  0
  6  8  2  0  0  0  0
  7 15  1  6  0  0  0
  7  9  1  0  0  0  0
  8 11  1  0  0  0  0
  8 12  1  0  0  0  0
  9 14  1  6  0  0  0
  9 22  1  0  0  0  0
 10 21  1  1  0  0  0
 10  3  1  0  0  0  0
 11 28  1  6  0  0  0
 11  5  1  0  0  0  0
 12  4  1  0  0  0  0
 13 18  2  0  0  0  0
 15 23  1  0  0  0  0
 17 26  1  0  0  0  0
 17  3  1  0  0  0  0
 19  2  1  0  0  0  0
 19 26  1  0  0  0  0
 20 17  1  0  0  0  0
 22 20  1  1  0  0  0
 22 10  1  0  0  0  0
 23 14  1  0  0  0  0
 25 18  1  0  0  0  0
 26 25  2  0  0  0  0
 27  7  1  0  0  0  0
 27 12  1  0  0  0  0
 27 24  1  1  0  0  0
 29 28  1  0  0  0  0
 30 29  1  0  0  0  0
 30 28  1  0  0  0  0
M  END
>  <MODEL>
1

>  <REMARK>
 VINA RESULT:      -7.6      0.000      0.000
  Name = 
  1 active torsions:
  status: ('A' for Active; 'I' for Inactive)
    1  A    between atoms: C_11  and  C_28
                            x       y       z     vdW  Elec       q    Type
                         _______ _______ _______ _____ _____    ______ ____

>  <TORSDO>
F 1

$$$$
=
 OpenBabel11112416183D

 30 36  0  0  1  0  0  0  0  0999 V2000
  188.2190  176.3610  146.0350 C   0  0  0  0  0  0  0  0  0  0  0  0
  186.7470  177.5920  147.6320 C   0  0  0  0  0  0  0  0  0  0  0  0
  185.8580  177.1000  142.5930 C   0  0  0  0  0  2  0  0  0  0  0  0
  188.5940  175.8970  144.6650 C   0  0  0  0  0  0  0  0  0  0  0  0
  189.1020  176.1210  147.0910 O   0  0  0  0  0  0  0  0  0  0  0  0
  191.8840  174.5920  145.4890 O   0  0  0  0  0  0  0  0  0  0  0  0
  189.2540  173.7850  142.5390 C   0  0  1  0  0  3  0  0  0  0  0  0
  190.6990  175.0000  145.6420 C   0  0  0  0  0  0  0  0  0  0  0  0
  188.0980  174.4650  141.9110 N   0  0  2  0  0  0  0  0  0  0  0  0
  186.7690  176.5250  141.5040 C   0  0  1  0  0  3  0  0  0  0  0  0
  190.1280  175.1340  147.0320 C   0  0  1  0  0  3  0  0  0  0  0  0
  189.8610  175.2200  144.4930 N   0  0  0  0  0  0  0  0  0  0  0  0
  185.3510  178.0360  147.7400 N   0  0  0  0  0  0  0  0  0  0  0  0
  188.2760  174.2680  140.4750 C   0  0  0  0  0  2  0  0  0  0  0  0
  189.9040  172.8800  141.5090 C   0  0  0  0  0  2  0  0  0  0  0  0
  187.8190  178.9660  148.0020 Cl  0  0  0  0  0  0  0  0  0  0  0  0
  186.5490  176.8570  143.8400 N   0  0  0  0  0  0  0  0  0  0  0  0
  184.5400  178.1760  146.7320 C   0  0  0  0  0  3  0  0  0  0  0  0
  187.0740  177.0360  146.2640 C   0  0  0  0  0  0  0  0  0  0  0  0
  187.7650  176.1680  143.6340 C   0  0  0  0  0  0  0  0  0  0  0  0
  187.2060  177.6360  140.5720 C   0  0  0  0  0  1  0  0  0  0  0  0
  188.0080  175.9070  142.1890 C   0  0  1  0  0  3  0  0  0  0  0  0
  189.0280  172.9740  140.2910 C   0  0  0  0  0  2  0  0  0  0  0  0
  190.9430  175.7450  142.3200 C   0  0  0  0  0  1  0  0  0  0  0  0
  184.9500  177.8260  145.3640 C   0  0  0  0  0  3  0  0  0  0  0  0
  186.1460  177.2810  145.1430 C   0  0  2  0  0  3  0  0  0  0  0  0
  190.3160  174.6780  143.2100 C   0  0  2  0  0  3  0  0  0  0  0  0
  191.2000  175.4600  148.0640 C   0  0  0  0  0  3  0  0  0  0  0  0
  192.1610  176.4810  147.4890 C   0  0  0  0  0  2  0  0  0  0  0  0
  191.0870  176.9190  148.4610 C   0  0  0  0  0  2  0  0  0  0  0  0
  1 19  2  0  0  0  0
  1  5  1  0  0  0  0
  2 13  2  0  0  0  0
  2 16  1  0  0  0  0
  3 17  1  0  0  0  0
  4  1  1  0  0  0  0
  6  8  2  0  0  0  0
  7 15  1  6  0  0  0
  7 27  1  0  0  0  0
  8 11  1  0  0  0  0
  9 14  1  6  0  0  0
  9 22  1  0  0  0  0
  9  7  1  0  0  0  0
 10 21  1  6  0  0  0
 10 22  1  0  0  0  0
 10  3  1  0  0  0  0
 11  5  1  0  0  0  0
 11 28  1  1  0  0  0
 12  4  1  0  0  0  0
 12  8  1  0  0  0  0
 17 26  1  0  0  0  0
 18 13  1  0  0  0  0
 19  2  1  0  0  0  0
 20 17  1  0  0  0  0
 20  4  2  0  0  0  0
 22 20  1  1  0  0  0
 23 14  1  0  0  0  0
 23 15  1  0  0  0  0
 25 18  2  0  0  0  0
 26 25  1  1  0  0  0
 26 19  1  0  0  0  0
 27 24  1  6  0  0  0
 27 12  1  0  0  0  0
 28 30  1  0  0  0  0
 29 28  1  0  0  0  0
 29 30  1  0  0  0  0
M  END
>  <MODEL>
2

>  <REMARK>
 VINA RESULT:      -7.3      2.242      5.257
  Name = 
  1 active torsions:
  status: ('A' for Active; 'I' for Inactive)
    1  A    between atoms: C_11  and  C_28
                            x       y       z     vdW  Elec       q    Type
                         _______ _______ _______ _____ _____    ______ ____

>  <TORSDO>
F 1

$$$$
=
 OpenBabel11112416183D

 30 36  0  0  1  0  0  0  0  0999 V2000
  190.3260  175.7060  144.6310 C   0  0  0  0  0  0  0  0  0  0  0  0
  191.8520  176.3640  146.4940 C   0  0  0  0  0  0  0  0  0  0  0  0
  192.9260  172.8280  142.9210 C   0  0  0  0  0  2  0  0  0  0  0  0
  189.9670  174.8780  143.4400 C   0  0  0  0  0  0  0  0  0  0  0  0
  189.3700  176.5800  145.1560 O   0  0  0  0  0  0  0  0  0  0  0  0
  186.5100  175.9540  143.1380 O   0  0  0  0  0  0  0  0  0  0  0  0
  189.1690  174.4390  140.5100 C   0  0  1  0  0  3  0  0  0  0  0  0
  187.7250  175.9560  143.4780 C   0  0  0  0  0  0  0  0  0  0  0  0
  190.4260  173.6600  140.5790 N   0  0  2  0  0  0  0  0  0  0  0  0
  192.0080  172.2270  141.8510 C   0  0  1  0  0  3  0  0  0  0  0  0
  188.2390  177.0240  144.4120 C   0  0  1  0  0  3  0  0  0  0  0  0
  188.6390  175.0170  142.8830 N   0  0  0  0  0  0  0  0  0  0  0  0
  193.2840  176.3320  146.8210 N   0  0  0  0  0  0  0  0  0  0  0  0
  190.2970  172.6390  139.5430 C   0  0  0  0  0  2  0  0  0  0  0  0
  188.4670  174.1160  139.2030 C   0  0  0  0  0  2  0  0  0  0  0  0
  190.9330  175.6890  147.8630 Cl  0  0  0  0  0  0  0  0  0  0  0  0
  192.1490  173.8730  143.5500 N   0  0  0  0  0  0  0  0  0  0  0  0
  194.1540  175.5500  146.2530 C   0  0  0  0  0  3  0  0  0  0  0  0
  191.5300  175.5990  145.2290 C   0  0  0  0  0  0  0  0  0  0  0  0
  190.8730  173.9990  142.9590 C   0  0  0  0  0  0  0  0  0  0  0  0
  191.7520  170.7680  142.1660 C   0  0  0  0  0  1  0  0  0  0  0  0
  190.6720  173.0030  141.8720 C   0  0  1  0  0  3  0  0  0  0  0  0
  189.4080  173.2050  138.4650 C   0  0  0  0  0  2  0  0  0  0  0  0
  187.7360  172.8750  142.0090 C   0  0  0  0  0  1  0  0  0  0  0  0
  193.7740  174.6500  145.1550 C   0  0  0  0  0  3  0  0  0  0  0  0
  192.5350  174.6770  144.6660 C   0  0  2  0  0  3  0  0  0  0  0  0
  188.1870  174.2960  141.6910 C   0  0  2  0  0  3  0  0  0  0  0  0
  187.1630  177.5100  145.3740 C   0  0  0  0  0  3  0  0  0  0  0  0
  186.9680  176.4850  146.4740 C   0  0  0  0  0  2  0  0  0  0  0  0
  187.7770  177.7360  146.7420 C   0  0  0  0  0  2  0  0  0  0  0  0
  1  5  1  0  0  0  0
  1 19  2  0  0  0  0
  2 13  2  0  0  0  0
  2 16  1  0  0  0  0
  3 17  1  0  0  0  0
  4  1  1  0  0  0  0
  6  8  2  0  0  0  0
  7 15  1  6  0  0  0
  7  9  1  0  0  0  0
  7 27  1  0  0  0  0
  8 11  1  0  0  0  0
  9 14  1  6  0  0  0
  9 22  1  0  0  0  0
 10 22  1  0  0  0  0
 10 21  1  1  0  0  0
 10  3  1  0  0  0  0
 11  5  1  0  0  0  0
 11 28  1  1  0  0  0
 12  4  1  0  0  0  0
 12  8  1  0  0  0  0
 17 26  1  0  0  0  0
 18 13  1  0  0  0  0
 19  2  1  0  0  0  0
 20  4  2  0  0  0  0
 20 17  1  0  0  0  0
 22 20  1  1  0  0  0
 23 15  1  0  0  0  0
 23 14  1  0  0  0  0
 25 18  2  0  0  0  0
 26 25  1  6  0  0  0
 26 19  1  0  0  0  0
 27 24  1  1  0  0  0
 27 12  1  0  0  0  0
 28 29  1  0  0  0  0
 28 30  1  0  0  0  0
 29 30  1  0  0  0  0
M  END
>  <MODEL>
3

>  <REMARK>
 VINA RESULT:      -7.1      2.759      5.468
  Name = 
  1 active torsions:
  status: ('A' for Active; 'I' for Inactive)
    1  A    between atoms: C_11  and  C_28
                            x       y       z     vdW  Elec       q    Type
                         _______ _______ _______ _____ _____    ______ ____

>  <TORSDO>
F 1

$$$$
=
 OpenBabel11112416183D

 30 36  0  0  1  0  0  0  0  0999 V2000
  189.7730  175.8470  144.1920 C   0  0  0  0  0  0  0  0  0  0  0  0
  189.4130  176.9820  146.3860 C   0  0  0  0  0  0  0  0  0  0  0  0
  193.1700  173.6170  145.3960 C   0  0  0  0  0  2  0  0  0  0  0  0
  190.4830  174.8840  143.2970 C   0  0  0  0  0  0  0  0  0  0  0  0
  188.6220  176.4830  143.7170 O   0  0  0  0  0  0  0  0  0  0  0  0
  188.1670  175.0330  140.5020 O   0  0  0  0  0  0  0  0  0  0  0  0
  192.0750  174.0780  140.8010 C   0  0  1  0  0  3  0  0  0  0  0  0
  188.7640  175.3630  141.5640 C   0  0  0  0  0  0  0  0  0  0  0  0
  192.9990  173.6470  141.8750 N   0  0  2  0  0  0  0  0  0  0  0  0
  193.3790  172.7400  144.1570 C   0  0  1  0  0  3  0  0  0  0  0  0
  188.3100  176.5810  142.3300 C   0  0  1  0  0  3  0  0  0  0  0  0
  189.9450  174.6490  141.9760 N   0  0  0  0  0  0  0  0  0  0  0  0
  190.1720  177.3320  147.5940 N   0  0  0  0  0  0  0  0  0  0  0  0
  193.7840  172.5650  141.2880 C   0  0  0  0  0  2  0  0  0  0  0  0
  192.5640  173.5100  139.4820 C   0  0  0  0  0  2  0  0  0  0  0  0
  187.8950  176.1830  146.8710 Cl  0  0  0  0  0  0  0  0  0  0  0  0
  192.0470  174.4700  145.0780 N   0  0  0  0  0  0  0  0  0  0  0  0
  191.2820  176.7610  147.9600 C   0  0  0  0  0  3  0  0  0  0  0  0
  190.1920  176.0840  145.4510 C   0  0  0  0  0  0  0  0  0  0  0  0
  191.5690  174.2340  143.7700 C   0  0  0  0  0  0  0  0  0  0  0  0
  193.1750  171.2860  144.5280 C   0  0  0  0  0  1  0  0  0  0  0  0
  192.3380  173.1540  143.0930 C   0  0  1  0  0  3  0  0  0  0  0  0
  193.8610  172.8210  139.8040 C   0  0  0  0  0  2  0  0  0  0  0  0
  190.2320  172.2990  141.2250 C   0  0  0  0  0  1  0  0  0  0  0  0
  191.9210  175.7280  147.1320 C   0  0  0  0  0  3  0  0  0  0  0  0
  191.4100  175.4120  145.9430 C   0  0  2  0  0  3  0  0  0  0  0  0
  190.5770  173.7660  140.9940 C   0  0  2  0  0  3  0  0  0  0  0  0
  186.8180  176.8380  142.1660 C   0  0  0  0  0  3  0  0  0  0  0  0
  186.5200  178.2940  142.4690 C   0  0  0  0  0  2  0  0  0  0  0  0
  186.6000  177.8220  141.0330 C   0  0  0  0  0  2  0  0  0  0  0  0
  1 19  2  0  0  0  0
  2 16  1  0  0  0  0
  2 13  2  0  0  0  0
  4 20  2  0  0  0  0
  4  1  1  0  0  0  0
  5  1  1  0  0  0  0
  6  8  2  0  0  0  0
  7 15  1  6  0  0  0
  7 27  1  0  0  0  0
  7  9  1  0  0  0  0
  8 12  1  0  0  0  0
  8 11  1  0  0  0  0
  9 14  1  6  0  0  0
  9 22  1  0  0  0  0
 10 21  1  1  0  0  0
 10  3  1  0  0  0  0
 11 28  1  1  0  0  0
 11  5  1  0  0  0  0
 12  4  1  0  0  0  0
 13 18  1  0  0  0  0
 15 23  1  0  0  0  0
 17  3  1  0  0  0  0
 17 26  1  0  0  0  0
 19 26  1  0  0  0  0
 19  2  1  0  0  0  0
 20 17  1  0  0  0  0
 22 20  1  1  0  0  0
 22 10  1  0  0  0  0
 23 14  1  0  0  0  0
 25 18  2  0  0  0  0
 26 25  1  6  0  0  0
 27 24  1  1  0  0  0
 27 12  1  0  0  0  0
 28 29  1  0  0  0  0
 30 28  1  0  0  0  0
 30 29  1  0  0  0  0
M  END
>  <MODEL>
4

>  <REMARK>
 VINA RESULT:      -7.1      2.404      3.668
  Name = 
  1 active torsions:
  status: ('A' for Active; 'I' for Inactive)
    1  A    between atoms: C_11  and  C_28
                            x       y       z     vdW  Elec       q    Type
                         _______ _______ _______ _____ _____    ______ ____

>  <TORSDO>
F 1

$$$$
=
 OpenBabel11112416183D

 30 36  0  0  1  0  0  0  0  0999 V2000
  191.1340  175.5320  144.3880 C   0  0  0  0  0  0  0  0  0  0  0  0
  189.8390  176.2650  146.3920 C   0  0  0  0  0  0  0  0  0  0  0  0
  194.9410  175.6660  146.2460 C   0  0  0  0  0  2  0  0  0  0  0  0
  192.4010  175.1480  143.6950 C   0  0  0  0  0  0  0  0  0  0  0  0
  189.9240  175.3890  143.7040 O   0  0  0  0  0  0  0  0  0  0  0  0
  190.9070  173.9260  140.6170 O   0  0  0  0  0  0  0  0  0  0  0  0
  194.5550  175.3910  141.5230 C   0  0  1  0  0  3  0  0  0  0  0  0
  191.0270  174.5440  141.7110 C   0  0  0  0  0  0  0  0  0  0  0  0
  195.3680  175.5740  142.7470 N   0  0  2  0  0  0  0  0  0  0  0  0
  195.8110  175.0620  145.1380 C   0  0  1  0  0  3  0  0  0  0  0  0
  189.8450  175.2840  142.2860 C   0  0  1  0  0  3  0  0  0  0  0  0
  192.3170  174.6400  142.3440 N   0  0  0  0  0  0  0  0  0  0  0  0
  190.0550  176.9940  147.6490 N   0  0  0  0  0  0  0  0  0  0  0  0
  196.7110  175.1370  142.3790 C   0  0  0  0  0  2  0  0  0  0  0  0
  195.4890  175.2000  140.3430 C   0  0  0  0  0  2  0  0  0  0  0  0
  188.9850  174.7410  146.7490 Cl  0  0  0  0  0  0  0  0  0  0  0  0
  193.6040  175.7170  145.6990 N   0  0  0  0  0  0  0  0  0  0  0  0
  191.2140  177.1660  148.2140 C   0  0  0  0  0  3  0  0  0  0  0  0
  191.1310  175.9740  145.6620 C   0  0  0  0  0  0  0  0  0  0  0  0
  193.5680  175.2420  144.3690 C   0  0  0  0  0  0  0  0  0  0  0  0
  196.4090  173.7560  145.6200 C   0  0  0  0  0  1  0  0  0  0  0  0
  194.9120  174.7970  143.9100 C   0  0  1  0  0  3  0  0  0  0  0  0
  196.8730  175.3830  140.9010 C   0  0  0  0  0  2  0  0  0  0  0  0
  194.0030  172.8780  141.8730 C   0  0  0  0  0  1  0  0  0  0  0  0
  192.4520  176.6840  147.5840 C   0  0  0  0  0  3  0  0  0  0  0  0
  192.4140  176.1260  146.3750 C   0  0  2  0  0  3  0  0  0  0  0  0
  193.4900  174.2760  141.5460 C   0  0  2  0  0  3  0  0  0  0  0  0
  188.5210  174.6360  141.9010 C   0  0  0  0  0  3  0  0  0  0  0  0
  187.3760  175.5350  142.3260 C   0  0  0  0  0  2  0  0  0  0  0  0
  187.8160  175.5050  140.8780 C   0  0  0  0  0  2  0  0  0  0  0  0
  1 19  2  0  0  0  0
  2 16  1  0  0  0  0
  2 13  2  0  0  0  0
  4 20  2  0  0  0  0
  4  1  1  0  0  0  0
  5  1  1  0  0  0  0
  6  8  2  0  0  0  0
  7 15  1  6  0  0  0
  7 27  1  0  0  0  0
  7  9  1  0  0  0  0
  8 11  1  0  0  0  0
  8 12  1  0  0  0  0
  9 14  1  6  0  0  0
  9 22  1  0  0  0  0
 10 21  1  1  0  0  0
 10  3  1  0  0  0  0
 11 28  1  1  0  0  0
 11  5  1  0  0  0  0
 12  4  1  0  0  0  0
 13 18  1  0  0  0  0
 15 23  1  0  0  0  0
 17  3  1  0  0  0  0
 17 26  1  0  0  0  0
 19 26  1  0  0  0  0
 19  2  1  0  0  0  0
 20 17  1  0  0  0  0
 22 20  1  1  0  0  0
 22 10  1  0  0  0  0
 23 14  1  0  0  0  0
 25 18  2  0  0  0  0
 26 25  1  6  0  0  0
 27 24  1  1  0  0  0
 27 12  1  0  0  0  0
 28 29  1  0  0  0  0
 30 28  1  0  0  0  0
 30 29  1  0  0  0  0
M  END
>  <MODEL>
5

>  <REMARK>
 VINA RESULT:      -6.8      2.798      4.193
  Name = 
  1 active torsions:
  status: ('A' for Active; 'I' for Inactive)
    1  A    between atoms: C_11  and  C_28
                            x       y       z     vdW  Elec       q    Type
                         _______ _______ _______ _____ _____    ______ ____

>  <TORSDO>
F 1

$$$$
=
 OpenBabel11112416183D

 30 36  0  0  1  0  0  0  0  0999 V2000
  190.5630  174.8330  143.9640 C   0  0  0  0  0  0  0  0  0  0  0  0
  188.5430  174.4330  142.5530 C   0  0  0  0  0  0  0  0  0  0  0  0
  193.3880  174.3800  140.8360 C   0  0  0  0  0  2  0  0  0  0  0  0
  192.0360  174.9990  144.1560 C   0  0  0  0  0  0  0  0  0  0  0  0
  189.7130  175.0690  145.0480 O   0  0  0  0  0  0  0  0  0  0  0  0
  191.9410  176.1420  147.6030 O   0  0  0  0  0  0  0  0  0  0  0  0
  194.7660  174.3140  145.3780 C   0  0  1  0  0  3  0  0  0  0  0  0
  191.5700  175.6050  146.5230 C   0  0  0  0  0  0  0  0  0  0  0  0
  195.0490  174.1320  143.9360 N   0  0  2  0  0  0  0  0  0  0  0  0
  194.6750  174.7790  141.5660 C   0  0  1  0  0  3  0  0  0  0  0  0
  190.1660  175.0670  146.3990 C   0  0  1  0  0  3  0  0  0  0  0  0
  192.5180  175.4020  145.4590 N   0  0  0  0  0  0  0  0  0  0  0  0
  188.1850  173.7880  141.2830 N   0  0  0  0  0  0  0  0  0  0  0  0
  196.4840  174.3670  143.7980 C   0  0  0  0  0  2  0  0  0  0  0  0
  196.0790  174.2900  146.1380 C   0  0  0  0  0  2  0  0  0  0  0  0
  187.8500  176.0750  142.5820 Cl  0  0  0  0  0  0  0  0  0  0  0  0
  192.3430  174.4510  141.8340 N   0  0  0  0  0  0  0  0  0  0  0  0
  189.0260  173.5200  140.3270 C   0  0  0  0  0  3  0  0  0  0  0  0
  190.0390  174.5010  142.7670 C   0  0  0  0  0  0  0  0  0  0  0  0
  192.8560  174.8170  143.0980 C   0  0  0  0  0  0  0  0  0  0  0  0
  195.2420  176.0360  140.9390 C   0  0  0  0  0  1  0  0  0  0  0  0
  194.3250  175.0530  143.0450 C   0  0  1  0  0  3  0  0  0  0  0  0
  197.1280  173.9830  145.1060 C   0  0  0  0  0  2  0  0  0  0  0  0
  194.4970  176.8970  145.3320 C   0  0  0  0  0  1  0  0  0  0  0  0
  190.4640  173.7910  140.4740 C   0  0  0  0  0  3  0  0  0  0  0  0
  190.9440  174.2490  141.6290 C   0  0  2  0  0  3  0  0  0  0  0  0
  193.9380  175.5510  145.7810 C   0  0  2  0  0  3  0  0  0  0  0  0
  189.1770  175.8400  147.2620 C   0  0  0  0  0  3  0  0  0  0  0  0
  188.8780  177.1780  146.6140 C   0  0  0  0  0  2  0  0  0  0  0  0
  187.8870  176.0410  146.4910 C   0  0  0  0  0  2  0  0  0  0  0  0
  1  4  1  0  0  0  0
  1  5  1  0  0  0  0
  2 16  1  0  0  0  0
  2 19  1  0  0  0  0
  3 10  1  0  0  0  0
  3 17  1  0  0  0  0
  4 12  1  0  0  0  0
  5 11  1  0  0  0  0
  7 27  1  0  0  0  0
  7 15  1  1  0  0  0
  8  6  2  0  0  0  0
  9 14  1  1  0  0  0
  9  7  1  0  0  0  0
 10 21  1  6  0  0  0
 10 22  1  0  0  0  0
 11  8  1  0  0  0  0
 11 28  1  1  0  0  0
 12 27  1  0  0  0  0
 12  8  1  0  0  0  0
 13  2  2  0  0  0  0
 14 23  1  0  0  0  0
 17 20  1  0  0  0  0
 18 25  2  0  0  0  0
 18 13  1  0  0  0  0
 19  1  2  0  0  0  0
 20  4  2  0  0  0  0
 22 20  1  6  0  0  0
 22  9  1  0  0  0  0
 23 15  1  0  0  0  0
 26 25  1  1  0  0  0
 26 17  1  0  0  0  0
 26 19  1  0  0  0  0
 27 24  1  6  0  0  0
 29 28  1  0  0  0  0
 30 29  1  0  0  0  0
 30 28  1  0  0  0  0
M  END
>  <MODEL>
6

>  <REMARK>
 VINA RESULT:      -6.7      3.194      6.104
  Name = 
  1 active torsions:
  status: ('A' for Active; 'I' for Inactive)
    1  A    between atoms: C_11  and  C_28
                            x       y       z     vdW  Elec       q    Type
                         _______ _______ _______ _____ _____    ______ ____

>  <TORSDO>
F 1

$$$$
=
 OpenBabel11112416183D

 30 36  0  0  1  0  0  0  0  0999 V2000
  189.9870  175.1250  143.0410 C   0  0  0  0  0  0  0  0  0  0  0  0
  188.2670  174.4540  141.3610 C   0  0  0  0  0  0  0  0  0  0  0  0
  193.3280  173.7150  140.8480 C   0  0  0  0  0  2  0  0  0  0  0  0
  191.3980  175.2680  143.5110 C   0  0  0  0  0  0  0  0  0  0  0  0
  188.9630  175.6840  143.8110 O   0  0  0  0  0  0  0  0  0  0  0  0
  190.7210  177.3000  146.4450 O   0  0  0  0  0  0  0  0  0  0  0  0
  193.7340  174.8100  145.4480 C   0  0  1  0  0  3  0  0  0  0  0  0
  190.5240  176.5100  145.4810 C   0  0  0  0  0  0  0  0  0  0  0  0
  194.2860  174.2330  144.2010 N   0  0  2  0  0  0  0  0  0  0  0  0
  194.4730  174.2350  141.7230 C   0  0  1  0  0  3  0  0  0  0  0  0
  189.1260  176.0250  145.1850 C   0  0  1  0  0  3  0  0  0  0  0  0
  191.6430  175.9830  144.7440 N   0  0  0  0  0  0  0  0  0  0  0  0
  188.1110  173.5080  140.2480 N   0  0  0  0  0  0  0  0  0  0  0  0
  195.7340  174.3560  144.3340 C   0  0  0  0  0  2  0  0  0  0  0  0
  194.8540  174.9310  146.4650 C   0  0  0  0  0  2  0  0  0  0  0  0
  187.7580  176.0740  140.8170 Cl  0  0  0  0  0  0  0  0  0  0  0  0
  192.1150  174.1010  141.5330 N   0  0  0  0  0  0  0  0  0  0  0  0
  189.0970  172.9540  139.6050 C   0  0  0  0  0  3  0  0  0  0  0  0
  189.6860  174.5070  141.8810 C   0  0  0  0  0  0  0  0  0  0  0  0
  192.3930  174.7690  142.7460 C   0  0  0  0  0  0  0  0  0  0  0  0
  195.2850  175.2480  140.9420 C   0  0  0  0  0  1  0  0  0  0  0  0
  193.8590  174.9130  142.9670 C   0  0  1  0  0  3  0  0  0  0  0  0
  196.0540  174.3090  145.8070 C   0  0  0  0  0  2  0  0  0  0  0  0
  193.7510  177.2950  144.6910 C   0  0  0  0  0  1  0  0  0  0  0  0
  190.4950  173.1870  139.9980 C   0  0  0  0  0  3  0  0  0  0  0  0
  190.7730  173.9170  141.0770 C   0  0  2  0  0  3  0  0  0  0  0  0
  192.9750  176.1480  145.3290 C   0  0  2  0  0  3  0  0  0  0  0  0
  188.0690  177.0470  145.5790 C   0  0  0  0  0  3  0  0  0  0  0  0
  186.6980  176.4010  145.5320 C   0  0  0  0  0  2  0  0  0  0  0  0
  187.3930  176.6010  146.8610 C   0  0  0  0  0  2  0  0  0  0  0  0
  1  4  1  0  0  0  0
  1  5  1  0  0  0  0
  2 19  1  0  0  0  0
  3 17  1  0  0  0  0
  3 10  1  0  0  0  0
  4 12  1  0  0  0  0
  5 11  1  0  0  0  0
  7 15  1  1  0  0  0
  8  6  2  0  0  0  0
  9 14  1  1  0  0  0
  9  7  1  0  0  0  0
 10 21  1  6  0  0  0
 10 22  1  0  0  0  0
 11  8  1  0  0  0  0
 11 28  1  6  0  0  0
 12 27  1  0  0  0  0
 12  8  1  0  0  0  0
 13  2  2  0  0  0  0
 14 23  1  0  0  0  0
 16  2  1  0  0  0  0
 17 20  1  0  0  0  0
 18 25  2  0  0  0  0
 18 13  1  0  0  0  0
 19  1  2  0  0  0  0
 20  4  2  0  0  0  0
 22 20  1  6  0  0  0
 22  9  1  0  0  0  0
 23 15  1  0  0  0  0
 26 25  1  1  0  0  0
 26 17  1  0  0  0  0
 26 19  1  0  0  0  0
 27 24  1  6  0  0  0
 27  7  1  0  0  0  0
 28 30  1  0  0  0  0
 29 28  1  0  0  0  0
 29 30  1  0  0  0  0
M  END
>  <MODEL>
7

>  <REMARK>
 VINA RESULT:      -6.7      2.944      5.916
  Name = 
  1 active torsions:
  status: ('A' for Active; 'I' for Inactive)
    1  A    between atoms: C_11  and  C_28
                            x       y       z     vdW  Elec       q    Type
                         _______ _______ _______ _____ _____    ______ ____

>  <TORSDO>
F 1

$$$$
=
 OpenBabel11112416183D

 30 36  0  0  1  0  0  0  0  0999 V2000
  190.9390  175.3590  144.3580 C   0  0  0  0  0  0  0  0  0  0  0  0
  192.0300  176.3740  146.3610 C   0  0  0  0  0  0  0  0  0  0  0  0
  194.2480  172.9720  143.2100 C   0  0  0  0  0  2  0  0  0  0  0  0
  190.9160  174.4300  143.1880 C   0  0  0  0  0  0  0  0  0  0  0  0
  189.7710  176.0520  144.6900 O   0  0  0  0  0  0  0  0  0  0  0  0
  187.4000  174.8040  142.3520 O   0  0  0  0  0  0  0  0  0  0  0  0
  190.6460  173.7280  140.2130 C   0  0  1  0  0  3  0  0  0  0  0  0
  188.5320  175.0550  142.8520 C   0  0  0  0  0  0  0  0  0  0  0  0
  192.0030  173.2100  140.5020 N   0  0  2  0  0  0  0  0  0  0  0  0
  193.6220  172.1630  142.0690 C   0  0  1  0  0  3  0  0  0  0  0  0
  188.6970  176.2390  143.7720 C   0  0  1  0  0  3  0  0  0  0  0  0
  189.6810  174.2870  142.4490 N   0  0  0  0  0  0  0  0  0  0  0  0
  193.3800  176.6330  146.8790 N   0  0  0  0  0  0  0  0  0  0  0  0
  192.2180  172.1430  139.5290 C   0  0  0  0  0  2  0  0  0  0  0  0
  190.2140  173.2230  138.8480 C   0  0  0  0  0  2  0  0  0  0  0  0
  191.0630  175.5900  147.6370 Cl  0  0  0  0  0  0  0  0  0  0  0  0
  193.2080  173.8720  143.6570 N   0  0  0  0  0  0  0  0  0  0  0  0
  194.4540  176.0110  146.4870 C   0  0  0  0  0  3  0  0  0  0  0  0
  192.0420  175.5110  145.1180 C   0  0  0  0  0  0  0  0  0  0  0  0
  192.0300  173.7240  142.8930 C   0  0  0  0  0  0  0  0  0  0  0  0
  193.6000  170.6950  142.4440 C   0  0  0  0  0  1  0  0  0  0  0  0
  192.1770  172.6650  141.8580 C   0  0  1  0  0  3  0  0  0  0  0  0
  191.4040  172.4820  138.3060 C   0  0  0  0  0  2  0  0  0  0  0  0
  189.3280  171.9770  141.6070 C   0  0  0  0  0  1  0  0  0  0  0  0
  194.4100  175.0110  145.4110 C   0  0  0  0  0  3  0  0  0  0  0  0
  193.2710  174.7790  144.7590 C   0  0  2  0  0  3  0  0  0  0  0  0
  189.5480  173.4450  141.2580 C   0  0  2  0  0  3  0  0  0  0  0  0
  187.4220  176.5450  144.5460 C   0  0  0  0  0  3  0  0  0  0  0  0
  187.5190  177.9320  145.1530 C   0  0  0  0  0  2  0  0  0  0  0  0
  186.7080  177.7130  143.8940 C   0  0  0  0  0  2  0  0  0  0  0  0
  1  5  1  0  0  0  0
  1 19  2  0  0  0  0
  2 13  2  0  0  0  0
  2 16  1  0  0  0  0
  3 17  1  0  0  0  0
  4  1  1  0  0  0  0
  6  8  2  0  0  0  0
  7 15  1  6  0  0  0
  7  9  1  0  0  0  0
  7 27  1  0  0  0  0
  8 11  1  0  0  0  0
  9 14  1  6  0  0  0
  9 22  1  0  0  0  0
 10 21  1  1  0  0  0
 10  3  1  0  0  0  0
 11 28  1  1  0  0  0
 11  5  1  0  0  0  0
 12  8  1  0  0  0  0
 12  4  1  0  0  0  0
 17 26  1  0  0  0  0
 18 13  1  0  0  0  0
 19  2  1  0  0  0  0
 20  4  2  0  0  0  0
 20 17  1  0  0  0  0
 22 10  1  0  0  0  0
 22 20  1  1  0  0  0
 23 15  1  0  0  0  0
 23 14  1  0  0  0  0
 25 18  2  0  0  0  0
 26 19  1  0  0  0  0
 26 25  1  6  0  0  0
 27 24  1  1  0  0  0
 27 12  1  0  0  0  0
 28 29  1  0  0  0  0
 30 28  1  0  0  0  0
 30 29  1  0  0  0  0
M  END
>  <MODEL>
8

>  <REMARK>
 VINA RESULT:      -6.7      3.086      5.425
  Name = 
  1 active torsions:
  status: ('A' for Active; 'I' for Inactive)
    1  A    between atoms: C_11  and  C_28
                            x       y       z     vdW  Elec       q    Type
                         _______ _______ _______ _____ _____    ______ ____

>  <TORSDO>
F 1

$$$$
=
 OpenBabel11112416183D

 30 36  0  0  1  0  0  0  0  0999 V2000
  191.4110  173.2340  142.8280 C   0  0  0  0  0  0  0  0  0  0  0  0
  192.9760  171.3160  142.5080 C   0  0  2  0  0  3  0  0  0  0  0  0
  193.0550  174.5400  146.5100 C   0  0  0  0  0  2  0  0  0  0  0  0
  190.9170  174.4340  143.5690 C   0  0  0  0  0  0  0  0  0  0  0  0
  190.8420  172.9280  141.5890 O   0  0  0  0  0  0  0  0  0  0  0  0
  188.5640  175.6070  141.0610 O   0  0  0  0  0  0  0  0  0  0  0  0
  188.8140  176.1000  145.0570 C   0  0  1  0  0  3  0  0  0  0  0  0
  189.3310  174.8290  141.6940 C   0  0  0  0  0  0  0  0  0  0  0  0
  189.8660  175.9860  146.0920 N   0  0  2  0  0  0  0  0  0  0  0  0
  192.2660  175.8370  146.7200 C   0  0  1  0  0  3  0  0  0  0  0  0
  189.5760  173.4340  141.1730 C   0  0  1  0  0  3  0  0  0  0  0  0
  189.8710  175.2300  142.9670 N   0  0  0  0  0  0  0  0  0  0  0  0
  193.8490  170.4480  143.3100 N   0  0  0  0  0  0  0  0  0  0  0  0
  189.6930  177.1610  146.9410 C   0  0  0  0  0  2  0  0  0  0  0  0
  187.7970  177.1320  145.5080 C   0  0  0  0  0  2  0  0  0  0  0  0
  193.9020  171.9370  141.1160 Cl  0  0  0  0  0  0  0  0  0  0  0  0
  192.5370  173.9700  145.2860 N   0  0  0  0  0  0  0  0  0  0  0  0
  194.2980  170.7440  144.4940 C   0  0  0  0  0  3  0  0  0  0  0  0
  192.4120  172.4690  143.3080 C   0  0  0  0  0  0  0  0  0  0  0  0
  191.4970  174.7580  144.7450 C   0  0  0  0  0  0  0  0  0  0  0  0
  193.2170  177.0170  146.6910 C   0  0  0  0  0  1  0  0  0  0  0  0
  191.2420  175.9700  145.5710 C   0  0  1  0  0  3  0  0  0  0  0  0
  188.2350  177.5410  146.8880 C   0  0  0  0  0  2  0  0  0  0  0  0
  190.1180  177.6560  143.4380 C   0  0  0  0  0  1  0  0  0  0  0  0
  193.9010  171.9840  145.1770 C   0  0  0  0  0  3  0  0  0  0  0  0
  193.0040  172.7960  144.6190 C   0  0  0  0  0  0  0  0  0  0  0  0
  189.2740  176.3990  143.6160 C   0  0  2  0  0  3  0  0  0  0  0  0
  189.4800  173.3640  139.6550 C   0  0  0  0  0  3  0  0  0  0  0  0
  189.5040  171.9140  139.2130 C   0  0  0  0  0  2  0  0  0  0  0  0
  188.1910  172.6660  139.2660 C   0  0  0  0  0  2  0  0  0  0  0  0
  1 19  2  0  0  0  0
  1  4  1  0  0  0  0
  2 16  1  6  0  0  0
  2 19  1  0  0  0  0
  2 13  1  0  0  0  0
  3 10  1  0  0  0  0
  4 20  2  0  0  0  0
  5  1  1  0  0  0  0
  6  8  2  0  0  0  0
  7 15  1  1  0  0  0
  7  9  1  0  0  0  0
  8 12  1  0  0  0  0
  9 14  1  1  0  0  0
 10 21  1  6  0  0  0
 11 28  1  6  0  0  0
 11  5  1  0  0  0  0
 11  8  1  0  0  0  0
 12  4  1  0  0  0  0
 12 27  1  0  0  0  0
 13 18  2  0  0  0  0
 15 23  1  0  0  0  0
 17  3  1  0  0  0  0
 18 25  1  0  0  0  0
 19 26  1  0  0  0  0
 20 17  1  0  0  0  0
 22 20  1  6  0  0  0
 22  9  1  0  0  0  0
 22 10  1  0  0  0  0
 23 14  1  0  0  0  0
 26 25  2  0  0  0  0
 26 17  1  0  0  0  0
 27 24  1  1  0  0  0
 27  7  1  0  0  0  0
 29 30  1  0  0  0  0
 29 28  1  0  0  0  0
 30 28  1  0  0  0  0
M  END
>  <MODEL>
9

>  <REMARK>
 VINA RESULT:      -6.6      3.572      6.372
  Name = 
  1 active torsions:
  status: ('A' for Active; 'I' for Inactive)
    1  A    between atoms: C_11  and  C_28
                            x       y       z     vdW  Elec       q    Type
                         _______ _______ _______ _____ _____    ______ ____

>  <TORSDO>
F 1

$$$$
