=
 OpenBabel11112416213D

 30 35  0  0  1  0  0  0  0  0999 V2000
  186.2350  177.3370  143.6750 C   0  0  0  0  0  0  0  0  0  0  0  0
  184.7500  178.4150  145.3550 C   0  0  0  0  0  0  0  0  0  0  0  0
  188.6760  175.8110  146.6090 N   0  0  0  0  0  2  0  0  0  0  0  0
  187.3420  176.5060  143.3750 C   0  0  0  0  0  0  0  0  0  0  0  0
  185.4930  177.8630  142.6160 O   0  0  0  0  0  0  0  0  0  0  0  0
  187.4410  176.7610  139.7640 O   0  0  0  0  0  1  0  0  0  0  0  0
  189.7970  175.1570  141.9520 C   0  0  1  0  0  3  0  0  0  0  0  0
  186.6830  176.5880  140.9250 C   0  0  2  0  0  3  0  0  0  0  0  0
  190.2540  175.0070  143.3970 C   0  0  2  0  0  3  0  0  0  0  0  0
  189.5750  175.2260  145.7890 C   0  0  0  0  0  0  0  0  0  0  0  0
  186.0250  177.9170  141.2990 C   0  0  1  0  0  3  0  0  0  0  0  0
  187.5340  176.0750  142.0090 N   0  0  0  0  0  0  0  0  0  0  0  0
  184.4410  178.6660  146.6950 C   0  0  0  0  0  3  0  0  0  0  0  0
  190.7840  173.5920  143.5100 C   0  0  0  0  0  2  0  0  0  0  0  0
  190.6270  174.1660  141.1530 C   0  0  0  0  0  2  0  0  0  0  0  0
  183.9270  178.9610  144.3770 O   0  0  0  0  0  1  0  0  0  0  0  0
  187.7860  176.3310  145.7480 C   0  0  0  0  0  0  0  0  0  0  0  0
  185.2320  178.1430  147.7180 C   0  0  0  0  0  3  0  0  0  0  0  0
  185.8740  177.6210  145.0210 C   0  0  0  0  0  0  0  0  0  0  0  0
  188.1370  176.0540  144.4510 C   0  0  0  0  0  0  0  0  0  0  0  0
  190.6140  174.6650  146.2270 O   0  0  0  0  0  0  0  0  0  0  0  0
  189.2870  175.3320  144.4630 N   0  0  0  0  0  0  0  0  0  0  0  0
  191.3720  173.2900  142.1480 C   0  0  0  0  0  2  0  0  0  0  0  0
  187.6450  173.4080  142.4420 Cl  0  0  0  0  0  0  0  0  0  0  0  0
  186.3430  177.3610  147.4110 C   0  0  0  0  0  3  0  0  0  0  0  0
  186.6680  177.0950  146.0760 C   0  0  0  0  0  0  0  0  0  0  0  0
  188.3220  174.8940  141.6970 C   0  0  2  0  0  3  0  0  0  0  0  0
  184.9300  178.2910  140.3100 C   0  0  0  0  0  2  0  0  0  0  0  0
  182.7560  177.9160  140.3840 C   0  0  0  0  0  1  0  0  0  0  0  0
  183.7660  178.6660  140.9850 O   0  0  0  0  0  0  0  0  0  0  0  0
  1 19  1  0  0  0  0
  2 13  1  0  0  0  0
  4  1  2  0  0  0  0
  4 20  1  0  0  0  0
  5  1  1  0  0  0  0
  7 15  1  6  0  0  0
  7  9  1  0  0  0  0
  8  6  1  6  0  0  0
  8 11  1  0  0  0  0
  8 12  1  0  0  0  0
  9 14  1  1  0  0  0
  9 22  1  0  0  0  0
 10 21  2  0  0  0  0
 10  3  1  0  0  0  0
 11 28  1  6  0  0  0
 11  5  1  0  0  0  0
 12  4  1  0  0  0  0
 13 18  2  0  0  0  0
 15 23  1  0  0  0  0
 16  2  1  0  0  0  0
 17 26  1  0  0  0  0
 17  3  1  0  0  0  0
 19  2  2  0  0  0  0
 19 26  1  0  0  0  0
 20 22  1  0  0  0  0
 20 17  2  0  0  0  0
 22 10  1  0  0  0  0
 23 14  1  0  0  0  0
 25 18  1  0  0  0  0
 26 25  2  0  0  0  0
 27  7  1  0  0  0  0
 27 12  1  0  0  0  0
 27 24  1  1  0  0  0
 28 30  1  0  0  0  0
 29 30  1  0  0  0  0
M  END
>  <MODEL>
1

>  <REMARK>
 VINA RESULT:      -8.2      0.000      0.000
  Name = 
  2 active torsions:
  status: ('A' for Active; 'I' for Inactive)
    1  A    between atoms: C_11  and  C_28
    2  A    between atoms: C_28  and  O_30
                            x       y       z     vdW  Elec       q    Type
                         _______ _______ _______ _____ _____    ______ ____

>  <TORSDO>
F 2

$$$$
=
 OpenBabel11112416213D

 30 35  0  0  1  0  0  0  0  0999 V2000
  187.6770  176.4560  143.4940 C   0  0  0  0  0  0  0  0  0  0  0  0
  185.4510  177.5510  143.6840 C   0  0  0  0  0  0  0  0  0  0  0  0
  188.7590  177.6890  147.2630 N   0  0  0  0  0  2  0  0  0  0  0  0
  188.9170  176.0940  144.0770 C   0  0  0  0  0  0  0  0  0  0  0  0
  187.4130  176.0460  142.1870 O   0  0  0  0  0  0  0  0  0  0  0  0
  190.5740  174.5280  141.2630 O   0  0  0  0  0  1  0  0  0  0  0  0
  191.9250  175.2950  144.5030 C   0  0  1  0  0  3  0  0  0  0  0  0
  189.4150  174.6790  142.0300 C   0  0  2  0  0  3  0  0  0  0  0  0
  191.7070  176.0780  145.7910 C   0  0  2  0  0  3  0  0  0  0  0  0
  190.0080  177.1770  147.2520 C   0  0  0  0  0  0  0  0  0  0  0  0
  188.4610  175.6370  141.3170 C   0  0  1  0  0  3  0  0  0  0  0  0
  189.7620  175.1540  143.3770 N   0  0  0  0  0  0  0  0  0  0  0  0
  184.5430  178.2940  144.4440 C   0  0  0  0  0  3  0  0  0  0  0  0
  192.3450  175.2450  146.8850 C   0  0  0  0  0  2  0  0  0  0  0  0
  193.1670  174.4520  144.7390 C   0  0  0  0  0  2  0  0  0  0  0  0
  185.0760  177.1660  142.4030 O   0  0  0  0  0  1  0  0  0  0  0  0
  188.2770  177.3150  146.0670 C   0  0  0  0  0  0  0  0  0  0  0  0
  184.8660  178.7070  145.7370 C   0  0  0  0  0  3  0  0  0  0  0  0
  186.7150  177.2070  144.2240 C   0  0  0  0  0  0  0  0  0  0  0  0
  189.2080  176.5900  145.3660 C   0  0  0  0  0  0  0  0  0  0  0  0
  190.8160  177.3660  148.2000 O   0  0  0  0  0  0  0  0  0  0  0  0
  190.3290  176.4850  146.1250 N   0  0  0  0  0  0  0  0  0  0  0  0
  193.5170  174.5610  146.2150 C   0  0  0  0  0  2  0  0  0  0  0  0
  190.0830  173.3480  145.3650 Cl  0  0  0  0  0  0  0  0  0  0  0  0
  186.1040  178.3810  146.2850 C   0  0  0  0  0  3  0  0  0  0  0  0
  187.0270  177.6360  145.5430 C   0  0  0  0  0  0  0  0  0  0  0  0
  190.7790  174.3900  144.0810 C   0  0  2  0  0  3  0  0  0  0  0  0
  187.8780  175.0070  140.0600 C   0  0  0  0  0  2  0  0  0  0  0  0
  188.2060  173.3500  138.6390 C   0  0  0  0  0  1  0  0  0  0  0  0
  188.1910  173.6470  140.0010 O   0  0  0  0  0  0  0  0  0  0  0  0
  1  4  2  0  0  0  0
  1 19  1  0  0  0  0
  2 19  2  0  0  0  0
  2 13  1  0  0  0  0
  4 20  1  0  0  0  0
  5  1  1  0  0  0  0
  7 15  1  1  0  0  0
  7  9  1  0  0  0  0
  8  6  1  6  0  0  0
  8 12  1  0  0  0  0
  9 22  1  0  0  0  0
  9 14  1  1  0  0  0
 10  3  1  0  0  0  0
 10 21  2  0  0  0  0
 11 28  1  6  0  0  0
 11  8  1  0  0  0  0
 11  5  1  0  0  0  0
 12  4  1  0  0  0  0
 12 27  1  0  0  0  0
 13 18  2  0  0  0  0
 15 23  1  0  0  0  0
 16  2  1  0  0  0  0
 17  3  1  0  0  0  0
 18 25  1  0  0  0  0
 19 26  1  0  0  0  0
 20 17  2  0  0  0  0
 20 22  1  0  0  0  0
 22 10  1  0  0  0  0
 23 14  1  0  0  0  0
 26 17  1  0  0  0  0
 26 25  2  0  0  0  0
 27  7  1  0  0  0  0
 27 24  1  1  0  0  0
 29 30  1  0  0  0  0
 30 28  1  0  0  0  0
M  END
>  <MODEL>
2

>  <REMARK>
 VINA RESULT:      -8.0      2.184      3.377
  Name = 
  2 active torsions:
  status: ('A' for Active; 'I' for Inactive)
    1  A    between atoms: C_11  and  C_28
    2  A    between atoms: C_28  and  O_30
                            x       y       z     vdW  Elec       q    Type
                         _______ _______ _______ _____ _____    ______ ____

>  <TORSDO>
F 2

$$$$
=
 OpenBabel11112416213D

 30 35  0  0  1  0  0  0  0  0999 V2000
  187.5800  176.8980  144.3110 C   0  0  0  0  0  0  0  0  0  0  0  0
  185.4680  177.9860  145.0520 C   0  0  0  0  0  0  0  0  0  0  0  0
  189.3440  177.5160  147.9720 N   0  0  0  0  0  2  0  0  0  0  0  0
  188.8840  176.4310  144.6060 C   0  0  0  0  0  0  0  0  0  0  0  0
  187.0780  176.7000  143.0240 O   0  0  0  0  0  0  0  0  0  0  0  0
  189.9660  175.2940  141.3410 O   0  0  0  0  0  1  0  0  0  0  0  0
  191.8840  175.5290  144.3710 C   0  0  1  0  0  3  0  0  0  0  0  0
  188.9630  175.3430  142.3140 C   0  0  2  0  0  3  0  0  0  0  0  0
  191.9240  176.1070  145.7790 C   0  0  2  0  0  3  0  0  0  0  0  0
  190.5490  176.9920  147.6650 C   0  0  0  0  0  0  0  0  0  0  0  0
  187.9430  176.4150  141.9320 C   0  0  1  0  0  3  0  0  0  0  0  0
  189.5560  175.5980  143.6350 N   0  0  0  0  0  0  0  0  0  0  0  0
  184.7360  178.6160  146.0630 C   0  0  0  0  0  3  0  0  0  0  0  0
  192.7040  175.1040  146.6060 C   0  0  0  0  0  2  0  0  0  0  0  0
  193.1120  174.6400  144.2550 C   0  0  0  0  0  2  0  0  0  0  0  0
  184.8630  177.8090  143.8140 O   0  0  0  0  0  1  0  0  0  0  0  0
  188.6480  177.3390  146.8370 C   0  0  0  0  0  0  0  0  0  0  0  0
  185.2930  178.8190  147.3250 C   0  0  0  0  0  3  0  0  0  0  0  0
  186.7890  177.5430  145.3030 C   0  0  0  0  0  0  0  0  0  0  0  0
  189.4130  176.7170  145.8830 C   0  0  0  0  0  0  0  0  0  0  0  0
  191.5160  177.0200  148.4730 O   0  0  0  0  0  0  0  0  0  0  0  0
  190.6420  176.4780  146.4080 N   0  0  0  0  0  0  0  0  0  0  0  0
  193.7130  174.5140  145.6460 C   0  0  0  0  0  2  0  0  0  0  0  0
  190.1360  173.5010  145.2420 Cl  0  0  0  0  0  0  0  0  0  0  0  0
  186.5920  178.3920  147.5910 C   0  0  0  0  0  3  0  0  0  0  0  0
  187.3410  177.7570  146.5950 C   0  0  0  0  0  0  0  0  0  0  0  0
  190.6460  174.7180  144.0260 C   0  0  2  0  0  3  0  0  0  0  0  0
  187.1260  175.9960  140.7170 C   0  0  0  0  0  2  0  0  0  0  0  0
  185.8090  177.6800  140.1700 C   0  0  0  0  0  1  0  0  0  0  0  0
  187.0050  177.0580  139.8170 O   0  0  0  0  0  0  0  0  0  0  0  0
  1  4  2  0  0  0  0
  1 19  1  0  0  0  0
  2 19  2  0  0  0  0
  2 13  1  0  0  0  0
  4 20  1  0  0  0  0
  5  1  1  0  0  0  0
  7 15  1  1  0  0  0
  7  9  1  0  0  0  0
  8  6  1  6  0  0  0
  8 12  1  0  0  0  0
  9 22  1  0  0  0  0
  9 14  1  1  0  0  0
 10  3  1  0  0  0  0
 10 21  2  0  0  0  0
 11 28  1  6  0  0  0
 11  8  1  0  0  0  0
 11  5  1  0  0  0  0
 12 27  1  0  0  0  0
 12  4  1  0  0  0  0
 13 18  2  0  0  0  0
 15 23  1  0  0  0  0
 16  2  1  0  0  0  0
 17  3  1  0  0  0  0
 18 25  1  0  0  0  0
 19 26  1  0  0  0  0
 20 22  1  0  0  0  0
 20 17  2  0  0  0  0
 22 10  1  0  0  0  0
 23 14  1  0  0  0  0
 26 17  1  0  0  0  0
 26 25  2  0  0  0  0
 27  7  1  0  0  0  0
 27 24  1  1  0  0  0
 30 29  1  0  0  0  0
 30 28  1  0  0  0  0
M  END
>  <MODEL>
3

>  <REMARK>
 VINA RESULT:      -7.8      1.996      2.702
  Name = 
  2 active torsions:
  status: ('A' for Active; 'I' for Inactive)
    1  A    between atoms: C_11  and  C_28
    2  A    between atoms: C_28  and  O_30
                            x       y       z     vdW  Elec       q    Type
                         _______ _______ _______ _____ _____    ______ ____

>  <TORSDO>
F 2

$$$$
=
 OpenBabel11112416213D

 30 35  0  0  1  0  0  0  0  0999 V2000
  188.4760  175.9500  143.7430 C   0  0  0  0  0  0  0  0  0  0  0  0
  186.2110  176.8160  144.3020 C   0  0  0  0  0  0  0  0  0  0  0  0
  189.9860  177.1660  147.3680 N   0  0  0  0  0  2  0  0  0  0  0  0
  189.8160  175.6930  144.1240 C   0  0  0  0  0  0  0  0  0  0  0  0
  188.0600  175.5570  142.4700 O   0  0  0  0  0  0  0  0  0  0  0  0
  191.1750  174.3850  141.0330 O   0  0  0  0  0  1  0  0  0  0  0  0
  192.9140  175.1800  144.0750 C   0  0  1  0  0  3  0  0  0  0  0  0
  190.1330  174.3980  141.9650 C   0  0  2  0  0  3  0  0  0  0  0  0
  192.8190  175.8980  145.4140 C   0  0  2  0  0  3  0  0  0  0  0  0
  191.2610  176.7790  147.1540 C   0  0  0  0  0  0  0  0  0  0  0  0
  189.0000  175.2800  141.4410 C   0  0  1  0  0  3  0  0  0  0  0  0
  190.6310  174.8620  143.2680 N   0  0  0  0  0  0  0  0  0  0  0  0
  185.3600  177.4420  145.2180 C   0  0  0  0  0  3  0  0  0  0  0  0
  193.6850  175.0970  146.3660 C   0  0  0  0  0  2  0  0  0  0  0  0
  194.2500  174.4550  144.0900 C   0  0  0  0  0  2  0  0  0  0  0  0
  185.6870  176.4360  143.0720 O   0  0  0  0  0  1  0  0  0  0  0  0
  189.3680  176.7840  146.2380 C   0  0  0  0  0  0  0  0  0  0  0  0
  185.8310  177.8450  146.4670 C   0  0  0  0  0  3  0  0  0  0  0  0
  187.5660  176.5810  144.6370 C   0  0  0  0  0  0  0  0  0  0  0  0
  190.2480  176.1760  145.3780 C   0  0  0  0  0  0  0  0  0  0  0  0
  192.1800  177.0170  147.9820 O   0  0  0  0  0  0  0  0  0  0  0  0
  191.4740  176.1570  145.9620 N   0  0  0  0  0  0  0  0  0  0  0  0
  194.8030  174.5520  145.5040 C   0  0  0  0  0  2  0  0  0  0  0  0
  191.4080  173.0360  145.1050 Cl  0  0  0  0  0  0  0  0  0  0  0  0
  187.1620  177.6250  146.8160 C   0  0  0  0  0  3  0  0  0  0  0  0
  188.0290  176.9970  145.9150 C   0  0  0  0  0  0  0  0  0  0  0  0
  191.8070  174.1800  143.7820 C   0  0  2  0  0  3  0  0  0  0  0  0
  188.2980  174.6350  140.2540 C   0  0  0  0  0  2  0  0  0  0  0  0
  188.2560  172.7250  139.1500 C   0  0  0  0  0  1  0  0  0  0  0  0
  188.1920  173.2550  140.4370 O   0  0  0  0  0  0  0  0  0  0  0  0
  1  4  2  0  0  0  0
  1 19  1  0  0  0  0
  2 19  2  0  0  0  0
  2 13  1  0  0  0  0
  4 20  1  0  0  0  0
  5  1  1  0  0  0  0
  7 15  1  1  0  0  0
  7  9  1  0  0  0  0
  8  6  1  6  0  0  0
  8 12  1  0  0  0  0
  9 22  1  0  0  0  0
  9 14  1  1  0  0  0
 10  3  1  0  0  0  0
 10 21  2  0  0  0  0
 11 28  1  6  0  0  0
 11  8  1  0  0  0  0
 11  5  1  0  0  0  0
 12 27  1  0  0  0  0
 12  4  1  0  0  0  0
 13 18  2  0  0  0  0
 15 23  1  0  0  0  0
 16  2  1  0  0  0  0
 17  3  1  0  0  0  0
 18 25  1  0  0  0  0
 19 26  1  0  0  0  0
 20 22  1  0  0  0  0
 20 17  2  0  0  0  0
 22 10  1  0  0  0  0
 23 14  1  0  0  0  0
 26 17  1  0  0  0  0
 26 25  2  0  0  0  0
 27  7  1  0  0  0  0
 27 24  1  1  0  0  0
 28 30  1  0  0  0  0
 29 30  1  0  0  0  0
M  END
>  <MODEL>
4

>  <REMARK>
 VINA RESULT:      -7.7      2.566      3.762
  Name = 
  2 active torsions:
  status: ('A' for Active; 'I' for Inactive)
    1  A    between atoms: C_11  and  C_28
    2  A    between atoms: C_28  and  O_30
                            x       y       z     vdW  Elec       q    Type
                         _______ _______ _______ _____ _____    ______ ____

>  <TORSDO>
F 2

$$$$
=
 OpenBabel11112416213D

 30 35  0  0  1  0  0  0  0  0999 V2000
  189.6600  175.2660  143.9070 C   0  0  0  0  0  0  0  0  0  0  0  0
  190.9530  173.5230  142.6900 C   0  0  0  0  0  0  0  0  0  0  0  0
  187.3950  176.1060  140.5810 N   0  0  0  0  0  2  0  0  0  0  0  0
  188.6070  176.2130  143.9340 C   0  0  0  0  0  0  0  0  0  0  0  0
  190.4200  175.0850  145.0630 O   0  0  0  0  0  0  0  0  0  0  0  0
  189.0710  177.6720  147.2160 O   0  0  0  0  0  1  0  0  0  0  0  0
  186.8000  178.6890  144.6240 C   0  0  1  0  0  3  0  0  0  0  0  0
  189.0100  176.5240  146.4200 C   0  0  2  0  0  3  0  0  0  0  0  0
  186.4480  178.5470  143.1490 C   0  0  2  0  0  3  0  0  0  0  0  0
  186.6660  177.1020  141.1250 C   0  0  0  0  0  0  0  0  0  0  0  0
  190.4300  176.0590  146.0990 C   0  0  1  0  0  3  0  0  0  0  0  0
  188.2350  176.7980  145.2020 N   0  0  0  0  0  0  0  0  0  0  0  0
  191.1810  172.8050  141.5120 C   0  0  0  0  0  3  0  0  0  0  0  0
  184.9420  178.7000  143.0750 C   0  0  0  0  0  2  0  0  0  0  0  0
  185.6920  179.5330  145.2320 C   0  0  0  0  0  2  0  0  0  0  0  0
  191.7460  173.2430  143.7950 O   0  0  0  0  0  1  0  0  0  0  0  0
  188.1720  175.7150  141.6050 C   0  0  0  0  0  0  0  0  0  0  0  0
  190.4150  173.0450  140.3720 C   0  0  0  0  0  3  0  0  0  0  0  0
  189.9330  174.5050  142.7370 C   0  0  0  0  0  0  0  0  0  0  0  0
  187.9050  176.4510  142.7320 C   0  0  0  0  0  0  0  0  0  0  0  0
  185.8410  177.7730  140.4490 O   0  0  0  0  0  0  0  0  0  0  0  0
  186.9260  177.3460  142.4390 N   0  0  0  0  0  0  0  0  0  0  0  0
  184.5980  179.6690  144.1860 C   0  0  0  0  0  2  0  0  0  0  0  0
  185.5980  176.2000  145.1590 Cl  0  0  0  0  0  0  0  0  0  0  0  0
  189.4080  174.0080  140.3970 C   0  0  0  0  0  3  0  0  0  0  0  0
  189.1610  174.7360  141.5660 C   0  0  0  0  0  0  0  0  0  0  0  0
  186.9210  177.3880  145.4000 C   0  0  2  0  0  3  0  0  0  0  0  0
  191.1240  175.5010  147.3330 C   0  0  0  0  0  2  0  0  0  0  0  0
  193.0980  176.3400  146.8110 C   0  0  0  0  0  1  0  0  0  0  0  0
  192.4380  175.1320  147.0330 O   0  0  0  0  0  0  0  0  0  0  0  0
  1  4  1  0  0  0  0
  1  5  1  0  0  0  0
  2 19  1  0  0  0  0
  2 16  1  0  0  0  0
  3 10  1  0  0  0  0
  3 17  1  0  0  0  0
  4 12  1  0  0  0  0
  5 11  1  0  0  0  0
  7 15  1  1  0  0  0
  7 27  1  0  0  0  0
  8  6  1  1  0  0  0
  9 14  1  1  0  0  0
  9  7  1  0  0  0  0
 10 22  1  0  0  0  0
 11  8  1  0  0  0  0
 11 28  1  1  0  0  0
 12 27  1  0  0  0  0
 12  8  1  0  0  0  0
 13  2  2  0  0  0  0
 14 23  1  0  0  0  0
 17 20  1  0  0  0  0
 18 25  2  0  0  0  0
 18 13  1  0  0  0  0
 19  1  2  0  0  0  0
 20  4  2  0  0  0  0
 21 10  2  0  0  0  0
 22 20  1  0  0  0  0
 22  9  1  0  0  0  0
 23 15  1  0  0  0  0
 25 26  1  0  0  0  0
 26 17  2  0  0  0  0
 26 19  1  0  0  0  0
 27 24  1  6  0  0  0
 29 30  1  0  0  0  0
 30 28  1  0  0  0  0
M  END
>  <MODEL>
5

>  <REMARK>
 VINA RESULT:      -7.7      1.974      7.254
  Name = 
  2 active torsions:
  status: ('A' for Active; 'I' for Inactive)
    1  A    between atoms: C_11  and  C_28
    2  A    between atoms: C_28  and  O_30
                            x       y       z     vdW  Elec       q    Type
                         _______ _______ _______ _____ _____    ______ ____

>  <TORSDO>
F 2

$$$$
=
 OpenBabel11112416213D

 30 35  0  0  1  0  0  0  0  0999 V2000
  186.3990  177.0860  144.0830 C   0  0  0  0  0  0  0  0  0  0  0  0
  184.5710  178.3470  142.9610 C   0  0  0  0  0  0  0  0  0  0  0  0
  187.8160  175.6750  140.4920 N   0  0  0  0  0  2  0  0  0  0  0  0
  187.5600  176.2790  143.9980 C   0  0  0  0  0  0  0  0  0  0  0  0
  185.9500  177.4720  145.3460 O   0  0  0  0  0  0  0  0  0  0  0  0
  188.2130  175.6330  147.5010 O   0  0  0  0  0  1  0  0  0  0  0  0
  189.8560  174.2310  144.6300 C   0  0  1  0  0  3  0  0  0  0  0  0
  187.8780  176.5500  146.5010 C   0  0  2  0  0  3  0  0  0  0  0  0
  189.7820  174.0390  143.1210 C   0  0  2  0  0  3  0  0  0  0  0  0
  188.8130  174.9160  140.9940 C   0  0  0  0  0  0  0  0  0  0  0  0
  186.3680  176.7850  146.5190 C   0  0  1  0  0  3  0  0  0  0  0  0
  188.3400  176.0600  145.1940 N   0  0  0  0  0  0  0  0  0  0  0  0
  183.9300  178.7290  141.7790 C   0  0  0  0  0  3  0  0  0  0  0  0
  191.2200  174.0150  142.6440 C   0  0  0  0  0  2  0  0  0  0  0  0
  191.2050  173.6700  145.0500 C   0  0  0  0  0  2  0  0  0  0  0  0
  184.0600  178.8130  144.1660 O   0  0  0  0  0  1  0  0  0  0  0  0
  187.2840  176.2290  141.5930 C   0  0  0  0  0  0  0  0  0  0  0  0
  184.3980  178.2910  140.5400 C   0  0  0  0  0  3  0  0  0  0  0  0
  185.7100  177.5080  142.9120 C   0  0  0  0  0  0  0  0  0  0  0  0
  187.9510  175.8210  142.7210 C   0  0  0  0  0  0  0  0  0  0  0  0
  189.5270  174.1810  140.2620 O   0  0  0  0  0  0  0  0  0  0  0  0
  188.9480  174.9780  142.3470 N   0  0  0  0  0  0  0  0  0  0  0  0
  191.9940  173.3850  143.7820 C   0  0  0  0  0  2  0  0  0  0  0  0
  190.7420  176.8770  144.2590 Cl  0  0  0  0  0  0  0  0  0  0  0  0
  185.5160  177.4630  140.4710 C   0  0  0  0  0  3  0  0  0  0  0  0
  186.1750  177.0710  141.6410 C   0  0  0  0  0  0  0  0  0  0  0  0
  189.7370  175.6650  145.1180 C   0  0  2  0  0  3  0  0  0  0  0  0
  185.9410  177.5610  147.7570 C   0  0  0  0  0  2  0  0  0  0  0  0
  186.3160  179.7210  148.0130 C   0  0  0  0  0  1  0  0  0  0  0  0
  185.4470  178.8190  147.4020 O   0  0  0  0  0  0  0  0  0  0  0  0
  1  5  1  0  0  0  0
  2 16  1  0  0  0  0
  3 10  1  0  0  0  0
  3 17  1  0  0  0  0
  4  1  1  0  0  0  0
  4 12  1  0  0  0  0
  5 11  1  0  0  0  0
  7 15  1  6  0  0  0
  7 27  1  0  0  0  0
  8 11  1  0  0  0  0
  8  6  1  1  0  0  0
  9 14  1  6  0  0  0
  9  7  1  0  0  0  0
 10 22  1  0  0  0  0
 11 28  1  1  0  0  0
 12  8  1  0  0  0  0
 13  2  2  0  0  0  0
 14 23  1  0  0  0  0
 17 26  2  0  0  0  0
 17 20  1  0  0  0  0
 18 13  1  0  0  0  0
 19  2  1  0  0  0  0
 19  1  2  0  0  0  0
 20  4  2  0  0  0  0
 21 10  2  0  0  0  0
 22 20  1  0  0  0  0
 22  9  1  0  0  0  0
 23 15  1  0  0  0  0
 25 18  2  0  0  0  0
 25 26  1  0  0  0  0
 26 19  1  0  0  0  0
 27 24  1  6  0  0  0
 27 12  1  0  0  0  0
 30 28  1  0  0  0  0
 30 29  1  0  0  0  0
M  END
>  <MODEL>
6

>  <REMARK>
 VINA RESULT:      -7.6      1.824      4.711
  Name = 
  2 active torsions:
  status: ('A' for Active; 'I' for Inactive)
    1  A    between atoms: C_11  and  C_28
    2  A    between atoms: C_28  and  O_30
                            x       y       z     vdW  Elec       q    Type
                         _______ _______ _______ _____ _____    ______ ____

>  <TORSDO>
F 2

$$$$
=
 OpenBabel11112416213D

 30 35  0  0  1  0  0  0  0  0999 V2000
  188.2300  175.6640  141.2990 C   0  0  0  0  0  0  0  0  0  0  0  0
  188.2820  174.4500  139.1270 C   0  0  0  0  0  0  0  0  0  0  0  0
  191.1480  173.2400  142.8810 N   0  0  0  0  0  2  0  0  0  0  0  0
  188.7500  175.8650  142.6010 C   0  0  0  0  0  0  0  0  0  0  0  0
  187.1970  176.4940  140.8600 O   0  0  0  0  0  0  0  0  0  0  0  0
  186.5050  178.4140  143.8570 O   0  0  0  0  0  1  0  0  0  0  0  0
  189.0680  176.6280  145.6310 C   0  0  1  0  0  3  0  0  0  0  0  0
  187.3000  177.9380  142.8110 C   0  0  2  0  0  3  0  0  0  0  0  0
  190.0070  175.4290  145.5930 C   0  0  2  0  0  3  0  0  0  0  0  0
  191.1710  173.7920  144.1120 C   0  0  0  0  0  0  0  0  0  0  0  0
  186.4120  177.2420  141.7800 C   0  0  1  0  0  3  0  0  0  0  0  0
  188.3360  177.0370  143.3370 N   0  0  0  0  0  0  0  0  0  0  0  0
  188.8290  173.4370  138.3340 C   0  0  0  0  0  3  0  0  0  0  0  0
  191.2410  175.8560  146.3620 C   0  0  0  0  0  2  0  0  0  0  0  0
  189.4390  177.4010  146.8870 C   0  0  0  0  0  2  0  0  0  0  0  0
  187.2780  175.2420  138.5830 O   0  0  0  0  0  1  0  0  0  0  0  0
  190.2320  173.9860  142.2410 C   0  0  0  0  0  0  0  0  0  0  0  0
  189.8390  172.6120  138.8290 C   0  0  0  0  0  3  0  0  0  0  0  0
  188.7520  174.6510  140.4480 C   0  0  0  0  0  0  0  0  0  0  0  0
  189.7310  174.9620  143.0640 C   0  0  0  0  0  0  0  0  0  0  0  0
  191.8840  173.3250  145.0400 O   0  0  0  0  0  0  0  0  0  0  0  0
  190.3370  174.8540  144.2750 N   0  0  0  0  0  0  0  0  0  0  0  0
  190.7250  176.7970  147.4290 C   0  0  0  0  0  2  0  0  0  0  0  0
  190.7840  178.0390  143.9020 Cl  0  0  0  0  0  0  0  0  0  0  0  0
  190.3140  172.7920  140.1250 C   0  0  0  0  0  3  0  0  0  0  0  0
  189.7830  173.8020  140.9350 C   0  0  0  0  0  0  0  0  0  0  0  0
  189.1380  177.5580  144.4320 C   0  0  2  0  0  3  0  0  0  0  0  0
  185.5430  178.2420  141.0300 C   0  0  0  0  0  2  0  0  0  0  0  0
  183.4290  178.2180  140.3990 C   0  0  0  0  0  1  0  0  0  0  0  0
  184.2400  178.2340  141.5320 O   0  0  0  0  0  0  0  0  0  0  0  0
  1  4  1  0  0  0  0
  2 19  1  0  0  0  0
  3 10  1  0  0  0  0
  4 20  2  0  0  0  0
  4 12  1  0  0  0  0
  5  1  1  0  0  0  0
  5 11  1  0  0  0  0
  7 15  1  1  0  0  0
  8 12  1  0  0  0  0
  8  6  1  1  0  0  0
  9  7  1  0  0  0  0
  9 14  1  6  0  0  0
 10 22  1  0  0  0  0
 10 21  2  0  0  0  0
 11 28  1  6  0  0  0
 11  8  1  0  0  0  0
 12 27  1  0  0  0  0
 13 18  1  0  0  0  0
 13  2  2  0  0  0  0
 14 23  1  0  0  0  0
 15 23  1  0  0  0  0
 16  2  1  0  0  0  0
 17  3  1  0  0  0  0
 17 20  1  0  0  0  0
 18 25  2  0  0  0  0
 19 26  1  0  0  0  0
 19  1  2  0  0  0  0
 20 22  1  0  0  0  0
 22  9  1  0  0  0  0
 25 26  1  0  0  0  0
 26 17  2  0  0  0  0
 27 24  1  6  0  0  0
 27  7  1  0  0  0  0
 28 30  1  0  0  0  0
 29 30  1  0  0  0  0
M  END
>  <MODEL>
7

>  <REMARK>
 VINA RESULT:      -7.6      2.318      5.297
  Name = 
  2 active torsions:
  status: ('A' for Active; 'I' for Inactive)
    1  A    between atoms: C_11  and  C_28
    2  A    between atoms: C_28  and  O_30
                            x       y       z     vdW  Elec       q    Type
                         _______ _______ _______ _____ _____    ______ ____

>  <TORSDO>
F 2

$$$$
=
 OpenBabel11112416213D

 30 35  0  0  1  0  0  0  0  0999 V2000
  189.9140  175.2940  144.1340 C   0  0  0  0  0  0  0  0  0  0  0  0
  191.8210  174.7610  145.6410 C   0  0  0  0  0  0  0  0  0  0  0  0
  188.0720  177.5500  147.0340 N   0  0  0  0  0  2  0  0  0  0  0  0
  188.7030  175.9880  143.8910 C   0  0  0  0  0  0  0  0  0  0  0  0
  190.4410  174.5010  143.1130 O   0  0  0  0  0  0  0  0  0  0  0  0
  187.8210  174.7160  140.6160 O   0  0  0  0  0  1  0  0  0  0  0  0
  185.8900  176.8370  142.7800 C   0  0  1  0  0  3  0  0  0  0  0  0
  188.8030  175.2240  141.4730 C   0  0  2  0  0  3  0  0  0  0  0  0
  185.7560  177.3830  144.1960 C   0  0  2  0  0  3  0  0  0  0  0  0
  186.9680  177.8630  146.3240 C   0  0  0  0  0  0  0  0  0  0  0  0
  189.6350  174.0670  142.0260 C   0  0  1  0  0  3  0  0  0  0  0  0
  188.1760  176.0090  142.5450 N   0  0  0  0  0  0  0  0  0  0  0  0
  192.4410  174.9060  146.8850 C   0  0  0  0  0  3  0  0  0  0  0  0
  185.1500  178.7640  144.0420 C   0  0  0  0  0  2  0  0  0  0  0  0
  184.8230  177.5470  141.9620 C   0  0  0  0  0  2  0  0  0  0  0  0
  192.4470  173.9740  144.6820 O   0  0  0  0  0  1  0  0  0  0  0  0
  188.7880  176.8220  146.1620 C   0  0  0  0  0  0  0  0  0  0  0  0
  191.8570  175.6850  147.8850 C   0  0  0  0  0  3  0  0  0  0  0  0
  190.5890  175.4100  145.3810 C   0  0  0  0  0  0  0  0  0  0  0  0
  188.1340  176.7130  144.9600 C   0  0  0  0  0  0  0  0  0  0  0  0
  186.0100  178.5080  146.8270 O   0  0  0  0  0  0  0  0  0  0  0  0
  186.9600  177.3900  145.0480 N   0  0  0  0  0  0  0  0  0  0  0  0
  184.2500  178.6570  142.8300 C   0  0  0  0  0  2  0  0  0  0  0  0
  187.9440  178.6880  142.2500 Cl  0  0  0  0  0  0  0  0  0  0  0  0
  190.6450  176.3300  147.6500 C   0  0  0  0  0  3  0  0  0  0  0  0
  190.0100  176.2000  146.4100 C   0  0  0  0  0  0  0  0  0  0  0  0
  187.2440  177.0410  142.1200 C   0  0  2  0  0  3  0  0  0  0  0  0
  190.5090  173.4460  140.9460 C   0  0  0  0  0  2  0  0  0  0  0  0
  190.7860  171.2630  141.1180 C   0  0  0  0  0  1  0  0  0  0  0  0
  189.9740  172.2270  140.5230 O   0  0  0  0  0  0  0  0  0  0  0  0
  1 19  1  0  0  0  0
  2 13  1  0  0  0  0
  4  1  2  0  0  0  0
  4 20  1  0  0  0  0
  5  1  1  0  0  0  0
  7 15  1  6  0  0  0
  7  9  1  0  0  0  0
  8  6  1  6  0  0  0
  8 11  1  0  0  0  0
  8 12  1  0  0  0  0
  9 14  1  6  0  0  0
  9 22  1  0  0  0  0
 10 21  2  0  0  0  0
 10  3  1  0  0  0  0
 11 28  1  6  0  0  0
 11  5  1  0  0  0  0
 12  4  1  0  0  0  0
 13 18  2  0  0  0  0
 15 23  1  0  0  0  0
 16  2  1  0  0  0  0
 17 26  1  0  0  0  0
 17  3  1  0  0  0  0
 19  2  2  0  0  0  0
 19 26  1  0  0  0  0
 20 22  1  0  0  0  0
 20 17  2  0  0  0  0
 22 10  1  0  0  0  0
 23 14  1  0  0  0  0
 25 18  1  0  0  0  0
 26 25  2  0  0  0  0
 27 24  1  1  0  0  0
 27 12  1  0  0  0  0
 27  7  1  0  0  0  0
 30 28  1  0  0  0  0
 30 29  1  0  0  0  0
M  END
>  <MODEL>
8

>  <REMARK>
 VINA RESULT:      -7.5      2.295      5.829
  Name = 
  2 active torsions:
  status: ('A' for Active; 'I' for Inactive)
    1  A    between atoms: C_11  and  C_28
    2  A    between atoms: C_28  and  O_30
                            x       y       z     vdW  Elec       q    Type
                         _______ _______ _______ _____ _____    ______ ____

>  <TORSDO>
F 2

$$$$
=
 OpenBabel11112416213D

 30 35  0  0  1  0  0  0  0  0999 V2000
  191.7560  174.7700  143.3990 C   0  0  0  0  0  0  0  0  0  0  0  0
  194.0830  174.4350  144.2130 C   0  0  0  0  0  0  0  0  0  0  0  0
  190.7720  176.9990  146.7090 N   0  0  0  0  0  2  0  0  0  0  0  0
  190.4800  175.3640  143.5530 C   0  0  0  0  0  0  0  0  0  0  0  0
  191.9890  173.9780  142.2740 O   0  0  0  0  0  0  0  0  0  0  0  0
  188.6950  173.9060  140.7590 O   0  0  0  0  0  1  0  0  0  0  0  0
  187.4000  175.9650  143.4030 C   0  0  1  0  0  3  0  0  0  0  0  0
  189.8560  174.5160  141.2440 C   0  0  2  0  0  3  0  0  0  0  0  0
  187.6860  176.5550  144.7780 C   0  0  2  0  0  3  0  0  0  0  0  0
  189.4760  177.2040  146.3910 C   0  0  0  0  0  0  0  0  0  0  0  0
  190.9130  173.4440  141.5130 C   0  0  1  0  0  3  0  0  0  0  0  0
  189.5470  175.2950  142.4510 N   0  0  0  0  0  0  0  0  0  0  0  0
  195.0580  174.6730  145.1880 C   0  0  0  0  0  3  0  0  0  0  0  0
  186.9530  177.8810  144.8110 C   0  0  0  0  0  2  0  0  0  0  0  0
  186.0730  176.5640  142.9660 C   0  0  0  0  0  2  0  0  0  0  0  0
  194.4280  173.6570  143.1150 O   0  0  0  0  0  1  0  0  0  0  0  0
  191.2250  176.2910  145.6620 C   0  0  0  0  0  0  0  0  0  0  0  0
  194.7670  175.4460  146.3110 C   0  0  0  0  0  3  0  0  0  0  0  0
  192.7850  174.9820  144.3580 C   0  0  0  0  0  0  0  0  0  0  0  0
  190.2290  176.0880  144.7390 C   0  0  0  0  0  0  0  0  0  0  0  0
  188.6830  177.7980  147.1690 O   0  0  0  0  0  0  0  0  0  0  0  0
  189.0960  176.6820  145.1930 N   0  0  0  0  0  0  0  0  0  0  0  0
  185.7220  177.6630  143.9570 C   0  0  0  0  0  2  0  0  0  0  0  0
  189.0170  177.9360  142.2100 Cl  0  0  0  0  0  0  0  0  0  0  0  0
  193.4960  175.9920  146.4730 C   0  0  0  0  0  3  0  0  0  0  0  0
  192.5070  175.7690  145.5080 C   0  0  0  0  0  0  0  0  0  0  0  0
  188.4480  176.2400  142.3370 C   0  0  2  0  0  3  0  0  0  0  0  0
  191.4390  172.8460  140.2160 C   0  0  0  0  0  2  0  0  0  0  0  0
  191.6380  173.3400  138.0750 C   0  0  0  0  0  1  0  0  0  0  0  0
  191.8710  173.8530  139.3500 O   0  0  0  0  0  0  0  0  0  0  0  0
  1  4  2  0  0  0  0
  1 19  1  0  0  0  0
  2 19  2  0  0  0  0
  2 13  1  0  0  0  0
  4 20  1  0  0  0  0
  5  1  1  0  0  0  0
  7 15  1  6  0  0  0
  7  9  1  0  0  0  0
  8  6  1  1  0  0  0
  8 11  1  0  0  0  0
  8 12  1  0  0  0  0
  9 14  1  6  0  0  0
  9 22  1  0  0  0  0
 10  3  1  0  0  0  0
 10 21  2  0  0  0  0
 11 28  1  6  0  0  0
 11  5  1  0  0  0  0
 12  4  1  0  0  0  0
 13 18  2  0  0  0  0
 15 23  1  0  0  0  0
 16  2  1  0  0  0  0
 17  3  1  0  0  0  0
 18 25  1  0  0  0  0
 19 26  1  0  0  0  0
 20 22  1  0  0  0  0
 20 17  2  0  0  0  0
 22 10  1  0  0  0  0
 23 14  1  0  0  0  0
 26 17  1  0  0  0  0
 26 25  2  0  0  0  0
 27 24  1  1  0  0  0
 27 12  1  0  0  0  0
 27  7  1  0  0  0  0
 29 30  1  0  0  0  0
 30 28  1  0  0  0  0
M  END
>  <MODEL>
9

>  <REMARK>
 VINA RESULT:      -7.3      2.941      6.520
  Name = 
  2 active torsions:
  status: ('A' for Active; 'I' for Inactive)
    1  A    between atoms: C_11  and  C_28
    2  A    between atoms: C_28  and  O_30
                            x       y       z     vdW  Elec       q    Type
                         _______ _______ _______ _____ _____    ______ ____

>  <TORSDO>
F 2

$$$$
