=
 OpenBabel11112416153D

 30 35  0  0  1  0  0  0  0  0999 V2000
  187.1950  177.0720  143.9830 C   0  0  1  0  0  3  0  0  0  0  0  0
  185.5330  178.3900  145.4070 C   0  0  0  0  0  0  0  0  0  0  0  0
  189.9360  177.0200  147.3490 C   0  0  0  0  0  2  0  0  0  0  0  0
  188.4800  176.2060  144.0360 C   0  0  1  0  0  3  0  0  0  0  0  0
  186.1710  176.3600  143.3300 O   0  0  0  0  0  0  0  0  0  0  0  0
  188.2830  175.2800  140.3790 C   0  0  0  0  0  1  0  0  0  0  0  0
  191.4270  175.9790  142.7380 C   0  0  1  0  0  3  0  0  0  0  0  0
  187.8850  175.4210  141.8470 C   0  0  2  0  0  3  0  0  0  0  0  0
  191.8580  176.2970  144.1710 C   0  0  2  0  0  3  0  0  0  0  0  0
  191.0670  176.4700  146.5640 C   0  0  0  0  0  0  0  0  0  0  0  0
  186.5520  176.1970  141.9760 C   0  0  2  0  0  3  0  0  0  0  0  0
  188.9620  176.0360  142.6540 N   0  0  2  0  0  0  0  0  0  0  0  0
  185.1820  178.9980  146.6130 C   0  0  0  0  0  3  0  0  0  0  0  0
  192.9410  175.2840  144.4850 C   0  0  0  0  0  2  0  0  0  0  0  0
  192.5850  175.2340  142.0940 C   0  0  0  0  0  2  0  0  0  0  0  0
  184.6870  178.5200  144.3120 O   0  0  0  0  0  1  0  0  0  0  0  0
  188.8270  176.8080  146.3490 C   0  0  2  0  0  3  0  0  0  0  0  0
  186.0360  178.8940  147.7120 C   0  0  0  0  0  3  0  0  0  0  0  0
  186.7330  177.6640  145.3100 C   0  0  0  0  0  0  0  0  0  0  0  0
  189.4710  176.9040  144.9780 C   0  0  1  0  0  3  0  0  0  0  0  0
  192.1970  176.2440  147.0720 O   0  0  0  0  0  0  0  0  0  0  0  0
  190.7800  176.2820  145.1710 N   0  0  0  0  0  0  0  0  0  0  0  0
  193.6390  175.0390  143.1680 C   0  0  0  0  0  2  0  0  0  0  0  0
  190.0620  173.8860  143.4330 C   0  0  0  0  0  1  0  0  0  0  0  0
  187.2090  178.2150  147.6040 N   0  0  0  0  0  0  0  0  0  0  0  0
  187.5860  177.6320  146.4340 C   0  0  0  0  0  0  0  0  0  0  0  0
  190.1430  175.1650  142.5880 C   0  0  2  0  0  3  0  0  0  0  0  0
  186.5360  177.5270  141.2130 C   0  0  0  0  0  2  0  0  0  0  0  0
  184.5250  178.2780  140.7110 C   0  0  0  0  0  1  0  0  0  0  0  0
  185.5630  177.4890  140.2160 O   0  0  0  0  0  0  0  0  0  0  0  0
  1  5  1  1  0  0  0
  1  4  1  0  0  0  0
  1 19  1  0  0  0  0
  2 13  1  0  0  0  0
  4 20  1  0  0  0  0
  6  8  1  0  0  0  0
  7  9  1  0  0  0  0
  8 11  1  0  0  0  0
  8 12  1  0  0  0  0
  9 14  1  0  0  0  0
  9 22  1  0  0  0  0
 10 21  2  0  0  0  0
 10  3  1  0  0  0  0
 11  5  1  0  0  0  0
 12  4  1  0  0  0  0
 13 18  2  0  0  0  0
 15  7  1  0  0  0  0
 15 23  1  0  0  0  0
 16  2  1  0  0  0  0
 17 26  1  0  0  0  0
 17  3  1  0  0  0  0
 19  2  2  0  0  0  0
 19 26  1  0  0  0  0
 20 22  1  0  0  0  0
 20 17  1  0  0  0  0
 22 10  1  0  0  0  0
 23 14  1  0  0  0  0
 25 18  1  0  0  0  0
 26 25  2  0  0  0  0
 27 12  1  0  0  0  0
 27  7  1  0  0  0  0
 27 24  1  0  0  0  0
 28 11  1  0  0  0  0
 30 29  1  0  0  0  0
 30 28  1  0  0  0  0
M  END
>  <MODEL>
1

>  <REMARK>
 VINA RESULT:      -8.0      0.000      0.000
  Name = 
  2 active torsions:
  status: ('A' for Active; 'I' for Inactive)
    1  A    between atoms: C_11  and  C_28
    2  A    between atoms: C_28  and  O_30
                            x       y       z     vdW  Elec       q    Type
                         _______ _______ _______ _____ _____    ______ ____

>  <TORSDO>
F 2

$$$$
=
 OpenBabel11112416153D

 30 35  0  0  1  0  0  0  0  0999 V2000
  187.5540  176.6190  143.7900 C   0  0  1  0  0  3  0  0  0  0  0  0
  185.4530  177.9830  144.2910 C   0  0  0  0  0  0  0  0  0  0  0  0
  189.0510  177.6000  147.7470 C   0  0  0  0  0  2  0  0  0  0  0  0
  188.7970  175.9500  144.4340 C   0  0  1  0  0  3  0  0  0  0  0  0
  186.8380  175.6660  143.0420 O   0  0  0  0  0  0  0  0  0  0  0  0
  189.8490  174.2780  141.2130 C   0  0  0  0  0  1  0  0  0  0  0  0
  192.0130  175.8320  144.1870 C   0  0  1  0  0  3  0  0  0  0  0  0
  188.9880  174.6650  142.4150 C   0  0  2  0  0  3  0  0  0  0  0  0
  191.9370  176.4870  145.5670 C   0  0  2  0  0  3  0  0  0  0  0  0
  190.4030  177.0460  147.4950 C   0  0  0  0  0  0  0  0  0  0  0  0
  187.6460  175.2790  141.9460 C   0  0  2  0  0  3  0  0  0  0  0  0
  189.7100  175.5620  143.3440 N   0  0  2  0  0  0  0  0  0  0  0  0
  184.6970  178.7750  145.1550 C   0  0  0  0  0  3  0  0  0  0  0  0
  192.9110  175.7030  146.4240 C   0  0  0  0  0  2  0  0  0  0  0  0
  193.3560  175.1220  144.1190 C   0  0  0  0  0  2  0  0  0  0  0  0
  185.0030  177.7800  142.9910 O   0  0  0  0  0  1  0  0  0  0  0  0
  188.3400  177.0510  146.5350 C   0  0  2  0  0  3  0  0  0  0  0  0
  185.1510  179.0060  146.4540 C   0  0  0  0  0  3  0  0  0  0  0  0
  186.6560  177.4080  144.7370 C   0  0  0  0  0  0  0  0  0  0  0  0
  189.3890  176.9440  145.4420 C   0  0  1  0  0  3  0  0  0  0  0  0
  191.3160  177.0710  148.3620 O   0  0  0  0  0  0  0  0  0  0  0  0
  190.5950  176.5430  146.1660 N   0  0  0  0  0  0  0  0  0  0  0  0
  194.0110  175.2830  145.4780 C   0  0  0  0  0  2  0  0  0  0  0  0
  190.6090  173.7710  144.9010 C   0  0  0  0  0  1  0  0  0  0  0  0
  186.3300  178.4710  146.8700 N   0  0  0  0  0  0  0  0  0  0  0  0
  187.0970  177.7130  146.0420 C   0  0  0  0  0  0  0  0  0  0  0  0
  190.8930  174.8500  143.8470 C   0  0  2  0  0  3  0  0  0  0  0  0
  187.8100  176.4120  140.9260 C   0  0  0  0  0  2  0  0  0  0  0  0
  186.3090  177.5200  139.7510 C   0  0  0  0  0  1  0  0  0  0  0  0
  186.8840  176.2580  139.8940 O   0  0  0  0  0  0  0  0  0  0  0  0
  1  5  1  1  0  0  0
  1  4  1  0  0  0  0
  1 19  1  0  0  0  0
  2 19  2  0  0  0  0
  2 13  1  0  0  0  0
  4 20  1  0  0  0  0
  6  8  1  0  0  0  0
  7  9  1  0  0  0  0
  8 12  1  0  0  0  0
  9 22  1  0  0  0  0
  9 14  1  0  0  0  0
 10  3  1  0  0  0  0
 10 21  2  0  0  0  0
 11  8  1  0  0  0  0
 11  5  1  0  0  0  0
 12 27  1  0  0  0  0
 12  4  1  0  0  0  0
 13 18  2  0  0  0  0
 15  7  1  0  0  0  0
 15 23  1  0  0  0  0
 16  2  1  0  0  0  0
 17  3  1  0  0  0  0
 18 25  1  0  0  0  0
 19 26  1  0  0  0  0
 20 22  1  0  0  0  0
 20 17  1  0  0  0  0
 22 10  1  0  0  0  0
 23 14  1  0  0  0  0
 26 17  1  0  0  0  0
 26 25  2  0  0  0  0
 27  7  1  0  0  0  0
 27 24  1  0  0  0  0
 28 11  1  0  0  0  0
 29 30  1  0  0  0  0
 30 28  1  0  0  0  0
M  END
>  <MODEL>
2

>  <REMARK>
 VINA RESULT:      -8.0      1.208      1.461
  Name = 
  2 active torsions:
  status: ('A' for Active; 'I' for Inactive)
    1  A    between atoms: C_11  and  C_28
    2  A    between atoms: C_28  and  O_30
                            x       y       z     vdW  Elec       q    Type
                         _______ _______ _______ _____ _____    ______ ____

>  <TORSDO>
F 2

$$$$
=
 OpenBabel11112416153D

 30 35  0  0  1  0  0  0  0  0999 V2000
  187.5410  176.3390  143.3320 C   0  0  1  0  0  3  0  0  0  0  0  0
  185.4480  177.8030  143.2970 C   0  0  0  0  0  0  0  0  0  0  0  0
  188.5010  177.9190  147.2610 C   0  0  0  0  0  2  0  0  0  0  0  0
  188.6510  175.7590  144.2480 C   0  0  1  0  0  3  0  0  0  0  0  0
  186.8990  175.2900  142.6460 O   0  0  0  0  0  0  0  0  0  0  0  0
  190.0790  173.5700  141.5210 C   0  0  0  0  0  1  0  0  0  0  0  0
  191.8620  175.5450  144.4980 C   0  0  1  0  0  3  0  0  0  0  0  0
  189.0730  174.1620  142.5070 C   0  0  2  0  0  3  0  0  0  0  0  0
  191.6180  176.4160  145.7310 C   0  0  2  0  0  3  0  0  0  0  0  0
  189.8510  177.3080  147.3000 C   0  0  0  0  0  0  0  0  0  0  0  0
  187.8380  174.7160  141.7560 C   0  0  2  0  0  3  0  0  0  0  0  0
  189.6930  175.1840  143.3790 N   0  0  2  0  0  0  0  0  0  0  0  0
  184.6120  178.7390  143.9060 C   0  0  0  0  0  3  0  0  0  0  0  0
  192.4270  175.7630  146.8340 C   0  0  0  0  0  2  0  0  0  0  0  0
  193.1700  174.8080  144.7410 C   0  0  0  0  0  2  0  0  0  0  0  0
  185.1800  177.4010  141.9940 O   0  0  0  0  0  1  0  0  0  0  0  0
  187.9470  177.1940  146.0590 C   0  0  2  0  0  3  0  0  0  0  0  0
  184.8860  179.1690  145.2050 C   0  0  0  0  0  3  0  0  0  0  0  0
  186.5510  177.2870  144.0000 C   0  0  0  0  0  0  0  0  0  0  0  0
  189.1350  176.8930  145.1630 C   0  0  1  0  0  3  0  0  0  0  0  0
  190.6320  177.4560  148.2770 O   0  0  0  0  0  0  0  0  0  0  0  0
  190.2080  176.5920  146.1100 N   0  0  0  0  0  0  0  0  0  0  0  0
  193.6320  175.1750  146.1380 C   0  0  0  0  0  2  0  0  0  0  0  0
  190.2860  173.6530  145.3140 C   0  0  0  0  0  1  0  0  0  0  0  0
  185.9700  178.6870  145.8680 N   0  0  0  0  0  0  0  0  0  0  0  0
  186.8150  177.7910  145.2910 C   0  0  0  0  0  0  0  0  0  0  0  0
  190.7610  174.5410  144.1560 C   0  0  2  0  0  3  0  0  0  0  0  0
  188.1910  175.6650  140.6050 C   0  0  0  0  0  2  0  0  0  0  0  0
  188.1910  174.5110  138.7260 C   0  0  0  0  0  1  0  0  0  0  0  0
  187.4060  175.3730  139.4910 O   0  0  0  0  0  0  0  0  0  0  0  0
  1  5  1  1  0  0  0
  1 19  1  0  0  0  0
  1  4  1  0  0  0  0
  2 13  2  0  0  0  0
  2 19  1  0  0  0  0
  3 10  1  0  0  0  0
  4 20  1  0  0  0  0
  6  8  1  0  0  0  0
  7 15  1  0  0  0  0
  7  9  1  0  0  0  0
  8 12  1  0  0  0  0
  9 22  1  0  0  0  0
  9 14  1  0  0  0  0
 10 21  2  0  0  0  0
 11  8  1  0  0  0  0
 11  5  1  0  0  0  0
 12 27  1  0  0  0  0
 12  4  1  0  0  0  0
 13 18  1  0  0  0  0
 15 23  1  0  0  0  0
 16  2  1  0  0  0  0
 17  3  1  0  0  0  0
 18 25  2  0  0  0  0
 19 26  2  0  0  0  0
 20 17  1  0  0  0  0
 20 22  1  0  0  0  0
 22 10  1  0  0  0  0
 23 14  1  0  0  0  0
 26 25  1  0  0  0  0
 26 17  1  0  0  0  0
 27  7  1  0  0  0  0
 27 24  1  0  0  0  0
 28 11  1  0  0  0  0
 29 30  1  0  0  0  0
 30 28  1  0  0  0  0
M  END
>  <MODEL>
3

>  <REMARK>
 VINA RESULT:      -7.6      1.566      2.243
  Name = 
  2 active torsions:
  status: ('A' for Active; 'I' for Inactive)
    1  A    between atoms: C_11  and  C_28
    2  A    between atoms: C_28  and  O_30
                            x       y       z     vdW  Elec       q    Type
                         _______ _______ _______ _____ _____    ______ ____

>  <TORSDO>
F 2

$$$$
=
 OpenBabel11112416153D

 30 35  0  0  1  0  0  0  0  0999 V2000
  188.0660  176.7340  143.9860 C   0  0  1  0  0  3  0  0  0  0  0  0
  186.2030  178.2760  143.1630 C   0  0  0  0  0  0  0  0  0  0  0  0
  188.1350  174.8420  140.0790 C   0  0  0  0  0  2  0  0  0  0  0  0
  189.1660  175.7410  143.5280 C   0  0  1  0  0  3  0  0  0  0  0  0
  188.6430  177.7450  144.7790 O   0  0  0  0  0  0  0  0  0  0  0  0
  190.6300  175.4050  146.9940 C   0  0  0  0  0  1  0  0  0  0  0  0
  190.2330  172.7400  144.0470 C   0  0  1  0  0  3  0  0  0  0  0  0
  190.1630  176.0490  145.6890 C   0  0  2  0  0  3  0  0  0  0  0  0
  189.7780  172.5470  142.6000 C   0  0  2  0  0  3  0  0  0  0  0  0
  189.0390  173.7450  140.5020 C   0  0  0  0  0  0  0  0  0  0  0  0
  189.1090  177.1470  145.9740 C   0  0  2  0  0  3  0  0  0  0  0  0
  189.6650  175.0430  144.7250 N   0  0  2  0  0  0  0  0  0  0  0  0
  185.3400  178.7060  142.1550 C   0  0  0  0  0  3  0  0  0  0  0  0
  190.9310  171.8360  141.9210 C   0  0  0  0  0  2  0  0  0  0  0  0
  191.3060  171.6930  144.3060 C   0  0  0  0  0  2  0  0  0  0  0  0
  186.0810  178.8200  144.4360 O   0  0  0  0  0  1  0  0  0  0  0  0
  188.2700  175.7400  141.2840 C   0  0  2  0  0  3  0  0  0  0  0  0
  185.4370  178.1490  140.8790 C   0  0  0  0  0  3  0  0  0  0  0  0
  187.1740  177.2980  142.8860 C   0  0  0  0  0  0  0  0  0  0  0  0
  188.5470  174.8240  142.4630 C   0  0  1  0  0  3  0  0  0  0  0  0
  189.4120  172.8360  139.7160 O   0  0  0  0  0  0  0  0  0  0  0  0
  189.3930  173.7770  141.8920 N   0  0  0  0  0  0  0  0  0  0  0  0
  191.5380  170.9650  142.9960 C   0  0  0  0  0  2  0  0  0  0  0  0
  191.8380  174.6910  143.4630 C   0  0  0  0  0  1  0  0  0  0  0  0
  186.3590  177.1830  140.6250 N   0  0  0  0  0  0  0  0  0  0  0  0
  187.1980  176.7290  141.5950 C   0  0  0  0  0  0  0  0  0  0  0  0
  190.7670  174.1250  144.4050 C   0  0  2  0  0  3  0  0  0  0  0  0
  187.9550  176.6770  146.8670 C   0  0  0  0  0  2  0  0  0  0  0  0
  185.9710  177.2820  147.6160 C   0  0  0  0  0  1  0  0  0  0  0  0
  187.2460  177.7780  147.3440 O   0  0  0  0  0  0  0  0  0  0  0  0
  1 19  1  6  0  0  0
  1  5  1  0  0  0  0
  2 16  1  0  0  0  0
  3 10  1  0  0  0  0
  3 17  1  0  0  0  0
  4  1  1  0  0  0  0
  4 12  1  0  0  0  0
  5 11  1  0  0  0  0
  7 15  1  0  0  0  0
  7 27  1  0  0  0  0
  8 11  1  0  0  0  0
  8  6  1  0  0  0  0
  9  7  1  0  0  0  0
 10 22  1  0  0  0  0
 11 28  1  0  0  0  0
 12  8  1  0  0  0  0
 13  2  2  0  0  0  0
 14  9  1  0  0  0  0
 14 23  1  0  0  0  0
 17 26  1  0  0  0  0
 17 20  1  0  0  0  0
 18 13  1  0  0  0  0
 19  2  1  0  0  0  0
 20  4  1  0  0  0  0
 21 10  2  0  0  0  0
 22 20  1  0  0  0  0
 22  9  1  0  0  0  0
 23 15  1  0  0  0  0
 24 27  1  0  0  0  0
 25 18  2  0  0  0  0
 25 26  1  0  0  0  0
 26 19  2  0  0  0  0
 27 12  1  0  0  0  0
 28 30  1  0  0  0  0
 30 29  1  0  0  0  0
M  END
>  <MODEL>
4

>  <REMARK>
 VINA RESULT:      -7.6      2.172      5.007
  Name = 
  2 active torsions:
  status: ('A' for Active; 'I' for Inactive)
    1  A    between atoms: C_11  and  C_28
    2  A    between atoms: C_28  and  O_30
                            x       y       z     vdW  Elec       q    Type
                         _______ _______ _______ _____ _____    ______ ____

>  <TORSDO>
F 2

$$$$
=
 OpenBabel11112416153D

 30 35  0  0  1  0  0  0  0  0999 V2000
  189.3640  175.6160  144.0940 C   0  0  1  0  0  3  0  0  0  0  0  0
  191.1350  174.6690  145.6730 C   0  0  0  0  0  0  0  0  0  0  0  0
  187.8480  178.0450  147.3580 C   0  0  0  0  0  2  0  0  0  0  0  0
  188.3250  176.7530  143.9130 C   0  0  1  0  0  3  0  0  0  0  0  0
  190.2410  175.5970  142.9930 O   0  0  0  0  0  0  0  0  0  0  0  0
  187.5360  175.7780  140.3500 C   0  0  0  0  0  1  0  0  0  0  0  0
  185.2050  177.2390  143.2430 C   0  0  1  0  0  3  0  0  0  0  0  0
  188.3380  176.2180  141.5730 C   0  0  2  0  0  3  0  0  0  0  0  0
  185.1910  177.7660  144.6790 C   0  0  2  0  0  3  0  0  0  0  0  0
  186.6410  178.4850  146.6180 C   0  0  0  0  0  0  0  0  0  0  0  0
  189.4940  175.2240  141.8500 C   0  0  2  0  0  3  0  0  0  0  0  0
  187.4760  176.4040  142.7610 N   0  0  2  0  0  0  0  0  0  0  0  0
  191.7330  174.6120  146.9320 C   0  0  0  0  0  3  0  0  0  0  0  0
  184.4470  179.0850  144.6020 C   0  0  0  0  0  2  0  0  0  0  0  0
  184.0480  177.9150  142.5230 C   0  0  0  0  0  2  0  0  0  0  0  0
  191.5660  173.7980  144.6790 O   0  0  0  0  0  1  0  0  0  0  0  0
  188.6140  177.4230  146.2160 C   0  0  2  0  0  3  0  0  0  0  0  0
  191.2910  175.4650  147.9450 C   0  0  0  0  0  3  0  0  0  0  0  0
  190.1060  175.5940  145.4260 C   0  0  0  0  0  0  0  0  0  0  0  0
  187.5700  176.9070  145.2410 C   0  0  1  0  0  3  0  0  0  0  0  0
  185.7800  179.2520  147.1250 O   0  0  0  0  0  0  0  0  0  0  0  0
  186.5110  177.9130  145.3100 N   0  0  0  0  0  0  0  0  0  0  0  0
  183.4280  178.8930  143.5020 C   0  0  0  0  0  2  0  0  0  0  0  0
  187.0530  178.8900  142.4760 C   0  0  0  0  0  1  0  0  0  0  0  0
  190.2760  176.3370  147.7080 N   0  0  0  0  0  0  0  0  0  0  0  0
  189.6600  176.3990  146.4970 C   0  0  0  0  0  0  0  0  0  0  0  0
  186.4980  177.4590  142.4600 C   0  0  2  0  0  3  0  0  0  0  0  0
  189.0460  173.7590  141.9110 C   0  0  0  0  0  2  0  0  0  0  0  0
  189.7690  171.7220  142.3430 C   0  0  0  0  0  1  0  0  0  0  0  0
  190.1460  172.9200  141.7370 O   0  0  0  0  0  0  0  0  0  0  0  0
  1  5  1  6  0  0  0
  1 19  1  0  0  0  0
  2 13  1  0  0  0  0
  4  1  1  0  0  0  0
  4 20  1  0  0  0  0
  6  8  1  0  0  0  0
  7  9  1  0  0  0  0
  8 11  1  0  0  0  0
  8 12  1  0  0  0  0
  9 22  1  0  0  0  0
 10 21  2  0  0  0  0
 10  3  1  0  0  0  0
 11 28  1  0  0  0  0
 11  5  1  0  0  0  0
 12  4  1  0  0  0  0
 13 18  2  0  0  0  0
 14  9  1  0  0  0  0
 15  7  1  0  0  0  0
 15 23  1  0  0  0  0
 16  2  1  0  0  0  0
 17 26  1  0  0  0  0
 17  3  1  0  0  0  0
 19  2  2  0  0  0  0
 19 26  1  0  0  0  0
 20 22  1  0  0  0  0
 20 17  1  0  0  0  0
 22 10  1  0  0  0  0
 23 14  1  0  0  0  0
 25 18  1  0  0  0  0
 26 25  2  0  0  0  0
 27 24  1  0  0  0  0
 27 12  1  0  0  0  0
 27  7  1  0  0  0  0
 30 28  1  0  0  0  0
 30 29  1  0  0  0  0
M  END
>  <MODEL>
5

>  <REMARK>
 VINA RESULT:      -7.3      2.258      5.654
  Name = 
  2 active torsions:
  status: ('A' for Active; 'I' for Inactive)
    1  A    between atoms: C_11  and  C_28
    2  A    between atoms: C_28  and  O_30
                            x       y       z     vdW  Elec       q    Type
                         _______ _______ _______ _____ _____    ______ ____

>  <TORSDO>
F 2

$$$$
=
 OpenBabel11112416153D

 30 35  0  0  1  0  0  0  0  0999 V2000
  191.3250  175.1010  144.3150 C   0  0  1  0  0  3  0  0  0  0  0  0
  192.4360  174.1060  142.2410 C   0  0  0  0  0  0  0  0  0  0  0  0
  187.5670  175.2570  142.1460 C   0  0  0  0  0  2  0  0  0  0  0  0
  189.9580  175.4090  144.9790 C   0  0  1  0  0  3  0  0  0  0  0  0
  192.1110  174.3250  145.1890 O   0  0  0  0  0  0  0  0  0  0  0  0
  191.5250  176.4840  148.2440 C   0  0  0  0  0  1  0  0  0  0  0  0
  188.2910  177.8240  146.3230 C   0  0  1  0  0  3  0  0  0  0  0  0
  191.1530  175.6040  147.0500 C   0  0  2  0  0  3  0  0  0  0  0  0
  187.3920  177.6080  145.1050 C   0  0  2  0  0  3  0  0  0  0  0  0
  186.8700  176.0490  143.1870 C   0  0  0  0  0  0  0  0  0  0  0  0
  192.4280  175.1250  146.3120 C   0  0  2  0  0  3  0  0  0  0  0  0
  190.2100  176.2850  146.1360 N   0  0  2  0  0  0  0  0  0  0  0  0
  192.3620  173.6570  140.9220 C   0  0  0  0  0  3  0  0  0  0  0  0
  185.9830  177.5730  145.6630 C   0  0  0  0  0  2  0  0  0  0  0  0
  187.4180  178.4530  147.3980 C   0  0  0  0  0  2  0  0  0  0  0  0
  193.6730  174.1520  142.8720 O   0  0  0  0  0  1  0  0  0  0  0  0
  188.8070  174.8840  142.9210 C   0  0  2  0  0  3  0  0  0  0  0  0
  191.1290  173.6300  140.2700 C   0  0  0  0  0  3  0  0  0  0  0  0
  191.2680  174.5120  142.9090 C   0  0  0  0  0  0  0  0  0  0  0  0
  189.0470  176.0170  143.9030 C   0  0  1  0  0  3  0  0  0  0  0  0
  185.6700  176.4130  143.0700 O   0  0  0  0  0  0  0  0  0  0  0  0
  187.6970  176.4160  144.3000 N   0  0  0  0  0  0  0  0  0  0  0  0
  186.0080  178.5150  146.8440 C   0  0  0  0  0  2  0  0  0  0  0  0
  188.0640  175.3720  147.1380 C   0  0  0  0  0  1  0  0  0  0  0  0
  190.0080  174.0510  140.9120 N   0  0  0  0  0  0  0  0  0  0  0  0
  190.0530  174.5150  142.1900 C   0  0  0  0  0  0  0  0  0  0  0  0
  188.9770  176.5780  146.8810 C   0  0  2  0  0  3  0  0  0  0  0  0
  193.3950  176.2590  145.9540 C   0  0  0  0  0  2  0  0  0  0  0  0
  195.3190  175.1850  145.8740 C   0  0  0  0  0  1  0  0  0  0  0  0
  194.5950  176.0950  146.6440 O   0  0  0  0  0  0  0  0  0  0  0  0
  1 19  1  6  0  0  0
  1  4  1  0  0  0  0
  1  5  1  0  0  0  0
  2 16  1  0  0  0  0
  2 19  1  0  0  0  0
  3 17  1  0  0  0  0
  3 10  1  0  0  0  0
  4 12  1  0  0  0  0
  5 11  1  0  0  0  0
  7 27  1  0  0  0  0
  7 15  1  0  0  0  0
  8  6  1  0  0  0  0
  9 14  1  0  0  0  0
  9  7  1  0  0  0  0
 10 22  1  0  0  0  0
 11  8  1  0  0  0  0
 12 27  1  0  0  0  0
 12  8  1  0  0  0  0
 13  2  2  0  0  0  0
 14 23  1  0  0  0  0
 17 20  1  0  0  0  0
 18 25  2  0  0  0  0
 18 13  1  0  0  0  0
 20 22  1  0  0  0  0
 20  4  1  0  0  0  0
 21 10  2  0  0  0  0
 22  9  1  0  0  0  0
 23 15  1  0  0  0  0
 25 26  1  0  0  0  0
 26 19  2  0  0  0  0
 26 17  1  0  0  0  0
 27 24  1  0  0  0  0
 28 11  1  0  0  0  0
 28 30  1  0  0  0  0
 29 30  1  0  0  0  0
M  END
>  <MODEL>
6

>  <REMARK>
 VINA RESULT:      -7.3      1.843      7.261
  Name = 
  2 active torsions:
  status: ('A' for Active; 'I' for Inactive)
    1  A    between atoms: C_11  and  C_28
    2  A    between atoms: C_28  and  O_30
                            x       y       z     vdW  Elec       q    Type
                         _______ _______ _______ _____ _____    ______ ____

>  <TORSDO>
F 2

$$$$
=
 OpenBabel11112416153D

 30 35  0  0  1  0  0  0  0  0999 V2000
  192.2160  174.6850  142.9560 C   0  0  1  0  0  3  0  0  0  0  0  0
  193.0150  173.9040  140.6590 C   0  0  0  0  0  0  0  0  0  0  0  0
  188.1410  174.7080  141.4560 C   0  0  0  0  0  2  0  0  0  0  0  0
  190.9650  174.8530  143.8570 C   0  0  1  0  0  3  0  0  0  0  0  0
  193.1830  173.9150  143.6280 O   0  0  0  0  0  0  0  0  0  0  0  0
  192.9970  175.8300  146.8880 C   0  0  0  0  0  1  0  0  0  0  0  0
  189.4100  177.0540  145.6330 C   0  0  1  0  0  3  0  0  0  0  0  0
  192.4820  175.0030  145.7120 C   0  0  2  0  0  3  0  0  0  0  0  0
  188.3310  176.8510  144.5690 C   0  0  2  0  0  3  0  0  0  0  0  0
  187.5850  175.3820  142.6530 C   0  0  0  0  0  0  0  0  0  0  0  0
  193.6380  174.6630  144.7390 C   0  0  2  0  0  3  0  0  0  0  0  0
  191.3570  175.6700  145.0190 N   0  0  2  0  0  0  0  0  0  0  0  0
  192.7460  173.5340  139.3410 C   0  0  0  0  0  3  0  0  0  0  0  0
  187.0420  176.6800  145.3480 C   0  0  0  0  0  2  0  0  0  0  0  0
  188.6960  177.5510  146.8820 C   0  0  0  0  0  2  0  0  0  0  0  0
  194.3370  173.9980  141.0790 O   0  0  0  0  0  1  0  0  0  0  0  0
  189.5150  174.3770  141.9850 C   0  0  2  0  0  3  0  0  0  0  0  0
  191.4230  173.4600  138.9010 C   0  0  0  0  0  3  0  0  0  0  0  0
  191.9560  174.1830  141.5400 C   0  0  0  0  0  0  0  0  0  0  0  0
  189.8500  175.4600  142.9950 C   0  0  1  0  0  3  0  0  0  0  0  0
  186.3630  175.6650  142.7630 O   0  0  0  0  0  0  0  0  0  0  0  0
  188.5660  175.7360  143.6380 N   0  0  0  0  0  0  0  0  0  0  0  0
  187.2110  177.5460  146.5740 C   0  0  0  0  0  2  0  0  0  0  0  0
  189.4720  174.5450  146.2910 C   0  0  0  0  0  1  0  0  0  0  0  0
  190.4050  173.7590  139.7500 N   0  0  0  0  0  0  0  0  0  0  0  0
  190.6390  174.1440  141.0340 C   0  0  0  0  0  0  0  0  0  0  0  0
  190.2540  175.8280  145.9770 C   0  0  2  0  0  3  0  0  0  0  0  0
  194.4610  175.8840  144.3100 C   0  0  0  0  0  2  0  0  0  0  0  0
  196.2200  176.4180  143.0920 C   0  0  0  0  0  1  0  0  0  0  0  0
  195.7750  175.5000  144.0430 O   0  0  0  0  0  0  0  0  0  0  0  0
  1 19  1  6  0  0  0
  1  5  1  0  0  0  0
  1  4  1  0  0  0  0
  2 16  1  0  0  0  0
  2 19  1  0  0  0  0
  3 17  1  0  0  0  0
  3 10  1  0  0  0  0
  4 12  1  0  0  0  0
  5 11  1  0  0  0  0
  7 27  1  0  0  0  0
  7 15  1  0  0  0  0
  8  6  1  0  0  0  0
  9 14  1  0  0  0  0
  9  7  1  0  0  0  0
 10 21  2  0  0  0  0
 10 22  1  0  0  0  0
 11  8  1  0  0  0  0
 12  8  1  0  0  0  0
 12 27  1  0  0  0  0
 13  2  2  0  0  0  0
 14 23  1  0  0  0  0
 17 20  1  0  0  0  0
 18 13  1  0  0  0  0
 18 25  2  0  0  0  0
 20 22  1  0  0  0  0
 20  4  1  0  0  0  0
 22  9  1  0  0  0  0
 23 15  1  0  0  0  0
 25 26  1  0  0  0  0
 26 19  2  0  0  0  0
 26 17  1  0  0  0  0
 27 24  1  0  0  0  0
 28 11  1  0  0  0  0
 29 30  1  0  0  0  0
 30 28  1  0  0  0  0
M  END
>  <MODEL>
7

>  <REMARK>
 VINA RESULT:      -7.1      2.410      7.435
  Name = 
  2 active torsions:
  status: ('A' for Active; 'I' for Inactive)
    1  A    between atoms: C_11  and  C_28
    2  A    between atoms: C_28  and  O_30
                            x       y       z     vdW  Elec       q    Type
                         _______ _______ _______ _____ _____    ______ ____

>  <TORSDO>
F 2

$$$$
=
 OpenBabel11112416153D

 30 35  0  0  1  0  0  0  0  0999 V2000
  188.7380  175.1390  141.3800 C   0  0  1  0  0  3  0  0  0  0  0  0
  187.0490  176.4880  140.0180 C   0  0  0  0  0  0  0  0  0  0  0  0
  187.9550  177.7190  144.7830 C   0  0  0  0  0  2  0  0  0  0  0  0
  189.2440  174.8490  142.8170 C   0  0  1  0  0  3  0  0  0  0  0  0
  188.3790  173.9300  140.7530 O   0  0  0  0  0  0  0  0  0  0  0  0
  191.5310  172.0590  141.6970 C   0  0  0  0  0  1  0  0  0  0  0  0
  191.9490  174.7920  144.5780 C   0  0  1  0  0  3  0  0  0  0  0  0
  190.2520  172.8620  141.9240 C   0  0  2  0  0  3  0  0  0  0  0  0
  191.2590  175.9490  145.3010 C   0  0  2  0  0  3  0  0  0  0  0  0
  189.0700  177.1750  145.5950 C   0  0  0  0  0  0  0  0  0  0  0  0
  189.5570  173.1680  140.5740 C   0  0  2  0  0  3  0  0  0  0  0  0
  190.5040  174.0930  142.7040 N   0  0  2  0  0  0  0  0  0  0  0  0
  186.1260  177.5280  139.9180 C   0  0  0  0  0  3  0  0  0  0  0  0
  191.4060  175.6300  146.7750 C   0  0  0  0  0  2  0  0  0  0  0  0
  192.9220  174.1790  145.5740 C   0  0  0  0  0  2  0  0  0  0  0  0
  187.3650  175.7500  138.8830 O   0  0  0  0  0  1  0  0  0  0  0  0
  187.9400  176.6900  143.6800 C   0  0  2  0  0  3  0  0  0  0  0  0
  185.8200  178.2910  141.0460 C   0  0  0  0  0  3  0  0  0  0  0  0
  187.6530  176.2020  141.2560 C   0  0  0  0  0  0  0  0  0  0  0  0
  189.3690  176.1960  143.5450 C   0  0  1  0  0  3  0  0  0  0  0  0
  189.3300  177.5950  146.7530 O   0  0  0  0  0  0  0  0  0  0  0  0
  189.8570  176.1820  144.9230 N   0  0  0  0  0  0  0  0  0  0  0  0
  192.7310  174.9120  146.8880 C   0  0  0  0  0  2  0  0  0  0  0  0
  189.9940  173.1400  145.0000 C   0  0  0  0  0  1  0  0  0  0  0  0
  186.4280  178.0280  142.2320 N   0  0  0  0  0  0  0  0  0  0  0  0
  187.3490  177.0340  142.3540 C   0  0  0  0  0  0  0  0  0  0  0  0
  191.0310  173.7050  144.0200 C   0  0  2  0  0  3  0  0  0  0  0  0
  190.4890  173.7910  139.5280 C   0  0  0  0  0  2  0  0  0  0  0  0
  189.8280  172.3200  138.0240 C   0  0  0  0  0  1  0  0  0  0  0  0
  189.9140  173.6910  138.2610 O   0  0  0  0  0  0  0  0  0  0  0  0
  1  5  1  1  0  0  0
  1  4  1  0  0  0  0
  2 19  1  0  0  0  0
  3 10  1  0  0  0  0
  4 20  1  0  0  0  0
  6  8  1  0  0  0  0
  7  9  1  0  0  0  0
  7 15  1  0  0  0  0
  8 12  1  0  0  0  0
  9 14  1  0  0  0  0
 10 21  2  0  0  0  0
 11  5  1  0  0  0  0
 11  8  1  0  0  0  0
 12  4  1  0  0  0  0
 12 27  1  0  0  0  0
 13  2  2  0  0  0  0
 13 18  1  0  0  0  0
 14 23  1  0  0  0  0
 15 23  1  0  0  0  0
 16  2  1  0  0  0  0
 17  3  1  0  0  0  0
 18 25  2  0  0  0  0
 19  1  1  0  0  0  0
 19 26  2  0  0  0  0
 20 17  1  0  0  0  0
 20 22  1  0  0  0  0
 22  9  1  0  0  0  0
 22 10  1  0  0  0  0
 25 26  1  0  0  0  0
 26 17  1  0  0  0  0
 27  7  1  0  0  0  0
 27 24  1  0  0  0  0
 28 11  1  0  0  0  0
 29 30  1  0  0  0  0
 30 28  1  0  0  0  0
M  END
>  <MODEL>
8

>  <REMARK>
 VINA RESULT:      -7.0      2.331      4.329
  Name = 
  2 active torsions:
  status: ('A' for Active; 'I' for Inactive)
    1  A    between atoms: C_11  and  C_28
    2  A    between atoms: C_28  and  O_30
                            x       y       z     vdW  Elec       q    Type
                         _______ _______ _______ _____ _____    ______ ____

>  <TORSDO>
F 2

$$$$
=
 OpenBabel11112416153D

 30 35  0  0  1  0  0  0  0  0999 V2000
  188.8900  175.9500  144.0220 C   0  0  1  0  0  3  0  0  0  0  0  0
  187.3000  177.8170  144.7370 C   0  0  0  0  0  0  0  0  0  0  0  0
  187.2530  176.1850  140.0070 C   0  0  0  0  0  2  0  0  0  0  0  0
  189.5090  175.2330  142.7940 C   0  0  1  0  0  3  0  0  0  0  0  0
  189.9180  176.4110  144.8670 O   0  0  0  0  0  0  0  0  0  0  0  0
  191.8670  173.1660  144.9000 C   0  0  0  0  0  1  0  0  0  0  0  0
  189.9160  172.2920  141.5280 C   0  0  1  0  0  3  0  0  0  0  0  0
  191.1830  174.3900  144.2930 C   0  0  2  0  0  3  0  0  0  0  0  0
  188.9940  172.8550  140.4460 C   0  0  2  0  0  3  0  0  0  0  0  0
  187.9460  174.9640  139.5320 C   0  0  0  0  0  0  0  0  0  0  0  0
  190.5760  175.2800  145.4050 C   0  0  2  0  0  3  0  0  0  0  0  0
  190.1750  174.0110  143.2780 N   0  0  2  0  0  0  0  0  0  0  0  0
  186.2950  178.7370  144.4370 C   0  0  0  0  0  3  0  0  0  0  0  0
  189.6620  172.4860  139.1360 C   0  0  0  0  0  2  0  0  0  0  0  0
  190.7250  171.1830  140.8730 C   0  0  0  0  0  2  0  0  0  0  0  0
  187.7250  177.6840  146.0540 O   0  0  0  0  0  1  0  0  0  0  0  0
  187.9780  176.3770  141.3160 C   0  0  2  0  0  3  0  0  0  0  0  0
  185.8440  178.8620  143.1230 C   0  0  0  0  0  3  0  0  0  0  0  0
  187.8630  177.0340  143.7140 C   0  0  0  0  0  0  0  0  0  0  0  0
  188.3810  174.9890  141.7820 C   0  0  1  0  0  3  0  0  0  0  0  0
  187.8160  174.5260  138.3590 O   0  0  0  0  0  0  0  0  0  0  0  0
  188.7190  174.2960  140.5390 N   0  0  0  0  0  0  0  0  0  0  0  0
  190.3450  171.1660  139.4050 C   0  0  0  0  0  2  0  0  0  0  0  0
  191.6800  174.1720  141.2420 C   0  0  0  0  0  1  0  0  0  0  0  0
  186.3720  178.0810  142.1430 N   0  0  0  0  0  0  0  0  0  0  0  0
  187.3370  177.1610  142.4110 C   0  0  0  0  0  0  0  0  0  0  0  0
  190.8590  173.2930  142.1940 C   0  0  2  0  0  3  0  0  0  0  0  0
  189.6870  174.5140  146.3910 C   0  0  0  0  0  2  0  0  0  0  0  0
  191.0710  175.2910  147.9220 C   0  0  0  0  0  1  0  0  0  0  0  0
  189.7140  175.1370  147.6380 O   0  0  0  0  0  0  0  0  0  0  0  0
  1 19  1  6  0  0  0
  1  5  1  0  0  0  0
  2 16  1  0  0  0  0
  3 17  1  0  0  0  0
  4 12  1  0  0  0  0
  4  1  1  0  0  0  0
  5 11  1  0  0  0  0
  7 27  1  0  0  0  0
  8  6  1  0  0  0  0
  8 11  1  0  0  0  0
  9 22  1  0  0  0  0
  9  7  1  0  0  0  0
 10  3  1  0  0  0  0
 10 22  1  0  0  0  0
 11 28  1  0  0  0  0
 12  8  1  0  0  0  0
 13  2  1  0  0  0  0
 14 23  1  0  0  0  0
 14  9  1  0  0  0  0
 15  7  1  0  0  0  0
 17 20  1  0  0  0  0
 17 26  1  0  0  0  0
 18 13  2  0  0  0  0
 19  2  2  0  0  0  0
 20  4  1  0  0  0  0
 21 10  2  0  0  0  0
 22 20  1  0  0  0  0
 23 15  1  0  0  0  0
 24 27  1  0  0  0  0
 25 26  2  0  0  0  0
 25 18  1  0  0  0  0
 26 19  1  0  0  0  0
 27 12  1  0  0  0  0
 28 30  1  0  0  0  0
 30 29  1  0  0  0  0
M  END
>  <MODEL>
9

>  <REMARK>
 VINA RESULT:      -7.0      2.397      5.480
  Name = 
  2 active torsions:
  status: ('A' for Active; 'I' for Inactive)
    1  A    between atoms: C_11  and  C_28
    2  A    between atoms: C_28  and  O_30
                            x       y       z     vdW  Elec       q    Type
                         _______ _______ _______ _____ _____    ______ ____

>  <TORSDO>
F 2

$$$$
