=
 OpenBabel11112417373D

 28 32  0  0  1  0  0  0  0  0999 V2000
  185.5050  177.2580  143.8000 C   0  0  0  0  0  0  0  0  0  0  0  0
  187.3410  173.6680  141.9240 O   0  0  0  0  0  0  0  0  0  0  0  0
  190.4670  177.3540  147.9070 C   0  0  0  0  0  1  0  0  0  0  0  0
  185.5930  177.9970  141.1230 C   0  0  0  0  0  3  0  0  0  0  0  0
  191.1040  176.8730  145.4560 C   0  0  2  0  0  3  0  0  0  0  0  0
  185.4020  176.9960  145.2510 C   0  0  0  0  0  2  0  0  0  0  0  0
  188.1190  175.3580  140.2950 O   0  0  0  0  0  0  0  0  0  0  0  0
  188.4500  174.6100  141.5550 S   0  0  0  0  0  0  0  0  0  0  0  0
  191.1590  174.0730  141.9870 C   0  0  0  0  0  0  0  0  0  0  0  0
  188.7880  175.6900  142.8760 C   0  0  0  0  0  0  0  0  0  0  0  0
  187.1720  178.7710  147.9820 C   0  0  0  0  0  1  0  0  0  0  0  0
  188.8300  177.0450  144.6430 C   0  0  0  0  0  0  0  0  0  0  0  0
  191.2520  175.0340  142.8660 N   0  0  0  0  0  0  0  0  0  0  0  0
  189.9240  173.7300  141.3310 N   0  0  0  0  0  2  0  0  0  0  0  0
  186.6080  177.6210  147.1690 C   0  0  2  0  0  3  0  0  0  0  0  0
  186.6930  177.0180  143.0690 C   0  0  0  0  0  0  0  0  0  0  0  0
  190.1330  177.1690  146.5040 N   0  0  0  0  0  0  0  0  0  0  0  0
  192.3770  173.2890  141.6570 C   0  0  0  0  0  1  0  0  0  0  0  0
  187.6870  176.5900  146.8380 C   0  0  0  0  0  2  0  0  0  0  0  0
  186.7080  177.4190  141.7230 C   0  0  0  0  0  3  0  0  0  0  0  0
  184.4320  177.8310  143.1910 N   0  0  0  0  0  0  0  0  0  0  0  0
  184.4460  178.1930  141.8820 C   0  0  0  0  0  3  0  0  0  0  0  0
  185.9720  178.1280  145.9660 N   0  0  0  0  0  2  0  0  0  0  0  0
  190.1900  176.7370  144.2860 C   0  0  0  0  0  0  0  0  0  0  0  0
  188.7990  177.1170  145.9800 C   0  0  2  0  0  3  0  0  0  0  0  0
  190.1640  175.8620  143.2940 C   0  0  0  0  0  0  0  0  0  0  0  0
  191.8190  175.5670  145.7780 C   0  0  0  0  0  1  0  0  0  0  0  0
  187.9400  176.4100  143.6380 C   0  0  1  0  0  3  0  0  0  0  0  0
  1  6  1  0  0  0  0
  4 20  2  0  0  0  0
  4 22  1  0  0  0  0
  5 27  1  1  0  0  0
  5 17  1  0  0  0  0
  6 23  1  0  0  0  0
  7  8  2  0  0  0  0
  8  2  2  0  0  0  0
  8 10  1  0  0  0  0
  9 13  2  0  0  0  0
 10 26  2  0  0  0  0
 12 25  1  0  0  0  0
 13 26  1  0  0  0  0
 14  8  1  0  0  0  0
 14  9  1  0  0  0  0
 15 11  1  6  0  0  0
 16 28  1  0  0  0  0
 16  1  2  0  0  0  0
 17  3  1  0  0  0  0
 18  9  1  0  0  0  0
 19 15  1  0  0  0  0
 20 16  1  0  0  0  0
 21  1  1  0  0  0  0
 22 21  2  0  0  0  0
 23 15  1  0  0  0  0
 24 12  2  0  0  0  0
 24  5  1  0  0  0  0
 25 17  1  0  0  0  0
 25 19  1  1  0  0  0
 26 24  1  0  0  0  0
 28 10  1  6  0  0  0
 28 12  1  0  0  0  0
M  END
>  <MODEL>
1

>  <REMARK>
 VINA RESULT:      -8.4      0.000      0.000
  Name = 
  0 active torsions:
  status: ('A' for Active; 'I' for Inactive)
                            x       y       z     vdW  Elec       q    Type
                         _______ _______ _______ _____ _____    ______ ____

>  <TORSDO>
F 0

$$$$
=
 OpenBabel11112417373D

 28 32  0  0  1  0  0  0  0  0999 V2000
  186.0010  178.3680  144.4180 C   0  0  0  0  0  0  0  0  0  0  0  0
  190.0670  177.6400  146.0670 O   0  0  0  0  0  0  0  0  0  0  0  0
  187.8400  175.1950  139.1220 C   0  0  0  0  0  1  0  0  0  0  0  0
  185.4200  177.2230  146.8830 C   0  0  0  0  0  3  0  0  0  0  0  0
  188.5910  174.1190  141.3410 C   0  0  2  0  0  3  0  0  0  0  0  0
  186.1670  178.9820  143.0840 C   0  0  0  0  0  2  0  0  0  0  0  0
  188.8750  175.8220  147.2450 O   0  0  0  0  0  0  0  0  0  0  0  0
  189.6640  176.1940  146.0230 S   0  0  0  0  0  0  0  0  0  0  0  0
  191.2460  174.1700  144.9220 C   0  0  0  0  0  0  0  0  0  0  0  0
  188.7860  175.8570  144.5600 C   0  0  0  0  0  0  0  0  0  0  0  0
  185.2060  177.5310  139.8110 C   0  0  0  0  0  1  0  0  0  0  0  0
  187.5280  175.7980  142.7240 C   0  0  0  0  0  0  0  0  0  0  0  0
  190.3870  173.9640  143.9610 N   0  0  0  0  0  0  0  0  0  0  0  0
  191.0730  175.1920  145.9220 N   0  0  0  0  0  2  0  0  0  0  0  0
  186.0450  178.2410  140.8580 C   0  0  2  0  0  3  0  0  0  0  0  0
  186.7190  177.2150  144.8170 C   0  0  0  0  0  0  0  0  0  0  0  0
  187.9040  175.1530  140.5750 N   0  0  0  0  0  0  0  0  0  0  0  0
  192.4650  173.3210  144.9830 C   0  0  0  0  0  1  0  0  0  0  0  0
  187.4320  177.6100  140.9810 C   0  0  0  0  0  2  0  0  0  0  0  0
  186.3880  176.6540  146.0610 C   0  0  0  0  0  3  0  0  0  0  0  0
  185.0550  178.9010  145.2380 N   0  0  0  0  0  0  0  0  0  0  0  0
  184.7580  178.3670  146.4500 C   0  0  0  0  0  3  0  0  0  0  0  0
  185.3490  178.2470  142.1330 N   0  0  0  0  0  2  0  0  0  0  0  0
  188.3700  174.6300  142.7240 C   0  0  0  0  0  0  0  0  0  0  0  0
  187.4210  176.1850  141.4460 C   0  0  2  0  0  3  0  0  0  0  0  0
  189.1800  174.7100  143.7660 C   0  0  0  0  0  0  0  0  0  0  0  0
  190.0680  174.1040  140.9660 C   0  0  0  0  0  1  0  0  0  0  0  0
  187.7680  176.5330  143.9920 C   0  0  1  0  0  3  0  0  0  0  0  0
  1 16  2  0  0  0  0
  1 21  1  0  0  0  0
  3 17  1  0  0  0  0
  5 27  1  6  0  0  0
  5 24  1  0  0  0  0
  6  1  1  0  0  0  0
  8  2  2  0  0  0  0
  8  7  2  0  0  0  0
  9 18  1  0  0  0  0
  9 14  1  0  0  0  0
 10  8  1  0  0  0  0
 13  9  2  0  0  0  0
 14  8  1  0  0  0  0
 15 11  1  6  0  0  0
 15 19  1  0  0  0  0
 15 23  1  0  0  0  0
 16 20  1  0  0  0  0
 17  5  1  0  0  0  0
 17 25  1  0  0  0  0
 20  4  2  0  0  0  0
 21 22  2  0  0  0  0
 22  4  1  0  0  0  0
 23  6  1  0  0  0  0
 24 12  2  0  0  0  0
 24 26  1  0  0  0  0
 25 19  1  1  0  0  0
 25 12  1  0  0  0  0
 26 13  1  0  0  0  0
 26 10  2  0  0  0  0
 28 12  1  6  0  0  0
 28 10  1  0  0  0  0
 28 16  1  0  0  0  0
M  END
>  <MODEL>
2

>  <REMARK>
 VINA RESULT:      -8.4      2.599      4.842
  Name = 
  0 active torsions:
  status: ('A' for Active; 'I' for Inactive)
                            x       y       z     vdW  Elec       q    Type
                         _______ _______ _______ _____ _____    ______ ____

>  <TORSDO>
F 0

$$$$
=
 OpenBabel11112417373D

 28 32  0  0  1  0  0  0  0  0999 V2000
  190.9650  174.5660  141.6360 C   0  0  0  0  0  0  0  0  0  0  0  0
  188.5580  178.2830  141.2250 O   0  0  0  0  0  0  0  0  0  0  0  0
  191.2800  175.7530  147.9600 C   0  0  0  0  0  1  0  0  0  0  0  0
  188.7310  173.6480  140.2610 C   0  0  0  0  0  3  0  0  0  0  0  0
  188.9640  176.1520  146.9010 C   0  0  2  0  0  3  0  0  0  0  0  0
  192.2020  174.9170  142.3660 C   0  0  0  0  0  2  0  0  0  0  0  0
  186.7000  176.6510  141.2030 O   0  0  0  0  0  0  0  0  0  0  0  0
  187.5500  177.5450  142.0590 S   0  0  0  0  0  0  0  0  0  0  0  0
  186.3050  178.6270  144.3160 C   0  0  0  0  0  0  0  0  0  0  0  0
  188.3470  176.6590  143.3250 C   0  0  0  0  0  0  0  0  0  0  0  0
  193.2340  173.7380  145.7260 C   0  0  0  0  0  1  0  0  0  0  0  0
  189.6640  175.4820  144.6820 C   0  0  0  0  0  0  0  0  0  0  0  0
  186.9010  177.7750  145.1050 N   0  0  0  0  0  0  0  0  0  0  0  0
  186.5370  178.6730  142.8950 N   0  0  0  0  0  2  0  0  0  0  0  0
  192.9820  174.6900  144.5710 C   0  0  2  0  0  3  0  0  0  0  0  0
  189.6830  174.9720  142.0780 C   0  0  0  0  0  0  0  0  0  0  0  0
  190.3670  175.7590  146.8270 N   0  0  0  0  0  0  0  0  0  0  0  0
  185.3540  179.6030  144.9090 C   0  0  0  0  0  1  0  0  0  0  0  0
  192.1270  175.8800  145.0070 C   0  0  0  0  0  2  0  0  0  0  0  0
  188.5760  174.4760  141.3690 C   0  0  0  0  0  3  0  0  0  0  0  0
  191.0880  173.7500  140.5540 N   0  0  0  0  0  0  0  0  0  0  0  0
  190.0140  173.2950  139.8590 C   0  0  0  0  0  3  0  0  0  0  0  0
  192.3730  173.9760  143.4620 N   0  0  0  0  0  2  0  0  0  0  0  0
  188.5810  176.0170  145.4660 C   0  0  0  0  0  0  0  0  0  0  0  0
  190.7490  175.5110  145.4670 C   0  0  2  0  0  3  0  0  0  0  0  0
  187.8500  176.7890  144.6800 C   0  0  2  0  0  3  0  0  0  0  0  0
  188.8640  177.5930  147.3860 C   0  0  0  0  0  1  0  0  0  0  0  0
  189.4250  175.8520  143.2640 C   0  0  0  0  0  0  0  0  0  0  0  0
  1 16  1  0  0  0  0
  1  6  1  0  0  0  0
  2  8  2  0  0  0  0
  4 20  1  0  0  0  0
  5 27  1  6  0  0  0
  6 23  1  0  0  0  0
  7  8  2  0  0  0  0
  8 14  1  0  0  0  0
  8 10  1  0  0  0  0
  9 18  1  0  0  0  0
  9 13  2  0  0  0  0
 12 24  2  0  0  0  0
 12 25  1  0  0  0  0
 14  9  1  0  0  0  0
 15 19  1  0  0  0  0
 15 11  1  1  0  0  0
 16 28  1  0  0  0  0
 17  5  1  0  0  0  0
 17  3  1  0  0  0  0
 20 16  2  0  0  0  0
 21  1  2  0  0  0  0
 22  4  2  0  0  0  0
 22 21  1  0  0  0  0
 23 15  1  0  0  0  0
 24  5  1  0  0  0  0
 25 19  1  6  0  0  0
 25 17  1  0  0  0  0
 26 10  1  1  0  0  0
 26 13  1  0  0  0  0
 26 24  1  0  0  0  0
 28 10  2  0  0  0  0
 28 12  1  0  0  0  0
M  END
>  <MODEL>
3

>  <REMARK>
 VINA RESULT:      -7.9      1.901      5.365
  Name = 
  0 active torsions:
  status: ('A' for Active; 'I' for Inactive)
                            x       y       z     vdW  Elec       q    Type
                         _______ _______ _______ _____ _____    ______ ____

>  <TORSDO>
F 0

$$$$
=
 OpenBabel11112417373D

 28 32  0  0  1  0  0  0  0  0999 V2000
  191.5350  174.0590  144.4780 C   0  0  0  0  0  0  0  0  0  0  0  0
  188.3270  175.3470  147.2770 O   0  0  0  0  0  0  0  0  0  0  0  0
  187.5400  175.4690  139.6260 C   0  0  0  0  0  1  0  0  0  0  0  0
  192.8750  175.8990  146.0720 C   0  0  0  0  0  3  0  0  0  0  0  0
  187.5660  177.1960  141.5390 C   0  0  2  0  0  3  0  0  0  0  0  0
  190.9460  173.0640  143.5570 C   0  0  0  0  0  2  0  0  0  0  0  0
  189.6820  177.4160  147.3120 O   0  0  0  0  0  0  0  0  0  0  0  0
  188.5350  176.7000  146.6570 S   0  0  0  0  0  0  0  0  0  0  0  0
  186.4600  178.3150  145.7110 C   0  0  0  0  0  0  0  0  0  0  0  0
  188.7650  176.5480  144.9400 C   0  0  0  0  0  0  0  0  0  0  0  0
  190.4640  173.4080  139.8970 C   0  0  0  0  0  1  0  0  0  0  0  0
  189.2330  176.0070  142.8310 C   0  0  0  0  0  0  0  0  0  0  0  0
  186.8720  178.1940  144.4780 N   0  0  0  0  0  0  0  0  0  0  0  0
  187.0970  177.6500  146.8180 N   0  0  0  0  0  2  0  0  0  0  0  0
  190.1520  173.0750  141.3450 C   0  0  2  0  0  3  0  0  0  0  0  0
  190.9050  175.2930  144.7650 C   0  0  0  0  0  0  0  0  0  0  0  0
  188.0190  175.9610  140.9080 N   0  0  0  0  0  0  0  0  0  0  0  0
  185.2730  179.1660  145.9850 C   0  0  0  0  0  1  0  0  0  0  0  0
  188.8560  173.7420  141.8030 C   0  0  0  0  0  2  0  0  0  0  0  0
  191.6170  176.2060  145.5600 C   0  0  0  0  0  3  0  0  0  0  0  0
  192.7680  173.7870  144.9860 N   0  0  0  0  0  0  0  0  0  0  0  0
  193.4400  174.6650  145.7740 C   0  0  0  0  0  3  0  0  0  0  0  0
  191.2700  173.4510  142.1930 N   0  0  0  0  0  2  0  0  0  0  0  0
  188.3390  177.1350  142.8130 C   0  0  0  0  0  0  0  0  0  0  0  0
  188.8940  175.2410  141.7860 C   0  0  2  0  0  3  0  0  0  0  0  0
  187.9890  177.3990  144.0610 C   0  0  0  0  0  0  0  0  0  0  0  0
  186.0630  177.1250  141.7780 C   0  0  0  0  0  1  0  0  0  0  0  0
  189.5590  175.7070  144.2490 C   0  0  1  0  0  3  0  0  0  0  0  0
  1 16  2  0  0  0  0
  1 21  1  0  0  0  0
  3 17  1  0  0  0  0
  5 27  1  1  0  0  0
  5 24  1  0  0  0  0
  6  1  1  0  0  0  0
  8 14  1  0  0  0  0
  8  2  2  0  0  0  0
  8  7  2  0  0  0  0
  9 18  1  0  0  0  0
  9 14  1  0  0  0  0
 10  8  1  0  0  0  0
 13  9  2  0  0  0  0
 15 11  1  6  0  0  0
 15 19  1  0  0  0  0
 15 23  1  0  0  0  0
 16 20  1  0  0  0  0
 17  5  1  0  0  0  0
 17 25  1  0  0  0  0
 20  4  2  0  0  0  0
 21 22  2  0  0  0  0
 22  4  1  0  0  0  0
 23  6  1  0  0  0  0
 24 12  2  0  0  0  0
 24 26  1  0  0  0  0
 25 19  1  1  0  0  0
 25 12  1  0  0  0  0
 26 13  1  0  0  0  0
 26 10  2  0  0  0  0
 28 12  1  6  0  0  0
 28 16  1  0  0  0  0
 28 10  1  0  0  0  0
M  END
>  <MODEL>
4

>  <REMARK>
 VINA RESULT:      -7.9      2.591      6.859
  Name = 
  0 active torsions:
  status: ('A' for Active; 'I' for Inactive)
                            x       y       z     vdW  Elec       q    Type
                         _______ _______ _______ _____ _____    ______ ____

>  <TORSDO>
F 0

$$$$
=
 OpenBabel11112417373D

 28 32  0  0  1  0  0  0  0  0999 V2000
  187.7940  176.8460  145.1720 C   0  0  0  0  0  0  0  0  0  0  0  0
  187.4410  173.7180  142.0300 O   0  0  0  0  0  0  0  0  0  0  0  0
  193.8920  174.9570  146.0330 C   0  0  0  0  0  1  0  0  0  0  0  0
  186.8320  178.3110  143.0150 C   0  0  0  0  0  3  0  0  0  0  0  0
  193.1500  175.1190  143.5700 C   0  0  2  0  0  3  0  0  0  0  0  0
  188.3080  176.1920  146.3940 C   0  0  0  0  0  2  0  0  0  0  0  0
  187.8160  175.6660  140.5530 O   0  0  0  0  0  0  0  0  0  0  0  0
  188.4680  174.5410  141.3050 S   0  0  0  0  0  0  0  0  0  0  0  0
  190.7880  173.4820  140.1610 C   0  0  0  0  0  0  0  0  0  0  0  0
  189.6720  175.1210  142.4180 C   0  0  0  0  0  0  0  0  0  0  0  0
  191.5660  176.7910  148.0570 C   0  0  0  0  0  1  0  0  0  0  0  0
  190.9130  175.8760  144.1060 C   0  0  0  0  0  0  0  0  0  0  0  0
  191.5480  174.1170  141.0120 N   0  0  0  0  0  0  0  0  0  0  0  0
  189.3490  173.5430  140.1980 N   0  0  0  0  0  2  0  0  0  0  0  0
  190.3880  176.0320  147.4750 C   0  0  2  0  0  3  0  0  0  0  0  0
  188.3820  176.6470  143.9000 C   0  0  0  0  0  0  0  0  0  0  0  0
  192.9060  175.2450  145.0030 N   0  0  0  0  0  0  0  0  0  0  0  0
  191.4330  172.6460  139.1150 C   0  0  0  0  0  1  0  0  0  0  0  0
  190.8470  174.9860  146.4580 C   0  0  0  0  0  2  0  0  0  0  0  0
  187.8820  177.4150  142.8360 C   0  0  0  0  0  3  0  0  0  0  0  0
  186.7730  177.7340  145.3200 N   0  0  0  0  0  0  0  0  0  0  0  0
  186.2790  178.4550  144.2820 C   0  0  0  0  0  3  0  0  0  0  0  0
  189.4390  176.9610  146.8880 N   0  0  0  0  0  2  0  0  0  0  0  0
  191.8000  175.4760  143.0440 C   0  0  0  0  0  0  0  0  0  0  0  0
  191.5290  175.5590  145.2520 C   0  0  2  0  0  3  0  0  0  0  0  0
  191.0690  174.9440  142.0790 C   0  0  0  0  0  0  0  0  0  0  0  0
  193.5290  173.6800  143.2420 C   0  0  0  0  0  1  0  0  0  0  0  0
  189.5200  175.7110  143.6210 C   0  0  1  0  0  3  0  0  0  0  0  0
  1 21  1  0  0  0  0
  1  6  1  0  0  0  0
  4 22  1  0  0  0  0
  5 27  1  1  0  0  0
  5 17  1  0  0  0  0
  6 23  1  0  0  0  0
  7  8  2  0  0  0  0
  8  2  2  0  0  0  0
  8 10  1  0  0  0  0
  9 14  1  0  0  0  0
  9 13  2  0  0  0  0
 12 25  1  0  0  0  0
 13 26  1  0  0  0  0
 14  8  1  0  0  0  0
 15 11  1  6  0  0  0
 16  1  2  0  0  0  0
 17 25  1  0  0  0  0
 17  3  1  0  0  0  0
 18  9  1  0  0  0  0
 19 15  1  0  0  0  0
 20  4  2  0  0  0  0
 20 16  1  0  0  0  0
 22 21  2  0  0  0  0
 23 15  1  0  0  0  0
 24  5  1  0  0  0  0
 24 12  2  0  0  0  0
 25 19  1  6  0  0  0
 26 10  2  0  0  0  0
 26 24  1  0  0  0  0
 28 10  1  6  0  0  0
 28 16  1  0  0  0  0
 28 12  1  0  0  0  0
M  END
>  <MODEL>
5

>  <REMARK>
 VINA RESULT:      -7.6      1.598      2.812
  Name = 
  0 active torsions:
  status: ('A' for Active; 'I' for Inactive)
                            x       y       z     vdW  Elec       q    Type
                         _______ _______ _______ _____ _____    ______ ____

>  <TORSDO>
F 0

$$$$
=
 OpenBabel11112417373D

 28 32  0  0  1  0  0  0  0  0999 V2000
  186.7650  176.7440  143.4320 C   0  0  0  0  0  0  0  0  0  0  0  0
  187.3020  172.7100  141.6380 O   0  0  0  0  0  0  0  0  0  0  0  0
  192.0690  175.6390  146.9160 C   0  0  0  0  0  1  0  0  0  0  0  0
  186.6910  177.3150  140.7140 C   0  0  0  0  0  3  0  0  0  0  0  0
  192.2220  174.8980  144.4520 C   0  0  2  0  0  3  0  0  0  0  0  0
  186.7880  176.5820  144.9010 C   0  0  0  0  0  2  0  0  0  0  0  0
  188.2820  174.0480  139.8040 O   0  0  0  0  0  0  0  0  0  0  0  0
  188.5650  173.2930  141.0720 S   0  0  0  0  0  0  0  0  0  0  0  0
  191.0620  172.0470  141.2260 C   0  0  0  0  0  0  0  0  0  0  0  0
  189.3520  174.2920  142.2570 C   0  0  0  0  0  0  0  0  0  0  0  0
  189.3170  177.9130  147.2630 C   0  0  0  0  0  1  0  0  0  0  0  0
  189.9910  175.6560  143.8980 C   0  0  0  0  0  0  0  0  0  0  0  0
  191.5260  172.9810  142.0120 N   0  0  0  0  0  0  0  0  0  0  0  0
  189.7040  172.0300  140.7470 N   0  0  0  0  0  2  0  0  0  0  0  0
  188.3610  176.9300  146.6120 C   0  0  2  0  0  3  0  0  0  0  0  0
  187.7360  176.1540  142.5890 C   0  0  0  0  0  0  0  0  0  0  0  0
  191.5140  175.4940  145.5790 N   0  0  0  0  0  0  0  0  0  0  0  0
  191.9690  170.9430  140.8180 C   0  0  0  0  0  1  0  0  0  0  0  0
  189.0700  175.6290  146.2390 C   0  0  0  0  0  2  0  0  0  0  0  0
  187.6790  176.4770  141.2230 C   0  0  0  0  0  3  0  0  0  0  0  0
  185.8140  177.5650  142.9090 N   0  0  0  0  0  0  0  0  0  0  0  0
  185.7500  177.8530  141.5840 C   0  0  0  0  0  3  0  0  0  0  0  0
  187.7310  177.5420  145.4550 N   0  0  0  0  0  2  0  0  0  0  0  0
  191.1580  174.9690  143.4090 C   0  0  0  0  0  0  0  0  0  0  0  0
  190.1580  175.7910  145.2200 C   0  0  2  0  0  3  0  0  0  0  0  0
  190.7670  174.0940  142.4980 C   0  0  0  0  0  0  0  0  0  0  0  0
  192.5970  173.4600  144.7890 C   0  0  0  0  0  1  0  0  0  0  0  0
  188.8380  175.2500  143.0540 C   0  0  1  0  0  3  0  0  0  0  0  0
  1  6  1  0  0  0  0
  4 20  2  0  0  0  0
  4 22  1  0  0  0  0
  5 27  1  1  0  0  0
  5 17  1  0  0  0  0
  6 23  1  0  0  0  0
  7  8  2  0  0  0  0
  8  2  2  0  0  0  0
  8 10  1  0  0  0  0
  9 13  2  0  0  0  0
 10 26  2  0  0  0  0
 12 25  1  0  0  0  0
 13 26  1  0  0  0  0
 14  8  1  0  0  0  0
 14  9  1  0  0  0  0
 15 11  1  6  0  0  0
 16 28  1  0  0  0  0
 16  1  2  0  0  0  0
 17  3  1  0  0  0  0
 18  9  1  0  0  0  0
 19 15  1  0  0  0  0
 20 16  1  0  0  0  0
 21  1  1  0  0  0  0
 22 21  2  0  0  0  0
 23 15  1  0  0  0  0
 24 12  2  0  0  0  0
 24  5  1  0  0  0  0
 25 17  1  0  0  0  0
 25 19  1  1  0  0  0
 26 24  1  0  0  0  0
 28 10  1  6  0  0  0
 28 12  1  0  0  0  0
M  END
>  <MODEL>
6

>  <REMARK>
 VINA RESULT:      -7.5      1.489      1.904
  Name = 
  0 active torsions:
  status: ('A' for Active; 'I' for Inactive)
                            x       y       z     vdW  Elec       q    Type
                         _______ _______ _______ _____ _____    ______ ____

>  <TORSDO>
F 0

$$$$
=
 OpenBabel11112417373D

 28 32  0  0  1  0  0  0  0  0999 V2000
  190.5610  175.7440  142.9210 C   0  0  0  0  0  0  0  0  0  0  0  0
  187.9970  178.2910  140.3280 O   0  0  0  0  0  0  0  0  0  0  0  0
  186.8520  177.4840  147.8920 C   0  0  0  0  0  1  0  0  0  0  0  0
  189.8520  173.9710  140.9030 C   0  0  0  0  0  3  0  0  0  0  0  0
  185.5660  176.9290  145.7280 C   0  0  2  0  0  3  0  0  0  0  0  0
  191.0110  176.5780  144.0550 C   0  0  0  0  0  2  0  0  0  0  0  0
  186.9770  176.1020  139.7980 O   0  0  0  0  0  0  0  0  0  0  0  0
  186.9170  177.3100  140.6870 S   0  0  0  0  0  0  0  0  0  0  0  0
  184.3750  178.0510  141.5810 C   0  0  0  0  0  0  0  0  0  0  0  0
  187.0270  176.8800  142.3690 C   0  0  0  0  0  0  0  0  0  0  0  0
  190.1670  176.1350  147.6380 C   0  0  0  0  0  1  0  0  0  0  0  0
  187.5610  176.3760  144.4710 C   0  0  0  0  0  0  0  0  0  0  0  0
  184.5950  177.5410  142.7620 N   0  0  0  0  0  0  0  0  0  0  0  0
  185.3640  178.0600  140.5340 N   0  0  0  0  0  2  0  0  0  0  0  0
  190.3990  176.8320  146.3100 C   0  0  2  0  0  3  0  0  0  0  0  0
  189.2090  175.6940  142.5060 C   0  0  0  0  0  0  0  0  0  0  0  0
  186.7970  177.0650  146.5000 N   0  0  0  0  0  0  0  0  0  0  0  0
  183.0480  178.6630  141.3050 C   0  0  0  0  0  1  0  0  0  0  0  0
  189.1850  177.6640  145.8970 C   0  0  0  0  0  2  0  0  0  0  0  0
  188.8830  174.7750  141.4960 C   0  0  0  0  0  3  0  0  0  0  0  0
  191.4870  174.9420  142.3290 N   0  0  0  0  0  0  0  0  0  0  0  0
  191.1690  174.0740  141.3350 C   0  0  0  0  0  3  0  0  0  0  0  0
  190.7460  175.8580  145.2910 N   0  0  0  0  0  2  0  0  0  0  0  0
  186.1320  176.5460  144.4020 C   0  0  0  0  0  0  0  0  0  0  0  0
  187.9410  176.8610  145.6610 C   0  0  2  0  0  3  0  0  0  0  0  0
  185.8250  176.9340  143.1760 C   0  0  2  0  0  3  0  0  0  0  0  0
  184.8460  178.2710  145.6760 C   0  0  0  0  0  1  0  0  0  0  0  0
  188.1020  176.5160  143.0960 C   0  0  0  0  0  0  0  0  0  0  0  0
  1  6  1  0  0  0  0
  2  8  2  0  0  0  0
  4 22  2  0  0  0  0
  4 20  1  0  0  0  0
  5 27  1  6  0  0  0
  5 17  1  0  0  0  0
  6 23  1  0  0  0  0
  7  8  2  0  0  0  0
  8 10  1  0  0  0  0
  9 13  2  0  0  0  0
 10 28  2  0  0  0  0
 12 25  1  0  0  0  0
 13 26  1  0  0  0  0
 14  8  1  0  0  0  0
 14  9  1  0  0  0  0
 15 11  1  1  0  0  0
 16  1  1  0  0  0  0
 16 28  1  0  0  0  0
 17  3  1  0  0  0  0
 18  9  1  0  0  0  0
 19 15  1  0  0  0  0
 20 16  2  0  0  0  0
 21  1  2  0  0  0  0
 22 21  1  0  0  0  0
 23 15  1  0  0  0  0
 24 12  2  0  0  0  0
 24  5  1  0  0  0  0
 25 19  1  6  0  0  0
 25 17  1  0  0  0  0
 26 10  1  1  0  0  0
 26 24  1  0  0  0  0
 28 12  1  0  0  0  0
M  END
>  <MODEL>
7

>  <REMARK>
 VINA RESULT:      -7.4      1.418      5.221
  Name = 
  0 active torsions:
  status: ('A' for Active; 'I' for Inactive)
                            x       y       z     vdW  Elec       q    Type
                         _______ _______ _______ _____ _____    ______ ____

>  <TORSDO>
F 0

$$$$
=
 OpenBabel11112417373D

 28 32  0  0  1  0  0  0  0  0999 V2000
  189.6710  175.5970  146.1660 C   0  0  0  0  0  0  0  0  0  0  0  0
  188.8280  172.2120  143.4080 O   0  0  0  0  0  0  0  0  0  0  0  0
  195.6090  175.8320  143.6790 C   0  0  0  0  0  1  0  0  0  0  0  0
  187.3450  176.4520  144.9100 C   0  0  0  0  0  3  0  0  0  0  0  0
  193.7270  175.4960  141.9500 C   0  0  2  0  0  3  0  0  0  0  0  0
  190.9080  175.2680  146.9070 C   0  0  0  0  0  2  0  0  0  0  0  0
  187.7580  174.0140  142.0960 O   0  0  0  0  0  0  0  0  0  0  0  0
  189.0220  173.2370  142.3280 S   0  0  0  0  0  0  0  0  0  0  0  0
  190.6540  172.8540  140.0920 C   0  0  0  0  0  0  0  0  0  0  0  0
  190.3580  174.2800  142.7200 C   0  0  0  0  0  0  0  0  0  0  0  0
  194.1620  177.0350  146.7340 C   0  0  0  0  0  1  0  0  0  0  0  0
  191.9550  175.5580  143.5990 C   0  0  0  0  0  0  0  0  0  0  0  0
  191.4840  173.7810  140.4870 N   0  0  0  0  0  0  0  0  0  0  0  0
  189.4980  172.4610  140.8550 N   0  0  0  0  0  2  0  0  0  0  0  0
  193.1710  175.8860  146.7720 C   0  0  2  0  0  3  0  0  0  0  0  0
  189.5710  175.4630  144.7610 C   0  0  0  0  0  0  0  0  0  0  0  0
  194.2090  175.6860  143.3140 N   0  0  0  0  0  0  0  0  0  0  0  0
  190.9190  172.1620  138.8030 C   0  0  0  0  0  1  0  0  0  0  0  0
  193.3680  174.9410  145.5870 C   0  0  0  0  0  2  0  0  0  0  0  0
  188.3880  175.9200  144.1570 C   0  0  0  0  0  3  0  0  0  0  0  0
  188.6390  176.1270  146.8770 N   0  0  0  0  0  0  0  0  0  0  0  0
  187.4880  176.5440  146.2890 C   0  0  0  0  0  3  0  0  0  0  0  0
  191.8140  176.4020  146.8180 N   0  0  0  0  0  2  0  0  0  0  0  0
  192.2650  175.3520  142.2080 C   0  0  0  0  0  0  0  0  0  0  0  0
  193.1270  175.5720  144.2490 C   0  0  2  0  0  3  0  0  0  0  0  0
  191.3680  174.5200  141.7080 C   0  0  0  0  0  0  0  0  0  0  0  0
  194.3330  174.2250  141.3680 C   0  0  0  0  0  1  0  0  0  0  0  0
  190.6470  174.9120  143.8750 C   0  0  1  0  0  3  0  0  0  0  0  0
  1 21  1  0  0  0  0
  1  6  1  0  0  0  0
  4 22  1  0  0  0  0
  5 27  1  1  0  0  0
  5 24  1  0  0  0  0
  5 17  1  0  0  0  0
  7  8  2  0  0  0  0
  8 10  1  0  0  0  0
  8  2  2  0  0  0  0
  9 13  2  0  0  0  0
  9 14  1  0  0  0  0
 12 28  1  0  0  0  0
 12 25  1  0  0  0  0
 13 26  1  0  0  0  0
 14  8  1  0  0  0  0
 15 11  1  6  0  0  0
 15 23  1  0  0  0  0
 16  1  2  0  0  0  0
 17  3  1  0  0  0  0
 17 25  1  0  0  0  0
 18  9  1  0  0  0  0
 19 15  1  0  0  0  0
 20 16  1  0  0  0  0
 20  4  2  0  0  0  0
 22 21  2  0  0  0  0
 23  6  1  0  0  0  0
 24 12  2  0  0  0  0
 25 19  1  6  0  0  0
 26 24  1  0  0  0  0
 26 10  2  0  0  0  0
 28 10  1  6  0  0  0
 28 16  1  0  0  0  0
M  END
>  <MODEL>
8

>  <REMARK>
 VINA RESULT:      -7.3      2.450      4.545
  Name = 
  0 active torsions:
  status: ('A' for Active; 'I' for Inactive)
                            x       y       z     vdW  Elec       q    Type
                         _______ _______ _______ _____ _____    ______ ____

>  <TORSDO>
F 0

$$$$
=
 OpenBabel11112417373D

 28 32  0  0  1  0  0  0  0  0999 V2000
  191.8200  174.4550  141.6990 C   0  0  0  0  0  0  0  0  0  0  0  0
  188.0670  176.8250  141.4190 O   0  0  0  0  0  0  0  0  0  0  0  0
  192.6460  176.9040  147.6000 C   0  0  0  0  0  1  0  0  0  0  0  0
  189.9690  172.5090  140.9880 C   0  0  0  0  0  3  0  0  0  0  0  0
  190.2320  176.1790  147.0600 C   0  0  2  0  0  3  0  0  0  0  0  0
  192.9040  175.3850  142.0800 C   0  0  0  0  0  2  0  0  0  0  0  0
  187.0660  174.6430  142.0130 O   0  0  0  0  0  0  0  0  0  0  0  0
  187.6020  175.9430  142.5420 S   0  0  0  0  0  0  0  0  0  0  0  0
  186.4080  176.8990  144.8820 C   0  0  0  0  0  0  0  0  0  0  0  0
  188.8870  175.6940  143.6860 C   0  0  0  0  0  0  0  0  0  0  0  0
  194.8620  175.3760  145.2280 C   0  0  0  0  0  1  0  0  0  0  0  0
  190.7730  175.3970  144.8330 C   0  0  0  0  0  0  0  0  0  0  0  0
  187.4220  176.5100  145.6070 N   0  0  0  0  0  0  0  0  0  0  0  0
  186.3660  176.7470  143.4500 N   0  0  0  0  0  2  0  0  0  0  0  0
  194.0570  175.9120  144.0590 C   0  0  2  0  0  3  0  0  0  0  0  0
  190.5750  174.4250  142.3710 C   0  0  0  0  0  0  0  0  0  0  0  0
  191.6400  176.3390  146.7130 N   0  0  0  0  0  0  0  0  0  0  0  0
  185.2510  177.5410  145.5590 C   0  0  0  0  0  1  0  0  0  0  0  0
  192.8720  176.7520  144.5370 C   0  0  0  0  0  2  0  0  0  0  0  0
  189.6700  173.4190  141.9980 C   0  0  0  0  0  3  0  0  0  0  0  0
  192.0890  173.5490  140.7190 N   0  0  0  0  0  0  0  0  0  0  0  0
  191.1990  172.5940  140.3470 C   0  0  0  0  0  3  0  0  0  0  0  0
  193.6230  174.8170  143.2100 N   0  0  0  0  0  2  0  0  0  0  0  0
  189.7100  175.6270  145.7760 C   0  0  0  0  0  0  0  0  0  0  0  0
  191.8620  175.9890  145.3410 C   0  0  2  0  0  3  0  0  0  0  0  0
  188.6090  175.8930  145.0940 C   0  0  2  0  0  3  0  0  0  0  0  0
  189.6290  177.5410  147.3840 C   0  0  0  0  0  1  0  0  0  0  0  0
  190.1760  175.3600  143.4740 C   0  0  0  0  0  0  0  0  0  0  0  0
  1  6  1  0  0  0  0
  1 16  1  0  0  0  0
  2  8  2  0  0  0  0
  4 20  1  0  0  0  0
  5 27  1  6  0  0  0
  6 23  1  0  0  0  0
  7  8  2  0  0  0  0
  8 14  1  0  0  0  0
  8 10  1  0  0  0  0
  9 18  1  0  0  0  0
  9 13  2  0  0  0  0
 12 25  1  0  0  0  0
 12 24  2  0  0  0  0
 14  9  1  0  0  0  0
 15 19  1  0  0  0  0
 15 11  1  1  0  0  0
 16 28  1  0  0  0  0
 17  5  1  0  0  0  0
 17  3  1  0  0  0  0
 20 16  2  0  0  0  0
 21  1  2  0  0  0  0
 22 21  1  0  0  0  0
 22  4  2  0  0  0  0
 23 15  1  0  0  0  0
 24  5  1  0  0  0  0
 25 19  1  6  0  0  0
 25 17  1  0  0  0  0
 26 10  1  6  0  0  0
 26 13  1  0  0  0  0
 26 24  1  0  0  0  0
 28 10  2  0  0  0  0
 28 12  1  0  0  0  0
M  END
>  <MODEL>
9

>  <REMARK>
 VINA RESULT:      -7.0      1.972      5.621
  Name = 
  0 active torsions:
  status: ('A' for Active; 'I' for Inactive)
                            x       y       z     vdW  Elec       q    Type
                         _______ _______ _______ _____ _____    ______ ____

>  <TORSDO>
F 0

$$$$
