=
 OpenBabel11112416443D

 32 38  0  0  1  0  0  0  0  0999 V2000
  187.2900  177.9240  146.9300 O   0  0  0  0  0  0  0  0  0  0  0  0
  191.4480  175.7160  144.8470 C   0  0  2  0  0  3  0  0  0  0  0  0
  190.1780  173.6740  140.5500 C   0  0  0  0  0  3  0  0  0  0  0  0
  191.4500  173.1170  140.4280 C   0  0  0  0  0  3  0  0  0  0  0  0
  193.9010  175.5550  145.4700 C   0  0  0  0  0  0  0  0  0  0  0  0
  195.3300  175.2920  145.0770 C   0  0  1  0  0  3  0  0  0  0  0  0
  189.8780  177.5110  145.6750 C   0  0  1  0  0  3  0  0  0  0  0  0
  189.2560  176.1580  143.7270 O   0  0  0  0  0  0  0  0  0  0  0  0
  196.7730  174.1600  143.6530 C   0  0  2  0  0  3  0  0  0  0  0  0
  187.6330  177.7850  144.5420 C   0  0  0  0  0  2  0  0  0  0  0  0
  189.8760  174.4860  141.6430 C   0  0  0  0  0  3  0  0  0  0  0  0
  190.5080  175.5290  143.6780 C   0  0  0  0  0  0  0  0  0  0  0  0
  190.8360  174.7490  142.6340 C   0  0  0  0  0  0  0  0  0  0  0  0
  193.1100  174.4990  143.3910 C   0  0  0  0  0  0  0  0  0  0  0  0
  197.1620  173.8070  145.0840 C   0  0  0  0  0  2  0  0  0  0  0  0
  187.7740  176.6020  146.9200 C   0  0  2  0  0  3  0  0  0  0  0  0
  189.0990  177.4250  144.3640 C   0  0  1  0  0  3  0  0  0  0  0  0
  196.0100  174.2630  145.9430 C   0  0  0  0  0  2  0  0  0  0  0  0
  189.2980  176.5710  146.7390 C   0  0  0  0  0  2  0  0  0  0  0  0
  186.9890  177.1590  145.7820 C   0  0  1  0  0  0  0  0  0  0  0  0
  192.4220  173.3840  141.3910 C   0  0  0  0  0  3  0  0  0  0  0  0
  192.1400  174.2050  142.5000 C   0  0  0  0  0  0  0  0  0  0  0  0
  194.4870  173.9100  143.2700 C   0  0  0  0  0  2  0  0  0  0  0  0
  191.3370  177.1490  145.3920 C   0  0  0  0  0  2  0  0  0  0  0  0
  193.6540  175.9790  146.6320 O   0  0  0  0  0  0  0  0  0  0  0  0
  197.8510  175.0220  143.0260 C   0  0  0  0  0  1  0  0  0  0  0  0
  192.8330  175.3360  144.5280 N   0  0  0  0  0  0  0  0  0  0  0  0
  195.5040  174.8850  143.6740 N   0  0  1  0  0  0  0  0  0  0  0  0
  185.5130  176.7850  145.7360 C   0  0  0  0  0  2  0  0  0  0  0  0
  184.6230  177.9770  145.9090 C   0  0  0  0  0  0  0  0  0  0  0  0
  184.2460  178.7960  144.7240 C   0  0  0  0  0  1  0  0  0  0  0  0
  184.2270  178.2960  147.0180 O   0  0  0  0  0  0  0  0  0  0  0  0
  2 24  1  6  0  0  0
  3 11  2  0  0  0  0
  4  3  1  0  0  0  0
  4 21  2  0  0  0  0
  5 25  2  0  0  0  0
  6  5  1  0  0  0  0
  6 18  1  1  0  0  0
  7 24  1  6  0  0  0
  7 19  1  0  0  0  0
  8 17  1  0  0  0  0
  9 26  1  1  0  0  0
  9 28  1  0  0  0  0
  9 15  1  0  0  0  0
 10 20  1  0  0  0  0
 11 13  1  0  0  0  0
 12  8  1  0  0  0  0
 12  2  1  0  0  0  0
 13 12  2  0  0  0  0
 14 27  1  0  0  0  0
 15 18  1  0  0  0  0
 16 19  1  6  0  0  0
 16  1  1  0  0  0  0
 17 10  1  1  0  0  0
 17  7  1  0  0  0  0
 20 29  1  6  0  0  0
 20 16  1  0  0  0  0
 20  1  1  0  0  0  0
 21 22  1  0  0  0  0
 22 13  1  0  0  0  0
 22 14  2  0  0  0  0
 23 14  1  0  0  0  0
 27  2  1  0  0  0  0
 27  5  1  0  0  0  0
 28 23  1  1  0  0  0
 28  6  1  0  0  0  0
 29 30  1  0  0  0  0
 30 32  2  0  0  0  0
 31 30  1  0  0  0  0
M  END
>  <MODEL>
1

>  <REMARK>
 VINA RESULT:      -8.7      0.000      0.000
  Name = 
  2 active torsions:
  status: ('A' for Active; 'I' for Inactive)
    1  A    between atoms: C_20  and  C_29
    2  A    between atoms: C_29  and  C_30
                            x       y       z     vdW  Elec       q    Type
                         _______ _______ _______ _____ _____    ______ ____

>  <TORSDO>
F 2

$$$$
=
 OpenBabel11112416443D

 32 38  0  0  1  0  0  0  0  0999 V2000
  187.4750  178.0570  146.9580 O   0  0  0  0  0  0  0  0  0  0  0  0
  191.1990  175.9780  144.0720 C   0  0  2  0  0  3  0  0  0  0  0  0
  189.1500  173.8210  140.1490 C   0  0  0  0  0  3  0  0  0  0  0  0
  190.3910  173.3130  139.7690 C   0  0  0  0  0  3  0  0  0  0  0  0
  193.7320  175.9220  144.1740 C   0  0  0  0  0  0  0  0  0  0  0  0
  195.0580  175.7090  143.4940 C   0  0  1  0  0  3  0  0  0  0  0  0
  189.7620  177.7240  145.1950 C   0  0  1  0  0  3  0  0  0  0  0  0
  188.8050  176.3180  143.4300 O   0  0  0  0  0  0  0  0  0  0  0  0
  196.2200  174.6100  141.8100 C   0  0  2  0  0  3  0  0  0  0  0  0
  187.3210  177.8930  144.5520 C   0  0  0  0  0  2  0  0  0  0  0  0
  189.0490  174.6380  141.2750 C   0  0  0  0  0  3  0  0  0  0  0  0
  190.0450  175.7370  143.1260 C   0  0  0  0  0  0  0  0  0  0  0  0
  190.1810  174.9540  142.0430 C   0  0  0  0  0  0  0  0  0  0  0  0
  192.5720  174.8040  142.3120 C   0  0  0  0  0  0  0  0  0  0  0  0
  196.9110  174.2950  143.1310 C   0  0  0  0  0  2  0  0  0  0  0  0
  188.0010  176.7540  146.8580 C   0  0  2  0  0  3  0  0  0  0  0  0
  188.7330  177.5880  144.0760 C   0  0  1  0  0  3  0  0  0  0  0  0
  195.9450  174.7200  144.2080 C   0  0  0  0  0  2  0  0  0  0  0  0
  189.4550  176.7790  146.3640 C   0  0  0  0  0  2  0  0  0  0  0  0
  186.9750  177.2620  145.9040 C   0  0  1  0  0  0  0  0  0  0  0  0
  191.5300  173.6320  140.5070 C   0  0  0  0  0  3  0  0  0  0  0  0
  191.4500  174.4580  141.6440 C   0  0  0  0  0  0  0  0  0  0  0  0
  193.9160  174.2670  141.9120 C   0  0  0  0  0  2  0  0  0  0  0  0
  191.1440  177.4140  144.6190 C   0  0  0  0  0  2  0  0  0  0  0  0
  193.7140  176.3550  145.3590 O   0  0  0  0  0  0  0  0  0  0  0  0
  197.1080  175.5040  140.9660 C   0  0  0  0  0  1  0  0  0  0  0  0
  192.5020  175.6470  143.4760 N   0  0  0  0  0  0  0  0  0  0  0  0
  194.9540  175.2860  142.0890 N   0  0  1  0  0  0  0  0  0  0  0  0
  185.5380  176.8310  146.1670 C   0  0  0  0  0  2  0  0  0  0  0  0
  184.6470  177.9940  146.4780 C   0  0  0  0  0  0  0  0  0  0  0  0
  184.0300  178.7690  145.3660 C   0  0  0  0  0  1  0  0  0  0  0  0
  184.4470  178.3280  147.6340 O   0  0  0  0  0  0  0  0  0  0  0  0
  2 24  1  6  0  0  0
  3 11  2  0  0  0  0
  4  3  1  0  0  0  0
  4 21  2  0  0  0  0
  5 25  2  0  0  0  0
  6  5  1  0  0  0  0
  6 18  1  1  0  0  0
  7 24  1  6  0  0  0
  7 19  1  0  0  0  0
  8 17  1  0  0  0  0
  9 26  1  6  0  0  0
  9 28  1  0  0  0  0
  9 15  1  0  0  0  0
 10 20  1  0  0  0  0
 11 13  1  0  0  0  0
 12  8  1  0  0  0  0
 12  2  1  0  0  0  0
 13 12  2  0  0  0  0
 14 27  1  0  0  0  0
 15 18  1  0  0  0  0
 16 19  1  6  0  0  0
 16  1  1  0  0  0  0
 17 10  1  1  0  0  0
 17  7  1  0  0  0  0
 20 29  1  1  0  0  0
 20 16  1  0  0  0  0
 20  1  1  0  0  0  0
 21 22  1  0  0  0  0
 22 13  1  0  0  0  0
 22 14  2  0  0  0  0
 23 14  1  0  0  0  0
 27  2  1  0  0  0  0
 27  5  1  0  0  0  0
 28 23  1  1  0  0  0
 28  6  1  0  0  0  0
 29 30  1  0  0  0  0
 30 32  2  0  0  0  0
 31 30  1  0  0  0  0
M  END
>  <MODEL>
2

>  <REMARK>
 VINA RESULT:      -8.5      1.026      1.158
  Name = 
  2 active torsions:
  status: ('A' for Active; 'I' for Inactive)
    1  A    between atoms: C_20  and  C_29
    2  A    between atoms: C_29  and  C_30
                            x       y       z     vdW  Elec       q    Type
                         _______ _______ _______ _____ _____    ______ ____

>  <TORSDO>
F 2

$$$$
=
 OpenBabel11112416443D

 32 38  0  0  1  0  0  0  0  0999 V2000
  186.8910  178.5530  144.9660 O   0  0  0  0  0  0  0  0  0  0  0  0
  191.2460  175.9630  144.0480 C   0  0  2  0  0  3  0  0  0  0  0  0
  190.5620  173.0430  140.1420 C   0  0  0  0  0  3  0  0  0  0  0  0
  191.8210  172.4770  140.3330 C   0  0  0  0  0  3  0  0  0  0  0  0
  193.5730  175.9470  145.0510 C   0  0  0  0  0  0  0  0  0  0  0  0
  195.0370  175.6110  144.9420 C   0  0  1  0  0  3  0  0  0  0  0  0
  189.6230  177.8890  144.2300 C   0  0  1  0  0  3  0  0  0  0  0  0
  189.2550  176.1480  142.5430 O   0  0  0  0  0  0  0  0  0  0  0  0
  196.6400  174.2040  144.0240 C   0  0  2  0  0  3  0  0  0  0  0  0
  187.5780  177.9060  142.7420 C   0  0  0  0  0  2  0  0  0  0  0  0
  190.1270  174.0700  140.9800 C   0  0  0  0  0  3  0  0  0  0  0  0
  190.4820  175.5270  142.8170 C   0  0  0  0  0  0  0  0  0  0  0  0
  190.9370  174.5420  142.0240 C   0  0  0  0  0  0  0  0  0  0  0  0
  193.0680  174.4680  143.1490 C   0  0  0  0  0  0  0  0  0  0  0  0
  196.8040  174.1670  145.5390 C   0  0  0  0  0  2  0  0  0  0  0  0
  187.3330  177.2610  145.3110 C   0  0  2  0  0  3  0  0  0  0  0  0
  189.0440  177.5210  142.8660 C   0  0  1  0  0  3  0  0  0  0  0  0
  195.5520  174.7930  146.0990 C   0  0  0  0  0  2  0  0  0  0  0  0
  188.8660  177.1970  145.3710 C   0  0  0  0  0  2  0  0  0  0  0  0
  186.7400  177.5580  143.9760 C   0  0  1  0  0  0  0  0  0  0  0  0
  192.6490  172.9470  141.3520 C   0  0  0  0  0  3  0  0  0  0  0  0
  192.2310  173.9860  142.2060 C   0  0  0  0  0  0  0  0  0  0  0  0
  194.4290  173.8710  143.3640 C   0  0  0  0  0  2  0  0  0  0  0  0
  191.0970  177.4790  144.2530 C   0  0  0  0  0  2  0  0  0  0  0  0
  193.1710  176.6100  146.0470 O   0  0  0  0  0  0  0  0  0  0  0  0
  197.8240  174.9150  143.3970 C   0  0  0  0  0  1  0  0  0  0  0  0
  192.6510  175.5280  144.0280 N   0  0  0  0  0  0  0  0  0  0  0  0
  195.4040  174.9130  143.7000 N   0  0  1  0  0  0  0  0  0  0  0  0
  185.2770  177.1780  143.7890 C   0  0  0  0  0  2  0  0  0  0  0  0
  184.4760  178.2940  143.1910 C   0  0  0  0  0  0  0  0  0  0  0  0
  184.1780  178.2910  141.7330 C   0  0  0  0  0  1  0  0  0  0  0  0
  184.0900  179.2190  143.8870 O   0  0  0  0  0  0  0  0  0  0  0  0
  1 16  1  0  0  0  0
  2 24  1  6  0  0  0
  3  4  1  0  0  0  0
  3 11  2  0  0  0  0
  4 21  2  0  0  0  0
  5 25  2  0  0  0  0
  6  5  1  0  0  0  0
  6 18  1  1  0  0  0
  7 24  1  6  0  0  0
  7 19  1  0  0  0  0
  8 12  1  0  0  0  0
  8 17  1  0  0  0  0
  9 26  1  6  0  0  0
  9 15  1  0  0  0  0
 10 20  1  0  0  0  0
 11 13  1  0  0  0  0
 12  2  1  0  0  0  0
 13 22  1  0  0  0  0
 13 12  2  0  0  0  0
 14 23  1  0  0  0  0
 14 27  1  0  0  0  0
 15 18  1  0  0  0  0
 16 19  1  6  0  0  0
 17 10  1  1  0  0  0
 17  7  1  0  0  0  0
 20 29  1  6  0  0  0
 20  1  1  0  0  0  0
 20 16  1  0  0  0  0
 21 22  1  0  0  0  0
 22 14  2  0  0  0  0
 27  2  1  0  0  0  0
 27  5  1  0  0  0  0
 28 23  1  1  0  0  0
 28  9  1  0  0  0  0
 28  6  1  0  0  0  0
 30 29  1  0  0  0  0
 30 32  2  0  0  0  0
 31 30  1  0  0  0  0
M  END
>  <MODEL>
3

>  <REMARK>
 VINA RESULT:      -8.2      1.246      1.405
  Name = 
  2 active torsions:
  status: ('A' for Active; 'I' for Inactive)
    1  A    between atoms: C_20  and  C_29
    2  A    between atoms: C_29  and  C_30
                            x       y       z     vdW  Elec       q    Type
                         _______ _______ _______ _____ _____    ______ ____

>  <TORSDO>
F 2

$$$$
=
 OpenBabel11112416443D

 32 38  0  0  1  0  0  0  0  0999 V2000
  186.2480  177.1280  141.3460 O   0  0  0  0  0  0  0  0  0  0  0  0
  190.7340  176.4320  143.7750 C   0  0  2  0  0  3  0  0  0  0  0  0
  190.2020  177.7300  148.4950 C   0  0  0  0  0  3  0  0  0  0  0  0
  191.5660  177.5410  148.7100 C   0  0  0  0  0  3  0  0  0  0  0  0
  193.0060  175.5120  143.1250 C   0  0  0  0  0  0  0  0  0  0  0  0
  194.3390  174.9350  143.5210 C   0  0  1  0  0  3  0  0  0  0  0  0
  188.5800  175.9000  142.5710 C   0  0  1  0  0  3  0  0  0  0  0  0
  188.5050  176.8680  144.8210 O   0  0  0  0  0  0  0  0  0  0  0  0
  196.0050  174.8310  145.1350 C   0  0  2  0  0  3  0  0  0  0  0  0
  186.3850  176.5010  143.6750 C   0  0  0  0  0  2  0  0  0  0  0  0
  189.6530  177.4610  147.2410 C   0  0  0  0  0  3  0  0  0  0  0  0
  189.8930  176.7680  144.9860 C   0  0  0  0  0  0  0  0  0  0  0  0
  190.4560  177.0090  146.1820 C   0  0  0  0  0  0  0  0  0  0  0  0
  192.6290  176.2830  145.4330 C   0  0  0  0  0  0  0  0  0  0  0  0
  196.6520  175.2800  143.8300 C   0  0  0  0  0  2  0  0  0  0  0  0
  187.3070  177.9950  141.6770 C   0  0  2  0  0  3  0  0  0  0  0  0
  187.8180  176.0390  143.8860 C   0  0  1  0  0  3  0  0  0  0  0  0
  195.5120  175.6710  142.9250 C   0  0  0  0  0  2  0  0  0  0  0  0
  188.6320  177.2280  141.8050 C   0  0  0  0  0  2  0  0  0  0  0  0
  186.2460  177.6410  142.6610 C   0  0  1  0  0  0  0  0  0  0  0  0
  192.3760  177.0720  147.6760 C   0  0  0  0  0  3  0  0  0  0  0  0
  191.8410  176.7910  146.4050 C   0  0  0  0  0  0  0  0  0  0  0  0
  194.1000  176.0700  145.6520 C   0  0  0  0  0  2  0  0  0  0  0  0
  189.9970  175.4180  142.8840 C   0  0  0  0  0  2  0  0  0  0  0  0
  192.6980  175.5580  141.9030 O   0  0  0  0  0  0  0  0  0  0  0  0
  196.4670  173.4280  145.4800 C   0  0  0  0  0  1  0  0  0  0  0  0
  192.0920  175.9920  144.1300 N   0  0  0  0  0  0  0  0  0  0  0  0
  194.5530  174.8520  144.9740 N   0  0  1  0  0  0  0  0  0  0  0  0
  185.1370  178.6670  142.8560 C   0  0  0  0  0  2  0  0  0  0  0  0
  185.1170  179.2200  144.2470 C   0  0  0  0  0  0  0  0  0  0  0  0
  184.0660  178.7740  145.2040 C   0  0  0  0  0  1  0  0  0  0  0  0
  185.9400  180.0510  144.5940 O   0  0  0  0  0  0  0  0  0  0  0  0
  1 16  1  0  0  0  0
  1 20  1  0  0  0  0
  2 24  1  1  0  0  0
  2 27  1  0  0  0  0
  2 12  1  0  0  0  0
  3  4  1  0  0  0  0
  5  6  1  0  0  0  0
  5 27  1  0  0  0  0
  6 18  1  6  0  0  0
  6 28  1  0  0  0  0
  7 19  1  1  0  0  0
  7 24  1  0  0  0  0
  7 17  1  0  0  0  0
  8 12  1  0  0  0  0
  9 26  1  6  0  0  0
 11  3  2  0  0  0  0
 12 13  2  0  0  0  0
 13 22  1  0  0  0  0
 13 11  1  0  0  0  0
 14 23  1  0  0  0  0
 14 22  2  0  0  0  0
 15  9  1  0  0  0  0
 16 19  1  1  0  0  0
 16 20  1  0  0  0  0
 17 10  1  6  0  0  0
 17  8  1  0  0  0  0
 18 15  1  0  0  0  0
 20 29  1  1  0  0  0
 20 10  1  0  0  0  0
 21  4  2  0  0  0  0
 22 21  1  0  0  0  0
 25  5  2  0  0  0  0
 27 14  1  0  0  0  0
 28  9  1  0  0  0  0
 28 23  1  1  0  0  0
 29 30  1  0  0  0  0
 30 32  2  0  0  0  0
 30 31  1  0  0  0  0
M  END
>  <MODEL>
4

>  <REMARK>
 VINA RESULT:      -8.1      1.991      4.157
  Name = 
  2 active torsions:
  status: ('A' for Active; 'I' for Inactive)
    1  A    between atoms: C_20  and  C_29
    2  A    between atoms: C_29  and  C_30
                            x       y       z     vdW  Elec       q    Type
                         _______ _______ _______ _____ _____    ______ ____

>  <TORSDO>
F 2

$$$$
=
 OpenBabel11112416443D

 32 38  0  0  1  0  0  0  0  0999 V2000
  194.6000  172.7810  141.8070 O   0  0  0  0  0  0  0  0  0  0  0  0
  190.7030  175.5220  143.7590 C   0  0  2  0  0  3  0  0  0  0  0  0
  191.9440  177.0570  148.2700 C   0  0  0  0  0  3  0  0  0  0  0  0
  190.6640  177.5750  148.4560 C   0  0  0  0  0  3  0  0  0  0  0  0
  188.4470  176.3010  142.9020 C   0  0  0  0  0  0  0  0  0  0  0  0
  187.2650  177.2280  143.0030 C   0  0  1  0  0  3  0  0  0  0  0  0
  192.6480  174.8800  142.2830 C   0  0  1  0  0  3  0  0  0  0  0  0
  193.0330  175.3630  144.6550 O   0  0  0  0  0  0  0  0  0  0  0  0
  185.9300  178.5250  144.3920 C   0  0  2  0  0  3  0  0  0  0  0  0
  194.9390  174.6290  143.3250 C   0  0  0  0  0  2  0  0  0  0  0  0
  192.2840  176.4640  147.0540 C   0  0  0  0  0  3  0  0  0  0  0  0
  191.7110  175.7860  144.8540 C   0  0  0  0  0  0  0  0  0  0  0  0
  191.3510  176.3710  146.0090 C   0  0  0  0  0  0  0  0  0  0  0  0
  189.1560  176.9210  145.1770 C   0  0  0  0  0  0  0  0  0  0  0  0
  185.0230  177.5410  143.6640 C   0  0  0  0  0  2  0  0  0  0  0  0
  193.5410  172.4610  142.6780 C   0  0  2  0  0  3  0  0  0  0  0  0
  193.6160  175.3780  143.3540 C   0  0  1  0  0  3  0  0  0  0  0  0
  185.9420  176.5080  143.0620 C   0  0  0  0  0  2  0  0  0  0  0  0
  192.3370  173.3880  142.4510 C   0  0  0  0  0  2  0  0  0  0  0  0
  194.7890  173.1140  143.1660 C   0  0  1  0  0  0  0  0  0  0  0  0
  189.7300  177.5110  147.4220 C   0  0  0  0  0  3  0  0  0  0  0  0
  190.0540  176.9210  146.1860 C   0  0  0  0  0  0  0  0  0  0  0  0
  187.7740  177.4790  145.3620 C   0  0  0  0  0  2  0  0  0  0  0  0
  191.3600  175.6990  142.3800 C   0  0  0  0  0  2  0  0  0  0  0  0
  188.5270  175.5160  141.9180 O   0  0  0  0  0  0  0  0  0  0  0  0
  185.6700  179.9320  143.8880 C   0  0  0  0  0  1  0  0  0  0  0  0
  189.4760  176.3200  143.9100 N   0  0  0  0  0  0  0  0  0  0  0  0
  187.3220  178.1560  144.1430 N   0  0  1  0  0  0  0  0  0  0  0  0
  195.8140  172.1990  143.8240 C   0  0  0  0  0  2  0  0  0  0  0  0
  195.7250  172.2360  145.3190 C   0  0  0  0  0  0  0  0  0  0  0  0
  196.8160  172.8720  146.1080 C   0  0  0  0  0  1  0  0  0  0  0  0
  194.7790  171.7250  145.8940 O   0  0  0  0  0  0  0  0  0  0  0  0
  1 16  1  0  0  0  0
  1 20  1  0  0  0  0
  2 24  1  6  0  0  0
  2 27  1  0  0  0  0
  2 12  1  0  0  0  0
  3  4  1  0  0  0  0
  5  6  1  0  0  0  0
  5 27  1  0  0  0  0
  6 18  1  1  0  0  0
  6 28  1  0  0  0  0
  7 24  1  1  0  0  0
  7 19  1  0  0  0  0
  7 17  1  0  0  0  0
  8 12  1  0  0  0  0
  9 26  1  6  0  0  0
 11  3  2  0  0  0  0
 12 13  2  0  0  0  0
 13 22  1  0  0  0  0
 13 11  1  0  0  0  0
 14 23  1  0  0  0  0
 14 22  2  0  0  0  0
 15  9  1  0  0  0  0
 16 19  1  6  0  0  0
 16 20  1  0  0  0  0
 17 10  1  1  0  0  0
 17  8  1  0  0  0  0
 18 15  1  0  0  0  0
 20 10  1  0  0  0  0
 20 29  1  1  0  0  0
 21  4  2  0  0  0  0
 22 21  1  0  0  0  0
 25  5  2  0  0  0  0
 27 14  1  0  0  0  0
 28  9  1  0  0  0  0
 28 23  1  1  0  0  0
 29 30  1  0  0  0  0
 30 32  2  0  0  0  0
 30 31  1  0  0  0  0
M  END
>  <MODEL>
5

>  <REMARK>
 VINA RESULT:      -7.8      2.581      8.488
  Name = 
  2 active torsions:
  status: ('A' for Active; 'I' for Inactive)
    1  A    between atoms: C_20  and  C_29
    2  A    between atoms: C_29  and  C_30
                            x       y       z     vdW  Elec       q    Type
                         _______ _______ _______ _____ _____    ______ ____

>  <TORSDO>
F 2

$$$$
=
 OpenBabel11112416443D

 32 38  0  0  1  0  0  0  0  0999 V2000
  195.5930  174.9160  146.3380 O   0  0  0  0  0  0  0  0  0  0  0  0
  190.6540  176.1100  145.5060 C   0  0  2  0  0  3  0  0  0  0  0  0
  189.3100  174.3380  141.1130 C   0  0  0  0  0  3  0  0  0  0  0  0
  188.0710  174.9650  141.2290 C   0  0  0  0  0  3  0  0  0  0  0  0
  188.8320  177.2580  146.8450 C   0  0  0  0  0  0  0  0  0  0  0  0
  187.3720  177.5380  147.0850 C   0  0  1  0  0  3  0  0  0  0  0  0
  192.6930  175.0160  146.5140 C   0  0  1  0  0  3  0  0  0  0  0  0
  192.0550  174.4990  144.2040 O   0  0  0  0  0  0  0  0  0  0  0  0
  185.2560  177.7380  146.1500 C   0  0  2  0  0  3  0  0  0  0  0  0
  194.1070  173.5010  145.0630 C   0  0  0  0  0  2  0  0  0  0  0  0
  190.2340  174.4270  142.1540 C   0  0  0  0  0  3  0  0  0  0  0  0
  190.8570  175.2210  144.3010 C   0  0  0  0  0  0  0  0  0  0  0  0
  189.9400  175.1490  143.3220 C   0  0  0  0  0  0  0  0  0  0  0  0
  188.3210  176.4030  144.5930 C   0  0  0  0  0  0  0  0  0  0  0  0
  185.5660  179.0410  146.8770 C   0  0  0  0  0  2  0  0  0  0  0  0
  194.9600  175.9550  145.6280 C   0  0  2  0  0  3  0  0  0  0  0  0
  192.7050  174.0010  145.3720 C   0  0  1  0  0  3  0  0  0  0  0  0
  187.0480  179.0080  147.1560 C   0  0  0  0  0  2  0  0  0  0  0  0
  193.5600  176.2390  146.1910 C   0  0  0  0  0  2  0  0  0  0  0  0
  195.1650  174.6060  145.0290 C   0  0  1  0  0  0  0  0  0  0  0  0
  187.7520  175.6690  142.3900 C   0  0  0  0  0  3  0  0  0  0  0  0
  188.6690  175.7670  143.4540 C   0  0  0  0  0  0  0  0  0  0  0  0
  186.9870  177.0800  144.7340 C   0  0  0  0  0  2  0  0  0  0  0  0
  191.2470  175.4470  146.7600 C   0  0  0  0  0  2  0  0  0  0  0  0
  189.6800  177.6780  147.6780 O   0  0  0  0  0  0  0  0  0  0  0  0
  184.1630  176.9870  146.8860 C   0  0  0  0  0  1  0  0  0  0  0  0
  189.2500  176.5110  145.6870 N   0  0  0  0  0  0  0  0  0  0  0  0
  186.4700  176.9270  146.0970 N   0  0  1  0  0  0  0  0  0  0  0  0
  196.3470  174.4640  144.0780 C   0  0  0  0  0  2  0  0  0  0  0  0
  195.9110  174.1830  142.6730 C   0  0  0  0  0  0  0  0  0  0  0  0
  195.0880  175.1840  141.9410 C   0  0  0  0  0  1  0  0  0  0  0  0
  196.2030  173.1280  142.1360 O   0  0  0  0  0  0  0  0  0  0  0  0
  2 27  1  0  0  0  0
  2 24  1  1  0  0  0
  3  4  1  0  0  0  0
  3 11  2  0  0  0  0
  4 21  2  0  0  0  0
  5  6  1  0  0  0  0
  5 25  2  0  0  0  0
  6 18  1  6  0  0  0
  7 19  1  6  0  0  0
  7 24  1  0  0  0  0
  8 12  1  0  0  0  0
  8 17  1  0  0  0  0
  9 15  1  0  0  0  0
  9 26  1  1  0  0  0
 11 13  1  0  0  0  0
 12  2  1  0  0  0  0
 13 22  1  0  0  0  0
 13 12  2  0  0  0  0
 14 23  1  0  0  0  0
 14 27  1  0  0  0  0
 15 18  1  0  0  0  0
 16 19  1  1  0  0  0
 16  1  1  0  0  0  0
 17 10  1  6  0  0  0
 17  7  1  0  0  0  0
 20 29  1  6  0  0  0
 20 10  1  0  0  0  0
 20 16  1  0  0  0  0
 20  1  1  0  0  0  0
 21 22  1  0  0  0  0
 22 14  2  0  0  0  0
 27  5  1  0  0  0  0
 28 23  1  6  0  0  0
 28  9  1  0  0  0  0
 28  6  1  0  0  0  0
 30 29  1  0  0  0  0
 31 30  1  0  0  0  0
 32 30  2  0  0  0  0
M  END
>  <MODEL>
6

>  <REMARK>
 VINA RESULT:      -7.7      2.323      7.844
  Name = 
  2 active torsions:
  status: ('A' for Active; 'I' for Inactive)
    1  A    between atoms: C_20  and  C_29
    2  A    between atoms: C_29  and  C_30
                            x       y       z     vdW  Elec       q    Type
                         _______ _______ _______ _____ _____    ______ ____

>  <TORSDO>
F 2

$$$$
=
 OpenBabel11112416443D

 32 38  0  0  1  0  0  0  0  0999 V2000
  187.2330  177.8090  147.0960 O   0  0  0  0  0  0  0  0  0  0  0  0
  190.8420  175.0130  144.7150 C   0  0  2  0  0  3  0  0  0  0  0  0
  189.2710  173.9270  140.1760 C   0  0  0  0  0  3  0  0  0  0  0  0
  190.3860  173.1160  139.9750 C   0  0  0  0  0  3  0  0  0  0  0  0
  193.1730  174.2100  145.3050 C   0  0  0  0  0  0  0  0  0  0  0  0
  194.5160  173.6830  144.8760 C   0  0  1  0  0  3  0  0  0  0  0  0
  189.6960  176.9890  145.7900 C   0  0  1  0  0  3  0  0  0  0  0  0
  188.8420  176.0960  143.6730 O   0  0  0  0  0  0  0  0  0  0  0  0
  195.7070  172.4560  143.3040 C   0  0  2  0  0  3  0  0  0  0  0  0
  187.6070  177.9230  144.7120 C   0  0  0  0  0  2  0  0  0  0  0  0
  189.1290  174.6280  141.3740 C   0  0  0  0  0  3  0  0  0  0  0  0
  189.9190  175.2090  143.5330 C   0  0  0  0  0  0  0  0  0  0  0  0
  190.0930  174.5260  142.3900 C   0  0  0  0  0  0  0  0  0  0  0  0
  192.2270  173.6590  143.0990 C   0  0  0  0  0  0  0  0  0  0  0  0
  195.9620  171.8300  144.6700 C   0  0  0  0  0  2  0  0  0  0  0  0
  187.4030  176.4250  146.9000 C   0  0  2  0  0  3  0  0  0  0  0  0
  188.9580  177.2650  144.4820 C   0  0  1  0  0  3  0  0  0  0  0  0
  194.9180  172.4160  145.5870 C   0  0  0  0  0  2  0  0  0  0  0  0
  188.8860  176.0700  146.7130 C   0  0  0  0  0  2  0  0  0  0  0  0
  186.8000  177.2980  145.8530 C   0  0  1  0  0  0  0  0  0  0  0  0
  191.3640  173.0170  140.9640 C   0  0  0  0  0  3  0  0  0  0  0  0
  191.2430  173.7210  142.1770 C   0  0  0  0  0  0  0  0  0  0  0  0
  193.4370  172.7930  142.8940 C   0  0  0  0  0  2  0  0  0  0  0  0
  191.0420  176.3440  145.4570 C   0  0  0  0  0  2  0  0  0  0  0  0
  192.9940  174.5160  146.5160 O   0  0  0  0  0  0  0  0  0  0  0  0
  196.9720  173.1260  142.8020 C   0  0  0  0  0  1  0  0  0  0  0  0
  192.1130  174.3730  144.3440 N   0  0  0  0  0  0  0  0  0  0  0  0
  194.6360  173.4430  143.4300 N   0  0  1  0  0  0  0  0  0  0  0  0
  185.2800  177.2820  145.7570 C   0  0  0  0  0  2  0  0  0  0  0  0
  184.7830  178.0290  144.5580 C   0  0  0  0  0  0  0  0  0  0  0  0
  185.0440  177.4930  143.1940 C   0  0  0  0  0  1  0  0  0  0  0  0
  184.1890  179.0860  144.6910 O   0  0  0  0  0  0  0  0  0  0  0  0
  2 24  1  6  0  0  0
  3 11  2  0  0  0  0
  4  3  1  0  0  0  0
  4 21  2  0  0  0  0
  5 25  2  0  0  0  0
  6  5  1  0  0  0  0
  6 18  1  1  0  0  0
  7 24  1  6  0  0  0
  7 19  1  0  0  0  0
  8 17  1  0  0  0  0
  9 26  1  1  0  0  0
  9 28  1  0  0  0  0
  9 15  1  0  0  0  0
 10 20  1  0  0  0  0
 11 13  1  0  0  0  0
 12  8  1  0  0  0  0
 12  2  1  0  0  0  0
 13 12  2  0  0  0  0
 14 27  1  0  0  0  0
 15 18  1  0  0  0  0
 16 19  1  6  0  0  0
 16  1  1  0  0  0  0
 17 10  1  1  0  0  0
 17  7  1  0  0  0  0
 20 29  1  6  0  0  0
 20 16  1  0  0  0  0
 20  1  1  0  0  0  0
 21 22  1  0  0  0  0
 22 13  1  0  0  0  0
 22 14  2  0  0  0  0
 23 14  1  0  0  0  0
 27  2  1  0  0  0  0
 27  5  1  0  0  0  0
 28 23  1  1  0  0  0
 28  6  1  0  0  0  0
 30 32  2  0  0  0  0
 30 29  1  0  0  0  0
 31 30  1  0  0  0  0
M  END
>  <MODEL>
7

>  <REMARK>
 VINA RESULT:      -7.7      1.257      1.347
  Name = 
  2 active torsions:
  status: ('A' for Active; 'I' for Inactive)
    1  A    between atoms: C_20  and  C_29
    2  A    between atoms: C_29  and  C_30
                            x       y       z     vdW  Elec       q    Type
                         _______ _______ _______ _____ _____    ______ ____

>  <TORSDO>
F 2

$$$$
=
 OpenBabel11112416443D

 32 38  0  0  1  0  0  0  0  0999 V2000
  189.5920  172.8200  139.2900 O   0  0  0  0  0  0  0  0  0  0  0  0
  188.5400  175.2590  143.7010 C   0  0  2  0  0  3  0  0  0  0  0  0
  192.3620  174.7250  146.7600 C   0  0  0  0  0  3  0  0  0  0  0  0
  191.6460  175.3510  147.7790 C   0  0  0  0  0  3  0  0  0  0  0  0
  186.6280  176.6890  144.5530 C   0  0  0  0  0  0  0  0  0  0  0  0
  186.0940  177.7020  145.5310 C   0  0  1  0  0  3  0  0  0  0  0  0
  189.0740  174.8920  141.2610 C   0  0  1  0  0  3  0  0  0  0  0  0
  190.7570  174.3640  142.9640 O   0  0  0  0  0  0  0  0  0  0  0  0
  186.2310  178.5900  147.6720 C   0  0  2  0  0  3  0  0  0  0  0  0
  191.3010  173.8640  140.6410 C   0  0  0  0  0  2  0  0  0  0  0  0
  191.7930  174.5870  145.4940 C   0  0  0  0  0  3  0  0  0  0  0  0
  189.9810  174.9060  143.9980 C   0  0  0  0  0  0  0  0  0  0  0  0
  190.5000  175.0640  145.2270 C   0  0  0  0  0  0  0  0  0  0  0  0
  188.5640  176.2650  146.0140 C   0  0  0  0  0  0  0  0  0  0  0  0
  184.7940  178.1320  147.4510 C   0  0  0  0  0  2  0  0  0  0  0  0
  189.0920  172.3870  140.5340 C   0  0  2  0  0  3  0  0  0  0  0  0
  190.5560  174.7670  141.6110 C   0  0  1  0  0  3  0  0  0  0  0  0
  184.8300  177.2600  146.2220 C   0  0  0  0  0  2  0  0  0  0  0  0
  188.3750  173.5270  141.2710 C   0  0  0  0  0  2  0  0  0  0  0  0
  190.5510  172.5740  140.2960 C   0  0  1  0  0  0  0  0  0  0  0  0
  190.3680  175.8500  147.5270 C   0  0  0  0  0  3  0  0  0  0  0  0
  189.7780  175.7250  146.2550 C   0  0  0  0  0  0  0  0  0  0  0  0
  187.7820  176.9470  147.1010 C   0  0  0  0  0  2  0  0  0  0  0  0
  188.4170  175.8260  142.2780 C   0  0  0  0  0  2  0  0  0  0  0  0
  185.9040  176.3350  143.5830 O   0  0  0  0  0  0  0  0  0  0  0  0
  186.2830  180.1050  147.7280 C   0  0  0  0  0  1  0  0  0  0  0  0
  187.9500  176.1430  144.7180 N   0  0  0  0  0  0  0  0  0  0  0  0
  187.0560  178.1030  146.5690 N   0  0  1  0  0  0  0  0  0  0  0  0
  191.3540  171.3130  140.0020 C   0  0  0  0  0  2  0  0  0  0  0  0
  192.3490  171.0130  141.0800 C   0  0  0  0  0  0  0  0  0  0  0  0
  191.8750  170.7170  142.4600 C   0  0  0  0  0  1  0  0  0  0  0  0
  193.5440  171.0360  140.8410 O   0  0  0  0  0  0  0  0  0  0  0  0
  1 20  1  0  0  0  0
  1 16  1  0  0  0  0
  2 24  1  6  0  0  0
  2 12  1  0  0  0  0
  2 27  1  0  0  0  0
  3  4  1  0  0  0  0
  5 27  1  0  0  0  0
  5  6  1  0  0  0  0
  6 18  1  1  0  0  0
  6 28  1  0  0  0  0
  7 19  1  1  0  0  0
  7 17  1  0  0  0  0
  7 24  1  0  0  0  0
  8 12  1  0  0  0  0
  9 26  1  6  0  0  0
 11  3  2  0  0  0  0
 12 13  2  0  0  0  0
 13 11  1  0  0  0  0
 13 22  1  0  0  0  0
 14 22  2  0  0  0  0
 14 23  1  0  0  0  0
 15  9  1  0  0  0  0
 16 19  1  1  0  0  0
 17 10  1  6  0  0  0
 17  8  1  0  0  0  0
 18 15  1  0  0  0  0
 20 29  1  6  0  0  0
 20 16  1  0  0  0  0
 20 10  1  0  0  0  0
 21  4  2  0  0  0  0
 22 21  1  0  0  0  0
 25  5  2  0  0  0  0
 27 14  1  0  0  0  0
 28 23  1  1  0  0  0
 28  9  1  0  0  0  0
 29 30  1  0  0  0  0
 30 31  1  0  0  0  0
 32 30  2  0  0  0  0
M  END
>  <MODEL>
8

>  <REMARK>
 VINA RESULT:      -7.7      3.222      8.258
  Name = 
  2 active torsions:
  status: ('A' for Active; 'I' for Inactive)
    1  A    between atoms: C_20  and  C_29
    2  A    between atoms: C_29  and  C_30
                            x       y       z     vdW  Elec       q    Type
                         _______ _______ _______ _____ _____    ______ ____

>  <TORSDO>
F 2

$$$$
=
 OpenBabel11112416443D

 32 38  0  0  1  0  0  0  0  0999 V2000
  185.3620  177.6320  142.8390 O   0  0  0  0  0  0  0  0  0  0  0  0
  190.0080  175.4160  142.7520 C   0  0  2  0  0  3  0  0  0  0  0  0
  192.3150  176.3980  146.9910 C   0  0  0  0  0  3  0  0  0  0  0  0
  193.4740  175.7910  146.5110 C   0  0  0  0  0  3  0  0  0  0  0  0
  191.2560  173.9180  141.1310 C   0  0  0  0  0  0  0  0  0  0  0  0
  192.3630  172.9360  140.8530 C   0  0  1  0  0  3  0  0  0  0  0  0
  187.4970  175.6610  142.8290 C   0  0  1  0  0  3  0  0  0  0  0  0
  188.8470  176.4080  144.7340 O   0  0  0  0  0  0  0  0  0  0  0  0
  194.4890  172.1980  141.4230 C   0  0  2  0  0  3  0  0  0  0  0  0
  186.4420  176.7930  144.8300 C   0  0  0  0  0  2  0  0  0  0  0  0
  191.1640  176.4160  146.2040 C   0  0  0  0  0  3  0  0  0  0  0  0
  190.0280  175.8820  144.1910 C   0  0  0  0  0  0  0  0  0  0  0  0
  191.1530  175.8380  144.9240 C   0  0  0  0  0  0  0  0  0  0  0  0
  192.3290  174.5630  143.2510 C   0  0  0  0  0  0  0  0  0  0  0  0
  194.5020  172.5450  139.9390 C   0  0  0  0  0  2  0  0  0  0  0  0
  186.6500  178.1100  142.5290 C   0  0  2  0  0  3  0  0  0  0  0  0
  187.5730  175.9060  144.3340 C   0  0  1  0  0  3  0  0  0  0  0  0
  193.2420  173.3370  139.6950 C   0  0  0  0  0  2  0  0  0  0  0  0
  187.5590  176.9740  142.0390 C   0  0  0  0  0  2  0  0  0  0  0  0
  186.1690  178.0050  143.9360 C   0  0  1  0  0  0  0  0  0  0  0  0
  193.4770  175.1940  145.2510 C   0  0  0  0  0  3  0  0  0  0  0  0
  192.3250  175.1970  144.4430 C   0  0  0  0  0  0  0  0  0  0  0  0
  193.5700  173.9010  142.7220 C   0  0  0  0  0  2  0  0  0  0  0  0
  188.6600  174.7520  142.4300 C   0  0  0  0  0  2  0  0  0  0  0  0
  190.4110  174.1610  140.2250 O   0  0  0  0  0  0  0  0  0  0  0  0
  194.6130  170.6970  141.6000 C   0  0  0  0  0  1  0  0  0  0  0  0
  191.1570  174.5610  142.4160 N   0  0  0  0  0  0  0  0  0  0  0  0
  193.2340  172.6670  142.0060 N   0  0  1  0  0  0  0  0  0  0  0  0
  185.6740  179.2960  144.5760 C   0  0  0  0  0  2  0  0  0  0  0  0
  184.8860  179.0410  145.8240 C   0  0  0  0  0  0  0  0  0  0  0  0
  185.5600  179.1100  147.1500 C   0  0  0  0  0  1  0  0  0  0  0  0
  183.7030  178.7500  145.7590 O   0  0  0  0  0  0  0  0  0  0  0  0
  1 20  1  0  0  0  0
  2 24  1  1  0  0  0
  2 12  1  0  0  0  0
  4  3  1  0  0  0  0
  5 27  1  0  0  0  0
  6 18  1  6  0  0  0
  6  5  1  0  0  0  0
  6 28  1  0  0  0  0
  7 19  1  6  0  0  0
  7 17  1  0  0  0  0
  9 26  1  6  0  0  0
  9 28  1  0  0  0  0
 11  3  2  0  0  0  0
 12  8  1  0  0  0  0
 12 13  2  0  0  0  0
 13 11  1  0  0  0  0
 14 22  2  0  0  0  0
 15  9  1  0  0  0  0
 16 19  1  1  0  0  0
 16  1  1  0  0  0  0
 16 20  1  0  0  0  0
 17  8  1  0  0  0  0
 17 10  1  6  0  0  0
 18 15  1  0  0  0  0
 20 29  1  1  0  0  0
 20 10  1  0  0  0  0
 21  4  2  0  0  0  0
 22 13  1  0  0  0  0
 22 21  1  0  0  0  0
 23 14  1  0  0  0  0
 24  7  1  0  0  0  0
 25  5  2  0  0  0  0
 27  2  1  0  0  0  0
 27 14  1  0  0  0  0
 28 23  1  6  0  0  0
 29 30  1  0  0  0  0
 30 31  1  0  0  0  0
 32 30  2  0  0  0  0
M  END
>  <MODEL>
9

>  <REMARK>
 VINA RESULT:      -7.7      2.194      4.224
  Name = 
  2 active torsions:
  status: ('A' for Active; 'I' for Inactive)
    1  A    between atoms: C_20  and  C_29
    2  A    between atoms: C_29  and  C_30
                            x       y       z     vdW  Elec       q    Type
                         _______ _______ _______ _____ _____    ______ ____

>  <TORSDO>
F 2

$$$$
