=
 OpenBabel11112417213D

 37 44  0  0  1  0  0  0  0  0999 V2000
  188.6720  175.2850  140.7640 C   0  0  0  0  0  2  0  0  0  0  0  0
  185.5030  177.7730  143.1290 C   0  0  0  0  0  0  0  0  0  0  0  0
  188.7680  176.3850  145.3510 C   0  0  0  0  0  0  0  0  0  0  0  0
  188.3470  174.3530  139.5860 C   0  0  2  0  0  3  0  0  0  0  0  0
  191.0580  173.6530  143.7670 C   0  0  0  0  0  2  0  0  0  0  0  0
  186.7020  177.6640  145.3650 C   0  0  0  0  0  0  0  0  0  0  0  0
  189.3600  175.4880  144.4450 C   0  0  0  0  0  0  0  0  0  0  0  0
  190.4720  172.9550  139.8330 C   0  0  0  0  0  0  0  0  0  0  0  0
  187.5980  176.7960  144.7630 C   0  0  0  0  0  0  0  0  0  0  0  0
  190.6310  174.7710  144.6380 N   0  0  0  0  0  0  0  0  0  0  0  0
  187.0050  178.1330  146.6490 C   0  0  0  0  0  3  0  0  0  0  0  0
  189.5400  173.6960  139.0380 N   0  0  0  0  0  2  0  0  0  0  0  0
  187.4120  176.2560  143.5570 N   0  0  0  0  0  0  0  0  0  0  0  0
  186.2620  178.9250  142.4930 C   0  0  0  0  0  1  0  0  0  0  0  0
  190.3780  176.5420  147.3700 C   0  0  0  0  0  2  0  0  0  0  0  0
  188.2040  177.7330  147.2750 C   0  0  0  0  0  3  0  0  0  0  0  0
  186.1940  176.4410  142.7680 C   0  0  0  0  0  2  0  0  0  0  0  0
  190.4380  173.0960  141.2420 N   0  0  0  0  0  0  0  0  0  0  0  0
  190.7400  174.0490  142.3650 C   0  0  1  0  0  3  0  0  0  0  0  0
  189.1000  176.8430  146.6470 C   0  0  0  0  0  0  0  0  0  0  0  0
  188.4580  175.4340  143.3280 C   0  0  0  0  0  0  0  0  0  0  0  0
  185.4140  177.9910  144.6590 C   0  0  0  0  0  2  0  0  0  0  0  0
  191.5710  175.2770  145.6480 C   0  0  1  0  0  3  0  0  0  0  0  0
  184.1000  177.7580  142.5610 C   0  0  0  0  0  1  0  0  0  0  0  0
  189.5180  173.4320  142.3450 C   0  0  1  0  0  3  0  0  0  0  0  0
  191.3530  172.2460  139.2840 O   0  0  0  0  0  0  0  0  0  0  0  0
  188.5130  174.5340  142.1000 C   0  0  2  0  0  3  0  0  0  0  0  0
  190.9650  175.1910  147.0330 C   0  0  0  0  0  2  0  0  0  0  0  0
  194.0560  175.4840  145.4130 C   0  0  0  0  0  3  0  0  0  0  0  0
  192.9430  174.6570  145.6000 C   0  0  0  0  0  0  0  0  0  0  0  0
  193.1200  173.2670  145.6980 C   0  0  0  0  0  3  0  0  0  0  0  0
  194.6180  170.9850  145.7510 Cl  0  0  0  0  0  0  0  0  0  0  0  0
  195.5110  173.5480  145.4440 C   0  0  0  0  0  3  0  0  0  0  0  0
  194.4020  172.7170  145.6240 C   0  0  0  0  0  0  0  0  0  0  0  0
  195.3380  174.9310  145.3390 C   0  0  0  0  0  3  0  0  0  0  0  0
  188.0640  174.6560  137.2350 O   0  0  0  0  0  1  0  0  0  0  0  0
  187.6610  175.1360  138.4830 C   0  0  0  0  0  2  0  0  0  0  0  0
  2 22  1  0  0  0  0
  3 20  1  0  0  0  0
  4 37  1  6  0  0  0
  4  1  1  0  0  0  0
  5 10  1  0  0  0  0
  6 11  2  0  0  0  0
  7 10  1  0  0  0  0
  7  3  1  0  0  0  0
  8 18  1  0  0  0  0
  9  3  2  0  0  0  0
  9  6  1  0  0  0  0
 10 23  1  0  0  0  0
 11 16  1  0  0  0  0
 12  4  1  0  0  0  0
 12  8  1  0  0  0  0
 13  9  1  0  0  0  0
 14  2  1  0  0  0  0
 17  2  1  0  0  0  0
 17 13  1  0  0  0  0
 18 19  1  0  0  0  0
 19  5  1  1  0  0  0
 20 16  2  0  0  0  0
 20 15  1  0  0  0  0
 21 13  1  0  0  0  0
 21  7  2  0  0  0  0
 22  6  1  0  0  0  0
 23 30  1  1  0  0  0
 23 28  1  0  0  0  0
 24  2  1  0  0  0  0
 25 18  1  6  0  0  0
 25 19  1  0  0  0  0
 26  8  2  0  0  0  0
 27  1  1  6  0  0  0
 27 25  1  0  0  0  0
 27 21  1  0  0  0  0
 28 15  1  0  0  0  0
 29 30  1  0  0  0  0
 30 31  2  0  0  0  0
 33 34  2  0  0  0  0
 34 31  1  0  0  0  0
 34 32  1  0  0  0  0
 35 29  2  0  0  0  0
 35 33  1  0  0  0  0
 36 37  1  0  0  0  0
M  END
>  <MODEL>
1

>  <REMARK>
 VINA RESULT:      -9.2      0.000      0.000
  Name = 
  2 active torsions:
  status: ('A' for Active; 'I' for Inactive)
    1  A    between atoms: CA_4  and  C_37
    2  A    between atoms: C_23  and  C_30
                            x       y       z     vdW  Elec       q    Type
                         _______ _______ _______ _____ _____    ______ ____

>  <TORSDO>
F 2

$$$$
=
 OpenBabel11112417213D

 37 44  0  0  1  0  0  0  0  0999 V2000
  189.0140  174.8550  140.6740 C   0  0  0  0  0  2  0  0  0  0  0  0
  186.1340  177.4880  143.2430 C   0  0  0  0  0  0  0  0  0  0  0  0
  189.5460  176.0620  145.2030 C   0  0  0  0  0  0  0  0  0  0  0  0
  188.5610  173.9040  139.5540 C   0  0  2  0  0  3  0  0  0  0  0  0
  191.6140  173.2290  143.4970 C   0  0  0  0  0  2  0  0  0  0  0  0
  187.5240  177.4000  145.3650 C   0  0  0  0  0  0  0  0  0  0  0  0
  190.0320  175.1280  144.2730 C   0  0  0  0  0  0  0  0  0  0  0  0
  190.6620  172.4520  139.6500 C   0  0  0  0  0  0  0  0  0  0  0  0
  188.3400  176.4920  144.7100 C   0  0  0  0  0  0  0  0  0  0  0  0
  191.2960  174.3800  144.3720 N   0  0  0  0  0  0  0  0  0  0  0  0
  187.9520  177.8910  146.6040 C   0  0  0  0  0  3  0  0  0  0  0  0
  189.6830  173.2010  138.9210 N   0  0  0  0  0  2  0  0  0  0  0  0
  188.0330  175.9290  143.5410 N   0  0  0  0  0  0  0  0  0  0  0  0
  186.8630  178.6020  142.5110 C   0  0  0  0  0  1  0  0  0  0  0  0
  191.3330  176.2230  147.0670 C   0  0  0  0  0  2  0  0  0  0  0  0
  189.1910  177.4720  147.1330 C   0  0  0  0  0  3  0  0  0  0  0  0
  186.7550  176.1290  142.8570 C   0  0  0  0  0  2  0  0  0  0  0  0
  190.7580  172.6290  141.0530 N   0  0  0  0  0  0  0  0  0  0  0  0
  191.1830  173.6000  142.1190 C   0  0  1  0  0  3  0  0  0  0  0  0
  190.0040  176.5430  146.4520 C   0  0  0  0  0  0  0  0  0  0  0  0
  189.0330  175.0720  143.2420 C   0  0  0  0  0  0  0  0  0  0  0  0
  186.1870  177.7450  144.7680 C   0  0  0  0  0  2  0  0  0  0  0  0
  192.3350  174.8830  145.2820 C   0  0  1  0  0  3  0  0  0  0  0  0
  184.6860  177.5000  142.8010 C   0  0  0  0  0  1  0  0  0  0  0  0
  189.9480  173.0170  142.2230 C   0  0  1  0  0  3  0  0  0  0  0  0
  191.4720  171.7050  139.0440 O   0  0  0  0  0  0  0  0  0  0  0  0
  188.9550  174.1420  142.0390 C   0  0  2  0  0  3  0  0  0  0  0  0
  191.8520  174.8480  146.7170 C   0  0  0  0  0  2  0  0  0  0  0  0
  193.8780  172.9490  145.6710 C   0  0  0  0  0  3  0  0  0  0  0  0
  193.6800  174.2230  145.1290 C   0  0  0  0  0  0  0  0  0  0  0  0
  194.7460  174.8770  144.4880 C   0  0  0  0  0  3  0  0  0  0  0  0
  197.3140  175.0680  143.5820 Cl  0  0  0  0  0  0  0  0  0  0  0  0
  196.1800  172.9760  144.9210 C   0  0  0  0  0  3  0  0  0  0  0  0
  195.9900  174.2510  144.3830 C   0  0  0  0  0  0  0  0  0  0  0  0
  195.1240  172.3240  145.5650 C   0  0  0  0  0  3  0  0  0  0  0  0
  188.3680  174.4550  137.2400 O   0  0  0  0  0  1  0  0  0  0  0  0
  187.8000  174.6790  138.4960 C   0  0  0  0  0  2  0  0  0  0  0  0
  2 22  1  0  0  0  0
  3 20  1  0  0  0  0
  4 37  1  6  0  0  0
  4  1  1  0  0  0  0
  5 10  1  0  0  0  0
  6 11  2  0  0  0  0
  7 10  1  0  0  0  0
  7  3  1  0  0  0  0
  8 18  1  0  0  0  0
  9  3  2  0  0  0  0
  9  6  1  0  0  0  0
 10 23  1  0  0  0  0
 11 16  1  0  0  0  0
 12  4  1  0  0  0  0
 12  8  1  0  0  0  0
 13  9  1  0  0  0  0
 14  2  1  0  0  0  0
 17  2  1  0  0  0  0
 17 13  1  0  0  0  0
 18 19  1  0  0  0  0
 19 25  1  0  0  0  0
 19  5  1  1  0  0  0
 20 15  1  0  0  0  0
 20 16  2  0  0  0  0
 21 13  1  0  0  0  0
 21  7  2  0  0  0  0
 22  6  1  0  0  0  0
 23 30  1  1  0  0  0
 23 28  1  0  0  0  0
 24  2  1  0  0  0  0
 25 18  1  6  0  0  0
 26  8  2  0  0  0  0
 27  1  1  6  0  0  0
 27 25  1  0  0  0  0
 27 21  1  0  0  0  0
 28 15  1  0  0  0  0
 30 29  2  0  0  0  0
 31 30  1  0  0  0  0
 32 34  1  0  0  0  0
 33 35  2  0  0  0  0
 34 31  2  0  0  0  0
 34 33  1  0  0  0  0
 35 29  1  0  0  0  0
 36 37  1  0  0  0  0
M  END
>  <MODEL>
2

>  <REMARK>
 VINA RESULT:      -9.1      1.163      1.414
  Name = 
  2 active torsions:
  status: ('A' for Active; 'I' for Inactive)
    1  A    between atoms: CA_4  and  C_37
    2  A    between atoms: C_23  and  C_30
                            x       y       z     vdW  Elec       q    Type
                         _______ _______ _______ _____ _____    ______ ____

>  <TORSDO>
F 2

$$$$
=
 OpenBabel11112417213D

 37 44  0  0  1  0  0  0  0  0999 V2000
  189.5150  174.3390  140.6230 C   0  0  0  0  0  2  0  0  0  0  0  0
  186.8170  177.1430  143.2100 C   0  0  0  0  0  0  0  0  0  0  0  0
  190.2960  175.7330  145.0620 C   0  0  0  0  0  0  0  0  0  0  0  0
  188.9890  173.3490  139.5710 C   0  0  2  0  0  3  0  0  0  0  0  0
  192.2220  172.7850  143.3850 C   0  0  0  0  0  2  0  0  0  0  0  0
  188.3100  177.1190  145.2630 C   0  0  0  0  0  0  0  0  0  0  0  0
  190.7170  174.7480  144.1520 C   0  0  0  0  0  0  0  0  0  0  0  0
  191.0640  171.8600  139.6290 C   0  0  0  0  0  0  0  0  0  0  0  0
  189.0740  176.1660  144.6100 C   0  0  0  0  0  0  0  0  0  0  0  0
  191.9700  173.9790  144.2220 N   0  0  0  0  0  0  0  0  0  0  0  0
  188.8090  177.6550  146.4560 C   0  0  0  0  0  3  0  0  0  0  0  0
  190.0640  172.5960  138.9160 N   0  0  0  0  0  2  0  0  0  0  0  0
  188.6990  175.5590  143.4840 N   0  0  0  0  0  0  0  0  0  0  0  0
  187.5290  178.2080  142.3940 C   0  0  0  0  0  1  0  0  0  0  0  0
  192.1770  175.9380  146.8270 C   0  0  0  0  0  2  0  0  0  0  0  0
  190.0640  177.2330  146.9420 C   0  0  0  0  0  3  0  0  0  0  0  0
  187.3920  175.7550  142.8550 C   0  0  0  0  0  2  0  0  0  0  0  0
  191.2340  172.0950  141.0160 N   0  0  0  0  0  0  0  0  0  0  0  0
  191.7300  173.1030  142.0150 C   0  0  1  0  0  3  0  0  0  0  0  0
  190.8250  176.2580  146.2640 C   0  0  0  0  0  0  0  0  0  0  0  0
  189.6660  174.6690  143.1750 C   0  0  0  0  0  0  0  0  0  0  0  0
  186.9520  177.4660  144.7170 C   0  0  0  0  0  2  0  0  0  0  0  0
  193.0620  174.5000  145.0560 C   0  0  1  0  0  3  0  0  0  0  0  0
  185.3490  177.1650  142.8400 C   0  0  0  0  0  1  0  0  0  0  0  0
  190.4910  172.5520  142.2060 C   0  0  1  0  0  3  0  0  0  0  0  0
  191.8290  171.0700  139.0180 O   0  0  0  0  0  0  0  0  0  0  0  0
  189.5110  173.6880  142.0200 C   0  0  2  0  0  3  0  0  0  0  0  0
  192.6520  174.5380  146.5130 C   0  0  0  0  0  2  0  0  0  0  0  0
  195.3120  174.3430  143.9660 C   0  0  0  0  0  3  0  0  0  0  0  0
  194.3860  173.8060  144.8670 C   0  0  0  0  0  0  0  0  0  0  0  0
  194.6900  172.6140  145.5460 C   0  0  0  0  0  3  0  0  0  0  0  0
  196.2900  170.4960  146.1820 Cl  0  0  0  0  0  0  0  0  0  0  0  0
  196.8380  172.5220  144.4350 C   0  0  0  0  0  3  0  0  0  0  0  0
  195.9150  171.9780  145.3320 C   0  0  0  0  0  0  0  0  0  0  0  0
  196.5370  173.7040  143.7520 C   0  0  0  0  0  3  0  0  0  0  0  0
  188.9210  174.1690  137.3310 O   0  0  0  0  0  1  0  0  0  0  0  0
  188.1910  174.0930  138.5170 C   0  0  0  0  0  2  0  0  0  0  0  0
  2 22  1  0  0  0  0
  3 20  1  0  0  0  0
  4 37  1  6  0  0  0
  4  1  1  0  0  0  0
  5 10  1  0  0  0  0
  6 11  2  0  0  0  0
  7 10  1  0  0  0  0
  7  3  1  0  0  0  0
  8 18  1  0  0  0  0
  9  3  2  0  0  0  0
  9  6  1  0  0  0  0
 10 23  1  0  0  0  0
 11 16  1  0  0  0  0
 12  4  1  0  0  0  0
 12  8  1  0  0  0  0
 13  9  1  0  0  0  0
 14  2  1  0  0  0  0
 17  2  1  0  0  0  0
 17 13  1  0  0  0  0
 18 19  1  0  0  0  0
 19 25  1  0  0  0  0
 19  5  1  1  0  0  0
 20 15  1  0  0  0  0
 20 16  2  0  0  0  0
 21 13  1  0  0  0  0
 21  7  2  0  0  0  0
 22  6  1  0  0  0  0
 23 30  1  1  0  0  0
 23 28  1  0  0  0  0
 24  2  1  0  0  0  0
 25 18  1  6  0  0  0
 26  8  2  0  0  0  0
 27  1  1  6  0  0  0
 27 25  1  0  0  0  0
 27 21  1  0  0  0  0
 28 15  1  0  0  0  0
 29 30  1  0  0  0  0
 30 31  2  0  0  0  0
 33 34  2  0  0  0  0
 34 31  1  0  0  0  0
 34 32  1  0  0  0  0
 35 29  2  0  0  0  0
 35 33  1  0  0  0  0
 36 37  1  0  0  0  0
M  END
>  <MODEL>
3

>  <REMARK>
 VINA RESULT:      -9.0      1.257      1.611
  Name = 
  2 active torsions:
  status: ('A' for Active; 'I' for Inactive)
    1  A    between atoms: CA_4  and  C_37
    2  A    between atoms: C_23  and  C_30
                            x       y       z     vdW  Elec       q    Type
                         _______ _______ _______ _____ _____    ______ ____

>  <TORSDO>
F 2

$$$$
=
 OpenBabel11112417213D

 37 44  0  0  1  0  0  0  0  0999 V2000
  193.8230  174.1580  144.5880 C   0  0  0  0  0  2  0  0  0  0  0  0
  191.0560  176.6610  147.4010 C   0  0  0  0  0  0  0  0  0  0  0  0
  189.4490  175.6660  143.6670 C   0  0  0  0  0  0  0  0  0  0  0  0
  195.3540  174.2830  144.5350 C   0  0  2  0  0  3  0  0  0  0  0  0
  191.8590  174.3090  140.9160 C   0  0  0  0  0  2  0  0  0  0  0  0
  189.0840  176.7590  145.8050 C   0  0  0  0  0  0  0  0  0  0  0  0
  190.5830  175.1740  142.9970 C   0  0  0  0  0  0  0  0  0  0  0  0
  195.5610  173.3100  142.1810 C   0  0  0  0  0  0  0  0  0  0  0  0
  189.9020  176.1520  144.8670 C   0  0  0  0  0  0  0  0  0  0  0  0
  190.6040  174.5620  141.6590 N   0  0  0  0  0  0  0  0  0  0  0  0
  187.7240  176.8950  145.5000 C   0  0  0  0  0  3  0  0  0  0  0  0
  195.9620  173.3760  143.5540 N   0  0  0  0  0  2  0  0  0  0  0  0
  191.2160  175.9880  145.0240 N   0  0  0  0  0  0  0  0  0  0  0  0
  190.8160  175.2910  148.0120 C   0  0  0  0  0  1  0  0  0  0  0  0
  187.4380  175.2320  142.0980 C   0  0  0  0  0  2  0  0  0  0  0  0
  187.2290  176.4000  144.2760 C   0  0  0  0  0  3  0  0  0  0  0  0
  191.9670  176.5180  146.1630 C   0  0  0  0  0  2  0  0  0  0  0  0
  194.3360  173.9060  141.7930 N   0  0  0  0  0  0  0  0  0  0  0  0
  192.8420  173.7660  141.8950 C   0  0  1  0  0  3  0  0  0  0  0  0
  188.0810  175.7890  143.3320 C   0  0  0  0  0  0  0  0  0  0  0  0
  191.6790  175.4090  143.8960 C   0  0  0  0  0  0  0  0  0  0  0  0
  189.7000  177.3210  147.0580 C   0  0  0  0  0  2  0  0  0  0  0  0
  189.3410  174.0580  141.1020 C   0  0  1  0  0  3  0  0  0  0  0  0
  191.7660  177.5190  148.4260 C   0  0  0  0  0  1  0  0  0  0  0  0
  193.4040  174.9820  142.1810 C   0  0  1  0  0  3  0  0  0  0  0  0
  196.2510  172.6700  141.3470 O   0  0  0  0  0  0  0  0  0  0  0  0
  193.1690  175.1980  143.6580 C   0  0  2  0  0  3  0  0  0  0  0  0
  188.3570  175.1910  140.8980 C   0  0  0  0  0  2  0  0  0  0  0  0
  189.2100  173.7890  138.6150 C   0  0  0  0  0  3  0  0  0  0  0  0
  189.4890  173.2170  139.8610 C   0  0  0  0  0  0  0  0  0  0  0  0
  189.8640  171.8650  139.9350 C   0  0  0  0  0  3  0  0  0  0  0  0
  190.4390  169.4200  138.8670 Cl  0  0  0  0  0  0  0  0  0  0  0  0
  189.6950  171.6810  137.5280 C   0  0  0  0  0  3  0  0  0  0  0  0
  189.9690  171.1030  138.7700 C   0  0  0  0  0  0  0  0  0  0  0  0
  189.3160  173.0240  137.4500 C   0  0  0  0  0  3  0  0  0  0  0  0
  197.3230  173.8110  145.8000 O   0  0  0  0  0  1  0  0  0  0  0  0
  195.9430  174.0000  145.9040 C   0  0  0  0  0  2  0  0  0  0  0  0
  2 14  1  0  0  0  0
  2 24  1  0  0  0  0
  3  9  1  0  0  0  0
  4  1  1  0  0  0  0
  4 37  1  1  0  0  0
  5 10  1  0  0  0  0
  6 22  1  0  0  0  0
  7  3  1  0  0  0  0
  7 21  2  0  0  0  0
  8 12  1  0  0  0  0
  9 13  1  0  0  0  0
  9  6  2  0  0  0  0
 10  7  1  0  0  0  0
 11  6  1  0  0  0  0
 12  4  1  0  0  0  0
 13 17  1  0  0  0  0
 15 20  1  0  0  0  0
 16 11  2  0  0  0  0
 17  2  1  0  0  0  0
 18 19  1  0  0  0  0
 18  8  1  0  0  0  0
 19  5  1  6  0  0  0
 19 25  1  0  0  0  0
 20  3  2  0  0  0  0
 20 16  1  0  0  0  0
 21 13  1  0  0  0  0
 22  2  1  0  0  0  0
 23 30  1  6  0  0  0
 23 10  1  0  0  0  0
 25 18  1  1  0  0  0
 25 27  1  0  0  0  0
 26  8  2  0  0  0  0
 27 21  1  0  0  0  0
 27  1  1  1  0  0  0
 28 23  1  0  0  0  0
 28 15  1  0  0  0  0
 29 30  1  0  0  0  0
 30 31  2  0  0  0  0
 33 34  2  0  0  0  0
 34 32  1  0  0  0  0
 34 31  1  0  0  0  0
 35 33  1  0  0  0  0
 35 29  2  0  0  0  0
 36 37  1  0  0  0  0
M  END
>  <MODEL>
4

>  <REMARK>
 VINA RESULT:      -8.4      2.880      6.514
  Name = 
  2 active torsions:
  status: ('A' for Active; 'I' for Inactive)
    1  A    between atoms: CA_4  and  C_37
    2  A    between atoms: C_23  and  C_30
                            x       y       z     vdW  Elec       q    Type
                         _______ _______ _______ _____ _____    ______ ____

>  <TORSDO>
F 2

$$$$
=
 OpenBabel11112417213D

 37 44  0  0  1  0  0  0  0  0999 V2000
  192.7640  175.8370  145.1030 C   0  0  0  0  0  2  0  0  0  0  0  0
  193.2550  173.2280  141.2580 C   0  0  0  0  0  0  0  0  0  0  0  0
  189.4530  174.8610  141.8870 C   0  0  0  0  0  0  0  0  0  0  0  0
  193.5020  175.5850  146.4270 C   0  0  2  0  0  3  0  0  0  0  0  0
  188.6390  176.3620  145.3940 C   0  0  0  0  0  2  0  0  0  0  0  0
  190.8710  173.5230  140.4370 C   0  0  0  0  0  0  0  0  0  0  0  0
  189.5680  175.3380  143.2040 C   0  0  0  0  0  0  0  0  0  0  0  0
  191.8020  176.8480  147.8570 C   0  0  0  0  0  0  0  0  0  0  0  0
  190.6150  174.1780  141.6300 C   0  0  0  0  0  0  0  0  0  0  0  0
  188.5610  176.1230  143.9350 N   0  0  0  0  0  0  0  0  0  0  0  0
  189.8800  173.5510  139.4480 C   0  0  0  0  0  3  0  0  0  0  0  0
  193.1490  176.5610  147.4660 N   0  0  0  0  0  2  0  0  0  0  0  0
  191.4620  174.2020  142.6600 N   0  0  0  0  0  0  0  0  0  0  0  0
  193.8620  174.5180  140.7330 C   0  0  0  0  0  1  0  0  0  0  0  0
  187.1570  175.6820  141.0200 C   0  0  0  0  0  2  0  0  0  0  0  0
  188.6780  174.2500  139.6810 C   0  0  0  0  0  3  0  0  0  0  0  0
  192.7220  173.4570  142.6880 C   0  0  0  0  0  2  0  0  0  0  0  0
  190.7380  176.4220  147.0250 N   0  0  0  0  0  0  0  0  0  0  0  0
  190.0620  176.6780  145.7060 C   0  0  1  0  0  3  0  0  0  0  0  0
  188.4350  174.9070  140.9060 C   0  0  0  0  0  0  0  0  0  0  0  0
  190.8560  174.8860  143.6530 C   0  0  0  0  0  0  0  0  0  0  0  0
  192.1490  172.7430  140.2910 C   0  0  0  0  0  2  0  0  0  0  0  0
  187.5140  176.8080  143.1630 C   0  0  1  0  0  3  0  0  0  0  0  0
  194.3440  172.1780  141.3120 C   0  0  0  0  0  1  0  0  0  0  0  0
  190.3980  175.3890  146.0270 C   0  0  1  0  0  3  0  0  0  0  0  0
  191.5710  177.5330  148.8870 O   0  0  0  0  0  0  0  0  0  0  0  0
  191.4740  174.9950  145.0410 C   0  0  2  0  0  3  0  0  0  0  0  0
  186.6430  175.8050  142.4360 C   0  0  0  0  0  2  0  0  0  0  0  0
  186.2970  178.9890  143.3420 C   0  0  0  0  0  3  0  0  0  0  0  0
  186.6930  177.7940  143.9510 C   0  0  0  0  0  0  0  0  0  0  0  0
  186.3510  177.5530  145.2920 C   0  0  0  0  0  3  0  0  0  0  0  0
  185.1830  178.1910  147.6760 Cl  0  0  0  0  0  0  0  0  0  0  0  0
  185.2120  179.6860  145.3910 C   0  0  0  0  0  3  0  0  0  0  0  0
  185.6090  178.4970  146.0070 C   0  0  0  0  0  0  0  0  0  0  0  0
  185.5550  179.9330  144.0590 C   0  0  0  0  0  3  0  0  0  0  0  0
  195.2720  175.8590  144.8490 O   0  0  0  0  0  1  0  0  0  0  0  0
  195.0010  175.6260  146.1980 C   0  0  0  0  0  2  0  0  0  0  0  0
  1  4  1  0  0  0  0
  2 24  1  0  0  0  0
  2 17  1  0  0  0  0
  3  7  1  0  0  0  0
  4 37  1  6  0  0  0
  4 12  1  0  0  0  0
  6  9  2  0  0  0  0
  7 21  2  0  0  0  0
  7 10  1  0  0  0  0
  8 26  2  0  0  0  0
  9  3  1  0  0  0  0
  9 13  1  0  0  0  0
 10  5  1  0  0  0  0
 11 16  2  0  0  0  0
 11  6  1  0  0  0  0
 12  8  1  0  0  0  0
 13 17  1  0  0  0  0
 13 21  1  0  0  0  0
 14  2  1  0  0  0  0
 15 28  1  0  0  0  0
 16 20  1  0  0  0  0
 18  8  1  0  0  0  0
 19  5  1  1  0  0  0
 19 25  1  0  0  0  0
 19 18  1  0  0  0  0
 20 15  1  0  0  0  0
 20  3  2  0  0  0  0
 21 27  1  0  0  0  0
 22  6  1  0  0  0  0
 22  2  1  0  0  0  0
 23 10  1  0  0  0  0
 23 30  1  1  0  0  0
 25 18  1  1  0  0  0
 27  1  1  6  0  0  0
 27 25  1  0  0  0  0
 28 23  1  0  0  0  0
 29 30  2  0  0  0  0
 29 35  1  0  0  0  0
 30 31  1  0  0  0  0
 31 34  2  0  0  0  0
 33 34  1  0  0  0  0
 34 32  1  0  0  0  0
 35 33  2  0  0  0  0
 36 37  1  0  0  0  0
M  END
>  <MODEL>
5

>  <REMARK>
 VINA RESULT:      -8.4      3.433      7.960
  Name = 
  2 active torsions:
  status: ('A' for Active; 'I' for Inactive)
    1  A    between atoms: CA_4  and  C_37
    2  A    between atoms: C_23  and  C_30
                            x       y       z     vdW  Elec       q    Type
                         _______ _______ _______ _____ _____    ______ ____

>  <TORSDO>
F 2

$$$$
=
 OpenBabel11112417213D

 37 44  0  0  1  0  0  0  0  0999 V2000
  187.5650  175.4670  140.1870 C   0  0  0  0  0  2  0  0  0  0  0  0
  191.3110  172.7330  140.7570 C   0  0  0  0  0  0  0  0  0  0  0  0
  189.9640  174.7280  144.1810 C   0  0  0  0  0  0  0  0  0  0  0  0
  187.2470  176.2550  138.9060 C   0  0  2  0  0  3  0  0  0  0  0  0
  187.4010  177.6350  143.7430 C   0  0  0  0  0  2  0  0  0  0  0  0
  191.5780  173.1730  143.2430 C   0  0  0  0  0  0  0  0  0  0  0  0
  189.0390  175.6320  143.6320 C   0  0  0  0  0  0  0  0  0  0  0  0
  185.7400  177.9560  140.0760 C   0  0  0  0  0  0  0  0  0  0  0  0
  190.5700  174.1140  143.1140 C   0  0  0  0  0  0  0  0  0  0  0  0
  188.1530  176.5340  144.3850 N   0  0  0  0  0  0  0  0  0  0  0  0
  192.0090  172.8460  144.5340 C   0  0  0  0  0  3  0  0  0  0  0  0
  186.0080  177.0330  139.0130 N   0  0  0  0  0  2  0  0  0  0  0  0
  190.0910  174.5320  141.9420 N   0  0  0  0  0  0  0  0  0  0  0  0
  190.2390  171.6570  140.8060 C   0  0  0  0  0  1  0  0  0  0  0  0
  189.7510  174.9480  146.7500 C   0  0  0  0  0  2  0  0  0  0  0  0
  191.4010  173.4570  145.6510 C   0  0  0  0  0  3  0  0  0  0  0  0
  190.6410  174.1200  140.6500 C   0  0  0  0  0  2  0  0  0  0  0  0
  186.5440  177.9140  141.2420 N   0  0  0  0  0  0  0  0  0  0  0  0
  186.8480  177.0970  142.4670 C   0  0  1  0  0  3  0  0  0  0  0  0
  190.3790  174.4170  145.4970 C   0  0  0  0  0  0  0  0  0  0  0  0
  189.1640  175.4760  142.2090 C   0  0  0  0  0  0  0  0  0  0  0  0
  192.2220  172.6170  142.0020 C   0  0  0  0  0  2  0  0  0  0  0  0
  187.9020  176.2420  145.8040 C   0  0  1  0  0  3  0  0  0  0  0  0
  192.1530  172.5070  139.5190 C   0  0  0  0  0  1  0  0  0  0  0  0
  187.8950  177.5310  141.6970 C   0  0  1  0  0  3  0  0  0  0  0  0
  184.7600  178.7410  140.0050 O   0  0  0  0  0  0  0  0  0  0  0  0
  188.5020  176.2830  141.0990 C   0  0  2  0  0  3  0  0  0  0  0  0
  189.1830  176.3410  146.6050 C   0  0  0  0  0  2  0  0  0  0  0  0
  185.4670  176.6290  146.2440 C   0  0  0  0  0  3  0  0  0  0  0  0
  186.7910  177.0450  146.4260 C   0  0  0  0  0  0  0  0  0  0  0  0
  187.0550  178.2200  147.1500 C   0  0  0  0  0  3  0  0  0  0  0  0
  186.3360  180.4200  148.5970 Cl  0  0  0  0  0  0  0  0  0  0  0  0
  184.6830  178.5350  147.5140 C   0  0  0  0  0  3  0  0  0  0  0  0
  186.0020  178.9590  147.6940 C   0  0  0  0  0  0  0  0  0  0  0  0
  184.4150  177.3700  146.7890 C   0  0  0  0  0  3  0  0  0  0  0  0
  188.1380  174.3360  137.8020 O   0  0  0  0  0  1  0  0  0  0  0  0
  187.1360  175.3050  137.7290 C   0  0  0  0  0  2  0  0  0  0  0  0
  2 14  1  0  0  0  0
  2 22  1  0  0  0  0
  3 20  1  0  0  0  0
  4 37  1  6  0  0  0
  4 12  1  0  0  0  0
  4  1  1  0  0  0  0
  5 10  1  0  0  0  0
  6 11  2  0  0  0  0
  7  3  1  0  0  0  0
  7 10  1  0  0  0  0
  8 18  1  0  0  0  0
  9  6  1  0  0  0  0
  9  3  2  0  0  0  0
 10 23  1  0  0  0  0
 11 16  1  0  0  0  0
 12  8  1  0  0  0  0
 13 21  1  0  0  0  0
 13  9  1  0  0  0  0
 17  2  1  0  0  0  0
 17 13  1  0  0  0  0
 18 19  1  0  0  0  0
 19  5  1  1  0  0  0
 20 16  2  0  0  0  0
 20 15  1  0  0  0  0
 21  7  2  0  0  0  0
 22  6  1  0  0  0  0
 23 30  1  1  0  0  0
 23 28  1  0  0  0  0
 24  2  1  0  0  0  0
 25 18  1  6  0  0  0
 25 19  1  0  0  0  0
 26  8  2  0  0  0  0
 27  1  1  1  0  0  0
 27 25  1  0  0  0  0
 27 21  1  0  0  0  0
 28 15  1  0  0  0  0
 29 30  2  0  0  0  0
 29 35  1  0  0  0  0
 30 31  1  0  0  0  0
 31 34  2  0  0  0  0
 33 34  1  0  0  0  0
 34 32  1  0  0  0  0
 35 33  2  0  0  0  0
 37 36  1  0  0  0  0
M  END
>  <MODEL>
6

>  <REMARK>
 VINA RESULT:      -8.3      2.875      6.545
  Name = 
  2 active torsions:
  status: ('A' for Active; 'I' for Inactive)
    1  A    between atoms: CA_4  and  C_37
    2  A    between atoms: C_23  and  C_30
                            x       y       z     vdW  Elec       q    Type
                         _______ _______ _______ _____ _____    ______ ____

>  <TORSDO>
F 2

$$$$
=
 OpenBabel11112417213D

 37 44  0  0  1  0  0  0  0  0999 V2000
  191.2860  172.1590  141.7550 C   0  0  0  0  0  2  0  0  0  0  0  0
  195.2790  172.7170  144.1150 C   0  0  0  0  0  0  0  0  0  0  0  0
  192.2760  175.5230  144.9100 C   0  0  0  0  0  0  0  0  0  0  0  0
  191.1890  171.6110  140.3220 C   0  0  2  0  0  3  0  0  0  0  0  0
  189.2260  175.7070  142.4860 C   0  0  0  0  0  2  0  0  0  0  0  0
  194.5230  174.7560  145.4260 C   0  0  0  0  0  0  0  0  0  0  0  0
  191.3550  175.2440  143.8850 C   0  0  0  0  0  0  0  0  0  0  0  0
  188.9100  172.6660  139.8480 C   0  0  0  0  0  0  0  0  0  0  0  0
  193.3740  174.7400  144.6530 C   0  0  0  0  0  0  0  0  0  0  0  0
  190.0250  175.8520  143.7230 N   0  0  0  0  0  0  0  0  0  0  0  0
  194.5670  175.6310  146.5180 C   0  0  0  0  0  3  0  0  0  0  0  0
  189.8070  171.5500  139.8310 N   0  0  0  0  0  2  0  0  0  0  0  0
  193.2170  173.9750  143.5720 N   0  0  0  0  0  0  0  0  0  0  0  0
  194.6630  171.6250  144.9730 C   0  0  0  0  0  1  0  0  0  0  0  0
  191.1390  177.2640  146.4490 C   0  0  0  0  0  2  0  0  0  0  0  0
  193.4510  176.4440  146.8100 C   0  0  0  0  0  3  0  0  0  0  0  0
  194.2770  173.1330  143.0170 C   0  0  0  0  0  2  0  0  0  0  0  0
  189.2350  173.7970  140.6370 N   0  0  0  0  0  0  0  0  0  0  0  0
  189.3480  174.2860  142.0540 C   0  0  1  0  0  3  0  0  0  0  0  0
  192.2920  176.4160  146.0070 C   0  0  0  0  0  0  0  0  0  0  0  0
  192.0030  174.2630  143.0580 C   0  0  0  0  0  0  0  0  0  0  0  0
  195.6950  173.9090  145.0110 C   0  0  0  0  0  2  0  0  0  0  0  0
  189.4130  176.5120  144.8850 C   0  0  1  0  0  3  0  0  0  0  0  0
  196.5180  172.1560  143.4510 C   0  0  0  0  0  1  0  0  0  0  0  0
  190.3950  174.5140  141.2010 C   0  0  1  0  0  3  0  0  0  0  0  0
  187.8160  172.6120  139.2290 O   0  0  0  0  0  0  0  0  0  0  0  0
  191.5370  173.6790  141.7310 C   0  0  2  0  0  3  0  0  0  0  0  0
  190.2380  177.7060  145.3180 C   0  0  0  0  0  2  0  0  0  0  0  0
  187.0470  176.4940  145.7050 C   0  0  0  0  0  3  0  0  0  0  0  0
  187.9600  176.8700  144.7140 C   0  0  0  0  0  0  0  0  0  0  0  0
  187.5020  177.5360  143.5660 C   0  0  0  0  0  3  0  0  0  0  0  0
  185.5780  178.6660  141.9920 Cl  0  0  0  0  0  0  0  0  0  0  0  0
  185.2380  177.4600  144.4180 C   0  0  0  0  0  3  0  0  0  0  0  0
  186.1440  177.8320  143.4230 C   0  0  0  0  0  0  0  0  0  0  0  0
  185.6880  176.7910  145.5600 C   0  0  0  0  0  3  0  0  0  0  0  0
  190.8160  169.2580  140.4780 O   0  0  0  0  0  1  0  0  0  0  0  0
  191.8000  170.2240  140.2570 C   0  0  0  0  0  2  0  0  0  0  0  0
  2 14  1  0  0  0  0
  2 22  1  0  0  0  0
  3 20  1  0  0  0  0
  4 37  1  1  0  0  0
  4  1  1  0  0  0  0
  5 10  1  0  0  0  0
  6 11  2  0  0  0  0
  7  3  1  0  0  0  0
  8 18  1  0  0  0  0
  9  3  2  0  0  0  0
  9  6  1  0  0  0  0
 10  7  1  0  0  0  0
 10 23  1  0  0  0  0
 11 16  1  0  0  0  0
 12  8  1  0  0  0  0
 12  4  1  0  0  0  0
 13  9  1  0  0  0  0
 17 13  1  0  0  0  0
 17  2  1  0  0  0  0
 18 19  1  0  0  0  0
 19  5  1  6  0  0  0
 20 15  1  0  0  0  0
 20 16  2  0  0  0  0
 21 13  1  0  0  0  0
 21  7  2  0  0  0  0
 22  6  1  0  0  0  0
 23 30  1  6  0  0  0
 23 28  1  0  0  0  0
 24  2  1  0  0  0  0
 25 18  1  6  0  0  0
 25 27  1  0  0  0  0
 25 19  1  0  0  0  0
 26  8  2  0  0  0  0
 27  1  1  1  0  0  0
 27 21  1  0  0  0  0
 28 15  1  0  0  0  0
 30 29  2  0  0  0  0
 31 30  1  0  0  0  0
 32 34  1  0  0  0  0
 33 35  2  0  0  0  0
 34 31  2  0  0  0  0
 34 33  1  0  0  0  0
 35 29  1  0  0  0  0
 37 36  1  0  0  0  0
M  END
>  <MODEL>
7

>  <REMARK>
 VINA RESULT:      -8.3      2.652      6.818
  Name = 
  2 active torsions:
  status: ('A' for Active; 'I' for Inactive)
    1  A    between atoms: CA_4  and  C_37
    2  A    between atoms: C_23  and  C_30
                            x       y       z     vdW  Elec       q    Type
                         _______ _______ _______ _____ _____    ______ ____

>  <TORSDO>
F 2

$$$$
=
 OpenBabel11112417213D

 37 44  0  0  1  0  0  0  0  0999 V2000
  189.9650  175.6410  146.1730 C   0  0  0  0  0  2  0  0  0  0  0  0
  186.6090  178.5960  147.5270 C   0  0  0  0  0  0  0  0  0  0  0  0
  186.6470  177.6110  143.4590 C   0  0  0  0  0  0  0  0  0  0  0  0
  191.3730  175.5800  146.7870 C   0  0  2  0  0  3  0  0  0  0  0  0
  189.8050  175.8370  142.0130 C   0  0  0  0  0  2  0  0  0  0  0  0
  185.5440  178.8480  145.2360 C   0  0  0  0  0  0  0  0  0  0  0  0
  187.8830  176.9530  143.3430 C   0  0  0  0  0  0  0  0  0  0  0  0
  192.4420  174.4700  144.7480 C   0  0  0  0  0  0  0  0  0  0  0  0
  186.5990  178.1000  144.7410 C   0  0  0  0  0  0  0  0  0  0  0  0
  188.3970  176.2750  142.1420 N   0  0  0  0  0  0  0  0  0  0  0  0
  184.4770  179.1290  144.3740 C   0  0  0  0  0  3  0  0  0  0  0  0
  192.2190  174.5570  146.1600 N   0  0  0  0  0  2  0  0  0  0  0  0
  187.6850  177.7890  145.4490 N   0  0  0  0  0  0  0  0  0  0  0  0
  185.9550  177.2980  147.9670 C   0  0  0  0  0  1  0  0  0  0  0  0
  185.4660  177.3390  141.1730 C   0  0  0  0  0  2  0  0  0  0  0  0
  184.4960  178.6340  143.0530 C   0  0  0  0  0  3  0  0  0  0  0  0
  187.9370  178.2830  146.8040 C   0  0  0  0  0  2  0  0  0  0  0  0
  191.5900  175.1870  143.8720 N   0  0  0  0  0  0  0  0  0  0  0  0
  190.1930  175.2310  143.3180 C   0  0  1  0  0  3  0  0  0  0  0  0
  185.5830  177.8790  142.5670 C   0  0  0  0  0  0  0  0  0  0  0  0
  188.5080  177.1020  144.6280 C   0  0  0  0  0  0  0  0  0  0  0  0
  185.6300  179.3960  146.6340 C   0  0  0  0  0  2  0  0  0  0  0  0
  187.4410  175.8980  141.0910 C   0  0  1  0  0  3  0  0  0  0  0  0
  186.9150  179.4160  148.7630 C   0  0  0  0  0  1  0  0  0  0  0  0
  190.7300  176.3850  143.8250 C   0  0  1  0  0  3  0  0  0  0  0  0
  193.3340  173.7100  144.2910 O   0  0  0  0  0  0  0  0  0  0  0  0
  189.9140  176.7030  145.0570 C   0  0  2  0  0  3  0  0  0  0  0  0
  186.7960  177.1280  140.4880 C   0  0  0  0  0  2  0  0  0  0  0  0
  187.7800  175.2910  138.6850 C   0  0  0  0  0  3  0  0  0  0  0  0
  187.9980  174.9830  140.0320 C   0  0  0  0  0  0  0  0  0  0  0  0
  188.6950  173.8110  140.3710 C   0  0  0  0  0  3  0  0  0  0  0  0
  190.0480  171.5110  139.7950 Cl  0  0  0  0  0  0  0  0  0  0  0  0
  188.9620  173.2840  138.0240 C   0  0  0  0  0  3  0  0  0  0  0  0
  189.1780  172.9680  139.3680 C   0  0  0  0  0  0  0  0  0  0  0  0
  188.2630  174.4450  137.6820 C   0  0  0  0  0  3  0  0  0  0  0  0
  191.5660  176.4560  148.9990 O   0  0  0  0  0  1  0  0  0  0  0  0
  191.2750  175.2990  148.2740 C   0  0  0  0  0  2  0  0  0  0  0  0
  1  4  1  0  0  0  0
  2 14  1  0  0  0  0
  2 24  1  0  0  0  0
  3  9  1  0  0  0  0
  4 37  1  1  0  0  0
  5 10  1  0  0  0  0
  6 22  1  0  0  0  0
  7  3  1  0  0  0  0
  7 21  2  0  0  0  0
  8 12  1  0  0  0  0
  9  6  2  0  0  0  0
  9 13  1  0  0  0  0
 10  7  1  0  0  0  0
 11  6  1  0  0  0  0
 12  4  1  0  0  0  0
 13 17  1  0  0  0  0
 15 20  1  0  0  0  0
 16 11  2  0  0  0  0
 17  2  1  0  0  0  0
 18  8  1  0  0  0  0
 19  5  1  6  0  0  0
 19 25  1  0  0  0  0
 19 18  1  0  0  0  0
 20 16  1  0  0  0  0
 20  3  2  0  0  0  0
 21 27  1  0  0  0  0
 21 13  1  0  0  0  0
 22  2  1  0  0  0  0
 23 30  1  6  0  0  0
 23 10  1  0  0  0  0
 25 18  1  1  0  0  0
 25 27  1  0  0  0  0
 26  8  2  0  0  0  0
 27  1  1  1  0  0  0
 28 23  1  0  0  0  0
 28 15  1  0  0  0  0
 29 30  1  0  0  0  0
 30 31  2  0  0  0  0
 33 34  2  0  0  0  0
 34 32  1  0  0  0  0
 34 31  1  0  0  0  0
 35 33  1  0  0  0  0
 35 29  2  0  0  0  0
 37 36  1  0  0  0  0
M  END
>  <MODEL>
8

>  <REMARK>
 VINA RESULT:      -8.3      2.732      6.291
  Name = 
  2 active torsions:
  status: ('A' for Active; 'I' for Inactive)
    1  A    between atoms: CA_4  and  C_37
    2  A    between atoms: C_23  and  C_30
                            x       y       z     vdW  Elec       q    Type
                         _______ _______ _______ _____ _____    ______ ____

>  <TORSDO>
F 2

$$$$
=
 OpenBabel11112417213D

 37 44  0  0  1  0  0  0  0  0999 V2000
  189.5090  175.0690  141.3330 C   0  0  0  0  0  2  0  0  0  0  0  0
  187.6620  176.8490  145.2380 C   0  0  0  0  0  0  0  0  0  0  0  0
  191.6880  175.7260  145.4660 C   0  0  0  0  0  0  0  0  0  0  0  0
  188.7370  174.2180  140.3120 C   0  0  2  0  0  3  0  0  0  0  0  0
  193.1560  173.5080  142.6130 C   0  0  0  0  0  2  0  0  0  0  0  0
  189.7840  176.6960  146.6230 C   0  0  0  0  0  0  0  0  0  0  0  0
  191.8470  175.0130  144.2660 C   0  0  0  0  0  0  0  0  0  0  0  0
  190.8270  173.1150  139.3380 C   0  0  0  0  0  0  0  0  0  0  0  0
  190.3510  176.0240  145.5530 C   0  0  0  0  0  0  0  0  0  0  0  0
  193.1080  174.4660  143.7400 N   0  0  0  0  0  0  0  0  0  0  0  0
  190.6230  177.0780  147.6770 C   0  0  0  0  0  3  0  0  0  0  0  0
  189.5730  173.7910  139.1840 N   0  0  0  0  0  2  0  0  0  0  0  0
  189.6570  175.5820  144.5030 N   0  0  0  0  0  0  0  0  0  0  0  0
  187.9340  178.1520  144.5060 C   0  0  0  0  0  1  0  0  0  0  0  0
  194.0460  175.9140  146.5130 C   0  0  0  0  0  2  0  0  0  0  0  0
  192.0030  176.7910  147.6120 C   0  0  0  0  0  3  0  0  0  0  0  0
  188.2000  175.6680  144.4020 C   0  0  0  0  0  2  0  0  0  0  0  0
  191.4560  173.1140  140.6070 N   0  0  0  0  0  0  0  0  0  0  0  0
  192.1800  173.9880  141.5940 C   0  0  1  0  0  3  0  0  0  0  0  0
  192.5590  176.1010  146.5150 C   0  0  0  0  0  0  0  0  0  0  0  0
  190.5290  174.9400  143.6970 C   0  0  0  0  0  0  0  0  0  0  0  0
  188.2940  176.9040  146.6490 C   0  0  0  0  0  2  0  0  0  0  0  0
  194.3730  175.0000  144.2670 C   0  0  1  0  0  3  0  0  0  0  0  0
  186.1630  176.6920  145.3860 C   0  0  0  0  0  1  0  0  0  0  0  0
  191.1480  173.2100  142.0470 C   0  0  1  0  0  3  0  0  0  0  0  0
  191.3930  172.5920  138.3440 O   0  0  0  0  0  0  0  0  0  0  0  0
  190.0640  174.1790  142.4620 C   0  0  2  0  0  3  0  0  0  0  0  0
  194.5070  174.6970  145.7440 C   0  0  0  0  0  2  0  0  0  0  0  0
  196.4010  173.5550  144.0010 C   0  0  0  0  0  3  0  0  0  0  0  0
  195.6000  174.5860  143.4980 C   0  0  0  0  0  0  0  0  0  0  0  0
  195.9740  175.2390  142.3120 C   0  0  0  0  0  3  0  0  0  0  0  0
  197.5920  175.6650  140.1550 Cl  0  0  0  0  0  0  0  0  0  0  0  0
  197.9250  173.8160  142.1370 C   0  0  0  0  0  3  0  0  0  0  0  0
  197.1320  174.8510  141.6340 C   0  0  0  0  0  0  0  0  0  0  0  0
  197.5590  173.1680  143.3210 C   0  0  0  0  0  3  0  0  0  0  0  0
  187.4410  176.2170  140.4540 O   0  0  0  0  0  1  0  0  0  0  0  0
  187.5500  174.9990  139.7820 C   0  0  0  0  0  2  0  0  0  0  0  0
  2 24  1  0  0  0  0
  2 22  1  0  0  0  0
  3  9  2  0  0  0  0
  3 20  1  0  0  0  0
  4 37  1  6  0  0  0
  4  1  1  0  0  0  0
  5 10  1  0  0  0  0
  6 22  1  0  0  0  0
  6 11  2  0  0  0  0
  7  3  1  0  0  0  0
  8 18  1  0  0  0  0
  9  6  1  0  0  0  0
 10  7  1  0  0  0  0
 10 23  1  0  0  0  0
 12  8  1  0  0  0  0
 12  4  1  0  0  0  0
 13  9  1  0  0  0  0
 14  2  1  0  0  0  0
 15 20  1  0  0  0  0
 16 11  1  0  0  0  0
 17 13  1  0  0  0  0
 17  2  1  0  0  0  0
 18 19  1  0  0  0  0
 19 25  1  0  0  0  0
 19  5  1  1  0  0  0
 20 16  2  0  0  0  0
 21  7  2  0  0  0  0
 21 13  1  0  0  0  0
 23 30  1  6  0  0  0
 23 28  1  0  0  0  0
 25 18  1  6  0  0  0
 25 27  1  0  0  0  0
 26  8  2  0  0  0  0
 27  1  1  6  0  0  0
 27 21  1  0  0  0  0
 28 15  1  0  0  0  0
 30 29  1  0  0  0  0
 31 30  2  0  0  0  0
 32 34  1  0  0  0  0
 33 35  1  0  0  0  0
 34 33  2  0  0  0  0
 34 31  1  0  0  0  0
 35 29  2  0  0  0  0
 37 36  1  0  0  0  0
M  END
>  <MODEL>
9

>  <REMARK>
 VINA RESULT:      -8.2      2.206      3.232
  Name = 
  2 active torsions:
  status: ('A' for Active; 'I' for Inactive)
    1  A    between atoms: CA_4  and  C_37
    2  A    between atoms: C_23  and  C_30
                            x       y       z     vdW  Elec       q    Type
                         _______ _______ _______ _____ _____    ______ ____

>  <TORSDO>
F 2

$$$$
