=
 OpenBabel11112417563D

 34 41  0  0  1  0  0  0  0  0999 V2000
  189.4310  175.1350  142.8940 C   0  0  0  0  0  0  0  0  0  0  0  0
  191.6440  173.8890  142.5000 C   0  0  0  0  0  3  0  0  0  0  0  0
  185.6890  179.2480  146.1980 N   0  0  2  0  0  0  0  0  0  0  0  0
  187.3560  176.3330  143.3990 C   0  0  0  0  0  0  0  0  0  0  0  0
  187.1520  177.4320  145.6520 C   0  0  1  0  0  3  0  0  0  0  0  0
  186.5830  178.4650  147.9920 C   0  0  0  0  0  2  0  0  0  0  0  0
  185.8830  179.7410  147.5540 C   0  0  0  0  0  2  0  0  0  0  0  0
  184.1720  178.2390  144.5370 C   0  0  0  0  0  2  0  0  0  0  0  0
  190.9650  174.5610  144.6690 C   0  0  0  0  0  0  0  0  0  0  0  0
  192.8790  175.5690  146.5960 C   0  0  0  0  0  2  0  0  0  0  0  0
  187.9430  176.2710  146.2390 C   0  0  0  0  0  2  0  0  0  0  0  0
  185.4940  178.0370  143.7640 C   0  0  0  0  0  2  0  0  0  0  0  0
  190.1180  175.1250  145.6450 C   0  0  0  0  0  0  0  0  0  0  0  0
  192.6680  173.3610  143.5070 C   0  0  0  0  0  3  0  0  0  0  0  0
  186.3920  176.9450  144.3960 C   0  0  1  0  0  3  0  0  0  0  0  0
  184.2940  179.1080  145.8110 C   0  0  0  0  0  2  0  0  0  0  0  0
  193.3000  174.8150  145.4010 N   0  0  0  0  0  0  0  0  0  0  0  0
  188.5580  175.7270  143.8430 C   0  0  0  0  0  0  0  0  0  0  0  0
  186.1300  177.9420  146.6470 C   0  0  1  0  0  3  0  0  0  0  0  0
  188.9060  175.7160  145.2200 C   0  0  0  0  0  0  0  0  0  0  0  0
  187.8850  175.6850  141.1120 C   0  0  0  0  0  3  0  0  0  0  0  0
  191.9080  174.7960  147.4890 C   0  0  0  0  0  2  0  0  0  0  0  0
  187.0250  176.2800  142.0370 C   0  0  0  0  0  3  0  0  0  0  0  0
  190.4550  175.1070  147.1240 C   0  0  0  0  0  2  0  0  0  0  0  0
  192.2740  173.8810  144.9000 C   0  0  1  0  0  3  0  0  0  0  0  0
  189.0850  175.1190  141.5390 C   0  0  0  0  0  3  0  0  0  0  0  0
  190.6240  174.5610  143.3390 C   0  0  0  0  0  0  0  0  0  0  0  0
  194.4640  174.0300  145.7920 C   0  0  0  0  0  2  0  0  0  0  0  0
  195.7300  174.8340  145.5500 C   0  0  0  0  0  2  0  0  0  0  0  0
  197.0690  176.8470  142.8710 N   0  0  0  0  0  2  0  0  0  0  0  0
  197.1250  174.5340  143.5050 C   0  0  0  0  0  2  0  0  0  0  0  0
  195.8720  175.1600  144.0730 C   0  0  2  0  0  3  0  0  0  0  0  0
  197.9410  175.6850  142.9580 C   0  0  0  0  0  2  0  0  0  0  0  0
  196.0610  176.6490  143.9000 C   0  0  0  0  0  2  0  0  0  0  0  0
  1 27  2  0  0  0  0
  1 18  1  0  0  0  0
  2 27  1  0  0  0  0
  2 14  2  0  0  0  0
  3 16  1  1  0  0  0
  3 19  1  0  0  0  0
  3  7  1  0  0  0  0
  4 18  1  0  0  0  0
  4 15  1  0  0  0  0
  5 11  1  1  0  0  0
  5 19  1  0  0  0  0
  7  6  1  0  0  0  0
  8 16  1  0  0  0  0
  9 25  1  0  0  0  0
  9 13  2  0  0  0  0
 10 22  1  0  0  0  0
 12  8  1  0  0  0  0
 13 24  1  0  0  0  0
 15 12  1  6  0  0  0
 15  5  1  0  0  0  0
 17 28  1  0  0  0  0
 17 10  1  0  0  0  0
 18 20  2  0  0  0  0
 19  6  1  1  0  0  0
 20 13  1  0  0  0  0
 20 11  1  0  0  0  0
 21 26  2  0  0  0  0
 21 23  1  0  0  0  0
 23  4  2  0  0  0  0
 24 22  1  0  0  0  0
 25 14  1  6  0  0  0
 25 17  1  0  0  0  0
 26  1  1  0  0  0  0
 27  9  1  0  0  0  0
 29 28  1  0  0  0  0
 30 33  1  0  0  0  0
 30 34  1  0  0  0  0
 31 32  1  0  0  0  0
 32 29  1  1  0  0  0
 33 31  1  0  0  0  0
 34 32  1  0  0  0  0
M  END
>  <MODEL>
1

>  <REMARK>
 VINA RESULT:      -8.9      0.000      0.000
  Name = 
  3 active torsions:
  status: ('A' for Active; 'I' for Inactive)
    1  A    between atoms: N_17  and  C_28
    2  A    between atoms: C_28  and  C_29
    3  A    between atoms: C_29  and  C_32
                            x       y       z     vdW  Elec       q    Type
                         _______ _______ _______ _____ _____    ______ ____

>  <TORSDO>
F 3

$$$$
=
 OpenBabel11112417563D

 34 41  0  0  1  0  0  0  0  0999 V2000
  188.5460  176.6070  146.3570 C   0  0  0  0  0  0  0  0  0  0  0  0
  190.5940  175.7810  147.6700 C   0  0  0  0  0  3  0  0  0  0  0  0
  185.2180  177.4360  140.8720 N   0  0  2  0  0  0  0  0  0  0  0  0
  186.6710  177.4000  144.9950 C   0  0  0  0  0  0  0  0  0  0  0  0
  186.9760  177.4640  142.4990 C   0  0  1  0  0  3  0  0  0  0  0  0
  187.0990  177.8470  139.9100 C   0  0  0  0  0  2  0  0  0  0  0  0
  185.7150  177.3650  139.5060 C   0  0  0  0  0  2  0  0  0  0  0  0
  183.9270  178.6770  142.5660 C   0  0  0  0  0  2  0  0  0  0  0  0
  190.7550  176.4320  145.3970 C   0  0  0  0  0  0  0  0  0  0  0  0
  192.4500  174.9910  143.5400 C   0  0  0  0  0  2  0  0  0  0  0  0
  188.4300  177.8490  142.7320 C   0  0  0  0  0  2  0  0  0  0  0  0
  184.6100  177.6710  143.5180 C   0  0  0  0  0  2  0  0  0  0  0  0
  190.3060  176.9270  144.1560 C   0  0  0  0  0  0  0  0  0  0  0  0
  192.0650  175.7090  147.2550 C   0  0  0  0  0  3  0  0  0  0  0  0
  186.1230  177.9510  143.6940 C   0  0  1  0  0  3  0  0  0  0  0  0
  184.1320  178.3840  141.0610 C   0  0  0  0  0  2  0  0  0  0  0  0
  192.6010  174.8540  145.0010 N   0  0  0  0  0  0  0  0  0  0  0  0
  188.0500  177.0940  145.1200 C   0  0  0  0  0  0  0  0  0  0  0  0
  186.4400  178.1210  141.2440 C   0  0  1  0  0  3  0  0  0  0  0  0
  188.9370  177.2550  144.0220 C   0  0  0  0  0  0  0  0  0  0  0  0
  186.3380  176.8050  147.3320 C   0  0  0  0  0  3  0  0  0  0  0  0
  192.5950  176.4320  143.0490 C   0  0  0  0  0  2  0  0  0  0  0  0
  185.8380  177.2730  146.1160 C   0  0  0  0  0  3  0  0  0  0  0  0
  191.2350  177.1300  142.9750 C   0  0  0  0  0  2  0  0  0  0  0  0
  192.1500  176.0390  145.7550 C   0  0  1  0  0  3  0  0  0  0  0  0
  187.6850  176.4680  147.4500 C   0  0  0  0  0  3  0  0  0  0  0  0
  189.9010  176.2860  146.4630 C   0  0  0  0  0  0  0  0  0  0  0  0
  194.0250  174.6770  145.2570 C   0  0  0  0  0  2  0  0  0  0  0  0
  194.2990  173.2370  145.6540 C   0  0  0  0  0  2  0  0  0  0  0  0
  197.2730  173.8290  143.6970 N   0  0  0  0  0  2  0  0  0  0  0  0
  196.7740  173.1590  145.9460 C   0  0  0  0  0  2  0  0  0  0  0  0
  195.6160  172.7680  145.0580 C   0  0  2  0  0  3  0  0  0  0  0  0
  197.6760  174.0150  145.0830 C   0  0  0  0  0  2  0  0  0  0  0  0
  195.8620  173.4830  143.7500 C   0  0  0  0  0  2  0  0  0  0  0  0
  1 27  1  0  0  0  0
  1 26  2  0  0  0  0
  3  7  1  6  0  0  0
  3 16  1  0  0  0  0
  3 19  1  0  0  0  0
  4 18  2  0  0  0  0
  4 23  1  0  0  0  0
  5 11  1  1  0  0  0
  5 15  1  0  0  0  0
  7  6  1  0  0  0  0
  8 12  1  0  0  0  0
  9 25  1  0  0  0  0
  9 27  2  0  0  0  0
 10 17  1  0  0  0  0
 11 20  1  0  0  0  0
 13  9  1  0  0  0  0
 14  2  2  0  0  0  0
 15 12  1  6  0  0  0
 15  4  1  0  0  0  0
 16  8  1  0  0  0  0
 17 28  1  0  0  0  0
 17 25  1  0  0  0  0
 18  1  1  0  0  0  0
 19  6  1  6  0  0  0
 19  5  1  0  0  0  0
 20 13  2  0  0  0  0
 20 18  1  0  0  0  0
 21 26  1  0  0  0  0
 22 10  1  0  0  0  0
 23 21  2  0  0  0  0
 24 22  1  0  0  0  0
 24 13  1  0  0  0  0
 25 14  1  1  0  0  0
 27  2  1  0  0  0  0
 28 29  1  0  0  0  0
 30 34  1  0  0  0  0
 30 33  1  0  0  0  0
 32 29  1  1  0  0  0
 32 31  1  0  0  0  0
 33 31  1  0  0  0  0
 34 32  1  0  0  0  0
M  END
>  <MODEL>
2

>  <REMARK>
 VINA RESULT:      -8.8      2.037      4.064
  Name = 
  3 active torsions:
  status: ('A' for Active; 'I' for Inactive)
    1  A    between atoms: N_17  and  C_28
    2  A    between atoms: C_28  and  C_29
    3  A    between atoms: C_29  and  C_32
                            x       y       z     vdW  Elec       q    Type
                         _______ _______ _______ _____ _____    ______ ____

>  <TORSDO>
F 3

$$$$
=
 OpenBabel11112417563D

 34 41  0  0  1  0  0  0  0  0999 V2000
  192.1060  176.3800  145.5980 C   0  0  0  0  0  0  0  0  0  0  0  0
  189.8430  177.1380  146.5510 C   0  0  0  0  0  3  0  0  0  0  0  0
  196.1680  175.2860  140.6840 N   0  0  2  0  0  0  0  0  0  0  0  0
  194.2000  175.6330  144.5730 C   0  0  0  0  0  0  0  0  0  0  0  0
  194.2250  175.2630  142.0850 C   0  0  1  0  0  3  0  0  0  0  0  0
  194.4690  174.5840  139.5660 C   0  0  0  0  0  2  0  0  0  0  0  0
  195.8460  175.1550  139.2710 C   0  0  0  0  0  2  0  0  0  0  0  0
  197.3330  174.3750  142.6570 C   0  0  0  0  0  2  0  0  0  0  0  0
  190.0310  176.2260  144.3720 C   0  0  0  0  0  0  0  0  0  0  0  0
  188.4710  177.2750  142.1660 C   0  0  0  0  0  2  0  0  0  0  0  0
  192.7910  174.7620  142.1910 C   0  0  0  0  0  2  0  0  0  0  0  0
  196.4500  175.4080  143.3920 C   0  0  0  0  0  2  0  0  0  0  0  0
  190.6760  175.6440  143.2620 C   0  0  0  0  0  0  0  0  0  0  0  0
  188.4370  177.0160  145.9600 C   0  0  0  0  0  3  0  0  0  0  0  0
  194.9560  174.9980  143.4220 C   0  0  1  0  0  3  0  0  0  0  0  0
  197.2980  174.4770  141.1140 C   0  0  0  0  0  2  0  0  0  0  0  0
  188.1230  177.5580  143.5710 N   0  0  0  0  0  0  0  0  0  0  0  0
  192.7960  175.8110  144.4970 C   0  0  0  0  0  0  0  0  0  0  0  0
  194.9710  174.5270  140.9910 C   0  0  1  0  0  3  0  0  0  0  0  0
  192.0740  175.4410  143.3300 C   0  0  0  0  0  0  0  0  0  0  0  0
  194.1790  176.5140  146.8420 C   0  0  0  0  0  3  0  0  0  0  0  0
  188.5140  175.7810  141.8420 C   0  0  0  0  0  2  0  0  0  0  0  0
  194.8690  175.9660  145.7600 C   0  0  0  0  0  3  0  0  0  0  0  0
  189.9270  175.2190  142.0140 C   0  0  0  0  0  2  0  0  0  0  0  0
  188.5730  176.5150  144.5120 C   0  0  1  0  0  3  0  0  0  0  0  0
  192.8040  176.7260  146.7600 C   0  0  0  0  0  3  0  0  0  0  0  0
  190.7260  176.5740  145.5040 C   0  0  0  0  0  0  0  0  0  0  0  0
  186.6680  177.6190  143.6350 C   0  0  0  0  0  2  0  0  0  0  0  0
  186.1900  178.9760  143.1510 C   0  0  0  0  0  2  0  0  0  0  0  0
  183.6540  178.7810  145.7110 N   0  0  0  0  0  2  0  0  0  0  0  0
  185.9310  179.5240  145.5690 C   0  0  0  0  0  2  0  0  0  0  0  0
  185.3030  179.6270  144.1990 C   0  0  2  0  0  3  0  0  0  0  0  0
  184.9250  178.7800  146.4210 C   0  0  0  0  0  2  0  0  0  0  0  0
  184.0010  178.8680  144.3020 C   0  0  0  0  0  2  0  0  0  0  0  0
  1 26  2  0  0  0  0
  3  7  1  6  0  0  0
  3 19  1  0  0  0  0
  3 16  1  0  0  0  0
  4 23  1  0  0  0  0
  5 11  1  1  0  0  0
  5 15  1  0  0  0  0
  7  6  1  0  0  0  0
  8 12  1  0  0  0  0
  9 25  1  0  0  0  0
  9 27  2  0  0  0  0
 10 17  1  0  0  0  0
 11 20  1  0  0  0  0
 13 20  2  0  0  0  0
 13  9  1  0  0  0  0
 14  2  2  0  0  0  0
 15 12  1  6  0  0  0
 15  4  1  0  0  0  0
 16  8  1  0  0  0  0
 17 28  1  0  0  0  0
 17 25  1  0  0  0  0
 18  4  2  0  0  0  0
 18  1  1  0  0  0  0
 19  6  1  6  0  0  0
 19  5  1  0  0  0  0
 20 18  1  0  0  0  0
 22 24  1  0  0  0  0
 22 10  1  0  0  0  0
 23 21  2  0  0  0  0
 24 13  1  0  0  0  0
 25 14  1  1  0  0  0
 26 21  1  0  0  0  0
 27  1  1  0  0  0  0
 27  2  1  0  0  0  0
 29 28  1  0  0  0  0
 30 33  1  0  0  0  0
 31 33  1  0  0  0  0
 32 29  1  6  0  0  0
 32 34  1  0  0  0  0
 32 31  1  0  0  0  0
 34 30  1  0  0  0  0
M  END
>  <MODEL>
3

>  <REMARK>
 VINA RESULT:      -8.6      2.008      9.223
  Name = 
  3 active torsions:
  status: ('A' for Active; 'I' for Inactive)
    1  A    between atoms: N_17  and  C_28
    2  A    between atoms: C_28  and  C_29
    3  A    between atoms: C_29  and  C_32
                            x       y       z     vdW  Elec       q    Type
                         _______ _______ _______ _____ _____    ______ ____

>  <TORSDO>
F 3

$$$$
=
 OpenBabel11112417563D

 34 41  0  0  1  0  0  0  0  0999 V2000
  189.6250  174.3360  144.9430 C   0  0  0  0  0  0  0  0  0  0  0  0
  191.2420  172.4250  144.3620 C   0  0  0  0  0  3  0  0  0  0  0  0
  184.4790  178.0540  143.7030 N   0  0  2  0  0  0  0  0  0  0  0  0
  188.0550  176.1670  145.3650 C   0  0  0  0  0  0  0  0  0  0  0  0
  186.5640  176.8970  143.4760 C   0  0  1  0  0  3  0  0  0  0  0  0
  185.0660  178.0030  141.6330 C   0  0  0  0  0  2  0  0  0  0  0  0
  183.7940  178.2360  142.4320 C   0  0  0  0  0  2  0  0  0  0  0  0
  185.5180  179.0870  145.6850 C   0  0  0  0  0  2  0  0  0  0  0  0
  190.1080  173.6490  142.6790 C   0  0  0  0  0  0  0  0  0  0  0  0
  189.0840  172.3410  140.3040 C   0  0  0  0  0  2  0  0  0  0  0  0
  187.7120  176.6070  142.5180 C   0  0  0  0  0  2  0  0  0  0  0  0
  186.0500  177.6520  145.8940 C   0  0  0  0  0  2  0  0  0  0  0  0
  189.2610  174.6420  142.1470 C   0  0  0  0  0  0  0  0  0  0  0  0
  191.7370  171.9350  142.9990 C   0  0  0  0  0  3  0  0  0  0  0  0
  187.1400  177.2660  144.8630 C   0  0  1  0  0  3  0  0  0  0  0  0
  184.4700  179.2310  144.5570 C   0  0  0  0  0  2  0  0  0  0  0  0
  190.0890  171.7020  141.1740 N   0  0  0  0  0  0  0  0  0  0  0  0
  188.7510  175.3380  144.4500 C   0  0  0  0  0  0  0  0  0  0  0  0
  185.7390  178.0680  142.9850 C   0  0  1  0  0  3  0  0  0  0  0  0
  188.5750  175.4900  143.0480 C   0  0  0  0  0  0  0  0  0  0  0  0
  189.1630  175.0360  147.2150 C   0  0  0  0  0  3  0  0  0  0  0  0
  189.5340  173.6950  139.7520 C   0  0  0  0  0  2  0  0  0  0  0  0
  188.2920  176.0180  146.7400 C   0  0  0  0  0  3  0  0  0  0  0  0
  189.0740  174.8400  140.6550 C   0  0  0  0  0  2  0  0  0  0  0  0
  190.9290  172.6650  141.9120 C   0  0  1  0  0  3  0  0  0  0  0  0
  189.8220  174.1950  146.3210 C   0  0  0  0  0  3  0  0  0  0  0  0
  190.2880  173.5090  144.0330 C   0  0  0  0  0  0  0  0  0  0  0  0
  190.9620  170.9270  140.3010 C   0  0  0  0  0  2  0  0  0  0  0  0
  190.1380  170.2500  139.2210 C   0  0  0  0  0  2  0  0  0  0  0  0
  190.5860  171.6620  135.9300 N   0  0  0  0  0  2  0  0  0  0  0  0
  191.9220  171.3910  137.9050 C   0  0  0  0  0  2  0  0  0  0  0  0
  190.8620  170.3140  137.8870 C   0  0  2  0  0  3  0  0  0  0  0  0
  191.5590  172.3350  136.7780 C   0  0  0  0  0  2  0  0  0  0  0  0
  189.8940  170.7300  136.8040 C   0  0  0  0  0  2  0  0  0  0  0  0
  1 26  2  0  0  0  0
  3  7  1  6  0  0  0
  3 16  1  0  0  0  0
  4 23  1  0  0  0  0
  5 11  1  6  0  0  0
  5 15  1  0  0  0  0
  6  7  1  0  0  0  0
  8 12  1  0  0  0  0
  9 27  2  0  0  0  0
 10 17  1  0  0  0  0
 11 20  1  0  0  0  0
 13  9  1  0  0  0  0
 13 20  2  0  0  0  0
 14  2  2  0  0  0  0
 15  4  1  0  0  0  0
 15 12  1  1  0  0  0
 16  8  1  0  0  0  0
 17 25  1  0  0  0  0
 18  1  1  0  0  0  0
 18  4  2  0  0  0  0
 19  6  1  6  0  0  0
 19  5  1  0  0  0  0
 19  3  1  0  0  0  0
 20 18  1  0  0  0  0
 22 10  1  0  0  0  0
 22 24  1  0  0  0  0
 23 21  2  0  0  0  0
 24 13  1  0  0  0  0
 25  9  1  0  0  0  0
 25 14  1  1  0  0  0
 26 21  1  0  0  0  0
 27  2  1  0  0  0  0
 27  1  1  0  0  0  0
 28 17  1  0  0  0  0
 29 28  1  0  0  0  0
 30 33  1  0  0  0  0
 30 34  1  0  0  0  0
 32 31  1  0  0  0  0
 32 29  1  1  0  0  0
 33 31  1  0  0  0  0
 34 32  1  0  0  0  0
M  END
>  <MODEL>
4

>  <REMARK>
 VINA RESULT:      -8.5      3.364      5.729
  Name = 
  3 active torsions:
  status: ('A' for Active; 'I' for Inactive)
    1  A    between atoms: N_17  and  C_28
    2  A    between atoms: C_28  and  C_29
    3  A    between atoms: C_29  and  C_32
                            x       y       z     vdW  Elec       q    Type
                         _______ _______ _______ _____ _____    ______ ____

>  <TORSDO>
F 3

$$$$
=
 OpenBabel11112417563D

 34 41  0  0  1  0  0  0  0  0999 V2000
  189.7300  175.4570  143.1400 C   0  0  0  0  0  0  0  0  0  0  0  0
  192.0180  174.6220  142.3200 C   0  0  0  0  0  3  0  0  0  0  0  0
  186.0090  179.1650  146.9150 N   0  0  2  0  0  0  0  0  0  0  0  0
  187.6090  176.2880  144.0380 C   0  0  0  0  0  0  0  0  0  0  0  0
  187.6750  177.6100  146.1770 C   0  0  1  0  0  3  0  0  0  0  0  0
  187.4290  178.8100  148.4930 C   0  0  0  0  0  2  0  0  0  0  0  0
  186.3880  179.8580  148.1380 C   0  0  0  0  0  2  0  0  0  0  0  0
  184.4200  177.6750  145.7620 C   0  0  0  0  0  2  0  0  0  0  0  0
  191.7070  175.4260  144.5270 C   0  0  0  0  0  0  0  0  0  0  0  0
  193.7340  177.0270  145.8400 C   0  0  0  0  0  2  0  0  0  0  0  0
  188.8110  176.7110  146.6440 C   0  0  0  0  0  2  0  0  0  0  0  0
  185.5490  177.6340  144.7080 C   0  0  0  0  0  2  0  0  0  0  0  0
  190.9960  175.9380  145.6320 C   0  0  0  0  0  0  0  0  0  0  0  0
  193.3290  174.4360  143.0850 C   0  0  0  0  0  3  0  0  0  0  0  0
  186.7800  176.8270  145.1880 C   0  0  1  0  0  3  0  0  0  0  0  0
  184.6290  178.7100  146.8930 C   0  0  0  0  0  2  0  0  0  0  0  0
  194.0330  176.2190  144.6430 N   0  0  0  0  0  0  0  0  0  0  0  0
  188.9820  175.9880  144.2220 C   0  0  0  0  0  0  0  0  0  0  0  0
  186.8140  178.0390  147.3470 C   0  0  1  0  0  3  0  0  0  0  0  0
  189.6210  176.2240  145.4690 C   0  0  0  0  0  0  0  0  0  0  0  0
  187.7450  175.4620  141.7520 C   0  0  0  0  0  3  0  0  0  0  0  0
  193.1780  176.2030  147.0030 C   0  0  0  0  0  2  0  0  0  0  0  0
  187.0030  175.9960  142.8070 C   0  0  0  0  0  3  0  0  0  0  0  0
  191.6480  176.1780  146.9800 C   0  0  0  0  0  2  0  0  0  0  0  0
  193.1500  175.0470  144.4860 C   0  0  1  0  0  3  0  0  0  0  0  0
  189.1040  175.1990  141.9160 C   0  0  0  0  0  3  0  0  0  0  0  0
  191.0880  175.1870  143.3240 C   0  0  0  0  0  0  0  0  0  0  0  0
  195.3970  175.7310  144.8000 C   0  0  0  0  0  2  0  0  0  0  0  0
  195.4210  174.5870  145.7990 C   0  0  0  0  0  2  0  0  0  0  0  0
  197.6430  171.8690  144.9670 N   0  0  0  0  0  2  0  0  0  0  0  0
  197.5450  174.2280  144.5440 C   0  0  0  0  0  2  0  0  0  0  0  0
  196.7930  173.9350  145.8210 C   0  0  2  0  0  3  0  0  0  0  0  0
  197.8600  172.8770  143.9390 C   0  0  0  0  0  2  0  0  0  0  0  0
  196.6380  172.4320  145.8530 C   0  0  0  0  0  2  0  0  0  0  0  0
  1 27  2  0  0  0  0
  1 18  1  0  0  0  0
  2 14  2  0  0  0  0
  2 27  1  0  0  0  0
  3 16  1  1  0  0  0
  3 19  1  0  0  0  0
  3  7  1  0  0  0  0
  4 18  1  0  0  0  0
  4 15  1  0  0  0  0
  5 11  1  1  0  0  0
  5 19  1  0  0  0  0
  7  6  1  0  0  0  0
  8 16  1  0  0  0  0
  9 13  2  0  0  0  0
 10 22  1  0  0  0  0
 12  8  1  0  0  0  0
 13 24  1  0  0  0  0
 15 12  1  6  0  0  0
 15  5  1  0  0  0  0
 17 28  1  0  0  0  0
 17 10  1  0  0  0  0
 18 20  2  0  0  0  0
 19  6  1  1  0  0  0
 20 13  1  0  0  0  0
 20 11  1  0  0  0  0
 21 26  2  0  0  0  0
 21 23  1  0  0  0  0
 23  4  2  0  0  0  0
 24 22  1  0  0  0  0
 25 14  1  6  0  0  0
 25  9  1  0  0  0  0
 25 17  1  0  0  0  0
 26  1  1  0  0  0  0
 27  9  1  0  0  0  0
 28 29  1  0  0  0  0
 30 34  1  0  0  0  0
 31 32  1  0  0  0  0
 32 29  1  6  0  0  0
 32 34  1  0  0  0  0
 33 31  1  0  0  0  0
 33 30  1  0  0  0  0
M  END
>  <MODEL>
5

>  <REMARK>
 VINA RESULT:      -8.5      1.463      1.770
  Name = 
  3 active torsions:
  status: ('A' for Active; 'I' for Inactive)
    1  A    between atoms: N_17  and  C_28
    2  A    between atoms: C_28  and  C_29
    3  A    between atoms: C_29  and  C_32
                            x       y       z     vdW  Elec       q    Type
                         _______ _______ _______ _____ _____    ______ ____

>  <TORSDO>
F 3

$$$$
=
 OpenBabel11112417563D

 34 41  0  0  1  0  0  0  0  0999 V2000
  192.3570  175.8140  145.2790 C   0  0  0  0  0  0  0  0  0  0  0  0
  190.3640  177.3890  144.8850 C   0  0  0  0  0  3  0  0  0  0  0  0
  195.9530  170.6510  143.7810 N   0  0  2  0  0  0  0  0  0  0  0  0
  194.1870  174.2170  145.5900 C   0  0  0  0  0  0  0  0  0  0  0  0
  194.0850  172.0500  144.3170 C   0  0  1  0  0  3  0  0  0  0  0  0
  194.1180  169.6360  143.3000 C   0  0  0  0  0  2  0  0  0  0  0  0
  195.5890  169.5230  142.9360 C   0  0  0  0  0  2  0  0  0  0  0  0
  196.8840  171.4460  145.9210 C   0  0  0  0  0  2  0  0  0  0  0  0
  190.2910  175.1080  144.2460 C   0  0  0  0  0  0  0  0  0  0  0  0
  189.0080  174.2800  141.7830 C   0  0  0  0  0  2  0  0  0  0  0  0
  192.5730  172.0670  144.4990 C   0  0  0  0  0  2  0  0  0  0  0  0
  196.2940  172.7890  145.4360 C   0  0  0  0  0  2  0  0  0  0  0  0
  190.7570  173.7850  144.1110 C   0  0  0  0  0  0  0  0  0  0  0  0
  188.9640  177.0880  144.3480 C   0  0  0  0  0  3  0  0  0  0  0  0
  194.7460  172.8120  145.4900 C   0  0  1  0  0  3  0  0  0  0  0  0
  196.8540  170.3100  144.8710 C   0  0  0  0  0  2  0  0  0  0  0  0
  188.7610  175.6040  142.3840 N   0  0  0  0  0  0  0  0  0  0  0  0
  192.8700  174.4980  145.1480 C   0  0  0  0  0  0  0  0  0  0  0  0
  194.6110  170.6300  144.3270 C   0  0  1  0  0  3  0  0  0  0  0  0
  192.0620  173.4840  144.5650 C   0  0  0  0  0  0  0  0  0  0  0  0
  194.4160  176.5230  146.3390 C   0  0  0  0  0  3  0  0  0  0  0  0
  188.6770  173.1180  142.7200 C   0  0  0  0  0  2  0  0  0  0  0  0
  194.9340  175.2340  146.2040 C   0  0  0  0  0  3  0  0  0  0  0  0
  189.9090  172.6790  143.5140 C   0  0  0  0  0  2  0  0  0  0  0  0
  188.9520  175.6330  143.8470 C   0  0  1  0  0  3  0  0  0  0  0  0
  193.1350  176.8130  145.8740 C   0  0  0  0  0  3  0  0  0  0  0  0
  191.0660  176.0860  144.8190 C   0  0  0  0  0  0  0  0  0  0  0  0
  187.3670  175.9310  142.1100 C   0  0  0  0  0  2  0  0  0  0  0  0
  187.2840  176.8500  140.9040 C   0  0  0  0  0  2  0  0  0  0  0  0
  184.0290  178.3930  141.1160 N   0  0  0  0  0  2  0  0  0  0  0  0
  185.8490  177.9560  142.6170 C   0  0  0  0  0  2  0  0  0  0  0  0
  186.3930  178.0420  141.2090 C   0  0  2  0  0  3  0  0  0  0  0  0
  184.3420  177.9590  142.4690 C   0  0  0  0  0  2  0  0  0  0  0  0
  185.1780  178.0090  140.3120 C   0  0  0  0  0  2  0  0  0  0  0  0
  1 26  2  0  0  0  0
  3  7  1  6  0  0  0
  3 19  1  0  0  0  0
  3 16  1  0  0  0  0
  4 23  1  0  0  0  0
  5 19  1  0  0  0  0
  5 11  1  1  0  0  0
  5 15  1  0  0  0  0
  7  6  1  0  0  0  0
  9 27  2  0  0  0  0
 10 17  1  0  0  0  0
 10 22  1  0  0  0  0
 11 20  1  0  0  0  0
 12  8  1  0  0  0  0
 13  9  1  0  0  0  0
 13 20  2  0  0  0  0
 14  2  2  0  0  0  0
 15 12  1  6  0  0  0
 15  4  1  0  0  0  0
 16  8  1  0  0  0  0
 17 25  1  0  0  0  0
 18  1  1  0  0  0  0
 18  4  2  0  0  0  0
 19  6  1  6  0  0  0
 20 18  1  0  0  0  0
 22 24  1  0  0  0  0
 23 21  2  0  0  0  0
 24 13  1  0  0  0  0
 25  9  1  0  0  0  0
 25 14  1  6  0  0  0
 26 21  1  0  0  0  0
 27  2  1  0  0  0  0
 27  1  1  0  0  0  0
 28 17  1  0  0  0  0
 29 28  1  0  0  0  0
 30 33  1  0  0  0  0
 32 29  1  6  0  0  0
 32 31  1  0  0  0  0
 33 31  1  0  0  0  0
 34 30  1  0  0  0  0
 34 32  1  0  0  0  0
M  END
>  <MODEL>
6

>  <REMARK>
 VINA RESULT:      -8.3      2.784      9.236
  Name = 
  3 active torsions:
  status: ('A' for Active; 'I' for Inactive)
    1  A    between atoms: N_17  and  C_28
    2  A    between atoms: C_28  and  C_29
    3  A    between atoms: C_29  and  C_32
                            x       y       z     vdW  Elec       q    Type
                         _______ _______ _______ _____ _____    ______ ____

>  <TORSDO>
F 3

$$$$
=
 OpenBabel11112417563D

 34 41  0  0  1  0  0  0  0  0999 V2000
  189.5060  174.4840  144.9650 C   0  0  0  0  0  0  0  0  0  0  0  0
  191.1360  172.5550  144.4840 C   0  0  0  0  0  3  0  0  0  0  0  0
  184.3570  178.1200  143.5170 N   0  0  2  0  0  0  0  0  0  0  0  0
  187.9260  176.3250  145.2920 C   0  0  0  0  0  0  0  0  0  0  0  0
  186.4480  176.9630  143.3590 C   0  0  1  0  0  3  0  0  0  0  0  0
  184.9610  177.9780  141.4560 C   0  0  0  0  0  2  0  0  0  0  0  0
  183.6820  178.2420  142.2330 C   0  0  0  0  0  2  0  0  0  0  0  0
  185.3760  179.2460  145.4580 C   0  0  0  0  0  2  0  0  0  0  0  0
  190.0120  173.6970  142.7390 C   0  0  0  0  0  0  0  0  0  0  0  0
  189.0130  172.2790  140.4170 C   0  0  0  0  0  2  0  0  0  0  0  0
  187.6050  176.6350  142.4250 C   0  0  0  0  0  2  0  0  0  0  0  0
  185.9110  177.8240  145.7360 C   0  0  0  0  0  2  0  0  0  0  0  0
  189.1650  174.6620  142.1560 C   0  0  0  0  0  0  0  0  0  0  0  0
  191.6440  172.0070  143.1490 C   0  0  0  0  0  3  0  0  0  0  0  0
  187.0110  177.3970  144.7330 C   0  0  1  0  0  3  0  0  0  0  0  0
  184.3360  179.3340  144.3160 C   0  0  0  0  0  2  0  0  0  0  0  0
  190.0130  171.6850  141.3230 N   0  0  0  0  0  0  0  0  0  0  0  0
  188.6330  175.4590  144.4200 C   0  0  0  0  0  0  0  0  0  0  0  0
  185.6220  178.1080  142.8100 C   0  0  1  0  0  3  0  0  0  0  0  0
  188.4680  175.5460  143.0110 C   0  0  0  0  0  0  0  0  0  0  0  0
  189.0240  175.2840  147.2000 C   0  0  0  0  0  3  0  0  0  0  0  0
  189.4620  173.6080  139.8080 C   0  0  0  0  0  2  0  0  0  0  0  0
  188.1530  176.2400  146.6740 C   0  0  0  0  0  3  0  0  0  0  0  0
  188.9890  174.7920  140.6550 C   0  0  0  0  0  2  0  0  0  0  0  0
  190.8430  172.6830  142.0240 C   0  0  1  0  0  3  0  0  0  0  0  0
  189.6930  174.4060  146.3500 C   0  0  0  0  0  3  0  0  0  0  0  0
  190.1800  173.6190  144.0990 C   0  0  0  0  0  0  0  0  0  0  0  0
  190.8960  170.8750  140.4940 C   0  0  0  0  0  2  0  0  0  0  0  0
  190.8250  169.4230  140.9340 C   0  0  0  0  0  2  0  0  0  0  0  0
  194.4030  169.5280  141.3900 N   0  0  0  0  0  2  0  0  0  0  0  0
  192.5880  168.1680  142.1720 C   0  0  0  0  0  2  0  0  0  0  0  0
  192.1980  168.7780  140.8460 C   0  0  2  0  0  3  0  0  0  0  0  0
  193.8810  168.8500  142.5670 C   0  0  0  0  0  2  0  0  0  0  0  0
  193.2390  169.8390  140.5760 C   0  0  0  0  0  2  0  0  0  0  0  0
  1 26  2  0  0  0  0
  3  7  1  6  0  0  0
  3 16  1  0  0  0  0
  4 23  1  0  0  0  0
  5 11  1  6  0  0  0
  5 15  1  0  0  0  0
  6  7  1  0  0  0  0
  8 12  1  0  0  0  0
  9 27  2  0  0  0  0
 10 17  1  0  0  0  0
 11 20  1  0  0  0  0
 13  9  1  0  0  0  0
 13 20  2  0  0  0  0
 14  2  2  0  0  0  0
 15  4  1  0  0  0  0
 15 12  1  1  0  0  0
 16  8  1  0  0  0  0
 17 25  1  0  0  0  0
 18  1  1  0  0  0  0
 18  4  2  0  0  0  0
 19  6  1  6  0  0  0
 19  5  1  0  0  0  0
 19  3  1  0  0  0  0
 20 18  1  0  0  0  0
 22 10  1  0  0  0  0
 22 24  1  0  0  0  0
 23 21  2  0  0  0  0
 24 13  1  0  0  0  0
 25  9  1  0  0  0  0
 25 14  1  1  0  0  0
 26 21  1  0  0  0  0
 27  2  1  0  0  0  0
 27  1  1  0  0  0  0
 28 29  1  0  0  0  0
 28 17  1  0  0  0  0
 30 33  1  0  0  0  0
 31 33  1  0  0  0  0
 32 29  1  1  0  0  0
 32 31  1  0  0  0  0
 34 32  1  0  0  0  0
 34 30  1  0  0  0  0
M  END
>  <MODEL>
7

>  <REMARK>
 VINA RESULT:      -8.3      3.293      5.242
  Name = 
  3 active torsions:
  status: ('A' for Active; 'I' for Inactive)
    1  A    between atoms: N_17  and  C_28
    2  A    between atoms: C_28  and  C_29
    3  A    between atoms: C_29  and  C_32
                            x       y       z     vdW  Elec       q    Type
                         _______ _______ _______ _____ _____    ______ ____

>  <TORSDO>
F 3

$$$$
=
 OpenBabel11112417563D

 34 41  0  0  1  0  0  0  0  0999 V2000
  192.2240  176.4150  146.2550 C   0  0  0  0  0  0  0  0  0  0  0  0
  194.6040  175.4800  146.5130 C   0  0  0  0  0  3  0  0  0  0  0  0
  186.6510  177.0700  143.0380 N   0  0  2  0  0  0  0  0  0  0  0  0
  189.9680  177.2900  145.8760 C   0  0  0  0  0  0  0  0  0  0  0  0
  188.9850  177.0470  143.5730 C   0  0  1  0  0  3  0  0  0  0  0  0
  187.8160  177.1330  141.2300 C   0  0  0  0  0  2  0  0  0  0  0  0
  186.3910  176.7910  141.6330 C   0  0  0  0  0  2  0  0  0  0  0  0
  186.4550  178.6400  144.9280 C   0  0  0  0  0  2  0  0  0  0  0  0
  193.6410  175.8580  144.3810 C   0  0  0  0  0  0  0  0  0  0  0  0
  194.0930  174.0230  142.1840 C   0  0  0  0  0  2  0  0  0  0  0  0
  190.3800  177.2670  143.0040 C   0  0  0  0  0  2  0  0  0  0  0  0
  187.4640  177.6620  145.5710 C   0  0  0  0  0  2  0  0  0  0  0  0
  192.6600  176.2710  143.4560 C   0  0  0  0  0  0  0  0  0  0  0  0
  195.6620  175.1770  145.4500 C   0  0  0  0  0  3  0  0  0  0  0  0
  188.8750  177.7650  144.9390 C   0  0  1  0  0  3  0  0  0  0  0  0
  185.8620  178.1640  143.5810 C   0  0  0  0  0  2  0  0  0  0  0  0
  194.9460  174.0250  143.3860 N   0  0  0  0  0  0  0  0  0  0  0  0
  191.2040  176.8260  145.3580 C   0  0  0  0  0  0  0  0  0  0  0  0
  187.9310  177.6290  142.6540 C   0  0  1  0  0  3  0  0  0  0  0  0
  191.4290  176.7550  143.9570 C   0  0  0  0  0  0  0  0  0  0  0  0
  190.8170  176.9950  148.1390 C   0  0  0  0  0  3  0  0  0  0  0  0
  194.0540  175.3740  141.4660 C   0  0  0  0  0  2  0  0  0  0  0  0
  189.8030  177.3910  147.2650 C   0  0  0  0  0  3  0  0  0  0  0  0
  192.8830  176.2270  141.9570 C   0  0  0  0  0  2  0  0  0  0  0  0
  195.0030  175.3310  144.0680 C   0  0  1  0  0  3  0  0  0  0  0  0
  192.0200  176.5040  147.6360 C   0  0  0  0  0  3  0  0  0  0  0  0
  193.4290  175.9370  145.7350 C   0  0  0  0  0  0  0  0  0  0  0  0
  196.2940  173.6970  142.9400 C   0  0  0  0  0  2  0  0  0  0  0  0
  196.5820  172.2300  143.2120 C   0  0  0  0  0  2  0  0  0  0  0  0
  195.6160  169.6550  145.5480 N   0  0  0  0  0  2  0  0  0  0  0  0
  196.8170  171.7300  145.6430 C   0  0  0  0  0  2  0  0  0  0  0  0
  195.8640  171.7770  144.4710 C   0  0  2  0  0  3  0  0  0  0  0  0
  196.7790  170.3000  146.1390 C   0  0  0  0  0  2  0  0  0  0  0  0
  195.3820  170.3560  144.2950 C   0  0  0  0  0  2  0  0  0  0  0  0
  1 26  2  0  0  0  0
  3  7  1  6  0  0  0
  3 16  1  0  0  0  0
  4 23  1  0  0  0  0
  5 11  1  6  0  0  0
  5 15  1  0  0  0  0
  6  7  1  0  0  0  0
  8 12  1  0  0  0  0
  9 27  2  0  0  0  0
 10 17  1  0  0  0  0
 11 20  1  0  0  0  0
 13 20  2  0  0  0  0
 13  9  1  0  0  0  0
 14  2  2  0  0  0  0
 15 12  1  1  0  0  0
 15  4  1  0  0  0  0
 16  8  1  0  0  0  0
 17 25  1  0  0  0  0
 18  4  2  0  0  0  0
 18  1  1  0  0  0  0
 19  6  1  6  0  0  0
 19  3  1  0  0  0  0
 19  5  1  0  0  0  0
 20 18  1  0  0  0  0
 22 24  1  0  0  0  0
 22 10  1  0  0  0  0
 23 21  2  0  0  0  0
 24 13  1  0  0  0  0
 25  9  1  0  0  0  0
 25 14  1  1  0  0  0
 26 21  1  0  0  0  0
 27  1  1  0  0  0  0
 27  2  1  0  0  0  0
 28 29  1  0  0  0  0
 28 17  1  0  0  0  0
 30 33  1  0  0  0  0
 31 33  1  0  0  0  0
 32 29  1  6  0  0  0
 32 31  1  0  0  0  0
 34 32  1  0  0  0  0
 34 30  1  0  0  0  0
M  END
>  <MODEL>
8

>  <REMARK>
 VINA RESULT:      -8.2      2.445      4.747
  Name = 
  3 active torsions:
  status: ('A' for Active; 'I' for Inactive)
    1  A    between atoms: N_17  and  C_28
    2  A    between atoms: C_28  and  C_29
    3  A    between atoms: C_29  and  C_32
                            x       y       z     vdW  Elec       q    Type
                         _______ _______ _______ _____ _____    ______ ____

>  <TORSDO>
F 3

$$$$
=
 OpenBabel11112417563D

 34 41  0  0  1  0  0  0  0  0999 V2000
  189.8390  176.9380  146.7530 C   0  0  0  0  0  0  0  0  0  0  0  0
  187.3950  177.7200  146.8880 C   0  0  0  0  0  3  0  0  0  0  0  0
  195.1260  175.2300  143.4410 N   0  0  2  0  0  0  0  0  0  0  0  0
  192.1410  176.1430  146.5020 C   0  0  0  0  0  0  0  0  0  0  0  0
  192.8680  175.3420  144.2300 C   0  0  1  0  0  3  0  0  0  0  0  0
  193.8140  174.2450  142.0480 C   0  0  0  0  0  2  0  0  0  0  0  0
  195.2150  174.8330  142.0430 C   0  0  0  0  0  2  0  0  0  0  0  0
  195.6940  174.7500  145.7910 C   0  0  0  0  0  2  0  0  0  0  0  0
  188.1940  176.4510  145.0530 C   0  0  0  0  0  0  0  0  0  0  0  0
  187.3120  177.0030  142.3490 C   0  0  0  0  0  2  0  0  0  0  0  0
  191.4650  174.7860  144.0280 C   0  0  0  0  0  2  0  0  0  0  0  0
  194.6330  175.8430  146.0500 C   0  0  0  0  0  2  0  0  0  0  0  0
  189.1290  175.7210  144.2920 C   0  0  0  0  0  0  0  0  0  0  0  0
  186.2120  177.4160  145.9660 C   0  0  0  0  0  3  0  0  0  0  0  0
  193.1940  175.3600  145.7420 C   0  0  1  0  0  3  0  0  0  0  0  0
  196.0940  174.5760  144.3070 C   0  0  0  0  0  2  0  0  0  0  0  0
  186.5810  177.5090  143.5250 N   0  0  0  0  0  0  0  0  0  0  0  0
  190.8150  176.2240  146.0100 C   0  0  0  0  0  0  0  0  0  0  0  0
  193.8960  174.4700  143.5410 C   0  0  1  0  0  3  0  0  0  0  0  0
  190.4520  175.6140  144.7790 C   0  0  0  0  0  0  0  0  0  0  0  0
  191.4780  177.4080  148.4730 C   0  0  0  0  0  3  0  0  0  0  0  0
  187.4530  175.4800  142.3320 C   0  0  0  0  0  2  0  0  0  0  0  0
  192.4480  176.7190  147.7440 C   0  0  0  0  0  3  0  0  0  0  0  0
  188.7630  175.0400  142.9870 C   0  0  0  0  0  2  0  0  0  0  0  0
  186.7540  176.6750  144.7310 C   0  0  1  0  0  3  0  0  0  0  0  0
  190.1800  177.5220  147.9770 C   0  0  0  0  0  3  0  0  0  0  0  0
  188.5400  177.0330  146.2480 C   0  0  0  0  0  0  0  0  0  0  0  0
  185.1670  177.4960  143.1740 C   0  0  0  0  0  2  0  0  0  0  0  0
  185.0130  177.5400  141.6640 C   0  0  0  0  0  2  0  0  0  0  0  0
  181.6940  178.2200  140.4230 N   0  0  0  0  0  2  0  0  0  0  0  0
  182.9390  178.7020  142.4160 C   0  0  0  0  0  2  0  0  0  0  0  0
  183.9100  178.5100  141.2740 C   0  0  2  0  0  3  0  0  0  0  0  0
  181.5880  178.2880  141.8730 C   0  0  0  0  0  2  0  0  0  0  0  0
  183.0900  177.9180  140.1520 C   0  0  0  0  0  2  0  0  0  0  0  0
  1 26  2  0  0  0  0
  3  7  1  6  0  0  0
  3 19  1  0  0  0  0
  3 16  1  0  0  0  0
  4 23  1  0  0  0  0
  5 11  1  1  0  0  0
  5 15  1  0  0  0  0
  7  6  1  0  0  0  0
  8 12  1  0  0  0  0
  9 27  2  0  0  0  0
 10 17  1  0  0  0  0
 11 20  1  0  0  0  0
 13 20  2  0  0  0  0
 13  9  1  0  0  0  0
 14  2  2  0  0  0  0
 15 12  1  6  0  0  0
 15  4  1  0  0  0  0
 16  8  1  0  0  0  0
 17 25  1  0  0  0  0
 18  4  2  0  0  0  0
 18  1  1  0  0  0  0
 19  6  1  6  0  0  0
 19  5  1  0  0  0  0
 20 18  1  0  0  0  0
 22 10  1  0  0  0  0
 22 24  1  0  0  0  0
 23 21  2  0  0  0  0
 24 13  1  0  0  0  0
 25  9  1  0  0  0  0
 25 14  1  1  0  0  0
 26 21  1  0  0  0  0
 27  1  1  0  0  0  0
 27  2  1  0  0  0  0
 28 17  1  0  0  0  0
 29 28  1  0  0  0  0
 30 33  1  0  0  0  0
 32 29  1  1  0  0  0
 32 31  1  0  0  0  0
 33 31  1  0  0  0  0
 34 30  1  0  0  0  0
 34 32  1  0  0  0  0
M  END
>  <MODEL>
9

>  <REMARK>
 VINA RESULT:      -8.1      2.256      9.215
  Name = 
  3 active torsions:
  status: ('A' for Active; 'I' for Inactive)
    1  A    between atoms: N_17  and  C_28
    2  A    between atoms: C_28  and  C_29
    3  A    between atoms: C_29  and  C_32
                            x       y       z     vdW  Elec       q    Type
                         _______ _______ _______ _____ _____    ______ ____

>  <TORSDO>
F 3

$$$$
