=
 OpenBabel11112417393D

 28 32  0  0  1  0  0  0  0  0999 V2000
  186.5120  178.2510  144.2980 C   0  0  0  0  0  0  0  0  0  0  0  0
  190.0660  178.5210  144.5540 O   0  0  0  0  0  0  0  0  0  0  0  0
  188.3570  174.4860  139.4950 O   0  0  0  0  0  0  0  0  0  0  0  0
  185.4850  176.7810  146.4540 C   0  0  0  0  0  3  0  0  0  0  0  0
  189.1320  173.8590  141.6230 N   0  0  0  0  0  0  0  0  0  0  0  0
  187.0080  179.0510  143.1350 C   0  0  0  0  0  2  0  0  0  0  0  0
  190.4510  177.2770  146.6370 O   0  0  0  0  0  0  0  0  0  0  0  0
  190.4610  177.1930  145.1370 S   0  0  0  0  0  0  0  0  0  0  0  0
  192.2250  175.9700  143.5910 C   0  0  0  0  0  0  0  0  0  0  0  0
  189.3310  175.9010  144.6210 C   0  0  2  0  0  3  0  0  0  0  0  0
  185.6350  177.5930  140.0630 O   0  0  0  0  0  0  0  0  0  0  0  0
  187.6990  175.2430  142.9460 C   0  0  2  0  0  3  0  0  0  0  0  0
  191.0610  175.4210  142.8230 C   0  0  0  0  0  2  0  0  0  0  0  0
  192.0480  176.7720  144.5940 N   0  0  0  0  0  0  0  0  0  0  0  0
  186.4580  177.7970  140.9920 C   0  0  0  0  0  0  0  0  0  0  0  0
  187.0620  176.9930  144.6160 C   0  0  0  0  0  0  0  0  0  0  0  0
  188.3280  174.6240  140.7470 C   0  0  0  0  0  0  0  0  0  0  0  0
  193.5450  175.6620  143.1650 N   0  0  0  0  0  1  0  0  0  0  0  0
  187.7210  176.9980  141.0370 C   0  0  0  0  0  2  0  0  0  0  0  0
  186.5350  176.2630  145.6930 C   0  0  0  0  0  3  0  0  0  0  0  0
  185.4560  178.7610  145.0630 C   0  0  0  0  0  3  0  0  0  0  0  0
  184.9470  178.0300  146.1400 C   0  0  0  0  0  3  0  0  0  0  0  0
  186.1740  178.8040  141.9680 N   0  0  0  0  0  2  0  0  0  0  0  0
  188.8200  174.1900  143.0030 C   0  0  2  0  0  3  0  0  0  0  0  0
  187.4230  175.5580  141.4530 C   0  0  2  0  0  3  0  0  0  0  0  0
  189.9970  174.8250  143.7630 C   0  0  2  0  0  3  0  0  0  0  0  0
  189.9340  172.7160  141.2200 C   0  0  0  0  0  1  0  0  0  0  0  0
  188.1760  176.4240  143.7860 C   0  0  1  0  0  3  0  0  0  0  0  0
  1 16  2  0  0  0  0
  1 21  1  0  0  0  0
  2  8  2  0  0  0  0
  3 17  2  0  0  0  0
  5 24  1  0  0  0  0
  6  1  1  0  0  0  0
  8  7  2  0  0  0  0
  9 14  2  0  0  0  0
 10  8  1  6  0  0  0
 11 15  2  0  0  0  0
 12 24  1  0  0  0  0
 12 28  1  0  0  0  0
 13  9  1  0  0  0  0
 13 26  1  0  0  0  0
 14  8  1  0  0  0  0
 15 19  1  0  0  0  0
 15 23  1  0  0  0  0
 16 20  1  0  0  0  0
 17 25  1  0  0  0  0
 17  5  1  0  0  0  0
 18  9  1  0  0  0  0
 19 25  1  0  0  0  0
 20  4  2  0  0  0  0
 21 22  2  0  0  0  0
 22  4  1  0  0  0  0
 23  6  1  0  0  0  0
 24 26  1  0  0  0  0
 25 12  1  0  0  0  0
 26 10  1  0  0  0  0
 27  5  1  0  0  0  0
 28 16  1  0  0  0  0
 28 10  1  0  0  0  0
M  END
>  <MODEL>
1

>  <REMARK>
 VINA RESULT:      -8.3      0.000      0.000
  Name = 
  0 active torsions:
  status: ('A' for Active; 'I' for Inactive)
                            x       y       z     vdW  Elec       q    Type
                         _______ _______ _______ _____ _____    ______ ____

>  <TORSDO>
F 0

$$$$
=
 OpenBabel11112417393D

 28 32  0  0  1  0  0  0  0  0999 V2000
  191.8560  174.6520  145.3370 C   0  0  0  0  0  0  0  0  0  0  0  0
  188.7990  175.5830  146.9370 O   0  0  0  0  0  0  0  0  0  0  0  0
  187.8890  174.8360  140.3480 O   0  0  0  0  0  0  0  0  0  0  0  0
  193.6530  176.8040  145.3330 C   0  0  0  0  0  3  0  0  0  0  0  0
  188.1030  176.8490  141.5410 N   0  0  0  0  0  0  0  0  0  0  0  0
  190.9390  173.4700  145.3230 C   0  0  0  0  0  2  0  0  0  0  0  0
  189.3110  177.9090  147.5400 O   0  0  0  0  0  0  0  0  0  0  0  0
  188.6360  177.0220  146.5330 S   0  0  0  0  0  0  0  0  0  0  0  0
  186.3100  177.4060  145.3320 C   0  0  0  0  0  0  0  0  0  0  0  0
  189.3530  177.3240  144.9190 C   0  0  2  0  0  3  0  0  0  0  0  0
  190.7370  172.2070  141.8860 O   0  0  0  0  0  0  0  0  0  0  0  0
  190.0420  176.2960  142.8280 C   0  0  2  0  0  3  0  0  0  0  0  0
  186.9850  177.0020  144.0570 C   0  0  0  0  0  2  0  0  0  0  0  0
  186.9520  177.4130  146.4580 N   0  0  0  0  0  0  0  0  0  0  0  0
  190.4210  172.8710  142.9060 C   0  0  0  0  0  0  0  0  0  0  0  0
  191.4390  175.9140  144.8670 C   0  0  0  0  0  0  0  0  0  0  0  0
  188.4750  175.5220  141.2280 C   0  0  0  0  0  0  0  0  0  0  0  0
  184.9230  177.7180  145.3150 N   0  0  0  0  0  1  0  0  0  0  0  0
  189.2680  173.8210  142.8310 C   0  0  0  0  0  2  0  0  0  0  0  0
  192.3500  176.9830  144.8640 C   0  0  0  0  0  3  0  0  0  0  0  0
  193.1650  174.4810  145.8010 C   0  0  0  0  0  3  0  0  0  0  0  0
  194.0600  175.5550  145.8030 C   0  0  0  0  0  3  0  0  0  0  0  0
  191.1570  172.6820  144.1180 N   0  0  0  0  0  2  0  0  0  0  0  0
  189.0090  177.3990  142.5350 C   0  0  2  0  0  3  0  0  0  0  0  0
  189.6450  175.0470  142.0000 C   0  0  2  0  0  3  0  0  0  0  0  0
  188.3240  177.7400  143.8690 C   0  0  2  0  0  3  0  0  0  0  0  0
  187.1490  177.6390  140.7820 C   0  0  0  0  0  1  0  0  0  0  0  0
  190.0460  176.1020  144.3420 C   0  0  1  0  0  3  0  0  0  0  0  0
  1 21  1  0  0  0  0
  3 17  2  0  0  0  0
  4 22  1  0  0  0  0
  5 24  1  0  0  0  0
  6  1  1  0  0  0  0
  8  2  2  0  0  0  0
  8  7  2  0  0  0  0
  9 14  2  0  0  0  0
 10  8  1  1  0  0  0
 11 15  2  0  0  0  0
 12 28  1  0  0  0  0
 13  9  1  0  0  0  0
 14  8  1  0  0  0  0
 15 23  1  0  0  0  0
 16  1  2  0  0  0  0
 17  5  1  0  0  0  0
 17 25  1  0  0  0  0
 18  9  1  0  0  0  0
 19 15  1  0  0  0  0
 20 16  1  0  0  0  0
 20  4  2  0  0  0  0
 21 22  2  0  0  0  0
 23  6  1  0  0  0  0
 24 12  1  0  0  0  0
 24 26  1  0  0  0  0
 25 12  1  0  0  0  0
 25 19  1  0  0  0  0
 26 13  1  0  0  0  0
 26 10  1  0  0  0  0
 27  5  1  0  0  0  0
 28 16  1  0  0  0  0
 28 10  1  0  0  0  0
M  END
>  <MODEL>
2

>  <REMARK>
 VINA RESULT:      -8.2      2.260      5.514
  Name = 
  0 active torsions:
  status: ('A' for Active; 'I' for Inactive)
                            x       y       z     vdW  Elec       q    Type
                         _______ _______ _______ _____ _____    ______ ____

>  <TORSDO>
F 0

$$$$
=
 OpenBabel11112417393D

 28 32  0  0  1  0  0  0  0  0999 V2000
  191.5250  174.1120  143.3880 C   0  0  0  0  0  0  0  0  0  0  0  0
  189.3330  174.1660  146.2100 O   0  0  0  0  0  0  0  0  0  0  0  0
  186.3430  176.8160  140.8400 O   0  0  0  0  0  0  0  0  0  0  0  0
  193.6110  175.9530  143.7350 C   0  0  0  0  0  3  0  0  0  0  0  0
  187.2880  177.9630  142.6600 N   0  0  0  0  0  0  0  0  0  0  0  0
  190.4400  173.1080  143.1600 C   0  0  0  0  0  2  0  0  0  0  0  0
  190.4360  175.8740  147.5890 O   0  0  0  0  0  0  0  0  0  0  0  0
  189.3310  175.6160  146.6040 S   0  0  0  0  0  0  0  0  0  0  0  0
  186.8690  176.5830  146.6370 C   0  0  0  0  0  0  0  0  0  0  0  0
  189.5690  176.6730  145.1750 C   0  0  2  0  0  3  0  0  0  0  0  0
  188.9690  173.7290  139.8580 O   0  0  0  0  0  0  0  0  0  0  0  0
  189.3830  176.8140  142.7580 C   0  0  2  0  0  3  0  0  0  0  0  0
  187.0350  176.8580  145.1740 C   0  0  0  0  0  2  0  0  0  0  0  0
  187.8110  176.0180  147.3250 N   0  0  0  0  0  0  0  0  0  0  0  0
  189.1090  173.8010  141.1060 C   0  0  0  0  0  0  0  0  0  0  0  0
  191.2330  175.4460  143.7380 C   0  0  0  0  0  0  0  0  0  0  0  0
  187.2880  176.9640  141.6610 C   0  0  0  0  0  0  0  0  0  0  0  0
  185.6280  176.8820  147.2630 N   0  0  0  0  0  1  0  0  0  0  0  0
  188.1910  174.6790  141.8950 C   0  0  0  0  0  2  0  0  0  0  0  0
  192.2860  176.3610  143.9020 C   0  0  0  0  0  3  0  0  0  0  0  0
  192.8560  173.7130  143.2190 C   0  0  0  0  0  3  0  0  0  0  0  0
  193.8960  174.6300  143.3950 C   0  0  0  0  0  3  0  0  0  0  0  0
  190.1290  173.0230  141.7400 N   0  0  0  0  0  2  0  0  0  0  0  0
  188.5400  177.9310  143.3970 C   0  0  2  0  0  3  0  0  0  0  0  0
  188.5240  176.1500  141.6510 C   0  0  2  0  0  3  0  0  0  0  0  0
  188.3690  177.5720  144.8830 C   0  0  2  0  0  3  0  0  0  0  0  0
  186.3170  179.0410  142.7500 C   0  0  0  0  0  1  0  0  0  0  0  0
  189.8090  175.8910  143.8960 C   0  0  1  0  0  3  0  0  0  0  0  0
  1 16  1  0  0  0  0
  2  8  2  0  0  0  0
  3 17  2  0  0  0  0
  4 20  1  0  0  0  0
  5 27  1  0  0  0  0
  5 24  1  0  0  0  0
  6  1  1  0  0  0  0
  8 14  1  0  0  0  0
  8  7  2  0  0  0  0
  9 18  1  0  0  0  0
  9 14  2  0  0  0  0
 10  8  1  1  0  0  0
 11 15  2  0  0  0  0
 12 24  1  0  0  0  0
 12 28  1  0  0  0  0
 13  9  1  0  0  0  0
 15 23  1  0  0  0  0
 15 19  1  0  0  0  0
 16 28  1  0  0  0  0
 16 20  2  0  0  0  0
 17  5  1  0  0  0  0
 21  1  2  0  0  0  0
 21 22  1  0  0  0  0
 22  4  2  0  0  0  0
 23  6  1  0  0  0  0
 24 26  1  0  0  0  0
 25 17  1  0  0  0  0
 25 19  1  0  0  0  0
 25 12  1  0  0  0  0
 26 13  1  0  0  0  0
 26 10  1  0  0  0  0
 28 10  1  0  0  0  0
M  END
>  <MODEL>
3

>  <REMARK>
 VINA RESULT:      -7.8      2.070      5.479
  Name = 
  0 active torsions:
  status: ('A' for Active; 'I' for Inactive)
                            x       y       z     vdW  Elec       q    Type
                         _______ _______ _______ _____ _____    ______ ____

>  <TORSDO>
F 0

$$$$
=
 OpenBabel11112417393D

 28 32  0  0  1  0  0  0  0  0999 V2000
  188.8450  176.5910  145.3970 C   0  0  0  0  0  0  0  0  0  0  0  0
  192.1340  177.3630  144.2310 O   0  0  0  0  0  0  0  0  0  0  0  0
  188.5810  174.3120  139.4480 O   0  0  0  0  0  0  0  0  0  0  0  0
  188.9410  174.5410  147.3070 C   0  0  0  0  0  3  0  0  0  0  0  0
  190.2400  173.3660  140.8180 N   0  0  0  0  0  0  0  0  0  0  0  0
  188.7410  177.6950  144.3920 C   0  0  0  0  0  2  0  0  0  0  0  0
  193.4540  175.7710  145.5570 O   0  0  0  0  0  0  0  0  0  0  0  0
  192.8090  176.0200  144.2230 S   0  0  0  0  0  0  0  0  0  0  0  0
  193.7740  175.4620  141.8240 C   0  0  0  0  0  0  0  0  0  0  0  0
  191.6320  174.7080  143.8930 C   0  0  2  0  0  3  0  0  0  0  0  0
  186.2340  176.7440  141.8910 O   0  0  0  0  0  0  0  0  0  0  0  0
  189.4660  174.1800  142.9300 C   0  0  2  0  0  3  0  0  0  0  0  0
  192.4210  174.9150  141.4870 C   0  0  0  0  0  2  0  0  0  0  0  0
  194.0160  175.9870  142.9840 N   0  0  0  0  0  0  0  0  0  0  0  0
  187.3700  176.8680  142.4170 C   0  0  0  0  0  0  0  0  0  0  0  0
  189.5400  175.3990  145.1130 C   0  0  0  0  0  0  0  0  0  0  0  0
  189.0970  174.1660  140.5890 C   0  0  0  0  0  0  0  0  0  0  0  0
  194.7880  175.4690  140.8270 N   0  0  0  0  0  1  0  0  0  0  0  0
  188.5630  176.2910  141.7240 C   0  0  0  0  0  2  0  0  0  0  0  0
  189.5760  174.3760  146.0740 C   0  0  0  0  0  3  0  0  0  0  0  0
  188.2090  176.7460  146.6340 C   0  0  0  0  0  3  0  0  0  0  0  0
  188.2590  175.7260  147.5880 C   0  0  0  0  0  3  0  0  0  0  0  0
  187.4930  177.5790  143.6520 N   0  0  0  0  0  2  0  0  0  0  0  0
  190.5490  173.3330  142.2370 C   0  0  2  0  0  3  0  0  0  0  0  0
  188.5490  174.7660  141.8250 C   0  0  2  0  0  3  0  0  0  0  0  0
  191.9070  173.9670  142.5860 C   0  0  2  0  0  3  0  0  0  0  0  0
  190.8400  172.4820  139.8330 C   0  0  0  0  0  1  0  0  0  0  0  0
  190.2040  175.2100  143.7800 C   0  0  1  0  0  3  0  0  0  0  0  0
  1 21  1  0  0  0  0
  3 17  2  0  0  0  0
  4 22  1  0  0  0  0
  5 24  1  0  0  0  0
  6  1  1  0  0  0  0
  8  2  2  0  0  0  0
  8  7  2  0  0  0  0
  9 14  2  0  0  0  0
 10  8  1  6  0  0  0
 11 15  2  0  0  0  0
 12 28  1  0  0  0  0
 13  9  1  0  0  0  0
 13 26  1  0  0  0  0
 14  8  1  0  0  0  0
 15 23  1  0  0  0  0
 16  1  2  0  0  0  0
 16 20  1  0  0  0  0
 17  5  1  0  0  0  0
 17 25  1  0  0  0  0
 18  9  1  0  0  0  0
 19 25  1  0  0  0  0
 19 15  1  0  0  0  0
 20  4  2  0  0  0  0
 21 22  2  0  0  0  0
 23  6  1  0  0  0  0
 24 26  1  0  0  0  0
 24 12  1  0  0  0  0
 25 12  1  0  0  0  0
 26 10  1  0  0  0  0
 27  5  1  0  0  0  0
 28 10  1  0  0  0  0
 28 16  1  0  0  0  0
M  END
>  <MODEL>
4

>  <REMARK>
 VINA RESULT:      -7.7      1.999      2.595
  Name = 
  0 active torsions:
  status: ('A' for Active; 'I' for Inactive)
                            x       y       z     vdW  Elec       q    Type
                         _______ _______ _______ _____ _____    ______ ____

>  <TORSDO>
F 0

$$$$
=
 OpenBabel11112417393D

 28 32  0  0  1  0  0  0  0  0999 V2000
  188.8450  175.5880  146.2770 C   0  0  0  0  0  0  0  0  0  0  0  0
  189.6910  172.4340  144.8260 O   0  0  0  0  0  0  0  0  0  0  0  0
  194.9230  176.6050  144.6390 O   0  0  0  0  0  0  0  0  0  0  0  0
  187.0620  176.9790  144.6220 C   0  0  0  0  0  3  0  0  0  0  0  0
  193.4820  176.0410  142.8710 N   0  0  0  0  0  0  0  0  0  0  0  0
  189.7870  174.8820  147.2020 C   0  0  0  0  0  2  0  0  0  0  0  0
  188.3610  172.5300  142.7630 O   0  0  0  0  0  0  0  0  0  0  0  0
  189.7250  172.7420  143.3550 S   0  0  0  0  0  0  0  0  0  0  0  0
  192.0670  172.0940  142.3080 C   0  0  0  0  0  0  0  0  0  0  0  0
  190.2280  174.4370  143.0620 C   0  0  2  0  0  3  0  0  0  0  0  0
  192.5370  177.1680  148.0130 O   0  0  0  0  0  0  0  0  0  0  0  0
  191.3950  176.3510  143.9970 C   0  0  2  0  0  3  0  0  0  0  0  0
  192.5460  173.4520  142.7240 C   0  0  0  0  0  2  0  0  0  0  0  0
  190.8610  171.6980  142.5720 N   0  0  0  0  0  0  0  0  0  0  0  0
  191.9140  176.2610  147.4040 C   0  0  0  0  0  0  0  0  0  0  0  0
  189.1440  175.7590  144.9110 C   0  0  0  0  0  0  0  0  0  0  0  0
  193.7560  176.4100  144.2080 C   0  0  0  0  0  0  0  0  0  0  0  0
  192.9750  171.2000  141.6790 N   0  0  0  0  0  1  0  0  0  0  0  0
  192.5410  175.6210  146.2060 C   0  0  0  0  0  2  0  0  0  0  0  0
  188.2460  176.4640  144.0920 C   0  0  0  0  0  3  0  0  0  0  0  0
  187.6580  176.1120  146.8000 C   0  0  0  0  0  3  0  0  0  0  0  0
  186.7660  176.8030  145.9740 C   0  0  0  0  0  3  0  0  0  0  0  0
  190.6320  175.8490  147.8870 N   0  0  0  0  0  2  0  0  0  0  0  0
  192.0470  175.9650  142.6570 C   0  0  2  0  0  3  0  0  0  0  0  0
  192.5340  176.5890  145.0230 C   0  0  2  0  0  3  0  0  0  0  0  0
  191.5520  174.5510  142.3070 C   0  0  2  0  0  3  0  0  0  0  0  0
  194.4670  176.0230  141.8020 C   0  0  0  0  0  1  0  0  0  0  0  0
  190.4270  175.2250  144.3450 C   0  0  1  0  0  3  0  0  0  0  0  0
  1 21  1  0  0  0  0
  1  6  1  0  0  0  0
  4 22  1  0  0  0  0
  5 17  1  0  0  0  0
  6 23  1  0  0  0  0
  7  8  2  0  0  0  0
  8  2  2  0  0  0  0
  9 14  2  0  0  0  0
  9 13  1  0  0  0  0
 10  8  1  1  0  0  0
 10 28  1  0  0  0  0
 12 28  1  0  0  0  0
 12 25  1  0  0  0  0
 14  8  1  0  0  0  0
 15 23  1  0  0  0  0
 15 11  2  0  0  0  0
 16  1  2  0  0  0  0
 17  3  2  0  0  0  0
 17 25  1  0  0  0  0
 18  9  1  0  0  0  0
 19 15  1  0  0  0  0
 20  4  2  0  0  0  0
 20 16  1  0  0  0  0
 22 21  2  0  0  0  0
 24  5  1  0  0  0  0
 24 12  1  0  0  0  0
 25 19  1  0  0  0  0
 26 24  1  0  0  0  0
 26 13  1  0  0  0  0
 26 10  1  0  0  0  0
 27  5  1  0  0  0  0
 28 16  1  0  0  0  0
M  END
>  <MODEL>
5

>  <REMARK>
 VINA RESULT:      -7.7      3.037      5.465
  Name = 
  0 active torsions:
  status: ('A' for Active; 'I' for Inactive)
                            x       y       z     vdW  Elec       q    Type
                         _______ _______ _______ _____ _____    ______ ____

>  <TORSDO>
F 0

$$$$
=
 OpenBabel11112417393D

 28 32  0  0  1  0  0  0  0  0999 V2000
  188.4700  176.1240  145.4990 C   0  0  0  0  0  0  0  0  0  0  0  0
  189.3160  173.0480  143.8880 O   0  0  0  0  0  0  0  0  0  0  0  0
  194.8280  176.2170  145.9820 O   0  0  0  0  0  0  0  0  0  0  0  0
  187.5300  177.9830  143.6230 C   0  0  0  0  0  3  0  0  0  0  0  0
  193.9840  176.1160  143.7910 N   0  0  0  0  0  0  0  0  0  0  0  0
  188.9540  175.1650  146.5400 C   0  0  0  0  0  2  0  0  0  0  0  0
  188.7600  173.6050  141.5600 O   0  0  0  0  0  0  0  0  0  0  0  0
  189.8710  173.5050  142.5670 S   0  0  0  0  0  0  0  0  0  0  0  0
  192.3180  172.5690  142.1970 C   0  0  0  0  0  0  0  0  0  0  0  0
  190.6630  175.1050  142.7190 C   0  0  2  0  0  3  0  0  0  0  0  0
  191.5660  176.8220  148.5100 O   0  0  0  0  0  0  0  0  0  0  0  0
  191.7040  176.6670  144.2600 C   0  0  2  0  0  3  0  0  0  0  0  0
  192.8110  173.7660  142.9510 C   0  0  0  0  0  2  0  0  0  0  0  0
  191.0500  172.3680  142.0120 N   0  0  0  0  0  0  0  0  0  0  0  0
  191.0620  176.1130  147.6020 C   0  0  0  0  0  0  0  0  0  0  0  0
  189.2200  176.3880  144.3350 C   0  0  0  0  0  0  0  0  0  0  0  0
  193.8510  176.2810  145.1890 C   0  0  0  0  0  0  0  0  0  0  0  0
  193.2540  171.6030  141.7390 N   0  0  0  0  0  1  0  0  0  0  0  0
  191.9550  175.5070  146.5660 C   0  0  0  0  0  2  0  0  0  0  0  0
  188.7420  177.3260  143.4060 C   0  0  0  0  0  3  0  0  0  0  0  0
  187.2580  176.7910  145.7100 C   0  0  0  0  0  3  0  0  0  0  0  0
  186.7870  177.7150  144.7740 C   0  0  0  0  0  3  0  0  0  0  0  0
  189.6500  175.8850  147.5970 N   0  0  0  0  0  2  0  0  0  0  0  0
  192.7010  176.3200  143.1400 C   0  0  2  0  0  3  0  0  0  0  0  0
  192.4650  176.5840  145.6100 C   0  0  2  0  0  3  0  0  0  0  0  0
  192.1640  175.0640  142.4320 C   0  0  2  0  0  3  0  0  0  0  0  0
  195.2530  176.0410  143.0860 C   0  0  0  0  0  1  0  0  0  0  0  0
  190.5340  175.6990  144.1100 C   0  0  1  0  0  3  0  0  0  0  0  0
  1 21  1  0  0  0  0
  1  6  1  0  0  0  0
  4 22  1  0  0  0  0
  5 17  1  0  0  0  0
  6 23  1  0  0  0  0
  7  8  2  0  0  0  0
  8  2  2  0  0  0  0
  9 13  1  0  0  0  0
 10  8  1  1  0  0  0
 10 28  1  0  0  0  0
 12 25  1  0  0  0  0
 14  9  2  0  0  0  0
 14  8  1  0  0  0  0
 15 11  2  0  0  0  0
 16  1  2  0  0  0  0
 17 25  1  0  0  0  0
 17  3  2  0  0  0  0
 18  9  1  0  0  0  0
 19 15  1  0  0  0  0
 20  4  2  0  0  0  0
 20 16  1  0  0  0  0
 22 21  2  0  0  0  0
 23 15  1  0  0  0  0
 24  5  1  0  0  0  0
 24 12  1  0  0  0  0
 25 19  1  0  0  0  0
 26 10  1  0  0  0  0
 26 13  1  0  0  0  0
 26 24  1  0  0  0  0
 27  5  1  0  0  0  0
 28 12  1  0  0  0  0
 28 16  1  0  0  0  0
M  END
>  <MODEL>
6

>  <REMARK>
 VINA RESULT:      -7.7      2.754      5.470
  Name = 
  0 active torsions:
  status: ('A' for Active; 'I' for Inactive)
                            x       y       z     vdW  Elec       q    Type
                         _______ _______ _______ _____ _____    ______ ____

>  <TORSDO>
F 0

$$$$
=
 OpenBabel11112417393D

 28 32  0  0  1  0  0  0  0  0999 V2000
  188.6090  177.1310  144.4070 C   0  0  0  0  0  0  0  0  0  0  0  0
  192.1680  177.3490  144.6380 O   0  0  0  0  0  0  0  0  0  0  0  0
  190.3530  172.0180  141.0210 O   0  0  0  0  0  0  0  0  0  0  0  0
  187.5100  176.4260  146.8880 C   0  0  0  0  0  3  0  0  0  0  0  0
  191.0850  172.0470  143.2540 N   0  0  0  0  0  0  0  0  0  0  0  0
  189.1440  177.5200  143.0650 C   0  0  0  0  0  2  0  0  0  0  0  0
  192.4890  176.7900  147.0090 O   0  0  0  0  0  0  0  0  0  0  0  0
  192.5080  176.2510  145.6060 S   0  0  0  0  0  0  0  0  0  0  0  0
  194.2380  174.5560  144.5430 C   0  0  0  0  0  0  0  0  0  0  0  0
  191.3350  174.9010  145.4880 C   0  0  2  0  0  3  0  0  0  0  0  0
  187.7440  175.2380  140.5590 O   0  0  0  0  0  0  0  0  0  0  0  0
  189.6940  173.8160  144.0630 C   0  0  2  0  0  3  0  0  0  0  0  0
  193.0620  173.8360  143.9570 C   0  0  0  0  0  2  0  0  0  0  0  0
  194.0830  175.6320  145.2490 N   0  0  0  0  0  0  0  0  0  0  0  0
  188.5660  175.6890  141.3970 C   0  0  0  0  0  0  0  0  0  0  0  0
  189.1090  176.0140  145.1040 C   0  0  0  0  0  0  0  0  0  0  0  0
  190.3190  172.5330  142.1700 C   0  0  0  0  0  0  0  0  0  0  0  0
  195.5500  174.0890  144.2580 N   0  0  0  0  0  1  0  0  0  0  0  0
  189.7980  174.9010  141.7100 C   0  0  0  0  0  2  0  0  0  0  0  0
  188.5460  175.6660  146.3430 C   0  0  0  0  0  3  0  0  0  0  0  0
  187.5670  177.8850  144.9590 C   0  0  0  0  0  3  0  0  0  0  0  0
  187.0210  177.5370  146.1970 C   0  0  0  0  0  3  0  0  0  0  0  0
  188.3120  176.9550  142.0130 N   0  0  0  0  0  2  0  0  0  0  0  0
  190.7740  172.7940  144.4600 C   0  0  2  0  0  3  0  0  0  0  0  0
  189.4440  173.6680  142.5390 C   0  0  2  0  0  3  0  0  0  0  0  0
  191.9680  173.5930  145.0130 C   0  0  2  0  0  3  0  0  0  0  0  0
  191.8480  170.8090  143.2360 C   0  0  0  0  0  1  0  0  0  0  0  0
  190.2080  175.1820  144.5100 C   0  0  1  0  0  3  0  0  0  0  0  0
  1 21  2  0  0  0  0
  1 16  1  0  0  0  0
  2  8  2  0  0  0  0
  3 17  2  0  0  0  0
  5 24  1  0  0  0  0
  6  1  1  0  0  0  0
  8  7  2  0  0  0  0
  9 14  2  0  0  0  0
 10  8  1  6  0  0  0
 11 15  2  0  0  0  0
 12 24  1  0  0  0  0
 12 28  1  0  0  0  0
 13  9  1  0  0  0  0
 13 26  1  0  0  0  0
 14  8  1  0  0  0  0
 15 19  1  0  0  0  0
 15 23  1  0  0  0  0
 16 20  2  0  0  0  0
 17 25  1  0  0  0  0
 17  5  1  0  0  0  0
 18  9  1  0  0  0  0
 19 25  1  0  0  0  0
 20  4  1  0  0  0  0
 21 22  1  0  0  0  0
 22  4  2  0  0  0  0
 23  6  1  0  0  0  0
 24 26  1  0  0  0  0
 25 12  1  0  0  0  0
 26 10  1  0  0  0  0
 27  5  1  0  0  0  0
 28 16  1  0  0  0  0
 28 10  1  0  0  0  0
M  END
>  <MODEL>
7

>  <REMARK>
 VINA RESULT:      -7.6      2.092      2.700
  Name = 
  0 active torsions:
  status: ('A' for Active; 'I' for Inactive)
                            x       y       z     vdW  Elec       q    Type
                         _______ _______ _______ _____ _____    ______ ____

>  <TORSDO>
F 0

$$$$
=
 OpenBabel11112417393D

 28 32  0  0  1  0  0  0  0  0999 V2000
  186.8070  176.8980  143.3400 C   0  0  0  0  0  0  0  0  0  0  0  0
  188.2560  173.6600  142.9080 O   0  0  0  0  0  0  0  0  0  0  0  0
  190.9100  176.7520  148.2180 O   0  0  0  0  0  0  0  0  0  0  0  0
  187.6540  178.6280  141.3020 C   0  0  0  0  0  3  0  0  0  0  0  0
  191.8670  176.4980  146.0860 N   0  0  0  0  0  0  0  0  0  0  0  0
  186.3160  176.0130  144.4410 C   0  0  0  0  0  2  0  0  0  0  0  0
  189.5710  174.0370  140.8680 O   0  0  0  0  0  0  0  0  0  0  0  0
  189.6220  173.9750  142.3680 S   0  0  0  0  0  0  0  0  0  0  0  0
  191.5070  172.9040  143.8850 C   0  0  0  0  0  0  0  0  0  0  0  0
  190.2170  175.5460  142.9940 C   0  0  2  0  0  3  0  0  0  0  0  0
  186.8960  177.7180  147.6360 O   0  0  0  0  0  0  0  0  0  0  0  0
  189.9940  177.1880  144.7690 C   0  0  2  0  0  3  0  0  0  0  0  0
  191.4270  174.1390  144.7300 C   0  0  0  0  0  2  0  0  0  0  0  0
  190.7350  172.7430  142.8560 N   0  0  0  0  0  0  0  0  0  0  0  0
  187.1220  176.9550  146.6620 C   0  0  0  0  0  0  0  0  0  0  0  0
  188.1810  177.0270  143.0540 C   0  0  0  0  0  0  0  0  0  0  0  0
  190.7980  176.7910  146.9630 C   0  0  0  0  0  0  0  0  0  0  0  0
  192.3960  171.8610  144.2630 N   0  0  0  0  0  1  0  0  0  0  0  0
  188.4250  176.2230  146.5940 C   0  0  0  0  0  2  0  0  0  0  0  0
  188.5940  177.9010  142.0360 C   0  0  0  0  0  3  0  0  0  0  0  0
  185.8720  177.6340  142.6020 C   0  0  0  0  0  3  0  0  0  0  0  0
  186.2940  178.4930  141.5830 C   0  0  0  0  0  3  0  0  0  0  0  0
  186.1180  176.7910  145.6560 N   0  0  0  0  0  2  0  0  0  0  0  0
  191.4530  176.7020  144.7090 C   0  0  2  0  0  3  0  0  0  0  0  0
  189.5590  177.1900  146.2580 C   0  0  2  0  0  3  0  0  0  0  0  0
  191.4640  175.4140  143.8670 C   0  0  2  0  0  3  0  0  0  0  0  0
  193.2470  176.3070  146.5030 C   0  0  0  0  0  1  0  0  0  0  0  0
  189.1940  176.2640  143.8560 C   0  0  1  0  0  3  0  0  0  0  0  0
  1  6  1  0  0  0  0
  4 22  2  0  0  0  0
  4 20  1  0  0  0  0
  5 27  1  0  0  0  0
  5 17  1  0  0  0  0
  6 23  1  0  0  0  0
  7  8  2  0  0  0  0
  8 14  1  0  0  0  0
  8  2  2  0  0  0  0
  9 18  1  0  0  0  0
  9 13  1  0  0  0  0
 10  8  1  1  0  0  0
 10 28  1  0  0  0  0
 10 26  1  0  0  0  0
 12 25  1  0  0  0  0
 14  9  2  0  0  0  0
 15 11  2  0  0  0  0
 16  1  1  0  0  0  0
 16 28  1  0  0  0  0
 17  3  2  0  0  0  0
 19 15  1  0  0  0  0
 20 16  2  0  0  0  0
 21  1  2  0  0  0  0
 22 21  1  0  0  0  0
 23 15  1  0  0  0  0
 24 12  1  0  0  0  0
 24  5  1  0  0  0  0
 25 19  1  0  0  0  0
 25 17  1  0  0  0  0
 26 24  1  0  0  0  0
 26 13  1  0  0  0  0
 28 12  1  0  0  0  0
M  END
>  <MODEL>
8

>  <REMARK>
 VINA RESULT:      -7.3      2.493      4.930
  Name = 
  0 active torsions:
  status: ('A' for Active; 'I' for Inactive)
                            x       y       z     vdW  Elec       q    Type
                         _______ _______ _______ _____ _____    ______ ____

>  <TORSDO>
F 0

$$$$
=
 OpenBabel11112417393D

 28 32  0  0  1  0  0  0  0  0999 V2000
  194.6850  174.0220  144.2400 C   0  0  0  0  0  0  0  0  0  0  0  0
  192.2690  174.6240  141.6750 O   0  0  0  0  0  0  0  0  0  0  0  0
  190.4150  177.5420  147.4070 O   0  0  0  0  0  0  0  0  0  0  0  0
  194.6250  171.3330  145.0280 C   0  0  0  0  0  3  0  0  0  0  0  0
  189.5920  175.5400  146.4920 N   0  0  0  0  0  0  0  0  0  0  0  0
  194.7650  175.4640  143.8470 C   0  0  0  0  0  2  0  0  0  0  0  0
  191.3150  172.3730  141.4350 O   0  0  0  0  0  0  0  0  0  0  0  0
  191.1330  173.7230  142.0700 S   0  0  0  0  0  0  0  0  0  0  0  0
  188.8890  175.0970  142.3440 C   0  0  0  0  0  0  0  0  0  0  0  0
  191.0560  173.5220  143.8490 C   0  0  2  0  0  3  0  0  0  0  0  0
  194.5520  177.5010  146.8890 O   0  0  0  0  0  0  0  0  0  0  0  0
  191.6820  174.4940  145.9850 C   0  0  2  0  0  3  0  0  0  0  0  0
  189.3160  175.3720  143.7540 C   0  0  0  0  0  2  0  0  0  0  0  0
  189.6380  174.4120  141.5380 N   0  0  0  0  0  0  0  0  0  0  0  0
  194.1570  176.8910  145.8630 C   0  0  0  0  0  0  0  0  0  0  0  0
  193.4600  173.4210  144.5910 C   0  0  0  0  0  0  0  0  0  0  0  0
  190.6280  176.4340  146.8460 C   0  0  0  0  0  0  0  0  0  0  0  0
  187.6760  175.6610  141.8630 N   0  0  0  0  0  1  0  0  0  0  0  0
  192.6930  176.8430  145.5590 C   0  0  0  0  0  2  0  0  0  0  0  0
  193.4430  172.0750  144.9910 C   0  0  0  0  0  3  0  0  0  0  0  0
  195.8650  173.2720  144.2840 C   0  0  0  0  0  3  0  0  0  0  0  0
  195.8360  171.9300  144.6730 C   0  0  0  0  0  3  0  0  0  0  0  0
  195.1200  176.2770  145.0020 N   0  0  0  0  0  2  0  0  0  0  0  0
  190.1540  174.3210  145.9360 C   0  0  2  0  0  3  0  0  0  0  0  0
  191.9780  175.9130  146.5370 C   0  0  2  0  0  3  0  0  0  0  0  0
  189.7740  174.0850  144.4640 C   0  0  2  0  0  3  0  0  0  0  0  0
  188.2010  175.6910  146.8860 C   0  0  0  0  0  1  0  0  0  0  0  0
  192.1910  174.2230  144.5730 C   0  0  1  0  0  3  0  0  0  0  0  0
  1 21  2  0  0  0  0
  1 16  1  0  0  0  0
  2  8  2  0  0  0  0
  5 17  1  0  0  0  0
  5 27  1  0  0  0  0
  6  1  1  0  0  0  0
  6 23  1  0  0  0  0
  7  8  2  0  0  0  0
  9 13  1  0  0  0  0
 10  8  1  6  0  0  0
 10 26  1  0  0  0  0
 10 28  1  0  0  0  0
 12 25  1  0  0  0  0
 13 26  1  0  0  0  0
 14  8  1  0  0  0  0
 14  9  2  0  0  0  0
 15 11  2  0  0  0  0
 16 20  2  0  0  0  0
 17  3  2  0  0  0  0
 18  9  1  0  0  0  0
 19 15  1  0  0  0  0
 19 25  1  0  0  0  0
 20  4  1  0  0  0  0
 21 22  1  0  0  0  0
 22  4  2  0  0  0  0
 23 15  1  0  0  0  0
 24 12  1  0  0  0  0
 24  5  1  0  0  0  0
 25 17  1  0  0  0  0
 26 24  1  0  0  0  0
 28 16  1  0  0  0  0
 28 12  1  0  0  0  0
M  END
>  <MODEL>
9

>  <REMARK>
 VINA RESULT:      -7.2      3.179      7.378
  Name = 
  0 active torsions:
  status: ('A' for Active; 'I' for Inactive)
                            x       y       z     vdW  Elec       q    Type
                         _______ _______ _______ _____ _____    ______ ____

>  <TORSDO>
F 0

$$$$
