=
 OpenBabel11112417013D

 31 35  0  0  1  0  0  0  0  0999 V2000
  184.8140  177.8250  146.8300 C   0  0  0  0  0  0  0  0  0  0  0  0
  186.9960  176.1330  144.2060 C   0  0  2  0  0  3  0  0  0  0  0  0
  186.6560  176.7550  142.8610 C   0  0  0  0  0  0  0  0  0  0  0  0
  185.0580  178.0050  141.3540 C   0  0  0  0  0  0  0  0  0  0  0  0
  186.5700  176.9790  145.3830 C   0  0  0  0  0  0  0  0  0  0  0  0
  185.7610  178.5380  147.5690 C   0  0  0  0  0  3  0  0  0  0  0  0
  185.2590  177.3090  142.6670 C   0  0  0  0  0  2  0  0  0  0  0  0
  189.3690  176.9210  144.6800 C   0  0  2  0  0  3  0  0  0  0  0  0
  183.5040  177.8910  147.1660 F   0  0  0  0  0  0  0  0  0  0  0  0
  188.8620  176.0120  141.9660 C   0  0  0  0  0  2  0  0  0  0  0  0
  184.0250  178.6980  141.1670 O   0  0  0  0  0  0  0  0  0  0  0  0
  188.8870  177.5810  145.8490 O   0  0  0  0  0  0  0  0  0  0  0  0
  188.4760  175.7210  144.3200 C   0  0  2  0  0  3  0  0  0  0  0  0
  185.2180  177.0450  145.7430 C   0  0  0  0  0  3  0  0  0  0  0  0
  186.0300  177.8420  140.2710 C   0  0  0  0  0  3  0  0  0  0  0  0
  187.5240  177.6860  146.1420 C   0  0  0  0  0  0  0  0  0  0  0  0
  187.1150  178.4640  147.2290 C   0  0  0  0  0  3  0  0  0  0  0  0
  188.9150  175.0670  143.0830 N   0  0  0  0  0  2  0  0  0  0  0  0
  187.4970  176.6200  141.8080 C   0  0  0  0  0  0  0  0  0  0  0  0
  187.1670  177.1850  140.4860 C   0  0  0  0  0  3  0  0  0  0  0  0
  191.6890  178.1780  143.6060 O   0  0  0  0  0  0  0  0  0  0  0  0
  191.8600  177.1620  144.3340 C   0  0  0  0  0  0  0  0  0  0  0  0
  190.7390  176.4800  144.8970 N   0  0  0  0  0  2  0  0  0  0  0  0
  193.7830  173.8580  144.8980 C   0  0  1  0  0  3  0  0  0  0  0  0
  193.6730  175.6390  143.5490 C   0  0  0  0  0  2  0  0  0  0  0  0
  193.3320  176.7800  146.9720 O   0  0  0  0  0  0  0  0  0  0  0  0
  193.5080  172.3720  145.0130 C   0  0  0  0  0  1  0  0  0  0  0  0
  193.0930  174.3830  143.7950 O   0  0  0  0  0  0  0  0  0  0  0  0
  193.3220  176.0510  145.9940 C   0  0  0  0  0  0  0  0  0  0  0  0
  193.2390  176.6530  144.6140 C   0  0  2  0  0  3  0  0  0  0  0  0
  193.3460  174.5580  146.1860 C   0  0  0  0  0  2  0  0  0  0  0  0
  1  9  1  0  0  0  0
  1  6  1  0  0  0  0
  2  3  1  6  0  0  0
  2 13  1  0  0  0  0
  2  5  1  0  0  0  0
  4  7  1  0  0  0  0
  5 14  1  0  0  0  0
  5 16  2  0  0  0  0
  7  3  1  0  0  0  0
  8 23  1  1  0  0  0
  8 12  1  0  0  0  0
 10 18  1  0  0  0  0
 11  4  2  0  0  0  0
 12 16  1  0  0  0  0
 13 18  1  6  0  0  0
 13  8  1  0  0  0  0
 14  1  2  0  0  0  0
 15 20  2  0  0  0  0
 15  4  1  0  0  0  0
 16 17  1  0  0  0  0
 17  6  2  0  0  0  0
 19 10  1  0  0  0  0
 19  3  2  0  0  0  0
 20 19  1  0  0  0  0
 21 22  2  0  0  0  0
 22 23  1  0  0  0  0
 24 27  1  1  0  0  0
 24 31  1  0  0  0  0
 25 28  1  0  0  0  0
 25 30  1  0  0  0  0
 28 24  1  0  0  0  0
 29 31  1  0  0  0  0
 29 26  2  0  0  0  0
 30 22  1  6  0  0  0
 30 29  1  0  0  0  0
M  END
>  <MODEL>
1

>  <REMARK>
 VINA RESULT:      -8.8      0.000      0.000
  Name = 
  2 active torsions:
  status: ('A' for Active; 'I' for Inactive)
    1  A    between atoms: C_5  and  C_30
    2  A    between atoms: C_10  and  N_16
                            x       y       z     vdW  Elec       q    Type
                         _______ _______ _______ _____ _____    ______ ____

>  <TORSDO>
F 2

$$$$
=
 OpenBabel11112417013D

 31 35  0  0  1  0  0  0  0  0999 V2000
  184.9020  178.1550  147.0410 C   0  0  0  0  0  0  0  0  0  0  0  0
  187.3170  175.9780  145.0570 C   0  0  2  0  0  3  0  0  0  0  0  0
  187.2380  176.4180  143.6050 C   0  0  0  0  0  0  0  0  0  0  0  0
  185.9970  177.5300  141.7040 C   0  0  0  0  0  0  0  0  0  0  0  0
  186.7850  177.0090  146.0250 C   0  0  0  0  0  0  0  0  0  0  0  0
  185.7790  178.9110  147.8230 C   0  0  0  0  0  3  0  0  0  0  0  0
  185.9370  177.0190  143.1130 C   0  0  0  0  0  2  0  0  0  0  0  0
  189.6450  176.6860  145.8030 C   0  0  2  0  0  3  0  0  0  0  0  0
  183.5650  178.3460  147.1480 F   0  0  0  0  0  0  0  0  0  0  0  0
  189.4880  175.4270  143.1880 C   0  0  0  0  0  2  0  0  0  0  0  0
  185.0640  178.2480  141.2610 O   0  0  0  0  0  0  0  0  0  0  0  0
  189.0440  177.5350  146.7790 O   0  0  0  0  0  0  0  0  0  0  0  0
  188.7240  175.5010  145.4650 C   0  0  2  0  0  3  0  0  0  0  0  0
  185.4040  177.2050  146.1480 C   0  0  0  0  0  3  0  0  0  0  0  0
  187.1070  177.1550  140.8250 C   0  0  0  0  0  3  0  0  0  0  0  0
  187.6660  177.7610  146.8290 C   0  0  0  0  0  0  0  0  0  0  0  0
  187.1580  178.7100  147.7210 C   0  0  0  0  0  3  0  0  0  0  0  0
  189.2930  174.6510  144.4140 N   0  0  0  0  0  2  0  0  0  0  0  0
  188.2170  176.0840  142.7300 C   0  0  0  0  0  0  0  0  0  0  0  0
  188.1400  176.4710  141.3090 C   0  0  0  0  0  3  0  0  0  0  0  0
  192.1670  177.1560  144.5650 O   0  0  0  0  0  0  0  0  0  0  0  0
  192.1570  176.4800  145.6310 C   0  0  0  0  0  0  0  0  0  0  0  0
  190.9250  176.2020  146.2970 N   0  0  0  0  0  2  0  0  0  0  0  0
  195.8330  175.7950  144.6580 C   0  0  1  0  0  3  0  0  0  0  0  0
  194.5610  176.9860  146.0610 C   0  0  0  0  0  2  0  0  0  0  0  0
  193.2050  173.6310  145.8620 O   0  0  0  0  0  0  0  0  0  0  0  0
  196.7330  175.8630  143.4410 C   0  0  0  0  0  1  0  0  0  0  0  0
  195.0760  176.9720  144.7540 O   0  0  0  0  0  0  0  0  0  0  0  0
  193.8170  174.6440  145.5720 C   0  0  0  0  0  0  0  0  0  0  0  0
  193.4340  175.9570  146.2090 C   0  0  2  0  0  3  0  0  0  0  0  0
  194.9160  174.5760  144.5460 C   0  0  0  0  0  2  0  0  0  0  0  0
  1  9  1  0  0  0  0
  1  6  1  0  0  0  0
  2  3  1  6  0  0  0
  2 13  1  0  0  0  0
  2  5  1  0  0  0  0
  4  7  1  0  0  0  0
  5 14  1  0  0  0  0
  5 16  2  0  0  0  0
  7  3  1  0  0  0  0
  8 23  1  1  0  0  0
  8 12  1  0  0  0  0
 10 18  1  0  0  0  0
 11  4  2  0  0  0  0
 12 16  1  0  0  0  0
 13 18  1  6  0  0  0
 13  8  1  0  0  0  0
 14  1  2  0  0  0  0
 15 20  2  0  0  0  0
 15  4  1  0  0  0  0
 16 17  1  0  0  0  0
 17  6  2  0  0  0  0
 19 10  1  0  0  0  0
 19  3  2  0  0  0  0
 20 19  1  0  0  0  0
 21 22  2  0  0  0  0
 22 23  1  0  0  0  0
 24 27  1  6  0  0  0
 24 28  1  0  0  0  0
 25 30  1  0  0  0  0
 28 25  1  0  0  0  0
 29 26  2  0  0  0  0
 29 30  1  0  0  0  0
 30 22  1  6  0  0  0
 31 24  1  0  0  0  0
 31 29  1  0  0  0  0
M  END
>  <MODEL>
2

>  <REMARK>
 VINA RESULT:      -8.8      1.339      1.821
  Name = 
  2 active torsions:
  status: ('A' for Active; 'I' for Inactive)
    1  A    between atoms: C_5  and  C_30
    2  A    between atoms: C_10  and  N_16
                            x       y       z     vdW  Elec       q    Type
                         _______ _______ _______ _____ _____    ______ ____

>  <TORSDO>
F 2

$$$$
=
 OpenBabel11112417013D

 31 35  0  0  1  0  0  0  0  0999 V2000
  187.2970  177.2190  140.8670 C   0  0  0  0  0  0  0  0  0  0  0  0
  188.4550  177.7720  144.4540 C   0  0  2  0  0  3  0  0  0  0  0  0
  187.2130  177.9450  145.3120 C   0  0  0  0  0  0  0  0  0  0  0  0
  184.7670  178.5340  145.5520 C   0  0  0  0  0  0  0  0  0  0  0  0
  188.1790  177.1060  143.1260 C   0  0  0  0  0  0  0  0  0  0  0  0
  187.6650  175.8890  140.6520 C   0  0  0  0  0  3  0  0  0  0  0  0
  185.9700  178.5120  144.6570 C   0  0  0  0  0  2  0  0  0  0  0  0
  189.4330  175.5460  145.2050 C   0  0  2  0  0  3  0  0  0  0  0  0
  186.6860  177.9200  139.8820 F   0  0  0  0  0  0  0  0  0  0  0  0
  188.5270  177.3070  147.3330 C   0  0  0  0  0  2  0  0  0  0  0  0
  183.6310  178.7650  145.0640 O   0  0  0  0  0  0  0  0  0  0  0  0
  189.2510  175.0490  143.8800 O   0  0  0  0  0  0  0  0  0  0  0  0
  189.6090  177.0740  145.2000 C   0  0  2  0  0  3  0  0  0  0  0  0
  187.5570  177.8270  142.0990 C   0  0  0  0  0  3  0  0  0  0  0  0
  184.9120  178.3380  146.9960 C   0  0  0  0  0  3  0  0  0  0  0  0
  188.5650  175.7690  142.8990 C   0  0  0  0  0  0  0  0  0  0  0  0
  188.3030  175.1670  141.6650 C   0  0  0  0  0  3  0  0  0  0  0  0
  189.7300  177.6140  146.5580 N   0  0  0  0  0  2  0  0  0  0  0  0
  187.2800  177.8050  146.6570 C   0  0  0  0  0  0  0  0  0  0  0  0
  186.0940  178.0050  147.5090 C   0  0  0  0  0  3  0  0  0  0  0  0
  192.0790  175.6150  144.1530 O   0  0  0  0  0  0  0  0  0  0  0  0
  191.8970  174.9900  145.2340 C   0  0  0  0  0  0  0  0  0  0  0  0
  190.5930  174.9100  145.8110 N   0  0  0  0  0  2  0  0  0  0  0  0
  195.7350  174.6060  144.9960 C   0  0  1  0  0  3  0  0  0  0  0  0
  194.1050  175.3460  146.3380 C   0  0  0  0  0  2  0  0  0  0  0  0
  193.0510  172.1920  144.8960 O   0  0  0  0  0  0  0  0  0  0  0  0
  196.8790  175.0200  144.0920 C   0  0  0  0  0  1  0  0  0  0  0  0
  194.9010  175.7080  145.2380 O   0  0  0  0  0  0  0  0  0  0  0  0
  193.6450  173.2450  145.0540 C   0  0  0  0  0  0  0  0  0  0  0  0
  193.0430  174.3200  145.9240 C   0  0  2  0  0  3  0  0  0  0  0  0
  194.9480  173.4720  144.3360 C   0  0  0  0  0  2  0  0  0  0  0  0
  1 14  1  0  0  0  0
  2  5  1  6  0  0  0
  2 13  1  0  0  0  0
  2  3  1  0  0  0  0
  3 19  2  0  0  0  0
  4 15  1  0  0  0  0
  6  1  2  0  0  0  0
  6 17  1  0  0  0  0
  7  3  1  0  0  0  0
  7  4  1  0  0  0  0
  8 23  1  6  0  0  0
  9  1  1  0  0  0  0
 11  4  2  0  0  0  0
 12  8  1  0  0  0  0
 13  8  1  0  0  0  0
 13 18  1  1  0  0  0
 14  5  2  0  0  0  0
 15 20  2  0  0  0  0
 16  5  1  0  0  0  0
 16 12  1  0  0  0  0
 17 16  2  0  0  0  0
 18 10  1  0  0  0  0
 19 10  1  0  0  0  0
 19 20  1  0  0  0  0
 21 22  2  0  0  0  0
 22 23  1  0  0  0  0
 24 27  1  6  0  0  0
 24 28  1  0  0  0  0
 26 29  2  0  0  0  0
 28 25  1  0  0  0  0
 29 30  1  0  0  0  0
 30 22  1  6  0  0  0
 30 25  1  0  0  0  0
 31 24  1  0  0  0  0
 31 29  1  0  0  0  0
M  END
>  <MODEL>
3

>  <REMARK>
 VINA RESULT:      -8.5      2.333      4.376
  Name = 
  2 active torsions:
  status: ('A' for Active; 'I' for Inactive)
    1  A    between atoms: C_5  and  C_30
    2  A    between atoms: C_10  and  N_16
                            x       y       z     vdW  Elec       q    Type
                         _______ _______ _______ _____ _____    ______ ____

>  <TORSDO>
F 2

$$$$
=
 OpenBabel11112417013D

 31 35  0  0  1  0  0  0  0  0999 V2000
  194.4920  176.6090  145.1300 C   0  0  0  0  0  0  0  0  0  0  0  0
  191.1330  176.7090  143.3370 C   0  0  2  0  0  3  0  0  0  0  0  0
  191.0280  175.4470  142.4970 C   0  0  0  0  0  0  0  0  0  0  0  0
  192.1100  173.5140  141.2810 C   0  0  0  0  0  0  0  0  0  0  0  0
  192.1670  176.6140  144.4350 C   0  0  0  0  0  0  0  0  0  0  0  0
  194.0990  176.4490  146.4610 C   0  0  0  0  0  3  0  0  0  0  0  0
  192.3110  174.8160  141.9960 C   0  0  0  0  0  2  0  0  0  0  0  0
  189.3800  176.4040  145.1550 C   0  0  2  0  0  3  0  0  0  0  0  0
  195.8090  176.6790  144.8180 F   0  0  0  0  0  0  0  0  0  0  0  0
  188.5450  175.6820  142.4660 C   0  0  0  0  0  2  0  0  0  0  0  0
  193.1020  172.7860  141.0190 O   0  0  0  0  0  0  0  0  0  0  0  0
  190.4200  176.4590  146.1300 O   0  0  0  0  0  0  0  0  0  0  0  0
  189.7740  177.1810  143.8870 C   0  0  2  0  0  3  0  0  0  0  0  0
  193.5290  176.6960  144.1210 C   0  0  0  0  0  3  0  0  0  0  0  0
  190.7740  173.1080  140.8380 C   0  0  0  0  0  3  0  0  0  0  0  0
  191.7730  176.4700  145.7800 C   0  0  0  0  0  0  0  0  0  0  0  0
  192.7410  176.3860  146.7860 C   0  0  0  0  0  3  0  0  0  0  0  0
  188.7460  177.0820  142.8460 N   0  0  0  0  0  2  0  0  0  0  0  0
  189.8260  175.0270  142.0330 C   0  0  0  0  0  0  0  0  0  0  0  0
  189.7090  173.8250  141.1860 C   0  0  0  0  0  3  0  0  0  0  0  0
  187.9670  175.3220  147.3800 O   0  0  0  0  0  0  0  0  0  0  0  0
  187.4990  176.3620  146.8410 C   0  0  0  0  0  0  0  0  0  0  0  0
  188.1540  176.9510  145.7170 N   0  0  0  0  0  2  0  0  0  0  0  0
  184.5810  178.6360  145.7230 C   0  0  1  0  0  3  0  0  0  0  0  0
  185.0360  176.5940  146.5170 C   0  0  0  0  0  2  0  0  0  0  0  0
  187.0740  178.9950  148.3110 O   0  0  0  0  0  0  0  0  0  0  0  0
  184.1360  179.4200  144.5060 C   0  0  0  0  0  1  0  0  0  0  0  0
  184.9920  177.3510  145.3340 O   0  0  0  0  0  0  0  0  0  0  0  0
  186.3860  178.4920  147.4390 C   0  0  0  0  0  0  0  0  0  0  0  0
  186.2480  176.9910  147.3690 C   0  0  2  0  0  3  0  0  0  0  0  0
  185.7250  179.3770  146.4170 C   0  0  0  0  0  2  0  0  0  0  0  0
  1  6  1  0  0  0  0
  2  3  1  1  0  0  0
  2 13  1  0  0  0  0
  2  5  1  0  0  0  0
  4  7  1  0  0  0  0
  5 16  2  0  0  0  0
  6 17  2  0  0  0  0
  7  3  1  0  0  0  0
  8 23  1  1  0  0  0
  8 12  1  0  0  0  0
  9  1  1  0  0  0  0
 10 18  1  0  0  0  0
 11  4  2  0  0  0  0
 13 18  1  6  0  0  0
 13  8  1  0  0  0  0
 14  5  1  0  0  0  0
 14  1  2  0  0  0  0
 15 20  2  0  0  0  0
 15  4  1  0  0  0  0
 16 12  1  0  0  0  0
 16 17  1  0  0  0  0
 19 10  1  0  0  0  0
 19  3  2  0  0  0  0
 20 19  1  0  0  0  0
 22 21  2  0  0  0  0
 23 22  1  0  0  0  0
 24 27  1  6  0  0  0
 24 31  1  0  0  0  0
 25 30  1  0  0  0  0
 28 24  1  0  0  0  0
 28 25  1  0  0  0  0
 29 26  2  0  0  0  0
 30 22  1  6  0  0  0
 30 29  1  0  0  0  0
 31 29  1  0  0  0  0
M  END
>  <MODEL>
4

>  <REMARK>
 VINA RESULT:      -8.4      3.248      7.129
  Name = 
  2 active torsions:
  status: ('A' for Active; 'I' for Inactive)
    1  A    between atoms: C_5  and  C_30
    2  A    between atoms: C_10  and  N_16
                            x       y       z     vdW  Elec       q    Type
                         _______ _______ _______ _____ _____    ______ ____

>  <TORSDO>
F 2

$$$$
=
 OpenBabel11112417013D

 31 35  0  0  1  0  0  0  0  0999 V2000
  185.9150  178.2430  140.8830 C   0  0  0  0  0  0  0  0  0  0  0  0
  188.3700  178.0930  143.7910 C   0  0  2  0  0  3  0  0  0  0  0  0
  187.5870  177.6840  145.0280 C   0  0  0  0  0  0  0  0  0  0  0  0
  185.4060  177.5010  146.2920 C   0  0  0  0  0  0  0  0  0  0  0  0
  187.6630  177.7640  142.4970 C   0  0  0  0  0  0  0  0  0  0  0  0
  186.3440  177.1720  140.0940 C   0  0  0  0  0  3  0  0  0  0  0  0
  186.1180  178.0490  145.0910 C   0  0  0  0  0  2  0  0  0  0  0  0
  189.8750  176.0980  143.3120 C   0  0  2  0  0  3  0  0  0  0  0  0
  184.8580  178.9930  140.4880 F   0  0  0  0  0  0  0  0  0  0  0  0
  189.6970  176.9020  146.1000 C   0  0  0  0  0  2  0  0  0  0  0  0
  184.1500  177.5400  146.3450 O   0  0  0  0  0  0  0  0  0  0  0  0
  189.2300  175.9500  142.0480 O   0  0  0  0  0  0  0  0  0  0  0  0
  189.8150  177.5580  143.7910 C   0  0  2  0  0  3  0  0  0  0  0  0
  186.5760  178.5400  142.0780 C   0  0  0  0  0  3  0  0  0  0  0  0
  186.1650  176.9680  147.4260 C   0  0  0  0  0  3  0  0  0  0  0  0
  188.1040  176.6950  141.6910 C   0  0  0  0  0  0  0  0  0  0  0  0
  187.4400  176.4030  140.4950 C   0  0  0  0  0  3  0  0  0  0  0  0
  190.4130  177.7210  145.1200 N   0  0  0  0  0  2  0  0  0  0  0  0
  188.2270  177.2080  146.1220 C   0  0  0  0  0  0  0  0  0  0  0  0
  187.4870  176.8410  147.3440 C   0  0  0  0  0  3  0  0  0  0  0  0
  191.0530  174.0050  144.8450 O   0  0  0  0  0  0  0  0  0  0  0  0
  191.7850  174.5970  144.0050 C   0  0  0  0  0  0  0  0  0  0  0  0
  191.2590  175.6600  143.2100 N   0  0  0  0  0  2  0  0  0  0  0  0
  194.1760  171.6360  144.6790 C   0  0  1  0  0  3  0  0  0  0  0  0
  193.3250  172.8910  143.0340 C   0  0  0  0  0  2  0  0  0  0  0  0
  194.2040  175.0710  145.7920 O   0  0  0  0  0  0  0  0  0  0  0  0
  194.1570  170.2680  145.3290 C   0  0  0  0  0  1  0  0  0  0  0  0
  193.0500  171.7840  143.8540 O   0  0  0  0  0  0  0  0  0  0  0  0
  193.9070  174.0680  145.1670 C   0  0  0  0  0  0  0  0  0  0  0  0
  193.2160  174.1960  143.8320 C   0  0  2  0  0  3  0  0  0  0  0  0
  194.1910  172.7150  145.7630 C   0  0  0  0  0  2  0  0  0  0  0  0
  1 14  1  0  0  0  0
  2  5  1  6  0  0  0
  2 13  1  0  0  0  0
  2  3  1  0  0  0  0
  3  7  1  0  0  0  0
  3 19  2  0  0  0  0
  4 11  2  0  0  0  0
  4 15  1  0  0  0  0
  6 17  1  0  0  0  0
  6  1  2  0  0  0  0
  7  4  1  0  0  0  0
  8 23  1  6  0  0  0
  8 13  1  0  0  0  0
  9  1  1  0  0  0  0
 10 19  1  0  0  0  0
 12  8  1  0  0  0  0
 13 18  1  1  0  0  0
 14  5  2  0  0  0  0
 16 12  1  0  0  0  0
 16  5  1  0  0  0  0
 17 16  2  0  0  0  0
 18 10  1  0  0  0  0
 19 20  1  0  0  0  0
 20 15  2  0  0  0  0
 22 21  2  0  0  0  0
 23 22  1  0  0  0  0
 24 27  1  1  0  0  0
 24 31  1  0  0  0  0
 25 30  1  0  0  0  0
 25 28  1  0  0  0  0
 28 24  1  0  0  0  0
 29 31  1  0  0  0  0
 29 26  2  0  0  0  0
 30 22  1  1  0  0  0
 30 29  1  0  0  0  0
M  END
>  <MODEL>
5

>  <REMARK>
 VINA RESULT:      -8.1      2.357      4.270
  Name = 
  2 active torsions:
  status: ('A' for Active; 'I' for Inactive)
    1  A    between atoms: C_5  and  C_30
    2  A    between atoms: C_10  and  N_16
                            x       y       z     vdW  Elec       q    Type
                         _______ _______ _______ _____ _____    ______ ____

>  <TORSDO>
F 2

$$$$
=
 OpenBabel11112417013D

 31 35  0  0  1  0  0  0  0  0999 V2000
  185.4010  177.6940  146.6040 C   0  0  0  0  0  0  0  0  0  0  0  0
  187.1510  175.6680  143.8940 C   0  0  2  0  0  3  0  0  0  0  0  0
  186.9080  176.3720  142.5700 C   0  0  0  0  0  0  0  0  0  0  0  0
  185.5500  177.9420  141.1270 C   0  0  0  0  0  0  0  0  0  0  0  0
  186.9240  176.5550  145.0960 C   0  0  0  0  0  0  0  0  0  0  0  0
  186.4850  178.1930  147.3290 C   0  0  0  0  0  3  0  0  0  0  0  0
  185.6420  177.1920  142.4220 C   0  0  0  0  0  2  0  0  0  0  0  0
  189.6420  175.9680  144.3190 C   0  0  2  0  0  3  0  0  0  0  0  0
  184.1360  178.0070  146.9760 F   0  0  0  0  0  0  0  0  0  0  0  0
  188.9050  175.2350  141.6040 C   0  0  0  0  0  2  0  0  0  0  0  0
  184.6680  178.8270  140.9800 O   0  0  0  0  0  0  0  0  0  0  0  0
  189.3250  176.6840  145.5110 O   0  0  0  0  0  0  0  0  0  0  0  0
  188.5240  174.9730  143.9620 C   0  0  2  0  0  3  0  0  0  0  0  0
  185.6200  176.8740  145.4940 C   0  0  0  0  0  3  0  0  0  0  0  0
  186.4460  177.6160  140.0160 C   0  0  0  0  0  3  0  0  0  0  0  0
  188.0150  177.0460  145.8410 C   0  0  0  0  0  0  0  0  0  0  0  0
  187.7900  177.8650  146.9520 C   0  0  0  0  0  3  0  0  0  0  0  0
  188.7980  174.2730  142.7030 N   0  0  0  0  0  2  0  0  0  0  0  0
  187.6820  176.1000  141.4920 C   0  0  0  0  0  0  0  0  0  0  0  0
  187.4380  176.7460  140.1900 C   0  0  0  0  0  3  0  0  0  0  0  0
  192.0680  176.5900  142.9610 O   0  0  0  0  0  0  0  0  0  0  0  0
  192.0880  175.6330  143.7840 C   0  0  0  0  0  0  0  0  0  0  0  0
  190.9040  175.2650  144.4920 N   0  0  0  0  0  2  0  0  0  0  0  0
  195.9230  175.9990  143.4850 C   0  0  1  0  0  3  0  0  0  0  0  0
  194.2840  175.6400  144.9660 C   0  0  0  0  0  2  0  0  0  0  0  0
  193.5910  173.6760  142.0000 O   0  0  0  0  0  0  0  0  0  0  0  0
  196.9480  176.9990  142.9910 C   0  0  0  0  0  1  0  0  0  0  0  0
  194.9610  176.6550  144.2680 O   0  0  0  0  0  0  0  0  0  0  0  0
  194.0440  174.5440  142.7270 C   0  0  0  0  0  0  0  0  0  0  0  0
  193.3500  174.8680  144.0260 C   0  0  2  0  0  3  0  0  0  0  0  0
  195.2630  175.3120  142.2890 C   0  0  0  0  0  2  0  0  0  0  0  0
  1  9  1  0  0  0  0
  1  6  1  0  0  0  0
  2  3  1  6  0  0  0
  2 13  1  0  0  0  0
  2  5  1  0  0  0  0
  4  7  1  0  0  0  0
  5 14  1  0  0  0  0
  5 16  2  0  0  0  0
  7  3  1  0  0  0  0
  8 23  1  1  0  0  0
  8 12  1  0  0  0  0
 10 18  1  0  0  0  0
 11  4  2  0  0  0  0
 12 16  1  0  0  0  0
 13 18  1  6  0  0  0
 13  8  1  0  0  0  0
 14  1  2  0  0  0  0
 15 20  2  0  0  0  0
 15  4  1  0  0  0  0
 16 17  1  0  0  0  0
 17  6  2  0  0  0  0
 19 10  1  0  0  0  0
 19  3  2  0  0  0  0
 20 19  1  0  0  0  0
 21 22  2  0  0  0  0
 22 23  1  0  0  0  0
 24 27  1  6  0  0  0
 24 28  1  0  0  0  0
 26 29  2  0  0  0  0
 28 25  1  0  0  0  0
 29 30  1  0  0  0  0
 30 22  1  6  0  0  0
 30 25  1  0  0  0  0
 31 29  1  0  0  0  0
 31 24  1  0  0  0  0
M  END
>  <MODEL>
6

>  <REMARK>
 VINA RESULT:      -7.8      1.370      2.192
  Name = 
  2 active torsions:
  status: ('A' for Active; 'I' for Inactive)
    1  A    between atoms: C_5  and  C_30
    2  A    between atoms: C_10  and  N_16
                            x       y       z     vdW  Elec       q    Type
                         _______ _______ _______ _____ _____    ______ ____

>  <TORSDO>
F 2

$$$$
=
 OpenBabel11112417013D

 31 35  0  0  1  0  0  0  0  0999 V2000
  192.0440  172.8420  141.5170 C   0  0  0  0  0  0  0  0  0  0  0  0
  191.7050  174.0870  145.1000 C   0  0  2  0  0  3  0  0  0  0  0  0
  192.8130  175.1000  145.3370 C   0  0  0  0  0  0  0  0  0  0  0  0
  195.0750  176.0660  144.7550 C   0  0  0  0  0  0  0  0  0  0  0  0
  191.4180  173.8430  143.6370 C   0  0  0  0  0  0  0  0  0  0  0  0
  190.8970  173.3730  140.9220 C   0  0  0  0  0  3  0  0  0  0  0  0
  194.0930  174.9540  144.5390 C   0  0  0  0  0  2  0  0  0  0  0  0
  189.5690  175.4690  145.1440 C   0  0  2  0  0  3  0  0  0  0  0  0
  192.9080  172.1030  140.7790 F   0  0  0  0  0  0  0  0  0  0  0  0
  191.5080  176.0800  147.2220 C   0  0  0  0  0  2  0  0  0  0  0  0
  196.0670  176.1810  143.9890 O   0  0  0  0  0  0  0  0  0  0  0  0
  189.3180  175.0740  143.7960 O   0  0  0  0  0  0  0  0  0  0  0  0
  190.4160  174.4140  145.8770 C   0  0  2  0  0  3  0  0  0  0  0  0
  192.3010  173.0720  142.8700 C   0  0  0  0  0  3  0  0  0  0  0  0
  194.9170  176.9880  145.8820 C   0  0  0  0  0  3  0  0  0  0  0  0
  190.2530  174.3630  143.0380 C   0  0  0  0  0  0  0  0  0  0  0  0
  190.0000  174.1280  141.6840 C   0  0  0  0  0  3  0  0  0  0  0  0
  190.7420  174.8320  147.2440 N   0  0  0  0  0  2  0  0  0  0  0  0
  192.7440  175.9660  146.3760 C   0  0  0  0  0  0  0  0  0  0  0  0
  193.8270  176.9310  146.6430 C   0  0  0  0  0  3  0  0  0  0  0  0
  188.7830  177.8700  146.4610 O   0  0  0  0  0  0  0  0  0  0  0  0
  187.9710  176.9040  146.4730 C   0  0  0  0  0  0  0  0  0  0  0  0
  188.3060  175.6700  145.8380 N   0  0  0  0  0  2  0  0  0  0  0  0
  184.4410  178.3770  145.9180 C   0  0  1  0  0  3  0  0  0  0  0  0
  185.5240  176.4540  146.2880 C   0  0  0  0  0  2  0  0  0  0  0  0
  186.9540  178.9990  148.4360 O   0  0  0  0  0  0  0  0  0  0  0  0
  183.6850  179.1940  144.8910 C   0  0  0  0  0  1  0  0  0  0  0  0
  185.1610  177.3580  145.2750 O   0  0  0  0  0  0  0  0  0  0  0  0
  186.3610  178.4750  147.5080 C   0  0  0  0  0  0  0  0  0  0  0  0
  186.6460  177.0360  147.1560 C   0  0  2  0  0  3  0  0  0  0  0  0
  185.3870  179.2890  146.7000 C   0  0  0  0  0  2  0  0  0  0  0  0
  1 14  1  0  0  0  0
  2  5  1  6  0  0  0
  2  3  1  0  0  0  0
  2 13  1  0  0  0  0
  3 19  2  0  0  0  0
  4 15  1  0  0  0  0
  6  1  2  0  0  0  0
  6 17  1  0  0  0  0
  7  4  1  0  0  0  0
  7  3  1  0  0  0  0
  8 23  1  1  0  0  0
  8 13  1  0  0  0  0
  9  1  1  0  0  0  0
 10 18  1  0  0  0  0
 11  4  2  0  0  0  0
 12  8  1  0  0  0  0
 13 18  1  1  0  0  0
 14  5  2  0  0  0  0
 15 20  2  0  0  0  0
 16  5  1  0  0  0  0
 16 12  1  0  0  0  0
 17 16  2  0  0  0  0
 19 20  1  0  0  0  0
 19 10  1  0  0  0  0
 21 22  2  0  0  0  0
 23 22  1  0  0  0  0
 24 27  1  6  0  0  0
 24 31  1  0  0  0  0
 25 30  1  0  0  0  0
 28 24  1  0  0  0  0
 28 25  1  0  0  0  0
 29 26  2  0  0  0  0
 30 22  1  6  0  0  0
 30 29  1  0  0  0  0
 31 29  1  0  0  0  0
M  END
>  <MODEL>
7

>  <REMARK>
 VINA RESULT:      -7.8      3.525      8.034
  Name = 
  2 active torsions:
  status: ('A' for Active; 'I' for Inactive)
    1  A    between atoms: C_5  and  C_30
    2  A    between atoms: C_10  and  N_16
                            x       y       z     vdW  Elec       q    Type
                         _______ _______ _______ _____ _____    ______ ____

>  <TORSDO>
F 2

$$$$
=
 OpenBabel11112417013D

 31 35  0  0  1  0  0  0  0  0999 V2000
  186.5670  178.6640  142.3890 C   0  0  0  0  0  0  0  0  0  0  0  0
  189.6200  176.5800  143.3090 C   0  0  2  0  0  3  0  0  0  0  0  0
  189.3520  175.9530  144.6670 C   0  0  0  0  0  0  0  0  0  0  0  0
  188.1300  175.9320  146.8800 C   0  0  0  0  0  0  0  0  0  0  0  0
  188.3680  177.0510  142.6070 C   0  0  0  0  0  0  0  0  0  0  0  0
  186.0470  177.9440  141.3110 C   0  0  0  0  0  3  0  0  0  0  0  0
  188.4260  176.6850  145.6170 C   0  0  0  0  0  2  0  0  0  0  0  0
  189.6150  174.6120  141.6950 C   0  0  2  0  0  3  0  0  0  0  0  0
  185.9470  179.7910  142.8120 F   0  0  0  0  0  0  0  0  0  0  0  0
  191.0540  174.1960  144.1870 C   0  0  0  0  0  2  0  0  0  0  0  0
  187.2080  176.3240  147.6390 O   0  0  0  0  0  0  0  0  0  0  0  0
  188.5100  175.2070  141.0170 O   0  0  0  0  0  0  0  0  0  0  0  0
  190.4730  175.6830  142.3910 C   0  0  2  0  0  3  0  0  0  0  0  0
  187.7260  178.2210  143.0320 C   0  0  0  0  0  3  0  0  0  0  0  0
  188.9410  174.7730  147.2600 C   0  0  0  0  0  3  0  0  0  0  0  0
  187.8500  176.3370  141.5080 C   0  0  0  0  0  0  0  0  0  0  0  0
  186.6910  176.7850  140.8670 C   0  0  0  0  0  3  0  0  0  0  0  0
  191.5770  175.0890  143.1510 N   0  0  0  0  0  2  0  0  0  0  0  0
  190.0820  174.8950  145.0940 C   0  0  0  0  0  0  0  0  0  0  0  0
  189.8600  174.2970  146.4230 C   0  0  0  0  0  3  0  0  0  0  0  0
  189.5860  171.7790  141.3990 O   0  0  0  0  0  0  0  0  0  0  0  0
  190.3550  172.4370  140.6460 C   0  0  0  0  0  0  0  0  0  0  0  0
  190.4240  173.8600  140.7480 N   0  0  0  0  0  2  0  0  0  0  0  0
  190.3520  171.3710  136.9310 C   0  0  1  0  0  3  0  0  0  0  0  0
  191.4560  172.6310  138.4150 C   0  0  0  0  0  2  0  0  0  0  0  0
  190.6240  169.4750  139.9920 O   0  0  0  0  0  0  0  0  0  0  0  0
  189.4310  171.3960  135.7280 C   0  0  0  0  0  1  0  0  0  0  0  0
  190.3380  172.6240  137.5630 O   0  0  0  0  0  0  0  0  0  0  0  0
  190.5940  170.4230  139.2250 C   0  0  0  0  0  0  0  0  0  0  0  0
  191.2100  171.7370  139.6370 C   0  0  2  0  0  3  0  0  0  0  0  0
  189.8980  170.2780  137.8990 C   0  0  0  0  0  2  0  0  0  0  0  0
  1  9  1  0  0  0  0
  1 14  1  0  0  0  0
  2  5  1  6  0  0  0
  2  3  1  0  0  0  0
  3 19  2  0  0  0  0
  3  7  1  0  0  0  0
  4 15  1  0  0  0  0
  4 11  2  0  0  0  0
  5 14  2  0  0  0  0
  6  1  2  0  0  0  0
  7  4  1  0  0  0  0
  8 23  1  6  0  0  0
  8 13  1  0  0  0  0
 10 19  1  0  0  0  0
 12 16  1  0  0  0  0
 12  8  1  0  0  0  0
 13 18  1  1  0  0  0
 13  2  1  0  0  0  0
 16  5  1  0  0  0  0
 17  6  1  0  0  0  0
 17 16  2  0  0  0  0
 18 10  1  0  0  0  0
 19 20  1  0  0  0  0
 20 15  2  0  0  0  0
 22 23  1  0  0  0  0
 22 21  2  0  0  0  0
 24 27  1  6  0  0  0
 24 28  1  0  0  0  0
 24 31  1  0  0  0  0
 25 30  1  0  0  0  0
 28 25  1  0  0  0  0
 29 30  1  0  0  0  0
 29 26  2  0  0  0  0
 30 22  1  1  0  0  0
 31 29  1  0  0  0  0
M  END
>  <MODEL>
8

>  <REMARK>
 VINA RESULT:      -7.6      4.131      6.395
  Name = 
  2 active torsions:
  status: ('A' for Active; 'I' for Inactive)
    1  A    between atoms: C_5  and  C_30
    2  A    between atoms: C_10  and  N_16
                            x       y       z     vdW  Elec       q    Type
                         _______ _______ _______ _____ _____    ______ ____

>  <TORSDO>
F 2

$$$$
=
 OpenBabel11112417013D

 31 35  0  0  1  0  0  0  0  0999 V2000
  194.7250  176.9260  145.1000 C   0  0  0  0  0  0  0  0  0  0  0  0
  191.5620  175.2060  143.8540 C   0  0  2  0  0  3  0  0  0  0  0  0
  191.9210  173.7630  143.5430 C   0  0  0  0  0  0  0  0  0  0  0  0
  193.6320  171.9940  142.9640 C   0  0  0  0  0  0  0  0  0  0  0  0
  192.5560  175.8880  144.7650 C   0  0  0  0  0  0  0  0  0  0  0  0
  194.4090  177.1630  146.4400 C   0  0  0  0  0  3  0  0  0  0  0  0
  193.3480  173.4570  143.1340 C   0  0  0  0  0  2  0  0  0  0  0  0
  190.0270  175.0500  145.8780 C   0  0  2  0  0  3  0  0  0  0  0  0
  195.9290  177.3070  144.6110 F   0  0  0  0  0  0  0  0  0  0  0  0
  189.5210  173.1240  143.7600 C   0  0  0  0  0  2  0  0  0  0  0  0
  194.8210  171.5980  142.8500 O   0  0  0  0  0  0  0  0  0  0  0  0
  190.9740  175.8170  146.6210 O   0  0  0  0  0  0  0  0  0  0  0  0
  190.1220  175.3680  144.3750 C   0  0  2  0  0  3  0  0  0  0  0  0
  193.7990  176.2940  144.2650 C   0  0  0  0  0  3  0  0  0  0  0  0
  192.5330  171.0300  142.8780 C   0  0  0  0  0  3  0  0  0  0  0  0
  192.2340  176.1450  146.1130 C   0  0  0  0  0  0  0  0  0  0  0  0
  193.1630  176.7790  146.9440 C   0  0  0  0  0  3  0  0  0  0  0  0
  189.2030  174.5430  143.5850 N   0  0  0  0  0  2  0  0  0  0  0  0
  190.9530  172.8220  143.4230 C   0  0  0  0  0  0  0  0  0  0  0  0
  191.2800  171.4250  143.0860 C   0  0  0  0  0  3  0  0  0  0  0  0
  188.7550  177.5990  145.8300 O   0  0  0  0  0  0  0  0  0  0  0  0
  188.1020  176.6290  146.3040 C   0  0  0  0  0  0  0  0  0  0  0  0
  188.6840  175.3260  146.3650 N   0  0  0  0  0  2  0  0  0  0  0  0
  184.8030  178.4270  145.3980 C   0  0  1  0  0  3  0  0  0  0  0  0
  185.6770  176.4000  145.7650 C   0  0  0  0  0  2  0  0  0  0  0  0
  186.9860  178.6750  148.2640 O   0  0  0  0  0  0  0  0  0  0  0  0
  184.2590  179.3680  144.3430 C   0  0  0  0  0  1  0  0  0  0  0  0
  185.5260  177.3930  144.7830 O   0  0  0  0  0  0  0  0  0  0  0  0
  186.4880  178.2620  147.2310 C   0  0  0  0  0  0  0  0  0  0  0  0
  186.7100  176.8290  146.8150 C   0  0  2  0  0  3  0  0  0  0  0  0
  185.6990  179.2050  146.3630 C   0  0  0  0  0  2  0  0  0  0  0  0
  1  6  1  0  0  0  0
  2  3  1  1  0  0  0
  2 13  1  0  0  0  0
  2  5  1  0  0  0  0
  4  7  1  0  0  0  0
  5 16  2  0  0  0  0
  6 17  2  0  0  0  0
  7  3  1  0  0  0  0
  8 23  1  1  0  0  0
  8 12  1  0  0  0  0
  9  1  1  0  0  0  0
 11  4  2  0  0  0  0
 13 18  1  6  0  0  0
 13  8  1  0  0  0  0
 14  5  1  0  0  0  0
 14  1  2  0  0  0  0
 15  4  1  0  0  0  0
 15 20  2  0  0  0  0
 16 12  1  0  0  0  0
 16 17  1  0  0  0  0
 18 10  1  0  0  0  0
 19  3  2  0  0  0  0
 19 10  1  0  0  0  0
 20 19  1  0  0  0  0
 21 22  2  0  0  0  0
 22 23  1  0  0  0  0
 24 27  1  6  0  0  0
 24 31  1  0  0  0  0
 25 30  1  0  0  0  0
 28 24  1  0  0  0  0
 28 25  1  0  0  0  0
 29 26  2  0  0  0  0
 30 22  1  6  0  0  0
 30 29  1  0  0  0  0
 31 29  1  0  0  0  0
M  END
>  <MODEL>
9

>  <REMARK>
 VINA RESULT:      -7.5      3.377      7.599
  Name = 
  2 active torsions:
  status: ('A' for Active; 'I' for Inactive)
    1  A    between atoms: C_5  and  C_30
    2  A    between atoms: C_10  and  N_16
                            x       y       z     vdW  Elec       q    Type
                         _______ _______ _______ _____ _____    ______ ____

>  <TORSDO>
F 2

$$$$
