=
 OpenBabel11112417593D

 34 40  0  0  1  0  0  0  0  0999 V2000
  185.9440  178.0830  143.0190 C   0  0  1  0  0  3  0  0  0  0  0  0
  184.0670  178.8080  144.4940 N   0  0  0  0  0  2  0  0  0  0  0  0
  189.6350  172.6500  142.4240 C   0  0  2  0  0  3  0  0  0  0  0  0
  187.3150  176.3150  141.7560 C   0  0  1  0  0  3  0  0  0  0  0  0
  188.6590  174.7440  143.1610 C   0  0  1  0  0  3  0  0  0  0  0  0
  190.1930  173.0590  144.4340 C   0  0  0  0  0  2  0  0  0  0  0  0
  190.1770  171.8100  143.5570 C   0  0  0  0  0  2  0  0  0  0  0  0
  190.0310  173.9500  140.2980 C   0  0  0  0  0  2  0  0  0  0  0  0
  186.0940  178.1110  145.4550 C   0  0  2  0  0  3  0  0  0  0  0  0
  188.6790  175.6780  144.2150 O   0  0  0  0  0  0  0  0  0  0  0  0
  188.6190  174.5060  140.5770 C   0  0  0  0  0  2  0  0  0  0  0  0
  187.1330  176.9920  145.6030 C   0  0  1  0  0  3  0  0  0  0  0  0
  183.9280  178.9250  145.9490 C   0  0  0  0  0  2  0  0  0  0  0  0
  188.5930  175.4730  141.7840 C   0  0  1  0  0  3  0  0  0  0  0  0
  190.3980  172.6880  141.1130 C   0  0  0  0  0  2  0  0  0  0  0  0
  187.2330  177.2030  143.0030 C   0  0  2  0  0  3  0  0  0  0  0  0
  189.9190  173.9020  143.2040 C   0  0  1  0  0  3  0  0  0  0  0  0
  187.4120  176.2920  144.2460 C   0  0  1  0  0  3  0  0  0  0  0  0
  185.8930  178.0170  140.5000 C   0  0  0  0  0  2  0  0  0  0  0  0
  187.1830  177.1760  140.5000 C   0  0  0  0  0  2  0  0  0  0  0  0
  185.1500  178.2870  146.6060 C   0  0  0  0  0  2  0  0  0  0  0  0
  185.0650  177.8730  141.7830 C   0  0  0  0  0  2  0  0  0  0  0  0
  185.1610  177.8710  144.3090 C   0  0  2  0  0  3  0  0  0  0  0  0
  188.4130  177.5670  146.2090 C   0  0  0  0  0  2  0  0  0  0  0  0
  190.4400  176.7780  147.3530 C   0  0  0  0  0  3  0  0  0  0  0  0
  189.2310  176.5040  146.8690 C   0  0  0  0  0  3  0  0  0  0  0  0
  191.2420  175.7050  148.0000 C   0  0  0  0  0  2  0  0  0  0  0  0
  192.1640  175.0750  146.9730 C   0  0  0  0  0  2  0  0  0  0  0  0
  193.0370  176.1350  146.3190 C   0  0  0  0  0  2  0  0  0  0  0  0
  192.9990  175.8130  142.3550 C   0  0  0  0  0  3  0  0  0  0  0  0
  191.9590  176.9330  144.1420 C   0  0  0  0  0  3  0  0  0  0  0  0
  192.8510  176.1360  144.8390 C   0  0  0  0  0  0  0  0  0  0  0  0
  192.0430  176.7450  142.7540 C   0  0  0  0  0  3  0  0  0  0  0  0
  193.7380  175.2280  143.7490 S   0  0  0  0  0  0  0  0  0  0  0  0
  1 22  1  6  0  0  0
  1 23  1  0  0  0  0
  2 13  1  0  0  0  0
  3 15  1  6  0  0  0
  3 17  1  0  0  0  0
  3  7  1  0  0  0  0
  4 20  1  6  0  0  0
  4 14  1  0  0  0  0
  4 16  1  0  0  0  0
  5 17  1  0  0  0  0
  5 10  1  1  0  0  0
  7  6  1  0  0  0  0
  8 11  1  0  0  0  0
  8 15  1  0  0  0  0
  9 12  1  0  0  0  0
  9 21  1  1  0  0  0
 10 18  1  0  0  0  0
 12 24  1  6  0  0  0
 13 21  1  0  0  0  0
 14 11  1  6  0  0  0
 14  5  1  0  0  0  0
 16  1  1  0  0  0  0
 16 18  1  0  0  0  0
 17  6  1  0  0  0  0
 18 12  1  0  0  0  0
 19 22  1  0  0  0  0
 20 19  1  0  0  0  0
 23  2  1  0  0  0  0
 23  9  1  0  0  0  0
 24 26  1  0  0  0  0
 25 27  1  0  0  0  0
 26 25  2  0  0  0  0
 28 27  1  0  0  0  0
 29 28  1  0  0  0  0
 30 33  2  0  0  0  0
 30 34  1  0  0  0  0
 31 32  2  0  0  0  0
 32 29  1  0  0  0  0
 33 31  1  0  0  0  0
 34 32  1  0  0  0  0
M  END
>  <MODEL>
1

>  <REMARK>
 VINA RESULT:      -8.5      0.000      0.000
  Name = 
  6 active torsions:
  status: ('A' for Active; 'I' for Inactive)
    1  A    between atoms: C_10  and  C_17
    2  A    between atoms: C_13  and  C_24
    3  A    between atoms: C_17  and  C_28
    4  A    between atoms: C_22  and  C_24
    5  A    between atoms: C_28  and  C_29
    6  A    between atoms: C_29  and  C_32
                            x       y       z     vdW  Elec       q    Type
                         _______ _______ _______ _____ _____    ______ ____

>  <TORSDO>
F 6

$$$$
=
 OpenBabel11112417593D

 34 40  0  0  1  0  0  0  0  0999 V2000
  185.8710  178.1220  143.0590 C   0  0  1  0  0  3  0  0  0  0  0  0
  184.0950  178.8410  144.6560 N   0  0  0  0  0  2  0  0  0  0  0  0
  189.4900  172.6780  142.1820 C   0  0  2  0  0  3  0  0  0  0  0  0
  187.1510  176.3590  141.6960 C   0  0  1  0  0  3  0  0  0  0  0  0
  188.5730  174.7690  142.9980 C   0  0  1  0  0  3  0  0  0  0  0  0
  190.1760  173.0650  144.1560 C   0  0  0  0  0  2  0  0  0  0  0  0
  190.0980  171.8240  143.2710 C   0  0  0  0  0  2  0  0  0  0  0  0
  189.7570  173.9960  140.0470 C   0  0  0  0  0  2  0  0  0  0  0  0
  186.1750  178.1260  145.4810 C   0  0  2  0  0  3  0  0  0  0  0  0
  188.6640  175.6930  144.0570 O   0  0  0  0  0  0  0  0  0  0  0  0
  188.3680  174.5560  140.4200 C   0  0  0  0  0  2  0  0  0  0  0  0
  187.2150  177.0000  145.5530 C   0  0  1  0  0  3  0  0  0  0  0  0
  184.0490  178.9450  146.1190 C   0  0  0  0  0  2  0  0  0  0  0  0
  188.4230  175.5110  141.6350 C   0  0  1  0  0  3  0  0  0  0  0  0
  190.1690  172.7250  140.8250 C   0  0  0  0  0  2  0  0  0  0  0  0
  187.1520  177.2350  142.9540 C   0  0  2  0  0  3  0  0  0  0  0  0
  189.8290  173.9210  142.9540 C   0  0  1  0  0  3  0  0  0  0  0  0
  187.4050  176.3130  144.1740 C   0  0  1  0  0  3  0  0  0  0  0  0
  185.6620  178.0800  140.5480 C   0  0  0  0  0  2  0  0  0  0  0  0
  186.9450  177.2330  140.4580 C   0  0  0  0  0  2  0  0  0  0  0  0
  185.3060  178.2950  146.6910 C   0  0  0  0  0  2  0  0  0  0  0  0
  184.9150  177.9270  141.8800 C   0  0  0  0  0  2  0  0  0  0  0  0
  185.1700  177.9010  144.3940 C   0  0  2  0  0  3  0  0  0  0  0  0
  188.5340  177.5640  146.0820 C   0  0  0  0  0  2  0  0  0  0  0  0
  190.6130  176.5680  146.9350 C   0  0  0  0  0  3  0  0  0  0  0  0
  189.2830  176.5450  146.8800 C   0  0  0  0  0  3  0  0  0  0  0  0
  191.3410  175.5410  147.7280 C   0  0  0  0  0  2  0  0  0  0  0  0
  192.4490  174.9420  146.8820 C   0  0  0  0  0  2  0  0  0  0  0  0
  192.8500  175.9000  145.7720 C   0  0  0  0  0  2  0  0  0  0  0  0
  196.3320  175.3020  143.9470 C   0  0  0  0  0  3  0  0  0  0  0  0
  195.1550  174.8050  145.9210 C   0  0  0  0  0  3  0  0  0  0  0  0
  194.2180  175.5870  145.2690 C   0  0  0  0  0  0  0  0  0  0  0  0
  196.3370  174.6530  145.1800 C   0  0  0  0  0  3  0  0  0  0  0  0
  194.8410  176.0650  143.7900 S   0  0  0  0  0  0  0  0  0  0  0  0
  1 22  1  6  0  0  0
  1 23  1  0  0  0  0
  2 13  1  0  0  0  0
  3 15  1  6  0  0  0
  3 17  1  0  0  0  0
  3  7  1  0  0  0  0
  4 20  1  6  0  0  0
  4 16  1  0  0  0  0
  5 10  1  1  0  0  0
  7  6  1  0  0  0  0
  8 11  1  0  0  0  0
  8 15  1  0  0  0  0
  9 12  1  0  0  0  0
  9 21  1  1  0  0  0
 10 18  1  0  0  0  0
 12 24  1  6  0  0  0
 13 21  1  0  0  0  0
 14 11  1  6  0  0  0
 14  4  1  0  0  0  0
 14  5  1  0  0  0  0
 16  1  1  0  0  0  0
 16 18  1  0  0  0  0
 17  5  1  0  0  0  0
 17  6  1  0  0  0  0
 18 12  1  0  0  0  0
 19 22  1  0  0  0  0
 20 19  1  0  0  0  0
 23  2  1  0  0  0  0
 23  9  1  0  0  0  0
 24 26  1  0  0  0  0
 25 27  1  0  0  0  0
 26 25  2  0  0  0  0
 28 27  1  0  0  0  0
 29 28  1  0  0  0  0
 30 33  2  0  0  0  0
 32 29  1  0  0  0  0
 32 31  2  0  0  0  0
 33 31  1  0  0  0  0
 34 30  1  0  0  0  0
 34 32  1  0  0  0  0
M  END
>  <MODEL>
2

>  <REMARK>
 VINA RESULT:      -8.1      1.094      1.402
  Name = 
  6 active torsions:
  status: ('A' for Active; 'I' for Inactive)
    1  A    between atoms: C_10  and  C_17
    2  A    between atoms: C_13  and  C_24
    3  A    between atoms: C_17  and  C_28
    4  A    between atoms: C_22  and  C_24
    5  A    between atoms: C_28  and  C_29
    6  A    between atoms: C_29  and  C_32
                            x       y       z     vdW  Elec       q    Type
                         _______ _______ _______ _____ _____    ______ ____

>  <TORSDO>
F 6

$$$$
=
 OpenBabel11112417593D

 34 40  0  0  1  0  0  0  0  0999 V2000
  189.7290  174.6920  143.9240 C   0  0  1  0  0  3  0  0  0  0  0  0
  189.8960  172.8280  142.2740 N   0  0  0  0  0  2  0  0  0  0  0  0
  184.8170  178.2070  146.5730 C   0  0  2  0  0  3  0  0  0  0  0  0
  188.5330  176.0140  145.7750 C   0  0  1  0  0  3  0  0  0  0  0  0
  186.5000  177.2940  145.0860 C   0  0  1  0  0  3  0  0  0  0  0  0
  184.4060  178.7620  144.5630 C   0  0  0  0  0  2  0  0  0  0  0  0
  183.5890  178.7120  145.8510 C   0  0  0  0  0  2  0  0  0  0  0  0
  186.8170  178.6620  148.0420 C   0  0  0  0  0  2  0  0  0  0  0  0
  188.8160  174.8230  141.6630 C   0  0  2  0  0  3  0  0  0  0  0  0
  186.9590  177.3370  143.7550 O   0  0  0  0  0  0  0  0  0  0  0  0
  187.2710  177.2670  147.5640 C   0  0  0  0  0  2  0  0  0  0  0  0
  187.6920  175.8230  141.9610 C   0  0  1  0  0  3  0  0  0  0  0  0
  189.4510  172.6820  140.8840 C   0  0  0  0  0  2  0  0  0  0  0  0
  187.7020  177.2630  146.0780 C   0  0  1  0  0  3  0  0  0  0  0  0
  185.3290  178.9810  147.7740 C   0  0  0  0  0  2  0  0  0  0  0  0
  188.8780  175.9510  144.2820 C   0  0  2  0  0  3  0  0  0  0  0  0
  185.6650  178.5260  145.3750 C   0  0  1  0  0  3  0  0  0  0  0  0
  187.5560  176.0900  143.4840 C   0  0  1  0  0  3  0  0  0  0  0  0
  190.6330  174.6590  146.2760 C   0  0  0  0  0  2  0  0  0  0  0  0
  189.8140  175.9210  146.6050 C   0  0  0  0  0  2  0  0  0  0  0  0
  188.5700  173.8760  140.5280 C   0  0  0  0  0  2  0  0  0  0  0  0
  190.0360  173.8160  145.1410 C   0  0  0  0  0  2  0  0  0  0  0  0
  189.0650  173.8920  142.8090 C   0  0  2  0  0  3  0  0  0  0  0  0
  187.9490  177.1170  141.1870 C   0  0  0  0  0  2  0  0  0  0  0  0
  185.6340  177.9190  140.9870 C   0  0  0  0  0  3  0  0  0  0  0  0
  186.7530  177.5200  140.3860 C   0  0  0  0  0  3  0  0  0  0  0  0
  184.4520  178.3100  140.1730 C   0  0  0  0  0  2  0  0  0  0  0  0
  183.2030  178.2440  141.0320 C   0  0  0  0  0  2  0  0  0  0  0  0
  181.9830  177.9430  140.1770 C   0  0  0  0  0  2  0  0  0  0  0  0
  178.3640  178.6520  141.6660 C   0  0  0  0  0  3  0  0  0  0  0  0
  180.6540  178.8910  142.1450 C   0  0  0  0  0  3  0  0  0  0  0  0
  180.7260  178.2650  140.9120 C   0  0  0  0  0  0  0  0  0  0  0  0
  179.3310  179.1010  142.5640 C   0  0  0  0  0  3  0  0  0  0  0  0
  179.1740  177.9930  140.3470 S   0  0  0  0  0  0  0  0  0  0  0  0
  1 16  1  0  0  0  0
  1 22  1  1  0  0  0
  2 23  1  0  0  0  0
  3  7  1  6  0  0  0
  3 15  1  0  0  0  0
  4 14  1  0  0  0  0
  4 20  1  1  0  0  0
  5 10  1  6  0  0  0
  5 17  1  0  0  0  0
  5 14  1  0  0  0  0
  6 17  1  0  0  0  0
  6  7  1  0  0  0  0
  9 21  1  6  0  0  0
  9 12  1  0  0  0  0
  9 23  1  0  0  0  0
 11  8  1  0  0  0  0
 12 24  1  6  0  0  0
 12 18  1  0  0  0  0
 13  2  1  0  0  0  0
 14 11  1  1  0  0  0
 15  8  1  0  0  0  0
 16  4  1  0  0  0  0
 17  3  1  0  0  0  0
 18 10  1  0  0  0  0
 18 16  1  0  0  0  0
 19 20  1  0  0  0  0
 21 13  1  0  0  0  0
 22 19  1  0  0  0  0
 23  1  1  0  0  0  0
 26 25  2  0  0  0  0
 26 24  1  0  0  0  0
 27 25  1  0  0  0  0
 27 28  1  0  0  0  0
 29 32  1  0  0  0  0
 29 28  1  0  0  0  0
 30 33  2  0  0  0  0
 31 33  1  0  0  0  0
 32 31  2  0  0  0  0
 34 32  1  0  0  0  0
 34 30  1  0  0  0  0
M  END
>  <MODEL>
3

>  <REMARK>
 VINA RESULT:      -7.9      3.750      8.716
  Name = 
  6 active torsions:
  status: ('A' for Active; 'I' for Inactive)
    1  A    between atoms: C_10  and  C_17
    2  A    between atoms: C_13  and  C_24
    3  A    between atoms: C_17  and  C_28
    4  A    between atoms: C_22  and  C_24
    5  A    between atoms: C_28  and  C_29
    6  A    between atoms: C_29  and  C_32
                            x       y       z     vdW  Elec       q    Type
                         _______ _______ _______ _____ _____    ______ ____

>  <TORSDO>
F 6

$$$$
=
 OpenBabel11112417593D

 34 40  0  0  1  0  0  0  0  0999 V2000
  186.1760  177.0110  144.2610 C   0  0  1  0  0  3  0  0  0  0  0  0
  184.7290  178.2640  142.6620 N   0  0  0  0  0  2  0  0  0  0  0  0
  192.6450  176.7040  145.5110 C   0  0  2  0  0  3  0  0  0  0  0  0
  188.2630  176.7400  145.7370 C   0  0  1  0  0  3  0  0  0  0  0  0
  190.4380  176.4550  144.5390 C   0  0  1  0  0  3  0  0  0  0  0  0
  192.7960  176.0640  143.4890 C   0  0  0  0  0  2  0  0  0  0  0  0
  193.7540  176.7110  144.4850 C   0  0  0  0  0  2  0  0  0  0  0  0
  191.5380  175.6340  147.5090 C   0  0  0  0  0  2  0  0  0  0  0  0
  186.4790  176.9280  141.8400 C   0  0  2  0  0  3  0  0  0  0  0  0
  189.7650  175.9740  143.3990 O   0  0  0  0  0  0  0  0  0  0  0  0
  190.3560  176.5500  147.1310 C   0  0  0  0  0  2  0  0  0  0  0  0
  187.9840  176.6350  141.8380 C   0  0  1  0  0  3  0  0  0  0  0  0
  184.7050  178.3560  141.1980 C   0  0  0  0  0  2  0  0  0  0  0  0
  189.6470  176.0950  145.8340 C   0  0  1  0  0  3  0  0  0  0  0  0
  192.8800  176.0020  146.8360 C   0  0  0  0  0  2  0  0  0  0  0  0
  187.5950  176.3750  144.4060 C   0  0  2  0  0  3  0  0  0  0  0  0
  191.8140  175.8250  144.6200 C   0  0  1  0  0  3  0  0  0  0  0  0
  188.5840  176.7310  143.2660 C   0  0  1  0  0  3  0  0  0  0  0  0
  185.9510  177.0270  146.7710 C   0  0  0  0  0  2  0  0  0  0  0  0
  187.3380  176.3700  146.8970 C   0  0  0  0  0  2  0  0  0  0  0  0
  185.9520  177.6680  140.6470 C   0  0  0  0  0  2  0  0  0  0  0  0
  185.7690  177.8390  145.4820 C   0  0  0  0  0  2  0  0  0  0  0  0
  186.0760  177.8200  142.9740 C   0  0  2  0  0  3  0  0  0  0  0  0
  188.2300  175.2580  141.2190 C   0  0  0  0  0  2  0  0  0  0  0  0
  189.1500  173.1570  142.1020 C   0  0  0  0  0  3  0  0  0  0  0  0
  188.3400  174.1990  142.2700 C   0  0  0  0  0  3  0  0  0  0  0  0
  189.2410  172.1090  143.1550 C   0  0  0  0  0  2  0  0  0  0  0  0
  190.3080  172.4960  144.1610 C   0  0  0  0  0  2  0  0  0  0  0  0
  191.4320  171.4720  144.1660 C   0  0  0  0  0  2  0  0  0  0  0  0
  195.0120  173.1270  143.6550 C   0  0  0  0  0  3  0  0  0  0  0  0
  193.4300  172.5850  145.3090 C   0  0  0  0  0  3  0  0  0  0  0  0
  192.7630  172.1440  144.1790 C   0  0  0  0  0  0  0  0  0  0  0  0
  194.6850  173.1380  145.0100 C   0  0  0  0  0  3  0  0  0  0  0  0
  193.7230  172.4210  142.8360 S   0  0  0  0  0  0  0  0  0  0  0  0
  1 16  1  0  0  0  0
  1 22  1  1  0  0  0
  2 23  1  0  0  0  0
  3  7  1  6  0  0  0
  3 15  1  0  0  0  0
  4 14  1  0  0  0  0
  4 20  1  1  0  0  0
  5 10  1  6  0  0  0
  5 17  1  0  0  0  0
  5 14  1  0  0  0  0
  6  7  1  0  0  0  0
  6 17  1  0  0  0  0
  9 21  1  6  0  0  0
  9 23  1  0  0  0  0
 11  8  1  0  0  0  0
 12 24  1  1  0  0  0
 12  9  1  0  0  0  0
 12 18  1  0  0  0  0
 13  2  1  0  0  0  0
 14 11  1  1  0  0  0
 15  8  1  0  0  0  0
 16  4  1  0  0  0  0
 17  3  1  0  0  0  0
 18 10  1  0  0  0  0
 18 16  1  0  0  0  0
 19 20  1  0  0  0  0
 21 13  1  0  0  0  0
 22 19  1  0  0  0  0
 23  1  1  0  0  0  0
 24 26  1  0  0  0  0
 25 26  2  0  0  0  0
 25 27  1  0  0  0  0
 27 28  1  0  0  0  0
 28 29  1  0  0  0  0
 29 32  1  0  0  0  0
 30 33  2  0  0  0  0
 32 31  2  0  0  0  0
 33 31  1  0  0  0  0
 34 30  1  0  0  0  0
 34 32  1  0  0  0  0
M  END
>  <MODEL>
4

>  <REMARK>
 VINA RESULT:      -7.8      1.582      4.771
  Name = 
  6 active torsions:
  status: ('A' for Active; 'I' for Inactive)
    1  A    between atoms: C_10  and  C_17
    2  A    between atoms: C_13  and  C_24
    3  A    between atoms: C_17  and  C_28
    4  A    between atoms: C_22  and  C_24
    5  A    between atoms: C_28  and  C_29
    6  A    between atoms: C_29  and  C_32
                            x       y       z     vdW  Elec       q    Type
                         _______ _______ _______ _____ _____    ______ ____

>  <TORSDO>
F 6

$$$$
=
 OpenBabel11112417593D

 34 40  0  0  1  0  0  0  0  0999 V2000
  186.3540  177.5810  143.9570 C   0  0  1  0  0  3  0  0  0  0  0  0
  185.2530  178.6380  141.9840 N   0  0  0  0  0  2  0  0  0  0  0  0
  192.5710  176.3230  145.7640 C   0  0  2  0  0  3  0  0  0  0  0  0
  188.2940  177.2920  145.6180 C   0  0  1  0  0  3  0  0  0  0  0  0
  190.3890  176.2760  144.7090 C   0  0  1  0  0  3  0  0  0  0  0  0
  192.6360  175.1610  143.9840 C   0  0  0  0  0  2  0  0  0  0  0  0
  193.6840  175.8400  144.8610 C   0  0  0  0  0  2  0  0  0  0  0  0
  191.2080  176.0530  147.8690 C   0  0  0  0  0  2  0  0  0  0  0  0
  186.6970  176.8120  141.6650 C   0  0  2  0  0  3  0  0  0  0  0  0
  189.6600  175.6590  143.6740 O   0  0  0  0  0  0  0  0  0  0  0  0
  190.2600  177.0570  147.1800 C   0  0  0  0  0  2  0  0  0  0  0  0
  188.1040  176.2330  141.8580 C   0  0  1  0  0  3  0  0  0  0  0  0
  185.2880  178.3490  140.5460 C   0  0  0  0  0  2  0  0  0  0  0  0
  189.5050  176.4310  145.9840 C   0  0  1  0  0  3  0  0  0  0  0  0
  192.6150  175.9580  147.2360 C   0  0  0  0  0  2  0  0  0  0  0  0
  187.6000  176.7350  144.3700 C   0  0  2  0  0  3  0  0  0  0  0  0
  191.5960  175.4260  145.0550 C   0  0  1  0  0  3  0  0  0  0  0  0
  188.6720  176.5760  143.2610 C   0  0  1  0  0  3  0  0  0  0  0  0
  186.0700  178.2950  146.3570 C   0  0  0  0  0  2  0  0  0  0  0  0
  187.2810  177.4290  146.7540 C   0  0  0  0  0  2  0  0  0  0  0  0
  186.3720  177.3060  140.2880 C   0  0  0  0  0  2  0  0  0  0  0  0
  186.1010  178.7630  144.8960 C   0  0  0  0  0  2  0  0  0  0  0  0
  186.4640  178.0300  142.5050 C   0  0  2  0  0  3  0  0  0  0  0  0
  188.0650  174.7230  141.6240 C   0  0  0  0  0  2  0  0  0  0  0  0
  189.8320  173.6880  140.2630 C   0  0  0  0  0  3  0  0  0  0  0  0
  188.6820  174.3580  140.3120 C   0  0  0  0  0  3  0  0  0  0  0  0
  190.4350  173.3400  138.9480 C   0  0  0  0  0  2  0  0  0  0  0  0
  189.3410  173.2460  137.9010 C   0  0  0  0  0  2  0  0  0  0  0  0
  189.6600  174.1420  136.7150 C   0  0  0  0  0  2  0  0  0  0  0  0
  186.7860  176.4650  135.2440 C   0  0  0  0  0  3  0  0  0  0  0  0
  187.4220  175.2880  137.1780 C   0  0  0  0  0  3  0  0  0  0  0  0
  188.4770  174.9700  136.3410 C   0  0  0  0  0  0  0  0  0  0  0  0
  186.4770  176.1200  136.5580 C   0  0  0  0  0  3  0  0  0  0  0  0
  188.2480  175.7230  134.8640 S   0  0  0  0  0  0  0  0  0  0  0  0
  1 16  1  0  0  0  0
  1 22  1  1  0  0  0
  2 23  1  0  0  0  0
  3  7  1  6  0  0  0
  3 15  1  0  0  0  0
  4 14  1  0  0  0  0
  4 20  1  1  0  0  0
  5 10  1  6  0  0  0
  5 17  1  0  0  0  0
  5 14  1  0  0  0  0
  6  7  1  0  0  0  0
  6 17  1  0  0  0  0
  9 21  1  6  0  0  0
  9 12  1  0  0  0  0
  9 23  1  0  0  0  0
 11  8  1  0  0  0  0
 12 24  1  1  0  0  0
 12 18  1  0  0  0  0
 13  2  1  0  0  0  0
 14 11  1  1  0  0  0
 15  8  1  0  0  0  0
 16  4  1  0  0  0  0
 17  3  1  0  0  0  0
 18 10  1  0  0  0  0
 18 16  1  0  0  0  0
 19 20  1  0  0  0  0
 21 13  1  0  0  0  0
 22 19  1  0  0  0  0
 23  1  1  0  0  0  0
 25 26  2  0  0  0  0
 26 24  1  0  0  0  0
 27 25  1  0  0  0  0
 28 27  1  0  0  0  0
 29 28  1  0  0  0  0
 30 33  2  0  0  0  0
 32 29  1  0  0  0  0
 32 31  2  0  0  0  0
 33 31  1  0  0  0  0
 34 30  1  0  0  0  0
 34 32  1  0  0  0  0
M  END
>  <MODEL>
5

>  <REMARK>
 VINA RESULT:      -7.8      2.657      6.340
  Name = 
  6 active torsions:
  status: ('A' for Active; 'I' for Inactive)
    1  A    between atoms: C_10  and  C_17
    2  A    between atoms: C_13  and  C_24
    3  A    between atoms: C_17  and  C_28
    4  A    between atoms: C_22  and  C_24
    5  A    between atoms: C_28  and  C_29
    6  A    between atoms: C_29  and  C_32
                            x       y       z     vdW  Elec       q    Type
                         _______ _______ _______ _____ _____    ______ ____

>  <TORSDO>
F 6

$$$$
=
 OpenBabel11112417593D

 34 40  0  0  1  0  0  0  0  0999 V2000
  186.1250  177.6500  144.2720 C   0  0  1  0  0  3  0  0  0  0  0  0
  184.8940  178.7510  142.4030 N   0  0  0  0  0  2  0  0  0  0  0  0
  192.4530  176.4120  145.6600 C   0  0  2  0  0  3  0  0  0  0  0  0
  188.1650  177.3350  145.8030 C   0  0  1  0  0  3  0  0  0  0  0  0
  190.2110  176.3700  144.7380 C   0  0  1  0  0  3  0  0  0  0  0  0
  192.4200  175.3040  143.8450 C   0  0  0  0  0  2  0  0  0  0  0  0
  193.5130  175.9690  144.6770 C   0  0  0  0  0  2  0  0  0  0  0  0
  191.2230  176.0650  147.8350 C   0  0  0  0  0  2  0  0  0  0  0  0
  186.3340  176.9520  141.9420 C   0  0  2  0  0  3  0  0  0  0  0  0
  189.4250  175.7750  143.7310 O   0  0  0  0  0  0  0  0  0  0  0  0
  190.2250  177.0780  147.2350 C   0  0  0  0  0  2  0  0  0  0  0  0
  187.7560  176.3840  142.0320 C   0  0  1  0  0  3  0  0  0  0  0  0
  184.8450  178.5050  140.9570 C   0  0  0  0  0  2  0  0  0  0  0  0
  189.4050  176.4780  146.0690 C   0  0  1  0  0  3  0  0  0  0  0  0
  192.5900  176.0040  147.1150 C   0  0  0  0  0  2  0  0  0  0  0  0
  187.4010  176.8060  144.5830 C   0  0  2  0  0  3  0  0  0  0  0  0
  191.4440  175.5250  144.9850 C   0  0  1  0  0  3  0  0  0  0  0  0
  188.4060  176.6920  143.4070 C   0  0  1  0  0  3  0  0  0  0  0  0
  185.9810  178.2900  146.7060 C   0  0  0  0  0  2  0  0  0  0  0  0
  187.2220  177.4270  147.0030 C   0  0  0  0  0  2  0  0  0  0  0  0
  185.9210  177.4820  140.6020 C   0  0  0  0  0  2  0  0  0  0  0  0
  185.9180  178.8010  145.2600 C   0  0  0  0  0  2  0  0  0  0  0  0
  186.1410  178.1420  142.8310 C   0  0  2  0  0  3  0  0  0  0  0  0
  187.7180  174.8810  141.7550 C   0  0  0  0  0  2  0  0  0  0  0  0
  188.5930  173.3780  140.0190 C   0  0  0  0  0  3  0  0  0  0  0  0
  188.7420  174.4860  140.7400 C   0  0  0  0  0  3  0  0  0  0  0  0
  189.6260  172.9970  139.0180 C   0  0  0  0  0  2  0  0  0  0  0  0
  190.8750  172.5240  139.7380 C   0  0  0  0  0  2  0  0  0  0  0  0
  190.5750  171.2870  140.5690 C   0  0  0  0  0  2  0  0  0  0  0  0
  192.0960  171.6090  144.2300 C   0  0  0  0  0  3  0  0  0  0  0  0
  190.1100  171.9080  143.0050 C   0  0  0  0  0  3  0  0  0  0  0  0
  190.9610  171.4970  141.9940 C   0  0  0  0  0  0  0  0  0  0  0  0
  190.7510  171.9740  144.2520 C   0  0  0  0  0  3  0  0  0  0  0  0
  192.4770  171.2040  142.6410 S   0  0  0  0  0  0  0  0  0  0  0  0
  1 16  1  0  0  0  0
  1 22  1  1  0  0  0
  2 23  1  0  0  0  0
  3  7  1  6  0  0  0
  3 15  1  0  0  0  0
  4 14  1  0  0  0  0
  4 20  1  1  0  0  0
  5 10  1  6  0  0  0
  5 17  1  0  0  0  0
  5 14  1  0  0  0  0
  6  7  1  0  0  0  0
  6 17  1  0  0  0  0
  9 21  1  6  0  0  0
  9 12  1  0  0  0  0
  9 23  1  0  0  0  0
 11  8  1  0  0  0  0
 12 24  1  1  0  0  0
 12 18  1  0  0  0  0
 13  2  1  0  0  0  0
 14 11  1  1  0  0  0
 15  8  1  0  0  0  0
 16  4  1  0  0  0  0
 17  3  1  0  0  0  0
 18 10  1  0  0  0  0
 18 16  1  0  0  0  0
 19 20  1  0  0  0  0
 21 13  1  0  0  0  0
 22 19  1  0  0  0  0
 23  1  1  0  0  0  0
 25 26  2  0  0  0  0
 26 24  1  0  0  0  0
 27 28  1  0  0  0  0
 27 25  1  0  0  0  0
 28 29  1  0  0  0  0
 29 32  1  0  0  0  0
 30 33  2  0  0  0  0
 31 33  1  0  0  0  0
 32 34  1  0  0  0  0
 32 31  2  0  0  0  0
 34 30  1  0  0  0  0
M  END
>  <MODEL>
6

>  <REMARK>
 VINA RESULT:      -7.8      1.397      5.363
  Name = 
  6 active torsions:
  status: ('A' for Active; 'I' for Inactive)
    1  A    between atoms: C_10  and  C_17
    2  A    between atoms: C_13  and  C_24
    3  A    between atoms: C_17  and  C_28
    4  A    between atoms: C_22  and  C_24
    5  A    between atoms: C_28  and  C_29
    6  A    between atoms: C_29  and  C_32
                            x       y       z     vdW  Elec       q    Type
                         _______ _______ _______ _____ _____    ______ ____

>  <TORSDO>
F 6

$$$$
=
 OpenBabel11112417593D

 34 40  0  0  1  0  0  0  0  0999 V2000
  185.8700  178.0630  143.0420 C   0  0  1  0  0  3  0  0  0  0  0  0
  184.1200  178.7760  144.6720 N   0  0  0  0  0  2  0  0  0  0  0  0
  189.1920  172.4950  141.8350 C   0  0  2  0  0  3  0  0  0  0  0  0
  187.0640  176.3240  141.5750 C   0  0  1  0  0  3  0  0  0  0  0  0
  188.3840  174.5760  142.7800 C   0  0  1  0  0  3  0  0  0  0  0  0
  189.8790  172.7150  143.8350 C   0  0  0  0  0  2  0  0  0  0  0  0
  189.7420  171.5410  142.8700 C   0  0  0  0  0  2  0  0  0  0  0  0
  189.5520  173.9310  139.7920 C   0  0  0  0  0  2  0  0  0  0  0  0
  186.1500  177.8940  145.4610 C   0  0  2  0  0  3  0  0  0  0  0  0
  188.5150  175.4240  143.8980 O   0  0  0  0  0  0  0  0  0  0  0  0
  188.1920  174.5420  140.1920 C   0  0  0  0  0  2  0  0  0  0  0  0
  187.1260  176.7110  145.4660 C   0  0  1  0  0  3  0  0  0  0  0  0
  184.0660  178.7870  146.1380 C   0  0  0  0  0  2  0  0  0  0  0  0
  188.2880  175.4120  141.4680 C   0  0  1  0  0  3  0  0  0  0  0  0
  189.8860  172.5920  140.4890 C   0  0  0  0  0  2  0  0  0  0  0  0
  187.1010  177.1160  142.8870 C   0  0  2  0  0  3  0  0  0  0  0  0
  189.5920  173.6650  142.6890 C   0  0  1  0  0  3  0  0  0  0  0  0
  187.2910  176.1040  144.0470 C   0  0  1  0  0  3  0  0  0  0  0  0
  185.6820  178.1950  140.5330 C   0  0  0  0  0  2  0  0  0  0  0  0
  186.9180  177.2860  140.3960 C   0  0  0  0  0  2  0  0  0  0  0  0
  185.2800  178.0330  146.6740 C   0  0  0  0  0  2  0  0  0  0  0  0
  184.9160  177.9980  141.8470 C   0  0  0  0  0  2  0  0  0  0  0  0
  185.1450  177.7960  144.3560 C   0  0  2  0  0  3  0  0  0  0  0  0
  188.4690  177.1650  146.0390 C   0  0  0  0  0  2  0  0  0  0  0  0
  190.6400  177.5170  144.9410 C   0  0  0  0  0  3  0  0  0  0  0  0
  189.3350  177.7750  144.9830 C   0  0  0  0  0  3  0  0  0  0  0  0
  191.4870  178.1390  143.8880 C   0  0  0  0  0  2  0  0  0  0  0  0
  192.0690  177.0530  143.0020 C   0  0  0  0  0  2  0  0  0  0  0  0
  192.2010  175.7500  143.7740 C   0  0  0  0  0  2  0  0  0  0  0  0
  196.0640  175.2990  144.6050 C   0  0  0  0  0  3  0  0  0  0  0  0
  193.9310  175.2800  145.5960 C   0  0  0  0  0  3  0  0  0  0  0  0
  193.5900  175.5750  144.2880 C   0  0  0  0  0  0  0  0  0  0  0  0
  195.3160  175.1310  145.7690 C   0  0  0  0  0  3  0  0  0  0  0  0
  194.9820  175.6340  143.3600 S   0  0  0  0  0  0  0  0  0  0  0  0
  1 22  1  6  0  0  0
  1 23  1  0  0  0  0
  2 13  1  0  0  0  0
  3 15  1  6  0  0  0
  3 17  1  0  0  0  0
  3  7  1  0  0  0  0
  4 20  1  6  0  0  0
  4 16  1  0  0  0  0
  5 10  1  1  0  0  0
  7  6  1  0  0  0  0
  8 11  1  0  0  0  0
  8 15  1  0  0  0  0
  9 12  1  0  0  0  0
  9 21  1  1  0  0  0
 10 18  1  0  0  0  0
 12 24  1  6  0  0  0
 13 21  1  0  0  0  0
 14 11  1  6  0  0  0
 14  4  1  0  0  0  0
 14  5  1  0  0  0  0
 16  1  1  0  0  0  0
 16 18  1  0  0  0  0
 17  5  1  0  0  0  0
 17  6  1  0  0  0  0
 18 12  1  0  0  0  0
 19 22  1  0  0  0  0
 20 19  1  0  0  0  0
 23  2  1  0  0  0  0
 23  9  1  0  0  0  0
 25 26  2  0  0  0  0
 26 24  1  0  0  0  0
 27 25  1  0  0  0  0
 28 29  1  0  0  0  0
 28 27  1  0  0  0  0
 29 32  1  0  0  0  0
 30 33  2  0  0  0  0
 31 33  1  0  0  0  0
 32 31  2  0  0  0  0
 34 32  1  0  0  0  0
 34 30  1  0  0  0  0
M  END
>  <MODEL>
7

>  <REMARK>
 VINA RESULT:      -7.6      1.087      1.845
  Name = 
  6 active torsions:
  status: ('A' for Active; 'I' for Inactive)
    1  A    between atoms: C_10  and  C_17
    2  A    between atoms: C_13  and  C_24
    3  A    between atoms: C_17  and  C_28
    4  A    between atoms: C_22  and  C_24
    5  A    between atoms: C_28  and  C_29
    6  A    between atoms: C_29  and  C_32
                            x       y       z     vdW  Elec       q    Type
                         _______ _______ _______ _____ _____    ______ ____

>  <TORSDO>
F 6

$$$$
=
 OpenBabel11112417593D

 34 40  0  0  1  0  0  0  0  0999 V2000
  186.2670  177.5790  144.0010 C   0  0  1  0  0  3  0  0  0  0  0  0
  185.1290  178.6330  142.0470 N   0  0  0  0  0  2  0  0  0  0  0  0
  192.5240  176.4520  145.7580 C   0  0  2  0  0  3  0  0  0  0  0  0
  188.2230  177.3180  145.6470 C   0  0  1  0  0  3  0  0  0  0  0  0
  190.3370  176.3640  144.7150 C   0  0  1  0  0  3  0  0  0  0  0  0
  192.6060  175.3140  143.9640 C   0  0  0  0  0  2  0  0  0  0  0  0
  193.6420  176.0080  144.8440 C   0  0  0  0  0  2  0  0  0  0  0  0
  191.1790  176.1240  147.8680 C   0  0  0  0  0  2  0  0  0  0  0  0
  186.6150  176.8470  141.6980 C   0  0  2  0  0  3  0  0  0  0  0  0
  189.6170  175.7420  143.6760 O   0  0  0  0  0  0  0  0  0  0  0  0
  190.2030  177.1120  147.1960 C   0  0  0  0  0  2  0  0  0  0  0  0
  188.0370  176.3000  141.8760 C   0  0  1  0  0  3  0  0  0  0  0  0
  185.1630  178.3620  140.6060 C   0  0  0  0  0  2  0  0  0  0  0  0
  189.4570  176.4830  145.9960 C   0  0  1  0  0  3  0  0  0  0  0  0
  192.5840  176.0700  147.2260 C   0  0  0  0  0  2  0  0  0  0  0  0
  187.5350  176.7590  144.3960 C   0  0  2  0  0  3  0  0  0  0  0  0
  191.5660  175.5400  145.0440 C   0  0  1  0  0  3  0  0  0  0  0  0
  188.6050  176.6390  143.2800 C   0  0  1  0  0  3  0  0  0  0  0  0
  185.9800  178.2570  146.4110 C   0  0  0  0  0  2  0  0  0  0  0  0
  187.2130  177.4170  146.7910 C   0  0  0  0  0  2  0  0  0  0  0  0
  186.2710  177.3490  140.3280 C   0  0  0  0  0  2  0  0  0  0  0  0
  185.9910  178.7430  144.9560 C   0  0  0  0  0  2  0  0  0  0  0  0
  186.3580  178.0490  142.5540 C   0  0  2  0  0  3  0  0  0  0  0  0
  188.0340  174.7920  141.6240 C   0  0  0  0  0  2  0  0  0  0  0  0
  190.1220  173.6340  141.0400 C   0  0  0  0  0  3  0  0  0  0  0  0
  189.1030  174.3990  140.6550 C   0  0  0  0  0  3  0  0  0  0  0  0
  191.1800  173.2590  140.0630 C   0  0  0  0  0  2  0  0  0  0  0  0
  192.5440  173.4310  140.7060 C   0  0  0  0  0  2  0  0  0  0  0  0
  193.3460  174.4960  139.9760 C   0  0  0  0  0  2  0  0  0  0  0  0
  196.4230  175.2350  142.3860 C   0  0  0  0  0  3  0  0  0  0  0  0
  194.8280  176.2980  141.0230 C   0  0  0  0  0  3  0  0  0  0  0  0
  194.4820  174.9730  140.8160 C   0  0  0  0  0  0  0  0  0  0  0  0
  195.9160  176.4380  141.8980 C   0  0  0  0  0  3  0  0  0  0  0  0
  195.5000  173.9960  141.7170 S   0  0  0  0  0  0  0  0  0  0  0  0
  1 16  1  0  0  0  0
  1 22  1  1  0  0  0
  2 23  1  0  0  0  0
  3  7  1  6  0  0  0
  3 15  1  0  0  0  0
  4 14  1  0  0  0  0
  4 20  1  1  0  0  0
  5 10  1  6  0  0  0
  5 17  1  0  0  0  0
  5 14  1  0  0  0  0
  6  7  1  0  0  0  0
  6 17  1  0  0  0  0
  9 21  1  6  0  0  0
  9 12  1  0  0  0  0
  9 23  1  0  0  0  0
 11  8  1  0  0  0  0
 12 24  1  1  0  0  0
 12 18  1  0  0  0  0
 13  2  1  0  0  0  0
 14 11  1  1  0  0  0
 15  8  1  0  0  0  0
 16  4  1  0  0  0  0
 17  3  1  0  0  0  0
 18 10  1  0  0  0  0
 18 16  1  0  0  0  0
 19 20  1  0  0  0  0
 21 13  1  0  0  0  0
 22 19  1  0  0  0  0
 23  1  1  0  0  0  0
 26 25  2  0  0  0  0
 26 24  1  0  0  0  0
 27 28  1  0  0  0  0
 27 25  1  0  0  0  0
 29 28  1  0  0  0  0
 29 32  1  0  0  0  0
 31 33  1  0  0  0  0
 32 31  2  0  0  0  0
 32 34  1  0  0  0  0
 33 30  2  0  0  0  0
 34 30  1  0  0  0  0
M  END
>  <MODEL>
8

>  <REMARK>
 VINA RESULT:      -7.6      1.589      5.026
  Name = 
  6 active torsions:
  status: ('A' for Active; 'I' for Inactive)
    1  A    between atoms: C_10  and  C_17
    2  A    between atoms: C_13  and  C_24
    3  A    between atoms: C_17  and  C_28
    4  A    between atoms: C_22  and  C_24
    5  A    between atoms: C_28  and  C_29
    6  A    between atoms: C_29  and  C_32
                            x       y       z     vdW  Elec       q    Type
                         _______ _______ _______ _____ _____    ______ ____

>  <TORSDO>
F 6

$$$$
=
 OpenBabel11112417593D

 34 40  0  0  1  0  0  0  0  0999 V2000
  189.8870  173.9820  144.1010 C   0  0  1  0  0  3  0  0  0  0  0  0
  189.3170  174.1650  146.5220 N   0  0  0  0  0  2  0  0  0  0  0  0
  195.3700  174.6320  140.4930 C   0  0  2  0  0  3  0  0  0  0  0  0
  191.4820  173.4590  142.1540 C   0  0  1  0  0  3  0  0  0  0  0  0
  193.3870  175.0430  141.8270 C   0  0  1  0  0  3  0  0  0  0  0  0
  195.3940  176.6140  141.2630 C   0  0  0  0  0  2  0  0  0  0  0  0
  196.4490  175.6730  140.6870 C   0  0  0  0  0  2  0  0  0  0  0  0
  193.7240  173.4620  138.9820 C   0  0  0  0  0  2  0  0  0  0  0  0
  190.3340  175.9800  145.4310 C   0  0  2  0  0  3  0  0  0  0  0  0
  192.6750  176.0620  142.4880 O   0  0  0  0  0  0  0  0  0  0  0  0
  193.1260  172.9530  140.3100 C   0  0  0  0  0  2  0  0  0  0  0  0
  191.5360  176.4900  144.6250 C   0  0  1  0  0  3  0  0  0  0  0  0
  189.4690  175.2430  147.5050 C   0  0  0  0  0  2  0  0  0  0  0  0
  192.4070  174.0720  141.1010 C   0  0  1  0  0  3  0  0  0  0  0  0
  195.1410  174.0680  139.1030 C   0  0  0  0  0  2  0  0  0  0  0  0
  190.8430  174.5590  143.0100 C   0  0  2  0  0  3  0  0  0  0  0  0
  194.3140  175.6570  140.7970 C   0  0  1  0  0  3  0  0  0  0  0  0
  191.9840  175.4570  143.5560 C   0  0  1  0  0  3  0  0  0  0  0  0
  189.4700  171.9710  142.6400 C   0  0  0  0  0  2  0  0  0  0  0  0
  190.3900  172.5690  141.5600 C   0  0  0  0  0  2  0  0  0  0  0  0
  190.3100  176.3540  146.8820 C   0  0  0  0  0  2  0  0  0  0  0  0
  189.7930  172.4540  144.0600 C   0  0  0  0  0  2  0  0  0  0  0  0
  190.2810  174.4840  145.4840 C   0  0  2  0  0  3  0  0  0  0  0  0
  191.1840  177.8350  143.9890 C   0  0  0  0  0  2  0  0  0  0  0  0
  189.3160  177.8260  142.3920 C   0  0  0  0  0  3  0  0  0  0  0  0
  189.7290  177.9160  143.6540 C   0  0  0  0  0  3  0  0  0  0  0  0
  187.8640  177.9170  142.0770 C   0  0  0  0  0  2  0  0  0  0  0  0
  187.1730  176.6370  142.5090 C   0  0  0  0  0  2  0  0  0  0  0  0
  185.7940  176.9400  143.0740 C   0  0  0  0  0  2  0  0  0  0  0  0
  185.7570  178.5910  146.6920 C   0  0  0  0  0  3  0  0  0  0  0  0
  186.6580  176.7910  145.4750 C   0  0  0  0  0  3  0  0  0  0  0  0
  185.8880  177.3890  144.4920 C   0  0  0  0  0  0  0  0  0  0  0  0
  186.5770  177.4650  146.7040 C   0  0  0  0  0  3  0  0  0  0  0  0
  185.1340  178.7390  145.1350 S   0  0  0  0  0  0  0  0  0  0  0  0
  1 22  1  1  0  0  0
  1 23  1  0  0  0  0
  2 13  1  0  0  0  0
  3 15  1  6  0  0  0
  3  7  1  0  0  0  0
  3 17  1  0  0  0  0
  4 20  1  6  0  0  0
  4 16  1  0  0  0  0
  5 10  1  6  0  0  0
  7  6  1  0  0  0  0
  8 15  1  0  0  0  0
  8 11  1  0  0  0  0
  9 23  1  0  0  0  0
  9 21  1  1  0  0  0
 10 18  1  0  0  0  0
 12 24  1  6  0  0  0
 12  9  1  0  0  0  0
 14 11  1  1  0  0  0
 14  5  1  0  0  0  0
 14  4  1  0  0  0  0
 16 18  1  0  0  0  0
 16  1  1  0  0  0  0
 17  6  1  0  0  0  0
 17  5  1  0  0  0  0
 18 12  1  0  0  0  0
 19 22  1  0  0  0  0
 20 19  1  0  0  0  0
 21 13  1  0  0  0  0
 23  2  1  0  0  0  0
 25 26  2  0  0  0  0
 26 24  1  0  0  0  0
 27 25  1  0  0  0  0
 27 28  1  0  0  0  0
 28 29  1  0  0  0  0
 29 32  1  0  0  0  0
 30 33  2  0  0  0  0
 31 33  1  0  0  0  0
 32 34  1  0  0  0  0
 32 31  2  0  0  0  0
 34 30  1  0  0  0  0
M  END
>  <MODEL>
9

>  <REMARK>
 VINA RESULT:      -7.6      2.888      6.120
  Name = 
  6 active torsions:
  status: ('A' for Active; 'I' for Inactive)
    1  A    between atoms: C_10  and  C_17
    2  A    between atoms: C_13  and  C_24
    3  A    between atoms: C_17  and  C_28
    4  A    between atoms: C_22  and  C_24
    5  A    between atoms: C_28  and  C_29
    6  A    between atoms: C_29  and  C_32
                            x       y       z     vdW  Elec       q    Type
                         _______ _______ _______ _____ _____    ______ ____

>  <TORSDO>
F 6

$$$$
