=
 OpenBabel11112417543D

 34 40  0  0  1  0  0  0  0  0999 V2000
  192.0040  176.7320  145.4390 C   0  0  0  0  0  0  0  0  0  0  0  0
  190.0540  176.7140  146.7880 C   0  0  0  0  0  2  0  0  0  0  0  0
  197.4190  173.5460  140.9980 C   0  0  0  0  0  2  0  0  0  0  0  0
  194.1210  176.0050  144.1710 C   0  0  1  0  0  3  0  0  0  0  0  0
  193.8620  175.2840  141.8180 C   0  0  0  0  0  0  0  0  0  0  0  0
  194.9820  173.5200  140.4550 C   0  0  0  0  0  2  0  0  0  0  0  0
  196.3880  173.5460  139.8740 C   0  0  0  0  0  2  0  0  0  0  0  0
  196.8950  175.7860  141.7730 C   0  0  0  0  0  2  0  0  0  0  0  0
  189.8690  175.7540  144.6470 C   0  0  2  0  0  3  0  0  0  0  0  0
  187.4410  176.3780  142.6230 C   0  0  0  0  0  2  0  0  0  0  0  0
  192.5720  175.4180  141.9380 N   0  0  0  0  0  0  0  0  0  0  0  0
  196.1480  175.1870  142.9600 C   0  0  0  0  0  2  0  0  0  0  0  0
  190.4480  176.0460  143.2300 C   0  0  1  0  0  3  0  0  0  0  0  0
  188.9020  177.4040  146.0970 C   0  0  0  0  0  2  0  0  0  0  0  0
  194.7320  175.5670  142.9460 N   0  0  0  0  0  0  0  0  0  0  0  0
  197.9410  174.8880  141.2830 N   0  0  0  0  0  2  0  0  0  0  0  0
  187.9720  177.2770  143.7530 C   0  0  2  0  0  3  0  0  0  0  0  0
  192.6650  176.1580  144.2200 C   0  0  0  0  0  0  0  0  0  0  0  0
  194.4060  174.9240  140.4690 C   0  0  0  0  0  2  0  0  0  0  0  0
  191.9330  175.8330  143.1590 C   0  0  0  0  0  0  0  0  0  0  0  0
  194.2150  176.5780  146.4890 C   0  0  0  0  0  3  0  0  0  0  0  0
  188.2150  175.0760  142.4070 C   0  0  0  0  0  2  0  0  0  0  0  0
  194.8260  176.2120  145.2430 N   0  0  0  0  0  0  0  0  0  0  0  0
  189.7040  175.2850  142.1220 C   0  0  0  0  0  2  0  0  0  0  0  0
  188.5550  176.4930  144.9480 C   0  0  1  0  0  3  0  0  0  0  0  0
  192.9310  176.7840  146.5810 N   0  0  0  0  0  0  0  0  0  0  0  0
  190.8020  175.9560  145.7860 N   0  0  0  0  0  0  0  0  0  0  0  0
  186.9040  178.1630  144.1910 N   0  0  0  0  0  2  0  0  0  0  0  0
  185.7280  177.4000  144.2210 N   0  0  0  0  0  2  0  0  0  0  0  0
  185.8280  177.5290  147.6730 C   0  0  0  0  0  2  0  0  0  0  0  0
  185.5230  179.1310  145.9170 C   0  0  0  0  0  2  0  0  0  0  0  0
  184.9870  177.8090  145.4020 C   0  0  0  0  0  3  0  0  0  0  0  0
  185.5710  178.9970  147.4200 C   0  0  0  0  0  2  0  0  0  0  0  0
  185.1900  176.7930  146.5120 C   0  0  0  0  0  2  0  0  0  0  0  0
  1 27  1  0  0  0  0
  1 26  2  0  0  0  0
  3 16  1  0  0  0  0
  4 18  1  1  0  0  0
  4 23  1  0  0  0  0
  5 11  2  0  0  0  0
  5 15  1  0  0  0  0
  6 19  1  0  0  0  0
  7  6  1  0  0  0  0
  7  3  1  0  0  0  0
  8 12  1  0  0  0  0
  9 25  1  0  0  0  0
  9 27  1  1  0  0  0
 10 17  1  0  0  0  0
 11 20  1  0  0  0  0
 13 24  1  6  0  0  0
 13  9  1  0  0  0  0
 14  2  1  0  0  0  0
 15 12  1  0  0  0  0
 15  4  1  0  0  0  0
 16  8  1  0  0  0  0
 17 28  1  1  0  0  0
 17 25  1  0  0  0  0
 18  1  1  0  0  0  0
 19  5  1  0  0  0  0
 20 13  1  0  0  0  0
 20 18  2  0  0  0  0
 21 26  1  0  0  0  0
 22 10  1  0  0  0  0
 23 21  2  0  0  0  0
 24 22  1  0  0  0  0
 25 14  1  1  0  0  0
 27  2  1  0  0  0  0
 28 29  1  0  0  0  0
 29 32  1  0  0  0  0
 31 33  1  0  0  0  0
 32 31  1  0  0  0  0
 32 34  1  0  0  0  0
 33 30  1  0  0  0  0
 34 30  1  0  0  0  0
M  END
>  <MODEL>
1

>  <REMARK>
 VINA RESULT:      -8.6      0.000      0.000
  Name = 
  3 active torsions:
  status: ('A' for Active; 'I' for Inactive)
    1  A    between atoms: C_17  and  N_28
    2  A    between atoms: N_28  and  N_29
    3  A    between atoms: N_29  and  C_32
                            x       y       z     vdW  Elec       q    Type
                         _______ _______ _______ _____ _____    ______ ____

>  <TORSDO>
F 3

$$$$
=
 OpenBabel11112417543D

 34 40  0  0  1  0  0  0  0  0999 V2000
  190.1510  175.3190  142.4840 C   0  0  2  0  0  3  0  0  0  0  0  0
  191.8420  173.7420  141.9610 C   0  0  0  0  0  2  0  0  0  0  0  0
  184.1030  177.9850  146.4220 C   0  0  0  0  0  2  0  0  0  0  0  0
  187.9880  176.4040  143.3560 C   0  0  0  0  0  0  0  0  0  0  0  0
  188.0200  177.3660  145.6350 C   0  0  0  0  0  0  0  0  0  0  0  0
  186.3160  177.4660  147.4540 C   0  0  0  0  0  2  0  0  0  0  0  0
  185.0850  178.3580  147.5280 C   0  0  0  0  0  2  0  0  0  0  0  0
  185.5000  178.7980  144.6100 C   0  0  0  0  0  2  0  0  0  0  0  0
  191.6960  174.4300  144.2060 C   0  0  2  0  0  3  0  0  0  0  0  0
  194.2470  175.3180  145.9620 C   0  0  0  0  0  2  0  0  0  0  0  0
  189.2370  176.9240  145.7850 N   0  0  0  0  0  0  0  0  0  0  0  0
  185.8640  177.3580  144.2620 C   0  0  0  0  0  2  0  0  0  0  0  0
  191.3640  175.7560  144.9560 C   0  0  1  0  0  3  0  0  0  0  0  0
  193.2090  174.2510  142.3520 C   0  0  0  0  0  2  0  0  0  0  0  0
  187.3050  177.1250  144.3940 N   0  0  0  0  0  0  0  0  0  0  0  0
  184.1930  178.8830  145.2640 N   0  0  0  0  0  2  0  0  0  0  0  0
  194.1010  175.3700  144.4320 C   0  0  2  0  0  3  0  0  0  0  0  0
  189.3650  175.9630  143.5880 C   0  0  0  0  0  0  0  0  0  0  0  0
  187.4370  178.1960  146.7370 C   0  0  0  0  0  2  0  0  0  0  0  0
  189.9350  176.1810  144.7700 C   0  0  0  0  0  0  0  0  0  0  0  0
  188.0420  175.3070  141.2330 C   0  0  0  0  0  3  0  0  0  0  0  0
  193.0010  174.8580  146.7220 C   0  0  0  0  0  2  0  0  0  0  0  0
  187.3910  176.0900  142.2440 N   0  0  0  0  0  0  0  0  0  0  0  0
  191.7590  175.7080  146.4400 C   0  0  0  0  0  2  0  0  0  0  0  0
  193.1850  174.2680  143.8590 C   0  0  1  0  0  3  0  0  0  0  0  0
  189.2850  174.9350  141.3580 N   0  0  0  0  0  0  0  0  0  0  0  0
  190.8880  174.1510  142.9900 N   0  0  1  0  0  0  0  0  0  0  0  0
  195.4250  175.3040  143.8300 N   0  0  0  0  0  2  0  0  0  0  0  0
  195.9830  176.5860  143.9300 N   0  0  0  0  0  2  0  0  0  0  0  0
  197.6730  174.8850  141.4430 C   0  0  0  0  0  2  0  0  0  0  0  0
  196.0940  176.6870  141.5030 C   0  0  0  0  0  2  0  0  0  0  0  0
  196.8800  176.7480  142.8000 C   0  0  0  0  0  3  0  0  0  0  0  0
  196.9300  175.8580  140.5570 C   0  0  0  0  0  2  0  0  0  0  0  0
  197.8730  175.6000  142.7640 C   0  0  0  0  0  2  0  0  0  0  0  0
  1 26  1  6  0  0  0
  1 27  1  0  0  0  0
  1 18  1  0  0  0  0
  2 14  1  0  0  0  0
  2 27  1  0  0  0  0
  3  7  1  0  0  0  0
  4 18  1  0  0  0  0
  4 15  1  0  0  0  0
  5 11  2  0  0  0  0
  5 19  1  0  0  0  0
  6  7  1  0  0  0  0
  8 16  1  0  0  0  0
  9 13  1  0  0  0  0
 10 22  1  0  0  0  0
 12 15  1  0  0  0  0
 12  8  1  0  0  0  0
 13 24  1  0  0  0  0
 14 25  1  0  0  0  0
 15  5  1  0  0  0  0
 16  3  1  0  0  0  0
 17 10  1  0  0  0  0
 18 20  2  0  0  0  0
 19  6  1  0  0  0  0
 20 13  1  0  0  0  0
 20 11  1  0  0  0  0
 21 26  2  0  0  0  0
 21 23  1  0  0  0  0
 23  4  2  0  0  0  0
 24 22  1  0  0  0  0
 25  9  1  0  0  0  0
 25 17  1  0  0  0  0
 27  9  1  0  0  0  0
 28 29  1  0  0  0  0
 28 17  1  0  0  0  0
 30 34  1  0  0  0  0
 31 32  1  0  0  0  0
 32 29  1  0  0  0  0
 33 30  1  0  0  0  0
 33 31  1  0  0  0  0
 34 32  1  0  0  0  0
M  END
>  <MODEL>
2

>  <REMARK>
 VINA RESULT:      -8.4      1.712      9.161
  Name = 
  3 active torsions:
  status: ('A' for Active; 'I' for Inactive)
    1  A    between atoms: C_17  and  N_28
    2  A    between atoms: N_28  and  N_29
    3  A    between atoms: N_29  and  C_32
                            x       y       z     vdW  Elec       q    Type
                         _______ _______ _______ _____ _____    ______ ____

>  <TORSDO>
F 3

$$$$
=
 OpenBabel11112417543D

 34 40  0  0  1  0  0  0  0  0999 V2000
  190.8300  174.5010  142.2330 C   0  0  0  0  0  0  0  0  0  0  0  0
  192.4910  172.9220  142.8410 C   0  0  0  0  0  2  0  0  0  0  0  0
  184.0630  178.0960  142.9300 C   0  0  0  0  0  2  0  0  0  0  0  0
  188.5810  175.7200  141.9610 C   0  0  1  0  0  3  0  0  0  0  0  0
  187.9840  177.4250  143.6520 C   0  0  0  0  0  0  0  0  0  0  0  0
  185.8190  178.0800  144.7040 C   0  0  0  0  0  2  0  0  0  0  0  0
  184.6860  178.8810  144.0790 C   0  0  0  0  0  2  0  0  0  0  0  0
  185.9940  178.2810  141.4700 C   0  0  0  0  0  2  0  0  0  0  0  0
  191.7170  174.3520  144.5430 C   0  0  2  0  0  3  0  0  0  0  0  0
  193.6680  175.9230  146.5680 C   0  0  0  0  0  2  0  0  0  0  0  0
  189.0660  177.1230  144.3120 N   0  0  0  0  0  0  0  0  0  0  0  0
  186.3500  176.8300  141.7780 C   0  0  0  0  0  2  0  0  0  0  0  0
  191.2610  175.8400  144.6400 C   0  0  1  0  0  3  0  0  0  0  0  0
  193.7050  173.6010  143.4280 C   0  0  0  0  0  2  0  0  0  0  0  0
  187.6640  176.7270  142.4190 N   0  0  0  0  0  0  0  0  0  0  0  0
  184.5590  178.5300  141.6190 N   0  0  0  0  0  2  0  0  0  0  0  0
  193.9970  175.4240  145.1510 C   0  0  2  0  0  3  0  0  0  0  0  0
  189.7900  175.4550  142.7430 C   0  0  0  0  0  0  0  0  0  0  0  0
  187.1500  178.5620  144.1580 C   0  0  0  0  0  2  0  0  0  0  0  0
  189.9880  176.1030  143.8890 C   0  0  0  0  0  0  0  0  0  0  0  0
  189.2030  173.9470  140.4840 C   0  0  0  0  0  3  0  0  0  0  0  0
  192.2230  175.7020  147.0200 C   0  0  0  0  0  2  0  0  0  0  0  0
  188.3290  175.0050  140.9050 N   0  0  0  0  0  0  0  0  0  0  0  0
  191.1850  176.3370  146.0920 C   0  0  0  0  0  2  0  0  0  0  0  0
  193.2270  174.1490  144.7490 C   0  0  1  0  0  3  0  0  0  0  0  0
  190.3220  173.7030  141.1060 N   0  0  0  0  0  0  0  0  0  0  0  0
  191.2990  173.6230  143.3170 N   0  0  0  0  0  0  0  0  0  0  0  0
  195.4330  175.2120  145.0480 N   0  0  0  0  0  2  0  0  0  0  0  0
  195.8400  174.5900  146.2370 N   0  0  0  0  0  2  0  0  0  0  0  0
  196.9300  171.8110  144.4980 C   0  0  0  0  0  2  0  0  0  0  0  0
  197.5110  174.1360  144.5300 C   0  0  0  0  0  2  0  0  0  0  0  0
  197.0100  173.7900  145.9190 C   0  0  0  0  0  3  0  0  0  0  0  0
  197.8750  172.8190  143.8860 C   0  0  0  0  0  2  0  0  0  0  0  0
  196.6330  172.3180  145.8950 C   0  0  0  0  0  2  0  0  0  0  0  0
  1 18  1  0  0  0  0
  1 27  1  0  0  0  0
  2 27  1  0  0  0  0
  2 14  1  0  0  0  0
  3  7  1  0  0  0  0
  4 23  1  1  0  0  0
  4 15  1  0  0  0  0
  4 18  1  0  0  0  0
  5 19  1  0  0  0  0
  5 11  2  0  0  0  0
  7  6  1  0  0  0  0
  8 16  1  0  0  0  0
  8 12  1  0  0  0  0
  9 27  1  6  0  0  0
  9 13  1  0  0  0  0
  9 25  1  0  0  0  0
 10 22  1  0  0  0  0
 12 15  1  0  0  0  0
 13 24  1  1  0  0  0
 15  5  1  0  0  0  0
 16  3  1  0  0  0  0
 17 28  1  1  0  0  0
 17 10  1  0  0  0  0
 18 20  2  0  0  0  0
 19  6  1  0  0  0  0
 20 11  1  0  0  0  0
 20 13  1  0  0  0  0
 21 23  2  0  0  0  0
 21 26  1  0  0  0  0
 24 22  1  0  0  0  0
 25 14  1  6  0  0  0
 25 17  1  0  0  0  0
 26  1  2  0  0  0  0
 28 29  1  0  0  0  0
 30 34  1  0  0  0  0
 31 32  1  0  0  0  0
 32 29  1  0  0  0  0
 33 30  1  0  0  0  0
 33 31  1  0  0  0  0
 34 32  1  0  0  0  0
M  END
>  <MODEL>
3

>  <REMARK>
 VINA RESULT:      -8.4      2.340      8.901
  Name = 
  3 active torsions:
  status: ('A' for Active; 'I' for Inactive)
    1  A    between atoms: C_17  and  N_28
    2  A    between atoms: N_28  and  N_29
    3  A    between atoms: N_29  and  C_32
                            x       y       z     vdW  Elec       q    Type
                         _______ _______ _______ _____ _____    ______ ____

>  <TORSDO>
F 3

$$$$
=
 OpenBabel11112417543D

 34 40  0  0  1  0  0  0  0  0999 V2000
  190.8800  176.2430  146.4650 C   0  0  0  0  0  0  0  0  0  0  0  0
  193.2240  175.9090  146.3640 C   0  0  0  0  0  2  0  0  0  0  0  0
  184.1850  179.2930  144.2110 C   0  0  0  0  0  2  0  0  0  0  0  0
  188.5280  177.2540  146.2040 C   0  0  1  0  0  3  0  0  0  0  0  0
  187.2200  176.6230  144.2010 C   0  0  0  0  0  0  0  0  0  0  0  0
  185.6360  177.8860  142.7450 C   0  0  0  0  0  2  0  0  0  0  0  0
  184.2040  178.2910  143.0610 C   0  0  0  0  0  2  0  0  0  0  0  0
  184.8950  177.7000  145.8990 C   0  0  0  0  0  2  0  0  0  0  0  0
  192.0230  175.5870  144.3670 C   0  0  2  0  0  3  0  0  0  0  0  0
  192.4270  173.0360  142.4420 C   0  0  0  0  0  2  0  0  0  0  0  0
  188.2460  175.9470  143.7650 N   0  0  0  0  0  0  0  0  0  0  0  0
  186.2900  178.3150  145.8750 C   0  0  0  0  0  2  0  0  0  0  0  0
  190.6270  175.0170  143.9740 C   0  0  1  0  0  3  0  0  0  0  0  0
  193.5610  174.5220  145.8700 C   0  0  0  0  0  2  0  0  0  0  0  0
  187.2990  177.3350  145.4640 N   0  0  0  0  0  0  0  0  0  0  0  0
  183.8700  178.6660  145.4990 N   0  0  0  0  0  2  0  0  0  0  0  0
  192.7050  173.1210  143.9520 C   0  0  2  0  0  3  0  0  0  0  0  0
  189.6280  176.4530  145.6630 C   0  0  0  0  0  0  0  0  0  0  0  0
  185.9520  176.5570  143.4060 C   0  0  0  0  0  2  0  0  0  0  0  0
  189.4960  175.8690  144.4750 C   0  0  0  0  0  0  0  0  0  0  0  0
  189.9490  177.9020  148.0130 C   0  0  0  0  0  3  0  0  0  0  0  0
  191.8220  174.2940  141.8170 C   0  0  0  0  0  2  0  0  0  0  0  0
  188.7000  177.9190  147.3070 N   0  0  0  0  0  0  0  0  0  0  0  0
  190.5090  174.7340  142.4680 C   0  0  0  0  0  2  0  0  0  0  0  0
  193.1350  174.5260  144.4250 C   0  0  1  0  0  3  0  0  0  0  0  0
  190.9450  177.1630  147.6120 N   0  0  0  0  0  0  0  0  0  0  0  0
  192.0690  176.3960  145.6120 N   0  0  0  0  0  0  0  0  0  0  0  0
  193.7120  172.1300  144.3020 N   0  0  0  0  0  2  0  0  0  0  0  0
  194.6750  172.1490  143.2820 N   0  0  0  0  0  2  0  0  0  0  0  0
  196.9920  173.6740  145.3420 C   0  0  0  0  0  2  0  0  0  0  0  0
  195.7860  171.6030  145.3750 C   0  0  0  0  0  2  0  0  0  0  0  0
  195.9700  171.9810  143.9170 C   0  0  0  0  0  3  0  0  0  0  0  0
  196.8160  172.4020  146.1380 C   0  0  0  0  0  2  0  0  0  0  0  0
  196.7250  173.2980  143.8980 C   0  0  0  0  0  2  0  0  0  0  0  0
  1 26  2  0  0  0  0
  3 16  1  0  0  0  0
  4 18  1  6  0  0  0
  4 23  1  0  0  0  0
  5 15  1  0  0  0  0
  6  7  1  0  0  0  0
  6 19  1  0  0  0  0
  7  3  1  0  0  0  0
  9 25  1  0  0  0  0
  9 27  1  1  0  0  0
 10 17  1  0  0  0  0
 11  5  2  0  0  0  0
 11 20  1  0  0  0  0
 12  8  1  0  0  0  0
 13 24  1  6  0  0  0
 13  9  1  0  0  0  0
 13 20  1  0  0  0  0
 14  2  1  0  0  0  0
 15 12  1  0  0  0  0
 15  4  1  0  0  0  0
 16  8  1  0  0  0  0
 17 28  1  6  0  0  0
 17 25  1  0  0  0  0
 18  1  1  0  0  0  0
 19  5  1  0  0  0  0
 20 18  2  0  0  0  0
 22 10  1  0  0  0  0
 22 24  1  0  0  0  0
 23 21  2  0  0  0  0
 25 14  1  1  0  0  0
 26 21  1  0  0  0  0
 27  2  1  0  0  0  0
 27  1  1  0  0  0  0
 29 32  1  0  0  0  0
 29 28  1  0  0  0  0
 30 33  1  0  0  0  0
 31 33  1  0  0  0  0
 32 31  1  0  0  0  0
 34 32  1  0  0  0  0
 34 30  1  0  0  0  0
M  END
>  <MODEL>
4

>  <REMARK>
 VINA RESULT:      -8.1      2.315      8.605
  Name = 
  3 active torsions:
  status: ('A' for Active; 'I' for Inactive)
    1  A    between atoms: C_17  and  N_28
    2  A    between atoms: N_28  and  N_29
    3  A    between atoms: N_29  and  C_32
                            x       y       z     vdW  Elec       q    Type
                         _______ _______ _______ _____ _____    ______ ____

>  <TORSDO>
F 3

$$$$
=
 OpenBabel11112417543D

 34 40  0  0  1  0  0  0  0  0999 V2000
  188.6320  174.0170  142.5010 C   0  0  0  0  0  0  0  0  0  0  0  0
  187.1450  175.8470  142.2550 C   0  0  0  0  0  2  0  0  0  0  0  0
  195.5540  170.6690  142.7870 C   0  0  0  0  0  2  0  0  0  0  0  0
  190.7110  172.5070  142.3780 C   0  0  1  0  0  3  0  0  0  0  0  0
  192.3280  172.6210  144.2470 C   0  0  0  0  0  0  0  0  0  0  0  0
  194.8170  172.4760  144.3440 C   0  0  0  0  0  2  0  0  0  0  0  0
  195.6830  171.2330  144.1980 C   0  0  0  0  0  2  0  0  0  0  0  0
  193.2530  169.9430  143.0540 C   0  0  0  0  0  2  0  0  0  0  0  0
  188.8670  176.0880  143.8410 C   0  0  2  0  0  3  0  0  0  0  0  0
  188.3870  177.1880  146.8310 C   0  0  0  0  0  2  0  0  0  0  0  0
  191.6220  173.5800  144.7760 N   0  0  0  0  0  0  0  0  0  0  0  0
  192.7930  171.1340  142.2200 C   0  0  0  0  0  2  0  0  0  0  0  0
  189.6020  175.1570  144.8530 C   0  0  1  0  0  3  0  0  0  0  0  0
  186.4850  176.1980  143.5680 C   0  0  0  0  0  2  0  0  0  0  0  0
  191.9150  172.0180  142.9920 N   0  0  0  0  0  0  0  0  0  0  0  0
  194.6190  169.5400  142.7160 N   0  0  0  0  0  2  0  0  0  0  0  0
  187.3660  176.4930  145.9160 C   0  0  2  0  0  3  0  0  0  0  0  0
  189.9560  173.5690  143.0460 C   0  0  0  0  0  0  0  0  0  0  0  0
  193.5070  172.1130  145.0190 C   0  0  0  0  0  2  0  0  0  0  0  0
  190.4260  174.1030  144.1710 C   0  0  0  0  0  0  0  0  0  0  0  0
  189.1540  172.6020  140.5670 C   0  0  0  0  0  3  0  0  0  0  0  0
  189.8050  177.2940  146.2660 C   0  0  0  0  0  2  0  0  0  0  0  0
  190.3150  172.0670  141.2210 N   0  0  0  0  0  0  0  0  0  0  0  0
  190.4190  175.9440  145.8890 C   0  0  0  0  0  2  0  0  0  0  0  0
  187.6030  176.7520  144.4130 C   0  0  1  0  0  3  0  0  0  0  0  0
  188.4110  173.5070  141.1380 N   0  0  0  0  0  0  0  0  0  0  0  0
  188.5360  175.4850  142.5240 N   0  0  0  0  0  0  0  0  0  0  0  0
  186.0260  176.9080  146.3040 N   0  0  0  0  0  2  0  0  0  0  0  0
  186.1610  178.1130  147.0100 N   0  0  0  0  0  2  0  0  0  0  0  0
  185.0800  179.4900  144.0310 C   0  0  0  0  0  2  0  0  0  0  0  0
  184.0390  178.3100  145.8390 C   0  0  0  0  0  2  0  0  0  0  0  0
  185.2230  179.0550  146.4250 C   0  0  0  0  0  3  0  0  0  0  0  0
  183.7430  178.9850  144.5200 C   0  0  0  0  0  2  0  0  0  0  0  0
  185.8870  179.7940  145.2770 C   0  0  0  0  0  2  0  0  0  0  0  0
  1 27  1  0  0  0  0
  1 18  1  0  0  0  0
  2 27  1  0  0  0  0
  2 14  1  0  0  0  0
  3  7  1  0  0  0  0
  4 23  1  6  0  0  0
  4 15  1  0  0  0  0
  4 18  1  0  0  0  0
  5 11  2  0  0  0  0
  5 19  1  0  0  0  0
  6 19  1  0  0  0  0
  7  6  1  0  0  0  0
  9 27  1  6  0  0  0
  9 25  1  0  0  0  0
  9 13  1  0  0  0  0
 12 15  1  0  0  0  0
 12  8  1  0  0  0  0
 13 24  1  6  0  0  0
 15  5  1  0  0  0  0
 16  3  1  0  0  0  0
 16  8  1  0  0  0  0
 17 28  1  1  0  0  0
 17 10  1  0  0  0  0
 18 20  2  0  0  0  0
 20 11  1  0  0  0  0
 20 13  1  0  0  0  0
 21 26  1  0  0  0  0
 21 23  2  0  0  0  0
 22 10  1  0  0  0  0
 24 22  1  0  0  0  0
 25 14  1  6  0  0  0
 25 17  1  0  0  0  0
 26  1  2  0  0  0  0
 28 29  1  0  0  0  0
 30 33  1  0  0  0  0
 30 34  1  0  0  0  0
 31 32  1  0  0  0  0
 32 29  1  0  0  0  0
 33 31  1  0  0  0  0
 34 32  1  0  0  0  0
M  END
>  <MODEL>
5

>  <REMARK>
 VINA RESULT:      -8.0      2.995      4.569
  Name = 
  3 active torsions:
  status: ('A' for Active; 'I' for Inactive)
    1  A    between atoms: C_17  and  N_28
    2  A    between atoms: N_28  and  N_29
    3  A    between atoms: N_29  and  C_32
                            x       y       z     vdW  Elec       q    Type
                         _______ _______ _______ _____ _____    ______ ____

>  <TORSDO>
F 3

$$$$
=
 OpenBabel11112417543D

 34 40  0  0  1  0  0  0  0  0999 V2000
  190.1630  172.7590  142.6370 C   0  0  2  0  0  3  0  0  0  0  0  0
  188.3760  173.5240  141.2800 C   0  0  0  0  0  2  0  0  0  0  0  0
  197.4880  172.4540  144.9700 C   0  0  0  0  0  2  0  0  0  0  0  0
  192.5120  172.1690  143.5030 C   0  0  0  0  0  0  0  0  0  0  0  0
  193.7030  173.8700  144.8490 C   0  0  0  0  0  0  0  0  0  0  0  0
  196.1040  174.5320  145.0010 C   0  0  0  0  0  2  0  0  0  0  0  0
  197.2350  173.7770  145.6850 C   0  0  0  0  0  2  0  0  0  0  0  0
  195.3960  171.4340  145.6570 C   0  0  0  0  0  2  0  0  0  0  0  0
  189.6890  175.1720  142.3270 C   0  0  2  0  0  3  0  0  0  0  0  0
  188.4520  177.6920  143.9070 C   0  0  0  0  0  2  0  0  0  0  0  0
  192.7200  174.6980  144.6400 N   0  0  0  0  0  0  0  0  0  0  0  0
  194.8400  171.6590  144.2540 C   0  0  0  0  0  2  0  0  0  0  0  0
  190.4200  175.3260  143.6950 C   0  0  1  0  0  3  0  0  0  0  0  0
  187.4310  174.4050  142.0620 C   0  0  0  0  0  2  0  0  0  0  0  0
  193.6650  172.5340  144.2800 N   0  0  0  0  0  0  0  0  0  0  0  0
  196.8550  171.3180  145.6490 N   0  0  0  0  0  2  0  0  0  0  0  0
  187.7900  176.3260  143.6610 C   0  0  2  0  0  3  0  0  0  0  0  0
  191.4340  173.1450  143.3350 C   0  0  0  0  0  0  0  0  0  0  0  0
  194.8080  174.3110  145.7600 C   0  0  0  0  0  2  0  0  0  0  0  0
  191.5650  174.3660  143.8480 C   0  0  0  0  0  0  0  0  0  0  0  0
  191.3220  170.6750  142.0670 C   0  0  0  0  0  3  0  0  0  0  0  0
  189.8890  177.8230  143.3980 C   0  0  0  0  0  2  0  0  0  0  0  0
  192.4360  171.0180  142.9050 N   0  0  0  0  0  0  0  0  0  0  0  0
  190.8440  176.7750  143.9760 C   0  0  0  0  0  2  0  0  0  0  0  0
  188.2290  175.6520  142.3440 C   0  0  1  0  0  3  0  0  0  0  0  0
  190.3070  171.4790  141.9250 N   0  0  0  0  0  0  0  0  0  0  0  0
  189.7410  173.8210  141.7100 N   0  0  1  0  0  0  0  0  0  0  0  0
  186.3440  176.4890  143.6990 N   0  0  0  0  0  2  0  0  0  0  0  0
  186.0940  177.8460  143.9470 N   0  0  0  0  0  2  0  0  0  0  0  0
  185.8920  177.2740  147.3480 C   0  0  0  0  0  2  0  0  0  0  0  0
  185.5110  179.1550  145.9120 C   0  0  0  0  0  2  0  0  0  0  0  0
  185.2090  177.9120  145.0970 C   0  0  0  0  0  3  0  0  0  0  0  0
  185.4540  178.7200  147.3580 C   0  0  0  0  0  2  0  0  0  0  0  0
  185.4600  176.7200  146.0050 C   0  0  0  0  0  2  0  0  0  0  0  0
  1 26  1  6  0  0  0
  1 18  1  0  0  0  0
  2 27  1  0  0  0  0
  2 14  1  0  0  0  0
  3 16  1  0  0  0  0
  3  7  1  0  0  0  0
  4 15  1  0  0  0  0
  5 19  1  0  0  0  0
  6  7  1  0  0  0  0
  6 19  1  0  0  0  0
  9 25  1  0  0  0  0
  9 13  1  0  0  0  0
 11  5  2  0  0  0  0
 12 15  1  0  0  0  0
 12  8  1  0  0  0  0
 13 20  1  0  0  0  0
 13 24  1  0  0  0  0
 14 25  1  0  0  0  0
 15  5  1  0  0  0  0
 16  8  1  0  0  0  0
 17 28  1  0  0  0  0
 17 10  1  0  0  0  0
 18  4  1  0  0  0  0
 18 20  2  0  0  0  0
 20 11  1  0  0  0  0
 21 23  1  0  0  0  0
 22 10  1  0  0  0  0
 22 24  1  0  0  0  0
 23  4  2  0  0  0  0
 25 17  1  0  0  0  0
 26 21  2  0  0  0  0
 27  9  1  0  0  0  0
 27  1  1  0  0  0  0
 28 29  1  0  0  0  0
 29 32  1  0  0  0  0
 30 33  1  0  0  0  0
 31 33  1  0  0  0  0
 32 31  1  0  0  0  0
 32 34  1  0  0  0  0
 34 30  1  0  0  0  0
M  END
>  <MODEL>
6

>  <REMARK>
 VINA RESULT:      -7.9      2.687      4.098
  Name = 
  3 active torsions:
  status: ('A' for Active; 'I' for Inactive)
    1  A    between atoms: C_17  and  N_28
    2  A    between atoms: N_28  and  N_29
    3  A    between atoms: N_29  and  C_32
                            x       y       z     vdW  Elec       q    Type
                         _______ _______ _______ _____ _____    ______ ____

>  <TORSDO>
F 3

$$$$
=
 OpenBabel11112417543D

 34 40  0  0  1  0  0  0  0  0999 V2000
  191.9110  176.2400  146.1260 C   0  0  0  0  0  0  0  0  0  0  0  0
  194.1870  176.3790  146.7750 C   0  0  0  0  0  2  0  0  0  0  0  0
  185.5840  178.5600  142.4130 C   0  0  0  0  0  2  0  0  0  0  0  0
  189.5530  176.8420  145.2920 C   0  0  1  0  0  3  0  0  0  0  0  0
  189.0910  176.6020  142.8730 C   0  0  0  0  0  0  0  0  0  0  0  0
  187.7140  177.9310  141.2730 C   0  0  0  0  0  2  0  0  0  0  0  0
  186.1970  177.9600  141.1520 C   0  0  0  0  0  2  0  0  0  0  0  0
  186.1780  176.6960  143.8500 C   0  0  0  0  0  2  0  0  0  0  0  0
  193.7400  176.4470  144.4650 C   0  0  2  0  0  3  0  0  0  0  0  0
  195.3420  174.6890  142.2920 C   0  0  0  0  0  2  0  0  0  0  0  0
  190.3400  176.2810  142.6850 N   0  0  0  0  0  0  0  0  0  0  0  0
  187.3050  177.5320  144.4480 C   0  0  0  0  0  2  0  0  0  0  0  0
  192.7180  175.7750  143.4980 C   0  0  1  0  0  3  0  0  0  0  0  0
  195.0070  175.2820  146.1380 C   0  0  0  0  0  2  0  0  0  0  0  0
  188.6120  176.9150  144.2080 N   0  0  0  0  0  0  0  0  0  0  0  0
  185.0920  177.5360  143.3420 N   0  0  0  0  0  2  0  0  0  0  0  0
  195.1430  174.3760  143.7840 C   0  0  2  0  0  3  0  0  0  0  0  0
  190.9340  176.4470  145.0060 C   0  0  0  0  0  0  0  0  0  0  0  0
  188.1690  176.5460  141.6940 C   0  0  0  0  0  2  0  0  0  0  0  0
  191.3070  176.2240  143.7490 C   0  0  0  0  0  0  0  0  0  0  0  0
  190.1700  177.1760  147.5770 C   0  0  0  0  0  3  0  0  0  0  0  0
  194.6290  175.9450  141.7870 C   0  0  0  0  0  2  0  0  0  0  0  0
  189.2170  177.1740  146.5030 N   0  0  0  0  0  0  0  0  0  0  0  0
  193.1170  175.9310  142.0220 C   0  0  0  0  0  2  0  0  0  0  0  0
  195.0280  175.6340  144.6720 C   0  0  1  0  0  3  0  0  0  0  0  0
  191.3980  176.7790  147.3950 N   0  0  0  0  0  0  0  0  0  0  0  0
  193.2100  176.8480  145.7940 N   0  0  0  0  0  0  0  0  0  0  0  0
  196.2330  173.5240  144.2370 N   0  0  0  0  0  2  0  0  0  0  0  0
  195.7680  172.2030  144.1780 N   0  0  0  0  0  2  0  0  0  0  0  0
  194.9980  169.4560  146.1270 C   0  0  0  0  0  2  0  0  0  0  0  0
  196.9520  170.7960  145.7700 C   0  0  0  0  0  2  0  0  0  0  0  0
  195.7540  171.6970  145.5400 C   0  0  0  0  0  3  0  0  0  0  0  0
  196.4350  169.6210  146.5660 C   0  0  0  0  0  2  0  0  0  0  0  0
  194.5160  170.8440  145.7570 C   0  0  0  0  0  2  0  0  0  0  0  0
  1 26  2  0  0  0  0
  3 16  1  0  0  0  0
  4 18  1  6  0  0  0
  4 23  1  0  0  0  0
  5 15  1  0  0  0  0
  6 19  1  0  0  0  0
  7  6  1  0  0  0  0
  7  3  1  0  0  0  0
  8 12  1  0  0  0  0
  9 25  1  0  0  0  0
  9 27  1  1  0  0  0
 10 17  1  0  0  0  0
 11  5  2  0  0  0  0
 11 20  1  0  0  0  0
 13 24  1  6  0  0  0
 13 20  1  0  0  0  0
 13  9  1  0  0  0  0
 14  2  1  0  0  0  0
 15 12  1  0  0  0  0
 15  4  1  0  0  0  0
 16  8  1  0  0  0  0
 17 28  1  1  0  0  0
 17 25  1  0  0  0  0
 18  1  1  0  0  0  0
 19  5  1  0  0  0  0
 20 18  2  0  0  0  0
 22 24  1  0  0  0  0
 22 10  1  0  0  0  0
 23 21  2  0  0  0  0
 25 14  1  1  0  0  0
 26 21  1  0  0  0  0
 27  1  1  0  0  0  0
 27  2  1  0  0  0  0
 29 28  1  0  0  0  0
 29 32  1  0  0  0  0
 30 33  1  0  0  0  0
 31 33  1  0  0  0  0
 32 34  1  0  0  0  0
 32 31  1  0  0  0  0
 34 30  1  0  0  0  0
M  END
>  <MODEL>
7

>  <REMARK>
 VINA RESULT:      -7.9      2.706      8.271
  Name = 
  3 active torsions:
  status: ('A' for Active; 'I' for Inactive)
    1  A    between atoms: C_17  and  N_28
    2  A    between atoms: N_28  and  N_29
    3  A    between atoms: N_29  and  C_32
                            x       y       z     vdW  Elec       q    Type
                         _______ _______ _______ _____ _____    ______ ____

>  <TORSDO>
F 3

$$$$
=
 OpenBabel11112417543D

 34 40  0  0  1  0  0  0  0  0999 V2000
  191.5720  176.4930  145.2900 C   0  0  0  0  0  0  0  0  0  0  0  0
  189.4260  177.1370  146.0630 C   0  0  0  0  0  2  0  0  0  0  0  0
  196.8910  171.4610  142.9250 C   0  0  0  0  0  2  0  0  0  0  0  0
  193.6740  175.1150  144.7400 C   0  0  1  0  0  3  0  0  0  0  0  0
  193.7830  174.0150  142.5260 C   0  0  0  0  0  0  0  0  0  0  0  0
  194.7100  171.8280  141.7660 C   0  0  0  0  0  2  0  0  0  0  0  0
  196.1730  171.4520  141.5790 C   0  0  0  0  0  2  0  0  0  0  0  0
  196.7750  173.8680  143.2160 C   0  0  0  0  0  2  0  0  0  0  0  0
  189.4970  175.8350  144.1040 C   0  0  2  0  0  3  0  0  0  0  0  0
  187.8200  176.5340  141.4440 C   0  0  0  0  0  2  0  0  0  0  0  0
  192.5720  174.4300  142.2800 N   0  0  0  0  0  0  0  0  0  0  0  0
  195.6550  173.6780  144.2330 C   0  0  0  0  0  2  0  0  0  0  0  0
  190.4350  175.7200  142.8640 C   0  0  1  0  0  3  0  0  0  0  0  0
  188.6660  177.9000  145.0030 C   0  0  0  0  0  2  0  0  0  0  0  0
  194.4180  174.3300  143.7940 N   0  0  0  0  0  0  0  0  0  0  0  0
  197.6500  172.6970  143.1490 N   0  0  0  0  0  2  0  0  0  0  0  0
  188.2870  177.5090  142.5380 C   0  0  2  0  0  3  0  0  0  0  0  0
  192.3290  175.5690  144.3810 C   0  0  0  0  0  0  0  0  0  0  0  0
  194.5100  173.2940  141.4330 C   0  0  0  0  0  2  0  0  0  0  0  0
  191.7970  175.1980  143.2190 C   0  0  0  0  0  0  0  0  0  0  0  0
  193.3800  176.0980  146.8980 C   0  0  0  0  0  3  0  0  0  0  0  0
  188.2760  175.0850  141.6220 C   0  0  0  0  0  2  0  0  0  0  0  0
  194.1470  175.3790  145.9210 N   0  0  0  0  0  0  0  0  0  0  0  0
  189.7960  174.9250  141.7150 C   0  0  0  0  0  2  0  0  0  0  0  0
  188.3730  176.8720  143.9400 C   0  0  1  0  0  3  0  0  0  0  0  0
  192.2010  176.5770  146.6170 N   0  0  0  0  0  0  0  0  0  0  0  0
  190.1700  176.0620  145.4100 N   0  0  0  0  0  0  0  0  0  0  0  0
  187.4000  178.6630  142.5500 N   0  0  0  0  0  2  0  0  0  0  0  0
  186.1590  178.2290  142.0640 N   0  0  0  0  0  2  0  0  0  0  0  0
  185.0740  177.9990  145.3360 C   0  0  0  0  0  2  0  0  0  0  0  0
  185.7250  179.7870  143.8790 C   0  0  0  0  0  2  0  0  0  0  0  0
  185.1500  178.6920  143.0000 C   0  0  0  0  0  3  0  0  0  0  0  0
  185.2180  179.5020  145.2730 C   0  0  0  0  0  2  0  0  0  0  0  0
  184.7470  177.5560  143.9240 C   0  0  0  0  0  2  0  0  0  0  0  0
  1 27  1  0  0  0  0
  1 26  2  0  0  0  0
  3 16  1  0  0  0  0
  4 18  1  1  0  0  0
  4 23  1  0  0  0  0
  5 15  1  0  0  0  0
  7  6  1  0  0  0  0
  7  3  1  0  0  0  0
  8 12  1  0  0  0  0
  9 27  1  1  0  0  0
 10 22  1  0  0  0  0
 10 17  1  0  0  0  0
 11  5  2  0  0  0  0
 11 20  1  0  0  0  0
 13 24  1  6  0  0  0
 13 20  1  0  0  0  0
 13  9  1  0  0  0  0
 14  2  1  0  0  0  0
 15 12  1  0  0  0  0
 15  4  1  0  0  0  0
 16  8  1  0  0  0  0
 17 28  1  1  0  0  0
 17 25  1  0  0  0  0
 18  1  1  0  0  0  0
 19  6  1  0  0  0  0
 19  5  1  0  0  0  0
 20 18  2  0  0  0  0
 22 24  1  0  0  0  0
 23 21  2  0  0  0  0
 25  9  1  0  0  0  0
 25 14  1  1  0  0  0
 26 21  1  0  0  0  0
 27  2  1  0  0  0  0
 29 28  1  0  0  0  0
 29 32  1  0  0  0  0
 31 33  1  0  0  0  0
 32 31  1  0  0  0  0
 32 34  1  0  0  0  0
 33 30  1  0  0  0  0
 34 30  1  0  0  0  0
M  END
>  <MODEL>
8

>  <REMARK>
 VINA RESULT:      -7.5      1.501      1.726
  Name = 
  3 active torsions:
  status: ('A' for Active; 'I' for Inactive)
    1  A    between atoms: C_17  and  N_28
    2  A    between atoms: N_28  and  N_29
    3  A    between atoms: N_29  and  C_32
                            x       y       z     vdW  Elec       q    Type
                         _______ _______ _______ _____ _____    ______ ____

>  <TORSDO>
F 3

$$$$
=
 OpenBabel11112417543D

 34 40  0  0  1  0  0  0  0  0999 V2000
  192.9240  175.8940  145.3670 C   0  0  0  0  0  0  0  0  0  0  0  0
  191.2520  175.6220  147.0260 C   0  0  0  0  0  2  0  0  0  0  0  0
  197.3250  173.6020  139.4860 C   0  0  0  0  0  2  0  0  0  0  0  0
  194.7480  175.4190  143.6160 C   0  0  1  0  0  3  0  0  0  0  0  0
  194.0410  175.1560  141.2600 C   0  0  0  0  0  0  0  0  0  0  0  0
  194.8300  173.6820  139.4090 C   0  0  0  0  0  2  0  0  0  0  0  0
  196.1080  173.8160  138.5930 C   0  0  0  0  0  2  0  0  0  0  0  0
  197.0310  175.6550  140.7480 C   0  0  0  0  0  2  0  0  0  0  0  0
  190.6470  175.0850  144.8160 C   0  0  2  0  0  3  0  0  0  0  0  0
  187.9160  176.0840  143.4290 C   0  0  0  0  0  2  0  0  0  0  0  0
  192.7990  175.2660  141.6390 N   0  0  0  0  0  0  0  0  0  0  0  0
  196.4900  174.8430  141.9200 C   0  0  0  0  0  2  0  0  0  0  0  0
  190.9690  175.6410  143.3960 C   0  0  1  0  0  3  0  0  0  0  0  0
  190.0200  176.4320  146.7010 C   0  0  0  0  0  2  0  0  0  0  0  0
  195.1100  175.2200  142.2400 N   0  0  0  0  0  0  0  0  0  0  0  0
  197.9380  174.8650  139.9140 N   0  0  0  0  0  2  0  0  0  0  0  0
  188.6750  176.7520  144.5880 C   0  0  2  0  0  3  0  0  0  0  0  0
  193.3320  175.5610  143.9620 C   0  0  0  0  0  0  0  0  0  0  0  0
  194.3170  175.0580  139.7910 C   0  0  0  0  0  2  0  0  0  0  0  0
  192.4080  175.4430  143.0130 C   0  0  0  0  0  0  0  0  0  0  0  0
  195.2820  175.5410  145.9430 C   0  0  0  0  0  3  0  0  0  0  0  0
  188.5900  174.8460  142.8340 C   0  0  0  0  0  2  0  0  0  0  0  0
  195.6430  175.4170  144.5590 N   0  0  0  0  0  0  0  0  0  0  0  0
  190.0100  175.1040  142.3230 C   0  0  0  0  0  2  0  0  0  0  0  0
  189.4360  175.7550  145.4870 C   0  0  1  0  0  3  0  0  0  0  0  0
  194.0450  175.7280  146.3070 N   0  0  0  0  0  0  0  0  0  0  0  0
  191.7780  175.0680  145.7800 N   0  0  0  0  0  0  0  0  0  0  0  0
  187.7370  177.5410  145.3730 N   0  0  0  0  0  2  0  0  0  0  0  0
  186.5750  176.7690  145.5140 N   0  0  0  0  0  2  0  0  0  0  0  0
  185.5460  179.8710  144.3930 C   0  0  0  0  0  2  0  0  0  0  0  0
  184.7840  177.6180  144.1050 C   0  0  0  0  0  2  0  0  0  0  0  0
  185.4480  177.6850  145.4670 C   0  0  0  0  0  3  0  0  0  0  0  0
  184.4660  179.0470  143.7330 C   0  0  0  0  0  2  0  0  0  0  0  0
  185.9400  179.1110  145.6440 C   0  0  0  0  0  2  0  0  0  0  0  0
  1 27  1  0  0  0  0
  1 26  2  0  0  0  0
  3 16  1  0  0  0  0
  4 18  1  1  0  0  0
  4 23  1  0  0  0  0
  5 11  2  0  0  0  0
  5 15  1  0  0  0  0
  6 19  1  0  0  0  0
  7  6  1  0  0  0  0
  7  3  1  0  0  0  0
  8 12  1  0  0  0  0
  9 25  1  0  0  0  0
  9 27  1  1  0  0  0
 10 17  1  0  0  0  0
 11 20  1  0  0  0  0
 12 15  1  0  0  0  0
 13 24  1  6  0  0  0
 13  9  1  0  0  0  0
 14  2  1  0  0  0  0
 15  4  1  0  0  0  0
 16  8  1  0  0  0  0
 17 28  1  1  0  0  0
 17 25  1  0  0  0  0
 18  1  1  0  0  0  0
 19  5  1  0  0  0  0
 20 13  1  0  0  0  0
 20 18  2  0  0  0  0
 21 26  1  0  0  0  0
 22 10  1  0  0  0  0
 23 21  2  0  0  0  0
 24 22  1  0  0  0  0
 25 14  1  1  0  0  0
 27  2  1  0  0  0  0
 28 29  1  0  0  0  0
 30 34  1  0  0  0  0
 31 32  1  0  0  0  0
 32 29  1  0  0  0  0
 32 34  1  0  0  0  0
 33 31  1  0  0  0  0
 33 30  1  0  0  0  0
M  END
>  <MODEL>
9

>  <REMARK>
 VINA RESULT:      -7.4      1.162      1.576
  Name = 
  3 active torsions:
  status: ('A' for Active; 'I' for Inactive)
    1  A    between atoms: C_17  and  N_28
    2  A    between atoms: N_28  and  N_29
    3  A    between atoms: N_29  and  C_32
                            x       y       z     vdW  Elec       q    Type
                         _______ _______ _______ _____ _____    ______ ____

>  <TORSDO>
F 3

$$$$
