=
 OpenBabel11112417383D

 28 32  0  0  1  0  0  0  0  0999 V2000
  186.1900  178.3970  144.2190 C   0  0  0  0  0  0  0  0  0  0  0  0
  189.7370  178.1750  145.3500 O   0  0  0  0  0  0  0  0  0  0  0  0
  188.3930  174.8200  139.4700 O   0  0  0  0  0  0  0  0  0  0  0  0
  185.1350  177.0000  146.4100 C   0  0  0  0  0  3  0  0  0  0  0  0
  188.2330  173.6040  141.5650 C   0  0  2  0  0  3  0  0  0  0  0  0
  186.6650  179.1460  143.0180 C   0  0  0  0  0  2  0  0  0  0  0  0
  190.5190  176.2260  146.6280 O   0  0  0  0  0  0  0  0  0  0  0  0
  190.1490  176.7320  145.2620 S   0  0  0  0  0  0  0  0  0  0  0  0
  191.4510  175.8480  143.1370 C   0  0  0  0  0  0  0  0  0  0  0  0
  188.8190  175.7420  144.6180 C   0  0  2  0  0  3  0  0  0  0  0  0
  185.3680  177.5240  140.0020 O   0  0  0  0  0  0  0  0  0  0  0  0
  187.2710  175.5180  142.7640 C   0  0  2  0  0  3  0  0  0  0  0  0
  190.3040  175.1240  142.7900 O   0  0  0  0  0  0  0  0  0  0  0  0
  191.5020  176.5760  144.2060 N   0  0  0  0  0  0  0  0  0  0  0  0
  186.2000  177.8620  140.8830 C   0  0  0  0  0  0  0  0  0  0  0  0
  186.7270  177.1420  144.5740 C   0  0  0  0  0  0  0  0  0  0  0  0
  188.0960  174.7940  140.6950 C   0  0  0  0  0  0  0  0  0  0  0  0
  192.6230  175.8170  142.2250 C   0  0  0  0  0  1  0  0  0  0  0  0
  187.5700  177.2640  140.8650 C   0  0  0  0  0  2  0  0  0  0  0  0
  186.1780  176.4470  145.6650 C   0  0  0  0  0  3  0  0  0  0  0  0
  185.1390  178.9410  144.9690 C   0  0  0  0  0  3  0  0  0  0  0  0
  184.6170  178.2490  146.0630 C   0  0  0  0  0  3  0  0  0  0  0  0
  185.8260  178.8210  141.8730 N   0  0  0  0  0  2  0  0  0  0  0  0
  188.0500  174.2070  142.9770 C   0  0  2  0  0  3  0  0  0  0  0  0
  187.5450  175.9010  141.3820 N   0  0  0  0  0  0  0  0  0  0  0  0
  189.3280  174.6320  143.7210 C   0  0  2  0  0  3  0  0  0  0  0  0
  189.5300  172.8360  141.3490 C   0  0  0  0  0  1  0  0  0  0  0  0
  187.8360  176.5270  143.7610 C   0  0  1  0  0  3  0  0  0  0  0  0
  1 16  2  0  0  0  0
  1 21  1  0  0  0  0
  3 17  2  0  0  0  0
  5 27  1  1  0  0  0
  5 24  1  0  0  0  0
  6  1  1  0  0  0  0
  8  2  2  0  0  0  0
  8  7  2  0  0  0  0
  9 14  2  0  0  0  0
 10  8  1  6  0  0  0
 11 15  2  0  0  0  0
 12 25  1  6  0  0  0
 12 24  1  0  0  0  0
 12 28  1  0  0  0  0
 13  9  1  0  0  0  0
 13 26  1  0  0  0  0
 14  8  1  0  0  0  0
 15 23  1  0  0  0  0
 16 20  1  0  0  0  0
 17 25  1  0  0  0  0
 17  5  1  0  0  0  0
 18  9  1  0  0  0  0
 19 15  1  0  0  0  0
 19 25  1  0  0  0  0
 20  4  2  0  0  0  0
 21 22  2  0  0  0  0
 22  4  1  0  0  0  0
 23  6  1  0  0  0  0
 24 26  1  0  0  0  0
 26 10  1  0  0  0  0
 28 16  1  0  0  0  0
 28 10  1  0  0  0  0
M  END
>  <MODEL>
1

>  <REMARK>
 VINA RESULT:      -8.4      0.000      0.000
  Name = 
  0 active torsions:
  status: ('A' for Active; 'I' for Inactive)
                            x       y       z     vdW  Elec       q    Type
                         _______ _______ _______ _____ _____    ______ ____

>  <TORSDO>
F 0

$$$$
=
 OpenBabel11112417383D

 28 32  0  0  1  0  0  0  0  0999 V2000
  192.6460  174.4270  145.0100 C   0  0  0  0  0  0  0  0  0  0  0  0
  190.2410  175.6870  147.5670 O   0  0  0  0  0  0  0  0  0  0  0  0
  187.7580  175.5420  141.1290 O   0  0  0  0  0  0  0  0  0  0  0  0
  194.4680  176.5360  145.3120 C   0  0  0  0  0  3  0  0  0  0  0  0
  188.8090  177.5800  141.9240 C   0  0  2  0  0  3  0  0  0  0  0  0
  191.7300  173.2690  144.7820 C   0  0  0  0  0  2  0  0  0  0  0  0
  189.9620  178.1010  147.9350 O   0  0  0  0  0  0  0  0  0  0  0  0
  189.6290  176.9500  147.0280 S   0  0  0  0  0  0  0  0  0  0  0  0
  187.2870  176.8770  145.8030 C   0  0  0  0  0  0  0  0  0  0  0  0
  190.2520  177.2970  145.3980 C   0  0  2  0  0  3  0  0  0  0  0  0
  190.9800  173.0210  141.2060 O   0  0  0  0  0  0  0  0  0  0  0  0
  190.5360  176.3670  143.1760 C   0  0  2  0  0  3  0  0  0  0  0  0
  187.9530  177.1650  144.6060 O   0  0  0  0  0  0  0  0  0  0  0  0
  187.9180  176.7730  146.9290 N   0  0  0  0  0  0  0  0  0  0  0  0
  190.7990  173.2780  142.4250 C   0  0  0  0  0  0  0  0  0  0  0  0
  192.1910  175.7600  144.9370 C   0  0  0  0  0  0  0  0  0  0  0  0
  188.6460  176.1130  141.8160 C   0  0  0  0  0  0  0  0  0  0  0  0
  185.8210  176.6360  145.7690 C   0  0  0  0  0  1  0  0  0  0  0  0
  189.5530  173.9860  142.8470 C   0  0  0  0  0  2  0  0  0  0  0  0
  193.1190  176.8070  145.0760 C   0  0  0  0  0  3  0  0  0  0  0  0
  194.0020  174.1660  145.2420 C   0  0  0  0  0  3  0  0  0  0  0  0
  194.9090  175.2140  145.3980 C   0  0  0  0  0  3  0  0  0  0  0  0
  191.7800  172.8740  143.3820 N   0  0  0  0  0  2  0  0  0  0  0  0
  189.7970  177.7150  143.1050 C   0  0  2  0  0  3  0  0  0  0  0  0
  189.6380  175.4080  142.5390 N   0  0  0  0  0  0  0  0  0  0  0  0
  189.1840  177.8960  144.5050 C   0  0  2  0  0  3  0  0  0  0  0  0
  187.4930  178.3300  142.0870 C   0  0  0  0  0  1  0  0  0  0  0  0
  190.7430  176.0610  144.6580 C   0  0  1  0  0  3  0  0  0  0  0  0
  1 21  1  0  0  0  0
  3 17  2  0  0  0  0
  4 22  1  0  0  0  0
  5 27  1  1  0  0  0
  5 24  1  0  0  0  0
  6  1  1  0  0  0  0
  8  2  2  0  0  0  0
  8  7  2  0  0  0  0
  9 14  2  0  0  0  0
 10  8  1  1  0  0  0
 11 15  2  0  0  0  0
 12 25  1  1  0  0  0
 12 28  1  0  0  0  0
 13  9  1  0  0  0  0
 14  8  1  0  0  0  0
 15 19  1  0  0  0  0
 15 23  1  0  0  0  0
 16  1  2  0  0  0  0
 16 20  1  0  0  0  0
 17  5  1  0  0  0  0
 17 25  1  0  0  0  0
 18  9  1  0  0  0  0
 20  4  2  0  0  0  0
 21 22  2  0  0  0  0
 23  6  1  0  0  0  0
 24 12  1  0  0  0  0
 24 26  1  0  0  0  0
 25 19  1  0  0  0  0
 26 13  1  0  0  0  0
 26 10  1  0  0  0  0
 28 16  1  0  0  0  0
 28 10  1  0  0  0  0
M  END
>  <MODEL>
2

>  <REMARK>
 VINA RESULT:      -8.2      2.460      5.832
  Name = 
  0 active torsions:
  status: ('A' for Active; 'I' for Inactive)
                            x       y       z     vdW  Elec       q    Type
                         _______ _______ _______ _____ _____    ______ ____

>  <TORSDO>
F 0

$$$$
=
 OpenBabel11112417383D

 28 32  0  0  1  0  0  0  0  0999 V2000
  185.6890  177.1480  143.8120 C   0  0  0  0  0  0  0  0  0  0  0  0
  187.0660  174.0270  142.3040 O   0  0  0  0  0  0  0  0  0  0  0  0
  191.0010  176.7910  147.2560 O   0  0  0  0  0  0  0  0  0  0  0  0
  185.8600  178.6660  141.4610 C   0  0  0  0  0  3  0  0  0  0  0  0
  191.4180  177.4250  144.9510 C   0  0  2  0  0  3  0  0  0  0  0  0
  185.5660  176.4160  145.1090 C   0  0  0  0  0  2  0  0  0  0  0  0
  188.7360  174.1440  140.5040 O   0  0  0  0  0  0  0  0  0  0  0  0
  188.5130  174.2820  141.9840 S   0  0  0  0  0  0  0  0  0  0  0  0
  190.4020  173.5270  143.6720 C   0  0  0  0  0  0  0  0  0  0  0  0
  188.9850  175.9200  142.4910 C   0  0  2  0  0  3  0  0  0  0  0  0
  187.2430  178.3380  147.7350 O   0  0  0  0  0  0  0  0  0  0  0  0
  189.0320  177.4430  144.3770 C   0  0  2  0  0  3  0  0  0  0  0  0
  190.6410  174.8790  143.9420 O   0  0  0  0  0  0  0  0  0  0  0  0
  189.5040  173.1470  142.8210 N   0  0  0  0  0  0  0  0  0  0  0  0
  187.0620  177.4270  146.8870 C   0  0  0  0  0  0  0  0  0  0  0  0
  186.9060  177.2000  143.1000 C   0  0  0  0  0  0  0  0  0  0  0  0
  190.5670  177.0480  146.1020 C   0  0  0  0  0  0  0  0  0  0  0  0
  191.1700  172.4990  144.4220 C   0  0  0  0  0  1  0  0  0  0  0  0
  188.1600  176.4510  146.6130 C   0  0  0  0  0  2  0  0  0  0  0  0
  186.9810  177.9770  141.9310 C   0  0  0  0  0  3  0  0  0  0  0  0
  184.5730  177.8470  143.3360 C   0  0  0  0  0  3  0  0  0  0  0  0
  184.6560  178.5980  142.1620 C   0  0  0  0  0  3  0  0  0  0  0  0
  185.8060  177.3330  146.2140 N   0  0  0  0  0  2  0  0  0  0  0  0
  190.4360  177.3050  143.7630 C   0  0  2  0  0  3  0  0  0  0  0  0
  189.1900  177.0540  145.7750 N   0  0  0  0  0  0  0  0  0  0  0  0
  190.4040  175.9560  143.0230 C   0  0  2  0  0  3  0  0  0  0  0  0
  192.6880  176.5920  144.8320 C   0  0  0  0  0  1  0  0  0  0  0  0
  188.1250  176.4810  143.6140 C   0  0  1  0  0  3  0  0  0  0  0  0
  1  6  1  0  0  0  0
  4 20  2  0  0  0  0
  4 22  1  0  0  0  0
  5 27  1  6  0  0  0
  5 17  1  0  0  0  0
  6 23  1  0  0  0  0
  7  8  2  0  0  0  0
  8  2  2  0  0  0  0
  8 14  1  0  0  0  0
  9 13  1  0  0  0  0
  9 18  1  0  0  0  0
 10  8  1  1  0  0  0
 10 26  1  0  0  0  0
 10 28  1  0  0  0  0
 12 25  1  1  0  0  0
 14  9  2  0  0  0  0
 15 11  2  0  0  0  0
 16 28  1  0  0  0  0
 16  1  2  0  0  0  0
 17  3  2  0  0  0  0
 19 15  1  0  0  0  0
 20 16  1  0  0  0  0
 21  1  1  0  0  0  0
 22 21  2  0  0  0  0
 23 15  1  0  0  0  0
 24 12  1  0  0  0  0
 24  5  1  0  0  0  0
 25 17  1  0  0  0  0
 25 19  1  0  0  0  0
 26 24  1  0  0  0  0
 26 13  1  0  0  0  0
 28 12  1  0  0  0  0
M  END
>  <MODEL>
3

>  <REMARK>
 VINA RESULT:      -7.9      2.327      4.707
  Name = 
  0 active torsions:
  status: ('A' for Active; 'I' for Inactive)
                            x       y       z     vdW  Elec       q    Type
                         _______ _______ _______ _____ _____    ______ ____

>  <TORSDO>
F 0

$$$$
=
 OpenBabel11112417383D

 28 32  0  0  1  0  0  0  0  0999 V2000
  187.3720  177.2010  144.4020 C   0  0  0  0  0  0  0  0  0  0  0  0
  188.1660  173.9430  142.7710 O   0  0  0  0  0  0  0  0  0  0  0  0
  193.1460  176.3700  146.8880 O   0  0  0  0  0  0  0  0  0  0  0  0
  187.2720  178.6660  142.0130 C   0  0  0  0  0  3  0  0  0  0  0  0
  193.2120  176.9320  144.5270 C   0  0  2  0  0  3  0  0  0  0  0  0
  187.4090  176.5010  145.7210 C   0  0  0  0  0  2  0  0  0  0  0  0
  189.5000  173.8730  140.7070 O   0  0  0  0  0  0  0  0  0  0  0  0
  189.5520  174.0500  142.1990 S   0  0  0  0  0  0  0  0  0  0  0  0
  191.6270  173.1360  143.5580 C   0  0  0  0  0  0  0  0  0  0  0  0
  190.2570  175.6410  142.5690 C   0  0  2  0  0  3  0  0  0  0  0  0
  189.6910  178.2830  147.9620 O   0  0  0  0  0  0  0  0  0  0  0  0
  190.7750  177.1760  144.3740 C   0  0  2  0  0  3  0  0  0  0  0  0
  192.0360  174.4620  143.7430 O   0  0  0  0  0  0  0  0  0  0  0  0
  190.5630  172.8350  142.8860 N   0  0  0  0  0  0  0  0  0  0  0  0
  189.2800  177.3830  147.1850 C   0  0  0  0  0  0  0  0  0  0  0  0
  188.4450  177.1260  143.4900 C   0  0  0  0  0  0  0  0  0  0  0  0
  192.5430  176.6540  145.8180 C   0  0  0  0  0  0  0  0  0  0  0  0
  192.4140  172.0480  144.1930 C   0  0  0  0  0  1  0  0  0  0  0  0
  190.2170  176.3020  146.7540 C   0  0  0  0  0  2  0  0  0  0  0  0
  188.3880  177.8770  142.3030 C   0  0  0  0  0  3  0  0  0  0  0  0
  186.2610  178.0000  144.1050 C   0  0  0  0  0  3  0  0  0  0  0  0
  186.2070  178.7240  142.9130 C   0  0  0  0  0  3  0  0  0  0  0  0
  187.9220  177.4030  146.7410 N   0  0  0  0  0  2  0  0  0  0  0  0
  192.0310  176.8940  143.5300 C   0  0  2  0  0  3  0  0  0  0  0  0
  191.1370  176.7910  145.7340 N   0  0  0  0  0  0  0  0  0  0  0  0
  191.7440  175.5450  142.8470 C   0  0  2  0  0  3  0  0  0  0  0  0
  194.3570  175.9770  144.2160 C   0  0  0  0  0  1  0  0  0  0  0  0
  189.6620  176.2970  143.8060 C   0  0  1  0  0  3  0  0  0  0  0  0
  1  6  1  0  0  0  0
  4 20  2  0  0  0  0
  4 22  1  0  0  0  0
  5 27  1  6  0  0  0
  5 17  1  0  0  0  0
  6 23  1  0  0  0  0
  7  8  2  0  0  0  0
  8  2  2  0  0  0  0
  8 14  1  0  0  0  0
  9 13  1  0  0  0  0
  9 18  1  0  0  0  0
 10  8  1  1  0  0  0
 10 26  1  0  0  0  0
 10 28  1  0  0  0  0
 12 25  1  1  0  0  0
 14  9  2  0  0  0  0
 15 11  2  0  0  0  0
 16 28  1  0  0  0  0
 16  1  2  0  0  0  0
 17  3  2  0  0  0  0
 19 15  1  0  0  0  0
 20 16  1  0  0  0  0
 21  1  1  0  0  0  0
 22 21  2  0  0  0  0
 23 15  1  0  0  0  0
 24 12  1  0  0  0  0
 24  5  1  0  0  0  0
 25 17  1  0  0  0  0
 25 19  1  0  0  0  0
 26 24  1  0  0  0  0
 26 13  1  0  0  0  0
 28 12  1  0  0  0  0
M  END
>  <MODEL>
4

>  <REMARK>
 VINA RESULT:      -7.7      2.607      5.091
  Name = 
  0 active torsions:
  status: ('A' for Active; 'I' for Inactive)
                            x       y       z     vdW  Elec       q    Type
                         _______ _______ _______ _____ _____    ______ ____

>  <TORSDO>
F 0

$$$$
=
 OpenBabel11112417383D

 28 32  0  0  1  0  0  0  0  0999 V2000
  188.6160  176.2400  145.1940 C   0  0  0  0  0  0  0  0  0  0  0  0
  189.3080  173.2340  143.0970 O   0  0  0  0  0  0  0  0  0  0  0  0
  194.7910  175.6650  146.5130 O   0  0  0  0  0  0  0  0  0  0  0  0
  187.9810  177.9160  143.0370 C   0  0  0  0  0  3  0  0  0  0  0  0
  194.3830  176.4570  144.2550 C   0  0  2  0  0  3  0  0  0  0  0  0
  188.9420  175.4200  146.3990 C   0  0  0  0  0  2  0  0  0  0  0  0
  190.2400  173.4790  140.8350 O   0  0  0  0  0  0  0  0  0  0  0  0
  190.5550  173.5150  142.3040 S   0  0  0  0  0  0  0  0  0  0  0  0
  192.9010  172.6520  143.1660 C   0  0  0  0  0  0  0  0  0  0  0  0
  191.2100  175.1160  142.7180 C   0  0  2  0  0  3  0  0  0  0  0  0
  191.4760  177.1640  148.3860 O   0  0  0  0  0  0  0  0  0  0  0  0
  191.9490  176.5070  144.5630 C   0  0  2  0  0  3  0  0  0  0  0  0
  193.2480  173.9840  143.4220 O   0  0  0  0  0  0  0  0  0  0  0  0
  191.7530  172.3290  142.6630 N   0  0  0  0  0  0  0  0  0  0  0  0
  190.9880  176.3120  147.5980 C   0  0  0  0  0  0  0  0  0  0  0  0
  189.5050  176.3450  144.1040 C   0  0  0  0  0  0  0  0  0  0  0  0
  193.9840  175.9990  145.6050 C   0  0  0  0  0  0  0  0  0  0  0  0
  193.8620  171.5780  143.5280 C   0  0  0  0  0  1  0  0  0  0  0  0
  191.8990  175.3610  146.8920 C   0  0  0  0  0  2  0  0  0  0  0  0
  189.1800  177.2000  143.0360 C   0  0  0  0  0  3  0  0  0  0  0  0
  187.4190  176.9660  145.1880 C   0  0  0  0  0  3  0  0  0  0  0  0
  187.0990  177.7960  144.1120 C   0  0  0  0  0  3  0  0  0  0  0  0
  189.5740  176.2600  147.4070 N   0  0  0  0  0  2  0  0  0  0  0  0
  193.0440  176.4150  143.4850 C   0  0  2  0  0  3  0  0  0  0  0  0
  192.5800  176.0230  145.7870 N   0  0  0  0  0  0  0  0  0  0  0  0
  192.7250  175.1200  142.7170 C   0  0  2  0  0  3  0  0  0  0  0  0
  195.5120  175.6380  143.6430 C   0  0  0  0  0  1  0  0  0  0  0  0
  190.8110  175.5960  144.1060 C   0  0  1  0  0  3  0  0  0  0  0  0
  1  6  1  0  0  0  0
  4 22  1  0  0  0  0
  5 27  1  6  0  0  0
  5 17  1  0  0  0  0
  6 23  1  0  0  0  0
  7  8  2  0  0  0  0
  8 14  1  0  0  0  0
  8  2  2  0  0  0  0
  9 13  1  0  0  0  0
  9 18  1  0  0  0  0
 10  8  1  1  0  0  0
 10 28  1  0  0  0  0
 12 25  1  1  0  0  0
 14  9  2  0  0  0  0
 15 11  2  0  0  0  0
 16 28  1  0  0  0  0
 16  1  2  0  0  0  0
 17 25  1  0  0  0  0
 17  3  2  0  0  0  0
 19 15  1  0  0  0  0
 20  4  2  0  0  0  0
 20 16  1  0  0  0  0
 21  1  1  0  0  0  0
 22 21  2  0  0  0  0
 23 15  1  0  0  0  0
 24  5  1  0  0  0  0
 24 12  1  0  0  0  0
 25 19  1  0  0  0  0
 26 10  1  0  0  0  0
 26 13  1  0  0  0  0
 26 24  1  0  0  0  0
 28 12  1  0  0  0  0
M  END
>  <MODEL>
5

>  <REMARK>
 VINA RESULT:      -7.5      3.145      5.782
  Name = 
  0 active torsions:
  status: ('A' for Active; 'I' for Inactive)
                            x       y       z     vdW  Elec       q    Type
                         _______ _______ _______ _____ _____    ______ ____

>  <TORSDO>
F 0

$$$$
=
 OpenBabel11112417383D

 28 32  0  0  1  0  0  0  0  0999 V2000
  188.9860  175.4660  146.2920 C   0  0  0  0  0  0  0  0  0  0  0  0
  189.0610  172.2850  144.3470 O   0  0  0  0  0  0  0  0  0  0  0  0
  195.0240  175.7620  144.3770 O   0  0  0  0  0  0  0  0  0  0  0  0
  187.1170  176.7370  144.6330 C   0  0  0  0  0  3  0  0  0  0  0  0
  193.4470  176.1730  142.5780 C   0  0  2  0  0  3  0  0  0  0  0  0
  189.9870  174.8670  147.2260 C   0  0  0  0  0  2  0  0  0  0  0  0
  188.7230  172.3040  141.9120 O   0  0  0  0  0  0  0  0  0  0  0  0
  189.7000  172.5830  143.0190 S   0  0  0  0  0  0  0  0  0  0  0  0
  192.2750  172.1140  142.6470 C   0  0  0  0  0  0  0  0  0  0  0  0
  190.1980  174.2890  142.9360 C   0  0  2  0  0  3  0  0  0  0  0  0
  192.8380  177.1430  147.5490 O   0  0  0  0  0  0  0  0  0  0  0  0
  191.4970  176.0010  144.0590 C   0  0  2  0  0  3  0  0  0  0  0  0
  192.4770  173.4980  142.6000 O   0  0  0  0  0  0  0  0  0  0  0  0
  191.0990  171.5980  142.8110 N   0  0  0  0  0  0  0  0  0  0  0  0
  192.1780  176.1390  147.1730 C   0  0  0  0  0  0  0  0  0  0  0  0
  189.2030  175.5100  144.8990 C   0  0  0  0  0  0  0  0  0  0  0  0
  193.8350  175.8730  143.9750 C   0  0  0  0  0  0  0  0  0  0  0  0
  193.4540  171.2130  142.5520 C   0  0  0  0  0  1  0  0  0  0  0  0
  192.7750  175.2020  146.1740 C   0  0  0  0  0  2  0  0  0  0  0  0
  188.2650  176.1640  144.0810 C   0  0  0  0  0  3  0  0  0  0  0  0
  187.8350  176.0490  146.8360 C   0  0  0  0  0  3  0  0  0  0  0  0
  186.9010  176.6770  146.0110 C   0  0  0  0  0  3  0  0  0  0  0  0
  190.8790  175.9060  147.7200 N   0  0  0  0  0  2  0  0  0  0  0  0
  191.9290  175.8770  142.5870 C   0  0  2  0  0  3  0  0  0  0  0  0
  192.7140  175.7700  144.8320 N   0  0  0  0  0  0  0  0  0  0  0  0
  191.4980  174.4580  142.1750 C   0  0  2  0  0  3  0  0  0  0  0  0
  194.2550  175.4030  141.5410 C   0  0  0  0  0  1  0  0  0  0  0  0
  190.4500  174.9160  144.2990 C   0  0  1  0  0  3  0  0  0  0  0  0
  1 21  1  0  0  0  0
  1  6  1  0  0  0  0
  4 22  1  0  0  0  0
  5 27  1  6  0  0  0
  5 24  1  0  0  0  0
  5 17  1  0  0  0  0
  6 23  1  0  0  0  0
  7  8  2  0  0  0  0
  8  2  2  0  0  0  0
  9 14  2  0  0  0  0
 10  8  1  1  0  0  0
 10 28  1  0  0  0  0
 12 28  1  0  0  0  0
 12 25  1  1  0  0  0
 13  9  1  0  0  0  0
 14  8  1  0  0  0  0
 15 11  2  0  0  0  0
 15 23  1  0  0  0  0
 16  1  2  0  0  0  0
 17  3  2  0  0  0  0
 17 25  1  0  0  0  0
 18  9  1  0  0  0  0
 19 15  1  0  0  0  0
 20  4  2  0  0  0  0
 20 16  1  0  0  0  0
 22 21  2  0  0  0  0
 24 12  1  0  0  0  0
 25 19  1  0  0  0  0
 26 24  1  0  0  0  0
 26 13  1  0  0  0  0
 26 10  1  0  0  0  0
 28 16  1  0  0  0  0
M  END
>  <MODEL>
6

>  <REMARK>
 VINA RESULT:      -7.3      3.283      5.621
  Name = 
  0 active torsions:
  status: ('A' for Active; 'I' for Inactive)
                            x       y       z     vdW  Elec       q    Type
                         _______ _______ _______ _____ _____    ______ ____

>  <TORSDO>
F 0

$$$$
=
 OpenBabel11112417383D

 28 32  0  0  1  0  0  0  0  0999 V2000
  189.0820  176.4920  145.2330 C   0  0  0  0  0  0  0  0  0  0  0  0
  192.6810  176.0260  144.3740 O   0  0  0  0  0  0  0  0  0  0  0  0
  188.2920  174.3320  139.3240 O   0  0  0  0  0  0  0  0  0  0  0  0
  189.0480  174.5500  147.2560 C   0  0  0  0  0  3  0  0  0  0  0  0
  189.0120  172.6020  140.8670 C   0  0  2  0  0  3  0  0  0  0  0  0
  189.0090  177.5390  144.1700 C   0  0  0  0  0  2  0  0  0  0  0  0
  193.7410  173.8180  144.5940 O   0  0  0  0  0  0  0  0  0  0  0  0
  192.8250  174.6630  143.7550 S   0  0  0  0  0  0  0  0  0  0  0  0
  192.8310  174.3920  141.1250 C   0  0  0  0  0  0  0  0  0  0  0  0
  191.2410  173.8620  143.6390 C   0  0  2  0  0  3  0  0  0  0  0  0
  186.2410  176.7570  141.9050 O   0  0  0  0  0  0  0  0  0  0  0  0
  188.9800  174.1160  142.7990 C   0  0  2  0  0  3  0  0  0  0  0  0
  191.5820  173.7710  141.2290 O   0  0  0  0  0  0  0  0  0  0  0  0
  193.4760  174.8110  142.1660 N   0  0  0  0  0  0  0  0  0  0  0  0
  187.4270  176.8600  142.3100 C   0  0  0  0  0  0  0  0  0  0  0  0
  189.5690  175.1950  144.9660 C   0  0  0  0  0  0  0  0  0  0  0  0
  188.6180  173.9780  140.4890 C   0  0  0  0  0  0  0  0  0  0  0  0
  193.4100  174.6190  139.7750 C   0  0  0  0  0  1  0  0  0  0  0  0
  188.5380  176.3070  141.4770 C   0  0  0  0  0  2  0  0  0  0  0  0
  189.5320  174.2280  145.9860 C   0  0  0  0  0  3  0  0  0  0  0  0
  188.5930  176.8030  146.5080 C   0  0  0  0  0  3  0  0  0  0  0  0
  188.5820  175.8390  147.5170 C   0  0  0  0  0  3  0  0  0  0  0  0
  187.6920  177.5170  143.5510 N   0  0  0  0  0  2  0  0  0  0  0  0
  189.6020  172.8070  142.2820 C   0  0  2  0  0  3  0  0  0  0  0  0
  188.6010  174.8560  141.5990 N   0  0  0  0  0  0  0  0  0  0  0  0
  191.1210  173.0360  142.3730 C   0  0  2  0  0  3  0  0  0  0  0  0
  189.9440  171.9360  139.8640 C   0  0  0  0  0  1  0  0  0  0  0  0
  190.0690  174.8320  143.5930 C   0  0  1  0  0  3  0  0  0  0  0  0
  1 21  1  0  0  0  0
  3 17  2  0  0  0  0
  4 22  1  0  0  0  0
  5 27  1  6  0  0  0
  5 24  1  0  0  0  0
  6  1  1  0  0  0  0
  8  2  2  0  0  0  0
  8  7  2  0  0  0  0
  9 13  1  0  0  0  0
  9 14  2  0  0  0  0
 10  8  1  6  0  0  0
 11 15  2  0  0  0  0
 12 25  1  6  0  0  0
 12 28  1  0  0  0  0
 13 26  1  0  0  0  0
 14  8  1  0  0  0  0
 15 23  1  0  0  0  0
 16  1  2  0  0  0  0
 16 20  1  0  0  0  0
 17  5  1  0  0  0  0
 17 25  1  0  0  0  0
 18  9  1  0  0  0  0
 19 25  1  0  0  0  0
 19 15  1  0  0  0  0
 20  4  2  0  0  0  0
 21 22  2  0  0  0  0
 23  6  1  0  0  0  0
 24 26  1  0  0  0  0
 24 12  1  0  0  0  0
 26 10  1  0  0  0  0
 28 10  1  0  0  0  0
 28 16  1  0  0  0  0
M  END
>  <MODEL>
7

>  <REMARK>
 VINA RESULT:      -7.2      2.436      3.052
  Name = 
  0 active torsions:
  status: ('A' for Active; 'I' for Inactive)
                            x       y       z     vdW  Elec       q    Type
                         _______ _______ _______ _____ _____    ______ ____

>  <TORSDO>
F 0

$$$$
=
 OpenBabel11112417383D

 28 32  0  0  1  0  0  0  0  0999 V2000
  188.5040  176.4010  144.0990 C   0  0  0  0  0  0  0  0  0  0  0  0
  192.0140  177.5420  144.6380 O   0  0  0  0  0  0  0  0  0  0  0  0
  191.4380  171.5640  141.2340 O   0  0  0  0  0  0  0  0  0  0  0  0
  187.9320  176.0410  146.8200 C   0  0  0  0  0  3  0  0  0  0  0  0
  191.6760  171.5090  143.6490 C   0  0  2  0  0  3  0  0  0  0  0  0
  188.7240  176.5620  142.6300 C   0  0  0  0  0  2  0  0  0  0  0  0
  193.3300  176.6780  146.5260 O   0  0  0  0  0  0  0  0  0  0  0  0
  192.7950  176.3670  145.1560 S   0  0  0  0  0  0  0  0  0  0  0  0
  194.2200  174.8800  143.4980 C   0  0  0  0  0  0  0  0  0  0  0  0
  191.7600  174.9230  145.2530 C   0  0  2  0  0  3  0  0  0  0  0  0
  187.8160  173.4460  140.9340 O   0  0  0  0  0  0  0  0  0  0  0  0
  190.2730  173.4970  143.9730 C   0  0  2  0  0  3  0  0  0  0  0  0
  193.3000  173.8450  143.7040 O   0  0  0  0  0  0  0  0  0  0  0  0
  194.1080  176.0240  144.0930 N   0  0  0  0  0  0  0  0  0  0  0  0
  188.5550  174.3410  141.4210 C   0  0  0  0  0  0  0  0  0  0  0  0
  189.3700  175.6270  144.8990 C   0  0  0  0  0  0  0  0  0  0  0  0
  191.1980  172.0680  142.3640 C   0  0  0  0  0  0  0  0  0  0  0  0
  195.3290  174.6720  142.5310 C   0  0  0  0  0  1  0  0  0  0  0  0
  190.0330  174.1280  141.4660 C   0  0  0  0  0  2  0  0  0  0  0  0
  189.0620  175.4430  146.2590 C   0  0  0  0  0  3  0  0  0  0  0  0
  187.3700  176.9910  144.6700 C   0  0  0  0  0  3  0  0  0  0  0  0
  187.0870  176.8180  146.0250 C   0  0  0  0  0  3  0  0  0  0  0  0
  187.9670  175.5490  141.9080 N   0  0  0  0  0  2  0  0  0  0  0  0
  191.3810  172.6610  144.6380 C   0  0  2  0  0  3  0  0  0  0  0  0
  190.3910  173.2160  142.5460 N   0  0  0  0  0  0  0  0  0  0  0  0
  192.5210  173.6620  144.8960 C   0  0  2  0  0  3  0  0  0  0  0  0
  193.1240  171.0400  143.6100 C   0  0  0  0  0  1  0  0  0  0  0  0
  190.5770  174.9580  144.2970 C   0  0  1  0  0  3  0  0  0  0  0  0
  1 21  2  0  0  0  0
  1 16  1  0  0  0  0
  2  8  2  0  0  0  0
  3 17  2  0  0  0  0
  5 27  1  6  0  0  0
  5 24  1  0  0  0  0
  6  1  1  0  0  0  0
  8  7  2  0  0  0  0
  9 13  1  0  0  0  0
  9 14  2  0  0  0  0
 10  8  1  6  0  0  0
 11 15  2  0  0  0  0
 12 25  1  6  0  0  0
 12 28  1  0  0  0  0
 12 24  1  0  0  0  0
 13 26  1  0  0  0  0
 14  8  1  0  0  0  0
 15 19  1  0  0  0  0
 15 23  1  0  0  0  0
 16 20  2  0  0  0  0
 17 25  1  0  0  0  0
 17  5  1  0  0  0  0
 18  9  1  0  0  0  0
 19 25  1  0  0  0  0
 20  4  1  0  0  0  0
 21 22  1  0  0  0  0
 22  4  2  0  0  0  0
 23  6  1  0  0  0  0
 24 26  1  0  0  0  0
 26 10  1  0  0  0  0
 28 16  1  0  0  0  0
 28 10  1  0  0  0  0
M  END
>  <MODEL>
8

>  <REMARK>
 VINA RESULT:      -7.2      2.463      3.589
  Name = 
  0 active torsions:
  status: ('A' for Active; 'I' for Inactive)
                            x       y       z     vdW  Elec       q    Type
                         _______ _______ _______ _____ _____    ______ ____

>  <TORSDO>
F 0

$$$$
=
 OpenBabel11112417383D

 28 32  0  0  1  0  0  0  0  0999 V2000
  190.0850  175.2340  144.5060 C   0  0  0  0  0  0  0  0  0  0  0  0
  193.0880  177.4390  144.6660 O   0  0  0  0  0  0  0  0  0  0  0  0
  194.3560  171.0350  142.4240 O   0  0  0  0  0  0  0  0  0  0  0  0
  189.6220  175.2320  147.2710 C   0  0  0  0  0  3  0  0  0  0  0  0
  194.5770  171.5020  144.7950 C   0  0  2  0  0  3  0  0  0  0  0  0
  190.2590  175.1760  143.0240 C   0  0  0  0  0  2  0  0  0  0  0  0
  194.5850  177.3690  146.6140 O   0  0  0  0  0  0  0  0  0  0  0  0
  194.1810  176.6650  145.3500 S   0  0  0  0  0  0  0  0  0  0  0  0
  195.9990  175.3840  143.9210 C   0  0  0  0  0  0  0  0  0  0  0  0
  193.6230  175.0240  145.7530 C   0  0  2  0  0  3  0  0  0  0  0  0
  190.3400  171.6730  141.9610 O   0  0  0  0  0  0  0  0  0  0  0  0
  192.6420  173.0110  144.8220 C   0  0  2  0  0  3  0  0  0  0  0  0
  195.4290  174.1810  144.3520 O   0  0  0  0  0  0  0  0  0  0  0  0
  195.5450  176.5340  144.3050 N   0  0  0  0  0  0  0  0  0  0  0  0
  190.7730  172.8210  142.2440 C   0  0  0  0  0  0  0  0  0  0  0  0
  191.1350  174.9120  145.3910 C   0  0  0  0  0  0  0  0  0  0  0  0
  193.9660  171.6460  143.4550 C   0  0  0  0  0  0  0  0  0  0  0  0
  197.1290  175.3370  142.9560 C   0  0  0  0  0  1  0  0  0  0  0  0
  192.2470  173.0660  142.2560 C   0  0  0  0  0  2  0  0  0  0  0  0
  190.8840  174.9010  146.7750 C   0  0  0  0  0  3  0  0  0  0  0  0
  188.8210  175.5580  145.0150 C   0  0  0  0  0  3  0  0  0  0  0  0
  188.5910  175.5640  146.3910 C   0  0  0  0  0  3  0  0  0  0  0  0
  189.8470  173.8700  142.5320 N   0  0  0  0  0  2  0  0  0  0  0  0
  193.9430  172.6780  145.5730 C   0  0  2  0  0  3  0  0  0  0  0  0
  192.8510  172.5180  143.4640 N   0  0  0  0  0  0  0  0  0  0  0  0
  194.7300  174.0010  145.5930 C   0  0  2  0  0  3  0  0  0  0  0  0
  196.1000  171.4820  144.7730 C   0  0  0  0  0  1  0  0  0  0  0  0
  192.4920  174.5300  144.8630 C   0  0  1  0  0  3  0  0  0  0  0  0
  1 21  2  0  0  0  0
  1 16  1  0  0  0  0
  2  8  2  0  0  0  0
  3 17  2  0  0  0  0
  5 27  1  6  0  0  0
  5 24  1  0  0  0  0
  6  1  1  0  0  0  0
  8  7  2  0  0  0  0
  9 14  2  0  0  0  0
  9 13  1  0  0  0  0
 10  8  1  6  0  0  0
 11 15  2  0  0  0  0
 12 25  1  6  0  0  0
 12 28  1  0  0  0  0
 12 24  1  0  0  0  0
 13 26  1  0  0  0  0
 14  8  1  0  0  0  0
 15 19  1  0  0  0  0
 15 23  1  0  0  0  0
 16 20  2  0  0  0  0
 17 25  1  0  0  0  0
 17  5  1  0  0  0  0
 18  9  1  0  0  0  0
 19 25  1  0  0  0  0
 20  4  1  0  0  0  0
 21 22  1  0  0  0  0
 22  4  2  0  0  0  0
 23  6  1  0  0  0  0
 24 26  1  0  0  0  0
 26 10  1  0  0  0  0
 28 16  1  0  0  0  0
 28 10  1  0  0  0  0
M  END
>  <MODEL>
9

>  <REMARK>
 VINA RESULT:      -7.1      3.806      5.793
  Name = 
  0 active torsions:
  status: ('A' for Active; 'I' for Inactive)
                            x       y       z     vdW  Elec       q    Type
                         _______ _______ _______ _____ _____    ______ ____

>  <TORSDO>
F 0

$$$$
