=
 OpenBabel11112416333D

 32 38  0  0  1  0  0  0  0  0999 V2000
  192.2210  174.9810  144.1760 C   0  0  1  0  0  3  0  0  0  0  0  0
  187.4680  177.1810  143.4990 C   0  0  1  0  0  3  0  0  0  0  0  0
  186.0840  177.8890  148.0220 C   0  0  0  0  0  3  0  0  0  0  0  0
  184.8060  178.4850  147.5890 C   0  0  0  0  0  3  0  0  0  0  0  0
  185.8430  177.4730  141.6780 C   0  0  0  0  0  0  0  0  0  0  0  0
  184.5390  177.7990  141.3420 C   0  0  0  0  0  0  0  0  0  0  0  0
  189.8490  176.4780  143.0690 C   0  0  1  0  0  3  0  0  0  0  0  0
  189.1890  177.0860  145.3690 C   0  0  0  0  0  2  0  0  0  0  0  0
  182.4450  178.4610  141.5570 C   0  0  0  0  0  0  0  0  0  0  0  0
  191.3200  175.7990  145.0990 C   0  0  2  0  0  3  0  0  0  0  0  0
  187.0500  177.6890  147.1720 N   0  0  0  0  0  0  0  0  0  0  0  0
  187.8160  177.3180  144.9030 N   0  0  1  0  0  0  0  0  0  0  0  0
  186.9860  178.1460  145.7770 C   0  0  1  0  0  3  0  0  0  0  0  0
  185.2610  178.0810  143.9960 C   0  0  0  0  0  0  0  0  0  0  0  0
  182.6960  178.1600  140.1840 N   0  0  0  0  0  0  0  0  0  0  0  0
  191.5380  174.5560  142.8580 C   0  0  0  0  0  2  0  0  0  0  0  0
  189.9060  176.0400  144.5340 C   0  0  2  0  0  3  0  0  0  0  0  0
  183.9100  177.7760  140.0580 N   0  0  0  0  0  0  0  0  0  0  0  0
  190.7390  175.6490  142.1380 C   0  0  0  0  0  2  0  0  0  0  0  0
  192.4340  176.4820  144.3140 C   0  0  1  0  0  3  0  0  0  0  0  0
  184.5500  178.6420  146.2900 C   0  0  0  0  0  3  0  0  0  0  0  0
  185.5660  178.2450  145.2930 C   0  0  2  0  0  3  0  0  0  0  0  0
  183.9870  178.3690  143.5810 N   0  0  0  0  0  0  0  0  0  0  0  0
  188.4100  176.4190  142.5950 C   0  0  0  0  0  2  0  0  0  0  0  0
  186.7080  177.0710  140.6650 O   0  0  0  0  0  1  0  0  0  0  0  0
  181.3480  178.8690  142.0200 O   0  0  0  0  0  0  0  0  0  0  0  0
  186.2380  177.5800  143.0550 C   0  0  0  0  0  0  0  0  0  0  0  0
  183.6610  178.2140  142.2820 C   0  0  0  0  0  0  0  0  0  0  0  0
  193.5600  176.7290  145.1990 N   0  0  0  0  0  2  0  0  0  0  0  0
  194.5950  175.7670  144.8610 C   0  0  0  0  0  3  0  0  0  0  0  0
  195.2340  175.2490  146.1320 C   0  0  0  0  0  1  0  0  0  0  0  0
  195.6550  176.4320  144.0050 C   0  0  0  0  0  1  0  0  0  0  0  0
  1 16  1  6  0  0  0
  1 20  1  0  0  0  0
  1 10  1  0  0  0  0
  2 24  1  1  0  0  0
  2 12  1  0  0  0  0
  4  3  1  0  0  0  0
  5 27  1  0  0  0  0
  6  5  2  0  0  0  0
  6 28  1  0  0  0  0
  7 19  1  6  0  0  0
  7 17  1  0  0  0  0
  9 26  2  0  0  0  0
  9 28  1  0  0  0  0
 11  3  2  0  0  0  0
 12  8  1  0  0  0  0
 12 13  1  0  0  0  0
 13 11  1  0  0  0  0
 14 22  1  0  0  0  0
 15  9  1  0  0  0  0
 17 10  1  0  0  0  0
 17  8  1  0  0  0  0
 18 15  2  0  0  0  0
 18  6  1  0  0  0  0
 19 16  1  0  0  0  0
 20 10  1  0  0  0  0
 20 29  1  0  0  0  0
 21  4  2  0  0  0  0
 22 13  1  0  0  0  0
 22 21  1  0  0  0  0
 23 14  1  0  0  0  0
 24  7  1  0  0  0  0
 25  5  1  0  0  0  0
 27  2  1  0  0  0  0
 27 14  2  0  0  0  0
 28 23  2  0  0  0  0
 30 29  1  0  0  0  0
 30 31  1  0  0  0  0
 32 30  1  0  0  0  0
M  END
>  <MODEL>
1

>  <REMARK>
 VINA RESULT:      -9.2      0.000      0.000
  Name = 
  2 active torsions:
  status: ('A' for Active; 'I' for Inactive)
    1  A    between atoms: C_20  and  N_29
    2  A    between atoms: N_29  and  C_30
                            x       y       z     vdW  Elec       q    Type
                         _______ _______ _______ _____ _____    ______ ____

>  <TORSDO>
F 2

$$$$
=
 OpenBabel11112416333D

 32 38  0  0  1  0  0  0  0  0999 V2000
  184.9090  177.4160  146.7970 C   0  0  1  0  0  3  0  0  0  0  0  0
  189.6870  176.1050  144.9690 C   0  0  1  0  0  3  0  0  0  0  0  0
  188.5640  173.6140  141.0440 C   0  0  0  0  0  3  0  0  0  0  0  0
  189.9850  173.3790  140.7270 C   0  0  0  0  0  3  0  0  0  0  0  0
  192.0040  176.0920  145.7870 C   0  0  0  0  0  0  0  0  0  0  0  0
  193.2940  175.6270  145.5820 C   0  0  0  0  0  0  0  0  0  0  0  0
  187.8550  177.3630  146.1570 C   0  0  1  0  0  3  0  0  0  0  0  0
  187.3430  176.2790  143.9990 C   0  0  0  0  0  2  0  0  0  0  0  0
  195.0090  174.6230  144.6240 C   0  0  0  0  0  0  0  0  0  0  0  0
  185.3970  176.9400  145.4300 C   0  0  2  0  0  3  0  0  0  0  0  0
  188.2160  174.4860  141.9460 N   0  0  0  0  0  0  0  0  0  0  0  0
  188.7190  175.7700  143.9380 N   0  0  1  0  0  0  0  0  0  0  0  0
  189.1840  175.3680  142.6120 C   0  0  1  0  0  3  0  0  0  0  0  0
  191.4240  175.0500  143.6290 C   0  0  0  0  0  0  0  0  0  0  0  0
  195.4460  175.2180  145.8460 N   0  0  0  0  0  0  0  0  0  0  0  0
  185.9770  177.3190  147.9070 C   0  0  0  0  0  2  0  0  0  0  0  0
  186.8620  176.4560  145.4270 C   0  0  2  0  0  3  0  0  0  0  0  0
  194.4520  175.8010  146.4020 N   0  0  0  0  0  0  0  0  0  0  0  0
  187.3740  177.8290  147.5340 C   0  0  0  0  0  2  0  0  0  0  0  0
  185.2300  178.4300  145.7070 C   0  0  1  0  0  3  0  0  0  0  0  0
  190.9370  173.9080  141.4990 C   0  0  0  0  0  3  0  0  0  0  0  0
  190.5560  174.7550  142.6480 C   0  0  2  0  0  3  0  0  0  0  0  0
  192.7190  174.6150  143.5110 N   0  0  0  0  0  0  0  0  0  0  0  0
  189.1770  176.6340  146.2910 C   0  0  0  0  0  2  0  0  0  0  0  0
  191.7450  176.8480  146.9260 O   0  0  0  0  0  1  0  0  0  0  0  0
  195.7410  173.9750  143.8310 O   0  0  0  0  0  0  0  0  0  0  0  0
  191.0050  175.7810  144.8030 C   0  0  0  0  0  0  0  0  0  0  0  0
  193.6070  174.9050  144.4840 C   0  0  0  0  0  0  0  0  0  0  0  0
  183.9930  178.8920  145.1000 N   0  0  0  0  0  2  0  0  0  0  0  0
  184.3240  179.4120  143.7840 C   0  0  0  0  0  3  0  0  0  0  0  0
  184.0680  178.3430  142.7420 C   0  0  0  0  0  1  0  0  0  0  0  0
  185.7860  179.8100  143.7410 C   0  0  0  0  0  1  0  0  0  0  0  0
  1 16  1  1  0  0  0
  2 24  1  1  0  0  0
  3 11  2  0  0  0  0
  4  3  1  0  0  0  0
  4 21  2  0  0  0  0
  5 25  1  0  0  0  0
  6  5  1  0  0  0  0
  6 18  1  0  0  0  0
  7 24  1  1  0  0  0
  7 19  1  0  0  0  0
  8 17  1  0  0  0  0
  9 15  1  0  0  0  0
 10 20  1  0  0  0  0
 10  1  1  0  0  0  0
 11 13  1  0  0  0  0
 12  8  1  0  0  0  0
 12  2  1  0  0  0  0
 13 22  1  0  0  0  0
 13 12  1  0  0  0  0
 14 27  1  0  0  0  0
 15 18  2  0  0  0  0
 17 10  1  0  0  0  0
 17  7  1  0  0  0  0
 19 16  1  0  0  0  0
 20  1  1  0  0  0  0
 21 22  1  0  0  0  0
 22 14  1  0  0  0  0
 23 14  2  0  0  0  0
 23 28  1  0  0  0  0
 26  9  2  0  0  0  0
 27  2  1  0  0  0  0
 27  5  2  0  0  0  0
 28  9  1  0  0  0  0
 28  6  2  0  0  0  0
 29 20  1  0  0  0  0
 30 29  1  0  0  0  0
 31 30  1  0  0  0  0
 32 30  1  0  0  0  0
M  END
>  <MODEL>
2

>  <REMARK>
 VINA RESULT:      -8.9      3.172      8.731
  Name = 
  2 active torsions:
  status: ('A' for Active; 'I' for Inactive)
    1  A    between atoms: C_20  and  N_29
    2  A    between atoms: N_29  and  C_30
                            x       y       z     vdW  Elec       q    Type
                         _______ _______ _______ _____ _____    ______ ____

>  <TORSDO>
F 2

$$$$
=
 OpenBabel11112416333D

 32 38  0  0  1  0  0  0  0  0999 V2000
  185.5160  179.2580  143.4980 C   0  0  1  0  0  3  0  0  0  0  0  0
  188.8730  175.1840  143.3720 C   0  0  1  0  0  3  0  0  0  0  0  0
  191.9920  176.4020  146.7870 C   0  0  0  0  0  3  0  0  0  0  0  0
  192.7790  175.1740  146.5750 C   0  0  0  0  0  3  0  0  0  0  0  0
  189.3890  173.3010  141.8800 C   0  0  0  0  0  0  0  0  0  0  0  0
  190.2990  172.3060  141.5550 C   0  0  0  0  0  0  0  0  0  0  0  0
  186.7590  176.5350  143.1410 C   0  0  1  0  0  3  0  0  0  0  0  0
  188.2560  176.9930  145.0490 C   0  0  0  0  0  2  0  0  0  0  0  0
  192.0750  171.0020  141.6690 C   0  0  0  0  0  0  0  0  0  0  0  0
  186.5500  178.7410  144.4950 C   0  0  2  0  0  3  0  0  0  0  0  0
  190.8080  176.5370  146.2620 N   0  0  0  0  0  0  0  0  0  0  0  0
  189.1850  175.9700  144.5540 N   0  0  1  0  0  0  0  0  0  0  0  0
  190.1330  175.4500  145.5380 C   0  0  1  0  0  3  0  0  0  0  0  0
  190.8270  173.8030  143.8190 C   0  0  0  0  0  0  0  0  0  0  0  0
  191.2930  170.6190  140.5370 N   0  0  0  0  0  0  0  0  0  0  0  0
  185.5920  178.5780  142.1140 C   0  0  0  0  0  2  0  0  0  0  0  0
  187.4680  177.6400  143.9250 C   0  0  2  0  0  3  0  0  0  0  0  0
  190.2620  171.3750  140.4710 N   0  0  0  0  0  0  0  0  0  0  0  0
  185.7320  177.0510  142.1290 C   0  0  0  0  0  2  0  0  0  0  0  0
  185.0870  178.3310  144.6280 C   0  0  1  0  0  3  0  0  0  0  0  0
  192.3760  174.2690  145.6810 C   0  0  0  0  0  3  0  0  0  0  0  0
  191.1220  174.4930  144.9320 C   0  0  2  0  0  3  0  0  0  0  0  0
  191.6830  172.8090  143.4190 N   0  0  0  0  0  0  0  0  0  0  0  0
  187.8000  175.6890  142.4340 C   0  0  0  0  0  2  0  0  0  0  0  0
  188.2600  173.4520  141.0820 O   0  0  0  0  0  1  0  0  0  0  0  0
  193.1530  170.4570  142.0220 O   0  0  0  0  0  0  0  0  0  0  0  0
  189.6540  174.1140  143.0340 C   0  0  0  0  0  0  0  0  0  0  0  0
  191.4030  172.1010  142.3060 C   0  0  0  0  0  0  0  0  0  0  0  0
  184.4660  179.1130  145.6830 N   0  0  0  0  0  2  0  0  0  0  0  0
  184.5860  178.3510  146.9150 C   0  0  0  0  0  3  0  0  0  0  0  0
  185.7430  178.8910  147.7280 C   0  0  0  0  0  1  0  0  0  0  0  0
  184.8390  176.8910  146.5940 C   0  0  0  0  0  1  0  0  0  0  0  0
  1 16  1  6  0  0  0
  1 10  1  0  0  0  0
  1 20  1  0  0  0  0
  2 24  1  6  0  0  0
  2 12  1  0  0  0  0
  4  3  1  0  0  0  0
  5 27  1  0  0  0  0
  6  5  2  0  0  0  0
  6 28  1  0  0  0  0
  7 19  1  6  0  0  0
  7 17  1  0  0  0  0
  9 26  2  0  0  0  0
  9 28  1  0  0  0  0
 10 20  1  0  0  0  0
 11  3  2  0  0  0  0
 12  8  1  0  0  0  0
 12 13  1  0  0  0  0
 13 11  1  0  0  0  0
 14 22  1  0  0  0  0
 15  9  1  0  0  0  0
 16 19  1  0  0  0  0
 17 10  1  0  0  0  0
 17  8  1  0  0  0  0
 18 15  2  0  0  0  0
 18  6  1  0  0  0  0
 20 29  1  0  0  0  0
 21  4  2  0  0  0  0
 22 13  1  0  0  0  0
 22 21  1  0  0  0  0
 23 14  1  0  0  0  0
 24  7  1  0  0  0  0
 25  5  1  0  0  0  0
 27  2  1  0  0  0  0
 27 14  2  0  0  0  0
 28 23  2  0  0  0  0
 29 30  1  0  0  0  0
 30 31  1  0  0  0  0
 32 30  1  0  0  0  0
M  END
>  <MODEL>
3

>  <REMARK>
 VINA RESULT:      -8.8      3.261      7.717
  Name = 
  2 active torsions:
  status: ('A' for Active; 'I' for Inactive)
    1  A    between atoms: C_20  and  N_29
    2  A    between atoms: N_29  and  C_30
                            x       y       z     vdW  Elec       q    Type
                         _______ _______ _______ _____ _____    ______ ____

>  <TORSDO>
F 2

$$$$
=
 OpenBabel11112416333D

 32 38  0  0  1  0  0  0  0  0999 V2000
  186.4050  178.6530  143.2040 C   0  0  1  0  0  3  0  0  0  0  0  0
  189.6680  174.5450  143.8050 C   0  0  1  0  0  3  0  0  0  0  0  0
  193.2360  176.5090  146.3110 C   0  0  0  0  0  3  0  0  0  0  0  0
  193.9740  175.2330  146.3550 C   0  0  0  0  0  3  0  0  0  0  0  0
  189.9550  172.2990  142.8500 C   0  0  0  0  0  0  0  0  0  0  0  0
  190.8010  171.2090  142.7060 C   0  0  0  0  0  0  0  0  0  0  0  0
  187.5570  175.8800  143.4740 C   0  0  1  0  0  3  0  0  0  0  0  0
  189.3050  176.7760  144.9680 C   0  0  0  0  0  2  0  0  0  0  0  0
  192.5610  169.9030  142.9550 C   0  0  0  0  0  0  0  0  0  0  0  0
  187.5590  178.3830  144.1670 C   0  0  2  0  0  3  0  0  0  0  0  0
  191.9940  176.5510  145.9240 N   0  0  0  0  0  0  0  0  0  0  0  0
  190.1470  175.6120  144.6670 N   0  0  1  0  0  0  0  0  0  0  0  0
  191.2140  175.3400  145.6290 C   0  0  1  0  0  3  0  0  0  0  0  0
  191.6490  173.2480  144.3690 C   0  0  0  0  0  0  0  0  0  0  0  0
  191.6280  169.2600  142.0870 N   0  0  0  0  0  0  0  0  0  0  0  0
  186.2840  177.6130  142.0700 C   0  0  0  0  0  2  0  0  0  0  0  0
  188.3780  177.1240  143.8180 C   0  0  2  0  0  3  0  0  0  0  0  0
  190.6070  170.0170  141.9420 N   0  0  0  0  0  0  0  0  0  0  0  0
  186.4080  176.1450  142.4970 C   0  0  0  0  0  2  0  0  0  0  0  0
  186.1240  178.0980  144.5950 C   0  0  1  0  0  3  0  0  0  0  0  0
  193.4420  174.1370  145.8110 C   0  0  0  0  0  3  0  0  0  0  0  0
  192.1000  174.2050  145.1960 C   0  0  2  0  0  3  0  0  0  0  0  0
  192.4320  172.1420  144.1600 N   0  0  0  0  0  0  0  0  0  0  0  0
  188.4830  174.8220  142.9070 C   0  0  0  0  0  2  0  0  0  0  0  0
  188.7300  172.2780  142.1930 O   0  0  0  0  0  1  0  0  0  0  0  0
  193.6720  169.4250  143.3070 O   0  0  0  0  0  0  0  0  0  0  0  0
  190.3840  173.3860  143.6850 C   0  0  0  0  0  0  0  0  0  0  0  0
  191.9950  171.1670  143.3370 C   0  0  0  0  0  0  0  0  0  0  0  0
  185.6610  179.1720  145.4570 N   0  0  0  0  0  2  0  0  0  0  0  0
  185.1920  178.5650  146.6920 C   0  0  0  0  0  3  0  0  0  0  0  0
  186.2380  178.7500  147.7710 C   0  0  0  0  0  1  0  0  0  0  0  0
  184.9530  177.0830  146.4770 C   0  0  0  0  0  1  0  0  0  0  0  0
  1 16  1  6  0  0  0
  1 10  1  0  0  0  0
  1 20  1  0  0  0  0
  2 24  1  6  0  0  0
  2 12  1  0  0  0  0
  3  4  1  0  0  0  0
  5 27  1  0  0  0  0
  6  5  2  0  0  0  0
  6 28  1  0  0  0  0
  7 19  1  6  0  0  0
  7 17  1  0  0  0  0
  9 26  2  0  0  0  0
  9 28  1  0  0  0  0
 10 20  1  0  0  0  0
 11  3  2  0  0  0  0
 12  8  1  0  0  0  0
 12 13  1  0  0  0  0
 13 11  1  0  0  0  0
 14 22  1  0  0  0  0
 15  9  1  0  0  0  0
 16 19  1  0  0  0  0
 17 10  1  0  0  0  0
 17  8  1  0  0  0  0
 18 15  2  0  0  0  0
 18  6  1  0  0  0  0
 20 29  1  0  0  0  0
 21  4  2  0  0  0  0
 22 13  1  0  0  0  0
 22 21  1  0  0  0  0
 23 14  1  0  0  0  0
 24  7  1  0  0  0  0
 25  5  1  0  0  0  0
 27  2  1  0  0  0  0
 27 14  2  0  0  0  0
 28 23  2  0  0  0  0
 29 30  1  0  0  0  0
 30 31  1  0  0  0  0
 32 30  1  0  0  0  0
M  END
>  <MODEL>
4

>  <REMARK>
 VINA RESULT:      -8.6      3.585      8.161
  Name = 
  2 active torsions:
  status: ('A' for Active; 'I' for Inactive)
    1  A    between atoms: C_20  and  N_29
    2  A    between atoms: N_29  and  C_30
                            x       y       z     vdW  Elec       q    Type
                         _______ _______ _______ _____ _____    ______ ____

>  <TORSDO>
F 2

$$$$
=
 OpenBabel11112416333D

 32 38  0  0  1  0  0  0  0  0999 V2000
  195.5300  175.8110  144.6230 C   0  0  1  0  0  3  0  0  0  0  0  0
  190.2940  176.3020  145.1060 C   0  0  1  0  0  3  0  0  0  0  0  0
  188.7950  174.9110  140.7830 C   0  0  0  0  0  3  0  0  0  0  0  0
  187.3820  175.1180  141.1520 C   0  0  0  0  0  3  0  0  0  0  0  0
  188.7030  177.3540  146.6560 C   0  0  0  0  0  0  0  0  0  0  0  0
  187.3950  177.7690  146.8570 C   0  0  0  0  0  0  0  0  0  0  0  0
  192.7190  175.9620  145.7010 C   0  0  1  0  0  3  0  0  0  0  0  0
  191.8770  175.0280  143.5770 C   0  0  0  0  0  2  0  0  0  0  0  0
  185.2410  178.0820  146.5000 C   0  0  0  0  0  0  0  0  0  0  0  0
  194.3600  175.2390  143.8240 C   0  0  2  0  0  3  0  0  0  0  0  0
  189.7300  174.9130  141.6890 N   0  0  0  0  0  0  0  0  0  0  0  0
  190.5520  175.5930  143.8640 N   0  0  1  0  0  0  0  0  0  0  0  0
  189.4400  174.9960  143.1280 C   0  0  1  0  0  3  0  0  0  0  0  0
  187.9310  176.3790  144.5270 C   0  0  0  0  0  0  0  0  0  0  0  0
  185.5880  178.6530  147.7620 N   0  0  0  0  0  0  0  0  0  0  0  0
  195.1140  176.8850  145.6510 C   0  0  0  0  0  2  0  0  0  0  0  0
  192.9940  175.8450  144.2020 C   0  0  2  0  0  3  0  0  0  0  0  0
  186.8370  178.4700  147.9700 N   0  0  0  0  0  0  0  0  0  0  0  0
  193.8840  176.5510  146.5030 C   0  0  0  0  0  2  0  0  0  0  0  0
  195.0080  174.4140  144.9310 C   0  0  1  0  0  3  0  0  0  0  0  0
  187.0660  175.5080  142.3880 C   0  0  0  0  0  3  0  0  0  0  0  0
  188.1370  175.6980  143.3880 C   0  0  2  0  0  3  0  0  0  0  0  0
  186.6670  176.8370  144.7970 N   0  0  0  0  0  0  0  0  0  0  0  0
  191.4730  176.8030  145.9080 C   0  0  0  0  0  2  0  0  0  0  0  0
  189.6430  177.6220  147.6460 O   0  0  0  0  0  1  0  0  0  0  0  0
  184.0880  178.0850  145.9950 O   0  0  0  0  0  0  0  0  0  0  0  0
  189.0160  176.6570  145.4400 C   0  0  0  0  0  0  0  0  0  0  0  0
  186.4380  177.5190  145.9370 C   0  0  0  0  0  0  0  0  0  0  0  0
  195.8920  173.4270  144.3360 N   0  0  0  0  0  2  0  0  0  0  0  0
  195.7310  172.1920  145.0850 C   0  0  0  0  0  3  0  0  0  0  0  0
  194.3770  172.1890  145.7630 C   0  0  0  0  0  1  0  0  0  0  0  0
  196.8160  172.0840  146.1380 C   0  0  0  0  0  1  0  0  0  0  0  0
  1 20  1  0  0  0  0
  1 16  1  1  0  0  0
  2 27  1  0  0  0  0
  2 24  1  6  0  0  0
  3  4  1  0  0  0  0
  3 11  2  0  0  0  0
  4 21  2  0  0  0  0
  5  6  1  0  0  0  0
  5 25  1  0  0  0  0
  6 18  1  0  0  0  0
  7 24  1  6  0  0  0
  7 19  1  0  0  0  0
  8 12  1  0  0  0  0
  8 17  1  0  0  0  0
  9 15  1  0  0  0  0
 10 17  1  0  0  0  0
 10  1  1  0  0  0  0
 10 20  1  0  0  0  0
 11 13  1  0  0  0  0
 12  2  1  0  0  0  0
 13 22  1  0  0  0  0
 13 12  1  0  0  0  0
 14 23  2  0  0  0  0
 14 27  1  0  0  0  0
 15 18  2  0  0  0  0
 16 19  1  0  0  0  0
 17  7  1  0  0  0  0
 21 22  1  0  0  0  0
 22 14  1  0  0  0  0
 23 28  1  0  0  0  0
 26  9  2  0  0  0  0
 27  5  2  0  0  0  0
 28  9  1  0  0  0  0
 28  6  2  0  0  0  0
 29 20  1  0  0  0  0
 29 30  1  0  0  0  0
 30 31  1  0  0  0  0
 30 32  1  0  0  0  0
M  END
>  <MODEL>
5

>  <REMARK>
 VINA RESULT:      -8.2      2.848      5.196
  Name = 
  2 active torsions:
  status: ('A' for Active; 'I' for Inactive)
    1  A    between atoms: C_20  and  N_29
    2  A    between atoms: N_29  and  C_30
                            x       y       z     vdW  Elec       q    Type
                         _______ _______ _______ _____ _____    ______ ____

>  <TORSDO>
F 2

$$$$
=
 OpenBabel11112416333D

 32 38  0  0  1  0  0  0  0  0999 V2000
  186.1070  178.8490  143.7370 C   0  0  1  0  0  3  0  0  0  0  0  0
  189.1030  174.6040  142.7940 C   0  0  1  0  0  3  0  0  0  0  0  0
  192.4710  175.0360  146.1620 C   0  0  0  0  0  3  0  0  0  0  0  0
  193.1420  173.8000  145.7190 C   0  0  0  0  0  3  0  0  0  0  0  0
  189.3890  172.9430  141.0050 C   0  0  0  0  0  0  0  0  0  0  0  0
  190.1960  171.9460  140.4790 C   0  0  0  0  0  0  0  0  0  0  0  0
  187.1000  176.1290  142.8970 C   0  0  1  0  0  3  0  0  0  0  0  0
  188.7190  176.1700  144.7600 C   0  0  0  0  0  2  0  0  0  0  0  0
  191.8600  170.5100  140.2870 C   0  0  0  0  0  0  0  0  0  0  0  0
  187.1410  178.1060  144.5810 C   0  0  2  0  0  3  0  0  0  0  0  0
  191.2790  175.3400  145.7340 N   0  0  0  0  0  0  0  0  0  0  0  0
  189.5350  175.1700  144.0600 N   0  0  1  0  0  0  0  0  0  0  0  0
  190.4820  174.4330  144.8960 C   0  0  1  0  0  3  0  0  0  0  0  0
  190.9540  173.0270  142.9080 C   0  0  0  0  0  0  0  0  0  0  0  0
  190.9960  170.3690  139.1590 N   0  0  0  0  0  0  0  0  0  0  0  0
  186.0610  178.3900  142.2640 C   0  0  0  0  0  2  0  0  0  0  0  0
  187.9350  177.0420  143.7960 C   0  0  2  0  0  3  0  0  0  0  0  0
  190.0300  171.2010  139.2700 N   0  0  0  0  0  0  0  0  0  0  0  0
  186.0730  176.8730  142.0380 C   0  0  0  0  0  2  0  0  0  0  0  0
  185.6570  177.7920  144.7370 C   0  0  1  0  0  3  0  0  0  0  0  0
  192.6220  173.0800  144.7230 C   0  0  0  0  0  3  0  0  0  0  0  0
  191.3570  173.5110  144.0940 C   0  0  2  0  0  3  0  0  0  0  0  0
  191.7040  172.0470  142.3120 N   0  0  0  0  0  0  0  0  0  0  0  0
  188.0330  175.3290  142.0090 C   0  0  0  0  0  2  0  0  0  0  0  0
  188.2390  173.3020  140.3080 O   0  0  0  0  0  1  0  0  0  0  0  0
  192.9050  169.8380  140.4880 O   0  0  0  0  0  0  0  0  0  0  0  0
  189.7750  173.5440  142.2510 C   0  0  0  0  0  0  0  0  0  0  0  0
  191.3130  171.5440  141.1230 C   0  0  0  0  0  0  0  0  0  0  0  0
  185.1540  178.4440  145.9340 N   0  0  0  0  0  2  0  0  0  0  0  0
  186.1900  178.3470  146.9480 C   0  0  0  0  0  3  0  0  0  0  0  0
  186.0130  177.0610  147.7270 C   0  0  0  0  0  1  0  0  0  0  0  0
  186.0910  179.5240  147.8990 C   0  0  0  0  0  1  0  0  0  0  0  0
  1 16  1  6  0  0  0
  1 10  1  0  0  0  0
  1 20  1  0  0  0  0
  2 24  1  6  0  0  0
  2 12  1  0  0  0  0
  4  3  1  0  0  0  0
  5 27  1  0  0  0  0
  6  5  2  0  0  0  0
  6 28  1  0  0  0  0
  7 24  1  6  0  0  0
  7 17  1  0  0  0  0
  9 26  2  0  0  0  0
  9 28  1  0  0  0  0
 10 20  1  0  0  0  0
 11  3  2  0  0  0  0
 12  8  1  0  0  0  0
 12 13  1  0  0  0  0
 13 11  1  0  0  0  0
 14 22  1  0  0  0  0
 15 18  2  0  0  0  0
 15  9  1  0  0  0  0
 17 10  1  0  0  0  0
 17  8  1  0  0  0  0
 18  6  1  0  0  0  0
 19 16  1  0  0  0  0
 19  7  1  0  0  0  0
 20 29  1  0  0  0  0
 21  4  2  0  0  0  0
 22 21  1  0  0  0  0
 22 13  1  0  0  0  0
 23 14  1  0  0  0  0
 25  5  1  0  0  0  0
 27  2  1  0  0  0  0
 27 14  2  0  0  0  0
 28 23  2  0  0  0  0
 29 30  1  0  0  0  0
 30 31  1  0  0  0  0
 30 32  1  0  0  0  0
M  END
>  <MODEL>
6

>  <REMARK>
 VINA RESULT:      -8.1      3.636      7.783
  Name = 
  2 active torsions:
  status: ('A' for Active; 'I' for Inactive)
    1  A    between atoms: C_20  and  N_29
    2  A    between atoms: N_29  and  C_30
                            x       y       z     vdW  Elec       q    Type
                         _______ _______ _______ _____ _____    ______ ____

>  <TORSDO>
F 2

$$$$
=
 OpenBabel11112416333D

 32 38  0  0  1  0  0  0  0  0999 V2000
  190.2030  172.1670  139.5080 C   0  0  1  0  0  3  0  0  0  0  0  0
  188.5770  175.6190  143.1600 C   0  0  1  0  0  3  0  0  0  0  0  0
  191.8820  175.0420  146.5670 C   0  0  0  0  0  3  0  0  0  0  0  0
  191.2470  176.0610  147.4240 C   0  0  0  0  0  3  0  0  0  0  0  0
  186.5590  176.9360  143.6430 C   0  0  0  0  0  0  0  0  0  0  0  0
  185.8740  177.6860  144.5870 C   0  0  0  0  0  0  0  0  0  0  0  0
  188.9520  174.5160  140.9250 C   0  0  1  0  0  3  0  0  0  0  0  0
  190.7580  174.4350  142.6060 C   0  0  0  0  0  2  0  0  0  0  0  0
  185.4320  178.7510  146.4680 C   0  0  0  0  0  0  0  0  0  0  0  0
  190.9030  172.8170  140.7000 C   0  0  2  0  0  3  0  0  0  0  0  0
  191.5350  174.9070  145.3200 N   0  0  0  0  0  0  0  0  0  0  0  0
  189.9000  175.1630  143.5490 N   0  0  1  0  0  0  0  0  0  0  0  0
  190.5950  175.8200  144.6540 C   0  0  1  0  0  3  0  0  0  0  0  0
  188.4130  176.8290  145.2650 C   0  0  0  0  0  0  0  0  0  0  0  0
  184.3190  178.8920  145.5850 N   0  0  0  0  0  0  0  0  0  0  0  0
  188.6800  172.4200  139.4680 C   0  0  0  0  0  2  0  0  0  0  0  0
  189.9520  173.5980  141.6300 C   0  0  2  0  0  3  0  0  0  0  0  0
  184.5750  178.2750  144.4930 N   0  0  0  0  0  0  0  0  0  0  0  0
  188.2370  173.8630  139.7390 C   0  0  0  0  0  2  0  0  0  0  0  0
  191.0500  173.4160  139.3060 C   0  0  1  0  0  3  0  0  0  0  0  0
  190.1720  176.7210  146.9900 C   0  0  0  0  0  3  0  0  0  0  0  0
  189.6450  176.4470  145.6370 C   0  0  2  0  0  3  0  0  0  0  0  0
  187.6610  177.5630  146.1460 N   0  0  0  0  0  0  0  0  0  0  0  0
  187.9340  175.0020  141.9380 C   0  0  0  0  0  2  0  0  0  0  0  0
  185.9520  176.7020  142.4140 O   0  0  0  0  0  1  0  0  0  0  0  0
  185.5060  179.2410  147.6240 O   0  0  0  0  0  0  0  0  0  0  0  0
  187.8680  176.4510  143.9810 C   0  0  0  0  0  0  0  0  0  0  0  0
  186.4230  177.9610  145.7900 C   0  0  0  0  0  0  0  0  0  0  0  0
  192.3420  173.0390  138.7580 N   0  0  0  0  0  2  0  0  0  0  0  0
  192.5040  173.7510  137.5020 C   0  0  0  0  0  3  0  0  0  0  0  0
  193.4300  174.9310  137.7100 C   0  0  0  0  0  1  0  0  0  0  0  0
  191.1580  174.2520  137.0170 C   0  0  0  0  0  1  0  0  0  0  0  0
  1 16  1  1  0  0  0
  1 10  1  0  0  0  0
  2 24  1  1  0  0  0
  2 12  1  0  0  0  0
  2 27  1  0  0  0  0
  3  4  1  0  0  0  0
  5 27  2  0  0  0  0
  5  6  1  0  0  0  0
  6 28  2  0  0  0  0
  7 19  1  6  0  0  0
  7 17  1  0  0  0  0
  7 24  1  0  0  0  0
  8 12  1  0  0  0  0
  9 26  2  0  0  0  0
 10 17  1  0  0  0  0
 11  3  2  0  0  0  0
 12 13  1  0  0  0  0
 13 11  1  0  0  0  0
 13 22  1  0  0  0  0
 14 22  1  0  0  0  0
 14 23  2  0  0  0  0
 15  9  1  0  0  0  0
 16 19  1  0  0  0  0
 17  8  1  0  0  0  0
 18  6  1  0  0  0  0
 18 15  2  0  0  0  0
 20  1  1  0  0  0  0
 20 10  1  0  0  0  0
 21  4  2  0  0  0  0
 22 21  1  0  0  0  0
 25  5  1  0  0  0  0
 27 14  1  0  0  0  0
 28 23  1  0  0  0  0
 28  9  1  0  0  0  0
 29 20  1  0  0  0  0
 30 31  1  0  0  0  0
 30 29  1  0  0  0  0
 32 30  1  0  0  0  0
M  END
>  <MODEL>
7

>  <REMARK>
 VINA RESULT:      -8.1      3.202      5.230
  Name = 
  2 active torsions:
  status: ('A' for Active; 'I' for Inactive)
    1  A    between atoms: C_20  and  N_29
    2  A    between atoms: N_29  and  C_30
                            x       y       z     vdW  Elec       q    Type
                         _______ _______ _______ _____ _____    ______ ____

>  <TORSDO>
F 2

$$$$
=
 OpenBabel11112416333D

 32 38  0  0  1  0  0  0  0  0999 V2000
  186.2500  177.0750  146.3250 C   0  0  1  0  0  3  0  0  0  0  0  0
  190.6610  175.9240  143.6600 C   0  0  1  0  0  3  0  0  0  0  0  0
  189.0820  172.6470  140.5560 C   0  0  0  0  0  3  0  0  0  0  0  0
  190.4210  172.4980  139.9560 C   0  0  0  0  0  3  0  0  0  0  0  0
  193.0790  176.2930  143.9020 C   0  0  0  0  0  0  0  0  0  0  0  0
  194.3470  175.9280  143.4770 C   0  0  0  0  0  0  0  0  0  0  0  0
  188.9690  177.1940  145.0290 C   0  0  1  0  0  3  0  0  0  0  0  0
  188.1630  175.6820  143.2520 C   0  0  0  0  0  2  0  0  0  0  0  0
  195.9390  174.9370  142.3160 C   0  0  0  0  0  0  0  0  0  0  0  0
  186.4960  176.4030  144.9760 C   0  0  2  0  0  3  0  0  0  0  0  0
  188.8170  173.6330  141.3640 N   0  0  0  0  0  0  0  0  0  0  0  0
  189.5510  175.3090  142.9520 N   0  0  1  0  0  0  0  0  0  0  0  0
  189.7730  174.7150  141.6350 C   0  0  1  0  0  3  0  0  0  0  0  0
  192.2010  174.8150  142.1350 C   0  0  0  0  0  0  0  0  0  0  0  0
  196.5410  175.7890  143.2900 N   0  0  0  0  0  0  0  0  0  0  0  0
  187.5340  177.2930  147.1550 C   0  0  0  0  0  2  0  0  0  0  0  0
  187.9780  176.0740  144.7070 C   0  0  2  0  0  3  0  0  0  0  0  0
  195.6170  176.3650  143.9640 N   0  0  0  0  0  0  0  0  0  0  0  0
  188.7340  177.8600  146.3880 C   0  0  0  0  0  2  0  0  0  0  0  0
  186.1870  177.8940  145.0430 C   0  0  1  0  0  3  0  0  0  0  0  0
  191.4320  173.2530  140.3890 C   0  0  0  0  0  3  0  0  0  0  0  0
  191.1930  174.2580  141.4450 C   0  0  2  0  0  3  0  0  0  0  0  0
  193.4880  174.4960  141.7880 N   0  0  0  0  0  0  0  0  0  0  0  0
  190.3780  176.6370  144.9630 C   0  0  0  0  0  2  0  0  0  0  0  0
  192.9670  177.2190  144.9350 O   0  0  0  0  0  1  0  0  0  0  0  0
  196.5670  174.2280  141.4870 O   0  0  0  0  0  0  0  0  0  0  0  0
  191.9450  175.7070  143.2430 C   0  0  0  0  0  0  0  0  0  0  0  0
  194.5140  175.0480  142.4660 C   0  0  0  0  0  0  0  0  0  0  0  0
  184.7970  178.1110  144.6780 N   0  0  0  0  0  2  0  0  0  0  0  0
  184.7880  178.8850  143.4480 C   0  0  0  0  0  3  0  0  0  0  0  0
  183.9960  178.1430  142.3930 C   0  0  0  0  0  1  0  0  0  0  0  0
  186.2080  179.0870  142.9570 C   0  0  0  0  0  1  0  0  0  0  0  0
  1 16  1  1  0  0  0
  2 24  1  1  0  0  0
  3 11  2  0  0  0  0
  4 21  2  0  0  0  0
  4  3  1  0  0  0  0
  5 25  1  0  0  0  0
  6  5  1  0  0  0  0
  6 18  1  0  0  0  0
  7 24  1  1  0  0  0
  7 19  1  0  0  0  0
  8 17  1  0  0  0  0
  9 28  1  0  0  0  0
  9 15  1  0  0  0  0
 10 20  1  0  0  0  0
 10  1  1  0  0  0  0
 11 13  1  0  0  0  0
 12  8  1  0  0  0  0
 12  2  1  0  0  0  0
 13 12  1  0  0  0  0
 14 27  1  0  0  0  0
 15 18  2  0  0  0  0
 17 10  1  0  0  0  0
 17  7  1  0  0  0  0
 19 16  1  0  0  0  0
 20  1  1  0  0  0  0
 21 22  1  0  0  0  0
 22 13  1  0  0  0  0
 22 14  1  0  0  0  0
 23 14  2  0  0  0  0
 23 28  1  0  0  0  0
 26  9  2  0  0  0  0
 27  2  1  0  0  0  0
 27  5  2  0  0  0  0
 28  6  2  0  0  0  0
 29 20  1  0  0  0  0
 30 29  1  0  0  0  0
 31 30  1  0  0  0  0
 32 30  1  0  0  0  0
M  END
>  <MODEL>
8

>  <REMARK>
 VINA RESULT:      -8.0      3.227      8.851
  Name = 
  2 active torsions:
  status: ('A' for Active; 'I' for Inactive)
    1  A    between atoms: C_20  and  N_29
    2  A    between atoms: N_29  and  C_30
                            x       y       z     vdW  Elec       q    Type
                         _______ _______ _______ _____ _____    ______ ____

>  <TORSDO>
F 2

$$$$
=
 OpenBabel11112416333D

 32 38  0  0  1  0  0  0  0  0999 V2000
  195.2090  175.3040  145.4190 C   0  0  1  0  0  3  0  0  0  0  0  0
  190.1410  175.9330  144.0740 C   0  0  1  0  0  3  0  0  0  0  0  0
  190.0070  173.7910  139.8000 C   0  0  0  0  0  3  0  0  0  0  0  0
  188.5690  174.0790  139.6470 C   0  0  0  0  0  3  0  0  0  0  0  0
  188.2170  177.2690  144.8170 C   0  0  0  0  0  0  0  0  0  0  0  0
  186.9460  177.7280  144.5060 C   0  0  0  0  0  0  0  0  0  0  0  0
  192.2180  175.6810  145.4780 C   0  0  1  0  0  3  0  0  0  0  0  0
  192.0360  174.3840  143.3860 C   0  0  0  0  0  2  0  0  0  0  0  0
  185.0460  177.9950  143.4170 C   0  0  0  0  0  0  0  0  0  0  0  0
  194.3190  174.6080  144.3920 C   0  0  2  0  0  3  0  0  0  0  0  0
  190.6020  173.9490  140.9480 N   0  0  0  0  0  0  0  0  0  0  0  0
  190.7320  175.0060  143.1250 N   0  0  1  0  0  0  0  0  0  0  0  0
  189.8750  174.2970  142.1770 C   0  0  1  0  0  3  0  0  0  0  0  0
  188.0980  175.9300  142.7510 C   0  0  0  0  0  0  0  0  0  0  0  0
  185.0110  178.7830  144.6070 N   0  0  0  0  0  0  0  0  0  0  0  0
  194.5630  176.5530  146.0580 C   0  0  0  0  0  2  0  0  0  0  0  0
  192.9490  175.2890  144.1930 C   0  0  2  0  0  3  0  0  0  0  0  0
  186.1120  178.6280  145.2400 N   0  0  0  0  0  0  0  0  0  0  0  0
  193.1050  176.3930  146.5040 C   0  0  0  0  0  2  0  0  0  0  0  0
  194.5190  173.9930  145.7720 C   0  0  1  0  0  3  0  0  0  0  0  0
  187.9040  174.6920  140.6270 C   0  0  0  0  0  3  0  0  0  0  0  0
  188.6090  175.0500  141.8750 C   0  0  2  0  0  3  0  0  0  0  0  0
  186.8500  176.4430  142.5110 N   0  0  0  0  0  0  0  0  0  0  0  0
  191.0350  176.5590  145.1210 C   0  0  0  0  0  2  0  0  0  0  0  0
  188.8070  177.7030  146.0000 O   0  0  0  0  0  1  0  0  0  0  0  0
  184.1180  177.9190  142.5710 O   0  0  0  0  0  0  0  0  0  0  0  0
  188.8520  176.3570  143.9070 C   0  0  0  0  0  0  0  0  0  0  0  0
  186.3170  177.3250  143.3810 C   0  0  0  0  0  0  0  0  0  0  0  0
  195.4760  172.9040  145.6750 N   0  0  0  0  0  2  0  0  0  0  0  0
  195.0450  172.0430  144.5860 C   0  0  0  0  0  3  0  0  0  0  0  0
  193.9430  171.1270  145.0750 C   0  0  0  0  0  1  0  0  0  0  0  0
  196.2110  171.2060  144.0990 C   0  0  0  0  0  1  0  0  0  0  0  0
  1 20  1  0  0  0  0
  1 16  1  1  0  0  0
  2 24  1  6  0  0  0
  3 11  2  0  0  0  0
  4  3  1  0  0  0  0
  4 21  2  0  0  0  0
  5 25  1  0  0  0  0
  6  5  1  0  0  0  0
  6 18  1  0  0  0  0
  7 24  1  6  0  0  0
  7 19  1  0  0  0  0
  8 17  1  0  0  0  0
  9 15  1  0  0  0  0
 10  1  1  0  0  0  0
 10 20  1  0  0  0  0
 11 13  1  0  0  0  0
 12  8  1  0  0  0  0
 12  2  1  0  0  0  0
 13 12  1  0  0  0  0
 14 27  1  0  0  0  0
 15 18  2  0  0  0  0
 16 19  1  0  0  0  0
 17 10  1  0  0  0  0
 17  7  1  0  0  0  0
 21 22  1  0  0  0  0
 22 13  1  0  0  0  0
 22 14  1  0  0  0  0
 23 14  2  0  0  0  0
 23 28  1  0  0  0  0
 26  9  2  0  0  0  0
 27  2  1  0  0  0  0
 27  5  2  0  0  0  0
 28  9  1  0  0  0  0
 28  6  2  0  0  0  0
 29 20  1  0  0  0  0
 30 31  1  0  0  0  0
 30 29  1  0  0  0  0
 32 30  1  0  0  0  0
M  END
>  <MODEL>
9

>  <REMARK>
 VINA RESULT:      -7.9      2.697      5.058
  Name = 
  2 active torsions:
  status: ('A' for Active; 'I' for Inactive)
    1  A    between atoms: C_20  and  N_29
    2  A    between atoms: N_29  and  C_30
                            x       y       z     vdW  Elec       q    Type
                         _______ _______ _______ _____ _____    ______ ____

>  <TORSDO>
F 2

$$$$
