=
 OpenBabel11112416533D

 31 35  0  0  1  0  0  0  0  0999 V2000
  185.4930  177.7760  146.2910 C   0  0  0  0  0  0  0  0  0  0  0  0
  187.3880  175.9810  143.5850 N   0  0  0  0  0  0  0  0  0  0  0  0
  186.9320  176.4730  142.2990 C   0  0  0  0  0  0  0  0  0  0  0  0
  185.4920  177.8910  140.9400 C   0  0  0  0  0  0  0  0  0  0  0  0
  187.0690  176.6690  144.8100 C   0  0  0  0  0  0  0  0  0  0  0  0
  186.5200  178.0160  147.2090 C   0  0  0  0  0  3  0  0  0  0  0  0
  185.8610  177.3740  142.1840 C   0  0  0  0  0  3  0  0  0  0  0  0
  189.7190  175.9770  144.1070 N   0  0  0  0  0  0  0  0  0  0  0  0
  184.1120  178.2370  146.5830 C   0  0  0  0  0  1  0  0  0  0  0  0
  188.6960  175.2140  141.2210 O   0  0  0  0  0  0  0  0  0  0  0  0
  184.4260  178.7750  140.8450 O   0  0  0  0  0  1  0  0  0  0  0  0
  189.4830  176.3590  145.5070 C   0  0  0  0  0  2  0  0  0  0  0  0
  188.5930  175.1400  143.6650 C   0  0  2  0  0  3  0  0  0  0  0  0
  185.7650  177.1010  145.0990 C   0  0  0  0  0  3  0  0  0  0  0  0
  186.2010  177.5260  139.7940 C   0  0  0  0  0  3  0  0  0  0  0  0
  188.0990  176.9110  145.7420 C   0  0  0  0  0  0  0  0  0  0  0  0
  187.8180  177.5770  146.9380 C   0  0  0  0  0  3  0  0  0  0  0  0
  188.8530  174.3740  142.3570 C   0  0  0  0  0  2  0  0  0  0  0  0
  187.6280  176.1020  141.1340 C   0  0  0  0  0  0  0  0  0  0  0  0
  187.2700  176.6330  139.8920 C   0  0  0  0  0  3  0  0  0  0  0  0
  190.9540  175.1990  144.1050 C   0  0  0  0  0  2  0  0  0  0  0  0
  192.1760  174.5840  146.2010 C   0  0  0  0  0  1  0  0  0  0  0  0
  191.8820  175.6940  145.2080 C   0  0  1  0  0  3  0  0  0  0  0  0
  195.8790  176.5180  143.7420 C   0  0  0  0  0  0  0  0  0  0  0  0
  193.3250  176.1430  143.2160 C   0  0  0  0  0  2  0  0  0  0  0  0
  193.9530  177.0940  146.6810 O   0  0  0  0  0  0  0  0  0  0  0  0
  197.1240  176.9020  143.1740 N   0  0  0  0  0  1  0  0  0  0  0  0
  194.8870  175.2630  142.9110 S   0  0  0  0  0  0  0  0  0  0  0  0
  194.1650  176.8060  145.4740 C   0  0  0  0  0  0  0  0  0  0  0  0
  193.1170  176.2500  144.6540 N   0  0  0  0  0  0  0  0  0  0  0  0
  195.4940  177.0620  144.8980 C   0  0  0  0  0  3  0  0  0  0  0  0
  1  9  1  0  0  0  0
  1  6  1  0  0  0  0
  2 13  1  0  0  0  0
  2  5  1  0  0  0  0
  3  2  1  0  0  0  0
  4  7  2  0  0  0  0
  5 14  1  0  0  0  0
  5 16  2  0  0  0  0
  7  3  1  0  0  0  0
  8 12  1  0  0  0  0
 10 18  1  0  0  0  0
 11  4  1  0  0  0  0
 12 16  1  0  0  0  0
 13 18  1  6  0  0  0
 13  8  1  0  0  0  0
 14  1  2  0  0  0  0
 15 20  2  0  0  0  0
 15  4  1  0  0  0  0
 16 17  1  0  0  0  0
 17  6  2  0  0  0  0
 19 10  1  0  0  0  0
 19  3  2  0  0  0  0
 20 19  1  0  0  0  0
 21  8  1  0  0  0  0
 21 23  1  0  0  0  0
 23 22  1  1  0  0  0
 24 31  2  0  0  0  0
 25 30  1  0  0  0  0
 27 24  1  0  0  0  0
 28 25  1  0  0  0  0
 28 24  1  0  0  0  0
 29 26  2  0  0  0  0
 30 23  1  0  0  0  0
 30 29  1  0  0  0  0
 31 29  1  0  0  0  0
M  END
>  <MODEL>
1

>  <REMARK>
 VINA RESULT:      -8.7      0.000      0.000
  Name = 
  3 active torsions:
  status: ('A' for Active; 'I' for Inactive)
    1  A    between atoms: C_5  and  C_16
    2  A    between atoms: C_5  and  N_30
    3  A    between atoms: N_10  and  C_16
                            x       y       z     vdW  Elec       q    Type
                         _______ _______ _______ _____ _____    ______ ____

>  <TORSDO>
F 3

$$$$
=
 OpenBabel11112416533D

 31 35  0  0  1  0  0  0  0  0999 V2000
  185.4810  178.1670  146.6500 C   0  0  0  0  0  0  0  0  0  0  0  0
  188.0040  175.9550  144.9530 N   0  0  0  0  0  0  0  0  0  0  0  0
  187.8000  176.0370  143.5200 C   0  0  0  0  0  0  0  0  0  0  0  0
  186.5950  176.8750  141.5760 C   0  0  0  0  0  0  0  0  0  0  0  0
  187.3960  176.8990  145.8560 C   0  0  0  0  0  0  0  0  0  0  0  0
  186.2770  178.7560  147.6370 C   0  0  0  0  0  3  0  0  0  0  0  0
  186.7240  176.7480  142.9610 C   0  0  0  0  0  3  0  0  0  0  0  0
  190.1700  176.3550  145.8780 N   0  0  0  0  0  0  0  0  0  0  0  0
  184.0450  178.5280  146.5400 C   0  0  0  0  0  1  0  0  0  0  0  0
  189.8220  174.7500  143.1830 O   0  0  0  0  0  0  0  0  0  0  0  0
  185.5220  177.5760  141.0420 O   0  0  0  0  0  1  0  0  0  0  0  0
  189.6240  177.0610  147.0460 C   0  0  0  0  0  2  0  0  0  0  0  0
  189.2130  175.3080  145.4880 C   0  0  2  0  0  3  0  0  0  0  0  0
  186.0370  177.2390  145.7660 C   0  0  0  0  0  3  0  0  0  0  0  0
  187.5480  176.3060  140.7300 C   0  0  0  0  0  3  0  0  0  0  0  0
  188.1910  177.4930  146.8570 C   0  0  0  0  0  0  0  0  0  0  0  0
  187.6270  178.4120  147.7450 C   0  0  0  0  0  3  0  0  0  0  0  0
  189.7870  174.2610  144.5170 C   0  0  0  0  0  2  0  0  0  0  0  0
  188.7450  175.4570  142.6550 C   0  0  0  0  0  0  0  0  0  0  0  0
  188.6240  175.5990  141.2700 C   0  0  0  0  0  3  0  0  0  0  0  0
  191.4220  175.7510  146.3220 C   0  0  0  0  0  2  0  0  0  0  0  0
  193.7460  176.6110  146.6820 C   0  0  0  0  0  1  0  0  0  0  0  0
  192.6040  176.4790  145.6900 C   0  0  1  0  0  3  0  0  0  0  0  0
  194.6180  175.0640  142.1200 C   0  0  0  0  0  0  0  0  0  0  0  0
  193.8370  174.6000  144.5940 C   0  0  0  0  0  2  0  0  0  0  0  0
  191.9680  177.2820  142.9770 O   0  0  0  0  0  0  0  0  0  0  0  0
  195.1970  174.4660  140.9680 N   0  0  0  0  0  1  0  0  0  0  0  0
  195.4160  174.8330  143.7210 S   0  0  0  0  0  0  0  0  0  0  0  0
  192.8040  176.3570  143.1480 C   0  0  0  0  0  0  0  0  0  0  0  0
  193.0420  175.8140  144.4620 N   0  0  0  0  0  0  0  0  0  0  0  0
  193.5240  175.8160  141.9850 C   0  0  0  0  0  3  0  0  0  0  0  0
  1  6  1  0  0  0  0
  2 13  1  0  0  0  0
  2  5  1  0  0  0  0
  3  2  1  0  0  0  0
  4  7  2  0  0  0  0
  5 16  2  0  0  0  0
  6 17  2  0  0  0  0
  7  3  1  0  0  0  0
  8 21  1  0  0  0  0
  8 12  1  0  0  0  0
  9  1  1  0  0  0  0
 10 18  1  0  0  0  0
 11  4  1  0  0  0  0
 13 18  1  6  0  0  0
 13  8  1  0  0  0  0
 14  5  1  0  0  0  0
 14  1  2  0  0  0  0
 15 20  2  0  0  0  0
 15  4  1  0  0  0  0
 16 12  1  0  0  0  0
 16 17  1  0  0  0  0
 19 10  1  0  0  0  0
 19  3  2  0  0  0  0
 20 19  1  0  0  0  0
 23 21  1  0  0  0  0
 23 22  1  1  0  0  0
 24 28  1  0  0  0  0
 26 29  2  0  0  0  0
 27 24  1  0  0  0  0
 28 25  1  0  0  0  0
 29 30  1  0  0  0  0
 30 25  1  0  0  0  0
 30 23  1  0  0  0  0
 31 24  2  0  0  0  0
 31 29  1  0  0  0  0
M  END
>  <MODEL>
2

>  <REMARK>
 VINA RESULT:      -8.6      1.648      2.056
  Name = 
  3 active torsions:
  status: ('A' for Active; 'I' for Inactive)
    1  A    between atoms: C_5  and  C_16
    2  A    between atoms: C_5  and  N_30
    3  A    between atoms: N_10  and  C_16
                            x       y       z     vdW  Elec       q    Type
                         _______ _______ _______ _____ _____    ______ ____

>  <TORSDO>
F 3

$$$$
=
 OpenBabel11112416533D

 31 35  0  0  1  0  0  0  0  0999 V2000
  185.2680  177.9000  146.3040 C   0  0  0  0  0  0  0  0  0  0  0  0
  187.3090  176.1010  143.7100 N   0  0  0  0  0  0  0  0  0  0  0  0
  186.8850  176.5480  142.3970 C   0  0  0  0  0  0  0  0  0  0  0  0
  185.4520  177.8900  140.9550 C   0  0  0  0  0  0  0  0  0  0  0  0
  186.9270  176.8070  144.9060 C   0  0  0  0  0  0  0  0  0  0  0  0
  186.2540  178.1930  147.2510 C   0  0  0  0  0  3  0  0  0  0  0  0
  185.7920  177.4130  142.2230 C   0  0  0  0  0  3  0  0  0  0  0  0
  189.6190  176.1790  144.3120 N   0  0  0  0  0  0  0  0  0  0  0  0
  183.8650  178.3260  146.5370 C   0  0  0  0  0  1  0  0  0  0  0  0
  188.7220  175.3180  141.4110 O   0  0  0  0  0  0  0  0  0  0  0  0
  184.3650  178.7390  140.8020 O   0  0  0  0  0  1  0  0  0  0  0  0
  189.3230  176.5870  145.6930 C   0  0  0  0  0  2  0  0  0  0  0  0
  188.5350  175.2980  143.8520 C   0  0  2  0  0  3  0  0  0  0  0  0
  185.6020  177.2050  145.1390 C   0  0  0  0  0  3  0  0  0  0  0  0
  186.2110  177.5200  139.8430 C   0  0  0  0  0  3  0  0  0  0  0  0
  187.9160  177.1010  145.8670 C   0  0  0  0  0  0  0  0  0  0  0  0
  187.5740  177.7870  147.0360 C   0  0  0  0  0  3  0  0  0  0  0  0
  188.8640  174.5100  142.5720 C   0  0  0  0  0  2  0  0  0  0  0  0
  187.6320  176.1720  141.2660 C   0  0  0  0  0  0  0  0  0  0  0  0
  187.3020  176.6630  140.0000 C   0  0  0  0  0  3  0  0  0  0  0  0
  190.8760  175.4390  144.3710 C   0  0  0  0  0  2  0  0  0  0  0  0
  191.9970  177.6280  143.8990 C   0  0  0  0  0  1  0  0  0  0  0  0
  191.9390  176.1530  143.5430 C   0  0  1  0  0  3  0  0  0  0  0  0
  196.0480  175.0600  144.3960 C   0  0  0  0  0  0  0  0  0  0  0  0
  193.4840  174.7340  144.9040 C   0  0  0  0  0  2  0  0  0  0  0  0
  194.1210  176.2160  141.6330 O   0  0  0  0  0  0  0  0  0  0  0  0
  197.3470  174.5510  144.6690 N   0  0  0  0  0  1  0  0  0  0  0  0
  194.9340  175.4050  145.7710 S   0  0  0  0  0  0  0  0  0  0  0  0
  194.3320  175.7150  142.7690 C   0  0  0  0  0  0  0  0  0  0  0  0
  193.2490  175.5190  143.7000 N   0  0  0  0  0  0  0  0  0  0  0  0
  195.6990  175.3100  143.1320 C   0  0  0  0  0  3  0  0  0  0  0  0
  1  9  1  0  0  0  0
  1  6  1  0  0  0  0
  2 13  1  0  0  0  0
  2  5  1  0  0  0  0
  3  2  1  0  0  0  0
  4  7  2  0  0  0  0
  5 14  1  0  0  0  0
  5 16  2  0  0  0  0
  7  3  1  0  0  0  0
  8 21  1  0  0  0  0
  8 12  1  0  0  0  0
 10 18  1  0  0  0  0
 11  4  1  0  0  0  0
 12 16  1  0  0  0  0
 13 18  1  6  0  0  0
 13  8  1  0  0  0  0
 14  1  2  0  0  0  0
 15 20  2  0  0  0  0
 15  4  1  0  0  0  0
 16 17  1  0  0  0  0
 17  6  2  0  0  0  0
 19 10  1  0  0  0  0
 19  3  2  0  0  0  0
 20 19  1  0  0  0  0
 23 30  1  0  0  0  0
 23 22  1  1  0  0  0
 23 21  1  0  0  0  0
 24 27  1  0  0  0  0
 24 28  1  0  0  0  0
 25 28  1  0  0  0  0
 26 29  2  0  0  0  0
 29 31  1  0  0  0  0
 29 30  1  0  0  0  0
 30 25  1  0  0  0  0
 31 24  2  0  0  0  0
M  END
>  <MODEL>
3

>  <REMARK>
 VINA RESULT:      -8.5      1.426      1.653
  Name = 
  3 active torsions:
  status: ('A' for Active; 'I' for Inactive)
    1  A    between atoms: C_5  and  C_16
    2  A    between atoms: C_5  and  N_30
    3  A    between atoms: N_10  and  C_16
                            x       y       z     vdW  Elec       q    Type
                         _______ _______ _______ _____ _____    ______ ____

>  <TORSDO>
F 3

$$$$
=
 OpenBabel11112416533D

 31 35  0  0  1  0  0  0  0  0999 V2000
  185.7810  177.6100  146.5320 C   0  0  0  0  0  0  0  0  0  0  0  0
  187.3360  176.1370  143.4430 N   0  0  0  0  0  0  0  0  0  0  0  0
  186.6820  176.7060  142.2810 C   0  0  0  0  0  0  0  0  0  0  0  0
  185.0070  178.1520  141.2640 C   0  0  0  0  0  0  0  0  0  0  0  0
  187.1700  176.7070  144.7560 C   0  0  0  0  0  0  0  0  0  0  0  0
  186.9180  177.8290  147.3150 C   0  0  0  0  0  3  0  0  0  0  0  0
  185.5700  177.5570  142.3950 C   0  0  0  0  0  3  0  0  0  0  0  0
  189.7160  176.2100  143.6320 N   0  0  0  0  0  0  0  0  0  0  0  0
  184.4390  177.9760  147.0530 C   0  0  0  0  0  1  0  0  0  0  0  0
  188.3200  175.6280  140.8620 O   0  0  0  0  0  0  0  0  0  0  0  0
  183.9040  178.9850  141.3960 O   0  0  0  0  0  1  0  0  0  0  0  0
  189.6690  176.4670  145.0790 C   0  0  0  0  0  2  0  0  0  0  0  0
  188.5720  175.3540  143.2820 C   0  0  2  0  0  3  0  0  0  0  0  0
  185.9050  177.0470  145.2600 C   0  0  0  0  0  3  0  0  0  0  0  0
  185.5570  177.9160  140.0030 C   0  0  0  0  0  3  0  0  0  0  0  0
  188.3120  176.9260  145.5520 C   0  0  0  0  0  0  0  0  0  0  0  0
  188.1800  177.4800  146.8280 C   0  0  0  0  0  3  0  0  0  0  0  0
  188.6720  174.7090  141.8880 C   0  0  0  0  0  2  0  0  0  0  0  0
  187.2170  176.4650  141.0030 C   0  0  0  0  0  0  0  0  0  0  0  0
  186.6640  177.0740  139.8730 C   0  0  0  0  0  3  0  0  0  0  0  0
  190.9680  175.4990  143.3900 C   0  0  0  0  0  2  0  0  0  0  0  0
  190.8870  173.3550  144.6800 C   0  0  0  0  0  1  0  0  0  0  0  0
  191.4110  174.7800  144.6590 C   0  0  1  0  0  3  0  0  0  0  0  0
  195.5840  174.2020  145.6880 C   0  0  0  0  0  0  0  0  0  0  0  0
  193.6590  173.9850  143.9020 C   0  0  0  0  0  2  0  0  0  0  0  0
  192.9190  176.4100  146.5250 O   0  0  0  0  0  0  0  0  0  0  0  0
  196.9860  174.0770  145.8850 N   0  0  0  0  0  1  0  0  0  0  0  0
  194.6890  172.8570  144.8880 S   0  0  0  0  0  0  0  0  0  0  0  0
  193.5350  175.5410  145.8540 C   0  0  0  0  0  0  0  0  0  0  0  0
  192.8670  174.8110  144.8050 N   0  0  0  0  0  0  0  0  0  0  0  0
  194.9570  175.2910  146.1360 C   0  0  0  0  0  3  0  0  0  0  0  0
  1  9  1  0  0  0  0
  1  6  1  0  0  0  0
  2  5  1  0  0  0  0
  3  7  1  0  0  0  0
  3  2  1  0  0  0  0
  4 11  1  0  0  0  0
  4  7  2  0  0  0  0
  5 14  1  0  0  0  0
  5 16  2  0  0  0  0
  8 12  1  0  0  0  0
 10 19  1  0  0  0  0
 10 18  1  0  0  0  0
 12 16  1  0  0  0  0
 13 18  1  6  0  0  0
 13  2  1  0  0  0  0
 13  8  1  0  0  0  0
 14  1  2  0  0  0  0
 15  4  1  0  0  0  0
 16 17  1  0  0  0  0
 17  6  2  0  0  0  0
 19  3  2  0  0  0  0
 20 15  2  0  0  0  0
 20 19  1  0  0  0  0
 21  8  1  0  0  0  0
 21 23  1  0  0  0  0
 23 22  1  6  0  0  0
 23 30  1  0  0  0  0
 24 27  1  0  0  0  0
 24 31  2  0  0  0  0
 25 30  1  0  0  0  0
 25 28  1  0  0  0  0
 28 24  1  0  0  0  0
 29 31  1  0  0  0  0
 29 26  2  0  0  0  0
 30 29  1  0  0  0  0
M  END
>  <MODEL>
4

>  <REMARK>
 VINA RESULT:      -8.4      1.383      1.428
  Name = 
  3 active torsions:
  status: ('A' for Active; 'I' for Inactive)
    1  A    between atoms: C_5  and  C_16
    2  A    between atoms: C_5  and  N_30
    3  A    between atoms: N_10  and  C_16
                            x       y       z     vdW  Elec       q    Type
                         _______ _______ _______ _____ _____    ______ ____

>  <TORSDO>
F 3

$$$$
=
 OpenBabel11112416533D

 31 35  0  0  1  0  0  0  0  0999 V2000
  186.2480  178.2150  146.4490 C   0  0  0  0  0  0  0  0  0  0  0  0
  189.1740  177.0970  144.3700 N   0  0  0  0  0  0  0  0  0  0  0  0
  190.2770  176.7820  145.2570 C   0  0  0  0  0  0  0  0  0  0  0  0
  191.2550  176.6330  147.4820 C   0  0  0  0  0  0  0  0  0  0  0  0
  187.8330  177.2730  144.8670 C   0  0  0  0  0  0  0  0  0  0  0  0
  185.2000  177.5600  145.7940 C   0  0  0  0  0  3  0  0  0  0  0  0
  190.2090  177.0170  146.6400 C   0  0  0  0  0  3  0  0  0  0  0  0
  188.4440  175.4970  142.7530 N   0  0  0  0  0  0  0  0  0  0  0  0
  185.9680  179.0590  147.6380 C   0  0  0  0  0  1  0  0  0  0  0  0
  191.5120  175.9040  143.3690 O   0  0  0  0  0  0  0  0  0  0  0  0
  191.1740  176.8790  148.8460 O   0  0  0  0  0  1  0  0  0  0  0  0
  187.0260  175.8420  142.9410 C   0  0  0  0  0  2  0  0  0  0  0  0
  189.2410  176.7170  142.9490 C   0  0  2  0  0  3  0  0  0  0  0  0
  187.5580  178.0760  145.9850 C   0  0  0  0  0  3  0  0  0  0  0  0
  192.3790  175.9950  146.9540 C   0  0  0  0  0  3  0  0  0  0  0  0
  186.7720  176.6190  144.2090 C   0  0  0  0  0  0  0  0  0  0  0  0
  185.4620  176.7700  144.6710 C   0  0  0  0  0  3  0  0  0  0  0  0
  190.6910  176.6080  142.4460 C   0  0  0  0  0  2  0  0  0  0  0  0
  191.4210  176.1510  144.7360 C   0  0  0  0  0  0  0  0  0  0  0  0
  192.4600  175.7520  145.5810 C   0  0  0  0  0  3  0  0  0  0  0  0
  188.5660  175.0320  141.3750 C   0  0  0  0  0  2  0  0  0  0  0  0
  188.2430  173.0480  139.8840 C   0  0  0  0  0  1  0  0  0  0  0  0
  188.3920  173.5190  141.3190 C   0  0  1  0  0  3  0  0  0  0  0  0
  191.7240  172.2510  143.7880 C   0  0  0  0  0  0  0  0  0  0  0  0
  189.1790  172.0080  143.1500 C   0  0  0  0  0  2  0  0  0  0  0  0
  191.1790  173.5470  140.5170 O   0  0  0  0  0  0  0  0  0  0  0  0
  192.7710  171.6870  144.5660 N   0  0  0  0  0  1  0  0  0  0  0  0
  190.1400  172.6030  144.5740 S   0  0  0  0  0  0  0  0  0  0  0  0
  190.8760  173.0110  141.6140 C   0  0  0  0  0  0  0  0  0  0  0  0
  189.4960  172.8320  141.9900 N   0  0  0  0  0  0  0  0  0  0  0  0
  191.9500  172.5460  142.5060 C   0  0  0  0  0  3  0  0  0  0  0  0
  1  9  1  0  0  0  0
  2  5  1  0  0  0  0
  2  3  1  0  0  0  0
  3  7  1  0  0  0  0
  4 11  1  0  0  0  0
  5 14  2  0  0  0  0
  6  1  2  0  0  0  0
  7  4  2  0  0  0  0
  8 12  1  0  0  0  0
  8 13  1  0  0  0  0
 10 19  1  0  0  0  0
 12 16  1  0  0  0  0
 13 18  1  1  0  0  0
 13  2  1  0  0  0  0
 14  1  1  0  0  0  0
 15  4  1  0  0  0  0
 16 17  2  0  0  0  0
 16  5  1  0  0  0  0
 17  6  1  0  0  0  0
 18 10  1  0  0  0  0
 19  3  2  0  0  0  0
 19 20  1  0  0  0  0
 20 15  2  0  0  0  0
 21  8  1  0  0  0  0
 23 22  1  6  0  0  0
 23 21  1  0  0  0  0
 23 30  1  0  0  0  0
 24 27  1  0  0  0  0
 24 28  1  0  0  0  0
 25 28  1  0  0  0  0
 26 29  2  0  0  0  0
 29 30  1  0  0  0  0
 29 31  1  0  0  0  0
 30 25  1  0  0  0  0
 31 24  2  0  0  0  0
M  END
>  <MODEL>
5

>  <REMARK>
 VINA RESULT:      -8.0      2.993      5.474
  Name = 
  3 active torsions:
  status: ('A' for Active; 'I' for Inactive)
    1  A    between atoms: C_5  and  C_16
    2  A    between atoms: C_5  and  N_30
    3  A    between atoms: N_10  and  C_16
                            x       y       z     vdW  Elec       q    Type
                         _______ _______ _______ _____ _____    ______ ____

>  <TORSDO>
F 3

$$$$
=
 OpenBabel11112416533D

 31 35  0  0  1  0  0  0  0  0999 V2000
  186.8560  177.1880  141.0490 C   0  0  0  0  0  0  0  0  0  0  0  0
  188.2620  177.3510  144.5320 N   0  0  0  0  0  0  0  0  0  0  0  0
  187.2040  177.7540  145.4380 C   0  0  0  0  0  0  0  0  0  0  0  0
  184.9080  178.4390  145.8740 C   0  0  0  0  0  0  0  0  0  0  0  0
  187.9780  176.9190  143.1870 C   0  0  0  0  0  0  0  0  0  0  0  0
  187.4560  176.0140  140.5830 C   0  0  0  0  0  3  0  0  0  0  0  0
  185.9320  178.1290  144.9760 C   0  0  0  0  0  3  0  0  0  0  0  0
  189.5310  175.3770  144.9770 N   0  0  0  0  0  0  0  0  0  0  0  0
  185.9390  177.9530  140.1670 C   0  0  0  0  0  1  0  0  0  0  0  0
  188.6770  177.3230  147.3100 O   0  0  0  0  0  0  0  0  0  0  0  0
  183.6590  178.8140  145.3990 O   0  0  0  0  0  1  0  0  0  0  0  0
  189.5950  175.0070  143.5550 C   0  0  0  0  0  2  0  0  0  0  0  0
  189.5360  176.8450  145.0680 C   0  0  2  0  0  3  0  0  0  0  0  0
  187.1200  177.6410  142.3430 C   0  0  0  0  0  3  0  0  0  0  0  0
  185.1380  178.3630  147.2490 C   0  0  0  0  0  3  0  0  0  0  0  0
  188.5830  175.7390  142.7090 C   0  0  0  0  0  0  0  0  0  0  0  0
  188.3240  175.2960  141.4090 C   0  0  0  0  0  3  0  0  0  0  0  0
  189.8280  177.3870  146.4780 C   0  0  0  0  0  2  0  0  0  0  0  0
  187.4260  177.6950  146.8250 C   0  0  0  0  0  0  0  0  0  0  0  0
  186.3960  177.9880  147.7240 C   0  0  0  0  0  3  0  0  0  0  0  0
  190.7380  174.8310  145.5890 C   0  0  0  0  0  2  0  0  0  0  0  0
  192.7820  175.6060  144.3680 C   0  0  0  0  0  1  0  0  0  0  0  0
  191.7610  174.4920  144.5110 C   0  0  1  0  0  3  0  0  0  0  0  0
  194.1190  170.8530  144.5300 C   0  0  0  0  0  0  0  0  0  0  0  0
  193.6330  173.2210  145.5760 C   0  0  0  0  0  2  0  0  0  0  0  0
  190.8110  171.8740  143.7000 O   0  0  0  0  0  0  0  0  0  0  0  0
  194.8720  169.6580  144.6930 N   0  0  0  0  0  1  0  0  0  0  0  0
  194.9670  172.4410  144.6170 S   0  0  0  0  0  0  0  0  0  0  0  0
  191.9530  171.9620  144.2210 C   0  0  0  0  0  0  0  0  0  0  0  0
  192.4120  173.2090  144.7820 N   0  0  0  0  0  0  0  0  0  0  0  0
  192.8120  170.7690  144.2750 C   0  0  0  0  0  3  0  0  0  0  0  0
  1 14  1  0  0  0  0
  2 13  1  0  0  0  0
  2  3  1  0  0  0  0
  3 19  1  0  0  0  0
  4 15  2  0  0  0  0
  5  2  1  0  0  0  0
  6  1  2  0  0  0  0
  6 17  1  0  0  0  0
  7  3  2  0  0  0  0
  7  4  1  0  0  0  0
  8 13  1  0  0  0  0
  8 21  1  0  0  0  0
  9  1  1  0  0  0  0
 11  4  1  0  0  0  0
 12  8  1  0  0  0  0
 13 18  1  1  0  0  0
 14  5  2  0  0  0  0
 15 20  1  0  0  0  0
 16  5  1  0  0  0  0
 16 12  1  0  0  0  0
 17 16  2  0  0  0  0
 18 10  1  0  0  0  0
 19 10  1  0  0  0  0
 19 20  2  0  0  0  0
 23 22  1  1  0  0  0
 23 30  1  0  0  0  0
 23 21  1  0  0  0  0
 24 28  1  0  0  0  0
 24 27  1  0  0  0  0
 26 29  2  0  0  0  0
 28 25  1  0  0  0  0
 29 31  1  0  0  0  0
 29 30  1  0  0  0  0
 30 25  1  0  0  0  0
 31 24  2  0  0  0  0
M  END
>  <MODEL>
6

>  <REMARK>
 VINA RESULT:      -8.0      2.665      4.929
  Name = 
  3 active torsions:
  status: ('A' for Active; 'I' for Inactive)
    1  A    between atoms: C_5  and  C_16
    2  A    between atoms: C_5  and  N_30
    3  A    between atoms: N_10  and  C_16
                            x       y       z     vdW  Elec       q    Type
                         _______ _______ _______ _____ _____    ______ ____

>  <TORSDO>
F 3

$$$$
=
 OpenBabel11112416533D

 31 35  0  0  1  0  0  0  0  0999 V2000
  191.4790  171.1340  143.2280 C   0  0  0  0  0  0  0  0  0  0  0  0
  191.0530  174.1220  145.4690 N   0  0  0  0  0  0  0  0  0  0  0  0
  192.3650  174.6620  145.7740 C   0  0  0  0  0  0  0  0  0  0  0  0
  194.7940  174.6020  145.6010 C   0  0  0  0  0  0  0  0  0  0  0  0
  190.8600  173.1640  144.4110 C   0  0  0  0  0  0  0  0  0  0  0  0
  190.4380  171.3430  142.3190 C   0  0  0  0  0  3  0  0  0  0  0  0
  193.5460  174.0220  145.3620 C   0  0  0  0  0  3  0  0  0  0  0  0
  189.3490  175.5470  144.5910 N   0  0  0  0  0  0  0  0  0  0  0  0
  192.3650  169.9510  143.0840 C   0  0  0  0  0  1  0  0  0  0  0  0
  191.3090  176.5560  146.8480 O   0  0  0  0  0  0  0  0  0  0  0  0
  195.9500  173.9530  145.1930 O   0  0  0  0  0  1  0  0  0  0  0  0
  188.8390  174.5050  143.6870 C   0  0  0  0  0  2  0  0  0  0  0  0
  189.8450  174.8910  145.8100 C   0  0  2  0  0  3  0  0  0  0  0  0
  191.6860  172.0380  144.2730 C   0  0  0  0  0  3  0  0  0  0  0  0
  194.8770  175.8390  146.2440 C   0  0  0  0  0  3  0  0  0  0  0  0
  189.8090  173.3660  143.4940 C   0  0  0  0  0  0  0  0  0  0  0  0
  189.6000  172.4520  142.4570 C   0  0  0  0  0  3  0  0  0  0  0  0
  190.0830  175.8520  146.9890 C   0  0  0  0  0  2  0  0  0  0  0  0
  192.4640  175.9000  146.4320 C   0  0  0  0  0  0  0  0  0  0  0  0
  193.7120  176.4880  146.6570 C   0  0  0  0  0  3  0  0  0  0  0  0
  188.2070  176.3990  144.9070 C   0  0  0  0  0  2  0  0  0  0  0  0
  189.3510  177.5660  143.0110 C   0  0  0  0  0  1  0  0  0  0  0  0
  188.1450  177.5690  143.9320 C   0  0  1  0  0  3  0  0  0  0  0  0
  184.8240  178.2300  141.2230 C   0  0  0  0  0  0  0  0  0  0  0  0
  186.8220  176.6970  141.9980 C   0  0  0  0  0  2  0  0  0  0  0  0
  185.7260  179.0380  144.5710 O   0  0  0  0  0  0  0  0  0  0  0  0
  183.6940  178.2960  140.3630 N   0  0  0  0  0  1  0  0  0  0  0  0
  186.4120  177.7110  140.5450 S   0  0  0  0  0  0  0  0  0  0  0  0
  185.7850  178.4280  143.4720 C   0  0  0  0  0  0  0  0  0  0  0  0
  186.8960  177.5590  143.1700 N   0  0  0  0  0  0  0  0  0  0  0  0
  184.6930  178.5920  142.5000 C   0  0  0  0  0  3  0  0  0  0  0  0
  1 14  1  0  0  0  0
  2  3  1  0  0  0  0
  2 13  1  0  0  0  0
  3 19  1  0  0  0  0
  4 15  2  0  0  0  0
  5  2  1  0  0  0  0
  6 17  1  0  0  0  0
  6  1  2  0  0  0  0
  7  4  1  0  0  0  0
  7  3  2  0  0  0  0
  8 21  1  0  0  0  0
  8 13  1  0  0  0  0
  9  1  1  0  0  0  0
 10 18  1  0  0  0  0
 11  4  1  0  0  0  0
 12  8  1  0  0  0  0
 13 18  1  1  0  0  0
 14  5  2  0  0  0  0
 15 20  1  0  0  0  0
 16 12  1  0  0  0  0
 16  5  1  0  0  0  0
 17 16  2  0  0  0  0
 19 20  2  0  0  0  0
 19 10  1  0  0  0  0
 23 22  1  6  0  0  0
 23 21  1  0  0  0  0
 24 31  2  0  0  0  0
 25 30  1  0  0  0  0
 27 24  1  0  0  0  0
 28 24  1  0  0  0  0
 28 25  1  0  0  0  0
 29 26  2  0  0  0  0
 30 29  1  0  0  0  0
 30 23  1  0  0  0  0
 31 29  1  0  0  0  0
M  END
>  <MODEL>
7

>  <REMARK>
 VINA RESULT:      -7.9      3.077      8.198
  Name = 
  3 active torsions:
  status: ('A' for Active; 'I' for Inactive)
    1  A    between atoms: C_5  and  C_16
    2  A    between atoms: C_5  and  N_30
    3  A    between atoms: N_10  and  C_16
                            x       y       z     vdW  Elec       q    Type
                         _______ _______ _______ _____ _____    ______ ____

>  <TORSDO>
F 3

$$$$
=
 OpenBabel11112416533D

 31 35  0  0  1  0  0  0  0  0999 V2000
  187.0720  177.1840  141.1320 C   0  0  0  0  0  0  0  0  0  0  0  0
  188.2490  177.4520  144.6930 N   0  0  0  0  0  0  0  0  0  0  0  0
  187.1300  177.8620  145.5190 C   0  0  0  0  0  0  0  0  0  0  0  0
  184.8020  178.5250  145.7900 C   0  0  0  0  0  0  0  0  0  0  0  0
  188.0570  176.9840  143.3440 C   0  0  0  0  0  0  0  0  0  0  0  0
  187.7150  176.0080  140.7360 C   0  0  0  0  0  3  0  0  0  0  0  0
  185.8850  178.2080  144.9670 C   0  0  0  0  0  3  0  0  0  0  0  0
  189.5110  175.5080  145.2680 N   0  0  0  0  0  0  0  0  0  0  0  0
  186.2030  177.9150  140.1750 C   0  0  0  0  0  1  0  0  0  0  0  0
  188.4850  177.4980  147.4910 O   0  0  0  0  0  0  0  0  0  0  0  0
  183.5810  178.8720  145.2270 O   0  0  0  0  0  1  0  0  0  0  0  0
  189.6710  175.1040  143.8630 C   0  0  0  0  0  2  0  0  0  0  0  0
  189.4920  176.9780  145.3220 C   0  0  2  0  0  3  0  0  0  0  0  0
  187.2460  177.6730  142.4290 C   0  0  0  0  0  3  0  0  0  0  0  0
  184.9440  178.4860  147.1780 C   0  0  0  0  0  3  0  0  0  0  0  0
  188.7060  175.8010  142.9360 C   0  0  0  0  0  0  0  0  0  0  0  0
  188.5370  175.3220  141.6340 C   0  0  0  0  0  3  0  0  0  0  0  0
  189.6860  177.5580  146.7340 C   0  0  0  0  0  2  0  0  0  0  0  0
  187.2630  177.8410  146.9190 C   0  0  0  0  0  0  0  0  0  0  0  0
  186.1740  178.1410  147.7420 C   0  0  0  0  0  3  0  0  0  0  0  0
  190.6830  174.9950  145.9700 C   0  0  0  0  0  2  0  0  0  0  0  0
  192.8270  176.2040  146.4290 C   0  0  0  0  0  1  0  0  0  0  0  0
  191.9530  175.5770  145.3580 C   0  0  1  0  0  3  0  0  0  0  0  0
  194.8000  172.7610  143.6950 C   0  0  0  0  0  0  0  0  0  0  0  0
  192.5590  173.1750  145.0160 C   0  0  0  0  0  2  0  0  0  0  0  0
  193.5950  176.0410  143.0130 O   0  0  0  0  0  0  0  0  0  0  0  0
  195.6100  171.7600  143.0910 N   0  0  0  0  0  1  0  0  0  0  0  0
  194.2130  172.5130  145.3820 S   0  0  0  0  0  0  0  0  0  0  0  0
  193.5990  174.8930  143.5300 C   0  0  0  0  0  0  0  0  0  0  0  0
  192.6890  174.5650  144.5990 N   0  0  0  0  0  0  0  0  0  0  0  0
  194.5300  173.8770  143.0160 C   0  0  0  0  0  3  0  0  0  0  0  0
  1 14  1  0  0  0  0
  2 13  1  0  0  0  0
  2  3  1  0  0  0  0
  3 19  1  0  0  0  0
  4 15  2  0  0  0  0
  5  2  1  0  0  0  0
  6  1  2  0  0  0  0
  6 17  1  0  0  0  0
  7  3  2  0  0  0  0
  7  4  1  0  0  0  0
  8 13  1  0  0  0  0
  8 21  1  0  0  0  0
  9  1  1  0  0  0  0
 11  4  1  0  0  0  0
 12  8  1  0  0  0  0
 13 18  1  1  0  0  0
 14  5  2  0  0  0  0
 15 20  1  0  0  0  0
 16  5  1  0  0  0  0
 16 12  1  0  0  0  0
 17 16  2  0  0  0  0
 18 10  1  0  0  0  0
 19 10  1  0  0  0  0
 19 20  2  0  0  0  0
 23 21  1  0  0  0  0
 23 22  1  1  0  0  0
 24 28  1  0  0  0  0
 25 28  1  0  0  0  0
 26 29  2  0  0  0  0
 27 24  1  0  0  0  0
 29 30  1  0  0  0  0
 30 25  1  0  0  0  0
 30 23  1  0  0  0  0
 31 29  1  0  0  0  0
 31 24  2  0  0  0  0
M  END
>  <MODEL>
8

>  <REMARK>
 VINA RESULT:      -7.9      2.323      4.441
  Name = 
  3 active torsions:
  status: ('A' for Active; 'I' for Inactive)
    1  A    between atoms: C_5  and  C_16
    2  A    between atoms: C_5  and  N_30
    3  A    between atoms: N_10  and  C_16
                            x       y       z     vdW  Elec       q    Type
                         _______ _______ _______ _____ _____    ______ ____

>  <TORSDO>
F 3

$$$$
=
 OpenBabel11112416533D

 31 35  0  0  1  0  0  0  0  0999 V2000
  195.0120  174.7350  145.4730 C   0  0  0  0  0  0  0  0  0  0  0  0
  191.7870  174.9060  143.5480 N   0  0  0  0  0  0  0  0  0  0  0  0
  191.4170  173.5620  143.1470 C   0  0  0  0  0  0  0  0  0  0  0  0
  191.8450  171.1670  143.0470 C   0  0  0  0  0  0  0  0  0  0  0  0
  192.8080  175.1430  144.5370 C   0  0  0  0  0  0  0  0  0  0  0  0
  194.7450  175.6390  146.5050 C   0  0  0  0  0  3  0  0  0  0  0  0
  192.2590  172.4610  143.3730 C   0  0  0  0  0  3  0  0  0  0  0  0
  190.2240  176.2780  144.7230 N   0  0  0  0  0  0  0  0  0  0  0  0
  196.3190  174.0320  145.4210 C   0  0  0  0  0  1  0  0  0  0  0  0
  189.2930  174.4110  142.3560 O   0  0  0  0  0  0  0  0  0  0  0  0
  192.6920  170.0910  143.2710 O   0  0  0  0  0  1  0  0  0  0  0  0
  191.2650  176.8540  145.5880 C   0  0  0  0  0  2  0  0  0  0  0  0
  190.8220  176.0080  143.4060 C   0  0  2  0  0  3  0  0  0  0  0  0
  194.0500  174.4920  144.4900 C   0  0  0  0  0  3  0  0  0  0  0  0
  190.5760  170.9550  142.5040 C   0  0  0  0  0  3  0  0  0  0  0  0
  192.5460  176.0580  145.5780 C   0  0  0  0  0  0  0  0  0  0  0  0
  193.5170  176.3050  146.5520 C   0  0  0  0  0  3  0  0  0  0  0  0
  189.7940  175.7390  142.2930 C   0  0  0  0  0  2  0  0  0  0  0  0
  190.1470  173.3370  142.5870 C   0  0  0  0  0  0  0  0  0  0  0  0
  189.7270  172.0400  142.2760 C   0  0  0  0  0  3  0  0  0  0  0  0
  189.1890  177.3000  144.6050 C   0  0  0  0  0  2  0  0  0  0  0  0
  187.6490  176.6300  146.4620 C   0  0  0  0  0  1  0  0  0  0  0  0
  187.8300  176.7050  144.9560 C   0  0  1  0  0  3  0  0  0  0  0  0
  184.0780  178.4300  143.6320 C   0  0  0  0  0  0  0  0  0  0  0  0
  186.3430  178.7160  144.9480 C   0  0  0  0  0  2  0  0  0  0  0  0
  186.4260  175.9960  142.5190 O   0  0  0  0  0  0  0  0  0  0  0  0
  182.9320  179.1230  143.1550 N   0  0  0  0  0  1  0  0  0  0  0  0
  184.5720  178.6350  145.3540 S   0  0  0  0  0  0  0  0  0  0  0  0
  185.9980  176.9670  143.1970 C   0  0  0  0  0  0  0  0  0  0  0  0
  186.7420  177.4580  144.3300 N   0  0  0  0  0  0  0  0  0  0  0  0
  184.7350  177.6130  142.8070 C   0  0  0  0  0  3  0  0  0  0  0  0
  1  6  1  0  0  0  0
  2  5  1  0  0  0  0
  3  7  1  0  0  0  0
  3  2  1  0  0  0  0
  4 11  1  0  0  0  0
  4  7  2  0  0  0  0
  5 16  2  0  0  0  0
  6 17  2  0  0  0  0
  8 12  1  0  0  0  0
  9  1  1  0  0  0  0
 10 19  1  0  0  0  0
 13 18  1  6  0  0  0
 13  2  1  0  0  0  0
 13  8  1  0  0  0  0
 14  5  1  0  0  0  0
 14  1  2  0  0  0  0
 15  4  1  0  0  0  0
 16 12  1  0  0  0  0
 16 17  1  0  0  0  0
 18 10  1  0  0  0  0
 19  3  2  0  0  0  0
 20 15  2  0  0  0  0
 20 19  1  0  0  0  0
 21  8  1  0  0  0  0
 21 23  1  0  0  0  0
 23 22  1  1  0  0  0
 24 28  1  0  0  0  0
 25 28  1  0  0  0  0
 26 29  2  0  0  0  0
 27 24  1  0  0  0  0
 29 30  1  0  0  0  0
 30 25  1  0  0  0  0
 30 23  1  0  0  0  0
 31 29  1  0  0  0  0
 31 24  2  0  0  0  0
M  END
>  <MODEL>
9

>  <REMARK>
 VINA RESULT:      -7.7      3.218      7.806
  Name = 
  3 active torsions:
  status: ('A' for Active; 'I' for Inactive)
    1  A    between atoms: C_5  and  C_16
    2  A    between atoms: C_5  and  N_30
    3  A    between atoms: N_10  and  C_16
                            x       y       z     vdW  Elec       q    Type
                         _______ _______ _______ _____ _____    ______ ____

>  <TORSDO>
F 3

$$$$
