=
 OpenBabel11112417033D

 31 35  0  0  1  0  0  0  0  0999 V2000
  187.3730  176.8750  140.8960 C   0  0  0  0  0  0  0  0  0  0  0  0
  188.5560  177.6530  144.4310 C   0  0  2  0  0  3  0  0  0  0  0  0
  187.3220  177.8080  145.3100 C   0  0  0  0  0  0  0  0  0  0  0  0
  184.9540  178.3410  145.5170 C   0  0  0  0  0  0  0  0  0  0  0  0
  188.2830  176.9110  143.1440 C   0  0  0  0  0  0  0  0  0  0  0  0
  187.7510  175.5370  140.7600 C   0  0  0  0  0  3  0  0  0  0  0  0
  186.0810  178.1130  144.7250 C   0  0  0  0  0  3  0  0  0  0  0  0
  189.5940  175.5120  145.3000 C   0  0  2  0  0  3  0  0  0  0  0  0
  186.6820  177.5690  139.7770 C   0  0  0  0  0  1  0  0  0  0  0  0
  188.7080  177.4630  147.4230 C   0  0  0  0  0  2  0  0  0  0  0  0
  183.7330  178.6240  144.9200 O   0  0  0  0  0  1  0  0  0  0  0  0
  189.3800  174.9180  144.0190 O   0  0  0  0  0  0  0  0  0  0  0  0
  189.7560  177.0360  145.1760 C   0  0  2  0  0  3  0  0  0  0  0  0
  187.6400  177.5610  142.0830 C   0  0  0  0  0  3  0  0  0  0  0  0
  185.0550  178.2860  146.9060 C   0  0  0  0  0  3  0  0  0  0  0  0
  188.6770  175.5670  142.9990 C   0  0  0  0  0  0  0  0  0  0  0  0
  188.4070  174.8860  141.8090 C   0  0  0  0  0  3  0  0  0  0  0  0
  189.9280  177.7060  146.5390 C   0  0  0  0  0  2  0  0  0  0  0  0
  187.4230  177.7930  146.7220 C   0  0  0  0  0  0  0  0  0  0  0  0
  186.2860  178.0120  147.5050 C   0  0  0  0  0  3  0  0  0  0  0  0
  192.2290  175.6270  144.2270 O   0  0  0  0  0  0  0  0  0  0  0  0
  192.0730  175.0270  145.3260 C   0  0  0  0  0  0  0  0  0  0  0  0
  190.7760  174.9260  145.9150 N   0  0  0  0  0  2  0  0  0  0  0  0
  195.7790  174.6130  144.6120 N   0  0  0  0  0  0  0  0  0  0  0  0
  194.3050  175.4430  146.3900 C   0  0  0  0  0  2  0  0  0  0  0  0
  192.8850  172.3560  144.7790 O   0  0  0  0  0  1  0  0  0  0  0  0
  196.5050  175.0170  143.5430 O   0  0  0  0  0  1  0  0  0  0  0  0
  195.1480  175.8090  145.1670 C   0  0  0  0  0  2  0  0  0  0  0  0
  193.8680  173.2280  145.2530 C   0  0  2  0  0  3  0  0  0  0  0  0
  193.2440  174.4000  146.0280 C   0  0  2  0  0  3  0  0  0  0  0  0
  194.7310  173.7320  144.0980 C   0  0  0  0  0  2  0  0  0  0  0  0
  1 14  1  0  0  0  0
  2  5  1  6  0  0  0
  2 13  1  0  0  0  0
  2  3  1  0  0  0  0
  3 19  1  0  0  0  0
  4 15  2  0  0  0  0
  6  1  2  0  0  0  0
  6 17  1  0  0  0  0
  7  3  2  0  0  0  0
  7  4  1  0  0  0  0
  8 23  1  6  0  0  0
  9  1  1  0  0  0  0
 11  4  1  0  0  0  0
 12  8  1  0  0  0  0
 13  8  1  0  0  0  0
 13 18  1  1  0  0  0
 14  5  2  0  0  0  0
 15 20  1  0  0  0  0
 16  5  1  0  0  0  0
 16 12  1  0  0  0  0
 17 16  2  0  0  0  0
 18 10  1  0  0  0  0
 19 10  1  0  0  0  0
 19 20  2  0  0  0  0
 21 22  2  0  0  0  0
 22 23  1  0  0  0  0
 24 28  1  0  0  0  0
 27 24  1  0  0  0  0
 28 25  1  0  0  0  0
 29 26  1  6  0  0  0
 29 30  1  0  0  0  0
 30 22  1  6  0  0  0
 30 25  1  0  0  0  0
 31 24  1  0  0  0  0
 31 29  1  0  0  0  0
M  END
>  <MODEL>
1

>  <REMARK>
 VINA RESULT:      -8.9      0.000      0.000
  Name = 
  2 active torsions:
  status: ('A' for Active; 'I' for Inactive)
    1  A    between atoms: C_5  and  C_30
    2  A    between atoms: C_10  and  N_16
                            x       y       z     vdW  Elec       q    Type
                         _______ _______ _______ _____ _____    ______ ____

>  <TORSDO>
F 2

$$$$
=
 OpenBabel11112417033D

 31 35  0  0  1  0  0  0  0  0999 V2000
  184.9570  178.1230  146.8310 C   0  0  0  0  0  0  0  0  0  0  0  0
  187.4140  175.8530  145.0120 C   0  0  2  0  0  3  0  0  0  0  0  0
  187.4150  176.2530  143.5420 C   0  0  0  0  0  0  0  0  0  0  0  0
  186.2590  177.2520  141.6450 C   0  0  0  0  0  0  0  0  0  0  0  0
  186.8590  176.9220  145.9210 C   0  0  0  0  0  0  0  0  0  0  0  0
  185.8180  178.9210  147.5890 C   0  0  0  0  0  3  0  0  0  0  0  0
  186.3170  176.9470  143.0060 C   0  0  0  0  0  3  0  0  0  0  0  0
  189.7180  176.5670  145.7850 C   0  0  2  0  0  3  0  0  0  0  0  0
  183.4880  178.3370  146.9040 C   0  0  0  0  0  1  0  0  0  0  0  0
  189.6490  175.0810  143.1600 C   0  0  0  0  0  2  0  0  0  0  0  0
  185.1740  177.9520  141.1370 O   0  0  0  0  0  1  0  0  0  0  0  0
  189.1030  177.4900  146.6850 O   0  0  0  0  0  0  0  0  0  0  0  0
  188.7920  175.3720  145.5090 C   0  0  2  0  0  3  0  0  0  0  0  0
  185.4760  177.1250  146.0020 C   0  0  0  0  0  3  0  0  0  0  0  0
  187.2890  176.8500  140.7960 C   0  0  0  0  0  3  0  0  0  0  0  0
  187.7240  177.7180  146.6970 C   0  0  0  0  0  0  0  0  0  0  0  0
  187.2000  178.7150  147.5250 C   0  0  0  0  0  3  0  0  0  0  0  0
  189.4010  174.3960  144.5010 C   0  0  0  0  0  2  0  0  0  0  0  0
  188.4370  175.8150  142.6650 C   0  0  0  0  0  0  0  0  0  0  0  0
  188.3750  176.1350  141.3060 C   0  0  0  0  0  3  0  0  0  0  0  0
  192.2770  176.9350  144.5900 O   0  0  0  0  0  0  0  0  0  0  0  0
  192.2320  176.3330  145.6970 C   0  0  0  0  0  0  0  0  0  0  0  0
  190.9810  176.1090  146.3470 N   0  0  0  0  0  2  0  0  0  0  0  0
  195.8180  175.7390  144.6000 N   0  0  0  0  0  0  0  0  0  0  0  0
  194.5800  176.9110  146.3650 C   0  0  0  0  0  2  0  0  0  0  0  0
  192.9950  173.5960  145.5650 O   0  0  0  0  0  1  0  0  0  0  0  0
  196.3940  175.9240  143.3890 O   0  0  0  0  0  1  0  0  0  0  0  0
  195.2520  177.0270  144.9960 C   0  0  0  0  0  2  0  0  0  0  0  0
  194.0220  174.5270  145.7340 C   0  0  2  0  0  3  0  0  0  0  0  0
  193.4910  175.8340  146.3480 C   0  0  2  0  0  3  0  0  0  0  0  0
  194.7220  174.7920  144.4030 C   0  0  0  0  0  2  0  0  0  0  0  0
  1  9  1  0  0  0  0
  1  6  1  0  0  0  0
  2  3  1  6  0  0  0
  2 13  1  0  0  0  0
  2  5  1  0  0  0  0
  4  7  2  0  0  0  0
  5 14  1  0  0  0  0
  5 16  2  0  0  0  0
  7  3  1  0  0  0  0
  8 23  1  1  0  0  0
  8 12  1  0  0  0  0
 10 18  1  0  0  0  0
 11  4  1  0  0  0  0
 12 16  1  0  0  0  0
 13 18  1  6  0  0  0
 13  8  1  0  0  0  0
 14  1  2  0  0  0  0
 15 20  2  0  0  0  0
 15  4  1  0  0  0  0
 16 17  1  0  0  0  0
 17  6  2  0  0  0  0
 19 10  1  0  0  0  0
 19  3  2  0  0  0  0
 20 19  1  0  0  0  0
 21 22  2  0  0  0  0
 22 23  1  0  0  0  0
 24 28  1  0  0  0  0
 27 24  1  0  0  0  0
 28 25  1  0  0  0  0
 29 26  1  6  0  0  0
 29 30  1  0  0  0  0
 30 22  1  6  0  0  0
 30 25  1  0  0  0  0
 31 24  1  0  0  0  0
 31 29  1  0  0  0  0
M  END
>  <MODEL>
2

>  <REMARK>
 VINA RESULT:      -8.7      1.514      4.030
  Name = 
  2 active torsions:
  status: ('A' for Active; 'I' for Inactive)
    1  A    between atoms: C_5  and  C_30
    2  A    between atoms: C_10  and  N_16
                            x       y       z     vdW  Elec       q    Type
                         _______ _______ _______ _____ _____    ______ ____

>  <TORSDO>
F 2

$$$$
=
 OpenBabel11112417033D

 31 35  0  0  1  0  0  0  0  0999 V2000
  191.6420  173.1270  141.5190 C   0  0  0  0  0  0  0  0  0  0  0  0
  191.2000  174.1180  145.1690 C   0  0  2  0  0  3  0  0  0  0  0  0
  192.3380  175.0620  145.5350 C   0  0  0  0  0  0  0  0  0  0  0  0
  194.6070  175.8560  145.1400 C   0  0  0  0  0  0  0  0  0  0  0  0
  190.9750  174.0030  143.6810 C   0  0  0  0  0  0  0  0  0  0  0  0
  190.5790  173.8020  140.9130 C   0  0  0  0  0  3  0  0  0  0  0  0
  193.5200  175.0590  144.7750 C   0  0  0  0  0  3  0  0  0  0  0  0
  189.1740  175.6360  145.2340 C   0  0  2  0  0  3  0  0  0  0  0  0
  192.5680  172.3060  140.6950 C   0  0  0  0  0  1  0  0  0  0  0  0
  191.0600  175.9140  147.5710 C   0  0  0  0  0  2  0  0  0  0  0  0
  195.7600  175.8520  144.3680 O   0  0  0  0  0  1  0  0  0  0  0  0
  188.9820  175.3980  143.8380 O   0  0  0  0  0  0  0  0  0  0  0  0
  189.8830  174.4460  145.9000 C   0  0  2  0  0  3  0  0  0  0  0  0
  191.8380  173.2250  142.8990 C   0  0  0  0  0  3  0  0  0  0  0  0
  194.5350  176.6530  146.2820 C   0  0  0  0  0  3  0  0  0  0  0  0
  189.8960  174.6700  143.0700 C   0  0  0  0  0  0  0  0  0  0  0  0
  189.7050  174.5680  141.6890 C   0  0  0  0  0  3  0  0  0  0  0  0
  190.1550  174.6990  147.3830 C   0  0  0  0  0  2  0  0  0  0  0  0
  192.2890  175.8450  146.7130 C   0  0  0  0  0  0  0  0  0  0  0  0
  193.3790  176.6480  147.0640 C   0  0  0  0  0  3  0  0  0  0  0  0
  188.5530  177.8600  146.9000 O   0  0  0  0  0  0  0  0  0  0  0  0
  187.6380  177.0180  146.6870 C   0  0  0  0  0  0  0  0  0  0  0  0
  187.8850  175.8760  145.8670 N   0  0  0  0  0  2  0  0  0  0  0  0
  184.4590  178.8800  145.7720 N   0  0  0  0  0  0  0  0  0  0  0  0
  185.1780  176.6200  146.4020 C   0  0  0  0  0  2  0  0  0  0  0  0
  187.0360  179.2340  148.3660 O   0  0  0  0  0  1  0  0  0  0  0  0
  184.1920  179.6630  144.7000 O   0  0  0  0  0  1  0  0  0  0  0  0
  184.8600  177.5760  145.2500 C   0  0  0  0  0  2  0  0  0  0  0  0
  185.9650  178.6510  147.6850 C   0  0  2  0  0  3  0  0  0  0  0  0
  186.2780  177.1960  147.2990 C   0  0  2  0  0  3  0  0  0  0  0  0
  185.6050  179.4790  146.4540 C   0  0  0  0  0  2  0  0  0  0  0  0
  1 14  1  0  0  0  0
  2  5  1  6  0  0  0
  2  3  1  0  0  0  0
  2 13  1  0  0  0  0
  3 19  1  0  0  0  0
  4 15  2  0  0  0  0
  6  1  2  0  0  0  0
  6 17  1  0  0  0  0
  7  4  1  0  0  0  0
  7  3  2  0  0  0  0
  8 23  1  1  0  0  0
  8 13  1  0  0  0  0
  9  1  1  0  0  0  0
 11  4  1  0  0  0  0
 12  8  1  0  0  0  0
 13 18  1  1  0  0  0
 14  5  2  0  0  0  0
 15 20  1  0  0  0  0
 16  5  1  0  0  0  0
 16 12  1  0  0  0  0
 17 16  2  0  0  0  0
 18 10  1  0  0  0  0
 19 20  2  0  0  0  0
 19 10  1  0  0  0  0
 22 21  2  0  0  0  0
 23 22  1  0  0  0  0
 24 31  1  0  0  0  0
 25 30  1  0  0  0  0
 27 24  1  0  0  0  0
 28 24  1  0  0  0  0
 28 25  1  0  0  0  0
 29 26  1  6  0  0  0
 30 22  1  6  0  0  0
 30 29  1  0  0  0  0
 31 29  1  0  0  0  0
M  END
>  <MODEL>
3

>  <REMARK>
 VINA RESULT:      -8.6      2.583      7.362
  Name = 
  2 active torsions:
  status: ('A' for Active; 'I' for Inactive)
    1  A    between atoms: C_5  and  C_30
    2  A    between atoms: C_10  and  N_16
                            x       y       z     vdW  Elec       q    Type
                         _______ _______ _______ _____ _____    ______ ____

>  <TORSDO>
F 2

$$$$
=
 OpenBabel11112417033D

 31 35  0  0  1  0  0  0  0  0999 V2000
  194.1220  176.5680  144.9910 C   0  0  0  0  0  0  0  0  0  0  0  0
  190.7590  176.7110  143.2100 C   0  0  2  0  0  3  0  0  0  0  0  0
  190.6070  175.4300  142.4010 C   0  0  0  0  0  0  0  0  0  0  0  0
  191.6410  173.5610  141.2290 C   0  0  0  0  0  0  0  0  0  0  0  0
  191.7950  176.6080  144.3030 C   0  0  0  0  0  0  0  0  0  0  0  0
  193.7300  176.3930  146.3210 C   0  0  0  0  0  3  0  0  0  0  0  0
  191.7480  174.6930  142.0400 C   0  0  0  0  0  3  0  0  0  0  0  0
  189.0060  176.4370  145.0190 C   0  0  2  0  0  3  0  0  0  0  0  0
  195.5660  176.6340  144.6450 C   0  0  0  0  0  1  0  0  0  0  0  0
  188.0840  175.7650  142.2270 C   0  0  0  0  0  2  0  0  0  0  0  0
  192.7760  172.8360  140.8970 O   0  0  0  0  0  1  0  0  0  0  0  0
  190.0490  176.4410  145.9950 O   0  0  0  0  0  0  0  0  0  0  0  0
  189.4210  177.2340  143.7720 C   0  0  2  0  0  3  0  0  0  0  0  0
  193.1580  176.6770  143.9860 C   0  0  0  0  0  3  0  0  0  0  0  0
  190.3930  173.1620  140.7510 C   0  0  0  0  0  3  0  0  0  0  0  0
  191.4030  176.4460  145.6460 C   0  0  0  0  0  0  0  0  0  0  0  0
  192.3710  176.3370  146.6470 C   0  0  0  0  0  3  0  0  0  0  0  0
  188.3470  177.1970  142.6850 C   0  0  0  0  0  2  0  0  0  0  0  0
  189.3510  175.0390  141.8780 C   0  0  0  0  0  0  0  0  0  0  0  0
  189.2530  173.8980  141.0760 C   0  0  0  0  0  3  0  0  0  0  0  0
  187.7810  175.5580  147.4350 O   0  0  0  0  0  0  0  0  0  0  0  0
  187.2370  176.5160  146.8200 C   0  0  0  0  0  0  0  0  0  0  0  0
  187.7960  177.0010  145.5990 N   0  0  0  0  0  2  0  0  0  0  0  0
  184.7950  179.1610  145.6140 N   0  0  0  0  0  0  0  0  0  0  0  0
  184.7780  176.8610  146.4670 C   0  0  0  0  0  2  0  0  0  0  0  0
  187.3220  178.9600  148.2730 O   0  0  0  0  0  1  0  0  0  0  0  0
  184.7960  179.8810  144.4680 O   0  0  0  0  0  1  0  0  0  0  0  0
  184.7840  177.7530  145.2240 C   0  0  0  0  0  2  0  0  0  0  0  0
  186.1320  178.6690  147.6010 C   0  0  2  0  0  3  0  0  0  0  0  0
  185.9890  177.1570  147.3560 C   0  0  2  0  0  3  0  0  0  0  0  0
  186.0600  179.4460  146.2880 C   0  0  0  0  0  2  0  0  0  0  0  0
  1  6  1  0  0  0  0
  2  3  1  1  0  0  0
  2 13  1  0  0  0  0
  2  5  1  0  0  0  0
  4  7  2  0  0  0  0
  5 16  2  0  0  0  0
  6 17  2  0  0  0  0
  7  3  1  0  0  0  0
  8 23  1  1  0  0  0
  8 12  1  0  0  0  0
  9  1  1  0  0  0  0
 10 18  1  0  0  0  0
 11  4  1  0  0  0  0
 13 18  1  6  0  0  0
 13  8  1  0  0  0  0
 14  5  1  0  0  0  0
 14  1  2  0  0  0  0
 15 20  2  0  0  0  0
 15  4  1  0  0  0  0
 16 12  1  0  0  0  0
 16 17  1  0  0  0  0
 19 10  1  0  0  0  0
 19  3  2  0  0  0  0
 20 19  1  0  0  0  0
 22 21  2  0  0  0  0
 23 22  1  0  0  0  0
 24 31  1  0  0  0  0
 25 30  1  0  0  0  0
 27 24  1  0  0  0  0
 28 24  1  0  0  0  0
 28 25  1  0  0  0  0
 29 26  1  6  0  0  0
 30 22  1  6  0  0  0
 30 29  1  0  0  0  0
 31 29  1  0  0  0  0
M  END
>  <MODEL>
4

>  <REMARK>
 VINA RESULT:      -8.4      2.631      7.677
  Name = 
  2 active torsions:
  status: ('A' for Active; 'I' for Inactive)
    1  A    between atoms: C_5  and  C_30
    2  A    between atoms: C_10  and  N_16
                            x       y       z     vdW  Elec       q    Type
                         _______ _______ _______ _____ _____    ______ ____

>  <TORSDO>
F 2

$$$$
=
 OpenBabel11112417033D

 31 35  0  0  1  0  0  0  0  0999 V2000
  185.5990  177.7490  146.4920 C   0  0  0  0  0  0  0  0  0  0  0  0
  187.2190  175.5750  143.8190 C   0  0  2  0  0  3  0  0  0  0  0  0
  187.0190  176.2640  142.4760 C   0  0  0  0  0  0  0  0  0  0  0  0
  185.7290  177.7860  141.0760 C   0  0  0  0  0  0  0  0  0  0  0  0
  187.0470  176.5030  144.9970 C   0  0  0  0  0  0  0  0  0  0  0  0
  186.7160  178.2430  147.1700 C   0  0  0  0  0  3  0  0  0  0  0  0
  185.9840  177.2030  142.3190 C   0  0  0  0  0  3  0  0  0  0  0  0
  189.7180  175.7790  144.1820 C   0  0  2  0  0  3  0  0  0  0  0  0
  184.2330  178.1510  146.9200 C   0  0  0  0  0  1  0  0  0  0  0  0
  188.8910  174.8900  141.4200 C   0  0  0  0  0  2  0  0  0  0  0  0
  184.7140  178.7230  140.9450 O   0  0  0  0  0  1  0  0  0  0  0  0
  189.4600  176.5760  145.3390 O   0  0  0  0  0  0  0  0  0  0  0  0
  188.5550  174.8110  143.9130 C   0  0  2  0  0  3  0  0  0  0  0  0
  185.7640  176.8790  145.4110 C   0  0  0  0  0  3  0  0  0  0  0  0
  186.4920  177.4240  139.9670 C   0  0  0  0  0  3  0  0  0  0  0  0
  188.1710  176.9910  145.6910 C   0  0  0  0  0  0  0  0  0  0  0  0
  188.0010  177.8600  146.7720 C   0  0  0  0  0  3  0  0  0  0  0  0
  188.7780  173.9870  142.6450 C   0  0  0  0  0  2  0  0  0  0  0  0
  187.7620  175.8750  141.3350 C   0  0  0  0  0  0  0  0  0  0  0  0
  187.5060  176.4730  140.0970 C   0  0  0  0  0  3  0  0  0  0  0  0
  192.3340  176.8740  143.9230 O   0  0  0  0  0  0  0  0  0  0  0  0
  192.2400  175.6540  144.2290 C   0  0  0  0  0  0  0  0  0  0  0  0
  190.9590  175.0400  144.3680 N   0  0  0  0  0  2  0  0  0  0  0  0
  195.9760  176.1430  143.7570 N   0  0  0  0  0  0  0  0  0  0  0  0
  194.3940  175.4460  145.4990 C   0  0  0  0  0  2  0  0  0  0  0  0
  193.3840  174.1090  142.1320 O   0  0  0  0  0  1  0  0  0  0  0  0
  196.6560  177.2170  143.2920 O   0  0  0  0  0  1  0  0  0  0  0  0
  195.1960  176.6050  144.9040 C   0  0  0  0  0  2  0  0  0  0  0  0
  194.2460  174.5240  143.1490 C   0  0  2  0  0  3  0  0  0  0  0  0
  193.4730  174.8230  144.4450 C   0  0  2  0  0  3  0  0  0  0  0  0
  195.0510  175.7420  142.6990 C   0  0  0  0  0  2  0  0  0  0  0  0
  1  9  1  0  0  0  0
  1  6  1  0  0  0  0
  2  3  1  6  0  0  0
  2 13  1  0  0  0  0
  2  5  1  0  0  0  0
  4  7  2  0  0  0  0
  5 14  1  0  0  0  0
  5 16  2  0  0  0  0
  7  3  1  0  0  0  0
  8 23  1  1  0  0  0
  8 12  1  0  0  0  0
 10 18  1  0  0  0  0
 11  4  1  0  0  0  0
 12 16  1  0  0  0  0
 13 18  1  6  0  0  0
 13  8  1  0  0  0  0
 14  1  2  0  0  0  0
 15 20  2  0  0  0  0
 15  4  1  0  0  0  0
 16 17  1  0  0  0  0
 17  6  2  0  0  0  0
 19 10  1  0  0  0  0
 19  3  2  0  0  0  0
 20 19  1  0  0  0  0
 21 22  2  0  0  0  0
 22 23  1  0  0  0  0
 24 28  1  0  0  0  0
 27 24  1  0  0  0  0
 28 25  1  0  0  0  0
 29 26  1  6  0  0  0
 29 30  1  0  0  0  0
 30 22  1  6  0  0  0
 30 25  1  0  0  0  0
 31 29  1  0  0  0  0
 31 24  1  0  0  0  0
M  END
>  <MODEL>
5

>  <REMARK>
 VINA RESULT:      -8.3      1.608      4.160
  Name = 
  2 active torsions:
  status: ('A' for Active; 'I' for Inactive)
    1  A    between atoms: C_5  and  C_30
    2  A    between atoms: C_10  and  N_16
                            x       y       z     vdW  Elec       q    Type
                         _______ _______ _______ _____ _____    ______ ____

>  <TORSDO>
F 2

$$$$
=
 OpenBabel11112417033D

 31 35  0  0  1  0  0  0  0  0999 V2000
  185.8100  178.0310  140.7770 C   0  0  0  0  0  0  0  0  0  0  0  0
  188.4380  178.0180  143.5330 C   0  0  2  0  0  3  0  0  0  0  0  0
  187.7650  177.5390  144.8130 C   0  0  0  0  0  0  0  0  0  0  0  0
  185.7400  177.2810  146.1420 C   0  0  0  0  0  0  0  0  0  0  0  0
  187.6730  177.6500  142.2840 C   0  0  0  0  0  0  0  0  0  0  0  0
  186.2320  176.9640  139.9800 C   0  0  0  0  0  3  0  0  0  0  0  0
  186.3700  177.6360  144.9470 C   0  0  0  0  0  3  0  0  0  0  0  0
  190.0080  176.1080  142.9820 C   0  0  2  0  0  3  0  0  0  0  0  0
  184.5930  178.8000  140.4060 C   0  0  0  0  0  1  0  0  0  0  0  0
  190.0220  176.9890  145.8670 C   0  0  0  0  0  2  0  0  0  0  0  0
  184.3590  177.3670  146.2500 O   0  0  0  0  0  1  0  0  0  0  0  0
  189.2790  175.8900  141.7730 O   0  0  0  0  0  0  0  0  0  0  0  0
  189.9110  177.5770  143.4220 C   0  0  2  0  0  3  0  0  0  0  0  0
  186.5300  178.3750  141.9240 C   0  0  0  0  0  3  0  0  0  0  0  0
  186.4980  176.8430  147.2260 C   0  0  0  0  0  3  0  0  0  0  0  0
  188.1040  176.5850  141.4710 C   0  0  0  0  0  0  0  0  0  0  0  0
  187.3800  176.2450  140.3250 C   0  0  0  0  0  3  0  0  0  0  0  0
  190.6330  177.8260  144.7470 C   0  0  0  0  0  2  0  0  0  0  0  0
  188.5300  177.1310  145.9330 C   0  0  0  0  0  0  0  0  0  0  0  0
  187.8890  176.7680  147.1210 C   0  0  0  0  0  3  0  0  0  0  0  0
  191.3620  174.0350  144.3900 O   0  0  0  0  0  0  0  0  0  0  0  0
  192.0170  174.6740  143.5210 C   0  0  0  0  0  0  0  0  0  0  0  0
  191.4000  175.7300  142.7840 N   0  0  0  0  0  2  0  0  0  0  0  0
  194.5500  172.2080  144.9050 N   0  0  0  0  0  0  0  0  0  0  0  0
  193.6170  172.9050  142.7450 C   0  0  0  0  0  2  0  0  0  0  0  0
  194.1250  175.8550  145.0220 O   0  0  0  0  0  1  0  0  0  0  0  0
  194.4130  171.2850  145.8870 O   0  0  0  0  0  1  0  0  0  0  0  0
  193.5310  171.9070  143.9020 C   0  0  0  0  0  2  0  0  0  0  0  0
  194.3810  174.6050  144.4540 C   0  0  2  0  0  3  0  0  0  0  0  0
  193.4570  174.3410  143.2530 C   0  0  2  0  0  3  0  0  0  0  0  0
  194.2420  173.5050  145.5040 C   0  0  0  0  0  2  0  0  0  0  0  0
  1 14  1  0  0  0  0
  2  5  1  6  0  0  0
  2  3  1  0  0  0  0
  3  7  2  0  0  0  0
  3 19  1  0  0  0  0
  4 11  1  0  0  0  0
  4 15  2  0  0  0  0
  6 17  1  0  0  0  0
  6  1  2  0  0  0  0
  7  4  1  0  0  0  0
  8 23  1  6  0  0  0
  8 13  1  0  0  0  0
  9  1  1  0  0  0  0
 10 19  1  0  0  0  0
 12  8  1  0  0  0  0
 13  2  1  0  0  0  0
 13 18  1  1  0  0  0
 14  5  2  0  0  0  0
 16 12  1  0  0  0  0
 16  5  1  0  0  0  0
 17 16  2  0  0  0  0
 18 10  1  0  0  0  0
 19 20  2  0  0  0  0
 20 15  1  0  0  0  0
 22 21  2  0  0  0  0
 23 22  1  0  0  0  0
 24 31  1  0  0  0  0
 24 27  1  0  0  0  0
 25 30  1  0  0  0  0
 25 28  1  0  0  0  0
 28 24  1  0  0  0  0
 29 26  1  1  0  0  0
 29 31  1  0  0  0  0
 30 22  1  1  0  0  0
 30 29  1  0  0  0  0
M  END
>  <MODEL>
6

>  <REMARK>
 VINA RESULT:      -8.3      1.640      2.438
  Name = 
  2 active torsions:
  status: ('A' for Active; 'I' for Inactive)
    1  A    between atoms: C_5  and  C_30
    2  A    between atoms: C_10  and  N_16
                            x       y       z     vdW  Elec       q    Type
                         _______ _______ _______ _____ _____    ______ ____

>  <TORSDO>
F 2

$$$$
=
 OpenBabel11112417033D

 31 35  0  0  1  0  0  0  0  0999 V2000
  193.3900  172.2620  141.2480 C   0  0  0  0  0  0  0  0  0  0  0  0
  191.4960  173.4280  144.3390 C   0  0  2  0  0  3  0  0  0  0  0  0
  192.3850  174.4170  145.0820 C   0  0  0  0  0  0  0  0  0  0  0  0
  194.6170  175.2450  145.6010 C   0  0  0  0  0  0  0  0  0  0  0  0
  191.8980  173.2320  142.8970 C   0  0  0  0  0  0  0  0  0  0  0  0
  192.6660  172.8790  140.2240 C   0  0  0  0  0  3  0  0  0  0  0  0
  193.7740  174.4040  144.8710 C   0  0  0  0  0  3  0  0  0  0  0  0
  189.6180  174.8980  143.4860 C   0  0  2  0  0  3  0  0  0  0  0  0
  194.5720  171.4230  140.9200 C   0  0  0  0  0  1  0  0  0  0  0  0
  190.3860  175.3410  146.3700 C   0  0  0  0  0  2  0  0  0  0  0  0
  195.9840  175.2290  145.3670 O   0  0  0  0  0  1  0  0  0  0  0  0
  190.0120  174.5840  142.1500 O   0  0  0  0  0  0  0  0  0  0  0  0
  189.9950  173.7610  144.4500 C   0  0  2  0  0  3  0  0  0  0  0  0
  193.0060  172.4360  142.5800 C   0  0  0  0  0  3  0  0  0  0  0  0
  194.0840  176.0980  146.5670 C   0  0  0  0  0  3  0  0  0  0  0  0
  191.1610  173.8400  141.8630 C   0  0  0  0  0  0  0  0  0  0  0  0
  191.5500  173.6630  140.5320 C   0  0  0  0  0  3  0  0  0  0  0  0
  189.6390  174.0970  145.8980 C   0  0  0  0  0  2  0  0  0  0  0  0
  191.8580  175.2580  146.0920 C   0  0  0  0  0  0  0  0  0  0  0  0
  192.7090  176.1040  146.8100 C   0  0  0  0  0  3  0  0  0  0  0  0
  188.3870  177.3780  144.1520 O   0  0  0  0  0  0  0  0  0  0  0  0
  187.6310  176.4110  143.8610 C   0  0  0  0  0  0  0  0  0  0  0  0
  188.1830  175.1390  143.5250 N   0  0  0  0  0  2  0  0  0  0  0  0
  185.2160  179.3350  144.0480 N   0  0  0  0  0  0  0  0  0  0  0  0
  185.6520  177.3650  142.6510 C   0  0  0  0  0  2  0  0  0  0  0  0
  186.1670  176.5890  146.2940 O   0  0  0  0  0  1  0  0  0  0  0  0
  185.4690  180.6620  144.1420 O   0  0  0  0  0  1  0  0  0  0  0  0
  185.8900  178.8650  142.8390 C   0  0  0  0  0  2  0  0  0  0  0  0
  185.5990  177.1990  145.1730 C   0  0  2  0  0  3  0  0  0  0  0  0
  186.1380  176.5790  143.8720 C   0  0  2  0  0  3  0  0  0  0  0  0
  185.8470  178.7050  145.2050 C   0  0  0  0  0  2  0  0  0  0  0  0
  1 14  1  0  0  0  0
  2  5  1  6  0  0  0
  2 13  1  0  0  0  0
  2  3  1  0  0  0  0
  3 19  1  0  0  0  0
  4 15  2  0  0  0  0
  6 17  1  0  0  0  0
  6  1  2  0  0  0  0
  7  3  2  0  0  0  0
  7  4  1  0  0  0  0
  8 23  1  6  0  0  0
  8 13  1  0  0  0  0
  9  1  1  0  0  0  0
 11  4  1  0  0  0  0
 12  8  1  0  0  0  0
 13 18  1  1  0  0  0
 14  5  2  0  0  0  0
 15 20  1  0  0  0  0
 16 12  1  0  0  0  0
 16  5  1  0  0  0  0
 17 16  2  0  0  0  0
 18 10  1  0  0  0  0
 19 10  1  0  0  0  0
 19 20  2  0  0  0  0
 22 21  2  0  0  0  0
 23 22  1  0  0  0  0
 24 27  1  0  0  0  0
 24 31  1  0  0  0  0
 25 28  1  0  0  0  0
 25 30  1  0  0  0  0
 28 24  1  0  0  0  0
 29 31  1  0  0  0  0
 29 26  1  1  0  0  0
 30 22  1  1  0  0  0
 30 29  1  0  0  0  0
M  END
>  <MODEL>
7

>  <REMARK>
 VINA RESULT:      -8.3      2.673      7.505
  Name = 
  2 active torsions:
  status: ('A' for Active; 'I' for Inactive)
    1  A    between atoms: C_5  and  C_30
    2  A    between atoms: C_10  and  N_16
                            x       y       z     vdW  Elec       q    Type
                         _______ _______ _______ _____ _____    ______ ____

>  <TORSDO>
F 2

$$$$
=
 OpenBabel11112417033D

 31 35  0  0  1  0  0  0  0  0999 V2000
  185.1910  177.7900  146.8020 C   0  0  0  0  0  0  0  0  0  0  0  0
  187.1290  175.9960  144.0590 C   0  0  2  0  0  3  0  0  0  0  0  0
  186.7740  176.6560  142.7330 C   0  0  0  0  0  0  0  0  0  0  0  0
  185.1940  177.9310  141.3860 C   0  0  0  0  0  0  0  0  0  0  0  0
  186.8130  176.8580  145.2570 C   0  0  0  0  0  0  0  0  0  0  0  0
  186.2120  178.4740  147.4680 C   0  0  0  0  0  3  0  0  0  0  0  0
  185.5800  177.3870  142.6130 C   0  0  0  0  0  3  0  0  0  0  0  0
  189.5530  176.6580  144.3780 C   0  0  2  0  0  3  0  0  0  0  0  0
  183.7840  177.9240  147.2630 C   0  0  0  0  0  1  0  0  0  0  0  0
  188.8460  175.6710  141.6170 C   0  0  0  0  0  2  0  0  0  0  0  0
  184.0190  178.6640  141.2920 O   0  0  0  0  0  1  0  0  0  0  0  0
  189.1770  177.3750  145.5550 O   0  0  0  0  0  0  0  0  0  0  0  0
  188.5850  175.4930  144.1140 C   0  0  2  0  0  3  0  0  0  0  0  0
  185.4910  176.9830  145.7020 C   0  0  0  0  0  3  0  0  0  0  0  0
  185.9860  177.7350  140.2570 C   0  0  0  0  0  3  0  0  0  0  0  0
  187.8420  177.5370  145.9390 C   0  0  0  0  0  0  0  0  0  0  0  0
  187.5360  178.3430  147.0390 C   0  0  0  0  0  3  0  0  0  0  0  0
  188.9300  174.7440  142.8260 C   0  0  0  0  0  2  0  0  0  0  0  0
  187.5520  176.4300  141.5710 C   0  0  0  0  0  0  0  0  0  0  0  0
  187.1620  176.9870  140.3500 C   0  0  0  0  0  3  0  0  0  0  0  0
  191.9160  178.1700  143.8870 O   0  0  0  0  0  0  0  0  0  0  0  0
  192.0570  176.9760  144.2700 C   0  0  0  0  0  0  0  0  0  0  0  0
  190.9140  176.1610  144.5280 N   0  0  0  0  0  2  0  0  0  0  0  0
  193.4940  173.4900  144.7180 N   0  0  0  0  0  0  0  0  0  0  0  0
  193.8040  175.4650  143.2940 C   0  0  0  0  0  2  0  0  0  0  0  0
  193.1190  176.4530  146.8570 O   0  0  0  0  0  1  0  0  0  0  0  0
  192.8620  172.2940  144.7720 O   0  0  0  0  0  1  0  0  0  0  0  0
  193.1260  174.1010  143.4420 C   0  0  0  0  0  2  0  0  0  0  0  0
  193.6130  175.6770  145.8060 C   0  0  2  0  0  3  0  0  0  0  0  0
  193.4270  176.3890  144.4550 C   0  0  2  0  0  3  0  0  0  0  0  0
  192.9420  174.3050  145.7980 C   0  0  0  0  0  2  0  0  0  0  0  0
  1  9  1  0  0  0  0
  1  6  1  0  0  0  0
  2  3  1  6  0  0  0
  2 13  1  0  0  0  0
  2  5  1  0  0  0  0
  4  7  2  0  0  0  0
  5 14  1  0  0  0  0
  5 16  2  0  0  0  0
  7  3  1  0  0  0  0
  8 23  1  1  0  0  0
  8 12  1  0  0  0  0
 10 18  1  0  0  0  0
 11  4  1  0  0  0  0
 12 16  1  0  0  0  0
 13 18  1  6  0  0  0
 13  8  1  0  0  0  0
 14  1  2  0  0  0  0
 15 20  2  0  0  0  0
 15  4  1  0  0  0  0
 16 17  1  0  0  0  0
 17  6  2  0  0  0  0
 19 10  1  0  0  0  0
 19  3  2  0  0  0  0
 20 19  1  0  0  0  0
 21 22  2  0  0  0  0
 22 23  1  0  0  0  0
 24 27  1  0  0  0  0
 24 31  1  0  0  0  0
 25 28  1  0  0  0  0
 25 30  1  0  0  0  0
 28 24  1  0  0  0  0
 29 26  1  1  0  0  0
 30 22  1  6  0  0  0
 30 29  1  0  0  0  0
 31 29  1  0  0  0  0
M  END
>  <MODEL>
8

>  <REMARK>
 VINA RESULT:      -8.3      1.775      4.380
  Name = 
  2 active torsions:
  status: ('A' for Active; 'I' for Inactive)
    1  A    between atoms: C_5  and  C_30
    2  A    between atoms: C_10  and  N_16
                            x       y       z     vdW  Elec       q    Type
                         _______ _______ _______ _____ _____    ______ ____

>  <TORSDO>
F 2

$$$$
=
 OpenBabel11112417033D

 31 35  0  0  1  0  0  0  0  0999 V2000
  190.2050  172.2020  142.0890 C   0  0  0  0  0  0  0  0  0  0  0  0
  189.5300  174.5800  144.9850 C   0  0  2  0  0  3  0  0  0  0  0  0
  190.8740  175.0850  145.4940 C   0  0  0  0  0  0  0  0  0  0  0  0
  193.2730  174.7470  145.7580 C   0  0  0  0  0  0  0  0  0  0  0  0
  189.5970  174.0090  143.5900 C   0  0  0  0  0  0  0  0  0  0  0  0
  189.7470  172.9480  140.9990 C   0  0  0  0  0  3  0  0  0  0  0  0
  192.0420  174.3480  145.2320 C   0  0  0  0  0  3  0  0  0  0  0  0
  188.5110  176.6570  143.9530 C   0  0  2  0  0  3  0  0  0  0  0  0
  190.7770  170.8480  141.8740 C   0  0  0  0  0  1  0  0  0  0  0  0
  189.7600  177.0560  146.6700 C   0  0  0  0  0  2  0  0  0  0  0  0
  194.4180  174.0160  145.4740 O   0  0  0  0  0  1  0  0  0  0  0  0
  188.5280  176.0030  142.6830 O   0  0  0  0  0  0  0  0  0  0  0  0
  188.4090  175.6320  145.0940 C   0  0  2  0  0  3  0  0  0  0  0  0
  190.1280  172.7300  143.3800 C   0  0  0  0  0  3  0  0  0  0  0  0
  193.3500  175.8780  146.5700 C   0  0  0  0  0  3  0  0  0  0  0  0
  189.1230  174.7530  142.4910 C   0  0  0  0  0  0  0  0  0  0  0  0
  189.2030  174.2200  141.2020 C   0  0  0  0  0  3  0  0  0  0  0  0
  188.4490  176.3010  146.4690 C   0  0  0  0  0  2  0  0  0  0  0  0
  190.9570  176.2080  146.3520 C   0  0  0  0  0  0  0  0  0  0  0  0
  192.1960  176.6060  146.8640 C   0  0  0  0  0  3  0  0  0  0  0  0
  187.5760  178.2240  141.7680 O   0  0  0  0  0  0  0  0  0  0  0  0
  186.9700  178.3380  142.8680 C   0  0  0  0  0  0  0  0  0  0  0  0
  187.3920  177.5860  144.0060 N   0  0  0  0  0  2  0  0  0  0  0  0
  184.2070  178.8970  145.4120 N   0  0  0  0  0  0  0  0  0  0  0  0
  185.9410  180.1740  144.2330 C   0  0  0  0  0  2  0  0  0  0  0  0
  184.3690  177.6090  141.9760 O   0  0  0  0  0  1  0  0  0  0  0  0
  183.9550  178.2480  146.5720 O   0  0  0  0  0  1  0  0  0  0  0  0
  185.5710  179.4150  145.5100 C   0  0  0  0  0  2  0  0  0  0  0  0
  184.4400  178.5540  143.0020 C   0  0  2  0  0  3  0  0  0  0  0  0
  185.8000  179.2710  143.0040 C   0  0  2  0  0  3  0  0  0  0  0  0
  184.1680  177.8930  144.3520 C   0  0  0  0  0  2  0  0  0  0  0  0
  1 14  1  0  0  0  0
  2  5  1  6  0  0  0
  2 13  1  0  0  0  0
  2  3  1  0  0  0  0
  3 19  1  0  0  0  0
  4 15  2  0  0  0  0
  6 17  1  0  0  0  0
  6  1  2  0  0  0  0
  7  3  2  0  0  0  0
  7  4  1  0  0  0  0
  8 23  1  6  0  0  0
  8 13  1  0  0  0  0
  9  1  1  0  0  0  0
 11  4  1  0  0  0  0
 12  8  1  0  0  0  0
 13 18  1  1  0  0  0
 14  5  2  0  0  0  0
 15 20  1  0  0  0  0
 16 12  1  0  0  0  0
 16  5  1  0  0  0  0
 17 16  2  0  0  0  0
 18 10  1  0  0  0  0
 19 10  1  0  0  0  0
 19 20  2  0  0  0  0
 21 22  2  0  0  0  0
 22 23  1  0  0  0  0
 24 28  1  0  0  0  0
 24 27  1  0  0  0  0
 25 28  1  0  0  0  0
 29 26  1  6  0  0  0
 29 30  1  0  0  0  0
 29 31  1  0  0  0  0
 30 22  1  1  0  0  0
 30 25  1  0  0  0  0
 31 24  1  0  0  0  0
M  END
>  <MODEL>
9

>  <REMARK>
 VINA RESULT:      -7.9      2.635      7.351
  Name = 
  2 active torsions:
  status: ('A' for Active; 'I' for Inactive)
    1  A    between atoms: C_5  and  C_30
    2  A    between atoms: C_10  and  N_16
                            x       y       z     vdW  Elec       q    Type
                         _______ _______ _______ _____ _____    ______ ____

>  <TORSDO>
F 2

$$$$
