=
 OpenBabel11112416203D

 30 35  0  0  1  0  0  0  0  0999 V2000
  186.9210  177.5290  143.9260 C   0  0  0  0  0  0  0  0  0  0  0  0
  185.2860  178.6940  145.4650 C   0  0  0  0  0  0  0  0  0  0  0  0
  189.2190  176.4440  147.1050 N   0  0  0  0  0  0  0  0  0  0  0  0
  188.0730  176.7060  143.7730 C   0  0  0  0  0  0  0  0  0  0  0  0
  186.2840  178.0680  142.6760 C   0  0  0  0  0  2  0  0  0  0  0  0
  187.8160  176.0410  140.1870 O   0  0  0  0  0  0  0  0  0  0  0  0
  190.8000  175.6390  142.7240 C   0  0  1  0  0  3  0  0  0  0  0  0
  187.5010  176.4020  141.3550 C   0  0  0  0  0  0  0  0  0  0  0  0
  190.9610  175.3450  144.1290 N   0  0  0  0  0  0  0  0  0  0  0  0
  190.2420  175.8080  146.5060 C   0  0  0  0  0  0  0  0  0  0  0  0
  186.1540  177.0000  141.6080 C   0  0  2  0  0  3  0  0  0  0  0  0
  188.3960  176.1600  142.4590 N   0  0  0  0  0  0  0  0  0  0  0  0
  184.9280  179.0410  146.7710 C   0  0  0  0  0  3  0  0  0  0  0  0
  192.1610  174.5820  144.4120 C   0  0  0  0  0  2  0  0  0  0  0  0
  191.9150  174.8940  142.0130 C   0  0  0  0  0  2  0  0  0  0  0  0
  184.3430  179.1410  144.3980 C   0  0  0  0  0  1  0  0  0  0  0  0
  188.3750  176.8130  146.1520 N   0  0  0  0  0  0  0  0  0  0  0  0
  185.7070  178.6500  147.8550 C   0  0  0  0  0  3  0  0  0  0  0  0
  186.4670  177.9280  145.2240 C   0  0  0  0  0  0  0  0  0  0  0  0
  188.8150  176.4230  144.9410 C   0  0  0  0  0  0  0  0  0  0  0  0
  191.4250  175.2940  147.2500 C   0  0  0  0  0  1  0  0  0  0  0  0
  190.0350  175.7830  145.1310 C   0  0  0  0  0  0  0  0  0  0  0  0
  192.9010  174.4710  143.0920 C   0  0  0  0  0  2  0  0  0  0  0  0
  189.0270  173.7860  142.7130 C   0  0  0  0  0  1  0  0  0  0  0  0
  186.8570  177.8980  147.6450 C   0  0  0  0  0  3  0  0  0  0  0  0
  187.2400  177.5300  146.3490 C   0  0  0  0  0  0  0  0  0  0  0  0
  189.4440  175.1690  142.2200 C   0  0  2  0  0  3  0  0  0  0  0  0
  185.6390  177.5740  140.4420 O   0  0  0  0  0  0  0  0  0  0  0  0
  183.3740  178.2910  140.5130 C   0  0  0  0  0  1  0  0  0  0  0  0
  184.8080  178.6040  140.8860 C   0  0  0  0  0  2  0  0  0  0  0  0
  1 19  1  0  0  0  0
  2 13  1  0  0  0  0
  4  1  2  0  0  0  0
  4 20  1  0  0  0  0
  5  1  1  0  0  0  0
  6  8  2  0  0  0  0
  7 15  1  6  0  0  0
  7  9  1  0  0  0  0
  8 11  1  0  0  0  0
  8 12  1  0  0  0  0
  9 14  1  0  0  0  0
  9 22  1  0  0  0  0
 10  3  2  0  0  0  0
 10 21  1  0  0  0  0
 11 28  1  6  0  0  0
 11  5  1  0  0  0  0
 12  4  1  0  0  0  0
 13 18  2  0  0  0  0
 15 23  1  0  0  0  0
 16  2  1  0  0  0  0
 17 26  1  0  0  0  0
 17  3  1  0  0  0  0
 19  2  2  0  0  0  0
 19 26  1  0  0  0  0
 20 22  2  0  0  0  0
 20 17  1  0  0  0  0
 22 10  1  0  0  0  0
 23 14  1  0  0  0  0
 25 18  1  0  0  0  0
 26 25  2  0  0  0  0
 27 12  1  0  0  0  0
 27 24  1  1  0  0  0
 27  7  1  0  0  0  0
 28 30  1  0  0  0  0
 29 30  1  0  0  0  0
M  END
>  <MODEL>
1

>  <REMARK>
 VINA RESULT:      -8.7      0.000      0.000
  Name = 
  2 active torsions:
  status: ('A' for Active; 'I' for Inactive)
    1  A    between atoms: C_11  and  O_28
    2  A    between atoms: O_28  and  C_30
                            x       y       z     vdW  Elec       q    Type
                         _______ _______ _______ _____ _____    ______ ____

>  <TORSDO>
F 2

$$$$
=
 OpenBabel11112416203D

 30 35  0  0  1  0  0  0  0  0999 V2000
  187.7160  176.5590  144.9500 C   0  0  0  0  0  0  0  0  0  0  0  0
  186.3790  178.4290  146.0070 C   0  0  0  0  0  0  0  0  0  0  0  0
  186.4250  177.6580  141.2500 N   0  0  0  0  0  0  0  0  0  0  0  0
  188.1860  175.9160  143.7700 C   0  0  0  0  0  0  0  0  0  0  0  0
  188.0640  175.9270  146.2690 C   0  0  0  0  0  2  0  0  0  0  0  0
  190.6210  173.6540  145.2940 O   0  0  0  0  0  0  0  0  0  0  0  0
  188.9220  173.6750  141.7430 C   0  0  1  0  0  3  0  0  0  0  0  0
  189.8080  174.6110  145.1600 C   0  0  0  0  0  0  0  0  0  0  0  0
  188.4110  174.6630  140.8210 N   0  0  0  0  0  0  0  0  0  0  0  0
  187.0000  176.7280  140.4660 C   0  0  0  0  0  0  0  0  0  0  0  0
  189.5200  175.5080  146.3220 C   0  0  2  0  0  3  0  0  0  0  0  0
  189.2240  174.8960  143.8730 N   0  0  0  0  0  0  0  0  0  0  0  0
  185.5180  179.5160  145.8320 C   0  0  0  0  0  3  0  0  0  0  0  0
  188.5990  174.2900  139.4320 C   0  0  0  0  0  2  0  0  0  0  0  0
  189.6220  172.6330  140.8890 C   0  0  0  0  0  2  0  0  0  0  0  0
  186.7860  178.1490  147.4150 C   0  0  0  0  0  1  0  0  0  0  0  0
  186.8140  177.4170  142.4940 N   0  0  0  0  0  0  0  0  0  0  0  0
  185.0970  179.9000  144.5630 C   0  0  0  0  0  3  0  0  0  0  0  0
  186.8400  177.6890  144.8750 C   0  0  0  0  0  0  0  0  0  0  0  0
  187.6420  176.3560  142.5430 C   0  0  0  0  0  0  0  0  0  0  0  0
  186.7520  176.6370  139.0010 C   0  0  0  0  0  1  0  0  0  0  0  0
  187.7700  175.8730  141.2460 C   0  0  0  0  0  0  0  0  0  0  0  0
  189.1780  172.8870  139.4560 C   0  0  0  0  0  2  0  0  0  0  0  0
  190.8960  175.2750  142.0960 C   0  0  0  0  0  1  0  0  0  0  0  0
  185.5380  179.1990  143.4470 C   0  0  0  0  0  3  0  0  0  0  0  0
  186.4050  178.1080  143.5880 C   0  0  0  0  0  0  0  0  0  0  0  0
  189.9030  174.3010  142.7230 C   0  0  2  0  0  3  0  0  0  0  0  0
  189.7670  174.8500  147.5300 O   0  0  0  0  0  0  0  0  0  0  0  0
  191.0900  176.7770  147.9610 C   0  0  0  0  0  1  0  0  0  0  0  0
  191.0450  175.2640  147.9090 C   0  0  0  0  0  2  0  0  0  0  0  0
  1  5  1  0  0  0  0
  2 16  1  0  0  0  0
  3 17  1  0  0  0  0
  4 12  1  0  0  0  0
  4  1  2  0  0  0  0
  5 11  1  0  0  0  0
  7 15  1  6  0  0  0
  7 27  1  0  0  0  0
  8  6  2  0  0  0  0
  8 11  1  0  0  0  0
  9 22  1  0  0  0  0
  9  7  1  0  0  0  0
 10 22  1  0  0  0  0
 10  3  2  0  0  0  0
 11 28  1  1  0  0  0
 12  8  1  0  0  0  0
 13  2  1  0  0  0  0
 14 23  1  0  0  0  0
 14  9  1  0  0  0  0
 17 20  1  0  0  0  0
 17 26  1  0  0  0  0
 18 13  2  0  0  0  0
 19  1  1  0  0  0  0
 19  2  2  0  0  0  0
 20  4  1  0  0  0  0
 21 10  1  0  0  0  0
 22 20  2  0  0  0  0
 23 15  1  0  0  0  0
 25 26  2  0  0  0  0
 25 18  1  0  0  0  0
 26 19  1  0  0  0  0
 27 24  1  6  0  0  0
 27 12  1  0  0  0  0
 28 30  1  0  0  0  0
 30 29  1  0  0  0  0
M  END
>  <MODEL>
2

>  <REMARK>
 VINA RESULT:      -8.5      2.491      5.224
  Name = 
  2 active torsions:
  status: ('A' for Active; 'I' for Inactive)
    1  A    between atoms: C_11  and  O_28
    2  A    between atoms: O_28  and  C_30
                            x       y       z     vdW  Elec       q    Type
                         _______ _______ _______ _____ _____    ______ ____

>  <TORSDO>
F 2

$$$$
=
 OpenBabel11112416203D

 30 35  0  0  1  0  0  0  0  0999 V2000
  187.7460  177.0530  144.1630 C   0  0  0  0  0  0  0  0  0  0  0  0
  185.4890  177.9650  144.8530 C   0  0  0  0  0  0  0  0  0  0  0  0
  189.2090  177.6990  147.9050 N   0  0  0  0  0  0  0  0  0  0  0  0
  189.0630  176.6590  144.5310 C   0  0  0  0  0  0  0  0  0  0  0  0
  187.3870  176.9910  142.7040 C   0  0  0  0  0  2  0  0  0  0  0  0
  190.0490  175.0130  141.4190 O   0  0  0  0  0  0  0  0  0  0  0  0
  192.1560  176.3350  144.4700 C   0  0  1  0  0  3  0  0  0  0  0  0
  189.3230  175.5440  142.3050 C   0  0  0  0  0  0  0  0  0  0  0  0
  191.9680  176.4990  145.8930 N   0  0  0  0  0  0  0  0  0  0  0  0
  190.4910  177.3100  147.7740 C   0  0  0  0  0  0  0  0  0  0  0  0
  187.8540  175.6980  142.0660 C   0  0  2  0  0  3  0  0  0  0  0  0
  189.8860  175.9230  143.5760 N   0  0  0  0  0  0  0  0  0  0  0  0
  184.6880  178.5060  145.8620 C   0  0  0  0  0  3  0  0  0  0  0  0
  193.1870  176.2910  146.6500 C   0  0  0  0  0  2  0  0  0  0  0  0
  193.5830  175.8480  144.2920 C   0  0  0  0  0  2  0  0  0  0  0  0
  184.8180  177.7650  143.5350 C   0  0  0  0  0  1  0  0  0  0  0  0
  188.6160  177.4930  146.7380 N   0  0  0  0  0  0  0  0  0  0  0  0
  185.1870  178.7050  147.1450 C   0  0  0  0  0  3  0  0  0  0  0  0
  186.8450  177.6070  145.1270 C   0  0  0  0  0  0  0  0  0  0  0  0
  189.4770  176.9650  145.8460 C   0  0  0  0  0  0  0  0  0  0  0  0
  191.4940  177.4440  148.8660 C   0  0  0  0  0  1  0  0  0  0  0  0
  190.7090  176.8500  146.4800 C   0  0  0  0  0  0  0  0  0  0  0  0
  194.2830  176.0870  145.6220 C   0  0  0  0  0  2  0  0  0  0  0  0
  191.0030  174.0610  144.7530 C   0  0  0  0  0  1  0  0  0  0  0  0
  186.5010  178.3590  147.4360 C   0  0  0  0  0  3  0  0  0  0  0  0
  187.3290  177.8090  146.4490 C   0  0  0  0  0  0  0  0  0  0  0  0
  191.1760  175.3180  143.9050 C   0  0  2  0  0  3  0  0  0  0  0  0
  187.5750  175.7300  140.6980 O   0  0  0  0  0  0  0  0  0  0  0  0
  186.4500  177.0930  139.1080 C   0  0  0  0  0  1  0  0  0  0  0  0
  187.1510  177.0370  140.4490 C   0  0  0  0  0  2  0  0  0  0  0  0
  1  4  2  0  0  0  0
  1 19  1  0  0  0  0
  2 19  2  0  0  0  0
  2 13  1  0  0  0  0
  4 20  1  0  0  0  0
  5  1  1  0  0  0  0
  6  8  2  0  0  0  0
  7 15  1  1  0  0  0
  7  9  1  0  0  0  0
  8 12  1  0  0  0  0
  9 22  1  0  0  0  0
  9 14  1  0  0  0  0
 10  3  2  0  0  0  0
 10 21  1  0  0  0  0
 11 28  1  6  0  0  0
 11  8  1  0  0  0  0
 11  5  1  0  0  0  0
 12 27  1  0  0  0  0
 12  4  1  0  0  0  0
 13 18  2  0  0  0  0
 15 23  1  0  0  0  0
 16  2  1  0  0  0  0
 17  3  1  0  0  0  0
 18 25  1  0  0  0  0
 19 26  1  0  0  0  0
 20 22  2  0  0  0  0
 20 17  1  0  0  0  0
 22 10  1  0  0  0  0
 23 14  1  0  0  0  0
 26 17  1  0  0  0  0
 26 25  2  0  0  0  0
 27  7  1  0  0  0  0
 27 24  1  1  0  0  0
 29 30  1  0  0  0  0
 30 28  1  0  0  0  0
M  END
>  <MODEL>
3

>  <REMARK>
 VINA RESULT:      -8.3      1.548      2.108
  Name = 
  2 active torsions:
  status: ('A' for Active; 'I' for Inactive)
    1  A    between atoms: C_11  and  O_28
    2  A    between atoms: O_28  and  C_30
                            x       y       z     vdW  Elec       q    Type
                         _______ _______ _______ _____ _____    ______ ____

>  <TORSDO>
F 2

$$$$
=
 OpenBabel11112416203D

 30 35  0  0  1  0  0  0  0  0999 V2000
  188.3680  176.4750  143.7030 C   0  0  0  0  0  0  0  0  0  0  0  0
  186.0150  177.3220  144.0840 C   0  0  0  0  0  0  0  0  0  0  0  0
  189.4010  177.4740  147.5100 N   0  0  0  0  0  0  0  0  0  0  0  0
  189.6540  176.1750  144.2340 C   0  0  0  0  0  0  0  0  0  0  0  0
  188.1680  176.2850  142.2240 C   0  0  0  0  0  2  0  0  0  0  0  0
  191.0300  174.3490  141.3800 O   0  0  0  0  0  0  0  0  0  0  0  0
  192.7470  176.0020  144.5140 C   0  0  1  0  0  3  0  0  0  0  0  0
  190.1940  174.9100  142.1420 C   0  0  0  0  0  0  0  0  0  0  0  0
  192.4040  176.2640  145.8920 N   0  0  0  0  0  0  0  0  0  0  0  0
  190.7040  177.1400  147.5420 C   0  0  0  0  0  0  0  0  0  0  0  0
  188.7530  174.9720  141.7440 C   0  0  2  0  0  3  0  0  0  0  0  0
  190.6030  175.4110  143.4300 N   0  0  0  0  0  0  0  0  0  0  0  0
  185.0900  177.8980  144.9600 C   0  0  0  0  0  3  0  0  0  0  0  0
  193.5440  176.1750  146.7840 C   0  0  0  0  0  2  0  0  0  0  0  0
  194.2040  175.5750  144.5220 C   0  0  0  0  0  2  0  0  0  0  0  0
  185.4960  176.9910  142.7250 C   0  0  0  0  0  1  0  0  0  0  0  0
  188.9430  177.1510  146.3090 N   0  0  0  0  0  0  0  0  0  0  0  0
  185.4430  178.2190  146.2660 C   0  0  0  0  0  3  0  0  0  0  0  0
  187.3480  177.0550  144.5220 C   0  0  0  0  0  0  0  0  0  0  0  0
  189.9150  176.6010  145.5550 C   0  0  0  0  0  0  0  0  0  0  0  0
  191.5800  177.4070  148.7160 C   0  0  0  0  0  1  0  0  0  0  0  0
  191.0760  176.5960  146.3180 C   0  0  0  0  0  0  0  0  0  0  0  0
  194.7500  175.9490  145.8920 C   0  0  0  0  0  2  0  0  0  0  0  0
  191.6670  173.7010  144.8600 C   0  0  0  0  0  1  0  0  0  0  0  0
  186.7320  177.9610  146.7170 C   0  0  0  0  0  3  0  0  0  0  0  0
  187.6810  177.3800  145.8660 C   0  0  0  0  0  0  0  0  0  0  0  0
  191.8750  174.8980  143.9350 C   0  0  2  0  0  3  0  0  0  0  0  0
  188.6180  174.8860  140.3560 O   0  0  0  0  0  0  0  0  0  0  0  0
  188.3120  173.2920  138.6190 C   0  0  0  0  0  1  0  0  0  0  0  0
  188.2750  173.5550  140.1100 C   0  0  0  0  0  2  0  0  0  0  0  0
  1  4  2  0  0  0  0
  1 19  1  0  0  0  0
  2 19  2  0  0  0  0
  2 13  1  0  0  0  0
  3 10  2  0  0  0  0
  4 20  1  0  0  0  0
  5  1  1  0  0  0  0
  6  8  2  0  0  0  0
  7 15  1  1  0  0  0
  7  9  1  0  0  0  0
  8 12  1  0  0  0  0
  9 22  1  0  0  0  0
  9 14  1  0  0  0  0
 10 21  1  0  0  0  0
 11 28  1  6  0  0  0
 11  8  1  0  0  0  0
 11  5  1  0  0  0  0
 12 27  1  0  0  0  0
 12  4  1  0  0  0  0
 13 18  2  0  0  0  0
 15 23  1  0  0  0  0
 16  2  1  0  0  0  0
 17  3  1  0  0  0  0
 18 25  1  0  0  0  0
 19 26  1  0  0  0  0
 20 17  1  0  0  0  0
 20 22  2  0  0  0  0
 22 10  1  0  0  0  0
 23 14  1  0  0  0  0
 26 17  1  0  0  0  0
 26 25  2  0  0  0  0
 27  7  1  0  0  0  0
 27 24  1  1  0  0  0
 29 30  1  0  0  0  0
 30 28  1  0  0  0  0
M  END
>  <MODEL>
4

>  <REMARK>
 VINA RESULT:      -8.0      1.799      3.009
  Name = 
  2 active torsions:
  status: ('A' for Active; 'I' for Inactive)
    1  A    between atoms: C_11  and  O_28
    2  A    between atoms: O_28  and  C_30
                            x       y       z     vdW  Elec       q    Type
                         _______ _______ _______ _____ _____    ______ ____

>  <TORSDO>
F 2

$$$$
=
 OpenBabel11112416203D

 30 35  0  0  1  0  0  0  0  0999 V2000
  189.3630  175.3370  144.1040 C   0  0  0  0  0  0  0  0  0  0  0  0
  191.2300  174.5570  145.6210 C   0  0  0  0  0  0  0  0  0  0  0  0
  187.8760  177.7030  147.0620 N   0  0  0  0  0  0  0  0  0  0  0  0
  188.2510  176.2000  143.8870 C   0  0  0  0  0  0  0  0  0  0  0  0
  189.6810  174.3350  143.0290 C   0  0  0  0  0  2  0  0  0  0  0  0
  187.7530  175.5890  140.3160 O   0  0  0  0  0  0  0  0  0  0  0  0
  185.4220  177.1890  143.0550 C   0  0  1  0  0  3  0  0  0  0  0  0
  188.2960  175.6030  141.4560 C   0  0  0  0  0  0  0  0  0  0  0  0
  185.5880  177.9550  144.2700 N   0  0  0  0  0  0  0  0  0  0  0  0
  186.7820  178.2270  146.4780 C   0  0  0  0  0  0  0  0  0  0  0  0
  189.6330  174.9580  141.6490 C   0  0  2  0  0  3  0  0  0  0  0  0
  187.6790  176.3110  142.5490 N   0  0  0  0  0  0  0  0  0  0  0  0
  191.8460  174.6250  146.8750 C   0  0  0  0  0  3  0  0  0  0  0  0
  184.5210  178.9130  144.4820 C   0  0  0  0  0  2  0  0  0  0  0  0
  184.2200  177.7880  142.3470 C   0  0  0  0  0  2  0  0  0  0  0  0
  191.8920  173.6640  144.6270 C   0  0  0  0  0  1  0  0  0  0  0  0
  188.4710  176.9340  146.1620 N   0  0  0  0  0  0  0  0  0  0  0  0
  191.3450  175.4520  147.8760 C   0  0  0  0  0  3  0  0  0  0  0  0
  190.0670  175.3410  145.3500 C   0  0  0  0  0  0  0  0  0  0  0  0
  187.7980  176.9490  144.9950 C   0  0  0  0  0  0  0  0  0  0  0  0
  185.8200  179.1040  147.1990 C   0  0  0  0  0  1  0  0  0  0  0  0
  186.6860  177.7630  145.1710 C   0  0  0  0  0  0  0  0  0  0  0  0
  183.5180  178.6690  143.3710 C   0  0  0  0  0  2  0  0  0  0  0  0
  187.2470  178.6930  142.0610 C   0  0  0  0  0  1  0  0  0  0  0  0
  190.2190  176.2280  147.6310 C   0  0  0  0  0  3  0  0  0  0  0  0
  189.5820  176.1870  146.3840 C   0  0  0  0  0  0  0  0  0  0  0  0
  186.6580  177.2890  142.1750 C   0  0  2  0  0  3  0  0  0  0  0  0
  189.8490  173.9680  140.6870 O   0  0  0  0  0  0  0  0  0  0  0  0
  191.4430  172.2100  140.5550 C   0  0  0  0  0  1  0  0  0  0  0  0
  191.2160  173.6940  140.7550 C   0  0  0  0  0  2  0  0  0  0  0  0
  1 19  1  0  0  0  0
  2 13  1  0  0  0  0
  4  1  2  0  0  0  0
  4 20  1  0  0  0  0
  5  1  1  0  0  0  0
  6  8  2  0  0  0  0
  7 15  1  6  0  0  0
  7  9  1  0  0  0  0
  8 11  1  0  0  0  0
  8 12  1  0  0  0  0
  9 14  1  0  0  0  0
  9 22  1  0  0  0  0
 10  3  2  0  0  0  0
 10 21  1  0  0  0  0
 11 28  1  6  0  0  0
 11  5  1  0  0  0  0
 12  4  1  0  0  0  0
 13 18  2  0  0  0  0
 15 23  1  0  0  0  0
 16  2  1  0  0  0  0
 17 26  1  0  0  0  0
 17  3  1  0  0  0  0
 19  2  2  0  0  0  0
 19 26  1  0  0  0  0
 20 22  2  0  0  0  0
 20 17  1  0  0  0  0
 22 10  1  0  0  0  0
 23 14  1  0  0  0  0
 25 18  1  0  0  0  0
 26 25  2  0  0  0  0
 27 24  1  1  0  0  0
 27 12  1  0  0  0  0
 27  7  1  0  0  0  0
 28 30  1  0  0  0  0
 29 30  1  0  0  0  0
M  END
>  <MODEL>
5

>  <REMARK>
 VINA RESULT:      -7.9      1.417      5.728
  Name = 
  2 active torsions:
  status: ('A' for Active; 'I' for Inactive)
    1  A    between atoms: C_11  and  O_28
    2  A    between atoms: O_28  and  C_30
                            x       y       z     vdW  Elec       q    Type
                         _______ _______ _______ _____ _____    ______ ____

>  <TORSDO>
F 2

$$$$
=
 OpenBabel11112416203D

 30 35  0  0  1  0  0  0  0  0999 V2000
  187.1210  176.7150  143.8570 C   0  0  0  0  0  0  0  0  0  0  0  0
  185.4280  178.2280  142.7420 C   0  0  0  0  0  0  0  0  0  0  0  0
  188.1910  175.1680  140.2480 N   0  0  0  0  0  0  0  0  0  0  0  0
  188.1810  175.7730  143.7290 C   0  0  0  0  0  0  0  0  0  0  0  0
  186.6480  177.0410  145.2460 C   0  0  0  0  0  2  0  0  0  0  0  0
  189.2910  175.7000  147.2120 O   0  0  0  0  0  0  0  0  0  0  0  0
  189.9380  173.2500  144.2000 C   0  0  1  0  0  3  0  0  0  0  0  0
  188.7060  176.0750  146.1580 C   0  0  0  0  0  0  0  0  0  0  0  0
  190.0530  173.3480  142.7630 N   0  0  0  0  0  0  0  0  0  0  0  0
  189.1090  174.2480  140.6000 C   0  0  0  0  0  0  0  0  0  0  0  0
  187.8070  177.2710  146.1940 C   0  0  2  0  0  3  0  0  0  0  0  0
  188.9680  175.4140  144.9050 N   0  0  0  0  0  0  0  0  0  0  0  0
  184.8280  178.6660  141.5580 C   0  0  0  0  0  3  0  0  0  0  0  0
  191.0010  172.4030  142.2070 C   0  0  0  0  0  2  0  0  0  0  0  0
  190.9960  172.2520  144.6340 C   0  0  0  0  0  2  0  0  0  0  0  0
  184.9520  178.8940  143.9900 C   0  0  0  0  0  1  0  0  0  0  0  0
  187.7960  175.7710  141.3600 N   0  0  0  0  0  0  0  0  0  0  0  0
  185.2120  178.1480  140.3250 C   0  0  0  0  0  3  0  0  0  0  0  0
  186.4510  177.2330  142.7030 C   0  0  0  0  0  0  0  0  0  0  0  0
  188.4420  175.2760  142.4330 C   0  0  0  0  0  0  0  0  0  0  0  0
  189.7460  173.3240  139.6230 C   0  0  0  0  0  1  0  0  0  0  0  0
  189.2880  174.2720  141.9780 C   0  0  0  0  0  0  0  0  0  0  0  0
  191.4560  171.5410  143.3700 C   0  0  0  0  0  2  0  0  0  0  0  0
  191.3590  175.3840  144.2870 C   0  0  0  0  0  1  0  0  0  0  0  0
  186.2110  177.1840  140.2620 C   0  0  0  0  0  3  0  0  0  0  0  0
  186.8360  176.7280  141.4300 C   0  0  0  0  0  0  0  0  0  0  0  0
  190.1810  174.5990  144.8590 C   0  0  2  0  0  3  0  0  0  0  0  0
  187.3140  177.4820  147.4850 O   0  0  0  0  0  0  0  0  0  0  0  0
  185.9410  179.4160  147.6390 C   0  0  0  0  0  1  0  0  0  0  0  0
  186.0090  177.9420  147.2990 C   0  0  0  0  0  2  0  0  0  0  0  0
  1  5  1  0  0  0  0
  2 16  1  0  0  0  0
  3 10  2  0  0  0  0
  3 17  1  0  0  0  0
  4  1  2  0  0  0  0
  4 12  1  0  0  0  0
  5 11  1  0  0  0  0
  7 15  1  1  0  0  0
  7 27  1  0  0  0  0
  8 11  1  0  0  0  0
  8  6  2  0  0  0  0
  9  7  1  0  0  0  0
 10 22  1  0  0  0  0
 11 28  1  1  0  0  0
 12  8  1  0  0  0  0
 13  2  2  0  0  0  0
 14  9  1  0  0  0  0
 14 23  1  0  0  0  0
 17 26  1  0  0  0  0
 17 20  1  0  0  0  0
 18 13  1  0  0  0  0
 19  2  1  0  0  0  0
 19  1  1  0  0  0  0
 20  4  1  0  0  0  0
 21 10  1  0  0  0  0
 22 20  2  0  0  0  0
 22  9  1  0  0  0  0
 23 15  1  0  0  0  0
 25 18  2  0  0  0  0
 25 26  1  0  0  0  0
 26 19  2  0  0  0  0
 27 24  1  6  0  0  0
 27 12  1  0  0  0  0
 30 28  1  0  0  0  0
 30 29  1  0  0  0  0
M  END
>  <MODEL>
6

>  <REMARK>
 VINA RESULT:      -7.8      2.445      4.894
  Name = 
  2 active torsions:
  status: ('A' for Active; 'I' for Inactive)
    1  A    between atoms: C_11  and  O_28
    2  A    between atoms: O_28  and  C_30
                            x       y       z     vdW  Elec       q    Type
                         _______ _______ _______ _____ _____    ______ ____

>  <TORSDO>
F 2

$$$$
=
 OpenBabel11112416203D

 30 35  0  0  1  0  0  0  0  0999 V2000
  188.8360  176.2940  145.4650 C   0  0  0  0  0  0  0  0  0  0  0  0
  186.7010  177.5600  145.9520 C   0  0  0  0  0  0  0  0  0  0  0  0
  187.5830  175.5350  141.6690 N   0  0  0  0  0  0  0  0  0  0  0  0
  189.6650  175.6240  144.5210 C   0  0  0  0  0  0  0  0  0  0  0  0
  189.2920  176.3120  146.8980 C   0  0  0  0  0  2  0  0  0  0  0  0
  192.6820  175.2920  146.5600 O   0  0  0  0  0  0  0  0  0  0  0  0
  191.5360  173.4860  143.2550 C   0  0  1  0  0  3  0  0  0  0  0  0
  191.5460  175.6820  146.1730 C   0  0  0  0  0  0  0  0  0  0  0  0
  190.7350  173.8090  142.0970 N   0  0  0  0  0  0  0  0  0  0  0  0
  188.5930  174.7880  141.1850 C   0  0  0  0  0  0  0  0  0  0  0  0
  190.7660  176.6440  147.0130 C   0  0  2  0  0  3  0  0  0  0  0  0
  191.0340  175.2750  144.8890 N   0  0  0  0  0  0  0  0  0  0  0  0
  185.4670  178.0250  145.4880 C   0  0  0  0  0  3  0  0  0  0  0  0
  191.2140  173.1730  140.8850 C   0  0  0  0  0  2  0  0  0  0  0  0
  192.7130  172.6810  142.7350 C   0  0  0  0  0  2  0  0  0  0  0  0
  187.0400  177.9270  147.3580 C   0  0  0  0  0  1  0  0  0  0  0  0
  187.9060  175.8780  142.9070 N   0  0  0  0  0  0  0  0  0  0  0  0
  185.0530  177.7800  144.1830 C   0  0  0  0  0  3  0  0  0  0  0  0
  187.5600  176.8180  145.0840 C   0  0  0  0  0  0  0  0  0  0  0  0
  189.1130  175.3820  143.2440 C   0  0  0  0  0  0  0  0  0  0  0  0
  188.5660  174.1670  139.8330 C   0  0  0  0  0  1  0  0  0  0  0  0
  189.5790  174.6540  142.1560 C   0  0  0  0  0  0  0  0  0  0  0  0
  192.3540  172.2690  141.3150 C   0  0  0  0  0  2  0  0  0  0  0  0
  192.5330  175.8360  143.0080 C   0  0  0  0  0  1  0  0  0  0  0  0
  185.8750  177.0670  143.3190 C   0  0  0  0  0  3  0  0  0  0  0  0
  187.1200  176.5910  143.7510 C   0  0  0  0  0  0  0  0  0  0  0  0
  192.0230  174.7480  143.9490 C   0  0  2  0  0  3  0  0  0  0  0  0
  191.1550  176.5610  148.3520 O   0  0  0  0  0  0  0  0  0  0  0  0
  191.5660  177.9180  150.2600 C   0  0  0  0  0  1  0  0  0  0  0  0
  191.2700  177.8860  148.7750 C   0  0  0  0  0  2  0  0  0  0  0  0
  1  5  1  0  0  0  0
  2 16  1  0  0  0  0
  3 17  1  0  0  0  0
  4 12  1  0  0  0  0
  4  1  2  0  0  0  0
  5 11  1  0  0  0  0
  7 15  1  6  0  0  0
  7 27  1  0  0  0  0
  8  6  2  0  0  0  0
  8 11  1  0  0  0  0
  9 22  1  0  0  0  0
  9  7  1  0  0  0  0
 10  3  2  0  0  0  0
 10 22  1  0  0  0  0
 11 28  1  1  0  0  0
 12  8  1  0  0  0  0
 13  2  1  0  0  0  0
 14 23  1  0  0  0  0
 14  9  1  0  0  0  0
 17 20  1  0  0  0  0
 17 26  1  0  0  0  0
 18 13  2  0  0  0  0
 19  1  1  0  0  0  0
 19  2  2  0  0  0  0
 20  4  1  0  0  0  0
 21 10  1  0  0  0  0
 22 20  2  0  0  0  0
 23 15  1  0  0  0  0
 25 26  2  0  0  0  0
 25 18  1  0  0  0  0
 26 19  1  0  0  0  0
 27 24  1  6  0  0  0
 27 12  1  0  0  0  0
 28 30  1  0  0  0  0
 30 29  1  0  0  0  0
M  END
>  <MODEL>
7

>  <REMARK>
 VINA RESULT:      -7.7      2.803      5.368
  Name = 
  2 active torsions:
  status: ('A' for Active; 'I' for Inactive)
    1  A    between atoms: C_11  and  O_28
    2  A    between atoms: O_28  and  C_30
                            x       y       z     vdW  Elec       q    Type
                         _______ _______ _______ _____ _____    ______ ____

>  <TORSDO>
F 2

$$$$
=
 OpenBabel11112416203D

 30 35  0  0  1  0  0  0  0  0999 V2000
  188.3620  175.7950  143.1600 C   0  0  0  0  0  0  0  0  0  0  0  0
  188.1150  176.4020  145.6030 C   0  0  0  0  0  0  0  0  0  0  0  0
  190.7050  172.6130  144.1320 N   0  0  0  0  0  0  0  0  0  0  0  0
  188.8350  174.8830  142.1740 C   0  0  0  0  0  0  0  0  0  0  0  0
  187.7110  177.0610  142.6760 C   0  0  0  0  0  2  0  0  0  0  0  0
  187.1410  176.2830  139.2520 O   0  0  0  0  0  0  0  0  0  0  0  0
  190.1680  173.7890  139.5850 C   0  0  1  0  0  3  0  0  0  0  0  0
  187.4420  176.0570  140.4570 C   0  0  0  0  0  0  0  0  0  0  0  0
  190.6060  172.7760  140.5180 N   0  0  0  0  0  0  0  0  0  0  0  0
  191.0220  172.1200  142.9210 C   0  0  0  0  0  0  0  0  0  0  0  0
  186.7320  176.7940  141.5490 C   0  0  2  0  0  3  0  0  0  0  0  0
  188.4000  175.0340  140.7890 N   0  0  0  0  0  0  0  0  0  0  0  0
  188.4200  176.1050  146.9350 C   0  0  0  0  0  3  0  0  0  0  0  0
  191.2870  171.6720  139.8720 C   0  0  0  0  0  2  0  0  0  0  0  0
  190.4690  173.2390  138.2030 C   0  0  0  0  0  2  0  0  0  0  0  0
  187.2320  177.5860  145.3930 C   0  0  0  0  0  1  0  0  0  0  0  0
  189.8990  173.6470  143.9350 N   0  0  0  0  0  0  0  0  0  0  0  0
  189.2040  175.0040  147.2620 C   0  0  0  0  0  3  0  0  0  0  0  0
  188.6120  175.5730  144.5510 C   0  0  0  0  0  0  0  0  0  0  0  0
  189.6700  173.8360  142.6220 C   0  0  0  0  0  0  0  0  0  0  0  0
  191.9620  170.9810  142.7310 C   0  0  0  0  0  1  0  0  0  0  0  0
  190.3990  172.8730  141.9330 C   0  0  0  0  0  0  0  0  0  0  0  0
  191.4030  172.0560  138.4090 C   0  0  0  0  0  2  0  0  0  0  0  0
  187.8160  172.8090  139.8880 C   0  0  0  0  0  1  0  0  0  0  0  0
  189.6930  174.1790  146.2560 C   0  0  0  0  0  3  0  0  0  0  0  0
  189.4010  174.4460  144.9120 C   0  0  0  0  0  0  0  0  0  0  0  0
  188.6780  174.0600  139.7350 C   0  0  2  0  0  3  0  0  0  0  0  0
  186.2250  178.0080  141.0800 O   0  0  0  0  0  0  0  0  0  0  0  0
  184.2470  178.2890  142.3680 C   0  0  0  0  0  1  0  0  0  0  0  0
  185.7110  178.6430  142.2130 C   0  0  0  0  0  2  0  0  0  0  0  0
  1 19  1  0  0  0  0
  2 13  1  0  0  0  0
  4 20  1  0  0  0  0
  4  1  2  0  0  0  0
  5  1  1  0  0  0  0
  6  8  2  0  0  0  0
  7 15  1  6  0  0  0
  7 27  1  0  0  0  0
  7  9  1  0  0  0  0
  8 12  1  0  0  0  0
  8 11  1  0  0  0  0
  9 22  1  0  0  0  0
 10  3  2  0  0  0  0
 11 28  1  6  0  0  0
 11  5  1  0  0  0  0
 12  4  1  0  0  0  0
 13 18  2  0  0  0  0
 14  9  1  0  0  0  0
 15 23  1  0  0  0  0
 16  2  1  0  0  0  0
 17  3  1  0  0  0  0
 17 26  1  0  0  0  0
 19 26  1  0  0  0  0
 19  2  2  0  0  0  0
 20 17  1  0  0  0  0
 21 10  1  0  0  0  0
 22 20  2  0  0  0  0
 22 10  1  0  0  0  0
 23 14  1  0  0  0  0
 25 18  1  0  0  0  0
 26 25  2  0  0  0  0
 27 24  1  1  0  0  0
 27 12  1  0  0  0  0
 28 30  1  0  0  0  0
 30 29  1  0  0  0  0
M  END
>  <MODEL>
8

>  <REMARK>
 VINA RESULT:      -7.3      2.359      3.760
  Name = 
  2 active torsions:
  status: ('A' for Active; 'I' for Inactive)
    1  A    between atoms: C_11  and  O_28
    2  A    between atoms: O_28  and  C_30
                            x       y       z     vdW  Elec       q    Type
                         _______ _______ _______ _____ _____    ______ ____

>  <TORSDO>
F 2

$$$$
=
 OpenBabel11112416203D

 30 35  0  0  1  0  0  0  0  0999 V2000
  188.2850  176.0080  144.0450 C   0  0  0  0  0  0  0  0  0  0  0  0
  186.7890  177.9500  144.6680 C   0  0  0  0  0  0  0  0  0  0  0  0
  187.1480  176.3140  140.1500 N   0  0  0  0  0  0  0  0  0  0  0  0
  188.8570  175.1890  143.0300 C   0  0  0  0  0  0  0  0  0  0  0  0
  188.5930  175.6550  145.4740 C   0  0  0  0  0  2  0  0  0  0  0  0
  191.3230  173.4120  145.0630 O   0  0  0  0  0  0  0  0  0  0  0  0
  189.8300  172.6630  141.4980 C   0  0  1  0  0  3  0  0  0  0  0  0
  190.4670  174.2720  144.7140 C   0  0  0  0  0  0  0  0  0  0  0  0
  189.3180  173.4270  140.3840 N   0  0  0  0  0  0  0  0  0  0  0  0
  187.8180  175.2940  139.5820 C   0  0  0  0  0  0  0  0  0  0  0  0
  190.0640  175.3490  145.6710 C   0  0  2  0  0  3  0  0  0  0  0  0
  189.9420  174.2750  143.3710 N   0  0  0  0  0  0  0  0  0  0  0  0
  185.8810  178.9270  144.2520 C   0  0  0  0  0  3  0  0  0  0  0  0
  189.6050  172.8150  139.1010 C   0  0  0  0  0  2  0  0  0  0  0  0
  190.6340  171.5280  140.8890 C   0  0  0  0  0  2  0  0  0  0  0  0
  187.1300  177.9640  146.1210 C   0  0  0  0  0  1  0  0  0  0  0  0
  187.4790  176.3340  141.4330 N   0  0  0  0  0  0  0  0  0  0  0  0
  185.5120  179.0400  142.9160 C   0  0  0  0  0  3  0  0  0  0  0  0
  187.3540  177.0440  143.7190 C   0  0  0  0  0  0  0  0  0  0  0  0
  188.3600  175.3570  141.7190 C   0  0  0  0  0  0  0  0  0  0  0  0
  187.6590  174.9160  138.1510 C   0  0  0  0  0  1  0  0  0  0  0  0
  188.5880  174.6500  140.5440 C   0  0  0  0  0  0  0  0  0  0  0  0
  190.2580  171.4820  139.4150 C   0  0  0  0  0  2  0  0  0  0  0  0
  191.6900  174.4250  141.6320 C   0  0  0  0  0  1  0  0  0  0  0  0
  186.0530  178.1750  141.9730 C   0  0  0  0  0  3  0  0  0  0  0  0
  186.9700  177.1880  142.3570 C   0  0  0  0  0  0  0  0  0  0  0  0
  190.7170  173.5220  142.3860 C   0  0  2  0  0  3  0  0  0  0  0  0
  190.2780  174.9440  146.9910 O   0  0  0  0  0  0  0  0  0  0  0  0
  192.2610  176.2340  147.2270 C   0  0  0  0  0  1  0  0  0  0  0  0
  190.8110  176.0660  147.6290 C   0  0  0  0  0  2  0  0  0  0  0  0
  1  5  1  0  0  0  0
  2 16  1  0  0  0  0
  3 17  1  0  0  0  0
  4 12  1  0  0  0  0
  4  1  2  0  0  0  0
  5 11  1  0  0  0  0
  7 15  1  6  0  0  0
  7 27  1  0  0  0  0
  8  6  2  0  0  0  0
  8 11  1  0  0  0  0
  9 22  1  0  0  0  0
  9  7  1  0  0  0  0
 10  3  2  0  0  0  0
 10 22  1  0  0  0  0
 11 28  1  1  0  0  0
 12  8  1  0  0  0  0
 13  2  1  0  0  0  0
 14 23  1  0  0  0  0
 14  9  1  0  0  0  0
 17 20  1  0  0  0  0
 17 26  1  0  0  0  0
 18 13  2  0  0  0  0
 19  1  1  0  0  0  0
 19  2  2  0  0  0  0
 20  4  1  0  0  0  0
 21 10  1  0  0  0  0
 22 20  2  0  0  0  0
 23 15  1  0  0  0  0
 25 26  2  0  0  0  0
 25 18  1  0  0  0  0
 26 19  1  0  0  0  0
 27 24  1  6  0  0  0
 27 12  1  0  0  0  0
 28 30  1  0  0  0  0
 29 30  1  0  0  0  0
M  END
>  <MODEL>
9

>  <REMARK>
 VINA RESULT:      -7.3      2.632      5.517
  Name = 
  2 active torsions:
  status: ('A' for Active; 'I' for Inactive)
    1  A    between atoms: C_11  and  O_28
    2  A    between atoms: O_28  and  C_30
                            x       y       z     vdW  Elec       q    Type
                         _______ _______ _______ _____ _____    ______ ____

>  <TORSDO>
F 2

$$$$
