=
 OpenBabel11112416123D

 30 35  0  0  1  0  0  0  0  0999 V2000
  187.1230  177.0970  143.9540 C   0  0  1  0  0  3  0  0  0  0  0  0
  185.1940  178.1120  145.2940 C   0  0  0  0  0  0  0  0  0  0  0  0
  189.5030  177.2010  147.4510 N   0  0  0  0  0  2  0  0  0  0  0  0
  188.3730  176.2350  144.2000 C   0  0  1  0  0  3  0  0  0  0  0  0
  186.1770  176.3490  143.2200 O   0  0  0  0  0  0  0  0  0  0  0  0
  188.5450  175.2710  140.5740 N   0  0  0  0  0  1  0  0  0  0  0  0
  191.4390  176.2610  143.1440 C   0  0  1  0  0  3  0  0  0  0  0  0
  187.9610  175.3150  141.9090 C   0  0  2  0  0  3  0  0  0  0  0  0
  191.7250  176.3710  144.6310 C   0  0  2  0  0  3  0  0  0  0  0  0
  190.7390  176.5920  146.9630 C   0  0  1  0  0  3  0  0  0  0  0  0
  186.6740  176.1630  141.9090 C   0  0  2  0  0  3  0  0  0  0  0  0
  188.9310  175.8090  142.9000 N   0  0  0  0  0  0  0  0  0  0  0  0
  184.6880  178.6490  146.4820 C   0  0  0  0  0  3  0  0  0  0  0  0
  192.7930  175.3320  144.8780 C   0  0  0  0  0  2  0  0  0  0  0  0
  192.7490  175.7580  142.5640 C   0  0  0  0  0  2  0  0  0  0  0  0
  184.3590  178.0460  144.1840 O   0  0  0  0  0  1  0  0  0  0  0  0
  188.7390  177.4380  146.3000 N   0  0  0  0  0  0  0  0  0  0  0  0
  185.5030  178.7660  147.6080 C   0  0  0  0  0  3  0  0  0  0  0  0
  186.5290  177.6560  145.2350 C   0  0  0  0  0  0  0  0  0  0  0  0
  189.3620  177.0260  145.0600 C   0  0  1  0  0  3  0  0  0  0  0  0
  191.0870  175.3900  147.8190 C   0  0  0  0  0  1  0  0  0  0  0  0
  190.5020  176.1550  145.5210 C   0  0  1  0  0  3  0  0  0  0  0  0
  193.5410  175.1610  143.6380 N   0  0  0  0  0  2  0  0  0  0  0  0
  190.5120  174.1310  142.4990 O   0  0  0  0  0  0  0  0  0  0  0  0
  186.8360  178.3620  147.5480 C   0  0  0  0  0  3  0  0  0  0  0  0
  187.3600  177.8270  146.3640 C   0  0  0  0  0  0  0  0  0  0  0  0
  190.2900  175.3320  142.8180 C   0  0  0  0  0  0  0  0  0  0  0  0
  186.8030  177.4830  141.1320 C   0  0  0  0  0  2  0  0  0  0  0  0
  184.6640  178.5020  140.8380 O   0  0  0  0  0  1  0  0  0  0  0  0
  185.6110  177.6900  140.2130 C   0  0  0  0  0  2  0  0  0  0  0  0
  1  5  1  1  0  0  0
  1  4  1  0  0  0  0
  1 19  1  0  0  0  0
  2 13  1  0  0  0  0
  4 12  1  6  0  0  0
  4 20  1  0  0  0  0
  7 15  1  6  0  0  0
  7  9  1  0  0  0  0
  8  6  1  6  0  0  0
  8 11  1  0  0  0  0
  8 12  1  0  0  0  0
  9 14  1  1  0  0  0
  9 22  1  0  0  0  0
 10  3  1  0  0  0  0
 10 21  1  1  0  0  0
 11 28  1  1  0  0  0
 11  5  1  0  0  0  0
 13 18  2  0  0  0  0
 15 23  1  0  0  0  0
 16  2  1  0  0  0  0
 17 26  1  0  0  0  0
 17  3  1  0  0  0  0
 19  2  2  0  0  0  0
 19 26  1  0  0  0  0
 20 22  1  0  0  0  0
 20 17  1  1  0  0  0
 22 10  1  0  0  0  0
 23 14  1  0  0  0  0
 24 27  2  0  0  0  0
 25 18  1  0  0  0  0
 26 25  2  0  0  0  0
 27 12  1  0  0  0  0
 27  7  1  0  0  0  0
 30 29  1  0  0  0  0
 30 28  1  0  0  0  0
M  END
>  <MODEL>
1

>  <REMARK>
 VINA RESULT:      -8.5      0.000      0.000
  Name = 
  2 active torsions:
  status: ('A' for Active; 'I' for Inactive)
    1  A    between atoms: C_11  and  C_28
    2  A    between atoms: C_28  and  C_30
                            x       y       z     vdW  Elec       q    Type
                         _______ _______ _______ _____ _____    ______ ____

>  <TORSDO>
F 2

$$$$
=
 OpenBabel11112416123D

 30 35  0  0  1  0  0  0  0  0999 V2000
  188.3710  176.9260  145.5060 C   0  0  1  0  0  3  0  0  0  0  0  0
  186.7240  178.3200  146.8820 C   0  0  0  0  0  0  0  0  0  0  0  0
  185.6920  177.1310  142.2370 N   0  0  0  0  0  2  0  0  0  0  0  0
  188.7550  176.7140  144.0320 C   0  0  1  0  0  3  0  0  0  0  0  0
  189.4300  177.5750  146.1760 O   0  0  0  0  0  0  0  0  0  0  0  0
  192.0760  175.2530  145.0030 N   0  0  0  0  0  1  0  0  0  0  0  0
  189.4730  174.1520  142.1780 C   0  0  1  0  0  3  0  0  0  0  0  0
  191.0700  176.3020  144.8880 C   0  0  2  0  0  3  0  0  0  0  0  0
  188.2990  174.6760  141.3700 C   0  0  2  0  0  3  0  0  0  0  0  0
  186.4460  176.4080  141.2150 C   0  0  1  0  0  3  0  0  0  0  0  0
  190.5150  176.6730  146.2770 C   0  0  2  0  0  3  0  0  0  0  0  0
  189.9930  175.9110  143.9640 N   0  0  0  0  0  0  0  0  0  0  0  0
  185.4930  178.9690  147.0130 C   0  0  0  0  0  3  0  0  0  0  0  0
  188.8050  174.6810  139.9480 C   0  0  0  0  0  2  0  0  0  0  0  0
  190.2230  173.2740  141.1920 C   0  0  0  0  0  2  0  0  0  0  0  0
  187.5980  178.3250  147.9630 O   0  0  0  0  0  1  0  0  0  0  0  0
  186.3900  176.9010  143.4310 N   0  0  0  0  0  0  0  0  0  0  0  0
  184.5730  178.9570  145.9640 C   0  0  0  0  0  3  0  0  0  0  0  0
  187.0570  177.6700  145.6740 C   0  0  0  0  0  0  0  0  0  0  0  0
  187.5730  176.0790  143.2950 C   0  0  1  0  0  3  0  0  0  0  0  0
  186.6220  177.2900  139.9940 C   0  0  0  0  0  1  0  0  0  0  0  0
  187.8070  176.0550  141.8070 C   0  0  1  0  0  3  0  0  0  0  0  0
  189.8250  173.6450  139.8350 N   0  0  0  0  0  2  0  0  0  0  0  0
  191.4010  175.5990  142.1220 O   0  0  0  0  0  0  0  0  0  0  0  0
  184.8720  178.2800  144.7830 C   0  0  0  0  0  3  0  0  0  0  0  0
  186.0990  177.6190  144.6380 C   0  0  0  0  0  0  0  0  0  0  0  0
  190.3580  175.2450  142.7380 C   0  0  0  0  0  0  0  0  0  0  0  0
  190.1930  175.4570  147.1600 C   0  0  0  0  0  2  0  0  0  0  0  0
  191.5360  176.6830  148.7070 O   0  0  0  0  0  1  0  0  0  0  0  0
  191.1230  175.3960  148.3600 C   0  0  0  0  0  2  0  0  0  0  0  0
  1 19  1  6  0  0  0
  1  5  1  0  0  0  0
  2 13  1  0  0  0  0
  2 16  1  0  0  0  0
  3 17  1  0  0  0  0
  4 12  1  1  0  0  0
  4  1  1  0  0  0  0
  5 11  1  0  0  0  0
  7 15  1  6  0  0  0
  7 27  1  0  0  0  0
  8  6  1  1  0  0  0
  8 11  1  0  0  0  0
  9 14  1  6  0  0  0
  9 22  1  0  0  0  0
  9  7  1  0  0  0  0
 10 21  1  6  0  0  0
 10 22  1  0  0  0  0
 10  3  1  0  0  0  0
 11 28  1  6  0  0  0
 12  8  1  0  0  0  0
 17 26  1  0  0  0  0
 18 13  2  0  0  0  0
 19  2  2  0  0  0  0
 20 17  1  6  0  0  0
 20  4  1  0  0  0  0
 22 20  1  0  0  0  0
 23 14  1  0  0  0  0
 23 15  1  0  0  0  0
 24 27  2  0  0  0  0
 25 18  1  0  0  0  0
 26 25  2  0  0  0  0
 26 19  1  0  0  0  0
 27 12  1  0  0  0  0
 28 30  1  0  0  0  0
 30 29  1  0  0  0  0
M  END
>  <MODEL>
2

>  <REMARK>
 VINA RESULT:      -7.4      2.305      5.080
  Name = 
  2 active torsions:
  status: ('A' for Active; 'I' for Inactive)
    1  A    between atoms: C_11  and  C_28
    2  A    between atoms: C_28  and  C_30
                            x       y       z     vdW  Elec       q    Type
                         _______ _______ _______ _____ _____    ______ ____

>  <TORSDO>
F 2

$$$$
=
 OpenBabel11112416123D

 30 35  0  0  1  0  0  0  0  0999 V2000
  189.9990  175.1980  143.6300 C   0  0  1  0  0  3  0  0  0  0  0  0
  192.2930  174.0680  143.5120 C   0  0  0  0  0  0  0  0  0  0  0  0
  190.8710  176.3740  147.6000 N   0  0  0  0  0  2  0  0  0  0  0  0
  189.3190  176.3560  144.3800 C   0  0  1  0  0  3  0  0  0  0  0  0
  190.1330  175.5380  142.2670 O   0  0  0  0  0  0  0  0  0  0  0  0
  186.5940  176.5570  141.8030 N   0  0  0  0  0  1  0  0  0  0  0  0
  186.4330  176.8160  145.7870 C   0  0  1  0  0  3  0  0  0  0  0  0
  187.9620  176.6590  142.3000 C   0  0  2  0  0  3  0  0  0  0  0  0
  187.3070  177.0870  146.9990 C   0  0  2  0  0  3  0  0  0  0  0  0
  189.6690  177.1360  147.9330 C   0  0  1  0  0  3  0  0  0  0  0  0
  188.8450  175.5560  141.6820 C   0  0  2  0  0  3  0  0  0  0  0  0
  187.9990  176.6180  143.7710 N   0  0  0  0  0  0  0  0  0  0  0  0
  193.4940  173.6880  144.1170 C   0  0  0  0  0  3  0  0  0  0  0  0
  186.7550  178.3710  147.5700 C   0  0  0  0  0  2  0  0  0  0  0  0
  185.1120  177.4750  146.1430 C   0  0  0  0  0  2  0  0  0  0  0  0
  192.0710  173.7080  142.1870 O   0  0  0  0  0  1  0  0  0  0  0  0
  190.5690  175.7340  146.3910 N   0  0  0  0  0  0  0  0  0  0  0  0
  193.7400  173.9990  145.4540 C   0  0  0  0  0  3  0  0  0  0  0  0
  191.3290  174.7960  144.2440 C   0  0  0  0  0  0  0  0  0  0  0  0
  189.2470  176.0100  145.8700 C   0  0  1  0  0  3  0  0  0  0  0  0
  190.0580  178.5360  148.3650 C   0  0  0  0  0  1  0  0  0  0  0  0
  188.7980  177.1960  146.6830 C   0  0  1  0  0  3  0  0  0  0  0  0
  185.3440  178.4480  147.2080 N   0  0  0  0  0  2  0  0  0  0  0  0
  186.6310  178.4940  144.0660 O   0  0  0  0  0  0  0  0  0  0  0  0
  192.7780  174.6780  146.2000 C   0  0  0  0  0  3  0  0  0  0  0  0
  191.5670  175.0600  145.6110 C   0  0  0  0  0  0  0  0  0  0  0  0
  187.0030  177.3670  144.4970 C   0  0  0  0  0  0  0  0  0  0  0  0
  188.1820  174.1700  141.6670 C   0  0  0  0  0  2  0  0  0  0  0  0
  189.3690  172.2680  140.8450 O   0  0  0  0  0  1  0  0  0  0  0  0
  188.6180  173.3750  140.4480 C   0  0  0  0  0  2  0  0  0  0  0  0
  1  5  1  6  0  0  0
  1 19  1  0  0  0  0
  1  4  1  0  0  0  0
  2 13  2  0  0  0  0
  2 19  1  0  0  0  0
  3 10  1  0  0  0  0
  4 12  1  6  0  0  0
  4 20  1  0  0  0  0
  7 15  1  1  0  0  0
  7  9  1  0  0  0  0
  8  6  1  1  0  0  0
  8 12  1  0  0  0  0
  9 14  1  6  0  0  0
 10 21  1  6  0  0  0
 11 28  1  1  0  0  0
 11  5  1  0  0  0  0
 11  8  1  0  0  0  0
 12 27  1  0  0  0  0
 13 18  1  0  0  0  0
 15 23  1  0  0  0  0
 16  2  1  0  0  0  0
 17  3  1  0  0  0  0
 18 25  2  0  0  0  0
 19 26  2  0  0  0  0
 20 17  1  1  0  0  0
 20 22  1  0  0  0  0
 22  9  1  0  0  0  0
 22 10  1  0  0  0  0
 23 14  1  0  0  0  0
 24 27  2  0  0  0  0
 26 25  1  0  0  0  0
 26 17  1  0  0  0  0
 27  7  1  0  0  0  0
 30 29  1  0  0  0  0
 30 28  1  0  0  0  0
M  END
>  <MODEL>
3

>  <REMARK>
 VINA RESULT:      -7.3      1.916      5.692
  Name = 
  2 active torsions:
  status: ('A' for Active; 'I' for Inactive)
    1  A    between atoms: C_11  and  C_28
    2  A    between atoms: C_28  and  C_30
                            x       y       z     vdW  Elec       q    Type
                         _______ _______ _______ _____ _____    ______ ____

>  <TORSDO>
F 2

$$$$
=
 OpenBabel11112416123D

 30 35  0  0  1  0  0  0  0  0999 V2000
  188.2790  176.5420  143.7390 C   0  0  1  0  0  3  0  0  0  0  0  0
  186.5760  178.1700  142.7400 C   0  0  0  0  0  0  0  0  0  0  0  0
  188.5660  174.6500  139.9640 N   0  0  0  0  0  2  0  0  0  0  0  0
  189.4590  175.6740  143.2710 C   0  0  1  0  0  3  0  0  0  0  0  0
  188.7630  177.5940  144.5450 O   0  0  0  0  0  0  0  0  0  0  0  0
  190.7990  175.4320  146.7710 N   0  0  0  0  0  1  0  0  0  0  0  0
  190.5070  172.6690  143.9000 C   0  0  1  0  0  3  0  0  0  0  0  0
  190.4350  176.1110  145.5330 C   0  0  2  0  0  3  0  0  0  0  0  0
  190.3390  172.5260  142.3970 C   0  0  2  0  0  3  0  0  0  0  0  0
  189.5790  173.6340  140.2400 C   0  0  1  0  0  3  0  0  0  0  0  0
  189.2310  177.0450  145.7620 C   0  0  2  0  0  3  0  0  0  0  0  0
  190.1710  175.1470  144.4530 N   0  0  0  0  0  0  0  0  0  0  0  0
  185.7870  178.6000  141.6690 C   0  0  0  0  0  3  0  0  0  0  0  0
  191.6290  171.8870  141.9420 C   0  0  0  0  0  2  0  0  0  0  0  0
  191.4540  171.5390  144.2630 C   0  0  0  0  0  2  0  0  0  0  0  0
  186.4910  178.8560  143.9470 O   0  0  0  0  0  1  0  0  0  0  0  0
  188.2210  175.1670  141.2210 N   0  0  0  0  0  0  0  0  0  0  0  0
  185.8160  177.9180  140.4520 C   0  0  0  0  0  3  0  0  0  0  0  0
  187.4310  177.0570  142.5880 C   0  0  0  0  0  0  0  0  0  0  0  0
  188.9340  174.5810  142.3360 C   0  0  1  0  0  3  0  0  0  0  0  0
  190.7330  173.7900  139.2700 C   0  0  0  0  0  1  0  0  0  0  0  0
  190.0670  173.8420  141.6710 C   0  0  1  0  0  3  0  0  0  0  0  0
  192.1550  171.1050  143.0560 N   0  0  0  0  0  2  0  0  0  0  0  0
  192.2930  174.1630  144.5280 O   0  0  0  0  0  0  0  0  0  0  0  0
  186.6220  176.7910  140.3050 C   0  0  0  0  0  3  0  0  0  0  0  0
  187.4140  176.3440  141.3700 C   0  0  0  0  0  0  0  0  0  0  0  0
  191.0570  174.0160  144.3190 C   0  0  0  0  0  0  0  0  0  0  0  0
  188.1060  176.4120  146.5960 C   0  0  0  0  0  2  0  0  0  0  0  0
  185.8250  177.0970  146.7480 O   0  0  0  0  0  1  0  0  0  0  0  0
  187.1280  177.4680  147.0800 C   0  0  0  0  0  2  0  0  0  0  0  0
  1 19  1  6  0  0  0
  1  5  1  0  0  0  0
  2 16  1  0  0  0  0
  3 10  1  0  0  0  0
  3 17  1  0  0  0  0
  4  1  1  0  0  0  0
  4 12  1  1  0  0  0
  5 11  1  0  0  0  0
  7 15  1  6  0  0  0
  7 27  1  0  0  0  0
  8 11  1  0  0  0  0
  8  6  1  1  0  0  0
  9 14  1  6  0  0  0
  9  7  1  0  0  0  0
 10 21  1  6  0  0  0
 10 22  1  0  0  0  0
 11 28  1  6  0  0  0
 12  8  1  0  0  0  0
 13  2  2  0  0  0  0
 14 23  1  0  0  0  0
 17 26  1  0  0  0  0
 18 13  1  0  0  0  0
 19  2  1  0  0  0  0
 20 17  1  6  0  0  0
 20  4  1  0  0  0  0
 22 20  1  0  0  0  0
 22  9  1  0  0  0  0
 23 15  1  0  0  0  0
 25 18  2  0  0  0  0
 25 26  1  0  0  0  0
 26 19  2  0  0  0  0
 27 12  1  0  0  0  0
 27 24  2  0  0  0  0
 28 30  1  0  0  0  0
 29 30  1  0  0  0  0
M  END
>  <MODEL>
4

>  <REMARK>
 VINA RESULT:      -7.0      2.288      5.084
  Name = 
  2 active torsions:
  status: ('A' for Active; 'I' for Inactive)
    1  A    between atoms: C_11  and  C_28
    2  A    between atoms: C_28  and  C_30
                            x       y       z     vdW  Elec       q    Type
                         _______ _______ _______ _____ _____    ______ ____

>  <TORSDO>
F 2

$$$$
=
 OpenBabel11112416123D

 30 35  0  0  1  0  0  0  0  0999 V2000
  189.0830  176.1880  143.9790 C   0  0  1  0  0  3  0  0  0  0  0  0
  191.0490  175.1910  145.2790 C   0  0  0  0  0  0  0  0  0  0  0  0
  187.4740  177.5830  147.6360 N   0  0  0  0  0  2  0  0  0  0  0  0
  188.0670  177.3340  144.1190 C   0  0  1  0  0  3  0  0  0  0  0  0
  189.9700  176.4760  142.9210 O   0  0  0  0  0  0  0  0  0  0  0  0
  187.3270  177.2630  140.4380 N   0  0  0  0  0  1  0  0  0  0  0  0
  184.8890  177.6830  143.5750 C   0  0  1  0  0  3  0  0  0  0  0  0
  188.1530  177.4670  141.6220 C   0  0  2  0  0  3  0  0  0  0  0  0
  184.8950  178.0570  145.0470 C   0  0  2  0  0  3  0  0  0  0  0  0
  186.2830  178.2860  147.1640 C   0  0  1  0  0  3  0  0  0  0  0  0
  189.2560  176.3930  141.7020 C   0  0  2  0  0  3  0  0  0  0  0  0
  187.3360  177.4920  142.8450 N   0  0  0  0  0  0  0  0  0  0  0  0
  191.6880  174.9090  146.4900 C   0  0  0  0  0  3  0  0  0  0  0  0
  184.0850  179.3300  145.1060 C   0  0  0  0  0  2  0  0  0  0  0  0
  183.5900  178.2780  143.0600 C   0  0  0  0  0  2  0  0  0  0  0  0
  191.6410  174.7620  144.0970 O   0  0  0  0  0  1  0  0  0  0  0  0
  187.9400  176.8740  146.5200 N   0  0  0  0  0  0  0  0  0  0  0  0
  191.1100  175.2910  147.7000 C   0  0  0  0  0  3  0  0  0  0  0  0
  189.8230  175.8920  145.2720 C   0  0  0  0  0  0  0  0  0  0  0  0
  187.1560  177.0490  145.3160 C   0  0  1  0  0  3  0  0  0  0  0  0
  186.3180  179.7240  147.6420 C   0  0  0  0  0  1  0  0  0  0  0  0
  186.2920  178.2410  145.6390 C   0  0  1  0  0  3  0  0  0  0  0  0
  183.1410  179.3080  143.9950 N   0  0  0  0  0  2  0  0  0  0  0  0
  186.0050  179.2940  142.1700 O   0  0  0  0  0  0  0  0  0  0  0  0
  189.8780  175.9430  147.7080 C   0  0  0  0  0  3  0  0  0  0  0  0
  189.2200  176.2280  146.5040 C   0  0  0  0  0  0  0  0  0  0  0  0
  186.0860  178.2110  142.8140 C   0  0  0  0  0  0  0  0  0  0  0  0
  188.7570  174.9700  141.4050 C   0  0  0  0  0  2  0  0  0  0  0  0
  189.5890  172.7340  141.4920 O   0  0  0  0  0  1  0  0  0  0  0  0
  189.9210  174.0370  141.1180 C   0  0  0  0  0  2  0  0  0  0  0  0
  1  5  1  6  0  0  0
  1  4  1  0  0  0  0
  1 19  1  0  0  0  0
  2 13  1  0  0  0  0
  4 12  1  6  0  0  0
  4 20  1  0  0  0  0
  7 15  1  6  0  0  0
  7  9  1  0  0  0  0
  8  6  1  6  0  0  0
  8 11  1  0  0  0  0
  8 12  1  0  0  0  0
  9 14  1  6  0  0  0
  9 22  1  0  0  0  0
 10  3  1  0  0  0  0
 10 21  1  6  0  0  0
 11 28  1  1  0  0  0
 11  5  1  0  0  0  0
 13 18  2  0  0  0  0
 15 23  1  0  0  0  0
 16  2  1  0  0  0  0
 17  3  1  0  0  0  0
 18 25  1  0  0  0  0
 19  2  2  0  0  0  0
 19 26  1  0  0  0  0
 20 22  1  0  0  0  0
 20 17  1  1  0  0  0
 22 10  1  0  0  0  0
 23 14  1  0  0  0  0
 24 27  2  0  0  0  0
 26 17  1  0  0  0  0
 26 25  2  0  0  0  0
 27 12  1  0  0  0  0
 27  7  1  0  0  0  0
 30 28  1  0  0  0  0
 30 29  1  0  0  0  0
M  END
>  <MODEL>
5

>  <REMARK>
 VINA RESULT:      -7.0      2.125      5.670
  Name = 
  2 active torsions:
  status: ('A' for Active; 'I' for Inactive)
    1  A    between atoms: C_11  and  C_28
    2  A    between atoms: C_28  and  C_30
                            x       y       z     vdW  Elec       q    Type
                         _______ _______ _______ _____ _____    ______ ____

>  <TORSDO>
F 2

$$$$
=
 OpenBabel11112416123D

 30 35  0  0  1  0  0  0  0  0999 V2000
  189.1540  175.5450  143.1710 C   0  0  1  0  0  3  0  0  0  0  0  0
  187.7130  177.6550  143.3060 C   0  0  0  0  0  0  0  0  0  0  0  0
  187.8170  174.9800  139.1960 N   0  0  0  0  0  2  0  0  0  0  0  0
  189.8780  174.7060  142.1040 C   0  0  1  0  0  3  0  0  0  0  0  0
  190.1090  176.1830  143.9910 O   0  0  0  0  0  0  0  0  0  0  0  0
  192.0800  173.1200  144.7000 N   0  0  0  0  0  1  0  0  0  0  0  0
  190.2520  171.5380  141.5200 C   0  0  1  0  0  3  0  0  0  0  0  0
  191.5560  174.2170  143.8950 C   0  0  2  0  0  3  0  0  0  0  0  0
  189.6170  171.9250  140.1960 C   0  0  2  0  0  3  0  0  0  0  0  0
  188.5680  173.7850  138.8190 C   0  0  1  0  0  3  0  0  0  0  0  0
  190.7570  175.1990  144.7740 C   0  0  2  0  0  3  0  0  0  0  0  0
  190.7460  173.7150  142.7730 N   0  0  0  0  0  0  0  0  0  0  0  0
  186.7820  178.5310  142.7390 C   0  0  0  0  0  3  0  0  0  0  0  0
  190.5050  171.2780  139.1600 C   0  0  0  0  0  2  0  0  0  0  0  0
  190.9390  170.2180  141.2160 C   0  0  0  0  0  2  0  0  0  0  0  0
  188.1680  177.9100  144.5950 O   0  0  0  0  0  1  0  0  0  0  0  0
  188.0040  175.1010  140.5800 N   0  0  0  0  0  0  0  0  0  0  0  0
  186.2740  178.2910  141.4620 C   0  0  0  0  0  3  0  0  0  0  0  0
  188.1680  176.5350  142.5760 C   0  0  0  0  0  0  0  0  0  0  0  0
  188.8370  174.0780  141.1740 C   0  0  1  0  0  3  0  0  0  0  0  0
  189.3840  174.0700  137.5730 C   0  0  0  0  0  1  0  0  0  0  0  0
  189.4920  173.4320  139.9800 C   0  0  1  0  0  3  0  0  0  0  0  0
  191.1150  170.1020  139.7690 N   0  0  0  0  0  2  0  0  0  0  0  0
  192.4660  172.4430  141.8250 O   0  0  0  0  0  0  0  0  0  0  0  0
  186.6820  177.1640  140.7500 C   0  0  0  0  0  3  0  0  0  0  0  0
  187.6090  176.2740  141.3060 C   0  0  0  0  0  0  0  0  0  0  0  0
  191.2290  172.5680  142.0450 C   0  0  0  0  0  0  0  0  0  0  0  0
  189.8050  174.5090  145.7630 C   0  0  0  0  0  2  0  0  0  0  0  0
  188.1710  175.6660  147.0650 O   0  0  0  0  0  1  0  0  0  0  0  0
  189.5370  175.3970  146.9660 C   0  0  0  0  0  2  0  0  0  0  0  0
  1 19  1  6  0  0  0
  1  5  1  0  0  0  0
  2 16  1  0  0  0  0
  3 17  1  0  0  0  0
  4 12  1  1  0  0  0
  4  1  1  0  0  0  0
  5 11  1  0  0  0  0
  7 15  1  6  0  0  0
  7 27  1  0  0  0  0
  8  6  1  1  0  0  0
  8 11  1  0  0  0  0
  9 14  1  6  0  0  0
  9  7  1  0  0  0  0
 10 21  1  6  0  0  0
 10  3  1  0  0  0  0
 10 22  1  0  0  0  0
 11 28  1  6  0  0  0
 12  8  1  0  0  0  0
 13  2  1  0  0  0  0
 14 23  1  0  0  0  0
 17 26  1  0  0  0  0
 18 13  2  0  0  0  0
 19  2  2  0  0  0  0
 20 17  1  6  0  0  0
 20  4  1  0  0  0  0
 22  9  1  0  0  0  0
 22 20  1  0  0  0  0
 23 15  1  0  0  0  0
 24 27  2  0  0  0  0
 25 26  2  0  0  0  0
 25 18  1  0  0  0  0
 26 19  1  0  0  0  0
 27 12  1  0  0  0  0
 28 30  1  0  0  0  0
 30 29  1  0  0  0  0
M  END
>  <MODEL>
6

>  <REMARK>
 VINA RESULT:      -7.0      2.971      5.891
  Name = 
  2 active torsions:
  status: ('A' for Active; 'I' for Inactive)
    1  A    between atoms: C_11  and  C_28
    2  A    between atoms: C_28  and  C_30
                            x       y       z     vdW  Elec       q    Type
                         _______ _______ _______ _____ _____    ______ ____

>  <TORSDO>
F 2

$$$$
=
 OpenBabel11112416123D

 30 35  0  0  1  0  0  0  0  0999 V2000
  188.5330  175.4840  142.9450 C   0  0  1  0  0  3  0  0  0  0  0  0
  186.4870  177.0120  143.1170 C   0  0  0  0  0  0  0  0  0  0  0  0
  189.9930  177.1680  146.5430 N   0  0  0  0  0  2  0  0  0  0  0  0
  189.5640  174.8240  143.8770 C   0  0  1  0  0  3  0  0  0  0  0  0
  187.7020  174.4880  142.3880 O   0  0  0  0  0  0  0  0  0  0  0  0
  190.4770  172.3030  141.2480 N   0  0  0  0  0  1  0  0  0  0  0  0
  192.7700  174.3460  143.8030 C   0  0  1  0  0  3  0  0  0  0  0  0
  189.5990  172.9580  142.2110 C   0  0  2  0  0  3  0  0  0  0  0  0
  192.7010  175.1250  145.1050 C   0  0  2  0  0  3  0  0  0  0  0  0
  191.2200  176.3960  146.7310 C   0  0  1  0  0  3  0  0  0  0  0  0
  188.4720  173.7180  141.4850 C   0  0  2  0  0  3  0  0  0  0  0  0
  190.3580  173.8460  143.1060 N   0  0  0  0  0  0  0  0  0  0  0  0
  185.7850  178.0370  143.7570 C   0  0  0  0  0  3  0  0  0  0  0  0
  193.5340  174.3090  146.0660 C   0  0  0  0  0  2  0  0  0  0  0  0
  194.1040  173.6250  143.8870 C   0  0  0  0  0  2  0  0  0  0  0  0
  185.9430  176.4480  141.9680 O   0  0  0  0  0  1  0  0  0  0  0  0
  189.5660  176.8550  145.2450 N   0  0  0  0  0  0  0  0  0  0  0  0
  186.3130  178.6530  144.8920 C   0  0  0  0  0  3  0  0  0  0  0  0
  187.7260  176.5720  143.6320 C   0  0  0  0  0  0  0  0  0  0  0  0
  190.4100  175.9170  144.5360 C   0  0  1  0  0  3  0  0  0  0  0  0
  191.1910  175.7200  148.0880 C   0  0  0  0  0  1  0  0  0  0  0  0
  191.2820  175.3480  145.6260 C   0  0  1  0  0  3  0  0  0  0  0  0
  194.5290  173.5830  145.2850 N   0  0  0  0  0  2  0  0  0  0  0  0
  191.7560  172.1630  143.9350 O   0  0  0  0  0  0  0  0  0  0  0  0
  187.5560  178.2590  145.3840 C   0  0  0  0  0  3  0  0  0  0  0  0
  188.2750  177.2370  144.7500 C   0  0  0  0  0  0  0  0  0  0  0  0
  191.6220  173.3770  143.6180 C   0  0  0  0  0  0  0  0  0  0  0  0
  188.9550  174.5340  140.2750 C   0  0  0  0  0  2  0  0  0  0  0  0
  188.1970  172.7570  138.8720 O   0  0  0  0  0  1  0  0  0  0  0  0
  188.1940  174.1450  139.0190 C   0  0  0  0  0  2  0  0  0  0  0  0
  1  5  1  1  0  0  0
  1 19  1  0  0  0  0
  1  4  1  0  0  0  0
  2 19  2  0  0  0  0
  2 13  1  0  0  0  0
  3 10  1  0  0  0  0
  4 12  1  6  0  0  0
  4 20  1  0  0  0  0
  7 15  1  1  0  0  0
  7  9  1  0  0  0  0
  8  6  1  6  0  0  0
  8 12  1  0  0  0  0
  9 22  1  0  0  0  0
  9 14  1  1  0  0  0
 10 21  1  1  0  0  0
 11 28  1  6  0  0  0
 11  8  1  0  0  0  0
 11  5  1  0  0  0  0
 12 27  1  0  0  0  0
 13 18  2  0  0  0  0
 15 23  1  0  0  0  0
 16  2  1  0  0  0  0
 17  3  1  0  0  0  0
 18 25  1  0  0  0  0
 19 26  1  0  0  0  0
 20 17  1  1  0  0  0
 20 22  1  0  0  0  0
 22 10  1  0  0  0  0
 23 14  1  0  0  0  0
 26 17  1  0  0  0  0
 26 25  2  0  0  0  0
 27  7  1  0  0  0  0
 27 24  2  0  0  0  0
 29 30  1  0  0  0  0
 30 28  1  0  0  0  0
M  END
>  <MODEL>
7

>  <REMARK>
 VINA RESULT:      -6.7      1.994      2.783
  Name = 
  2 active torsions:
  status: ('A' for Active; 'I' for Inactive)
    1  A    between atoms: C_11  and  C_28
    2  A    between atoms: C_28  and  C_30
                            x       y       z     vdW  Elec       q    Type
                         _______ _______ _______ _____ _____    ______ ____

>  <TORSDO>
F 2

$$$$
=
 OpenBabel11112416123D

 30 35  0  0  1  0  0  0  0  0999 V2000
  190.5110  175.5390  145.3850 C   0  0  1  0  0  3  0  0  0  0  0  0
  192.6410  174.1480  145.6670 C   0  0  0  0  0  0  0  0  0  0  0  0
  190.3700  174.3540  141.3250 N   0  0  0  0  0  2  0  0  0  0  0  0
  189.2530  175.5600  144.5000 C   0  0  1  0  0  3  0  0  0  0  0  0
  190.1490  175.1930  146.7040 O   0  0  0  0  0  0  0  0  0  0  0  0
  187.4120  177.6840  146.9900 N   0  0  0  0  0  1  0  0  0  0  0  0
  187.5220  177.8550  143.0000 C   0  0  1  0  0  3  0  0  0  0  0  0
  188.0810  176.4810  146.5090 C   0  0  2  0  0  3  0  0  0  0  0  0
  187.8670  177.0180  141.7800 C   0  0  2  0  0  3  0  0  0  0  0  0
  189.1380  175.0070  140.8880 C   0  0  1  0  0  3  0  0  0  0  0  0
  189.4100  176.2640  147.2600 C   0  0  2  0  0  3  0  0  0  0  0  0
  188.2870  176.5310  145.0530 N   0  0  0  0  0  0  0  0  0  0  0  0
  193.6450  173.3390  145.1290 C   0  0  0  0  0  3  0  0  0  0  0  0
  186.5490  176.8560  141.0620 C   0  0  0  0  0  2  0  0  0  0  0  0
  186.3180  178.6640  142.5500 C   0  0  0  0  0  2  0  0  0  0  0  0
  192.6960  174.4680  147.0190 O   0  0  0  0  0  1  0  0  0  0  0  0
  190.6340  174.8910  142.5920 N   0  0  0  0  0  0  0  0  0  0  0  0
  193.6460  173.0240  143.7700 C   0  0  0  0  0  3  0  0  0  0  0  0
  191.6010  174.6310  144.8430 C   0  0  0  0  0  0  0  0  0  0  0  0
  189.6650  175.8610  143.0560 C   0  0  1  0  0  3  0  0  0  0  0  0
  188.1910  173.9730  140.3120 C   0  0  0  0  0  1  0  0  0  0  0  0
  188.5080  175.6710  142.1090 C   0  0  1  0  0  3  0  0  0  0  0  0
  185.7200  178.0100  141.3870 N   0  0  0  0  0  2  0  0  0  0  0  0
  186.0180  176.7530  144.5280 O   0  0  0  0  0  0  0  0  0  0  0  0
  192.6510  173.5320  142.9370 C   0  0  0  0  0  3  0  0  0  0  0  0
  191.6400  174.3490  143.4590 C   0  0  0  0  0  0  0  0  0  0  0  0
  187.2130  177.0300  144.2300 C   0  0  0  0  0  0  0  0  0  0  0  0
  190.2470  177.5430  147.4170 C   0  0  0  0  0  2  0  0  0  0  0  0
  191.1930  178.2890  149.4780 O   0  0  0  0  0  1  0  0  0  0  0  0
  191.3390  177.3520  148.4550 C   0  0  0  0  0  2  0  0  0  0  0  0
  1 19  1  6  0  0  0
  1  5  1  0  0  0  0
  2 16  1  0  0  0  0
  3 17  1  0  0  0  0
  4 12  1  1  0  0  0
  4  1  1  0  0  0  0
  5 11  1  0  0  0  0
  7 15  1  6  0  0  0
  7 27  1  0  0  0  0
  8  6  1  1  0  0  0
  8 11  1  0  0  0  0
  9 14  1  1  0  0  0
  9 22  1  0  0  0  0
  9  7  1  0  0  0  0
 10 21  1  1  0  0  0
 10  3  1  0  0  0  0
 10 22  1  0  0  0  0
 11 28  1  6  0  0  0
 12  8  1  0  0  0  0
 13  2  1  0  0  0  0
 14 23  1  0  0  0  0
 17 26  1  0  0  0  0
 18 13  2  0  0  0  0
 19  2  2  0  0  0  0
 20 17  1  6  0  0  0
 20  4  1  0  0  0  0
 22 20  1  0  0  0  0
 23 15  1  0  0  0  0
 25 26  2  0  0  0  0
 25 18  1  0  0  0  0
 26 19  1  0  0  0  0
 27 24  2  0  0  0  0
 27 12  1  0  0  0  0
 28 30  1  0  0  0  0
 30 29  1  0  0  0  0
M  END
>  <MODEL>
8

>  <REMARK>
 VINA RESULT:      -6.7      2.535      6.914
  Name = 
  2 active torsions:
  status: ('A' for Active; 'I' for Inactive)
    1  A    between atoms: C_11  and  C_28
    2  A    between atoms: C_28  and  C_30
                            x       y       z     vdW  Elec       q    Type
                         _______ _______ _______ _____ _____    ______ ____

>  <TORSDO>
F 2

$$$$
=
 OpenBabel11112416123D

 30 35  0  0  1  0  0  0  0  0999 V2000
  191.5200  175.3810  143.9560 C   0  0  1  0  0  3  0  0  0  0  0  0
  189.0340  175.1390  143.3960 C   0  0  0  0  0  0  0  0  0  0  0  0
  192.4470  174.0940  140.0330 N   0  0  0  0  0  2  0  0  0  0  0  0
  192.8470  175.6490  143.2270 C   0  0  1  0  0  3  0  0  0  0  0  0
  191.1970  176.4930  144.7620 O   0  0  0  0  0  0  0  0  0  0  0  0
  194.5070  176.7040  146.4270 N   0  0  0  0  0  1  0  0  0  0  0  0
  195.8610  174.4630  143.4080 C   0  0  1  0  0  3  0  0  0  0  0  0
  193.5520  176.8080  145.3290 C   0  0  2  0  0  3  0  0  0  0  0  0
  195.5950  174.1480  141.9460 C   0  0  2  0  0  3  0  0  0  0  0  0
  193.9060  174.1860  140.0490 C   0  0  1  0  0  3  0  0  0  0  0  0
  192.1190  176.5520  145.8340 C   0  0  2  0  0  3  0  0  0  0  0  0
  193.9060  175.9010  144.2260 N   0  0  0  0  0  0  0  0  0  0  0  0
  188.0170  174.7720  142.5110 C   0  0  0  0  0  3  0  0  0  0  0  0
  196.8270  174.6510  141.2330 C   0  0  0  0  0  2  0  0  0  0  0  0
  197.3750  174.4360  143.5110 C   0  0  0  0  0  2  0  0  0  0  0  0
  188.6830  175.6100  144.6570 O   0  0  0  0  0  1  0  0  0  0  0  0
  192.0610  174.2620  141.3700 N   0  0  0  0  0  0  0  0  0  0  0  0
  188.3280  174.2610  141.2500 C   0  0  0  0  0  3  0  0  0  0  0  0
  190.3870  175.0220  143.0100 C   0  0  0  0  0  0  0  0  0  0  0  0
  193.1520  174.4710  142.2970 C   0  0  1  0  0  3  0  0  0  0  0  0
  194.3710  175.0860  138.9210 C   0  0  0  0  0  1  0  0  0  0  0  0
  194.3180  174.7770  141.3930 C   0  0  1  0  0  3  0  0  0  0  0  0
  197.9410  174.5910  142.1720 N   0  0  0  0  0  2  0  0  0  0  0  0
  196.0260  176.8250  143.8660 O   0  0  0  0  0  0  0  0  0  0  0  0
  189.6600  174.0990  140.8740 C   0  0  0  0  0  3  0  0  0  0  0  0
  190.6920  174.4570  141.7520 C   0  0  0  0  0  0  0  0  0  0  0  0
  195.2950  175.7960  143.8500 C   0  0  0  0  0  0  0  0  0  0  0  0
  192.0030  175.3470  146.7810 C   0  0  0  0  0  2  0  0  0  0  0  0
  191.2280  177.0760  148.2330 O   0  0  0  0  0  1  0  0  0  0  0  0
  191.1820  175.6990  148.0090 C   0  0  0  0  0  2  0  0  0  0  0  0
  1 19  1  6  0  0  0
  1  5  1  0  0  0  0
  2 16  1  0  0  0  0
  3 10  1  0  0  0  0
  3 17  1  0  0  0  0
  4  1  1  0  0  0  0
  4 12  1  1  0  0  0
  5 11  1  0  0  0  0
  7 15  1  6  0  0  0
  7 27  1  0  0  0  0
  8 11  1  0  0  0  0
  8  6  1  1  0  0  0
  9 14  1  6  0  0  0
  9  7  1  0  0  0  0
 10 21  1  6  0  0  0
 10 22  1  0  0  0  0
 11 28  1  6  0  0  0
 12  8  1  0  0  0  0
 13  2  2  0  0  0  0
 14 23  1  0  0  0  0
 17 26  1  0  0  0  0
 18 13  1  0  0  0  0
 19  2  1  0  0  0  0
 20 17  1  6  0  0  0
 20  4  1  0  0  0  0
 22  9  1  0  0  0  0
 22 20  1  0  0  0  0
 23 15  1  0  0  0  0
 25 18  2  0  0  0  0
 25 26  1  0  0  0  0
 26 19  2  0  0  0  0
 27 24  2  0  0  0  0
 27 12  1  0  0  0  0
 28 30  1  0  0  0  0
 30 29  1  0  0  0  0
M  END
>  <MODEL>
9

>  <REMARK>
 VINA RESULT:      -6.6      3.676      6.706
  Name = 
  2 active torsions:
  status: ('A' for Active; 'I' for Inactive)
    1  A    between atoms: C_11  and  C_28
    2  A    between atoms: C_28  and  C_30
                            x       y       z     vdW  Elec       q    Type
                         _______ _______ _______ _____ _____    ______ ____

>  <TORSDO>
F 2

$$$$
