=
 OpenBabel11112418043D

 34 40  0  0  1  0  0  0  0  0999 V2000
  189.8890  176.6170  146.9020 C   0  0  1  0  0  3  0  0  0  0  0  0
  187.5000  177.5600  147.0060 C   0  0  0  0  0  2  0  0  0  0  0  0
  195.0830  175.6860  143.1410 C   0  0  0  0  0  0  0  0  0  0  0  0
  192.2060  175.7610  146.5630 C   0  0  2  0  0  3  0  0  0  0  0  0
  192.8620  175.0830  144.1210 C   0  0  0  0  0  0  0  0  0  0  0  0
  193.3430  174.7010  141.6200 C   0  0  0  0  0  1  0  0  0  0  0  0
  195.2780  176.5960  142.2890 O   0  0  0  0  0  0  0  0  0  0  0  0
  195.6780  174.6360  145.2640 C   0  0  0  0  0  2  0  0  0  0  0  0
  188.1700  176.1730  145.2220 C   0  0  2  0  0  3  0  0  0  0  0  0
  186.9000  176.5780  142.2970 C   0  0  0  0  0  3  0  0  0  0  0  0
  191.5620  175.1160  143.7810 C   0  0  0  0  0  3  0  0  0  0  0  0
  194.4890  175.0930  146.0490 C   0  0  0  0  0  3  0  0  0  0  0  0
  189.1880  175.8780  144.1150 C   0  0  1  0  0  3  0  0  0  0  0  0
  186.3310  177.4960  146.0260 C   0  0  0  0  0  2  0  0  0  0  0  0
  193.2560  175.3160  145.5620 C   0  0  0  0  0  0  0  0  0  0  0  0
  195.9550  175.5570  144.2180 O   0  0  0  0  0  0  0  0  0  0  0  0
  186.8240  177.4580  143.5220 C   0  0  2  0  0  3  0  0  0  0  0  0
  190.9650  176.3040  145.8560 C   0  0  1  0  0  3  0  0  0  0  0  0
  193.8920  174.7760  143.0450 C   0  0  1  0  0  3  0  0  0  0  0  0
  190.4650  175.3300  144.7820 C   0  0  2  0  0  3  0  0  0  0  0  0
  191.7850  176.9330  148.4690 C   0  0  0  0  0  2  0  0  0  0  0  0
  187.6830  175.4950  142.1280 C   0  0  0  0  0  3  0  0  0  0  0  0
  192.7130  176.7640  147.4180 O   0  0  0  0  0  0  0  0  0  0  0  0
  188.5840  174.8640  143.1560 C   0  0  0  0  0  2  0  0  0  0  0  0
  186.7780  176.6470  144.8270 C   0  0  1  0  0  3  0  0  0  0  0  0
  190.4830  177.5560  147.9460 C   0  0  0  0  0  2  0  0  0  0  0  0
  188.7030  177.2210  146.1630 C   0  0  2  0  0  3  0  0  0  0  0  0
  185.6630  178.3310  143.4060 N   0  0  0  0  0  2  0  0  0  0  0  0
  184.7240  177.6730  142.5100 C   0  0  0  0  0  2  0  0  0  0  0  0
  182.9160  177.4540  139.9320 N   0  0  0  0  0  2  0  0  0  0  0  0
  182.2130  178.6680  142.2060 S   0  0  0  0  0  0  0  0  0  0  0  0
  183.9550  178.7090  141.7070 C   0  0  2  0  0  3  0  0  0  0  0  0
  181.7410  178.0130  140.5780 C   0  0  0  0  0  2  0  0  0  0  0  0
  184.0030  178.3690  140.2310 C   0  0  0  0  0  2  0  0  0  0  0  0
  1 26  1  1  0  0  0
  3 16  1  0  0  0  0
  4 15  1  6  0  0  0
  4 23  1  0  0  0  0
  5 15  1  0  0  0  0
  6 19  1  0  0  0  0
  7  3  2  0  0  0  0
  8 12  1  0  0  0  0
  9 27  1  0  0  0  0
 10 17  1  0  0  0  0
 11  5  2  0  0  0  0
 11 20  1  0  0  0  0
 13 20  1  0  0  0  0
 13  9  1  0  0  0  0
 14  2  1  0  0  0  0
 15 12  2  0  0  0  0
 16  8  1  0  0  0  0
 17 25  1  0  0  0  0
 18  4  1  0  0  0  0
 18  1  1  0  0  0  0
 19  3  1  0  0  0  0
 19  5  1  0  0  0  0
 20 18  1  0  0  0  0
 22 10  2  0  0  0  0
 22 24  1  0  0  0  0
 23 21  1  0  0  0  0
 24 13  1  0  0  0  0
 25  9  1  0  0  0  0
 25 14  1  0  0  0  0
 26 21  1  0  0  0  0
 27  1  1  0  0  0  0
 27  2  1  0  0  0  0
 28 17  1  0  0  0  0
 29 28  1  0  0  0  0
 30 34  1  0  0  0  0
 30 33  1  0  0  0  0
 32 31  1  0  0  0  0
 32 29  1  0  0  0  0
 33 31  1  0  0  0  0
 34 32  1  0  0  0  0
M  END
>  <MODEL>
1

>  <REMARK>
 VINA RESULT:      -8.1      0.000      0.000
  Name = 
  3 active torsions:
  status: ('A' for Active; 'I' for Inactive)
    1  A    between atoms: C_17  and  N_28
    2  A    between atoms: N_28  and  C_29
    3  A    between atoms: C_29  and  C_32
                            x       y       z     vdW  Elec       q    Type
                         _______ _______ _______ _____ _____    ______ ____

>  <TORSDO>
F 3

$$$$
=
 OpenBabel11112418043D

 34 40  0  0  1  0  0  0  0  0999 V2000
  189.6320  174.9460  144.7360 C   0  0  1  0  0  3  0  0  0  0  0  0
  190.4610  173.2320  143.0090 C   0  0  0  0  0  2  0  0  0  0  0  0
  184.6570  178.6670  146.5750 C   0  0  0  0  0  0  0  0  0  0  0  0
  188.6220  176.6230  146.2810 C   0  0  2  0  0  3  0  0  0  0  0  0
  186.7380  178.1460  145.2900 C   0  0  0  0  0  0  0  0  0  0  0  0
  184.7670  179.3600  144.1630 C   0  0  0  0  0  1  0  0  0  0  0  0
  183.5210  178.1640  146.3550 O   0  0  0  0  0  0  0  0  0  0  0  0
  186.4380  179.2160  148.1530 C   0  0  0  0  0  2  0  0  0  0  0  0
  189.3770  175.2080  142.3200 C   0  0  2  0  0  3  0  0  0  0  0  0
  187.5910  175.2220  139.6470 C   0  0  0  0  0  3  0  0  0  0  0  0
  187.0940  177.7530  144.0540 C   0  0  0  0  0  3  0  0  0  0  0  0
  187.4140  178.1680  147.7200 C   0  0  0  0  0  3  0  0  0  0  0  0
  188.1690  176.1420  142.4490 C   0  0  1  0  0  3  0  0  0  0  0  0
  190.3080  173.1520  141.4920 C   0  0  0  0  0  2  0  0  0  0  0  0
  187.5440  177.6710  146.4780 C   0  0  0  0  0  0  0  0  0  0  0  0
  185.1100  178.7870  147.8850 O   0  0  0  0  0  0  0  0  0  0  0  0
  188.1800  174.0650  140.4190 C   0  0  2  0  0  3  0  0  0  0  0  0
  188.4500  175.8990  144.9450 C   0  0  1  0  0  3  0  0  0  0  0  0
  185.5530  179.0860  145.4450 C   0  0  1  0  0  3  0  0  0  0  0  0
  188.2950  176.8940  143.7890 C   0  0  2  0  0  3  0  0  0  0  0  0
  189.7710  174.8910  147.2120 C   0  0  0  0  0  2  0  0  0  0  0  0
  187.5500  176.5120  140.0320 C   0  0  0  0  0  3  0  0  0  0  0  0
  188.5950  175.6650  147.3190 O   0  0  0  0  0  0  0  0  0  0  0  0
  188.1690  177.1040  141.2710 C   0  0  0  0  0  2  0  0  0  0  0  0
  189.5460  174.4060  141.0370 C   0  0  1  0  0  3  0  0  0  0  0  0
  189.7340  174.0230  145.9460 C   0  0  0  0  0  2  0  0  0  0  0  0
  189.3840  174.1960  143.4350 C   0  0  2  0  0  3  0  0  0  0  0  0
  188.2780  172.9090  139.5370 N   0  0  0  0  0  2  0  0  0  0  0  0
  188.2570  173.4120  138.1720 C   0  0  0  0  0  2  0  0  0  0  0  0
  191.4000  173.3170  137.8990 N   0  0  0  0  0  2  0  0  0  0  0  0
  189.8210  171.1920  138.2620 S   0  0  0  0  0  0  0  0  0  0  0  0
  189.1840  172.5870  137.2960 C   0  0  2  0  0  3  0  0  0  0  0  0
  191.4930  171.9050  138.2270 C   0  0  0  0  0  2  0  0  0  0  0  0
  190.3800  173.4170  136.8710 C   0  0  0  0  0  2  0  0  0  0  0  0
  1 18  1  0  0  0  0
  1 26  1  1  0  0  0
  2 27  1  0  0  0  0
  3 16  1  0  0  0  0
  4 15  1  1  0  0  0
  4 23  1  0  0  0  0
  5 19  1  0  0  0  0
  5 15  1  0  0  0  0
  6 19  1  0  0  0  0
  7  3  2  0  0  0  0
  9 13  1  0  0  0  0
  9 27  1  0  0  0  0
 10 22  2  0  0  0  0
 10 17  1  0  0  0  0
 11  5  2  0  0  0  0
 12  8  1  0  0  0  0
 13 20  1  0  0  0  0
 14  2  1  0  0  0  0
 15 12  2  0  0  0  0
 16  8  1  0  0  0  0
 17 25  1  0  0  0  0
 18  4  1  0  0  0  0
 19  3  1  0  0  0  0
 20 11  1  0  0  0  0
 20 18  1  0  0  0  0
 21 23  1  0  0  0  0
 22 24  1  0  0  0  0
 24 13  1  0  0  0  0
 25 14  1  0  0  0  0
 25  9  1  0  0  0  0
 26 21  1  0  0  0  0
 27  1  1  0  0  0  0
 28 17  1  0  0  0  0
 29 28  1  0  0  0  0
 30 33  1  0  0  0  0
 32 29  1  0  0  0  0
 32 31  1  0  0  0  0
 33 31  1  0  0  0  0
 34 32  1  0  0  0  0
 34 30  1  0  0  0  0
M  END
>  <MODEL>
2

>  <REMARK>
 VINA RESULT:      -8.0      4.269      7.321
  Name = 
  3 active torsions:
  status: ('A' for Active; 'I' for Inactive)
    1  A    between atoms: C_17  and  N_28
    2  A    between atoms: N_28  and  C_29
    3  A    between atoms: C_29  and  C_32
                            x       y       z     vdW  Elec       q    Type
                         _______ _______ _______ _____ _____    ______ ____

>  <TORSDO>
F 3

$$$$
=
 OpenBabel11112418043D

 34 40  0  0  1  0  0  0  0  0999 V2000
  189.4740  174.6030  142.6470 C   0  0  1  0  0  3  0  0  0  0  0  0
  191.8320  173.6370  142.9870 C   0  0  0  0  0  2  0  0  0  0  0  0
  185.4470  179.4560  144.1370 C   0  0  0  0  0  0  0  0  0  0  0  0
  187.2500  175.7170  142.4760 C   0  0  2  0  0  3  0  0  0  0  0  0
  186.5370  177.2330  144.4870 C   0  0  0  0  0  0  0  0  0  0  0  0
  186.1600  178.8380  146.4650 C   0  0  0  0  0  1  0  0  0  0  0  0
  186.0120  180.5740  144.2860 O   0  0  0  0  0  0  0  0  0  0  0  0
  184.1000  177.9520  142.7630 C   0  0  0  0  0  2  0  0  0  0  0  0
  190.5590  174.3820  144.8260 C   0  0  2  0  0  3  0  0  0  0  0  0
  192.0220  175.6350  147.3990 C   0  0  0  0  0  3  0  0  0  0  0  0
  187.5270  176.6940  145.2210 C   0  0  0  0  0  3  0  0  0  0  0  0
  185.1960  177.0170  142.3620 C   0  0  0  0  0  3  0  0  0  0  0  0
  189.7270  175.5000  145.4640 C   0  0  1  0  0  3  0  0  0  0  0  0
  192.7190  173.5140  144.2240 C   0  0  0  0  0  2  0  0  0  0  0  0
  186.2820  176.7080  143.0920 C   0  0  0  0  0  0  0  0  0  0  0  0
  184.6320  179.2430  143.0290 O   0  0  0  0  0  0  0  0  0  0  0  0
  192.5700  175.3110  146.0290 C   0  0  2  0  0  3  0  0  0  0  0  0
  188.5820  175.7070  143.2250 C   0  0  1  0  0  3  0  0  0  0  0  0
  185.6850  178.3310  145.1030 C   0  0  1  0  0  3  0  0  0  0  0  0
  188.3690  175.5520  144.7360 C   0  0  2  0  0  3  0  0  0  0  0  0
  188.1840  174.9300  140.5540 C   0  0  0  0  0  2  0  0  0  0  0  0
  190.7290  175.6240  147.7760 C   0  0  0  0  0  3  0  0  0  0  0  0
  187.4980  176.0270  141.1200 O   0  0  0  0  0  0  0  0  0  0  0  0
  189.5500  175.1910  146.9430 C   0  0  0  0  0  2  0  0  0  0  0  0
  191.9230  174.0570  145.4200 C   0  0  1  0  0  3  0  0  0  0  0  0
  189.5980  174.8140  141.1420 C   0  0  0  0  0  2  0  0  0  0  0  0
  190.8110  174.6780  143.3710 C   0  0  2  0  0  3  0  0  0  0  0  0
  194.0160  175.1630  146.1220 N   0  0  0  0  0  2  0  0  0  0  0  0
  194.6050  176.1600  145.2420 C   0  0  0  0  0  2  0  0  0  0  0  0
  196.9430  176.9130  143.2590 N   0  0  0  0  0  2  0  0  0  0  0  0
  196.5950  174.5180  144.3920 S   0  0  0  0  0  0  0  0  0  0  0  0
  195.1290  175.4990  143.9780 C   0  0  2  0  0  3  0  0  0  0  0  0
  197.6490  175.6570  143.4470 C   0  0  0  0  0  2  0  0  0  0  0  0
  195.5650  176.5510  142.9770 C   0  0  0  0  0  2  0  0  0  0  0  0
  1 26  1  6  0  0  0
  1 18  1  0  0  0  0
  1 27  1  0  0  0  0
  2 27  1  0  0  0  0
  2 14  1  0  0  0  0
  3  7  2  0  0  0  0
  3 19  1  0  0  0  0
  4 23  1  6  0  0  0
  4 15  1  0  0  0  0
  4 18  1  0  0  0  0
  5 19  1  0  0  0  0
  5 11  2  0  0  0  0
  8 16  1  0  0  0  0
  9 25  1  0  0  0  0
  9 13  1  0  0  0  0
 10 22  2  0  0  0  0
 12  8  1  0  0  0  0
 12 15  2  0  0  0  0
 13 24  1  0  0  0  0
 14 25  1  0  0  0  0
 15  5  1  0  0  0  0
 16  3  1  0  0  0  0
 17 28  1  0  0  0  0
 17 10  1  0  0  0  0
 18 20  1  0  0  0  0
 19  6  1  0  0  0  0
 20 11  1  0  0  0  0
 20 13  1  0  0  0  0
 21 23  1  0  0  0  0
 21 26  1  0  0  0  0
 24 22  1  0  0  0  0
 25 17  1  0  0  0  0
 27  9  1  0  0  0  0
 29 28  1  0  0  0  0
 30 33  1  0  0  0  0
 32 31  1  0  0  0  0
 32 29  1  0  0  0  0
 33 31  1  0  0  0  0
 34 30  1  0  0  0  0
 34 32  1  0  0  0  0
M  END
>  <MODEL>
3

>  <REMARK>
 VINA RESULT:      -8.0      4.718      8.918
  Name = 
  3 active torsions:
  status: ('A' for Active; 'I' for Inactive)
    1  A    between atoms: C_17  and  N_28
    2  A    between atoms: N_28  and  C_29
    3  A    between atoms: C_29  and  C_32
                            x       y       z     vdW  Elec       q    Type
                         _______ _______ _______ _____ _____    ______ ____

>  <TORSDO>
F 3

$$$$
=
 OpenBabel11112418043D

 34 40  0  0  1  0  0  0  0  0999 V2000
  192.5220  175.5650  145.6100 C   0  0  1  0  0  3  0  0  0  0  0  0
  190.5210  176.6720  146.7850 C   0  0  0  0  0  2  0  0  0  0  0  0
  195.3460  174.3740  139.9010 C   0  0  0  0  0  0  0  0  0  0  0  0
  194.3580  174.5560  144.2580 C   0  0  2  0  0  3  0  0  0  0  0  0
  193.7770  173.9030  141.7910 C   0  0  0  0  0  0  0  0  0  0  0  0
  193.0350  173.5580  139.3490 C   0  0  0  0  0  1  0  0  0  0  0  0
  195.2010  175.2910  139.0480 O   0  0  0  0  0  0  0  0  0  0  0  0
  196.7600  173.2240  141.5270 C   0  0  0  0  0  2  0  0  0  0  0  0
  190.1980  175.2920  144.9020 C   0  0  2  0  0  3  0  0  0  0  0  0
  187.7700  175.8680  142.8760 C   0  0  0  0  0  3  0  0  0  0  0  0
  192.4700  174.0380  142.0810 C   0  0  0  0  0  3  0  0  0  0  0  0
  196.0980  173.7420  142.7650 C   0  0  0  0  0  3  0  0  0  0  0  0
  190.5750  174.9570  143.4550 C   0  0  1  0  0  3  0  0  0  0  0  0
  189.0330  176.7190  146.4460 C   0  0  0  0  0  2  0  0  0  0  0  0
  194.7990  174.0660  142.8920 C   0  0  0  0  0  0  0  0  0  0  0  0
  196.6000  174.1530  140.4630 O   0  0  0  0  0  0  0  0  0  0  0  0
  188.3280  176.7170  143.9940 C   0  0  2  0  0  3  0  0  0  0  0  0
  192.9760  175.2060  144.1910 C   0  0  1  0  0  3  0  0  0  0  0  0
  194.1770  173.5530  140.3660 C   0  0  1  0  0  3  0  0  0  0  0  0
  191.9700  174.3010  143.4700 C   0  0  2  0  0  3  0  0  0  0  0  0
  194.9410  175.7010  146.1380 C   0  0  0  0  0  2  0  0  0  0  0  0
  188.3050  174.7380  142.3760 C   0  0  0  0  0  3  0  0  0  0  0  0
  195.2730  175.4960  144.7800 O   0  0  0  0  0  0  0  0  0  0  0  0
  189.5260  174.0150  142.8850 C   0  0  0  0  0  2  0  0  0  0  0  0
  188.8190  175.8740  145.1820 C   0  0  1  0  0  3  0  0  0  0  0  0
  193.5950  176.4300  146.2610 C   0  0  0  0  0  2  0  0  0  0  0  0
  191.1790  176.2720  145.4890 C   0  0  2  0  0  3  0  0  0  0  0  0
  187.3110  177.6720  144.4140 N   0  0  0  0  0  2  0  0  0  0  0  0
  186.0290  176.9910  144.3390 C   0  0  0  0  0  2  0  0  0  0  0  0
  185.8080  177.5990  147.4280 N   0  0  0  0  0  2  0  0  0  0  0  0
  185.5860  179.4160  145.4810 S   0  0  0  0  0  0  0  0  0  0  0  0
  184.9920  177.7330  145.1650 C   0  0  2  0  0  3  0  0  0  0  0  0
  185.7680  179.0400  147.2500 C   0  0  0  0  0  2  0  0  0  0  0  0
  184.8160  177.0620  146.5130 C   0  0  0  0  0  2  0  0  0  0  0  0
  1 26  1  6  0  0  0
  3 19  1  0  0  0  0
  3 16  1  0  0  0  0
  4 15  1  6  0  0  0
  4 23  1  0  0  0  0
  5 11  2  0  0  0  0
  5 15  1  0  0  0  0
  6 19  1  0  0  0  0
  7  3  2  0  0  0  0
  8 12  1  0  0  0  0
  9 25  1  0  0  0  0
  9 27  1  0  0  0  0
 10 17  1  0  0  0  0
 11 20  1  0  0  0  0
 12 15  2  0  0  0  0
 13 20  1  0  0  0  0
 13  9  1  0  0  0  0
 14  2  1  0  0  0  0
 16  8  1  0  0  0  0
 17 28  1  0  0  0  0
 17 25  1  0  0  0  0
 18  4  1  0  0  0  0
 18  1  1  0  0  0  0
 19  5  1  0  0  0  0
 20 18  1  0  0  0  0
 21 26  1  0  0  0  0
 22 10  2  0  0  0  0
 22 24  1  0  0  0  0
 23 21  1  0  0  0  0
 24 13  1  0  0  0  0
 25 14  1  0  0  0  0
 27  1  1  0  0  0  0
 27  2  1  0  0  0  0
 29 28  1  0  0  0  0
 29 32  1  0  0  0  0
 31 33  1  0  0  0  0
 32 31  1  0  0  0  0
 32 34  1  0  0  0  0
 33 30  1  0  0  0  0
 34 30  1  0  0  0  0
M  END
>  <MODEL>
4

>  <REMARK>
 VINA RESULT:      -7.7      2.396      3.649
  Name = 
  3 active torsions:
  status: ('A' for Active; 'I' for Inactive)
    1  A    between atoms: C_17  and  N_28
    2  A    between atoms: N_28  and  C_29
    3  A    between atoms: C_29  and  C_32
                            x       y       z     vdW  Elec       q    Type
                         _______ _______ _______ _____ _____    ______ ____

>  <TORSDO>
F 3

$$$$
=
 OpenBabel11112418043D

 34 40  0  0  1  0  0  0  0  0999 V2000
  193.6190  176.4020  143.1820 C   0  0  1  0  0  3  0  0  0  0  0  0
  191.5170  177.8820  143.1380 C   0  0  0  0  0  2  0  0  0  0  0  0
  195.8930  170.4210  144.1970 C   0  0  0  0  0  0  0  0  0  0  0  0
  195.5120  174.7840  143.3000 C   0  0  2  0  0  3  0  0  0  0  0  0
  195.1980  172.7230  144.8830 C   0  0  0  0  0  0  0  0  0  0  0  0
  194.5690  170.6780  146.3160 C   0  0  0  0  0  1  0  0  0  0  0  0
  195.1080  169.4990  143.8460 O   0  0  0  0  0  0  0  0  0  0  0  0
  197.8880  171.7590  143.7560 C   0  0  0  0  0  2  0  0  0  0  0  0
  191.9260  176.4250  144.9450 C   0  0  2  0  0  3  0  0  0  0  0  0
  189.4680  175.0860  146.5260 C   0  0  0  0  0  3  0  0  0  0  0  0
  194.1420  173.3380  145.4450 C   0  0  0  0  0  3  0  0  0  0  0  0
  197.1920  173.0260  143.3680 C   0  0  0  0  0  3  0  0  0  0  0  0
  192.2630  175.0080  145.4230 C   0  0  1  0  0  3  0  0  0  0  0  0
  190.3060  177.9670  144.0640 C   0  0  0  0  0  2  0  0  0  0  0  0
  196.0050  173.4530  143.8330 C   0  0  0  0  0  0  0  0  0  0  0  0
  197.0590  170.6410  143.4690 O   0  0  0  0  0  0  0  0  0  0  0  0
  189.4880  175.8450  145.2200 C   0  0  2  0  0  3  0  0  0  0  0  0
  194.0330  174.9950  143.6250 C   0  0  1  0  0  3  0  0  0  0  0  0
  195.5650  171.3230  145.3510 C   0  0  1  0  0  3  0  0  0  0  0  0
  193.7490  174.7460  145.1110 C   0  0  2  0  0  3  0  0  0  0  0  0
  195.4510  176.2060  141.5220 C   0  0  0  0  0  2  0  0  0  0  0  0
  190.5350  174.6560  147.2270 C   0  0  0  0  0  3  0  0  0  0  0  0
  195.6820  174.8650  141.9000 O   0  0  0  0  0  0  0  0  0  0  0  0
  191.9850  174.9200  146.9160 C   0  0  0  0  0  2  0  0  0  0  0  0
  190.5310  176.9740  145.2140 C   0  0  1  0  0  3  0  0  0  0  0  0
  193.9720  176.5740  141.7090 C   0  0  0  0  0  2  0  0  0  0  0  0
  192.1280  176.5420  143.4580 C   0  0  2  0  0  3  0  0  0  0  0  0
  188.1530  176.3630  144.9550 N   0  0  0  0  0  2  0  0  0  0  0  0
  187.5250  176.6040  146.2440 C   0  0  0  0  0  2  0  0  0  0  0  0
  184.8800  177.9120  145.1220 N   0  0  0  0  0  2  0  0  0  0  0  0
  185.7550  178.1240  147.6370 S   0  0  0  0  0  0  0  0  0  0  0  0
  186.9770  178.0200  146.3030 C   0  0  2  0  0  3  0  0  0  0  0  0
  184.4220  178.3610  146.4260 C   0  0  0  0  0  2  0  0  0  0  0  0
  186.2570  178.3590  145.0130 C   0  0  0  0  0  2  0  0  0  0  0  0
  1 26  1  6  0  0  0
  1 27  1  0  0  0  0
  1 18  1  0  0  0  0
  2 27  1  0  0  0  0
  2 14  1  0  0  0  0
  3 19  1  0  0  0  0
  4 23  1  6  0  0  0
  4 18  1  0  0  0  0
  4 15  1  0  0  0  0
  5 19  1  0  0  0  0
  5 11  2  0  0  0  0
  7  3  2  0  0  0  0
  9 25  1  0  0  0  0
  9 13  1  0  0  0  0
 10 22  2  0  0  0  0
 12  8  1  0  0  0  0
 12 15  2  0  0  0  0
 13 24  1  0  0  0  0
 14 25  1  0  0  0  0
 15  5  1  0  0  0  0
 16  8  1  0  0  0  0
 16  3  1  0  0  0  0
 17 10  1  0  0  0  0
 18 20  1  0  0  0  0
 19  6  1  0  0  0  0
 20 13  1  0  0  0  0
 20 11  1  0  0  0  0
 21 26  1  0  0  0  0
 21 23  1  0  0  0  0
 24 22  1  0  0  0  0
 25 17  1  0  0  0  0
 27  9  1  0  0  0  0
 28 17  1  0  0  0  0
 28 29  1  0  0  0  0
 29 32  1  0  0  0  0
 30 33  1  0  0  0  0
 32 31  1  0  0  0  0
 33 31  1  0  0  0  0
 34 30  1  0  0  0  0
 34 32  1  0  0  0  0
M  END
>  <MODEL>
5

>  <REMARK>
 VINA RESULT:      -7.6      2.974      5.131
  Name = 
  3 active torsions:
  status: ('A' for Active; 'I' for Inactive)
    1  A    between atoms: C_17  and  N_28
    2  A    between atoms: N_28  and  C_29
    3  A    between atoms: C_29  and  C_32
                            x       y       z     vdW  Elec       q    Type
                         _______ _______ _______ _____ _____    ______ ____

>  <TORSDO>
F 3

$$$$
=
 OpenBabel11112418043D

 34 40  0  0  1  0  0  0  0  0999 V2000
  189.1310  175.6730  143.1360 C   0  0  1  0  0  3  0  0  0  0  0  0
  191.4430  175.1310  142.1510 C   0  0  0  0  0  2  0  0  0  0  0  0
  185.8650  179.4160  147.2970 C   0  0  0  0  0  0  0  0  0  0  0  0
  187.0020  176.3600  144.2380 C   0  0  2  0  0  3  0  0  0  0  0  0
  187.2020  177.4120  146.6260 C   0  0  0  0  0  0  0  0  0  0  0  0
  187.6690  178.6190  148.8520 C   0  0  0  0  0  1  0  0  0  0  0  0
  186.3180  180.5880  147.4090 O   0  0  0  0  0  0  0  0  0  0  0  0
  184.1780  177.8960  146.3980 C   0  0  0  0  0  2  0  0  0  0  0  0
  191.1480  175.3530  144.4790 C   0  0  2  0  0  3  0  0  0  0  0  0
  193.5380  176.4810  146.3080 C   0  0  0  0  0  3  0  0  0  0  0  0
  188.4700  176.9700  146.6960 C   0  0  0  0  0  3  0  0  0  0  0  0
  185.0310  177.2510  145.3520 C   0  0  0  0  0  3  0  0  0  0  0  0
  190.6200  176.1910  145.6490 C   0  0  1  0  0  3  0  0  0  0  0  0
  192.8230  175.0030  142.7910 C   0  0  0  0  0  2  0  0  0  0  0  0
  186.3590  177.0520  145.4240 C   0  0  0  0  0  0  0  0  0  0  0  0
  184.6420  179.2120  146.6640 O   0  0  0  0  0  0  0  0  0  0  0  0
  193.3860  176.4650  144.8060 C   0  0  2  0  0  3  0  0  0  0  0  0
  188.5240  176.4950  144.2790 C   0  0  1  0  0  3  0  0  0  0  0  0
  186.6480  178.2310  147.7820 C   0  0  1  0  0  3  0  0  0  0  0  0
  189.0820  176.0890  145.6480 C   0  0  2  0  0  3  0  0  0  0  0  0
  186.9670  176.0440  141.9830 C   0  0  0  0  0  2  0  0  0  0  0  0
  192.5950  176.1720  147.2190 C   0  0  0  0  0  3  0  0  0  0  0  0
  186.5330  176.9000  143.0200 O   0  0  0  0  0  0  0  0  0  0  0  0
  191.2100  175.6470  146.9420 C   0  0  0  0  0  2  0  0  0  0  0  0
  192.6530  175.2100  144.3040 C   0  0  1  0  0  3  0  0  0  0  0  0
  188.4920  176.1160  141.8240 C   0  0  0  0  0  2  0  0  0  0  0  0
  190.6360  175.8950  143.1710 C   0  0  2  0  0  3  0  0  0  0  0  0
  194.7050  176.5800  144.1970 N   0  0  0  0  0  2  0  0  0  0  0  0
  195.5790  175.6490  144.8920 C   0  0  0  0  0  2  0  0  0  0  0  0
  196.0840  173.7010  142.4610 N   0  0  0  0  0  2  0  0  0  0  0  0
  196.7030  176.2990  142.5050 S   0  0  0  0  0  0  0  0  0  0  0  0
  196.8100  175.3590  144.0500 C   0  0  2  0  0  3  0  0  0  0  0  0
  196.5000  174.7610  141.5590 C   0  0  0  0  0  2  0  0  0  0  0  0
  196.8560  173.8910  143.6760 C   0  0  0  0  0  2  0  0  0  0  0  0
  1 26  1  6  0  0  0
  1 27  1  0  0  0  0
  1 18  1  0  0  0  0
  2 14  1  0  0  0  0
  2 27  1  0  0  0  0
  3  7  2  0  0  0  0
  3 19  1  0  0  0  0
  4 23  1  6  0  0  0
  4 18  1  0  0  0  0
  4 15  1  0  0  0  0
  5 11  2  0  0  0  0
  5 19  1  0  0  0  0
  8 16  1  0  0  0  0
  9 13  1  0  0  0  0
 10 22  2  0  0  0  0
 12 15  2  0  0  0  0
 12  8  1  0  0  0  0
 13 24  1  0  0  0  0
 14 25  1  0  0  0  0
 15  5  1  0  0  0  0
 16  3  1  0  0  0  0
 17 10  1  0  0  0  0
 18 20  1  0  0  0  0
 19  6  1  0  0  0  0
 20 13  1  0  0  0  0
 20 11  1  0  0  0  0
 21 23  1  0  0  0  0
 24 22  1  0  0  0  0
 25  9  1  0  0  0  0
 25 17  1  0  0  0  0
 26 21  1  0  0  0  0
 27  9  1  0  0  0  0
 28 17  1  0  0  0  0
 28 29  1  0  0  0  0
 30 34  1  0  0  0  0
 31 32  1  0  0  0  0
 32 29  1  0  0  0  0
 33 30  1  0  0  0  0
 33 31  1  0  0  0  0
 34 32  1  0  0  0  0
M  END
>  <MODEL>
6

>  <REMARK>
 VINA RESULT:      -7.6      4.822      8.967
  Name = 
  3 active torsions:
  status: ('A' for Active; 'I' for Inactive)
    1  A    between atoms: C_17  and  N_28
    2  A    between atoms: N_28  and  C_29
    3  A    between atoms: C_29  and  C_32
                            x       y       z     vdW  Elec       q    Type
                         _______ _______ _______ _____ _____    ______ ____

>  <TORSDO>
F 3

$$$$
=
 OpenBabel11112418043D

 34 40  0  0  1  0  0  0  0  0999 V2000
  188.7350  176.5210  146.8860 C   0  0  1  0  0  3  0  0  0  0  0  0
  190.8790  175.2820  147.5730 C   0  0  0  0  0  2  0  0  0  0  0  0
  184.7710  177.9720  141.9690 C   0  0  0  0  0  0  0  0  0  0  0  0
  186.7040  177.6560  145.9890 C   0  0  2  0  0  3  0  0  0  0  0  0
  186.7510  178.3200  143.4570 C   0  0  0  0  0  0  0  0  0  0  0  0
  186.9420  178.6660  140.9130 C   0  0  0  0  0  1  0  0  0  0  0  0
  184.6650  177.0640  141.1010 O   0  0  0  0  0  0  0  0  0  0  0  0
  183.8300  179.1700  143.8780 C   0  0  0  0  0  2  0  0  0  0  0  0
  190.8500  176.6750  145.6720 C   0  0  2  0  0  3  0  0  0  0  0  0
  192.7200  175.9990  143.1460 C   0  0  0  0  0  3  0  0  0  0  0  0
  188.0790  178.1060  143.4440 C   0  0  0  0  0  3  0  0  0  0  0  0
  184.7230  178.5940  144.9320 C   0  0  0  0  0  3  0  0  0  0  0  0
  190.1770  177.0570  144.3490 C   0  0  1  0  0  3  0  0  0  0  0  0
  192.2470  175.1570  146.9060 C   0  0  0  0  0  2  0  0  0  0  0  0
  185.9950  178.1950  144.7610 C   0  0  0  0  0  0  0  0  0  0  0  0
  183.6910  178.2540  142.8010 O   0  0  0  0  0  0  0  0  0  0  0  0
  192.3800  175.1630  144.3580 C   0  0  2  0  0  3  0  0  0  0  0  0
  187.9940  176.9310  145.6080 C   0  0  1  0  0  3  0  0  0  0  0  0
  186.0610  178.7170  142.1610 C   0  0  1  0  0  3  0  0  0  0  0  0
  188.8630  177.7900  144.6820 C   0  0  2  0  0  3  0  0  0  0  0  0
  186.4930  176.5120  147.9460 C   0  0  0  0  0  2  0  0  0  0  0  0
  192.1540  177.1670  142.7860 C   0  0  0  0  0  3  0  0  0  0  0  0
  185.8760  176.7600  146.7000 O   0  0  0  0  0  0  0  0  0  0  0  0
  191.1250  177.9480  143.5610 C   0  0  0  0  0  2  0  0  0  0  0  0
  192.2200  176.0110  145.6300 C   0  0  1  0  0  3  0  0  0  0  0  0
  187.7860  175.7070  147.7590 C   0  0  0  0  0  2  0  0  0  0  0  0
  189.9710  175.7420  146.4610 C   0  0  2  0  0  3  0  0  0  0  0  0
  193.4070  174.1440  144.5320 N   0  0  0  0  0  2  0  0  0  0  0  0
  194.5240  174.5140  143.6770 C   0  0  0  0  0  2  0  0  0  0  0  0
  196.9240  173.3780  145.3830 N   0  0  0  0  0  2  0  0  0  0  0  0
  197.1270  175.2730  143.5110 S   0  0  0  0  0  0  0  0  0  0  0  0
  195.6090  175.1910  144.4970 C   0  0  2  0  0  3  0  0  0  0  0  0
  197.9390  174.0900  144.6260 C   0  0  0  0  0  2  0  0  0  0  0  0
  195.9240  174.3710  145.7320 C   0  0  0  0  0  2  0  0  0  0  0  0
  1 26  1  1  0  0  0
  3 19  1  0  0  0  0
  3 16  1  0  0  0  0
  4 15  1  6  0  0  0
  4 23  1  0  0  0  0
  5 15  1  0  0  0  0
  6 19  1  0  0  0  0
  7  3  2  0  0  0  0
  8 12  1  0  0  0  0
  9 27  1  0  0  0  0
 10 17  1  0  0  0  0
 11  5  2  0  0  0  0
 11 20  1  0  0  0  0
 13 20  1  0  0  0  0
 13  9  1  0  0  0  0
 14  2  1  0  0  0  0
 15 12  2  0  0  0  0
 16  8  1  0  0  0  0
 17 28  1  0  0  0  0
 17 25  1  0  0  0  0
 18  4  1  0  0  0  0
 18  1  1  0  0  0  0
 19  5  1  0  0  0  0
 20 18  1  0  0  0  0
 22 10  2  0  0  0  0
 22 24  1  0  0  0  0
 23 21  1  0  0  0  0
 24 13  1  0  0  0  0
 25  9  1  0  0  0  0
 25 14  1  0  0  0  0
 26 21  1  0  0  0  0
 27  1  1  0  0  0  0
 27  2  1  0  0  0  0
 29 32  1  0  0  0  0
 29 28  1  0  0  0  0
 30 34  1  0  0  0  0
 31 32  1  0  0  0  0
 31 33  1  0  0  0  0
 32 34  1  0  0  0  0
 33 30  1  0  0  0  0
M  END
>  <MODEL>
7

>  <REMARK>
 VINA RESULT:      -7.5      4.837      8.713
  Name = 
  3 active torsions:
  status: ('A' for Active; 'I' for Inactive)
    1  A    between atoms: C_17  and  N_28
    2  A    between atoms: N_28  and  C_29
    3  A    between atoms: C_29  and  C_32
                            x       y       z     vdW  Elec       q    Type
                         _______ _______ _______ _____ _____    ______ ____

>  <TORSDO>
F 3

$$$$
=
 OpenBabel11112418043D

 34 40  0  0  1  0  0  0  0  0999 V2000
  192.3080  175.6530  145.4420 C   0  0  1  0  0  3  0  0  0  0  0  0
  190.6450  177.5410  144.9160 C   0  0  0  0  0  2  0  0  0  0  0  0
  195.2560  170.3640  143.1340 C   0  0  0  0  0  0  0  0  0  0  0  0
  193.8700  173.7300  145.7290 C   0  0  2  0  0  3  0  0  0  0  0  0
  193.4070  171.6110  144.2650 C   0  0  0  0  0  0  0  0  0  0  0  0
  192.8880  169.7460  142.5660 C   0  0  0  0  0  1  0  0  0  0  0  0
  195.5150  170.4090  141.9010 O   0  0  0  0  0  0  0  0  0  0  0  0
  196.0240  170.5230  145.4470 C   0  0  0  0  0  2  0  0  0  0  0  0
  190.1210  175.2990  144.4100 C   0  0  2  0  0  3  0  0  0  0  0  0
  188.2650  174.6090  141.8780 C   0  0  0  0  0  3  0  0  0  0  0  0
  192.1880  172.1010  143.9730 C   0  0  0  0  0  3  0  0  0  0  0  0
  195.4210  171.8560  145.7630 C   0  0  0  0  0  3  0  0  0  0  0  0
  190.5390  173.9850  143.7410 C   0  0  1  0  0  3  0  0  0  0  0  0
  189.3020  177.5490  144.1900 C   0  0  0  0  0  2  0  0  0  0  0  0
  194.2900  172.3580  145.2380 C   0  0  0  0  0  0  0  0  0  0  0  0
  196.2970  170.4290  144.0560 O   0  0  0  0  0  0  0  0  0  0  0  0
  188.9290  175.9060  142.2730 C   0  0  2  0  0  3  0  0  0  0  0  0
  192.7880  174.3310  144.8320 C   0  0  1  0  0  3  0  0  0  0  0  0
  193.8390  170.3000  143.6280 C   0  0  1  0  0  3  0  0  0  0  0  0
  191.6370  173.3420  144.6100 C   0  0  2  0  0  3  0  0  0  0  0  0
  194.5630  175.7700  146.4680 C   0  0  0  0  0  2  0  0  0  0  0  0
  188.4640  173.3970  142.4330 C   0  0  0  0  0  3  0  0  0  0  0  0
  194.9700  174.6160  145.7630 O   0  0  0  0  0  0  0  0  0  0  0  0
  189.3180  173.0840  143.6340 C   0  0  0  0  0  2  0  0  0  0  0  0
  188.9790  176.0990  143.7970 C   0  0  1  0  0  3  0  0  0  0  0  0
  193.5180  176.5550  145.6630 C   0  0  0  0  0  2  0  0  0  0  0  0
  191.2880  176.2480  144.4820 C   0  0  2  0  0  3  0  0  0  0  0  0
  188.2300  177.0100  141.6280 N   0  0  0  0  0  2  0  0  0  0  0  0
  186.8360  176.9290  142.0350 C   0  0  0  0  0  2  0  0  0  0  0  0
  183.8380  177.9150  142.0780 N   0  0  0  0  0  2  0  0  0  0  0  0
  185.7530  178.7370  143.7500 S   0  0  0  0  0  0  0  0  0  0  0  0
  186.2140  178.3150  142.0490 C   0  0  2  0  0  3  0  0  0  0  0  0
  183.9910  178.6670  143.3120 C   0  0  0  0  0  2  0  0  0  0  0  0
  184.9410  178.3270  141.2270 C   0  0  0  0  0  2  0  0  0  0  0  0
  1 26  1  6  0  0  0
  3 19  1  0  0  0  0
  3 16  1  0  0  0  0
  4 15  1  6  0  0  0
  4 23  1  0  0  0  0
  5 15  1  0  0  0  0
  6 19  1  0  0  0  0
  7  3  2  0  0  0  0
  8 12  1  0  0  0  0
  9 27  1  0  0  0  0
 10 17  1  0  0  0  0
 10 22  2  0  0  0  0
 11  5  2  0  0  0  0
 11 20  1  0  0  0  0
 13  9  1  0  0  0  0
 13 20  1  0  0  0  0
 14  2  1  0  0  0  0
 15 12  2  0  0  0  0
 16  8  1  0  0  0  0
 17 25  1  0  0  0  0
 18  1  1  0  0  0  0
 18  4  1  0  0  0  0
 19  5  1  0  0  0  0
 20 18  1  0  0  0  0
 22 24  1  0  0  0  0
 23 21  1  0  0  0  0
 24 13  1  0  0  0  0
 25 14  1  0  0  0  0
 25  9  1  0  0  0  0
 26 21  1  0  0  0  0
 27  2  1  0  0  0  0
 27  1  1  0  0  0  0
 28 29  1  0  0  0  0
 28 17  1  0  0  0  0
 29 32  1  0  0  0  0
 30 33  1  0  0  0  0
 32 31  1  0  0  0  0
 33 31  1  0  0  0  0
 34 32  1  0  0  0  0
 34 30  1  0  0  0  0
M  END
>  <MODEL>
8

>  <REMARK>
 VINA RESULT:      -7.5      2.720      3.453
  Name = 
  3 active torsions:
  status: ('A' for Active; 'I' for Inactive)
    1  A    between atoms: C_17  and  N_28
    2  A    between atoms: N_28  and  C_29
    3  A    between atoms: C_29  and  C_32
                            x       y       z     vdW  Elec       q    Type
                         _______ _______ _______ _____ _____    ______ ____

>  <TORSDO>
F 3

$$$$
=
 OpenBabel11112418043D

 34 40  0  0  1  0  0  0  0  0999 V2000
  190.3760  172.9990  142.1600 C   0  0  1  0  0  3  0  0  0  0  0  0
  188.0860  174.1460  142.3720 C   0  0  0  0  0  2  0  0  0  0  0  0
  196.2870  172.3990  144.7470 C   0  0  0  0  0  0  0  0  0  0  0  0
  192.6700  172.0200  142.1460 C   0  0  2  0  0  3  0  0  0  0  0  0
  194.5600  173.4420  143.2690 C   0  0  0  0  0  0  0  0  0  0  0  0
  196.1900  174.9070  144.6210 C   0  0  0  0  0  1  0  0  0  0  0  0
  196.3150  172.4870  146.0050 O   0  0  0  0  0  0  0  0  0  0  0  0
  196.3630  171.0130  142.7380 C   0  0  0  0  0  2  0  0  0  0  0  0
  190.0780  175.3940  142.5480 C   0  0  2  0  0  3  0  0  0  0  0  0
  190.1940  177.9900  144.4390 C   0  0  0  0  0  3  0  0  0  0  0  0
  193.7370  174.5060  143.2650 C   0  0  0  0  0  3  0  0  0  0  0  0
  194.9130  171.1080  142.3780 C   0  0  0  0  0  3  0  0  0  0  0  0
  191.4550  175.5600  143.1990 C   0  0  1  0  0  3  0  0  0  0  0  0
  187.6870  175.5790  142.7170 C   0  0  0  0  0  2  0  0  0  0  0  0
  194.1030  172.1530  142.6230 C   0  0  0  0  0  0  0  0  0  0  0  0
  196.5290  171.1700  144.1400 O   0  0  0  0  0  0  0  0  0  0  0  0
  189.1460  176.9080  144.3340 C   0  0  2  0  0  3  0  0  0  0  0  0
  191.7790  173.0950  142.7700 C   0  0  1  0  0  3  0  0  0  0  0  0
  195.9390  173.5850  143.8930 C   0  0  1  0  0  3  0  0  0  0  0  0
  192.3910  174.4910  142.6030 C   0  0  2  0  0  3  0  0  0  0  0  0
  190.9210  170.6100  141.7770 C   0  0  0  0  0  2  0  0  0  0  0  0
  191.4120  177.9930  143.8640 C   0  0  0  0  0  3  0  0  0  0  0  0
  192.1410  170.7520  142.4730 O   0  0  0  0  0  0  0  0  0  0  0  0
  191.9630  176.9650  142.9110 C   0  0  0  0  0  2  0  0  0  0  0  0
  188.9790  176.3890  142.8970 C   0  0  1  0  0  3  0  0  0  0  0  0
  189.8640  171.5740  142.3360 C   0  0  0  0  0  2  0  0  0  0  0  0
  189.5080  174.0350  142.8590 C   0  0  2  0  0  3  0  0  0  0  0  0
  187.8850  177.4200  144.8560 N   0  0  0  0  0  2  0  0  0  0  0  0
  187.8960  177.1950  146.2930 C   0  0  0  0  0  2  0  0  0  0  0  0
  185.6130  179.1850  147.1830 N   0  0  0  0  0  2  0  0  0  0  0  0
  185.3210  177.1960  145.4230 S   0  0  0  0  0  0  0  0  0  0  0  0
  186.4800  176.9710  146.7980 C   0  0  2  0  0  3  0  0  0  0  0  0
  184.6590  178.6990  146.2010 C   0  0  0  0  0  2  0  0  0  0  0  0
  186.1280  178.0030  147.8510 C   0  0  0  0  0  2  0  0  0  0  0  0
  1 26  1  1  0  0  0
  1 18  1  0  0  0  0
  1 27  1  0  0  0  0
  2 14  1  0  0  0  0
  2 27  1  0  0  0  0
  3  7  2  0  0  0  0
  4 23  1  1  0  0  0
  4 15  1  0  0  0  0
  4 18  1  0  0  0  0
  5 19  1  0  0  0  0
  8 16  1  0  0  0  0
  9 27  1  0  0  0  0
  9 25  1  0  0  0  0
  9 13  1  0  0  0  0
 11  5  2  0  0  0  0
 12 15  2  0  0  0  0
 12  8  1  0  0  0  0
 14 25  1  0  0  0  0
 15  5  1  0  0  0  0
 16  3  1  0  0  0  0
 17 10  1  0  0  0  0
 17 28  1  0  0  0  0
 19  6  1  0  0  0  0
 19  3  1  0  0  0  0
 20 18  1  0  0  0  0
 20 13  1  0  0  0  0
 20 11  1  0  0  0  0
 21 26  1  0  0  0  0
 21 23  1  0  0  0  0
 22 10  2  0  0  0  0
 24 13  1  0  0  0  0
 24 22  1  0  0  0  0
 25 17  1  0  0  0  0
 28 29  1  0  0  0  0
 29 32  1  0  0  0  0
 30 34  1  0  0  0  0
 31 33  1  0  0  0  0
 31 32  1  0  0  0  0
 32 34  1  0  0  0  0
 33 30  1  0  0  0  0
M  END
>  <MODEL>
9

>  <REMARK>
 VINA RESULT:      -7.5      3.214      5.145
  Name = 
  3 active torsions:
  status: ('A' for Active; 'I' for Inactive)
    1  A    between atoms: C_17  and  N_28
    2  A    between atoms: N_28  and  C_29
    3  A    between atoms: C_29  and  C_32
                            x       y       z     vdW  Elec       q    Type
                         _______ _______ _______ _____ _____    ______ ____

>  <TORSDO>
F 3

$$$$
