=
 OpenBabel11112416493D

 31 35  0  0  1  0  0  0  0  0999 V2000
  185.0750  177.9360  146.9220 C   0  0  0  0  0  0  0  0  0  0  0  0
  187.6890  175.7240  145.2760 C   0  0  2  0  0  3  0  0  0  0  0  0
  187.5520  175.9790  143.7530 C   0  0  1  0  0  3  0  0  0  0  0  0
  187.3010  177.5040  141.8030 C   0  0  0  0  0  0  0  0  0  0  0  0
  187.0660  176.7930  146.1390 C   0  0  0  0  0  0  0  0  0  0  0  0
  185.8690  178.8430  147.6270 C   0  0  0  0  0  3  0  0  0  0  0  0
  187.3850  177.4380  143.3080 C   0  0  0  0  0  2  0  0  0  0  0  0
  189.9310  176.6910  145.7980 C   0  0  2  0  0  3  0  0  0  0  0  0
  183.6920  178.0500  146.9570 O   0  0  0  0  0  1  0  0  0  0  0  0
  189.0650  174.1380  143.5290 O   0  0  0  0  0  0  0  0  0  0  0  0
  186.7850  178.5090  141.2510 O   0  0  0  0  0  0  0  0  0  0  0  0
  189.3630  177.5690  146.9160 C   0  0  0  0  0  2  0  0  0  0  0  0
  189.1330  175.3830  145.7010 C   0  0  2  0  0  3  0  0  0  0  0  0
  185.6720  176.9150  146.1780 C   0  0  0  0  0  3  0  0  0  0  0  0
  187.8370  176.4020  140.9700 C   0  0  0  0  0  3  0  0  0  0  0  0
  187.8690  177.7150  146.8450 C   0  0  0  0  0  0  0  0  0  0  0  0
  187.2600  178.7280  147.5940 C   0  0  0  0  0  3  0  0  0  0  0  0
  189.7950  174.3710  144.7200 C   0  0  0  0  0  2  0  0  0  0  0  0
  188.7510  175.3970  143.0080 C   0  0  1  0  0  3  0  0  0  0  0  0
  188.4880  175.3770  141.5330 C   0  0  0  0  0  3  0  0  0  0  0  0
  191.4200  176.4590  146.0310 C   0  0  0  0  0  2  0  0  0  0  0  0
  191.5860  177.4690  143.8890 O   0  0  0  0  0  0  0  0  0  0  0  0
  192.1880  176.8570  144.8130 C   0  0  0  0  0  0  0  0  0  0  0  0
  196.0090  175.1070  144.3580 N   0  0  0  0  0  0  0  0  0  0  0  0
  194.0110  176.0610  143.3090 C   0  0  0  0  0  2  0  0  0  0  0  0
  194.0460  176.8230  146.9380 O   0  0  0  0  0  1  0  0  0  0  0  0
  196.7910  173.8870  144.4510 C   0  0  0  0  0  1  0  0  0  0  0  0
  194.9050  174.8290  143.4410 C   0  0  0  0  0  2  0  0  0  0  0  0
  194.5940  176.6110  145.6720 C   0  0  2  0  0  3  0  0  0  0  0  0
  193.5600  176.4640  144.6370 N   0  0  0  0  0  0  0  0  0  0  0  0
  195.4640  175.3570  145.6920 C   0  0  0  0  0  2  0  0  0  0  0  0
  1  9  1  0  0  0  0
  1  6  1  0  0  0  0
  2 13  1  0  0  0  0
  2  5  1  1  0  0  0
  3  7  1  1  0  0  0
  3  2  1  0  0  0  0
  4  7  1  0  0  0  0
  5 14  1  0  0  0  0
  5 16  2  0  0  0  0
  8 21  1  1  0  0  0
  8 12  1  0  0  0  0
 10 18  1  0  0  0  0
 11  4  2  0  0  0  0
 13 18  1  6  0  0  0
 13  8  1  0  0  0  0
 14  1  2  0  0  0  0
 15 20  2  0  0  0  0
 15  4  1  0  0  0  0
 16 12  1  0  0  0  0
 16 17  1  0  0  0  0
 17  6  2  0  0  0  0
 19 20  1  6  0  0  0
 19 10  1  0  0  0  0
 19  3  1  0  0  0  0
 22 23  2  0  0  0  0
 23 21  1  0  0  0  0
 24 27  1  0  0  0  0
 24 31  1  0  0  0  0
 25 28  1  0  0  0  0
 25 30  1  0  0  0  0
 28 24  1  0  0  0  0
 29 31  1  0  0  0  0
 29 26  1  1  0  0  0
 30 23  1  0  0  0  0
 30 29  1  0  0  0  0
M  END
>  <MODEL>
1

>  <REMARK>
 VINA RESULT:      -8.5      0.000      0.000
  Name = 
  2 active torsions:
  status: ('A' for Active; 'I' for Inactive)
    1  A    between atoms: C_5  and  C_16
    2  A    between atoms: C_10  and  C_16
                            x       y       z     vdW  Elec       q    Type
                         _______ _______ _______ _____ _____    ______ ____

>  <TORSDO>
F 2

$$$$
=
 OpenBabel11112416493D

 31 35  0  0  1  0  0  0  0  0999 V2000
  195.1050  175.7060  144.3440 C   0  0  0  0  0  0  0  0  0  0  0  0
  191.5140  176.8420  143.8430 C   0  0  2  0  0  3  0  0  0  0  0  0
  190.8180  175.6920  143.0710 C   0  0  1  0  0  3  0  0  0  0  0  0
  190.3340  173.2790  142.7060 C   0  0  0  0  0  0  0  0  0  0  0  0
  192.8000  176.4380  144.5220 C   0  0  0  0  0  0  0  0  0  0  0  0
  195.1700  175.5630  145.7320 C   0  0  0  0  0  3  0  0  0  0  0  0
  191.1170  174.2620  143.5410 C   0  0  0  0  0  2  0  0  0  0  0  0
  190.3850  176.7750  146.0690 C   0  0  2  0  0  3  0  0  0  0  0  0
  196.2150  175.4150  143.5630 O   0  0  0  0  0  1  0  0  0  0  0  0
  188.9940  177.2280  142.8640 O   0  0  0  0  0  0  0  0  0  0  0  0
  190.7050  172.0790  142.6450 O   0  0  0  0  0  0  0  0  0  0  0  0
  191.7200  176.6840  146.8140 C   0  0  0  0  0  2  0  0  0  0  0  0
  190.5560  177.6000  144.7860 C   0  0  2  0  0  3  0  0  0  0  0  0
  193.9220  176.1410  143.7410 C   0  0  0  0  0  3  0  0  0  0  0  0
  189.1230  173.7120  141.9700 C   0  0  0  0  0  3  0  0  0  0  0  0
  192.8630  176.2840  145.9240 C   0  0  0  0  0  0  0  0  0  0  0  0
  194.0550  175.8580  146.5180 C   0  0  0  0  0  3  0  0  0  0  0  0
  189.1900  177.8930  144.0990 C   0  0  0  0  0  2  0  0  0  0  0  0
  189.3030  175.8830  143.0890 C   0  0  1  0  0  3  0  0  0  0  0  0
  188.6490  174.9560  142.1100 C   0  0  0  0  0  3  0  0  0  0  0  0
  189.3150  177.3380  146.9970 C   0  0  0  0  0  2  0  0  0  0  0  0
  188.2080  175.2380  146.9890 O   0  0  0  0  0  0  0  0  0  0  0  0
  188.0860  176.4910  146.9210 C   0  0  0  0  0  0  0  0  0  0  0  0
  184.5520  178.4330  145.6510 N   0  0  0  0  0  0  0  0  0  0  0  0
  185.8660  176.3700  145.7910 C   0  0  0  0  0  2  0  0  0  0  0  0
  187.2780  178.9490  148.0500 O   0  0  0  0  0  1  0  0  0  0  0  0
  183.9660  179.3630  144.7040 C   0  0  0  0  0  1  0  0  0  0  0  0
  185.1960  177.3820  144.8630 C   0  0  0  0  0  2  0  0  0  0  0  0
  186.2730  178.2480  147.3820 C   0  0  2  0  0  3  0  0  0  0  0  0
  186.7960  177.0730  146.6690 N   0  0  0  0  0  0  0  0  0  0  0  0
  185.5800  179.1720  146.3830 C   0  0  0  0  0  2  0  0  0  0  0  0
  1  6  1  0  0  0  0
  2  5  1  1  0  0  0
  2 13  1  0  0  0  0
  3 19  1  0  0  0  0
  3  7  1  1  0  0  0
  3  2  1  0  0  0  0
  4  7  1  0  0  0  0
  5 16  2  0  0  0  0
  6 17  2  0  0  0  0
  8 12  1  0  0  0  0
  8 21  1  1  0  0  0
  9  1  1  0  0  0  0
 10 19  1  0  0  0  0
 10 18  1  0  0  0  0
 11  4  2  0  0  0  0
 13 18  1  6  0  0  0
 13  8  1  0  0  0  0
 14  1  2  0  0  0  0
 14  5  1  0  0  0  0
 15 20  2  0  0  0  0
 15  4  1  0  0  0  0
 16 17  1  0  0  0  0
 16 12  1  0  0  0  0
 19 20  1  6  0  0  0
 23 22  2  0  0  0  0
 23 21  1  0  0  0  0
 24 31  1  0  0  0  0
 25 30  1  0  0  0  0
 27 24  1  0  0  0  0
 28 24  1  0  0  0  0
 28 25  1  0  0  0  0
 29 26  1  6  0  0  0
 30 23  1  0  0  0  0
 30 29  1  0  0  0  0
 31 29  1  0  0  0  0
M  END
>  <MODEL>
2

>  <REMARK>
 VINA RESULT:      -8.5      2.850      7.245
  Name = 
  2 active torsions:
  status: ('A' for Active; 'I' for Inactive)
    1  A    between atoms: C_5  and  C_16
    2  A    between atoms: C_10  and  C_16
                            x       y       z     vdW  Elec       q    Type
                         _______ _______ _______ _____ _____    ______ ____

>  <TORSDO>
F 2

$$$$
=
 OpenBabel11112416493D

 31 35  0  0  1  0  0  0  0  0999 V2000
  186.0330  177.9200  144.0310 C   0  0  0  0  0  0  0  0  0  0  0  0
  189.7830  177.3260  144.1730 C   0  0  2  0  0  3  0  0  0  0  0  0
  190.0510  176.6860  145.5600 C   0  0  1  0  0  3  0  0  0  0  0  0
  189.5070  175.0600  147.3620 C   0  0  0  0  0  0  0  0  0  0  0  0
  188.3440  177.2490  143.7270 C   0  0  0  0  0  0  0  0  0  0  0  0
  185.6420  177.0440  143.0160 C   0  0  0  0  0  3  0  0  0  0  0  0
  189.0780  175.5910  146.0160 C   0  0  0  0  0  2  0  0  0  0  0  0
  190.3110  175.4650  142.5950 C   0  0  2  0  0  3  0  0  0  0  0  0
  185.0830  178.6890  144.6890 O   0  0  0  0  0  1  0  0  0  0  0  0
  192.3610  177.0010  145.0150 O   0  0  0  0  0  0  0  0  0  0  0  0
  188.6750  174.4610  148.0900 O   0  0  0  0  0  0  0  0  0  0  0  0
  188.9510  175.5820  141.9020 C   0  0  0  0  0  2  0  0  0  0  0  0
  190.7690  176.8450  143.0880 C   0  0  2  0  0  3  0  0  0  0  0  0
  187.3800  178.0200  144.3870 C   0  0  0  0  0  3  0  0  0  0  0  0
  190.9040  175.2240  147.8260 C   0  0  0  0  0  3  0  0  0  0  0  0
  187.9470  176.3570  142.7070 C   0  0  0  0  0  0  0  0  0  0  0  0
  186.5970  176.2710  142.3520 C   0  0  0  0  0  3  0  0  0  0  0  0
  192.2330  176.8150  143.6170 C   0  0  0  0  0  2  0  0  0  0  0  0
  191.4640  176.1090  145.6130 C   0  0  1  0  0  3  0  0  0  0  0  0
  191.8310  175.7590  147.0230 C   0  0  0  0  0  3  0  0  0  0  0  0
  191.3150  174.8110  141.6530 C   0  0  0  0  0  2  0  0  0  0  0  0
  190.9380  172.5220  142.1570 O   0  0  0  0  0  0  0  0  0  0  0  0
  191.7430  173.4910  142.2100 C   0  0  0  0  0  0  0  0  0  0  0  0
  195.2340  173.5100  144.5930 N   0  0  0  0  0  0  0  0  0  0  0  0
  193.0650  172.4960  144.0750 C   0  0  0  0  0  2  0  0  0  0  0  0
  194.1010  174.7810  141.3450 O   0  0  0  0  0  1  0  0  0  0  0  0
  195.9660  174.1900  145.6460 C   0  0  0  0  0  1  0  0  0  0  0  0
  193.9140  173.1920  145.1370 C   0  0  0  0  0  2  0  0  0  0  0  0
  194.2800  173.8440  142.3640 C   0  0  2  0  0  3  0  0  0  0  0  0
  193.0010  173.3430  142.8880 N   0  0  0  0  0  0  0  0  0  0  0  0
  195.0770  174.4740  143.5040 C   0  0  0  0  0  2  0  0  0  0  0  0
  1 14  1  0  0  0  0
  1  9  1  0  0  0  0
  2  5  1  6  0  0  0
  2  3  1  0  0  0  0
  3 19  1  0  0  0  0
  3  7  1  6  0  0  0
  4 15  1  0  0  0  0
  4 11  2  0  0  0  0
  5 14  2  0  0  0  0
  6  1  2  0  0  0  0
  7  4  1  0  0  0  0
  8 21  1  6  0  0  0
  8 13  1  0  0  0  0
 10 19  1  0  0  0  0
 12  8  1  0  0  0  0
 12 16  1  0  0  0  0
 13 18  1  1  0  0  0
 13  2  1  0  0  0  0
 16  5  1  0  0  0  0
 17 16  2  0  0  0  0
 17  6  1  0  0  0  0
 18 10  1  0  0  0  0
 19 20  1  1  0  0  0
 20 15  2  0  0  0  0
 21 23  1  0  0  0  0
 22 23  2  0  0  0  0
 23 30  1  0  0  0  0
 24 28  1  0  0  0  0
 24 27  1  0  0  0  0
 25 28  1  0  0  0  0
 29 26  1  6  0  0  0
 29 30  1  0  0  0  0
 29 31  1  0  0  0  0
 30 25  1  0  0  0  0
 31 24  1  0  0  0  0
M  END
>  <MODEL>
3

>  <REMARK>
 VINA RESULT:      -8.3      2.193      4.464
  Name = 
  2 active torsions:
  status: ('A' for Active; 'I' for Inactive)
    1  A    between atoms: C_5  and  C_16
    2  A    between atoms: C_10  and  C_16
                            x       y       z     vdW  Elec       q    Type
                         _______ _______ _______ _____ _____    ______ ____

>  <TORSDO>
F 2

$$$$
=
 OpenBabel11112416493D

 31 35  0  0  1  0  0  0  0  0999 V2000
  185.4510  178.8100  146.3490 C   0  0  0  0  0  0  0  0  0  0  0  0
  188.5710  177.8170  144.4220 C   0  0  2  0  0  3  0  0  0  0  0  0
  189.3400  176.8410  145.3490 C   0  0  1  0  0  3  0  0  0  0  0  0
  189.4150  174.8960  146.8990 C   0  0  0  0  0  0  0  0  0  0  0  0
  187.1190  177.9970  144.7860 C   0  0  0  0  0  0  0  0  0  0  0  0
  184.4390  178.2470  145.5670 C   0  0  0  0  0  3  0  0  0  0  0  0
  188.5080  175.7740  146.0730 C   0  0  0  0  0  2  0  0  0  0  0  0
  187.8570  176.3430  142.5380 C   0  0  2  0  0  3  0  0  0  0  0  0
  185.1290  179.4940  147.5130 O   0  0  0  0  0  1  0  0  0  0  0  0
  191.0980  177.0360  143.7360 O   0  0  0  0  0  0  0  0  0  0  0  0
  188.9390  174.2300  147.8530 O   0  0  0  0  0  0  0  0  0  0  0  0
  186.3910  176.7610  142.6830 C   0  0  0  0  0  2  0  0  0  0  0  0
  188.7760  177.5100  142.9230 C   0  0  2  0  0  3  0  0  0  0  0  0
  186.7870  178.6840  145.9600 C   0  0  0  0  0  3  0  0  0  0  0  0
  190.8600  174.7990  146.5850 C   0  0  0  0  0  3  0  0  0  0  0  0
  186.0970  177.4210  144.0010 C   0  0  0  0  0  0  0  0  0  0  0  0
  184.7620  177.5610  144.3940 C   0  0  0  0  0  3  0  0  0  0  0  0
  190.2690  177.2050  142.6000 C   0  0  0  0  0  2  0  0  0  0  0  0
  190.4410  176.1250  144.5700 C   0  0  1  0  0  3  0  0  0  0  0  0
  191.3660  175.4120  145.5090 C   0  0  0  0  0  3  0  0  0  0  0  0
  188.1100  175.8330  141.1240 C   0  0  0  0  0  2  0  0  0  0  0  0
  188.1160  173.7310  142.2270 O   0  0  0  0  0  0  0  0  0  0  0  0
  188.3340  174.3550  141.1540 C   0  0  0  0  0  0  0  0  0  0  0  0
  190.4480  172.7180  137.8800 N   0  0  0  0  0  0  0  0  0  0  0  0
  189.8490  172.5920  140.2520 C   0  0  0  0  0  2  0  0  0  0  0  0
  187.6360  174.9910  138.4930 O   0  0  0  0  0  1  0  0  0  0  0  0
  191.5800  172.8690  136.9840 C   0  0  0  0  0  1  0  0  0  0  0  0
  190.9860  172.7200  139.2400 C   0  0  0  0  0  2  0  0  0  0  0  0
  188.4100  173.8390  138.6410 C   0  0  2  0  0  3  0  0  0  0  0  0
  188.8860  173.6640  140.0210 N   0  0  0  0  0  0  0  0  0  0  0  0
  189.6110  173.9040  137.7010 C   0  0  0  0  0  2  0  0  0  0  0  0
  1  9  1  0  0  0  0
  2  5  1  1  0  0  0
  2  3  1  0  0  0  0
  3  7  1  6  0  0  0
  4 11  2  0  0  0  0
  5 14  2  0  0  0  0
  6  1  2  0  0  0  0
  7  4  1  0  0  0  0
  8 21  1  6  0  0  0
  8 12  1  0  0  0  0
  8 13  1  0  0  0  0
 10 19  1  0  0  0  0
 12 16  1  0  0  0  0
 13 18  1  1  0  0  0
 13  2  1  0  0  0  0
 14  1  1  0  0  0  0
 15  4  1  0  0  0  0
 16 17  2  0  0  0  0
 16  5  1  0  0  0  0
 17  6  1  0  0  0  0
 18 10  1  0  0  0  0
 19  3  1  0  0  0  0
 19 20  1  1  0  0  0
 20 15  2  0  0  0  0
 21 23  1  0  0  0  0
 23 22  2  0  0  0  0
 24 28  1  0  0  0  0
 27 24  1  0  0  0  0
 28 25  1  0  0  0  0
 29 26  1  1  0  0  0
 29 30  1  0  0  0  0
 30 25  1  0  0  0  0
 30 23  1  0  0  0  0
 31 24  1  0  0  0  0
 31 29  1  0  0  0  0
M  END
>  <MODEL>
4

>  <REMARK>
 VINA RESULT:      -8.3      3.131      5.764
  Name = 
  2 active torsions:
  status: ('A' for Active; 'I' for Inactive)
    1  A    between atoms: C_5  and  C_16
    2  A    between atoms: C_10  and  C_16
                            x       y       z     vdW  Elec       q    Type
                         _______ _______ _______ _____ _____    ______ ____

>  <TORSDO>
F 2

$$$$
=
 OpenBabel11112416493D

 31 35  0  0  1  0  0  0  0  0999 V2000
  185.5570  178.4660  144.7940 C   0  0  0  0  0  0  0  0  0  0  0  0
  189.1600  177.4680  144.1210 C   0  0  2  0  0  3  0  0  0  0  0  0
  189.6350  176.7330  145.4010 C   0  0  1  0  0  3  0  0  0  0  0  0
  189.2930  175.0830  147.2300 C   0  0  0  0  0  0  0  0  0  0  0  0
  187.6610  177.5690  143.9880 C   0  0  0  0  0  0  0  0  0  0  0  0
  184.8650  177.6910  143.8610 C   0  0  0  0  0  3  0  0  0  0  0  0
  188.6590  175.7260  146.0220 C   0  0  0  0  0  2  0  0  0  0  0  0
  189.1320  175.6460  142.4150 C   0  0  2  0  0  3  0  0  0  0  0  0
  184.8600  179.2970  145.6600 O   0  0  0  0  0  1  0  0  0  0  0  0
  191.8020  176.8260  144.3880 O   0  0  0  0  0  0  0  0  0  0  0  0
  188.5660  174.5390  148.1010 O   0  0  0  0  0  0  0  0  0  0  0  0
  187.6800  175.9430  142.0290 C   0  0  0  0  0  2  0  0  0  0  0  0
  189.8380  176.9410  142.8370 C   0  0  2  0  0  3  0  0  0  0  0  0
  186.9510  178.4040  144.8580 C   0  0  0  0  0  3  0  0  0  0  0  0
  190.7660  175.0720  147.3930 C   0  0  0  0  0  3  0  0  0  0  0  0
  186.9610  176.7780  143.0500 C   0  0  0  0  0  0  0  0  0  0  0  0
  185.5660  176.8560  142.9880 C   0  0  0  0  0  3  0  0  0  0  0  0
  191.3670  176.7280  143.0440 C   0  0  0  0  0  2  0  0  0  0  0  0
  190.9520  176.0060  145.1370 C   0  0  1  0  0  3  0  0  0  0  0  0
  191.5610  175.5460  146.4260 C   0  0  0  0  0  3  0  0  0  0  0  0
  189.8360  174.9370  141.2630 C   0  0  0  0  0  2  0  0  0  0  0  0
  189.0120  172.7110  141.2600 O   0  0  0  0  0  0  0  0  0  0  0  0
  189.9620  173.4800  141.5700 C   0  0  0  0  0  0  0  0  0  0  0  0
  193.1140  172.3810  144.1640 N   0  0  0  0  0  0  0  0  0  0  0  0
  190.8730  171.9190  143.2870 C   0  0  0  0  0  2  0  0  0  0  0  0
  192.5910  174.4290  141.1670 O   0  0  0  0  0  1  0  0  0  0  0  0
  193.8300  172.6980  145.3860 C   0  0  0  0  0  1  0  0  0  0  0  0
  191.7060  172.2280  144.5300 C   0  0  0  0  0  2  0  0  0  0  0  0
  192.4890  173.3020  141.9840 C   0  0  2  0  0  3  0  0  0  0  0  0
  191.0920  172.9680  142.2970 N   0  0  0  0  0  0  0  0  0  0  0  0
  193.2500  173.5430  143.2860 C   0  0  0  0  0  2  0  0  0  0  0  0
  1 14  1  0  0  0  0
  1  9  1  0  0  0  0
  2  5  1  6  0  0  0
  2  3  1  0  0  0  0
  3  7  1  6  0  0  0
  4 15  1  0  0  0  0
  4 11  2  0  0  0  0
  5 14  2  0  0  0  0
  6  1  2  0  0  0  0
  7  4  1  0  0  0  0
  8 21  1  6  0  0  0
  8 13  1  0  0  0  0
 10 19  1  0  0  0  0
 12  8  1  0  0  0  0
 12 16  1  0  0  0  0
 13 18  1  1  0  0  0
 13  2  1  0  0  0  0
 16  5  1  0  0  0  0
 17 16  2  0  0  0  0
 17  6  1  0  0  0  0
 18 10  1  0  0  0  0
 19  3  1  0  0  0  0
 19 20  1  1  0  0  0
 20 15  2  0  0  0  0
 21 23  1  0  0  0  0
 22 23  2  0  0  0  0
 23 30  1  0  0  0  0
 24 28  1  0  0  0  0
 24 27  1  0  0  0  0
 25 28  1  0  0  0  0
 29 26  1  6  0  0  0
 29 30  1  0  0  0  0
 29 31  1  0  0  0  0
 30 25  1  0  0  0  0
 31 24  1  0  0  0  0
M  END
>  <MODEL>
5

>  <REMARK>
 VINA RESULT:      -8.2      2.428      4.606
  Name = 
  2 active torsions:
  status: ('A' for Active; 'I' for Inactive)
    1  A    between atoms: C_5  and  C_16
    2  A    between atoms: C_10  and  C_16
                            x       y       z     vdW  Elec       q    Type
                         _______ _______ _______ _____ _____    ______ ____

>  <TORSDO>
F 2

$$$$
=
 OpenBabel11112416493D

 31 35  0  0  1  0  0  0  0  0999 V2000
  185.8580  178.4020  144.4860 C   0  0  0  0  0  0  0  0  0  0  0  0
  189.4500  177.2560  144.0150 C   0  0  2  0  0  3  0  0  0  0  0  0
  189.8430  176.5610  145.3440 C   0  0  1  0  0  3  0  0  0  0  0  0
  189.3650  175.0050  147.2240 C   0  0  0  0  0  0  0  0  0  0  0  0
  187.9620  177.4010  143.8120 C   0  0  0  0  0  0  0  0  0  0  0  0
  185.1800  177.6110  143.5560 C   0  0  0  0  0  3  0  0  0  0  0  0
  188.8060  175.6150  145.9630 C   0  0  0  0  0  2  0  0  0  0  0  0
  189.4290  175.3630  142.3870 C   0  0  2  0  0  3  0  0  0  0  0  0
  185.1540  179.2930  145.2840 O   0  0  0  0  0  1  0  0  0  0  0  0
  192.0530  176.5380  144.4250 O   0  0  0  0  0  0  0  0  0  0  0  0
  188.5830  174.5240  148.0840 O   0  0  0  0  0  0  0  0  0  0  0  0
  188.0070  175.6920  141.9250 C   0  0  0  0  0  2  0  0  0  0  0  0
  190.1620  176.6520  142.7860 C   0  0  2  0  0  3  0  0  0  0  0  0
  187.2450  178.2960  144.6140 C   0  0  0  0  0  3  0  0  0  0  0  0
  190.8280  174.9520  147.4520 C   0  0  0  0  0  3  0  0  0  0  0  0
  187.2750  176.5940  142.8780 C   0  0  0  0  0  0  0  0  0  0  0  0
  185.8880  176.7160  142.7510 C   0  0  0  0  0  3  0  0  0  0  0  0
  191.6720  176.3970  143.0680 C   0  0  0  0  0  2  0  0  0  0  0  0
  191.1430  175.7800  145.1690 C   0  0  1  0  0  3  0  0  0  0  0  0
  191.6800  175.3560  146.5020 C   0  0  0  0  0  3  0  0  0  0  0  0
  190.1570  174.5830  141.2980 C   0  0  0  0  0  2  0  0  0  0  0  0
  189.9560  172.6690  142.6890 O   0  0  0  0  0  0  0  0  0  0  0  0
  189.9570  173.1170  141.5110 C   0  0  0  0  0  0  0  0  0  0  0  0
  190.2800  170.6700  138.0780 N   0  0  0  0  0  0  0  0  0  0  0  0
  190.5190  170.9050  140.5050 C   0  0  0  0  0  2  0  0  0  0  0  0
  188.5970  173.7580  139.1210 O   0  0  0  0  0  1  0  0  0  0  0  0
  191.0310  170.3910  136.8680 C   0  0  0  0  0  1  0  0  0  0  0  0
  191.2290  170.5930  139.1880 C   0  0  0  0  0  2  0  0  0  0  0  0
  189.0220  172.4320  139.2200 C   0  0  2  0  0  3  0  0  0  0  0  0
  189.8730  172.2090  140.3990 N   0  0  0  0  0  0  0  0  0  0  0  0
  189.7970  172.0460  137.9630 C   0  0  0  0  0  2  0  0  0  0  0  0
  1 14  1  0  0  0  0
  1  9  1  0  0  0  0
  2  5  1  6  0  0  0
  2  3  1  0  0  0  0
  3  7  1  6  0  0  0
  4 15  1  0  0  0  0
  4 11  2  0  0  0  0
  5 14  2  0  0  0  0
  6  1  2  0  0  0  0
  7  4  1  0  0  0  0
  8 21  1  6  0  0  0
  8 13  1  0  0  0  0
 10 19  1  0  0  0  0
 12  8  1  0  0  0  0
 12 16  1  0  0  0  0
 13 18  1  1  0  0  0
 13  2  1  0  0  0  0
 16  5  1  0  0  0  0
 17 16  2  0  0  0  0
 17  6  1  0  0  0  0
 18 10  1  0  0  0  0
 19  3  1  0  0  0  0
 19 20  1  1  0  0  0
 20 15  2  0  0  0  0
 21 23  1  0  0  0  0
 23 22  2  0  0  0  0
 24 28  1  0  0  0  0
 27 24  1  0  0  0  0
 28 25  1  0  0  0  0
 29 26  1  6  0  0  0
 29 30  1  0  0  0  0
 30 25  1  0  0  0  0
 30 23  1  0  0  0  0
 31 24  1  0  0  0  0
 31 29  1  0  0  0  0
M  END
>  <MODEL>
6

>  <REMARK>
 VINA RESULT:      -7.9      3.562      6.019
  Name = 
  2 active torsions:
  status: ('A' for Active; 'I' for Inactive)
    1  A    between atoms: C_5  and  C_16
    2  A    between atoms: C_10  and  C_16
                            x       y       z     vdW  Elec       q    Type
                         _______ _______ _______ _____ _____    ______ ____

>  <TORSDO>
F 2

$$$$
=
 OpenBabel11112416493D

 31 35  0  0  1  0  0  0  0  0999 V2000
  196.8290  170.8920  145.4660 C   0  0  0  0  0  0  0  0  0  0  0  0
  196.0460  174.5860  145.0430 C   0  0  2  0  0  3  0  0  0  0  0  0
  196.3720  174.9140  143.5640 C   0  0  1  0  0  3  0  0  0  0  0  0
  196.2730  174.3940  141.1330 C   0  0  0  0  0  0  0  0  0  0  0  0
  195.8670  173.1140  145.3230 C   0  0  0  0  0  0  0  0  0  0  0  0
  195.5620  170.3560  145.7110 C   0  0  0  0  0  3  0  0  0  0  0  0
  195.9050  173.9010  142.5110 C   0  0  0  0  0  2  0  0  0  0  0  0
  193.5640  174.8450  145.1320 C   0  0  2  0  0  3  0  0  0  0  0  0
  197.9370  170.0580  145.4140 O   0  0  0  0  0  1  0  0  0  0  0  0
  196.0310  177.1910  144.2210 O   0  0  0  0  0  0  0  0  0  0  0  0
  196.3450  173.5790  140.1780 O   0  0  0  0  0  0  0  0  0  0  0  0
  193.3760  173.4470  145.7270 C   0  0  0  0  0  2  0  0  0  0  0  0
  194.8940  175.4440  145.6100 C   0  0  2  0  0  3  0  0  0  0  0  0
  196.9800  172.2670  145.2710 C   0  0  0  0  0  3  0  0  0  0  0  0
  196.5360  175.8320  140.8920 C   0  0  0  0  0  3  0  0  0  0  0  0
  194.5860  172.5710  145.5620 C   0  0  0  0  0  0  0  0  0  0  0  0
  194.4470  171.1950  145.7660 C   0  0  0  0  0  3  0  0  0  0  0  0
  195.0390  176.9390  145.1990 C   0  0  0  0  0  2  0  0  0  0  0  0
  195.8020  176.2790  143.1850 C   0  0  1  0  0  3  0  0  0  0  0  0
  196.3570  176.7300  141.8690 C   0  0  0  0  0  3  0  0  0  0  0  0
  192.3640  175.7190  145.4790 C   0  0  0  0  0  2  0  0  0  0  0  0
  191.7080  175.4210  143.2180 O   0  0  0  0  0  0  0  0  0  0  0  0
  191.3310  175.6050  144.4060 C   0  0  0  0  0  0  0  0  0  0  0  0
  187.4040  176.7630  145.4620 N   0  0  0  0  0  0  0  0  0  0  0  0
  189.1160  176.5250  143.7250 C   0  0  0  0  0  2  0  0  0  0  0  0
  190.1130  174.6660  146.7740 O   0  0  0  0  0  1  0  0  0  0  0  0
  186.5840  177.7460  146.1450 C   0  0  0  0  0  1  0  0  0  0  0  0
  188.1980  177.4910  144.4720 C   0  0  0  0  0  2  0  0  0  0  0  0
  189.2310  175.1730  145.8180 C   0  0  2  0  0  3  0  0  0  0  0  0
  189.9360  175.8040  144.6930 N   0  0  0  0  0  0  0  0  0  0  0  0
  188.3040  176.1980  146.4670 C   0  0  0  0  0  2  0  0  0  0  0  0
  1  6  1  0  0  0  0
  2  5  1  6  0  0  0
  2 13  1  0  0  0  0
  3  7  1  6  0  0  0
  3  2  1  0  0  0  0
  4  7  1  0  0  0  0
  5 16  2  0  0  0  0
  6 17  2  0  0  0  0
  8 21  1  1  0  0  0
  8 13  1  0  0  0  0
  8 12  1  0  0  0  0
  9  1  1  0  0  0  0
 10 18  1  0  0  0  0
 11  4  2  0  0  0  0
 13 18  1  6  0  0  0
 14  5  1  0  0  0  0
 14  1  2  0  0  0  0
 15  4  1  0  0  0  0
 15 20  2  0  0  0  0
 16 12  1  0  0  0  0
 16 17  1  0  0  0  0
 19 20  1  6  0  0  0
 19  3  1  0  0  0  0
 19 10  1  0  0  0  0
 22 23  2  0  0  0  0
 23 30  1  0  0  0  0
 23 21  1  0  0  0  0
 24 27  1  0  0  0  0
 24 31  1  0  0  0  0
 25 28  1  0  0  0  0
 25 30  1  0  0  0  0
 28 24  1  0  0  0  0
 29 31  1  0  0  0  0
 29 26  1  1  0  0  0
 30 29  1  0  0  0  0
M  END
>  <MODEL>
7

>  <REMARK>
 VINA RESULT:      -7.8      3.149      8.558
  Name = 
  2 active torsions:
  status: ('A' for Active; 'I' for Inactive)
    1  A    between atoms: C_5  and  C_16
    2  A    between atoms: C_10  and  C_16
                            x       y       z     vdW  Elec       q    Type
                         _______ _______ _______ _____ _____    ______ ____

>  <TORSDO>
F 2

$$$$
=
 OpenBabel11112416493D

 31 35  0  0  1  0  0  0  0  0999 V2000
  186.3510  178.2740  147.5590 C   0  0  0  0  0  0  0  0  0  0  0  0
  188.4460  175.5470  145.9450 C   0  0  2  0  0  3  0  0  0  0  0  0
  188.3060  175.7630  144.4160 C   0  0  1  0  0  3  0  0  0  0  0  0
  188.2760  177.2290  142.4070 C   0  0  0  0  0  0  0  0  0  0  0  0
  188.0650  176.7470  146.7750 C   0  0  0  0  0  0  0  0  0  0  0  0
  187.3250  179.0420  148.2010 C   0  0  0  0  0  3  0  0  0  0  0  0
  188.3980  177.2090  143.9110 C   0  0  0  0  0  2  0  0  0  0  0  0
  190.8470  176.0950  146.3610 C   0  0  2  0  0  3  0  0  0  0  0  0
  185.0160  178.6470  147.6270 O   0  0  0  0  0  1  0  0  0  0  0  0
  189.4400  173.6630  144.2350 O   0  0  0  0  0  0  0  0  0  0  0  0
  187.9370  178.2910  141.8240 O   0  0  0  0  0  0  0  0  0  0  0  0
  190.4920  177.1070  147.4540 C   0  0  0  0  0  2  0  0  0  0  0  0
  189.8160  174.9570  146.3460 C   0  0  2  0  0  3  0  0  0  0  0  0
  186.7210  177.1310  146.8470 C   0  0  0  0  0  3  0  0  0  0  0  0
  188.5660  176.0150  141.6100 C   0  0  0  0  0  3  0  0  0  0  0  0
  189.0500  177.5290  147.4170 C   0  0  0  0  0  0  0  0  0  0  0  0
  188.6680  178.6660  148.1350 C   0  0  0  0  0  3  0  0  0  0  0  0
  190.2420  173.8010  145.3930 C   0  0  0  0  0  2  0  0  0  0  0  0
  189.3480  174.9370  143.6660 C   0  0  1  0  0  3  0  0  0  0  0  0
  189.0340  174.9080  142.2010 C   0  0  0  0  0  3  0  0  0  0  0  0
  192.2730  175.5970  146.5640 C   0  0  0  0  0  2  0  0  0  0  0  0
  193.5660  177.2970  145.5280 O   0  0  0  0  0  0  0  0  0  0  0  0
  193.1460  176.1100  145.4650 C   0  0  0  0  0  0  0  0  0  0  0  0
  193.3340  173.7430  141.9670 N   0  0  0  0  0  0  0  0  0  0  0  0
  193.4660  175.9630  142.9960 C   0  0  0  0  0  2  0  0  0  0  0  0
  193.6060  173.3270  145.6010 O   0  0  0  0  0  1  0  0  0  0  0  0
  192.5810  172.9640  141.0020 C   0  0  0  0  0  1  0  0  0  0  0  0
  192.7440  175.0820  141.9780 C   0  0  0  0  0  2  0  0  0  0  0  0
  193.8500  173.9060  144.3540 C   0  0  2  0  0  3  0  0  0  0  0  0
  193.4240  175.3120  144.3020 N   0  0  0  0  0  0  0  0  0  0  0  0
  193.1160  173.1190  143.2710 C   0  0  0  0  0  2  0  0  0  0  0  0
  1  9  1  0  0  0  0
  1  6  1  0  0  0  0
  2 13  1  0  0  0  0
  2  5  1  1  0  0  0
  3  7  1  1  0  0  0
  3  2  1  0  0  0  0
  4  7  1  0  0  0  0
  5 14  1  0  0  0  0
  5 16  2  0  0  0  0
  8 21  1  1  0  0  0
  8 12  1  0  0  0  0
 10 18  1  0  0  0  0
 11  4  2  0  0  0  0
 13 18  1  6  0  0  0
 13  8  1  0  0  0  0
 14  1  2  0  0  0  0
 15 20  2  0  0  0  0
 15  4  1  0  0  0  0
 16 12  1  0  0  0  0
 16 17  1  0  0  0  0
 17  6  2  0  0  0  0
 19 20  1  6  0  0  0
 19 10  1  0  0  0  0
 19  3  1  0  0  0  0
 23 22  2  0  0  0  0
 23 21  1  0  0  0  0
 24 28  1  0  0  0  0
 24 31  1  0  0  0  0
 25 30  1  0  0  0  0
 27 24  1  0  0  0  0
 28 25  1  0  0  0  0
 29 26  1  1  0  0  0
 30 29  1  0  0  0  0
 30 23  1  0  0  0  0
 31 29  1  0  0  0  0
M  END
>  <MODEL>
8

>  <REMARK>
 VINA RESULT:      -7.7      1.671      2.083
  Name = 
  2 active torsions:
  status: ('A' for Active; 'I' for Inactive)
    1  A    between atoms: C_5  and  C_16
    2  A    between atoms: C_10  and  C_16
                            x       y       z     vdW  Elec       q    Type
                         _______ _______ _______ _____ _____    ______ ____

>  <TORSDO>
F 2

$$$$
=
 OpenBabel11112416493D

 31 35  0  0  1  0  0  0  0  0999 V2000
  185.3650  177.7180  142.7610 C   0  0  0  0  0  0  0  0  0  0  0  0
  187.9940  175.1270  143.6610 C   0  0  2  0  0  3  0  0  0  0  0  0
  188.2300  174.3050  142.3680 C   0  0  1  0  0  3  0  0  0  0  0  0
  188.6030  174.1470  139.9130 C   0  0  0  0  0  0  0  0  0  0  0  0
  187.3280  176.4610  143.4320 C   0  0  0  0  0  0  0  0  0  0  0  0
  186.0860  178.9090  142.8720 C   0  0  0  0  0  3  0  0  0  0  0  0
  188.3420  175.0960  141.0570 C   0  0  0  0  0  2  0  0  0  0  0  0
  190.1640  176.3270  143.9560 C   0  0  2  0  0  3  0  0  0  0  0  0
  184.0330  177.7450  142.3730 O   0  0  0  0  0  1  0  0  0  0  0  0
  189.5230  172.8660  143.7770 O   0  0  0  0  0  0  0  0  0  0  0  0
  188.3460  174.5050  138.7350 O   0  0  0  0  0  0  0  0  0  0  0  0
  189.4710  177.6890  144.0480 C   0  0  0  0  0  2  0  0  0  0  0  0
  189.2570  175.2360  144.5430 C   0  0  2  0  0  3  0  0  0  0  0  0
  185.9850  176.4970  143.0380 C   0  0  0  0  0  3  0  0  0  0  0  0
  189.1740  172.8030  140.1640 C   0  0  0  0  0  3  0  0  0  0  0  0
  188.0590  177.6650  143.5350 C   0  0  0  0  0  0  0  0  0  0  0  0
  187.4260  178.8810  143.2640 C   0  0  0  0  0  3  0  0  0  0  0  0
  189.9930  173.8690  144.6590 C   0  0  0  0  0  2  0  0  0  0  0  0
  189.4860  173.4480  142.5050 C   0  0  1  0  0  3  0  0  0  0  0  0
  189.5560  172.4440  141.3950 C   0  0  0  0  0  3  0  0  0  0  0  0
  191.5250  176.3930  144.6390 C   0  0  0  0  0  2  0  0  0  0  0  0
  192.3310  176.2880  142.4090 O   0  0  0  0  0  0  0  0  0  0  0  0
  192.6060  176.1630  143.6330 C   0  0  0  0  0  0  0  0  0  0  0  0
  196.1330  174.3250  145.0650 N   0  0  0  0  0  0  0  0  0  0  0  0
  194.5950  174.7230  143.2000 C   0  0  0  0  0  2  0  0  0  0  0  0
  193.8920  177.0830  145.9720 O   0  0  0  0  0  1  0  0  0  0  0  0
  196.6870  173.2730  145.8970 C   0  0  0  0  0  1  0  0  0  0  0  0
  195.2450  173.6750  144.1020 C   0  0  0  0  0  2  0  0  0  0  0  0
  194.6840  176.2960  145.1340 C   0  0  2  0  0  3  0  0  0  0  0  0
  193.9090  175.7060  144.0330 N   0  0  0  0  0  0  0  0  0  0  0  0
  195.3340  175.1780  145.9440 C   0  0  0  0  0  2  0  0  0  0  0  0
  1  6  2  0  0  0  0
  1 14  1  0  0  0  0
  2  5  1  6  0  0  0
  2 13  1  0  0  0  0
  3  7  1  6  0  0  0
  3 19  1  0  0  0  0
  3  2  1  0  0  0  0
  4 15  1  0  0  0  0
  4  7  1  0  0  0  0
  5 16  1  0  0  0  0
  6 17  1  0  0  0  0
  8 12  1  0  0  0  0
  8 13  1  0  0  0  0
  8 21  1  1  0  0  0
  9  1  1  0  0  0  0
 10 18  1  0  0  0  0
 11  4  2  0  0  0  0
 13 18  1  6  0  0  0
 14  5  2  0  0  0  0
 15 20  2  0  0  0  0
 16 12  1  0  0  0  0
 17 16  2  0  0  0  0
 19 20  1  6  0  0  0
 19 10  1  0  0  0  0
 22 23  2  0  0  0  0
 23 30  1  0  0  0  0
 23 21  1  0  0  0  0
 24 27  1  0  0  0  0
 24 31  1  0  0  0  0
 25 30  1  0  0  0  0
 25 28  1  0  0  0  0
 28 24  1  0  0  0  0
 29 31  1  0  0  0  0
 29 26  1  1  0  0  0
 30 29  1  0  0  0  0
M  END
>  <MODEL>
9

>  <REMARK>
 VINA RESULT:      -7.7      2.253      2.743
  Name = 
  2 active torsions:
  status: ('A' for Active; 'I' for Inactive)
    1  A    between atoms: C_5  and  C_16
    2  A    between atoms: C_10  and  C_16
                            x       y       z     vdW  Elec       q    Type
                         _______ _______ _______ _____ _____    ______ ____

>  <TORSDO>
F 2

$$$$
