=
 OpenBabel11112416173D

 30 35  0  0  1  0  0  0  0  0999 V2000
  187.9940  177.3090  145.5550 C   0  0  1  0  0  3  0  0  0  0  0  0
  185.9810  177.9910  146.7950 C   0  0  0  0  0  0  0  0  0  0  0  0
  186.0750  178.2150  141.9060 N   0  0  0  0  0  0  0  0  0  0  0  0
  188.8020  177.3420  144.2680 C   0  0  1  0  0  3  0  0  0  0  0  0
  188.6740  176.7660  146.7830 C   0  0  0  0  0  2  0  0  0  0  0  0
  192.2270  176.3150  145.3270 C   0  0  0  0  0  1  0  0  0  0  0  0
  188.6300  174.6360  142.8130 C   0  0  1  0  0  3  0  0  0  0  0  0
  190.7320  176.0660  145.4980 C   0  0  1  0  0  3  0  0  0  0  0  0
  187.9580  175.4200  141.6940 C   0  0  2  0  0  3  0  0  0  0  0  0
  187.0160  177.5920  141.0330 C   0  0  0  0  0  0  0  0  0  0  0  0
  190.1930  176.8660  146.6910 C   0  0  2  0  0  3  0  0  0  0  0  0
  190.0230  176.3890  144.1750 C   0  0  1  0  0  3  0  0  0  0  0  0
  184.6990  178.5470  146.7780 C   0  0  0  0  0  3  0  0  0  0  0  0
  188.3650  174.8780  140.4690 O   0  0  0  0  0  0  0  0  0  0  0  0
  188.7800  173.2740  142.1930 C   0  0  0  0  0  2  0  0  0  0  0  0
  186.4930  177.6230  148.0360 O   0  0  0  0  0  1  0  0  0  0  0  0
  186.6730  178.0240  143.1820 C   0  0  0  0  0  0  0  0  0  0  0  0
  184.1060  178.9440  145.5850 C   0  0  0  0  0  3  0  0  0  0  0  0
  186.7210  177.8330  145.5840 C   0  0  0  0  0  0  0  0  0  0  0  0
  187.9250  177.3790  143.1090 N   0  0  0  0  0  0  0  0  0  0  0  0
  186.8720  177.5810  139.7840 O   0  0  0  0  0  0  0  0  0  0  0  0
  188.1610  176.9360  141.7470 C   0  0  1  0  0  3  0  0  0  0  0  0
  188.4910  173.4980  140.7160 C   0  0  0  0  0  2  0  0  0  0  0  0
  190.9910  175.3740  142.0810 C   0  0  0  0  0  1  0  0  0  0  0  0
  184.7880  178.7830  144.3840 C   0  0  0  0  0  3  0  0  0  0  0  0
  186.0770  178.2350  144.3610 C   0  0  0  0  0  0  0  0  0  0  0  0
  190.0120  175.1700  143.2350 C   0  0  2  0  0  3  0  0  0  0  0  0
  190.8320  176.4320  148.0130 C   0  0  0  0  0  2  0  0  0  0  0  0
  190.6820  178.5270  149.1430 O   0  0  0  0  0  1  0  0  0  0  0  0
  191.5870  177.5630  148.6970 C   0  0  0  0  0  2  0  0  0  0  0  0
  1 19  1  0  0  0  0
  1  5  1  1  0  0  0
  2 16  1  0  0  0  0
  3 17  2  0  0  0  0
  4 20  1  6  0  0  0
  4  1  1  0  0  0  0
  7 15  1  6  0  0  0
  7 27  1  0  0  0  0
  8  6  1  6  0  0  0
  8 11  1  0  0  0  0
  9 14  1  6  0  0  0
  9 22  1  0  0  0  0
  9  7  1  0  0  0  0
 10 22  1  0  0  0  0
 10  3  1  0  0  0  0
 11  5  1  0  0  0  0
 11 28  1  1  0  0  0
 12  4  1  0  0  0  0
 12  8  1  0  0  0  0
 13  2  1  0  0  0  0
 14 23  1  0  0  0  0
 17 26  1  0  0  0  0
 18 13  2  0  0  0  0
 19  2  2  0  0  0  0
 20 17  1  0  0  0  0
 21 10  2  0  0  0  0
 22 20  1  0  0  0  0
 23 15  1  0  0  0  0
 24 27  1  0  0  0  0
 25 18  1  0  0  0  0
 26 25  2  0  0  0  0
 26 19  1  0  0  0  0
 27 12  1  0  0  0  0
 28 30  1  0  0  0  0
 30 29  1  0  0  0  0
M  END
>  <MODEL>
1

>  <REMARK>
 VINA RESULT:      -9.4      0.000      0.000
  Name = 
  2 active torsions:
  status: ('A' for Active; 'I' for Inactive)
    1  A    between atoms: C_11  and  C_28
    2  A    between atoms: C_28  and  C_30
                            x       y       z     vdW  Elec       q    Type
                         _______ _______ _______ _____ _____    ______ ____

>  <TORSDO>
F 2

$$$$
=
 OpenBabel11112416173D

 30 35  0  0  1  0  0  0  0  0999 V2000
  186.3740  177.3840  143.8670 C   0  0  1  0  0  3  0  0  0  0  0  0
  184.7220  178.6410  145.1880 C   0  0  0  0  0  0  0  0  0  0  0  0
  188.1240  175.9160  147.4180 N   0  0  0  0  0  0  0  0  0  0  0  0
  187.4020  176.2660  143.7930 C   0  0  1  0  0  3  0  0  0  0  0  0
  185.9510  178.0180  142.5700 C   0  0  0  0  0  2  0  0  0  0  0  0
  187.8300  175.6730  140.1360 C   0  0  0  0  0  1  0  0  0  0  0  0
  190.2550  177.4190  143.7620 C   0  0  1  0  0  3  0  0  0  0  0  0
  187.6550  176.7260  141.2260 C   0  0  1  0  0  3  0  0  0  0  0  0
  190.4370  176.6750  145.0780 C   0  0  2  0  0  3  0  0  0  0  0  0
  189.3130  175.3810  146.8400 C   0  0  0  0  0  0  0  0  0  0  0  0
  186.1730  177.0930  141.3780 C   0  0  2  0  0  3  0  0  0  0  0  0
  188.2910  176.2050  142.5230 C   0  0  1  0  0  3  0  0  0  0  0  0
  184.1720  178.9430  146.4360 C   0  0  0  0  0  3  0  0  0  0  0  0
  191.7490  176.1890  145.1320 O   0  0  0  0  0  0  0  0  0  0  0  0
  191.6430  177.9320  143.4990 C   0  0  0  0  0  2  0  0  0  0  0  0
  184.1470  179.2540  144.0780 O   0  0  0  0  0  1  0  0  0  0  0  0
  187.4160  176.3840  146.2760 C   0  0  0  0  0  0  0  0  0  0  0  0
  184.6810  178.3780  147.6000 C   0  0  0  0  0  3  0  0  0  0  0  0
  185.8140  177.7260  145.0770 C   0  0  0  0  0  0  0  0  0  0  0  0
  188.0870  176.1110  145.0670 N   0  0  0  0  0  0  0  0  0  0  0  0
  190.2030  174.8210  147.5290 O   0  0  0  0  0  0  0  0  0  0  0  0
  189.4070  175.5780  145.3560 C   0  0  1  0  0  3  0  0  0  0  0  0
  192.5190  177.1740  144.4850 C   0  0  0  0  0  2  0  0  0  0  0  0
  190.6330  175.2880  142.3610 C   0  0  0  0  0  1  0  0  0  0  0  0
  185.7580  177.5020  147.5310 C   0  0  0  0  0  3  0  0  0  0  0  0
  186.3330  177.1690  146.2980 C   0  0  0  0  0  0  0  0  0  0  0  0
  189.7920  176.5420  142.5840 C   0  0  2  0  0  3  0  0  0  0  0  0
  185.6030  177.7260  140.1050 C   0  0  0  0  0  2  0  0  0  0  0  0
  183.2190  177.7920  140.0380 O   0  0  0  0  0  1  0  0  0  0  0  0
  184.3460  178.5440  140.3710 C   0  0  0  0  0  2  0  0  0  0  0  0
  1  5  1  6  0  0  0
  1 19  1  0  0  0  0
  2 13  1  0  0  0  0
  4  1  1  0  0  0  0
  4 20  1  1  0  0  0
  7 15  1  6  0  0  0
  7  9  1  0  0  0  0
  8  6  1  6  0  0  0
  8 11  1  0  0  0  0
  8 12  1  0  0  0  0
  9 14  1  6  0  0  0
  9 22  1  0  0  0  0
 10  3  1  0  0  0  0
 10 21  2  0  0  0  0
 11 28  1  6  0  0  0
 11  5  1  0  0  0  0
 12 27  1  0  0  0  0
 12  4  1  0  0  0  0
 13 18  2  0  0  0  0
 15 23  1  0  0  0  0
 16  2  1  0  0  0  0
 17 26  1  0  0  0  0
 17  3  2  0  0  0  0
 19  2  2  0  0  0  0
 19 26  1  0  0  0  0
 20 22  1  0  0  0  0
 20 17  1  0  0  0  0
 22 10  1  0  0  0  0
 23 14  1  0  0  0  0
 24 27  1  0  0  0  0
 25 18  1  0  0  0  0
 26 25  2  0  0  0  0
 27  7  1  0  0  0  0
 28 30  1  0  0  0  0
 29 30  1  0  0  0  0
M  END
>  <MODEL>
2

>  <REMARK>
 VINA RESULT:      -9.0      2.356      5.498
  Name = 
  2 active torsions:
  status: ('A' for Active; 'I' for Inactive)
    1  A    between atoms: C_11  and  C_28
    2  A    between atoms: C_28  and  C_30
                            x       y       z     vdW  Elec       q    Type
                         _______ _______ _______ _____ _____    ______ ____

>  <TORSDO>
F 2

$$$$
=
 OpenBabel11112416173D

 30 35  0  0  1  0  0  0  0  0999 V2000
  188.5130  176.9980  145.5710 C   0  0  1  0  0  3  0  0  0  0  0  0
  186.4240  177.9520  146.4550 C   0  0  0  0  0  0  0  0  0  0  0  0
  186.8220  176.8310  141.7070 N   0  0  0  0  0  0  0  0  0  0  0  0
  189.3990  176.6940  144.3740 C   0  0  1  0  0  3  0  0  0  0  0  0
  189.1170  176.8260  146.9380 C   0  0  0  0  0  2  0  0  0  0  0  0
  192.7560  176.0660  145.8740 C   0  0  0  0  0  1  0  0  0  0  0  0
  189.3280  173.6900  143.7100 C   0  0  1  0  0  3  0  0  0  0  0  0
  191.2530  175.8420  146.0190 C   0  0  1  0  0  3  0  0  0  0  0  0
  188.7240  174.1240  142.3810 C   0  0  2  0  0  3  0  0  0  0  0  0
  187.8180  176.0130  141.0950 C   0  0  0  0  0  0  0  0  0  0  0  0
  190.6380  176.9270  146.9120 C   0  0  2  0  0  3  0  0  0  0  0  0
  190.6270  175.7760  144.6180 C   0  0  1  0  0  3  0  0  0  0  0  0
  185.1440  178.4560  146.2110 C   0  0  0  0  0  3  0  0  0  0  0  0
  189.2080  173.2750  141.3780 O   0  0  0  0  0  0  0  0  0  0  0  0
  189.5200  172.2140  143.4980 C   0  0  0  0  0  2  0  0  0  0  0  0
  186.8590  177.9480  147.7780 O   0  0  0  0  0  1  0  0  0  0  0  0
  187.3400  177.0090  143.0190 C   0  0  0  0  0  0  0  0  0  0  0  0
  184.6250  178.5000  144.9210 C   0  0  0  0  0  3  0  0  0  0  0  0
  187.2390  177.4840  145.3800 C   0  0  0  0  0  0  0  0  0  0  0  0
  188.5960  176.3940  143.2000 N   0  0  0  0  0  0  0  0  0  0  0  0
  187.7510  175.6580  139.8910 O   0  0  0  0  0  0  0  0  0  0  0  0
  188.9180  175.6000  142.0280 C   0  0  1  0  0  3  0  0  0  0  0  0
  189.3230  172.0190  142.0020 C   0  0  0  0  0  2  0  0  0  0  0  0
  191.7260  174.2470  142.9440 C   0  0  0  0  0  1  0  0  0  0  0  0
  185.3810  178.0300  143.8540 C   0  0  0  0  0  3  0  0  0  0  0  0
  186.6710  177.5230  144.0570 C   0  0  0  0  0  0  0  0  0  0  0  0
  190.6780  174.3470  144.0500 C   0  0  2  0  0  3  0  0  0  0  0  0
  191.1950  176.8840  148.3380 C   0  0  0  0  0  2  0  0  0  0  0  0
  191.5670  178.1030  150.3540 O   0  0  0  0  0  1  0  0  0  0  0  0
  191.0570  178.2180  149.0610 C   0  0  0  0  0  2  0  0  0  0  0  0
  1  5  1  1  0  0  0
  2 16  1  0  0  0  0
  3 17  2  0  0  0  0
  4 20  1  6  0  0  0
  4 12  1  0  0  0  0
  4  1  1  0  0  0  0
  7 15  1  6  0  0  0
  7 27  1  0  0  0  0
  8  6  1  6  0  0  0
  8 11  1  0  0  0  0
  9 14  1  6  0  0  0
  9  7  1  0  0  0  0
 10  3  1  0  0  0  0
 10 22  1  0  0  0  0
 11  5  1  0  0  0  0
 11 28  1  1  0  0  0
 12  8  1  0  0  0  0
 13  2  1  0  0  0  0
 14 23  1  0  0  0  0
 17 20  1  0  0  0  0
 17 26  1  0  0  0  0
 18 13  2  0  0  0  0
 19  1  1  0  0  0  0
 19  2  2  0  0  0  0
 21 10  2  0  0  0  0
 22  9  1  0  0  0  0
 22 20  1  0  0  0  0
 23 15  1  0  0  0  0
 24 27  1  0  0  0  0
 25 26  2  0  0  0  0
 25 18  1  0  0  0  0
 26 19  1  0  0  0  0
 27 12  1  0  0  0  0
 28 30  1  0  0  0  0
 30 29  1  0  0  0  0
M  END
>  <MODEL>
3

>  <REMARK>
 VINA RESULT:      -8.4      1.093      1.277
  Name = 
  2 active torsions:
  status: ('A' for Active; 'I' for Inactive)
    1  A    between atoms: C_11  and  C_28
    2  A    between atoms: C_28  and  C_30
                            x       y       z     vdW  Elec       q    Type
                         _______ _______ _______ _____ _____    ______ ____

>  <TORSDO>
F 2

$$$$
=
 OpenBabel11112416173D

 30 35  0  0  1  0  0  0  0  0999 V2000
  188.2340  175.6760  143.4400 C   0  0  1  0  0  3  0  0  0  0  0  0
  186.4420  177.3240  143.0850 C   0  0  0  0  0  0  0  0  0  0  0  0
  189.2120  177.5050  147.1170 N   0  0  0  0  0  0  0  0  0  0  0  0
  189.1920  174.9810  144.3960 C   0  0  1  0  0  3  0  0  0  0  0  0
  188.0950  175.0940  142.0600 C   0  0  0  0  0  2  0  0  0  0  0  0
  190.2520  171.9220  142.5440 C   0  0  0  0  0  1  0  0  0  0  0  0
  192.0630  176.0110  143.9870 C   0  0  1  0  0  3  0  0  0  0  0  0
  189.9400  173.4120  142.4350 C   0  0  1  0  0  3  0  0  0  0  0  0
  191.9570  176.5090  145.4220 C   0  0  2  0  0  3  0  0  0  0  0  0
  190.4550  176.8410  147.3400 C   0  0  0  0  0  0  0  0  0  0  0  0
  188.4800  173.6190  142.0150 C   0  0  2  0  0  3  0  0  0  0  0  0
  190.2950  174.0900  143.7660 C   0  0  1  0  0  3  0  0  0  0  0  0
  185.6900  178.3940  143.5760 C   0  0  0  0  0  3  0  0  0  0  0  0
  193.2060  176.3570  146.0360 O   0  0  0  0  0  0  0  0  0  0  0  0
  193.5040  176.2960  143.6640 C   0  0  0  0  0  2  0  0  0  0  0  0
  186.1180  176.8530  141.8160 O   0  0  0  0  0  1  0  0  0  0  0  0
  188.7550  176.8990  145.9150 C   0  0  0  0  0  0  0  0  0  0  0  0
  185.9420  178.9310  144.8330 C   0  0  0  0  0  3  0  0  0  0  0  0
  187.4810  176.7430  143.8750 C   0  0  0  0  0  0  0  0  0  0  0  0
  189.6210  175.8900  145.4470 N   0  0  0  0  0  0  0  0  0  0  0  0
  191.1690  177.0680  148.3500 O   0  0  0  0  0  0  0  0  0  0  0  0
  190.8310  175.8820  146.2480 C   0  0  1  0  0  3  0  0  0  0  0  0
  194.1380  176.6090  145.0110 C   0  0  0  0  0  2  0  0  0  0  0  0
  192.5700  173.5940  144.7310 C   0  0  0  0  0  1  0  0  0  0  0  0
  186.9610  178.4060  145.6190 C   0  0  0  0  0  3  0  0  0  0  0  0
  187.7340  177.3290  145.1650 C   0  0  0  0  0  0  0  0  0  0  0  0
  191.7750  174.5090  143.8030 C   0  0  2  0  0  3  0  0  0  0  0  0
  188.1910  173.0410  140.6270 C   0  0  0  0  0  2  0  0  0  0  0  0
  188.1910  173.4490  138.2770 O   0  0  0  0  0  1  0  0  0  0  0  0
  188.5680  173.9980  139.5040 C   0  0  0  0  0  2  0  0  0  0  0  0
  1  5  1  1  0  0  0
  1 19  1  0  0  0  0
  1  4  1  0  0  0  0
  2 13  2  0  0  0  0
  2 19  1  0  0  0  0
  3 10  1  0  0  0  0
  4 20  1  6  0  0  0
  7 15  1  1  0  0  0
  7  9  1  0  0  0  0
  8  6  1  1  0  0  0
  8 12  1  0  0  0  0
  9 14  1  1  0  0  0
  9 22  1  0  0  0  0
 10 21  2  0  0  0  0
 11 28  1  6  0  0  0
 11  5  1  0  0  0  0
 11  8  1  0  0  0  0
 12 27  1  0  0  0  0
 12  4  1  0  0  0  0
 13 18  1  0  0  0  0
 15 23  1  0  0  0  0
 16  2  1  0  0  0  0
 17  3  2  0  0  0  0
 18 25  2  0  0  0  0
 19 26  2  0  0  0  0
 20 17  1  0  0  0  0
 20 22  1  0  0  0  0
 22 10  1  0  0  0  0
 23 14  1  0  0  0  0
 26 25  1  0  0  0  0
 26 17  1  0  0  0  0
 27  7  1  0  0  0  0
 27 24  1  0  0  0  0
 29 30  1  0  0  0  0
 30 28  1  0  0  0  0
M  END
>  <MODEL>
4

>  <REMARK>
 VINA RESULT:      -8.1      2.006      5.738
  Name = 
  2 active torsions:
  status: ('A' for Active; 'I' for Inactive)
    1  A    between atoms: C_11  and  C_28
    2  A    between atoms: C_28  and  C_30
                            x       y       z     vdW  Elec       q    Type
                         _______ _______ _______ _____ _____    ______ ____

>  <TORSDO>
F 2

$$$$
=
 OpenBabel11112416173D

 30 35  0  0  1  0  0  0  0  0999 V2000
  188.9570  176.9600  144.9900 C   0  0  1  0  0  3  0  0  0  0  0  0
  187.3160  177.9140  146.5560 C   0  0  0  0  0  0  0  0  0  0  0  0
  186.4160  177.8690  141.7440 N   0  0  0  0  0  0  0  0  0  0  0  0
  189.4810  176.8410  143.5680 C   0  0  1  0  0  3  0  0  0  0  0  0
  189.8240  176.4140  146.0920 C   0  0  0  0  0  2  0  0  0  0  0  0
  192.9420  175.5170  143.9890 C   0  0  0  0  0  1  0  0  0  0  0  0
  188.7630  174.0950  142.3780 C   0  0  1  0  0  3  0  0  0  0  0  0
  191.4980  175.4350  144.4750 C   0  0  1  0  0  3  0  0  0  0  0  0
  187.9490  174.8850  141.3630 C   0  0  2  0  0  3  0  0  0  0  0  0
  187.0940  177.1060  140.7480 C   0  0  0  0  0  0  0  0  0  0  0  0
  191.2930  176.3490  145.6900 C   0  0  2  0  0  3  0  0  0  0  0  0
  190.5630  175.7610  143.3010 C   0  0  1  0  0  3  0  0  0  0  0  0
  186.1150  178.5990  146.7560 C   0  0  0  0  0  3  0  0  0  0  0  0
  188.0410  174.2390  140.1240 O   0  0  0  0  0  0  0  0  0  0  0  0
  188.6550  172.6940  141.8420 C   0  0  0  0  0  2  0  0  0  0  0  0
  188.0380  177.5600  147.6930 O   0  0  0  0  0  1  0  0  0  0  0  0
  187.2450  177.6840  142.8850 C   0  0  0  0  0  0  0  0  0  0  0  0
  185.3260  178.9930  145.6810 C   0  0  0  0  0  3  0  0  0  0  0  0
  187.7720  177.6150  145.2360 C   0  0  0  0  0  0  0  0  0  0  0  0
  188.3890  176.9090  142.6090 N   0  0  0  0  0  0  0  0  0  0  0  0
  186.6940  177.0450  139.5580 O   0  0  0  0  0  0  0  0  0  0  0  0
  188.2970  176.3720  141.2640 C   0  0  1  0  0  3  0  0  0  0  0  0
  188.0890  172.8690  140.4410 C   0  0  0  0  0  2  0  0  0  0  0  0
  190.9790  174.5410  141.1350 C   0  0  0  0  0  1  0  0  0  0  0  0
  185.7270  178.6990  144.3830 C   0  0  0  0  0  3  0  0  0  0  0  0
  186.9280  178.0180  144.1410 C   0  0  0  0  0  0  0  0  0  0  0  0
  190.2450  174.5020  142.4740 C   0  0  2  0  0  3  0  0  0  0  0  0
  192.1490  175.9210  146.8850 C   0  0  0  0  0  2  0  0  0  0  0  0
  194.5220  176.1700  146.8810 O   0  0  0  0  0  1  0  0  0  0  0  0
  193.3300  176.8530  147.1240 C   0  0  0  0  0  2  0  0  0  0  0  0
  1 19  1  0  0  0  0
  1  5  1  1  0  0  0
  2 13  1  0  0  0  0
  2 16  1  0  0  0  0
  3 17  2  0  0  0  0
  4 20  1  6  0  0  0
  4  1  1  0  0  0  0
  7 15  1  6  0  0  0
  7 27  1  0  0  0  0
  8  6  1  6  0  0  0
  8 11  1  0  0  0  0
  9 14  1  6  0  0  0
  9  7  1  0  0  0  0
 10 22  1  0  0  0  0
 10  3  1  0  0  0  0
 11  5  1  0  0  0  0
 11 28  1  1  0  0  0
 12  4  1  0  0  0  0
 12  8  1  0  0  0  0
 14 23  1  0  0  0  0
 17 26  1  0  0  0  0
 18 13  2  0  0  0  0
 19  2  2  0  0  0  0
 20 17  1  0  0  0  0
 21 10  2  0  0  0  0
 22  9  1  0  0  0  0
 22 20  1  0  0  0  0
 23 15  1  0  0  0  0
 24 27  1  0  0  0  0
 25 18  1  0  0  0  0
 26 25  2  0  0  0  0
 26 19  1  0  0  0  0
 27 12  1  0  0  0  0
 28 30  1  0  0  0  0
 29 30  1  0  0  0  0
M  END
>  <MODEL>
5

>  <REMARK>
 VINA RESULT:      -7.6      1.369      1.494
  Name = 
  2 active torsions:
  status: ('A' for Active; 'I' for Inactive)
    1  A    between atoms: C_11  and  C_28
    2  A    between atoms: C_28  and  C_30
                            x       y       z     vdW  Elec       q    Type
                         _______ _______ _______ _____ _____    ______ ____

>  <TORSDO>
F 2

$$$$
=
 OpenBabel11112416173D

 30 35  0  0  1  0  0  0  0  0999 V2000
  189.7740  175.1700  143.5180 C   0  0  1  0  0  3  0  0  0  0  0  0
  191.3530  173.3010  143.7770 C   0  0  0  0  0  0  0  0  0  0  0  0
  191.0870  176.8110  147.1790 N   0  0  0  0  0  0  0  0  0  0  0  0
  189.3480  176.5760  143.9090 C   0  0  1  0  0  3  0  0  0  0  0  0
  189.1030  174.5540  142.3200 C   0  0  0  0  0  2  0  0  0  0  0  0
  187.0580  177.6220  141.1570 C   0  0  0  0  0  1  0  0  0  0  0  0
  186.8560  176.4890  145.7120 C   0  0  1  0  0  3  0  0  0  0  0  0
  187.4840  176.4760  142.0690 C   0  0  1  0  0  3  0  0  0  0  0  0
  187.7510  177.1230  146.7690 C   0  0  2  0  0  3  0  0  0  0  0  0
  190.0500  177.7760  147.3420 C   0  0  0  0  0  0  0  0  0  0  0  0
  188.5390  175.6060  141.3720 C   0  0  2  0  0  3  0  0  0  0  0  0
  187.9610  177.0600  143.4060 C   0  0  1  0  0  3  0  0  0  0  0  0
  192.3970  172.7110  144.4930 C   0  0  0  0  0  3  0  0  0  0  0  0
  186.9820  178.0250  147.5140 O   0  0  0  0  0  0  0  0  0  0  0  0
  185.5120  176.5150  146.3860 C   0  0  0  0  0  2  0  0  0  0  0  0
  190.9120  172.6330  142.6370 O   0  0  0  0  0  1  0  0  0  0  0  0
  190.7730  176.2370  145.9160 C   0  0  0  0  0  0  0  0  0  0  0  0
  192.9030  173.3050  145.6440 C   0  0  0  0  0  3  0  0  0  0  0  0
  190.7900  174.5420  144.2030 C   0  0  0  0  0  0  0  0  0  0  0  0
  189.6530  176.8380  145.3060 N   0  0  0  0  0  0  0  0  0  0  0  0
  189.9930  178.5420  148.3370 O   0  0  0  0  0  0  0  0  0  0  0  0
  189.0340  177.7640  146.2370 C   0  0  1  0  0  3  0  0  0  0  0  0
  185.7070  177.4330  147.5830 C   0  0  0  0  0  2  0  0  0  0  0  0
  186.4530  178.7410  144.5230 C   0  0  0  0  0  1  0  0  0  0  0  0
  192.3630  174.5020  146.1010 C   0  0  0  0  0  3  0  0  0  0  0  0
  191.3190  175.1270  145.4070 C   0  0  0  0  0  0  0  0  0  0  0  0
  186.7860  177.2580  144.3800 C   0  0  2  0  0  3  0  0  0  0  0  0
  187.9910  174.9380  140.1080 C   0  0  0  0  0  2  0  0  0  0  0  0
  187.9890  172.6880  139.3150 O   0  0  0  0  0  1  0  0  0  0  0  0
  188.8290  173.7460  139.6660 C   0  0  0  0  0  2  0  0  0  0  0  0
  1  5  1  6  0  0  0
  1  4  1  0  0  0  0
  1 19  1  0  0  0  0
  2 19  2  0  0  0  0
  2 13  1  0  0  0  0
  3 10  1  0  0  0  0
  4 20  1  1  0  0  0
  7 15  1  1  0  0  0
  7  9  1  0  0  0  0
  8  6  1  6  0  0  0
  8 12  1  0  0  0  0
  9 14  1  6  0  0  0
 10 21  2  0  0  0  0
 11 28  1  6  0  0  0
 11  8  1  0  0  0  0
 11  5  1  0  0  0  0
 12  4  1  0  0  0  0
 12 27  1  0  0  0  0
 13 18  2  0  0  0  0
 14 23  1  0  0  0  0
 15 23  1  0  0  0  0
 16  2  1  0  0  0  0
 17  3  2  0  0  0  0
 18 25  1  0  0  0  0
 19 26  1  0  0  0  0
 20 17  1  0  0  0  0
 20 22  1  0  0  0  0
 22  9  1  0  0  0  0
 22 10  1  0  0  0  0
 26 17  1  0  0  0  0
 26 25  2  0  0  0  0
 27 24  1  0  0  0  0
 27  7  1  0  0  0  0
 29 30  1  0  0  0  0
 30 28  1  0  0  0  0
M  END
>  <MODEL>
6

>  <REMARK>
 VINA RESULT:      -7.6      1.949      6.974
  Name = 
  2 active torsions:
  status: ('A' for Active; 'I' for Inactive)
    1  A    between atoms: C_11  and  C_28
    2  A    between atoms: C_28  and  C_30
                            x       y       z     vdW  Elec       q    Type
                         _______ _______ _______ _____ _____    ______ ____

>  <TORSDO>
F 2

$$$$
=
 OpenBabel11112416173D

 30 35  0  0  1  0  0  0  0  0999 V2000
  187.2100  176.0630  141.9560 C   0  0  1  0  0  3  0  0  0  0  0  0
  185.8630  177.4640  140.4460 C   0  0  0  0  0  0  0  0  0  0  0  0
  185.0980  177.5830  145.2800 N   0  0  0  0  0  0  0  0  0  0  0  0
  187.3800  175.4100  143.3180 C   0  0  1  0  0  3  0  0  0  0  0  0
  188.1470  175.6290  140.8610 C   0  0  0  0  0  2  0  0  0  0  0  0
  189.9480  172.7690  142.7380 C   0  0  0  0  0  1  0  0  0  0  0  0
  189.5230  176.8850  144.9640 C   0  0  1  0  0  3  0  0  0  0  0  0
  189.5250  174.2000  142.4220 C   0  0  1  0  0  3  0  0  0  0  0  0
  188.3890  177.1950  145.9320 C   0  0  2  0  0  3  0  0  0  0  0  0
  185.9610  177.0850  146.3020 C   0  0  0  0  0  0  0  0  0  0  0  0
  188.7240  174.2410  141.1140 C   0  0  2  0  0  3  0  0  0  0  0  0
  188.7580  174.7660  143.6260 C   0  0  1  0  0  3  0  0  0  0  0  0
  184.7970  178.3500  140.2740 C   0  0  0  0  0  3  0  0  0  0  0  0
  188.8980  177.1570  147.2350 O   0  0  0  0  0  0  0  0  0  0  0  0
  190.7190  177.4110  145.7070 C   0  0  0  0  0  2  0  0  0  0  0  0
  186.5720  177.0990  139.3050 O   0  0  0  0  0  1  0  0  0  0  0  0
  185.6920  177.0590  144.0990 C   0  0  0  0  0  0  0  0  0  0  0  0
  184.0320  178.7710  141.3570 C   0  0  0  0  0  3  0  0  0  0  0  0
  186.1820  176.9540  141.7420 C   0  0  0  0  0  0  0  0  0  0  0  0
  186.8130  176.2450  144.3650 N   0  0  0  0  0  0  0  0  0  0  0  0
  185.7510  177.2960  147.5230 O   0  0  0  0  0  0  0  0  0  0  0  0
  187.1420  176.3210  145.7770 C   0  0  1  0  0  3  0  0  0  0  0  0
  190.2090  177.6570  147.1190 C   0  0  0  0  0  2  0  0  0  0  0  0
  189.8290  174.4980  145.8920 C   0  0  0  0  0  1  0  0  0  0  0  0
  184.3290  178.3130  142.6350 C   0  0  0  0  0  3  0  0  0  0  0  0
  185.3860  177.4190  142.8480 C   0  0  0  0  0  0  0  0  0  0  0  0
  189.7170  175.3880  144.6560 C   0  0  2  0  0  3  0  0  0  0  0  0
  189.5570  173.7880  139.9120 C   0  0  0  0  0  2  0  0  0  0  0  0
  188.0660  173.5150  138.0700 O   0  0  0  0  0  1  0  0  0  0  0  0
  188.8110  172.8090  139.0170 C   0  0  0  0  0  2  0  0  0  0  0  0
  1  5  1  6  0  0  0
  1  4  1  0  0  0  0
  2 19  1  0  0  0  0
  3 10  1  0  0  0  0
  4 12  1  0  0  0  0
  4 20  1  1  0  0  0
  5 11  1  0  0  0  0
  7 15  1  1  0  0  0
  7  9  1  0  0  0  0
  8  6  1  1  0  0  0
  8 12  1  0  0  0  0
  9 14  1  1  0  0  0
 10 21  2  0  0  0  0
 11 28  1  6  0  0  0
 11  8  1  0  0  0  0
 12 27  1  0  0  0  0
 13  2  2  0  0  0  0
 13 18  1  0  0  0  0
 15 23  1  0  0  0  0
 16  2  1  0  0  0  0
 17 20  1  0  0  0  0
 17  3  2  0  0  0  0
 18 25  2  0  0  0  0
 19  1  1  0  0  0  0
 19 26  2  0  0  0  0
 20 22  1  0  0  0  0
 22  9  1  0  0  0  0
 22 10  1  0  0  0  0
 23 14  1  0  0  0  0
 25 26  1  0  0  0  0
 26 17  1  0  0  0  0
 27  7  1  0  0  0  0
 27 24  1  0  0  0  0
 29 30  1  0  0  0  0
 30 28  1  0  0  0  0
M  END
>  <MODEL>
7

>  <REMARK>
 VINA RESULT:      -7.6      1.678      5.828
  Name = 
  2 active torsions:
  status: ('A' for Active; 'I' for Inactive)
    1  A    between atoms: C_11  and  C_28
    2  A    between atoms: C_28  and  C_30
                            x       y       z     vdW  Elec       q    Type
                         _______ _______ _______ _____ _____    ______ ____

>  <TORSDO>
F 2

$$$$
=
 OpenBabel11112416173D

 30 35  0  0  1  0  0  0  0  0999 V2000
  190.9330  175.4560  145.4530 C   0  0  1  0  0  3  0  0  0  0  0  0
  193.2660  174.6750  145.5050 C   0  0  0  0  0  0  0  0  0  0  0  0
  190.0880  172.7800  142.3000 N   0  0  0  0  0  0  0  0  0  0  0  0
  189.4920  175.2190  145.0330 C   0  0  1  0  0  3  0  0  0  0  0  0
  191.1940  176.5770  146.4220 C   0  0  0  0  0  2  0  0  0  0  0  0
  187.5310  177.5490  147.1870 C   0  0  0  0  0  1  0  0  0  0  0  0
  188.7390  177.0460  142.6740 C   0  0  1  0  0  3  0  0  0  0  0  0
  188.7980  177.3730  146.3560 C   0  0  1  0  0  3  0  0  0  0  0  0
  188.5380  175.7520  141.8970 C   0  0  2  0  0  3  0  0  0  0  0  0
  188.8160  173.3100  141.9320 C   0  0  0  0  0  0  0  0  0  0  0  0
  189.9600  176.9210  147.2500 C   0  0  2  0  0  3  0  0  0  0  0  0
  188.5020  176.4030  145.2030 C   0  0  1  0  0  3  0  0  0  0  0  0
  194.2380  173.7860  145.0400 C   0  0  0  0  0  3  0  0  0  0  0  0
  187.4540  175.9240  141.0270 O   0  0  0  0  0  0  0  0  0  0  0  0
  188.2500  178.0770  141.6950 C   0  0  0  0  0  2  0  0  0  0  0  0
  193.6630  175.5950  146.4720 O   0  0  0  0  0  1  0  0  0  0  0  0
  190.4380  173.5820  143.4210 C   0  0  0  0  0  0  0  0  0  0  0  0
  193.9340  172.8320  144.0750 C   0  0  0  0  0  3  0  0  0  0  0  0
  191.9280  174.6140  145.0100 C   0  0  0  0  0  0  0  0  0  0  0  0
  189.4340  174.5090  143.7650 N   0  0  0  0  0  0  0  0  0  0  0  0
  188.1350  172.8350  140.9880 O   0  0  0  0  0  0  0  0  0  0  0  0
  188.3930  174.4930  142.7540 C   0  0  1  0  0  3  0  0  0  0  0  0
  187.5320  177.2700  140.6230 C   0  0  0  0  0  2  0  0  0  0  0  0
  186.4400  176.8570  143.8270 C   0  0  0  0  0  1  0  0  0  0  0  0
  192.6470  172.7590  143.5540 C   0  0  0  0  0  3  0  0  0  0  0  0
  191.6440  173.6290  143.9980 C   0  0  0  0  0  0  0  0  0  0  0  0
  187.9320  177.1460  143.9810 C   0  0  2  0  0  3  0  0  0  0  0  0
  190.3110  177.9670  148.3120 C   0  0  0  0  0  2  0  0  0  0  0  0
  191.5570  178.0180  150.3460 O   0  0  0  0  0  1  0  0  0  0  0  0
  191.6440  177.6850  148.9930 C   0  0  0  0  0  2  0  0  0  0  0  0
  1  5  1  1  0  0  0
  2 16  1  0  0  0  0
  3 17  2  0  0  0  0
  4 20  1  6  0  0  0
  4 12  1  0  0  0  0
  4  1  1  0  0  0  0
  5 11  1  0  0  0  0
  7 15  1  6  0  0  0
  7 27  1  0  0  0  0
  8  6  1  1  0  0  0
  8 11  1  0  0  0  0
  9 14  1  1  0  0  0
  9  7  1  0  0  0  0
  9 22  1  0  0  0  0
 10  3  1  0  0  0  0
 10 22  1  0  0  0  0
 11 28  1  1  0  0  0
 12  8  1  0  0  0  0
 13  2  1  0  0  0  0
 17 20  1  0  0  0  0
 17 26  1  0  0  0  0
 18 13  2  0  0  0  0
 19  1  1  0  0  0  0
 19  2  2  0  0  0  0
 21 10  2  0  0  0  0
 22 20  1  0  0  0  0
 23 14  1  0  0  0  0
 23 15  1  0  0  0  0
 24 27  1  0  0  0  0
 25 26  2  0  0  0  0
 25 18  1  0  0  0  0
 26 19  1  0  0  0  0
 27 12  1  0  0  0  0
 28 30  1  0  0  0  0
 30 29  1  0  0  0  0
M  END
>  <MODEL>
8

>  <REMARK>
 VINA RESULT:      -7.4      2.176      5.353
  Name = 
  2 active torsions:
  status: ('A' for Active; 'I' for Inactive)
    1  A    between atoms: C_11  and  C_28
    2  A    between atoms: C_28  and  C_30
                            x       y       z     vdW  Elec       q    Type
                         _______ _______ _______ _____ _____    ______ ____

>  <TORSDO>
F 2

$$$$
=
 OpenBabel11112416173D

 30 35  0  0  1  0  0  0  0  0999 V2000
  190.0540  174.4040  143.3470 C   0  0  1  0  0  3  0  0  0  0  0  0
  187.9310  175.3270  142.5140 C   0  0  0  0  0  0  0  0  0  0  0  0
  189.5770  176.5280  146.9640 N   0  0  0  0  0  0  0  0  0  0  0  0
  190.9670  174.1010  144.5250 C   0  0  1  0  0  3  0  0  0  0  0  0
  190.4080  173.7840  142.0230 C   0  0  0  0  0  2  0  0  0  0  0  0
  193.3470  171.5590  143.1880 C   0  0  0  0  0  1  0  0  0  0  0  0
  193.3490  176.0490  144.5760 C   0  0  1  0  0  3  0  0  0  0  0  0
  192.5870  172.8480  142.8890 C   0  0  1  0  0  3  0  0  0  0  0  0
  192.7860  176.5070  145.9150 C   0  0  2  0  0  3  0  0  0  0  0  0
  190.8950  176.3370  147.4760 C   0  0  0  0  0  0  0  0  0  0  0  0
  191.2620  172.5310  142.1830 C   0  0  2  0  0  3  0  0  0  0  0  0
  192.4100  173.6320  144.1980 C   0  0  1  0  0  3  0  0  0  0  0  0
  186.7800  176.0810  142.7550 C   0  0  0  0  0  3  0  0  0  0  0  0
  193.8580  176.8070  146.7650 O   0  0  0  0  0  0  0  0  0  0  0  0
  194.6460  176.8060  144.5080 C   0  0  0  0  0  2  0  0  0  0  0  0
  188.0540  174.7480  141.2530 O   0  0  0  0  0  1  0  0  0  0  0  0
  189.6100  175.7790  145.7560 C   0  0  0  0  0  0  0  0  0  0  0  0
  186.5710  176.6960  143.9850 C   0  0  0  0  0  3  0  0  0  0  0  0
  188.9150  175.1550  143.5340 C   0  0  0  0  0  0  0  0  0  0  0  0
  190.8400  175.1210  145.5530 N   0  0  0  0  0  0  0  0  0  0  0  0
  191.2660  176.8160  148.5780 O   0  0  0  0  0  0  0  0  0  0  0  0
  191.7890  175.5460  146.5660 C   0  0  1  0  0  3  0  0  0  0  0  0
  194.8440  177.3450  145.9160 C   0  0  0  0  0  2  0  0  0  0  0  0
  194.4660  173.9690  145.6160 C   0  0  0  0  0  1  0  0  0  0  0  0
  187.5190  176.5700  144.9930 C   0  0  0  0  0  3  0  0  0  0  0  0
  188.6830  175.8170  144.7910 C   0  0  0  0  0  0  0  0  0  0  0  0
  193.6240  174.5370  144.4760 C   0  0  2  0  0  3  0  0  0  0  0  0
  191.4790  171.8620  140.8240 C   0  0  0  0  0  2  0  0  0  0  0  0
  190.4520  170.0370  141.9670 O   0  0  0  0  0  1  0  0  0  0  0  0
  190.7320  170.5410  140.6960 C   0  0  0  0  0  2  0  0  0  0  0  0
  1  5  1  1  0  0  0
  1 19  1  0  0  0  0
  1  4  1  0  0  0  0
  2 13  2  0  0  0  0
  2 19  1  0  0  0  0
  3 10  1  0  0  0  0
  4 20  1  1  0  0  0
  5 11  1  0  0  0  0
  7 15  1  1  0  0  0
  7  9  1  0  0  0  0
  8  6  1  1  0  0  0
  8 12  1  0  0  0  0
  9 22  1  0  0  0  0
  9 14  1  1  0  0  0
 10 21  2  0  0  0  0
 11 28  1  6  0  0  0
 11  8  1  0  0  0  0
 12 27  1  0  0  0  0
 12  4  1  0  0  0  0
 13 18  1  0  0  0  0
 15 23  1  0  0  0  0
 16  2  1  0  0  0  0
 17  3  2  0  0  0  0
 18 25  2  0  0  0  0
 19 26  2  0  0  0  0
 20 17  1  0  0  0  0
 20 22  1  0  0  0  0
 22 10  1  0  0  0  0
 23 14  1  0  0  0  0
 26 25  1  0  0  0  0
 26 17  1  0  0  0  0
 27  7  1  0  0  0  0
 27 24  1  0  0  0  0
 30 28  1  0  0  0  0
 30 29  1  0  0  0  0
M  END
>  <MODEL>
9

>  <REMARK>
 VINA RESULT:      -7.2      2.693      6.434
  Name = 
  2 active torsions:
  status: ('A' for Active; 'I' for Inactive)
    1  A    between atoms: C_11  and  C_28
    2  A    between atoms: C_28  and  C_30
                            x       y       z     vdW  Elec       q    Type
                         _______ _______ _______ _____ _____    ______ ____

>  <TORSDO>
F 2

$$$$
