=
 OpenBabel11112417413D

 28 32  0  0  1  0  0  0  0  0999 V2000
  190.1380  174.4980  145.0200 C   0  0  2  0  0  3  0  0  0  0  0  0
  188.3710  175.3610  147.2370 O   0  0  0  0  0  0  0  0  0  0  0  0
  187.0270  176.6010  139.7210 O   0  0  0  0  0  0  0  0  0  0  0  0
  192.0990  176.2730  146.0980 C   0  0  0  0  0  3  0  0  0  0  0  0
  186.3810  177.1850  141.9200 N   0  0  0  0  0  0  0  0  0  0  0  0
  189.4990  173.5300  144.0240 C   0  0  0  0  0  2  0  0  0  0  0  0
  188.9450  177.7510  147.4310 O   0  0  0  0  0  0  0  0  0  0  0  0
  187.9920  176.7560  146.8320 S   0  0  0  0  0  0  0  0  0  0  0  0
  185.6690  178.1090  146.4650 C   0  0  2  0  0  3  0  0  0  0  0  0
  187.9690  176.9140  145.1070 N   0  0  0  0  0  0  0  0  0  0  0  0
  191.1790  175.3150  141.8580 O   0  0  0  0  0  1  0  0  0  0  0  0
  188.4160  176.7950  142.9310 C   0  0  0  0  0  0  0  0  0  0  0  0
  185.5330  177.5580  145.0460 C   0  0  0  0  0  2  0  0  0  0  0  0
  186.3360  177.0990  147.3970 C   0  0  0  0  0  2  0  0  0  0  0  0
  190.2430  174.2940  141.6780 C   0  0  2  0  0  3  0  0  0  0  0  0
  190.2540  175.9380  144.4920 C   0  0  2  0  0  3  0  0  0  0  0  0
  187.3090  176.6940  140.9450 C   0  0  0  0  0  0  0  0  0  0  0  0
  184.2960  178.4510  147.0030 C   0  0  0  0  0  1  0  0  0  0  0  0
  188.8100  174.8040  141.4720 C   0  0  0  0  0  2  0  0  0  0  0  0
  191.0970  176.8040  145.3900 C   0  0  0  0  0  3  0  0  0  0  0  0
  191.4580  173.9830  145.5340 C   0  0  0  0  0  3  0  0  0  0  0  0
  192.3520  174.8200  146.0690 C   0  0  0  0  0  3  0  0  0  0  0  0
  190.3510  173.2400  142.7830 C   0  0  0  0  0  2  0  0  0  0  0  0
  187.1720  177.2810  143.0840 C   0  0  0  0  0  0  0  0  0  0  0  0
  188.6590  176.3240  141.5280 C   0  0  2  0  0  3  0  0  0  0  0  0
  186.8790  177.3360  144.4250 C   0  0  0  0  0  0  0  0  0  0  0  0
  185.1530  177.9130  141.6560 C   0  0  0  0  0  1  0  0  0  0  0  0
  188.9260  176.5700  144.1980 C   0  0  0  0  0  0  0  0  0  0  0  0
  1  6  1  6  0  0  0
  1 21  1  0  0  0  0
  3 17  2  0  0  0  0
  5 24  1  0  0  0  0
  8  2  2  0  0  0  0
  8 14  1  0  0  0  0
  8  7  2  0  0  0  0
  9 18  1  1  0  0  0
  9 14  1  0  0  0  0
 10  8  1  0  0  0  0
 12 24  1  0  0  0  0
 12 28  2  0  0  0  0
 13  9  1  0  0  0  0
 15 11  1  1  0  0  0
 15 23  1  0  0  0  0
 16  1  1  0  0  0  0
 16 20  1  1  0  0  0
 17 25  1  0  0  0  0
 17  5  1  0  0  0  0
 19 15  1  0  0  0  0
 20  4  2  0  0  0  0
 21 22  2  0  0  0  0
 22  4  1  0  0  0  0
 23  6  1  0  0  0  0
 24 26  2  0  0  0  0
 25 19  1  1  0  0  0
 25 12  1  0  0  0  0
 26 13  1  0  0  0  0
 26 10  1  0  0  0  0
 27  5  1  0  0  0  0
 28 16  1  0  0  0  0
 28 10  1  0  0  0  0
M  END
>  <MODEL>
1

>  <REMARK>
 VINA RESULT:      -8.6      0.000      0.000
  Name = 
  0 active torsions:
  status: ('A' for Active; 'I' for Inactive)
                            x       y       z     vdW  Elec       q    Type
                         _______ _______ _______ _____ _____    ______ ____

>  <TORSDO>
F 0

$$$$
=
 OpenBabel11112417413D

 28 32  0  0  1  0  0  0  0  0999 V2000
  190.0820  176.8600  143.4400 C   0  0  2  0  0  3  0  0  0  0  0  0
  188.4860  177.7270  141.0970 O   0  0  0  0  0  0  0  0  0  0  0  0
  185.9580  177.5710  148.4060 O   0  0  0  0  0  0  0  0  0  0  0  0
  190.1500  174.2690  142.2400 C   0  0  0  0  0  3  0  0  0  0  0  0
  185.3070  177.7760  146.1410 N   0  0  0  0  0  0  0  0  0  0  0  0
  190.2890  177.9310  144.5110 C   0  0  0  0  0  2  0  0  0  0  0  0
  187.0980  175.7340  140.6750 O   0  0  0  0  0  0  0  0  0  0  0  0
  187.1560  177.0760  141.3460 S   0  0  0  0  0  0  0  0  0  0  0  0
  184.5820  177.9190  141.5070 C   0  0  2  0  0  3  0  0  0  0  0  0
  186.8590  176.9090  143.0450 N   0  0  0  0  0  0  0  0  0  0  0  0
  189.8550  175.3920  146.5290 O   0  0  0  0  0  1  0  0  0  0  0  0
  187.0340  176.5490  145.2330 C   0  0  0  0  0  0  0  0  0  0  0  0
  184.7690  178.3160  142.9720 C   0  0  0  0  0  2  0  0  0  0  0  0
  185.8650  178.1230  140.7040 C   0  0  0  0  0  2  0  0  0  0  0  0
  189.9840  176.7600  146.7870 C   0  0  2  0  0  3  0  0  0  0  0  0
  189.0330  175.8020  143.8200 C   0  0  2  0  0  3  0  0  0  0  0  0
  186.1910  177.3560  147.1880 C   0  0  0  0  0  0  0  0  0  0  0  0
  183.4750  178.7520  140.8990 C   0  0  0  0  0  1  0  0  0  0  0  0
  188.6410  177.4930  146.8990 C   0  0  0  0  0  2  0  0  0  0  0  0
  189.0270  174.6410  142.8620 C   0  0  0  0  0  3  0  0  0  0  0  0
  191.3850  176.2300  143.0180 C   0  0  0  0  0  3  0  0  0  0  0  0
  191.3990  175.0320  142.4250 C   0  0  0  0  0  3  0  0  0  0  0  0
  190.9480  177.4220  145.7990 C   0  0  0  0  0  2  0  0  0  0  0  0
  185.8670  177.1730  144.9960 C   0  0  0  0  0  0  0  0  0  0  0  0
  187.4110  176.6100  146.6830 C   0  0  2  0  0  3  0  0  0  0  0  0
  185.7610  177.4200  143.6490 C   0  0  0  0  0  0  0  0  0  0  0  0
  183.9300  178.2110  146.2950 C   0  0  0  0  0  1  0  0  0  0  0  0
  187.6590  176.3730  144.0100 C   0  0  0  0  0  0  0  0  0  0  0  0
  1 21  1  1  0  0  0
  1 16  1  0  0  0  0
  1  6  1  0  0  0  0
  2  8  2  0  0  0  0
  4 22  1  0  0  0  0
  4 20  2  0  0  0  0
  5 27  1  0  0  0  0
  5 17  1  0  0  0  0
  6 23  1  0  0  0  0
  7  8  2  0  0  0  0
  8 10  1  0  0  0  0
  9 18  1  6  0  0  0
  9 13  1  0  0  0  0
 10 26  1  0  0  0  0
 10 28  1  0  0  0  0
 12 25  1  0  0  0  0
 13 26  1  0  0  0  0
 14  8  1  0  0  0  0
 14  9  1  0  0  0  0
 15 11  1  6  0  0  0
 15 19  1  0  0  0  0
 16 20  1  6  0  0  0
 16 28  1  0  0  0  0
 17  3  2  0  0  0  0
 22 21  2  0  0  0  0
 23 15  1  0  0  0  0
 24 12  1  0  0  0  0
 24  5  1  0  0  0  0
 25 19  1  6  0  0  0
 25 17  1  0  0  0  0
 26 24  2  0  0  0  0
 28 12  2  0  0  0  0
M  END
>  <MODEL>
2

>  <REMARK>
 VINA RESULT:      -8.4      2.040      4.879
  Name = 
  0 active torsions:
  status: ('A' for Active; 'I' for Inactive)
                            x       y       z     vdW  Elec       q    Type
                         _______ _______ _______ _____ _____    ______ ____

>  <TORSDO>
F 0

$$$$
=
 OpenBabel11112417413D

 28 32  0  0  1  0  0  0  0  0999 V2000
  191.3550  175.1430  144.7180 C   0  0  2  0  0  3  0  0  0  0  0  0
  190.3540  175.4650  141.9470 O   0  0  0  0  0  0  0  0  0  0  0  0
  187.1660  178.6400  148.2400 O   0  0  0  0  0  0  0  0  0  0  0  0
  190.7420  172.3660  144.4520 C   0  0  0  0  0  3  0  0  0  0  0  0
  186.8460  178.1600  145.9460 N   0  0  0  0  0  0  0  0  0  0  0  0
  191.7720  176.4410  145.4090 C   0  0  0  0  0  2  0  0  0  0  0  0
  188.4690  173.8770  141.9100 O   0  0  0  0  0  0  0  0  0  0  0  0
  188.8700  175.3110  142.1130 S   0  0  0  0  0  0  0  0  0  0  0  0
  186.6800  176.7750  141.4650 C   0  0  2  0  0  3  0  0  0  0  0  0
  188.3630  175.8580  143.6770 N   0  0  0  0  0  0  0  0  0  0  0  0
  190.3700  175.0160  147.9990 O   0  0  0  0  0  1  0  0  0  0  0  0
  188.1930  176.2910  145.8520 C   0  0  0  0  0  0  0  0  0  0  0  0
  186.8290  177.6200  142.7310 C   0  0  0  0  0  2  0  0  0  0  0  0
  188.0370  176.3400  140.9190 C   0  0  0  0  0  2  0  0  0  0  0  0
  190.8890  176.3020  147.8260 C   0  0  2  0  0  3  0  0  0  0  0  0
  189.9970  174.6000  145.1930 C   0  0  2  0  0  3  0  0  0  0  0  0
  187.4450  177.9420  147.2290 C   0  0  0  0  0  0  0  0  0  0  0  0
  185.9520  177.5790  140.4100 C   0  0  0  0  0  1  0  0  0  0  0  0
  189.8330  177.3400  147.4200 C   0  0  0  0  0  2  0  0  0  0  0  0
  189.7310  173.2110  144.6780 C   0  0  0  0  0  3  0  0  0  0  0  0
  192.4350  174.0940  144.7960 C   0  0  0  0  0  3  0  0  0  0  0  0
  192.1400  172.8010  144.6340 C   0  0  0  0  0  3  0  0  0  0  0  0
  192.1060  176.2910  146.8980 C   0  0  0  0  0  2  0  0  0  0  0  0
  187.3060  177.0590  145.1940 C   0  0  0  0  0  0  0  0  0  0  0  0
  188.4200  176.7820  147.2510 C   0  0  2  0  0  3  0  0  0  0  0  0
  187.4200  176.8140  143.8470 C   0  0  0  0  0  0  0  0  0  0  0  0
  185.6620  178.9540  145.6670 C   0  0  0  0  0  1  0  0  0  0  0  0
  188.8550  175.5280  144.9050 C   0  0  0  0  0  0  0  0  0  0  0  0
  1 21  1  1  0  0  0
  1 16  1  0  0  0  0
  1  6  1  0  0  0  0
  2  8  2  0  0  0  0
  4 22  1  0  0  0  0
  4 20  2  0  0  0  0
  5 17  1  0  0  0  0
  6 23  1  0  0  0  0
  7  8  2  0  0  0  0
  8 10  1  0  0  0  0
  9 18  1  6  0  0  0
  9 13  1  0  0  0  0
 10 26  1  0  0  0  0
 10 28  1  0  0  0  0
 12 25  1  0  0  0  0
 13 26  1  0  0  0  0
 14  9  1  0  0  0  0
 14  8  1  0  0  0  0
 15 11  1  6  0  0  0
 16 20  1  6  0  0  0
 17 25  1  0  0  0  0
 17  3  2  0  0  0  0
 19 15  1  0  0  0  0
 22 21  2  0  0  0  0
 23 15  1  0  0  0  0
 24 12  1  0  0  0  0
 24  5  1  0  0  0  0
 25 19  1  6  0  0  0
 26 24  2  0  0  0  0
 27  5  1  0  0  0  0
 28 16  1  0  0  0  0
 28 12  2  0  0  0  0
M  END
>  <MODEL>
3

>  <REMARK>
 VINA RESULT:      -8.1      1.922      4.820
  Name = 
  0 active torsions:
  status: ('A' for Active; 'I' for Inactive)
                            x       y       z     vdW  Elec       q    Type
                         _______ _______ _______ _____ _____    ______ ____

>  <TORSDO>
F 0

$$$$
=
 OpenBabel11112417413D

 28 32  0  0  1  0  0  0  0  0999 V2000
  186.7290  178.4390  144.8000 C   0  0  2  0  0  3  0  0  0  0  0  0
  188.9730  177.8800  146.6550 O   0  0  0  0  0  0  0  0  0  0  0  0
  188.2210  174.9250  139.5450 O   0  0  0  0  0  0  0  0  0  0  0  0
  185.0340  177.1620  146.7100 C   0  0  0  0  0  3  0  0  0  0  0  0
  189.3930  174.7570  141.5930 N   0  0  0  0  0  0  0  0  0  0  0  0
  187.1320  179.0960  143.4790 C   0  0  0  0  0  2  0  0  0  0  0  0
  188.3490  175.6650  147.5380 O   0  0  0  0  0  0  0  0  0  0  0  0
  189.1590  176.3980  146.5070 S   0  0  0  0  0  0  0  0  0  0  0  0
  191.2320  174.7520  145.9100 C   0  0  2  0  0  3  0  0  0  0  0  0
  188.7180  175.8750  144.9160 N   0  0  0  0  0  0  0  0  0  0  0  0
  184.8500  177.0860  142.2720 O   0  0  0  0  0  1  0  0  0  0  0  0
  187.7200  175.5750  142.9510 C   0  0  0  0  0  0  0  0  0  0  0  0
  191.0160  174.9690  144.4120 C   0  0  0  0  0  2  0  0  0  0  0  0
  190.8860  176.0040  146.7130 C   0  0  0  0  0  2  0  0  0  0  0  0
  185.7570  177.9360  141.6330 C   0  0  2  0  0  3  0  0  0  0  0  0
  186.4050  176.9420  144.6700 C   0  0  2  0  0  3  0  0  0  0  0  0
  188.2680  175.1270  140.7870 C   0  0  0  0  0  0  0  0  0  0  0  0
  192.6780  174.3840  146.1590 C   0  0  0  0  0  1  0  0  0  0  0  0
  187.0570  177.2400  141.2080 C   0  0  0  0  0  2  0  0  0  0  0  0
  185.7850  176.3850  145.9230 C   0  0  0  0  0  3  0  0  0  0  0  0
  185.6200  179.1940  145.4870 C   0  0  0  0  0  3  0  0  0  0  0  0
  184.8570  178.5940  146.4050 C   0  0  0  0  0  3  0  0  0  0  0  0
  185.9980  179.2070  142.4520 C   0  0  0  0  0  2  0  0  0  0  0  0
  188.9340  174.9990  142.9040 C   0  0  0  0  0  0  0  0  0  0  0  0
  187.1400  175.7590  141.5800 C   0  0  2  0  0  3  0  0  0  0  0  0
  189.5670  175.1990  144.1060 C   0  0  0  0  0  0  0  0  0  0  0  0
  190.4700  173.8590  141.2130 C   0  0  0  0  0  1  0  0  0  0  0  0
  187.5740  176.1200  144.2150 C   0  0  0  0  0  0  0  0  0  0  0  0
  1  6  1  6  0  0  0
  1 21  1  0  0  0  0
  3 17  2  0  0  0  0
  5 24  1  0  0  0  0
  8  2  2  0  0  0  0
  8 14  1  0  0  0  0
  8  7  2  0  0  0  0
  9 18  1  6  0  0  0
  9 14  1  0  0  0  0
 10  8  1  0  0  0  0
 12 28  2  0  0  0  0
 13  9  1  0  0  0  0
 15 11  1  1  0  0  0
 15 23  1  0  0  0  0
 16  1  1  0  0  0  0
 16 20  1  1  0  0  0
 17 25  1  0  0  0  0
 17  5  1  0  0  0  0
 19 15  1  0  0  0  0
 20  4  2  0  0  0  0
 21 22  2  0  0  0  0
 22  4  1  0  0  0  0
 23  6  1  0  0  0  0
 24 12  1  0  0  0  0
 24 26  2  0  0  0  0
 25 19  1  6  0  0  0
 25 12  1  0  0  0  0
 26 13  1  0  0  0  0
 26 10  1  0  0  0  0
 27  5  1  0  0  0  0
 28 16  1  0  0  0  0
 28 10  1  0  0  0  0
M  END
>  <MODEL>
4

>  <REMARK>
 VINA RESULT:      -8.0      1.556      5.110
  Name = 
  0 active torsions:
  status: ('A' for Active; 'I' for Inactive)
                            x       y       z     vdW  Elec       q    Type
                         _______ _______ _______ _____ _____    ______ ____

>  <TORSDO>
F 0

$$$$
=
 OpenBabel11112417413D

 28 32  0  0  1  0  0  0  0  0999 V2000
  187.9920  177.8160  144.7800 C   0  0  2  0  0  3  0  0  0  0  0  0
  190.5010  177.9340  146.3540 O   0  0  0  0  0  0  0  0  0  0  0  0
  189.3760  173.5640  140.0710 O   0  0  0  0  0  0  0  0  0  0  0  0
  186.7600  176.7280  147.1160 C   0  0  0  0  0  3  0  0  0  0  0  0
  190.7980  173.9580  141.9200 N   0  0  0  0  0  0  0  0  0  0  0  0
  188.1250  178.2470  143.3200 C   0  0  0  0  0  2  0  0  0  0  0  0
  190.3440  175.8740  147.6980 O   0  0  0  0  0  0  0  0  0  0  0  0
  190.9000  176.4900  146.4460 S   0  0  0  0  0  0  0  0  0  0  0  0
  193.1180  175.0460  145.8510 C   0  0  2  0  0  3  0  0  0  0  0  0
  190.3590  175.6090  145.0550 N   0  0  0  0  0  0  0  0  0  0  0  0
  186.0600  175.7560  142.8380 O   0  0  0  0  0  1  0  0  0  0  0  0
  189.1920  174.8000  143.3440 C   0  0  0  0  0  0  0  0  0  0  0  0
  192.6930  174.9330  144.3860 C   0  0  0  0  0  2  0  0  0  0  0  0
  192.6790  176.3750  146.4610 C   0  0  0  0  0  2  0  0  0  0  0  0
  186.7390  176.5760  141.9320 C   0  0  2  0  0  3  0  0  0  0  0  0
  187.8940  176.2930  144.9670 C   0  0  2  0  0  3  0  0  0  0  0  0
  189.5400  174.0110  141.2370 C   0  0  0  0  0  0  0  0  0  0  0  0
  194.6240  174.9280  145.9450 C   0  0  0  0  0  1  0  0  0  0  0  0
  188.0710  175.9860  141.4500 C   0  0  0  0  0  2  0  0  0  0  0  0
  187.5250  175.9180  146.3770 C   0  0  0  0  0  3  0  0  0  0  0  0
  186.8680  178.5390  145.4790 C   0  0  0  0  0  3  0  0  0  0  0  0
  186.3250  178.0360  146.5910 C   0  0  0  0  0  3  0  0  0  0  0  0
  186.8730  178.0030  142.4680 C   0  0  0  0  0  2  0  0  0  0  0  0
  190.4670  174.3910  143.2210 C   0  0  0  0  0  0  0  0  0  0  0  0
  188.4300  174.6320  142.0620 C   0  0  2  0  0  3  0  0  0  0  0  0
  191.2000  174.9060  144.2620 C   0  0  0  0  0  0  0  0  0  0  0  0
  191.9490  173.1530  141.5510 C   0  0  0  0  0  1  0  0  0  0  0  0
  189.1150  175.5590  144.4990 C   0  0  0  0  0  0  0  0  0  0  0  0
  1  6  1  6  0  0  0
  1 16  1  0  0  0  0
  1 21  1  0  0  0  0
  2  8  2  0  0  0  0
  3 17  2  0  0  0  0
  5 24  1  0  0  0  0
  8 14  1  0  0  0  0
  8  7  2  0  0  0  0
  9 18  1  6  0  0  0
  9 14  1  0  0  0  0
 10  8  1  0  0  0  0
 12 28  2  0  0  0  0
 13  9  1  0  0  0  0
 15 23  1  0  0  0  0
 15 11  1  1  0  0  0
 16 20  1  1  0  0  0
 17  5  1  0  0  0  0
 17 25  1  0  0  0  0
 19 15  1  0  0  0  0
 20  4  2  0  0  0  0
 21 22  2  0  0  0  0
 22  4  1  0  0  0  0
 23  6  1  0  0  0  0
 24 12  1  0  0  0  0
 24 26  2  0  0  0  0
 25 19  1  6  0  0  0
 25 12  1  0  0  0  0
 26 13  1  0  0  0  0
 26 10  1  0  0  0  0
 27  5  1  0  0  0  0
 28 16  1  0  0  0  0
 28 10  1  0  0  0  0
M  END
>  <MODEL>
5

>  <REMARK>
 VINA RESULT:      -7.8      1.970      5.207
  Name = 
  0 active torsions:
  status: ('A' for Active; 'I' for Inactive)
                            x       y       z     vdW  Elec       q    Type
                         _______ _______ _______ _____ _____    ______ ____

>  <TORSDO>
F 0

$$$$
=
 OpenBabel11112417413D

 28 32  0  0  1  0  0  0  0  0999 V2000
  189.0830  177.1870  144.5660 C   0  0  2  0  0  3  0  0  0  0  0  0
  191.9670  176.8430  145.1550 O   0  0  0  0  0  0  0  0  0  0  0  0
  188.2730  173.8510  139.0530 O   0  0  0  0  0  0  0  0  0  0  0  0
  188.5760  175.7450  146.9790 C   0  0  0  0  0  3  0  0  0  0  0  0
  190.2670  173.7910  140.3240 N   0  0  0  0  0  0  0  0  0  0  0  0
  188.7740  177.8850  143.2410 C   0  0  0  0  0  2  0  0  0  0  0  0
  192.0120  174.5750  146.1200 O   0  0  0  0  0  0  0  0  0  0  0  0
  192.1900  175.3860  144.8690 S   0  0  0  0  0  0  0  0  0  0  0  0
  193.8830  173.9510  143.3090 C   0  0  2  0  0  3  0  0  0  0  0  0
  191.1100  174.8270  143.6350 N   0  0  0  0  0  0  0  0  0  0  0  0
  186.3720  175.6660  143.1220 O   0  0  0  0  0  1  0  0  0  0  0  0
  189.3470  174.4380  142.3360 C   0  0  0  0  0  0  0  0  0  0  0  0
  192.9840  174.1500  142.0900 C   0  0  0  0  0  2  0  0  0  0  0  0
  193.8430  175.1610  144.2400 C   0  0  0  0  0  2  0  0  0  0  0  0
  186.8060  176.6020  142.1800 C   0  0  2  0  0  3  0  0  0  0  0  0
  188.8630  175.6660  144.5280 C   0  0  2  0  0  3  0  0  0  0  0  0
  188.8700  174.0530  140.1430 C   0  0  0  0  0  0  0  0  0  0  0  0
  195.3070  173.7240  142.8490 C   0  0  0  0  0  1  0  0  0  0  0  0
  187.8170  176.0360  141.1720 C   0  0  0  0  0  2  0  0  0  0  0  0
  188.9420  175.0480  145.8990 C   0  0  0  0  0  3  0  0  0  0  0  0
  188.3560  177.8290  145.7210 C   0  0  0  0  0  3  0  0  0  0  0  0
  188.1580  177.1550  146.8570 C   0  0  0  0  0  3  0  0  0  0  0  0
  187.2890  177.8880  142.8550 C   0  0  0  0  0  2  0  0  0  0  0  0
  190.4460  173.9830  141.7090 C   0  0  0  0  0  0  0  0  0  0  0  0
  188.1870  174.5700  141.3940 C   0  0  2  0  0  3  0  0  0  0  0  0
  191.5430  174.2400  142.4940 C   0  0  0  0  0  0  0  0  0  0  0  0
  191.1190  173.0030  139.4500 C   0  0  0  0  0  1  0  0  0  0  0  0
  189.7560  174.9630  143.5500 C   0  0  0  0  0  0  0  0  0  0  0  0
  1  6  1  6  0  0  0
  1 21  1  0  0  0  0
  3 17  2  0  0  0  0
  5 24  1  0  0  0  0
  8  2  2  0  0  0  0
  8  7  2  0  0  0  0
  9 18  1  6  0  0  0
  9 14  1  0  0  0  0
 10  8  1  0  0  0  0
 12 28  2  0  0  0  0
 13 26  1  0  0  0  0
 13  9  1  0  0  0  0
 14  8  1  0  0  0  0
 15 23  1  0  0  0  0
 15 11  1  1  0  0  0
 16  1  1  0  0  0  0
 16 20  1  1  0  0  0
 17  5  1  0  0  0  0
 17 25  1  0  0  0  0
 19 15  1  0  0  0  0
 20  4  2  0  0  0  0
 21 22  2  0  0  0  0
 22  4  1  0  0  0  0
 23  6  1  0  0  0  0
 24 12  1  0  0  0  0
 24 26  2  0  0  0  0
 25 19  1  6  0  0  0
 25 12  1  0  0  0  0
 26 10  1  0  0  0  0
 27  5  1  0  0  0  0
 28 10  1  0  0  0  0
 28 16  1  0  0  0  0
M  END
>  <MODEL>
6

>  <REMARK>
 VINA RESULT:      -7.7      2.705      5.489
  Name = 
  0 active torsions:
  status: ('A' for Active; 'I' for Inactive)
                            x       y       z     vdW  Elec       q    Type
                         _______ _______ _______ _____ _____    ______ ____

>  <TORSDO>
F 0

$$$$
=
 OpenBabel11112417413D

 28 32  0  0  1  0  0  0  0  0999 V2000
  188.9410  175.4460  145.4570 C   0  0  2  0  0  3  0  0  0  0  0  0
  188.0940  174.2490  142.8820 O   0  0  0  0  0  0  0  0  0  0  0  0
  195.4090  174.8670  145.3210 O   0  0  0  0  0  0  0  0  0  0  0  0
  187.8930  177.9160  144.4780 C   0  0  0  0  0  3  0  0  0  0  0  0
  194.0260  174.4080  143.4570 N   0  0  0  0  0  0  0  0  0  0  0  0
  189.6840  174.4970  146.3970 C   0  0  0  0  0  2  0  0  0  0  0  0
  188.5660  176.0810  141.3010 O   0  0  0  0  0  0  0  0  0  0  0  0
  189.0920  174.8140  141.9130 S   0  0  0  0  0  0  0  0  0  0  0  0
  190.8200  173.7910  140.0880 C   0  0  2  0  0  3  0  0  0  0  0  0
  190.6110  175.1100  142.6920 N   0  0  0  0  0  0  0  0  0  0  0  0
  191.4830  177.1660  146.9850 O   0  0  0  0  0  1  0  0  0  0  0  0
  192.2200  175.6790  144.1170 C   0  0  0  0  0  0  0  0  0  0  0  0
  191.8700  173.5430  141.1710 C   0  0  0  0  0  2  0  0  0  0  0  0
  189.4030  173.6150  140.6300 C   0  0  0  0  0  2  0  0  0  0  0  0
  191.6390  175.8420  147.4040 C   0  0  2  0  0  3  0  0  0  0  0  0
  189.8610  176.4490  144.7400 C   0  0  2  0  0  3  0  0  0  0  0  0
  194.2990  174.9890  144.7380 C   0  0  0  0  0  0  0  0  0  0  0  0
  191.0400  172.8220  138.9460 C   0  0  0  0  0  1  0  0  0  0  0  0
  192.5700  175.0190  146.5030 C   0  0  0  0  0  2  0  0  0  0  0  0
  189.0810  177.5150  144.0170 C   0  0  0  0  0  3  0  0  0  0  0  0
  187.7930  176.1360  146.1500 C   0  0  0  0  0  3  0  0  0  0  0  0
  187.2890  177.2720  145.6610 C   0  0  0  0  0  3  0  0  0  0  0  0
  190.2840  175.1690  147.6380 C   0  0  0  0  0  2  0  0  0  0  0  0
  192.7650  174.9470  143.1300 C   0  0  0  0  0  0  0  0  0  0  0  0
  193.1340  175.7790  145.3030 C   0  0  2  0  0  3  0  0  0  0  0  0
  191.7740  174.5710  142.2570 C   0  0  0  0  0  0  0  0  0  0  0  0
  195.0040  173.8830  142.5200 C   0  0  0  0  0  1  0  0  0  0  0  0
  190.8680  175.7930  143.8440 C   0  0  0  0  0  0  0  0  0  0  0  0
  1 21  1  1  0  0  0
  1  6  1  0  0  0  0
  4 22  1  0  0  0  0
  5 17  1  0  0  0  0
  6 23  1  0  0  0  0
  7  8  2  0  0  0  0
  8 10  1  0  0  0  0
  8  2  2  0  0  0  0
  9 18  1  6  0  0  0
  9 14  1  0  0  0  0
  9 13  1  0  0  0  0
 10 28  1  0  0  0  0
 12 25  1  0  0  0  0
 13 26  1  0  0  0  0
 14  8  1  0  0  0  0
 15 11  1  6  0  0  0
 15 23  1  0  0  0  0
 16 20  1  6  0  0  0
 16  1  1  0  0  0  0
 17 25  1  0  0  0  0
 17  3  2  0  0  0  0
 19 15  1  0  0  0  0
 20  4  2  0  0  0  0
 22 21  2  0  0  0  0
 24  5  1  0  0  0  0
 24 12  1  0  0  0  0
 25 19  1  1  0  0  0
 26 10  1  0  0  0  0
 26 24  2  0  0  0  0
 27  5  1  0  0  0  0
 28 12  2  0  0  0  0
 28 16  1  0  0  0  0
M  END
>  <MODEL>
7

>  <REMARK>
 VINA RESULT:      -7.5      2.873      6.487
  Name = 
  0 active torsions:
  status: ('A' for Active; 'I' for Inactive)
                            x       y       z     vdW  Elec       q    Type
                         _______ _______ _______ _____ _____    ______ ____

>  <TORSDO>
F 0

$$$$
=
 OpenBabel11112417413D

 28 32  0  0  1  0  0  0  0  0999 V2000
  189.1960  176.9770  144.3980 C   0  0  2  0  0  3  0  0  0  0  0  0
  191.8050  176.8210  145.7960 O   0  0  0  0  0  0  0  0  0  0  0  0
  189.5740  172.2250  139.9880 O   0  0  0  0  0  0  0  0  0  0  0  0
  187.9930  176.2700  146.8900 C   0  0  0  0  0  3  0  0  0  0  0  0
  191.1720  172.5300  141.7060 N   0  0  0  0  0  0  0  0  0  0  0  0
  189.2830  177.2740  142.9010 C   0  0  0  0  0  2  0  0  0  0  0  0
  191.4420  174.9160  147.3180 O   0  0  0  0  0  0  0  0  0  0  0  0
  191.9890  175.3430  145.9850 S   0  0  0  0  0  0  0  0  0  0  0  0
  193.9150  173.5320  145.3770 C   0  0  2  0  0  3  0  0  0  0  0  0
  191.2200  174.4570  144.7110 N   0  0  0  0  0  0  0  0  0  0  0  0
  186.8380  175.1040  142.7610 O   0  0  0  0  0  1  0  0  0  0  0  0
  189.8200  173.7140  143.1500 C   0  0  0  0  0  0  0  0  0  0  0  0
  193.3700  173.3790  143.9570 C   0  0  0  0  0  2  0  0  0  0  0  0
  193.7270  174.9550  145.9000 C   0  0  0  0  0  2  0  0  0  0  0  0
  187.5620  175.7390  141.7490 C   0  0  2  0  0  3  0  0  0  0  0  0
  188.8850  175.5060  144.7190 C   0  0  2  0  0  3  0  0  0  0  0  0
  189.8880  172.7260  141.1000 C   0  0  0  0  0  0  0  0  0  0  0  0
  195.3890  173.1900  145.3880 C   0  0  0  0  0  1  0  0  0  0  0  0
  188.7520  174.9160  141.2360 C   0  0  0  0  0  2  0  0  0  0  0  0
  188.5700  175.2980  146.1760 C   0  0  0  0  0  3  0  0  0  0  0  0
  188.2480  177.9160  145.1010 C   0  0  0  0  0  3  0  0  0  0  0  0
  187.7210  177.5880  146.2840 C   0  0  0  0  0  3  0  0  0  0  0  0
  187.9490  177.1640  142.1520 C   0  0  0  0  0  2  0  0  0  0  0  0
  191.0070  173.1040  142.9830 C   0  0  0  0  0  0  0  0  0  0  0  0
  188.9490  173.5720  141.9370 C   0  0  2  0  0  3  0  0  0  0  0  0
  191.8850  173.5740  143.9290 C   0  0  0  0  0  0  0  0  0  0  0  0
  192.1590  171.5310  141.3350 C   0  0  0  0  0  1  0  0  0  0  0  0
  189.9440  174.5590  144.2390 C   0  0  0  0  0  0  0  0  0  0  0  0
  1  6  1  6  0  0  0
  1 16  1  0  0  0  0
  1 21  1  0  0  0  0
  2  8  2  0  0  0  0
  3 17  2  0  0  0  0
  5 24  1  0  0  0  0
  8  7  2  0  0  0  0
  9 18  1  6  0  0  0
  9 14  1  0  0  0  0
 10  8  1  0  0  0  0
 12 28  2  0  0  0  0
 13  9  1  0  0  0  0
 14  8  1  0  0  0  0
 15 23  1  0  0  0  0
 15 11  1  1  0  0  0
 16 20  1  1  0  0  0
 17  5  1  0  0  0  0
 17 25  1  0  0  0  0
 19 15  1  0  0  0  0
 20  4  2  0  0  0  0
 21 22  2  0  0  0  0
 22  4  1  0  0  0  0
 23  6  1  0  0  0  0
 24 12  1  0  0  0  0
 24 26  2  0  0  0  0
 25 19  1  6  0  0  0
 25 12  1  0  0  0  0
 26 13  1  0  0  0  0
 26 10  1  0  0  0  0
 27  5  1  0  0  0  0
 28 10  1  0  0  0  0
 28 16  1  0  0  0  0
M  END
>  <MODEL>
8

>  <REMARK>
 VINA RESULT:      -7.4      2.588      5.628
  Name = 
  0 active torsions:
  status: ('A' for Active; 'I' for Inactive)
                            x       y       z     vdW  Elec       q    Type
                         _______ _______ _______ _____ _____    ______ ____

>  <TORSDO>
F 0

$$$$
=
 OpenBabel11112417413D

 28 32  0  0  1  0  0  0  0  0999 V2000
  191.9550  175.1510  146.0380 C   0  0  2  0  0  3  0  0  0  0  0  0
  189.6920  173.6420  144.8600 O   0  0  0  0  0  0  0  0  0  0  0  0
  196.0880  175.7750  141.0670 O   0  0  0  0  0  0  0  0  0  0  0  0
  190.1220  177.3080  146.4110 C   0  0  0  0  0  3  0  0  0  0  0  0
  193.8880  174.9400  140.8270 N   0  0  0  0  0  0  0  0  0  0  0  0
  193.2990  174.4220  146.0120 C   0  0  0  0  0  2  0  0  0  0  0  0
  188.4920  175.4170  143.6410 O   0  0  0  0  0  0  0  0  0  0  0  0
  189.5060  174.3150  143.5300 S   0  0  0  0  0  0  0  0  0  0  0  0
  189.4210  173.5070  140.9410 C   0  0  2  0  0  3  0  0  0  0  0  0
  191.0090  174.9410  142.9390 N   0  0  0  0  0  0  0  0  0  0  0  0
  194.4260  177.4130  145.3120 O   0  0  0  0  0  1  0  0  0  0  0  0
  193.0070  175.8960  142.7310 C   0  0  0  0  0  0  0  0  0  0  0  0
  190.9460  173.5340  140.8480 C   0  0  0  0  0  2  0  0  0  0  0  0
  188.9520  173.1090  142.3390 C   0  0  0  0  0  2  0  0  0  0  0  0
  195.0690  176.1730  145.3450 C   0  0  2  0  0  3  0  0  0  0  0  0
  191.8310  176.2550  144.9750 C   0  0  2  0  0  3  0  0  0  0  0  0
  194.9200  175.6490  141.5220 C   0  0  0  0  0  0  0  0  0  0  0  0
  188.8750  172.5200  139.9330 C   0  0  0  0  0  1  0  0  0  0  0  0
  195.1320  175.4780  143.9780 C   0  0  0  0  0  2  0  0  0  0  0  0
  190.6060  177.1050  145.1820 C   0  0  0  0  0  3  0  0  0  0  0  0
  191.6210  175.6610  147.4170 C   0  0  0  0  0  3  0  0  0  0  0  0
  190.7340  176.6470  147.5790 C   0  0  0  0  0  3  0  0  0  0  0  0
  194.4950  175.2780  146.4460 C   0  0  0  0  0  2  0  0  0  0  0  0
  192.7430  175.2110  141.6040 C   0  0  0  0  0  0  0  0  0  0  0  0
  194.4620  176.2450  142.8390 C   0  0  2  0  0  3  0  0  0  0  0  0
  191.5200  174.5990  141.7330 C   0  0  0  0  0  0  0  0  0  0  0  0
  193.9020  174.5430  139.4300 C   0  0  0  0  0  1  0  0  0  0  0  0
  191.9180  175.7370  143.5710 C   0  0  0  0  0  0  0  0  0  0  0  0
  1  6  1  1  0  0  0
  1 21  1  0  0  0  0
  3 17  2  0  0  0  0
  4 22  1  0  0  0  0
  5 17  1  0  0  0  0
  5 24  1  0  0  0  0
  6 23  1  0  0  0  0
  8  7  2  0  0  0  0
  8  2  2  0  0  0  0
  9 18  1  6  0  0  0
  9 14  1  0  0  0  0
 10  8  1  0  0  0  0
 10 28  1  0  0  0  0
 12 25  1  0  0  0  0
 12 28  2  0  0  0  0
 13  9  1  0  0  0  0
 13 26  1  0  0  0  0
 14  8  1  0  0  0  0
 15 11  1  6  0  0  0
 15 23  1  0  0  0  0
 16 20  1  6  0  0  0
 16  1  1  0  0  0  0
 17 25  1  0  0  0  0
 19 15  1  0  0  0  0
 20  4  2  0  0  0  0
 21 22  2  0  0  0  0
 24 26  2  0  0  0  0
 24 12  1  0  0  0  0
 25 19  1  1  0  0  0
 26 10  1  0  0  0  0
 27  5  1  0  0  0  0
 28 16  1  0  0  0  0
M  END
>  <MODEL>
9

>  <REMARK>
 VINA RESULT:      -7.3      3.509      5.936
  Name = 
  0 active torsions:
  status: ('A' for Active; 'I' for Inactive)
                            x       y       z     vdW  Elec       q    Type
                         _______ _______ _______ _____ _____    ______ ____

>  <TORSDO>
F 0

$$$$
