=
 OpenBabel11112417263D

 37 43  0  0  1  0  0  0  0  0999 V2000
  191.7460  173.3970  141.0240 O   0  0  0  0  0  0  0  0  0  0  0  0
  195.7260  173.9640  142.8790 C   0  0  0  0  0  0  0  0  0  0  0  0
  192.2610  175.1930  145.1510 C   0  0  1  0  0  3  0  0  0  0  0  0
  190.8270  172.8540  140.1070 C   0  0  2  0  0  3  0  0  0  0  0  0
  189.6170  173.9220  144.4360 C   0  0  0  0  0  2  0  0  0  0  0  0
  194.7010  174.7620  145.1050 C   0  0  0  0  0  0  0  0  0  0  0  0
  191.4320  175.6660  144.0420 N   0  0  2  0  0  0  0  0  0  0  0  0
  190.2750  171.0650  141.9700 C   0  0  2  0  0  3  0  0  0  0  0  0
  193.4880  174.6410  144.5440 C   0  0  0  0  0  0  0  0  0  0  0  0
  190.0030  175.4150  144.3610 C   0  0  2  0  0  3  0  0  0  0  0  0
  194.8370  175.4750  146.3500 N   0  0  0  0  0  0  0  0  0  0  0  0
  190.3870  171.4230  140.4740 C   0  0  0  0  0  2  0  0  0  0  0  0
  193.2480  174.2610  143.1440 C   0  0  2  0  0  3  0  0  0  0  0  0
  195.6390  172.4500  142.7900 C   0  0  0  0  0  1  0  0  0  0  0  0
  191.6810  177.1970  146.5430 C   0  0  0  0  0  3  0  0  0  0  0  0
  193.8710  176.1910  146.8500 C   0  0  0  0  0  3  0  0  0  0  0  0
  194.4630  174.6040  142.2860 C   0  0  0  0  0  2  0  0  0  0  0  0
  189.3360  171.9340  142.8190 C   0  0  0  0  0  2  0  0  0  0  0  0
  189.9960  173.2620  143.1330 C   0  0  1  0  0  3  0  0  0  0  0  0
  192.5710  176.2730  146.1600 C   0  0  0  0  0  0  0  0  0  0  0  0
  192.0340  175.1200  142.7790 C   0  0  1  0  0  3  0  0  0  0  0  0
  195.9510  174.3780  144.3480 C   0  0  0  0  0  2  0  0  0  0  0  0
  189.5630  176.1290  145.6560 C   0  0  1  0  0  3  0  0  0  0  0  0
  196.9200  174.4180  142.0680 C   0  0  0  0  0  1  0  0  0  0  0  0
  189.8190  174.1670  142.0900 O   0  0  0  0  0  0  0  0  0  0  0  0
  191.5390  170.9480  142.5540 O   0  0  0  0  0  1  0  0  0  0  0  0
  191.1180  174.4980  141.6640 C   0  0  2  0  0  3  0  0  0  0  0  0
  190.3350  177.4270  145.9040 C   0  0  0  0  0  2  0  0  0  0  0  0
  187.4060  176.4790  146.8640 C   0  0  0  0  0  3  0  0  0  0  0  0
  188.0890  176.3900  145.6490 C   0  0  0  0  0  0  0  0  0  0  0  0
  187.3840  176.5440  144.4480 C   0  0  0  0  0  3  0  0  0  0  0  0
  185.3150  176.9340  143.3340 F   0  0  0  0  0  0  0  0  0  0  0  0
  185.3650  176.8650  145.6830 N   0  0  0  0  0  0  0  0  0  0  0  0
  186.0090  176.7830  144.4870 C   0  0  0  0  0  0  0  0  0  0  0  0
  186.0290  176.7190  146.8610 C   0  0  0  0  0  3  0  0  0  0  0  0
  191.3890  172.9020  138.6930 C   0  0  0  0  0  2  0  0  0  0  0  0
  190.6090  173.8040  137.8590 N   0  0  0  0  0  1  0  0  0  0  0  0
  1 27  1  0  0  0  0
  2 22  1  0  0  0  0
  3  9  1  6  0  0  0
  3 20  1  0  0  0  0
  4 36  1  6  0  0  0
  4 12  1  0  0  0  0
  4  1  1  0  0  0  0
  6 11  1  0  0  0  0
  7 10  1  0  0  0  0
  7  3  1  0  0  0  0
  8 26  1  0  0  0  0
  8 18  1  0  0  0  0
  9  6  2  0  0  0  0
 10  5  1  0  0  0  0
 10 23  1  0  0  0  0
 11 16  2  0  0  0  0
 12  8  1  0  0  0  0
 13  9  1  0  0  0  0
 14  2  1  0  0  0  0
 17  2  1  0  0  0  0
 17 13  1  0  0  0  0
 18 19  1  0  0  0  0
 19  5  1  0  0  0  0
 20 15  2  0  0  0  0
 20 16  1  0  0  0  0
 21 13  1  0  0  0  0
 21  7  1  0  0  0  0
 22  6  1  0  0  0  0
 23 28  1  0  0  0  0
 24  2  1  0  0  0  0
 25 19  1  0  0  0  0
 27 25  1  0  0  0  0
 27 21  1  0  0  0  0
 28 15  1  0  0  0  0
 30 23  1  0  0  0  0
 30 29  2  0  0  0  0
 31 34  2  0  0  0  0
 31 30  1  0  0  0  0
 32 34  1  0  0  0  0
 33 35  2  0  0  0  0
 34 33  1  0  0  0  0
 35 29  1  0  0  0  0
 37 36  1  0  0  0  0
M  END
>  <MODEL>
1

>  <REMARK>
 VINA RESULT:      -8.3      0.000      0.000
  Name = 
  2 active torsions:
  status: ('A' for Active; 'I' for Inactive)
    1  A    between atoms: C_4  and  C_36
    2  A    between atoms: C_23  and  C_30
                            x       y       z     vdW  Elec       q    Type
                         _______ _______ _______ _____ _____    ______ ____

>  <TORSDO>
F 2

$$$$
=
 OpenBabel11112417263D

 37 43  0  0  1  0  0  0  0  0999 V2000
  192.2650  173.2490  141.4030 O   0  0  0  0  0  0  0  0  0  0  0  0
  194.3030  173.7140  145.3060 C   0  0  0  0  0  0  0  0  0  0  0  0
  190.4230  175.5590  144.8370 C   0  0  1  0  0  3  0  0  0  0  0  0
  192.0290  172.6670  140.1430 C   0  0  2  0  0  3  0  0  0  0  0  0
  188.6110  174.4420  142.6950 C   0  0  0  0  0  2  0  0  0  0  0  0
  192.2730  174.9080  146.3530 C   0  0  0  0  0  0  0  0  0  0  0  0
  190.5340  175.9420  143.4300 N   0  0  2  0  0  0  0  0  0  0  0  0
  190.1770  171.2170  141.3450 C   0  0  2  0  0  3  0  0  0  0  0  0
  191.6560  174.8180  145.1630 C   0  0  0  0  0  0  0  0  0  0  0  0
  189.1920  175.8680  142.7970 C   0  0  2  0  0  3  0  0  0  0  0  0
  191.7290  175.7750  147.3670 N   0  0  0  0  0  0  0  0  0  0  0  0
  191.2360  171.3480  140.2320 C   0  0  0  0  0  2  0  0  0  0  0  0
  192.2680  174.2670  143.9450 C   0  0  2  0  0  3  0  0  0  0  0  0
  194.0490  172.2170  145.2660 C   0  0  0  0  0  1  0  0  0  0  0  0
  189.4390  177.7830  145.4470 C   0  0  0  0  0  3  0  0  0  0  0  0
  190.7870  176.6390  147.1120 C   0  0  0  0  0  3  0  0  0  0  0  0
  193.7890  174.3740  144.0190 C   0  0  0  0  0  2  0  0  0  0  0  0
  189.0670  172.2780  141.3700 C   0  0  0  0  0  2  0  0  0  0  0  0
  189.5970  173.5720  141.9550 C   0  0  1  0  0  3  0  0  0  0  0  0
  190.2160  176.7380  145.7570 C   0  0  0  0  0  0  0  0  0  0  0  0
  191.6870  175.1710  142.8540 C   0  0  1  0  0  3  0  0  0  0  0  0
  193.6430  174.3100  146.5670 C   0  0  0  0  0  2  0  0  0  0  0  0
  188.1720  176.7950  143.4900 C   0  0  1  0  0  3  0  0  0  0  0  0
  195.7960  173.9390  145.3980 C   0  0  0  0  0  1  0  0  0  0  0  0
  190.2420  174.3330  140.9840 O   0  0  0  0  0  0  0  0  0  0  0  0
  190.7800  171.0710  142.5970 O   0  0  0  0  0  1  0  0  0  0  0  0
  191.5620  174.4820  141.4470 C   0  0  2  0  0  3  0  0  0  0  0  0
  188.8240  178.0410  144.0950 C   0  0  0  0  0  2  0  0  0  0  0  0
  187.3700  177.3650  141.1940 C   0  0  0  0  0  3  0  0  0  0  0  0
  187.0750  177.1840  142.5470 C   0  0  0  0  0  0  0  0  0  0  0  0
  185.7620  177.3700  142.9990 C   0  0  0  0  0  3  0  0  0  0  0  0
  183.4960  177.9190  142.5080 F   0  0  0  0  0  0  0  0  0  0  0  0
  185.0820  177.9060  140.7730 N   0  0  0  0  0  0  0  0  0  0  0  0
  184.7700  177.7350  142.0860 C   0  0  0  0  0  0  0  0  0  0  0  0
  186.3500  177.7310  140.3130 C   0  0  0  0  0  3  0  0  0  0  0  0
  193.3370  172.4640  139.3930 C   0  0  0  0  0  2  0  0  0  0  0  0
  193.6650  173.6390  138.6010 N   0  0  0  0  0  1  0  0  0  0  0  0
  1 27  1  0  0  0  0
  2 24  1  0  0  0  0
  2 22  1  0  0  0  0
  3  9  1  1  0  0  0
  3 20  1  0  0  0  0
  4 36  1  1  0  0  0
  4 12  1  0  0  0  0
  4  1  1  0  0  0  0
  5 10  1  0  0  0  0
  6 22  1  0  0  0  0
  6 11  1  0  0  0  0
  7  3  1  0  0  0  0
  8 18  1  0  0  0  0
  8 26  1  0  0  0  0
  9  6  2  0  0  0  0
 10  7  1  0  0  0  0
 10 23  1  0  0  0  0
 12  8  1  0  0  0  0
 13 17  1  0  0  0  0
 13  9  1  0  0  0  0
 14  2  1  0  0  0  0
 15 20  2  0  0  0  0
 16 11  2  0  0  0  0
 17  2  1  0  0  0  0
 18 19  1  0  0  0  0
 19  5  1  0  0  0  0
 20 16  1  0  0  0  0
 21  7  1  0  0  0  0
 21 13  1  0  0  0  0
 23 28  1  0  0  0  0
 25 27  1  0  0  0  0
 25 19  1  0  0  0  0
 27 21  1  0  0  0  0
 28 15  1  0  0  0  0
 29 30  1  0  0  0  0
 30 31  2  0  0  0  0
 30 23  1  0  0  0  0
 33 34  2  0  0  0  0
 34 32  1  0  0  0  0
 34 31  1  0  0  0  0
 35 33  1  0  0  0  0
 35 29  2  0  0  0  0
 37 36  1  0  0  0  0
M  END
>  <MODEL>
2

>  <REMARK>
 VINA RESULT:      -8.2      1.973      2.703
  Name = 
  2 active torsions:
  status: ('A' for Active; 'I' for Inactive)
    1  A    between atoms: C_4  and  C_36
    2  A    between atoms: C_23  and  C_30
                            x       y       z     vdW  Elec       q    Type
                         _______ _______ _______ _____ _____    ______ ____

>  <TORSDO>
F 2

$$$$
=
 OpenBabel11112417263D

 37 43  0  0  1  0  0  0  0  0999 V2000
  192.0110  173.2000  141.0370 O   0  0  0  0  0  0  0  0  0  0  0  0
  195.7610  173.8970  143.2860 C   0  0  0  0  0  0  0  0  0  0  0  0
  192.0730  175.2940  145.0540 C   0  0  1  0  0  3  0  0  0  0  0  0
  191.1960  172.5930  140.0620 C   0  0  2  0  0  3  0  0  0  0  0  0
  189.5150  173.9770  144.1370 C   0  0  0  0  0  2  0  0  0  0  0  0
  194.4980  174.8570  145.3170 C   0  0  0  0  0  0  0  0  0  0  0  0
  191.3800  175.6850  143.8270 N   0  0  2  0  0  0  0  0  0  0  0  0
  190.4200  170.9460  141.9750 C   0  0  2  0  0  3  0  0  0  0  0  0
  193.3550  174.6960  144.6320 C   0  0  0  0  0  0  0  0  0  0  0  0
  189.9210  175.4600  143.9990 C   0  0  2  0  0  3  0  0  0  0  0  0
  194.4990  175.6580  146.5140 N   0  0  0  0  0  0  0  0  0  0  0  0
  190.7030  171.1940  140.4800 C   0  0  0  0  0  2  0  0  0  0  0  0
  193.2710  174.2150  143.2450 C   0  0  2  0  0  3  0  0  0  0  0  0
  195.6690  172.3800  143.2980 C   0  0  0  0  0  1  0  0  0  0  0  0
  191.3580  177.3940  146.2210 C   0  0  0  0  0  3  0  0  0  0  0  0
  193.4890  176.4110  146.8480 C   0  0  0  0  0  3  0  0  0  0  0  0
  194.5790  174.4930  142.5080 C   0  0  0  0  0  2  0  0  0  0  0  0
  189.3990  171.8760  142.6470 C   0  0  0  0  0  2  0  0  0  0  0  0
  190.0320  173.2220  142.9370 C   0  0  1  0  0  3  0  0  0  0  0  0
  192.2770  176.4440  146.0100 C   0  0  0  0  0  0  0  0  0  0  0  0
  192.1150  175.0470  142.6830 C   0  0  1  0  0  3  0  0  0  0  0  0
  195.8210  174.4170  144.7360 C   0  0  0  0  0  2  0  0  0  0  0  0
  189.3440  176.2680  145.1800 C   0  0  1  0  0  3  0  0  0  0  0  0
  197.0430  174.2880  142.5840 C   0  0  0  0  0  1  0  0  0  0  0  0
  189.9830  174.0490  141.8180 O   0  0  0  0  0  0  0  0  0  0  0  0
  191.6080  170.8710  142.7060 O   0  0  0  0  0  1  0  0  0  0  0  0
  191.3250  174.3470  141.5190 C   0  0  2  0  0  3  0  0  0  0  0  0
  190.0960  177.5790  145.4190 C   0  0  0  0  0  2  0  0  0  0  0  0
  187.3960  176.7680  143.6990 C   0  0  0  0  0  3  0  0  0  0  0  0
  187.8830  176.5290  144.9860 C   0  0  0  0  0  0  0  0  0  0  0  0
  186.9970  176.5400  146.0720 C   0  0  0  0  0  3  0  0  0  0  0  0
  184.7750  176.8060  146.8880 F   0  0  0  0  0  0  0  0  0  0  0  0
  185.1920  177.0220  144.5840 N   0  0  0  0  0  0  0  0  0  0  0  0
  185.6420  176.7920  145.8480 C   0  0  0  0  0  0  0  0  0  0  0  0
  186.0340  177.0160  143.5160 C   0  0  0  0  0  3  0  0  0  0  0  0
  191.9150  172.5370  138.7220 C   0  0  0  0  0  2  0  0  0  0  0  0
  191.5270  173.6600  137.8820 N   0  0  0  0  0  1  0  0  0  0  0  0
  1 27  1  0  0  0  0
  2 14  1  0  0  0  0
  2 22  1  0  0  0  0
  3  9  1  6  0  0  0
  3 20  1  0  0  0  0
  4 36  1  6  0  0  0
  4 12  1  0  0  0  0
  4  1  1  0  0  0  0
  6 11  1  0  0  0  0
  7 10  1  0  0  0  0
  7  3  1  0  0  0  0
  8 18  1  0  0  0  0
  8 26  1  0  0  0  0
  9  6  2  0  0  0  0
 10  5  1  0  0  0  0
 10 23  1  0  0  0  0
 11 16  2  0  0  0  0
 12  8  1  0  0  0  0
 13  9  1  0  0  0  0
 17 13  1  0  0  0  0
 17  2  1  0  0  0  0
 18 19  1  0  0  0  0
 19  5  1  0  0  0  0
 20 15  2  0  0  0  0
 20 16  1  0  0  0  0
 21 13  1  0  0  0  0
 21  7  1  0  0  0  0
 22  6  1  0  0  0  0
 23 28  1  0  0  0  0
 24  2  1  0  0  0  0
 25 19  1  0  0  0  0
 27 25  1  0  0  0  0
 27 21  1  0  0  0  0
 28 15  1  0  0  0  0
 29 30  1  0  0  0  0
 30 23  1  0  0  0  0
 30 31  2  0  0  0  0
 33 34  2  0  0  0  0
 34 31  1  0  0  0  0
 34 32  1  0  0  0  0
 35 29  2  0  0  0  0
 35 33  1  0  0  0  0
 37 36  1  0  0  0  0
M  END
>  <MODEL>
3

>  <REMARK>
 VINA RESULT:      -8.1      0.792      1.112
  Name = 
  2 active torsions:
  status: ('A' for Active; 'I' for Inactive)
    1  A    between atoms: C_4  and  C_36
    2  A    between atoms: C_23  and  C_30
                            x       y       z     vdW  Elec       q    Type
                         _______ _______ _______ _____ _____    ______ ____

>  <TORSDO>
F 2

$$$$
=
 OpenBabel11112417263D

 37 43  0  0  1  0  0  0  0  0999 V2000
  192.0950  173.0320  140.5520 O   0  0  0  0  0  0  0  0  0  0  0  0
  196.2970  172.9490  141.9440 C   0  0  0  0  0  0  0  0  0  0  0  0
  193.3310  174.5980  144.6200 C   0  0  1  0  0  3  0  0  0  0  0  0
  191.0080  172.6610  139.7380 C   0  0  2  0  0  3  0  0  0  0  0  0
  190.4630  173.7520  144.1940 C   0  0  0  0  0  2  0  0  0  0  0  0
  195.6590  173.8150  144.2860 C   0  0  0  0  0  0  0  0  0  0  0  0
  192.4630  175.2220  143.6220 N   0  0  2  0  0  0  0  0  0  0  0  0
  190.4070  170.9110  141.6240 C   0  0  2  0  0  3  0  0  0  0  0  0
  194.3850  173.8920  143.8670 C   0  0  0  0  0  0  0  0  0  0  0  0
  191.0570  175.1730  144.0990 C   0  0  2  0  0  3  0  0  0  0  0  0
  196.0370  174.4590  145.5170 N   0  0  0  0  0  0  0  0  0  0  0  0
  190.4030  171.2990  140.1310 C   0  0  0  0  0  2  0  0  0  0  0  0
  193.9370  173.5970  142.4970 C   0  0  2  0  0  3  0  0  0  0  0  0
  195.9760  171.4680  141.8420 C   0  0  0  0  0  1  0  0  0  0  0  0
  193.2150  176.6180  146.1010 C   0  0  0  0  0  3  0  0  0  0  0  0
  195.2510  175.2930  146.1370 C   0  0  0  0  0  3  0  0  0  0  0  0
  195.0860  173.7860  141.5110 C   0  0  0  0  0  2  0  0  0  0  0  0
  189.7090  171.8800  142.5900 C   0  0  0  0  0  2  0  0  0  0  0  0
  190.5910  173.0860  142.8460 C   0  0  1  0  0  3  0  0  0  0  0  0
  193.9090  175.5860  145.6030 C   0  0  0  0  0  0  0  0  0  0  0  0
  192.8320  174.6360  142.2890 C   0  0  1  0  0  3  0  0  0  0  0  0
  196.7440  173.2780  143.3830 C   0  0  0  0  0  2  0  0  0  0  0  0
  190.8760  175.9020  145.4470 C   0  0  1  0  0  3  0  0  0  0  0  0
  197.4480  173.2500  141.0070 C   0  0  0  0  0  1  0  0  0  0  0  0
  190.4360  174.0410  141.8450 O   0  0  0  0  0  0  0  0  0  0  0  0
  191.6970  170.5920  142.0560 O   0  0  0  0  0  1  0  0  0  0  0  0
  191.7140  174.1920  141.2770 C   0  0  2  0  0  3  0  0  0  0  0  0
  191.8560  177.0640  145.6250 C   0  0  0  0  0  2  0  0  0  0  0  0
  188.7340  175.9610  146.7300 C   0  0  0  0  0  3  0  0  0  0  0  0
  189.4660  176.3760  145.6150 C   0  0  0  0  0  0  0  0  0  0  0  0
  188.8690  177.2240  144.6740 C   0  0  0  0  0  3  0  0  0  0  0  0
  186.9590  178.4600  143.9650 F   0  0  0  0  0  0  0  0  0  0  0  0
  186.8570  177.2230  145.9620 N   0  0  0  0  0  0  0  0  0  0  0  0
  187.5490  177.6400  144.8670 C   0  0  0  0  0  0  0  0  0  0  0  0
  187.4170  176.3990  146.8880 C   0  0  0  0  0  3  0  0  0  0  0  0
  191.4100  172.6720  138.2700 C   0  0  0  0  0  2  0  0  0  0  0  0
  192.2540  171.5300  137.9580 N   0  0  0  0  0  1  0  0  0  0  0  0
  1 27  1  0  0  0  0
  2 22  1  0  0  0  0
  3  9  1  6  0  0  0
  3 20  1  0  0  0  0
  4 36  1  6  0  0  0
  4 12  1  0  0  0  0
  4  1  1  0  0  0  0
  6 11  1  0  0  0  0
  7 10  1  0  0  0  0
  7  3  1  0  0  0  0
  8 26  1  0  0  0  0
  8 18  1  0  0  0  0
  9  6  2  0  0  0  0
 10  5  1  0  0  0  0
 10 23  1  0  0  0  0
 11 16  2  0  0  0  0
 12  8  1  0  0  0  0
 13  9  1  0  0  0  0
 14  2  1  0  0  0  0
 17  2  1  0  0  0  0
 17 13  1  0  0  0  0
 18 19  1  0  0  0  0
 19  5  1  0  0  0  0
 20 15  2  0  0  0  0
 20 16  1  0  0  0  0
 21 13  1  0  0  0  0
 21  7  1  0  0  0  0
 22  6  1  0  0  0  0
 23 30  1  0  0  0  0
 23 28  1  0  0  0  0
 24  2  1  0  0  0  0
 25 19  1  0  0  0  0
 27 25  1  0  0  0  0
 27 21  1  0  0  0  0
 28 15  1  0  0  0  0
 29 35  1  0  0  0  0
 30 29  2  0  0  0  0
 31 34  2  0  0  0  0
 31 30  1  0  0  0  0
 32 34  1  0  0  0  0
 33 35  2  0  0  0  0
 34 33  1  0  0  0  0
 37 36  1  0  0  0  0
M  END
>  <MODEL>
4

>  <REMARK>
 VINA RESULT:      -7.7      1.184      1.382
  Name = 
  2 active torsions:
  status: ('A' for Active; 'I' for Inactive)
    1  A    between atoms: C_4  and  C_36
    2  A    between atoms: C_23  and  C_30
                            x       y       z     vdW  Elec       q    Type
                         _______ _______ _______ _____ _____    ______ ____

>  <TORSDO>
F 2

$$$$
=
 OpenBabel11112417263D

 37 43  0  0  1  0  0  0  0  0999 V2000
  193.9210  173.5120  144.1140 O   0  0  0  0  0  0  0  0  0  0  0  0
  193.5260  171.8430  140.0320 C   0  0  0  0  0  0  0  0  0  0  0  0
  190.3800  174.4470  141.4460 C   0  0  1  0  0  3  0  0  0  0  0  0
  194.6050  173.8660  145.2920 C   0  0  2  0  0  3  0  0  0  0  0  0
  191.0690  176.3630  143.6760 C   0  0  0  0  0  2  0  0  0  0  0  0
  191.4030  173.2220  139.5500 C   0  0  0  0  0  0  0  0  0  0  0  0
  190.3880  174.0500  142.8540 N   0  0  2  0  0  0  0  0  0  0  0  0
  194.8600  176.2690  144.2250 C   0  0  2  0  0  3  0  0  0  0  0  0
  191.4790  173.7030  140.8010 C   0  0  0  0  0  0  0  0  0  0  0  0
  190.0290  175.2230  143.6930 C   0  0  2  0  0  3  0  0  0  0  0  0
  190.1940  173.4160  138.7910 N   0  0  0  0  0  0  0  0  0  0  0  0
  195.4220  175.1650  145.1440 C   0  0  0  0  0  2  0  0  0  0  0  0
  192.4810  173.2900  141.7960 C   0  0  2  0  0  3  0  0  0  0  0  0
  194.7530  172.7280  139.8880 C   0  0  0  0  0  1  0  0  0  0  0  0
  187.8740  174.3960  141.3640 C   0  0  0  0  0  3  0  0  0  0  0  0
  189.0930  173.8500  139.3350 C   0  0  0  0  0  3  0  0  0  0  0  0
  193.0030  171.8930  141.4750 C   0  0  0  0  0  2  0  0  0  0  0  0
  193.4540  176.7920  144.5560 C   0  0  0  0  0  2  0  0  0  0  0  0
  192.4060  175.8010  144.0920 C   0  0  1  0  0  3  0  0  0  0  0  0
  189.0560  174.1930  140.7680 C   0  0  0  0  0  0  0  0  0  0  0  0
  191.6720  173.3100  143.0960 C   0  0  1  0  0  3  0  0  0  0  0  0
  192.4570  172.2830  139.0120 C   0  0  0  0  0  2  0  0  0  0  0  0
  188.6370  175.7860  143.3380 C   0  0  1  0  0  3  0  0  0  0  0  0
  193.9300  170.4190  139.7170 C   0  0  0  0  0  1  0  0  0  0  0  0
  192.2100  174.8000  145.0400 O   0  0  0  0  0  0  0  0  0  0  0  0
  194.9730  175.9090  142.8800 O   0  0  0  0  0  1  0  0  0  0  0  0
  192.5280  173.5980  144.3820 C   0  0  2  0  0  3  0  0  0  0  0  0
  187.6790  174.7080  142.8250 C   0  0  0  0  0  2  0  0  0  0  0  0
  188.2700  176.0270  145.7970 C   0  0  0  0  0  3  0  0  0  0  0  0
  188.0380  176.5070  144.5060 C   0  0  0  0  0  0  0  0  0  0  0  0
  187.2490  177.6500  144.3260 C   0  0  0  0  0  3  0  0  0  0  0  0
  185.9420  179.3970  145.2830 F   0  0  0  0  0  0  0  0  0  0  0  0
  186.9470  177.8040  146.6900 N   0  0  0  0  0  0  0  0  0  0  0  0
  186.7060  178.2910  145.4420 C   0  0  0  0  0  0  0  0  0  0  0  0
  187.7090  176.6960  146.8880 C   0  0  0  0  0  3  0  0  0  0  0  0
  195.4890  172.7210  145.7630 C   0  0  0  0  0  2  0  0  0  0  0  0
  196.8080  173.2080  146.1380 N   0  0  0  0  0  1  0  0  0  0  0  0
  1 27  1  0  0  0  0
  1  4  1  0  0  0  0
  2 17  1  0  0  0  0
  3 20  1  6  0  0  0
  3  7  1  0  0  0  0
  4 36  1  6  0  0  0
  5 10  1  0  0  0  0
  5 19  1  0  0  0  0
  6  9  2  0  0  0  0
  7 21  1  0  0  0  0
  7 10  1  0  0  0  0
  8 18  1  0  0  0  0
  8 12  1  0  0  0  0
  9  3  1  0  0  0  0
  9 13  1  0  0  0  0
 11 16  2  0  0  0  0
 11  6  1  0  0  0  0
 12  4  1  0  0  0  0
 13 21  1  0  0  0  0
 14  2  1  0  0  0  0
 15 28  1  0  0  0  0
 16 20  1  0  0  0  0
 17 13  1  0  0  0  0
 19 18  1  0  0  0  0
 19 25  1  0  0  0  0
 20 15  2  0  0  0  0
 21 27  1  0  0  0  0
 22  6  1  0  0  0  0
 22  2  1  0  0  0  0
 23 10  1  0  0  0  0
 23 30  1  0  0  0  0
 24  2  1  0  0  0  0
 26  8  1  0  0  0  0
 27 25  1  0  0  0  0
 28 23  1  0  0  0  0
 29 35  1  0  0  0  0
 30 29  2  0  0  0  0
 31 30  1  0  0  0  0
 31 34  2  0  0  0  0
 32 34  1  0  0  0  0
 33 35  2  0  0  0  0
 34 33  1  0  0  0  0
 36 37  1  0  0  0  0
M  END
>  <MODEL>
5

>  <REMARK>
 VINA RESULT:      -7.7      2.213      5.189
  Name = 
  2 active torsions:
  status: ('A' for Active; 'I' for Inactive)
    1  A    between atoms: C_4  and  C_36
    2  A    between atoms: C_23  and  C_30
                            x       y       z     vdW  Elec       q    Type
                         _______ _______ _______ _____ _____    ______ ____

>  <TORSDO>
F 2

$$$$
=
 OpenBabel11112417263D

 37 43  0  0  1  0  0  0  0  0999 V2000
  190.9170  175.0070  143.9500 O   0  0  0  0  0  0  0  0  0  0  0  0
  188.1240  177.0910  146.6810 C   0  0  0  0  0  0  0  0  0  0  0  0
  186.8430  176.4590  142.6030 C   0  0  1  0  0  3  0  0  0  0  0  0
  192.0240  174.2030  143.6200 C   0  0  2  0  0  3  0  0  0  0  0  0
  188.1750  174.2280  141.0650 C   0  0  0  0  0  2  0  0  0  0  0  0
  186.2540  177.1490  144.9090 C   0  0  0  0  0  0  0  0  0  0  0  0
  188.1380  176.6200  141.9420 N   0  0  2  0  0  0  0  0  0  0  0  0
  190.3180  172.1900  143.5010 C   0  0  2  0  0  3  0  0  0  0  0  0
  187.1020  176.5600  144.0520 C   0  0  0  0  0  0  0  0  0  0  0  0
  188.1870  175.7380  140.7470 C   0  0  2  0  0  3  0  0  0  0  0  0
  185.0350  177.7310  144.4090 N   0  0  0  0  0  0  0  0  0  0  0  0
  191.7450  172.6970  143.7940 C   0  0  0  0  0  2  0  0  0  0  0  0
  188.5080  176.2440  144.3500 C   0  0  2  0  0  3  0  0  0  0  0  0
  188.1930  175.7080  147.3060 C   0  0  0  0  0  1  0  0  0  0  0  0
  185.6970  177.8670  140.8720 C   0  0  0  0  0  3  0  0  0  0  0  0
  184.8160  177.9010  143.1360 C   0  0  0  0  0  3  0  0  0  0  0  0
  189.0360  177.1630  145.4480 C   0  0  0  0  0  2  0  0  0  0  0  0
  189.7590  172.4760  142.0990 C   0  0  0  0  0  2  0  0  0  0  0  0
  189.3210  173.9240  141.9980 C   0  0  1  0  0  3  0  0  0  0  0  0
  185.8160  177.4670  142.1450 C   0  0  0  0  0  0  0  0  0  0  0  0
  189.1910  176.5120  143.0070 C   0  0  1  0  0  3  0  0  0  0  0  0
  186.6580  177.4250  146.3380 C   0  0  0  0  0  2  0  0  0  0  0  0
  187.0660  176.0650  139.7380 C   0  0  1  0  0  3  0  0  0  0  0  0
  188.6160  178.0960  147.7010 C   0  0  0  0  0  1  0  0  0  0  0  0
  190.3980  174.7510  141.6900 O   0  0  0  0  0  0  0  0  0  0  0  0
  189.4290  172.5870  144.5020 O   0  0  0  0  0  1  0  0  0  0  0  0
  190.4870  175.6570  142.7630 C   0  0  2  0  0  3  0  0  0  0  0  0
  186.6630  177.5410  139.7630 C   0  0  0  0  0  2  0  0  0  0  0  0
  187.0110  176.4050  137.2650 C   0  0  0  0  0  3  0  0  0  0  0  0
  187.4550  175.6510  138.3530 C   0  0  0  0  0  0  0  0  0  0  0  0
  188.2540  174.5220  138.1300 C   0  0  0  0  0  3  0  0  0  0  0  0
  189.3620  173.0800  136.5900 F   0  0  0  0  0  0  0  0  0  0  0  0
  188.1460  174.9200  135.7770 N   0  0  0  0  0  0  0  0  0  0  0  0
  188.5910  174.1690  136.8210 C   0  0  0  0  0  0  0  0  0  0  0  0
  187.3690  176.0200  135.9710 C   0  0  0  0  0  3  0  0  0  0  0  0
  193.2490  174.6230  144.4210 C   0  0  0  0  0  2  0  0  0  0  0  0
  193.3770  173.8180  145.6260 N   0  0  0  0  0  1  0  0  0  0  0  0
  2 14  1  0  0  0  0
  2 24  1  0  0  0  0
  3 20  1  6  0  0  0
  3  9  1  0  0  0  0
  4 12  1  0  0  0  0
  4  1  1  0  0  0  0
  4 36  1  1  0  0  0
  5 19  1  0  0  0  0
  6 22  1  0  0  0  0
  7  3  1  0  0  0  0
  7 21  1  0  0  0  0
  8 12  1  0  0  0  0
  8 26  1  0  0  0  0
  9 13  1  0  0  0  0
  9  6  2  0  0  0  0
 10  5  1  0  0  0  0
 10  7  1  0  0  0  0
 11  6  1  0  0  0  0
 13 17  1  0  0  0  0
 15 20  2  0  0  0  0
 16 11  2  0  0  0  0
 17  2  1  0  0  0  0
 18  8  1  0  0  0  0
 19 18  1  0  0  0  0
 20 16  1  0  0  0  0
 21 13  1  0  0  0  0
 22  2  1  0  0  0  0
 23 28  1  0  0  0  0
 23 10  1  0  0  0  0
 25 19  1  0  0  0  0
 25 27  1  0  0  0  0
 27 21  1  0  0  0  0
 27  1  1  0  0  0  0
 28 15  1  0  0  0  0
 29 30  1  0  0  0  0
 30 23  1  0  0  0  0
 31 30  2  0  0  0  0
 32 34  1  0  0  0  0
 33 35  1  0  0  0  0
 33 34  2  0  0  0  0
 34 31  1  0  0  0  0
 35 29  2  0  0  0  0
 36 37  1  0  0  0  0
M  END
>  <MODEL>
6

>  <REMARK>
 VINA RESULT:      -7.4      3.135      7.053
  Name = 
  2 active torsions:
  status: ('A' for Active; 'I' for Inactive)
    1  A    between atoms: C_4  and  C_36
    2  A    between atoms: C_23  and  C_30
                            x       y       z     vdW  Elec       q    Type
                         _______ _______ _______ _____ _____    ______ ____

>  <TORSDO>
F 2

$$$$
=
 OpenBabel11112417263D

 37 43  0  0  1  0  0  0  0  0999 V2000
  192.8340  175.0850  143.7990 O   0  0  0  0  0  0  0  0  0  0  0  0
  190.8250  176.4640  147.4950 C   0  0  0  0  0  0  0  0  0  0  0  0
  188.3730  175.8570  143.9880 C   0  0  1  0  0  3  0  0  0  0  0  0
  193.8760  174.5150  143.0440 C   0  0  2  0  0  3  0  0  0  0  0  0
  189.4410  173.9990  141.8610 C   0  0  0  0  0  2  0  0  0  0  0  0
  188.4860  176.2900  146.4260 C   0  0  0  0  0  0  0  0  0  0  0  0
  189.3360  176.2870  142.9750 N   0  0  2  0  0  0  0  0  0  0  0  0
  192.5510  172.2380  143.2390 C   0  0  2  0  0  3  0  0  0  0  0  0
  189.0810  175.9150  145.2820 C   0  0  0  0  0  0  0  0  0  0  0  0
  189.1180  175.5030  141.7320 C   0  0  2  0  0  3  0  0  0  0  0  0
  187.0980  176.6710  146.4090 N   0  0  0  0  0  0  0  0  0  0  0  0
  193.9010  172.9760  143.1220 C   0  0  0  0  0  2  0  0  0  0  0  0
  190.5360  175.8410  145.0810 C   0  0  2  0  0  3  0  0  0  0  0  0
  191.3050  175.0810  147.9010 C   0  0  0  0  0  1  0  0  0  0  0  0
  186.5200  177.1360  142.8850 C   0  0  0  0  0  3  0  0  0  0  0  0
  186.4460  176.8750  145.2990 C   0  0  0  0  0  3  0  0  0  0  0  0
  191.2540  176.7720  146.0540 C   0  0  0  0  0  2  0  0  0  0  0  0
  191.5220  172.5020  142.1300 C   0  0  0  0  0  2  0  0  0  0  0  0
  190.8630  173.8510  142.3410 C   0  0  1  0  0  3  0  0  0  0  0  0
  187.1140  176.6890  143.9990 C   0  0  0  0  0  0  0  0  0  0  0  0
  190.6870  176.3080  143.6310 C   0  0  1  0  0  3  0  0  0  0  0  0
  189.2950  176.5470  147.6750 C   0  0  0  0  0  2  0  0  0  0  0  0
  187.6910  175.6810  141.1750 C   0  0  1  0  0  3  0  0  0  0  0  0
  191.4700  177.4780  148.4150 C   0  0  0  0  0  1  0  0  0  0  0  0
  191.6380  174.8760  141.8050 O   0  0  0  0  0  0  0  0  0  0  0  0
  191.9950  172.4070  144.5100 O   0  0  0  0  0  1  0  0  0  0  0  0
  191.9410  175.7170  142.8920 C   0  0  2  0  0  3  0  0  0  0  0  0
  187.1000  177.0560  141.4970 C   0  0  0  0  0  2  0  0  0  0  0  0
  186.9290  176.2910  138.8760 C   0  0  0  0  0  3  0  0  0  0  0  0
  187.6560  175.4280  139.7000 C   0  0  0  0  0  0  0  0  0  0  0  0
  188.3360  174.3430  139.1330 C   0  0  0  0  0  3  0  0  0  0  0  0
  188.9270  173.0960  137.1900 F   0  0  0  0  0  0  0  0  0  0  0  0
  187.5590  174.9960  136.9710 N   0  0  0  0  0  0  0  0  0  0  0  0
  188.2740  174.1410  137.7520 C   0  0  0  0  0  0  0  0  0  0  0  0
  186.8910  176.0560  137.5000 C   0  0  0  0  0  3  0  0  0  0  0  0
  195.2190  175.1000  143.4590 C   0  0  0  0  0  2  0  0  0  0  0  0
  195.5710  176.2310  142.6140 N   0  0  0  0  0  1  0  0  0  0  0  0
  2 22  1  0  0  0  0
  2 14  1  0  0  0  0
  2 24  1  0  0  0  0
  3 20  1  1  0  0  0
  3  9  1  0  0  0  0
  4 12  1  0  0  0  0
  4 36  1  1  0  0  0
  4  1  1  0  0  0  0
  5 19  1  0  0  0  0
  6 22  1  0  0  0  0
  7 21  1  0  0  0  0
  7  3  1  0  0  0  0
  8 26  1  0  0  0  0
  9  6  2  0  0  0  0
 10  5  1  0  0  0  0
 10  7  1  0  0  0  0
 11  6  1  0  0  0  0
 12  8  1  0  0  0  0
 13  9  1  0  0  0  0
 13 17  1  0  0  0  0
 15 20  2  0  0  0  0
 16 11  2  0  0  0  0
 17  2  1  0  0  0  0
 18 19  1  0  0  0  0
 18  8  1  0  0  0  0
 20 16  1  0  0  0  0
 21 13  1  0  0  0  0
 23 28  1  0  0  0  0
 23 10  1  0  0  0  0
 25 19  1  0  0  0  0
 25 27  1  0  0  0  0
 27 21  1  0  0  0  0
 27  1  1  0  0  0  0
 28 15  1  0  0  0  0
 29 30  1  0  0  0  0
 30 23  1  0  0  0  0
 31 30  2  0  0  0  0
 32 34  1  0  0  0  0
 33 35  1  0  0  0  0
 33 34  2  0  0  0  0
 34 31  1  0  0  0  0
 35 29  2  0  0  0  0
 37 36  1  0  0  0  0
M  END
>  <MODEL>
7

>  <REMARK>
 VINA RESULT:      -7.1      2.795      5.808
  Name = 
  2 active torsions:
  status: ('A' for Active; 'I' for Inactive)
    1  A    between atoms: C_4  and  C_36
    2  A    between atoms: C_23  and  C_30
                            x       y       z     vdW  Elec       q    Type
                         _______ _______ _______ _____ _____    ______ ____

>  <TORSDO>
F 2

$$$$
=
 OpenBabel11112417263D

 37 43  0  0  1  0  0  0  0  0999 V2000
  195.3880  172.0800  144.4490 O   0  0  0  0  0  0  0  0  0  0  0  0
  195.3940  171.3640  140.0800 C   0  0  0  0  0  0  0  0  0  0  0  0
  192.0990  173.6160  141.7380 C   0  0  1  0  0  3  0  0  0  0  0  0
  195.9560  172.1570  145.7340 C   0  0  2  0  0  3  0  0  0  0  0  0
  192.5560  174.9820  144.3920 C   0  0  0  0  0  2  0  0  0  0  0  0
  193.3070  172.8340  139.7210 C   0  0  0  0  0  0  0  0  0  0  0  0
  191.9810  172.9150  143.0170 N   0  0  2  0  0  0  0  0  0  0  0  0
  196.2800  174.7340  145.2560 C   0  0  2  0  0  3  0  0  0  0  0  0
  193.2620  173.0240  141.0490 C   0  0  0  0  0  0  0  0  0  0  0  0
  191.5320  173.8760  144.0580 C   0  0  2  0  0  3  0  0  0  0  0  0
  192.1720  173.2020  138.9150 N   0  0  0  0  0  0  0  0  0  0  0  0
  196.7680  173.4480  145.9550 C   0  0  0  0  0  2  0  0  0  0  0  0
  194.1720  172.3920  142.0160 C   0  0  2  0  0  3  0  0  0  0  0  0
  196.6180  172.2470  140.2500 C   0  0  0  0  0  1  0  0  0  0  0  0
  189.6120  173.6070  141.4150 C   0  0  0  0  0  3  0  0  0  0  0  0
  191.0200  173.5150  139.4370 C   0  0  0  0  0  3  0  0  0  0  0  0
  194.7390  171.0960  141.4420 C   0  0  0  0  0  2  0  0  0  0  0  0
  194.8440  175.1830  145.5630 C   0  0  0  0  0  2  0  0  0  0  0  0
  193.8550  174.3290  144.7950 C   0  0  1  0  0  3  0  0  0  0  0  0
  190.8460  173.5310  140.9000 C   0  0  0  0  0  0  0  0  0  0  0  0
  193.2470  172.1290  143.2070 C   0  0  1  0  0  3  0  0  0  0  0  0
  194.4170  172.0280  139.0880 C   0  0  0  0  0  2  0  0  0  0  0  0
  190.1720  174.5160  143.7100 C   0  0  1  0  0  3  0  0  0  0  0  0
  195.8420  170.0420  139.4950 C   0  0  0  0  0  1  0  0  0  0  0  0
  193.5840  173.1450  145.4750 O   0  0  0  0  0  0  0  0  0  0  0  0
  196.5210  174.6820  143.8810 O   0  0  0  0  0  1  0  0  0  0  0  0
  193.9760  172.1170  144.5980 C   0  0  2  0  0  3  0  0  0  0  0  0
  189.2790  173.5880  142.8840 C   0  0  0  0  0  2  0  0  0  0  0  0
  189.6280  174.2440  146.1320 C   0  0  0  0  0  3  0  0  0  0  0  0
  189.4590  174.9650  144.9480 C   0  0  0  0  0  0  0  0  0  0  0  0
  188.6260  176.0910  144.9380 C   0  0  0  0  0  3  0  0  0  0  0  0
  187.1680  177.5600  146.1190 F   0  0  0  0  0  0  0  0  0  0  0  0
  188.1570  175.7550  147.2550 N   0  0  0  0  0  0  0  0  0  0  0  0
  187.9770  176.4730  146.1140 C   0  0  0  0  0  0  0  0  0  0  0  0
  188.9610  174.6580  147.2880 C   0  0  0  0  0  3  0  0  0  0  0  0
  196.8070  170.9270  146.0190 C   0  0  0  0  0  2  0  0  0  0  0  0
  197.0100  170.1500  144.8060 N   0  0  0  0  0  1  0  0  0  0  0  0
  1 27  1  0  0  0  0
  1  4  1  0  0  0  0
  2 14  1  0  0  0  0
  2 17  1  0  0  0  0
  3 20  1  6  0  0  0
  3  7  1  0  0  0  0
  4 12  1  0  0  0  0
  4 36  1  6  0  0  0
  5 19  1  0  0  0  0
  6  9  2  0  0  0  0
  7 21  1  0  0  0  0
  7 10  1  0  0  0  0
  8 18  1  0  0  0  0
  8 12  1  0  0  0  0
  9  3  1  0  0  0  0
  9 13  1  0  0  0  0
 10  5  1  0  0  0  0
 11 16  2  0  0  0  0
 11  6  1  0  0  0  0
 13 21  1  0  0  0  0
 15 28  1  0  0  0  0
 16 20  1  0  0  0  0
 17 13  1  0  0  0  0
 19 25  1  0  0  0  0
 19 18  1  0  0  0  0
 20 15  2  0  0  0  0
 21 27  1  0  0  0  0
 22  6  1  0  0  0  0
 22  2  1  0  0  0  0
 23 10  1  0  0  0  0
 23 30  1  0  0  0  0
 24  2  1  0  0  0  0
 26  8  1  0  0  0  0
 27 25  1  0  0  0  0
 28 23  1  0  0  0  0
 29 35  1  0  0  0  0
 30 29  2  0  0  0  0
 31 30  1  0  0  0  0
 31 34  2  0  0  0  0
 33 35  2  0  0  0  0
 34 32  1  0  0  0  0
 34 33  1  0  0  0  0
 37 36  1  0  0  0  0
M  END
>  <MODEL>
8

>  <REMARK>
 VINA RESULT:      -7.1      2.661      5.399
  Name = 
  2 active torsions:
  status: ('A' for Active; 'I' for Inactive)
    1  A    between atoms: C_4  and  C_36
    2  A    between atoms: C_23  and  C_30
                            x       y       z     vdW  Elec       q    Type
                         _______ _______ _______ _____ _____    ______ ____

>  <TORSDO>
F 2

$$$$
=
 OpenBabel11112417263D

 37 43  0  0  1  0  0  0  0  0999 V2000
  190.1430  173.2170  142.7240 O   0  0  0  0  0  0  0  0  0  0  0  0
  188.9210  173.6220  138.4880 C   0  0  0  0  0  0  0  0  0  0  0  0
  187.3390  176.4840  141.3140 C   0  0  1  0  0  3  0  0  0  0  0  0
  190.9460  172.7630  143.7880 C   0  0  2  0  0  3  0  0  0  0  0  0
  188.8840  176.8960  143.8750 C   0  0  0  0  0  2  0  0  0  0  0  0
  187.6410  175.8110  138.9480 C   0  0  0  0  0  0  0  0  0  0  0  0
  187.2050  175.5960  142.4680 N   0  0  2  0  0  0  0  0  0  0  0  0
  192.2330  175.0600  143.5780 C   0  0  2  0  0  3  0  0  0  0  0  0
  187.9620  175.6800  140.2450 C   0  0  0  0  0  0  0  0  0  0  0  0
  187.4400  176.3740  143.7110 C   0  0  2  0  0  3  0  0  0  0  0  0
  186.6320  176.7630  138.5620 N   0  0  0  0  0  0  0  0  0  0  0  0
  192.2580  173.5580  143.9300 C   0  0  0  0  0  2  0  0  0  0  0  0
  188.6950  174.5390  140.8130 C   0  0  2  0  0  3  0  0  0  0  0  0
  190.4110  173.9080  138.4090 C   0  0  0  0  0  1  0  0  0  0  0  0
  185.0810  177.4940  141.7290 C   0  0  0  0  0  3  0  0  0  0  0  0
  185.8630  177.3540  139.4330 C   0  0  0  0  0  3  0  0  0  0  0  0
  188.5180  173.3040  139.9350 C   0  0  0  0  0  2  0  0  0  0  0  0
  191.2270  175.9310  144.3460 C   0  0  0  0  0  2  0  0  0  0  0  0
  189.8310  175.7250  143.7930 C   0  0  1  0  0  3  0  0  0  0  0  0
  186.0250  177.0830  140.8730 C   0  0  0  0  0  0  0  0  0  0  0  0
  188.0200  174.3680  142.1770 C   0  0  1  0  0  3  0  0  0  0  0  0
  188.1390  174.8230  137.9190 C   0  0  0  0  0  2  0  0  0  0  0  0
  186.4460  177.5440  143.8610 C   0  0  1  0  0  3  0  0  0  0  0  0
  188.6260  172.4110  137.6300 C   0  0  0  0  0  1  0  0  0  0  0  0
  189.2280  174.6050  144.3610 O   0  0  0  0  0  0  0  0  0  0  0  0
  192.1330  175.2510  142.1980 O   0  0  0  0  0  1  0  0  0  0  0  0
  188.9490  173.7480  143.2820 C   0  0  2  0  0  3  0  0  0  0  0  0
  185.0890  177.2510  143.2160 C   0  0  0  0  0  2  0  0  0  0  0  0
  186.0830  179.2600  145.6390 C   0  0  0  0  0  3  0  0  0  0  0  0
  186.2720  177.9190  145.3000 C   0  0  0  0  0  0  0  0  0  0  0  0
  186.2960  176.9490  146.3110 C   0  0  0  0  0  3  0  0  0  0  0  0
  186.1540  176.4150  148.6280 F   0  0  0  0  0  0  0  0  0  0  0  0
  185.9510  178.6550  147.9460 N   0  0  0  0  0  0  0  0  0  0  0  0
  186.1330  177.3410  147.6410 C   0  0  0  0  0  0  0  0  0  0  0  0
  185.9240  179.6130  146.9810 C   0  0  0  0  0  3  0  0  0  0  0  0
  191.2270  171.2730  143.6480 C   0  0  0  0  0  2  0  0  0  0  0  0
  190.7070  170.7670  142.3880 N   0  0  0  0  0  1  0  0  0  0  0  0
  1 27  1  0  0  0  0
  1  4  1  0  0  0  0
  2 17  1  0  0  0  0
  3  9  1  6  0  0  0
  3  7  1  0  0  0  0
  4 36  1  6  0  0  0
  4 12  1  0  0  0  0
  6  9  2  0  0  0  0
  7 10  1  0  0  0  0
  8 12  1  0  0  0  0
  8 18  1  0  0  0  0
  9 13  1  0  0  0  0
 10 23  1  0  0  0  0
 10  5  1  0  0  0  0
 11  6  1  0  0  0  0
 11 16  2  0  0  0  0
 13 21  1  0  0  0  0
 14  2  1  0  0  0  0
 15 28  1  0  0  0  0
 16 20  1  0  0  0  0
 17 13  1  0  0  0  0
 19  5  1  0  0  0  0
 19 18  1  0  0  0  0
 19 25  1  0  0  0  0
 20  3  1  0  0  0  0
 20 15  2  0  0  0  0
 21  7  1  0  0  0  0
 21 27  1  0  0  0  0
 22  2  1  0  0  0  0
 22  6  1  0  0  0  0
 23 30  1  0  0  0  0
 24  2  1  0  0  0  0
 26  8  1  0  0  0  0
 27 25  1  0  0  0  0
 28 23  1  0  0  0  0
 29 35  1  0  0  0  0
 30 29  2  0  0  0  0
 30 31  1  0  0  0  0
 31 34  2  0  0  0  0
 34 33  1  0  0  0  0
 34 32  1  0  0  0  0
 35 33  2  0  0  0  0
 37 36  1  0  0  0  0
M  END
>  <MODEL>
9

>  <REMARK>
 VINA RESULT:      -7.1      2.907      5.946
  Name = 
  2 active torsions:
  status: ('A' for Active; 'I' for Inactive)
    1  A    between atoms: C_4  and  C_36
    2  A    between atoms: C_23  and  C_30
                            x       y       z     vdW  Elec       q    Type
                         _______ _______ _______ _____ _____    ______ ____

>  <TORSDO>
F 2

$$$$
