=
 OpenBabel11112416143D

 30 35  0  0  1  0  0  0  0  0999 V2000
  186.5120  177.6970  143.7210 C   0  0  0  0  0  0  0  0  0  0  0  0
  184.6570  178.7020  145.0640 C   0  0  0  0  0  0  0  0  0  0  0  0
  188.3490  176.0210  147.1860 C   0  0  0  0  0  2  0  0  0  0  0  0
  187.6990  176.9240  143.6920 C   0  0  0  0  0  0  0  0  0  0  0  0
  186.0370  178.3330  142.4410 C   0  0  0  0  0  2  0  0  0  0  0  0
  187.7380  176.1440  140.0740 O   0  0  0  0  0  0  0  0  0  0  0  0
  190.5990  177.1370  143.1730 C   0  0  1  0  0  3  0  0  0  0  0  0
  187.4190  176.6580  141.1810 C   0  0  0  0  0  0  0  0  0  0  0  0
  190.7060  176.5120  144.5610 C   0  0  2  0  0  3  0  0  0  0  0  0
  189.5320  175.3640  146.4490 C   0  0  1  0  0  3  0  0  0  0  0  0
  186.2390  177.4670  141.2880 N   0  0  0  0  0  0  0  0  0  0  0  0
  188.2310  176.3440  142.4030 C   0  0  1  0  0  3  0  0  0  0  0  0
  184.0420  178.8880  146.3050 C   0  0  0  0  0  3  0  0  0  0  0  0
  191.8850  175.5890  144.4620 C   0  0  0  0  0  2  0  0  0  0  0  0
  191.9670  177.2240  142.6690 N   0  0  0  0  0  2  0  0  0  0  0  0
  184.0620  179.2560  143.9790 F   0  0  0  0  0  0  0  0  0  0  0  0
  187.5870  176.6650  146.0860 C   0  0  0  0  0  0  0  0  0  0  0  0
  184.5900  178.3360  147.4620 C   0  0  0  0  0  3  0  0  0  0  0  0
  185.8520  177.9450  144.9640 C   0  0  0  0  0  0  0  0  0  0  0  0
  188.2380  176.4890  144.9030 C   0  0  0  0  0  0  0  0  0  0  0  0
  189.3640  173.8560  146.4590 C   0  0  0  0  0  1  0  0  0  0  0  0
  189.4990  175.8550  145.0690 N   0  0  0  0  0  0  0  0  0  0  0  0
  192.7730  176.2700  143.4360 C   0  0  0  0  0  2  0  0  0  0  0  0
  190.2090  175.0580  141.9790 O   0  0  0  0  0  1  0  0  0  0  0  0
  185.7630  177.5910  147.3900 C   0  0  0  0  0  3  0  0  0  0  0  0
  186.3970  177.3900  146.1590 C   0  0  0  0  0  0  0  0  0  0  0  0
  189.7440  176.3640  142.1560 C   0  0  2  0  0  3  0  0  0  0  0  0
  185.3570  177.6510  140.1440 C   0  0  0  0  0  2  0  0  0  0  0  0
  182.9840  177.8010  140.1340 O   0  0  0  0  0  1  0  0  0  0  0  0
  184.1400  178.4600  140.5510 C   0  0  0  0  0  2  0  0  0  0  0  0
  1 19  1  0  0  0  0
  2 13  1  0  0  0  0
  4  1  2  0  0  0  0
  4 20  1  0  0  0  0
  5  1  1  0  0  0  0
  6  8  2  0  0  0  0
  7 15  1  6  0  0  0
  7  9  1  0  0  0  0
  8 11  1  0  0  0  0
  9 14  1  6  0  0  0
  9 22  1  0  0  0  0
 10 21  1  6  0  0  0
 10  3  1  0  0  0  0
 11  5  1  0  0  0  0
 12  8  1  6  0  0  0
 12  4  1  0  0  0  0
 13 18  2  0  0  0  0
 15 23  1  0  0  0  0
 16  2  1  0  0  0  0
 17 26  1  0  0  0  0
 17  3  1  0  0  0  0
 19  2  2  0  0  0  0
 19 26  1  0  0  0  0
 20 22  1  0  0  0  0
 20 17  2  0  0  0  0
 22 10  1  0  0  0  0
 23 14  1  0  0  0  0
 25 18  1  0  0  0  0
 26 25  2  0  0  0  0
 27 24  1  1  0  0  0
 27 12  1  0  0  0  0
 27  7  1  0  0  0  0
 28 30  1  0  0  0  0
 28 11  1  0  0  0  0
 29 30  1  0  0  0  0
M  END
>  <MODEL>
1

>  <REMARK>
 VINA RESULT:      -9.0      0.000      0.000
  Name = 
  2 active torsions:
  status: ('A' for Active; 'I' for Inactive)
    1  A    between atoms: N_11  and  C_28
    2  A    between atoms: C_28  and  C_30
                            x       y       z     vdW  Elec       q    Type
                         _______ _______ _______ _____ _____    ______ ____

>  <TORSDO>
F 2

$$$$
=
 OpenBabel11112416143D

 30 35  0  0  1  0  0  0  0  0999 V2000
  187.7910  176.5850  145.7620 C   0  0  0  0  0  0  0  0  0  0  0  0
  186.0070  177.6460  147.1570 C   0  0  0  0  0  0  0  0  0  0  0  0
  185.6670  177.3560  142.1450 C   0  0  0  0  0  2  0  0  0  0  0  0
  188.2640  176.2290  144.4750 C   0  0  0  0  0  0  0  0  0  0  0  0
  188.5820  176.1450  146.9660 C   0  0  0  0  0  2  0  0  0  0  0  0
  191.8140  175.6560  145.3530 O   0  0  0  0  0  0  0  0  0  0  0  0
  188.8210  173.8810  142.7710 C   0  0  1  0  0  3  0  0  0  0  0  0
  190.5760  175.8730  145.4660 C   0  0  0  0  0  0  0  0  0  0  0  0
  187.9050  174.6070  141.7910 C   0  0  2  0  0  3  0  0  0  0  0  0
  186.7070  176.7240  141.2000 C   0  0  1  0  0  3  0  0  0  0  0  0
  190.0180  176.2240  146.7400 N   0  0  0  0  0  0  0  0  0  0  0  0
  189.7080  175.8500  144.2430 C   0  0  1  0  0  3  0  0  0  0  0  0
  184.7860  178.3230  147.2280 C   0  0  0  0  0  3  0  0  0  0  0  0
  188.5100  174.3330  140.4450 C   0  0  0  0  0  2  0  0  0  0  0  0
  189.3180  172.7080  142.0580 N   0  0  0  0  0  2  0  0  0  0  0  0
  186.6580  177.4010  148.3210 F   0  0  0  0  0  0  0  0  0  0  0  0
  186.2760  177.1660  143.4860 C   0  0  0  0  0  0  0  0  0  0  0  0
  184.0690  178.6220  146.0700 C   0  0  0  0  0  3  0  0  0  0  0  0
  186.5360  177.2550  145.9010 C   0  0  0  0  0  0  0  0  0  0  0  0
  187.4440  176.4750  143.3740 C   0  0  0  0  0  0  0  0  0  0  0  0
  187.4000  177.8130  140.4030 C   0  0  0  0  0  1  0  0  0  0  0  0
  187.6850  176.0330  142.0450 N   0  0  0  0  0  0  0  0  0  0  0  0
  189.1510  172.9690  140.6250 C   0  0  0  0  0  2  0  0  0  0  0  0
  190.8250  175.1470  142.2420 O   0  0  0  0  0  1  0  0  0  0  0  0
  184.5660  178.2450  144.8260 C   0  0  0  0  0  3  0  0  0  0  0  0
  185.7860  177.5680  144.7290 C   0  0  0  0  0  0  0  0  0  0  0  0
  190.0210  174.6910  143.2900 C   0  0  2  0  0  3  0  0  0  0  0  0
  190.8750  176.4020  147.9040 C   0  0  0  0  0  2  0  0  0  0  0  0
  191.5780  177.9820  149.5360 O   0  0  0  0  0  1  0  0  0  0  0  0
  190.8210  177.8430  148.3740 C   0  0  0  0  0  2  0  0  0  0  0  0
  1 19  1  0  0  0  0
  1  5  1  0  0  0  0
  2 13  1  0  0  0  0
  2 16  1  0  0  0  0
  3 17  1  0  0  0  0
  4  1  2  0  0  0  0
  6  8  2  0  0  0  0
  7 15  1  6  0  0  0
  7 27  1  0  0  0  0
  8 11  1  0  0  0  0
  9 14  1  6  0  0  0
  9 22  1  0  0  0  0
  9  7  1  0  0  0  0
 10 21  1  1  0  0  0
 10 22  1  0  0  0  0
 10  3  1  0  0  0  0
 11  5  1  0  0  0  0
 11 28  1  0  0  0  0
 12  4  1  1  0  0  0
 12  8  1  0  0  0  0
 14 23  1  0  0  0  0
 17 26  1  0  0  0  0
 18 13  2  0  0  0  0
 19  2  2  0  0  0  0
 20 17  2  0  0  0  0
 20  4  1  0  0  0  0
 22 20  1  0  0  0  0
 23 15  1  0  0  0  0
 25 18  1  0  0  0  0
 26 25  2  0  0  0  0
 26 19  1  0  0  0  0
 27 24  1  6  0  0  0
 27 12  1  0  0  0  0
 28 30  1  0  0  0  0
 30 29  1  0  0  0  0
M  END
>  <MODEL>
2

>  <REMARK>
 VINA RESULT:      -8.5      2.571      5.347
  Name = 
  2 active torsions:
  status: ('A' for Active; 'I' for Inactive)
    1  A    between atoms: N_11  and  C_28
    2  A    between atoms: C_28  and  C_30
                            x       y       z     vdW  Elec       q    Type
                         _______ _______ _______ _____ _____    ______ ____

>  <TORSDO>
F 2

$$$$
=
 OpenBabel11112416143D

 30 35  0  0  1  0  0  0  0  0999 V2000
  188.6260  175.7730  143.1700 C   0  0  0  0  0  0  0  0  0  0  0  0
  186.3770  176.8560  143.3110 C   0  0  0  0  0  0  0  0  0  0  0  0
  189.7480  177.1960  147.0310 C   0  0  0  0  0  2  0  0  0  0  0  0
  189.8760  175.5030  143.7810 C   0  0  0  0  0  0  0  0  0  0  0  0
  188.4060  175.3140  141.7530 C   0  0  0  0  0  2  0  0  0  0  0  0
  190.9230  172.6810  141.6280 O   0  0  0  0  0  0  0  0  0  0  0  0
  192.7580  176.1070  143.5430 C   0  0  1  0  0  3  0  0  0  0  0  0
  190.2710  173.6650  142.0730 C   0  0  0  0  0  0  0  0  0  0  0  0
  192.5980  176.5440  144.9960 C   0  0  2  0  0  3  0  0  0  0  0  0
  191.1550  176.5680  147.0410 C   0  0  1  0  0  3  0  0  0  0  0  0
  189.0040  174.0110  141.4960 N   0  0  0  0  0  0  0  0  0  0  0  0
  190.7870  174.4130  143.2660 C   0  0  1  0  0  3  0  0  0  0  0  0
  185.4520  177.6050  144.0440 C   0  0  0  0  0  3  0  0  0  0  0  0
  193.8780  176.1180  145.6540 C   0  0  0  0  0  2  0  0  0  0  0  0
  194.1840  176.2190  143.2480 N   0  0  0  0  0  2  0  0  0  0  0  0
  186.0030  176.4260  142.0800 F   0  0  0  0  0  0  0  0  0  0  0  0
  189.2060  176.7790  145.7130 C   0  0  0  0  0  0  0  0  0  0  0  0
  185.7630  178.0680  145.3220 C   0  0  0  0  0  3  0  0  0  0  0  0
  187.6490  176.5560  143.8600 C   0  0  0  0  0  0  0  0  0  0  0  0
  190.1500  176.0840  145.0200 C   0  0  0  0  0  0  0  0  0  0  0  0
  191.1950  175.4220  148.0350 C   0  0  0  0  0  1  0  0  0  0  0  0
  191.4020  176.0580  145.6900 N   0  0  0  0  0  0  0  0  0  0  0  0
  194.8940  176.2130  144.5300 C   0  0  0  0  0  2  0  0  0  0  0  0
  192.9620  173.7310  144.0050 O   0  0  0  0  0  1  0  0  0  0  0  0
  187.0060  177.7880  145.8810 C   0  0  0  0  0  3  0  0  0  0  0  0
  187.9490  177.0400  145.1670 C   0  0  0  0  0  0  0  0  0  0  0  0
  192.2960  174.6760  143.2200 C   0  0  2  0  0  3  0  0  0  0  0  0
  188.4190  173.1970  140.4400 C   0  0  0  0  0  2  0  0  0  0  0  0
  189.7230  173.7990  138.5450 O   0  0  0  0  0  1  0  0  0  0  0  0
  188.4630  173.9460  139.1220 C   0  0  0  0  0  2  0  0  0  0  0  0
  1  4  2  0  0  0  0
  1 19  1  0  0  0  0
  2 19  2  0  0  0  0
  2 13  1  0  0  0  0
  3 10  1  0  0  0  0
  4 20  1  0  0  0  0
  5  1  1  0  0  0  0
  6  8  2  0  0  0  0
  7 15  1  1  0  0  0
  7  9  1  0  0  0  0
  9 14  1  1  0  0  0
  9 22  1  0  0  0  0
 10 21  1  1  0  0  0
 11  5  1  0  0  0  0
 11  8  1  0  0  0  0
 12  8  1  6  0  0  0
 12  4  1  0  0  0  0
 13 18  2  0  0  0  0
 15 23  1  0  0  0  0
 16  2  1  0  0  0  0
 17  3  1  0  0  0  0
 18 25  1  0  0  0  0
 19 26  1  0  0  0  0
 20 22  1  0  0  0  0
 20 17  2  0  0  0  0
 22 10  1  0  0  0  0
 23 14  1  0  0  0  0
 26 17  1  0  0  0  0
 26 25  2  0  0  0  0
 27 12  1  0  0  0  0
 27  7  1  0  0  0  0
 27 24  1  1  0  0  0
 28 11  1  0  0  0  0
 29 30  1  0  0  0  0
 30 28  1  0  0  0  0
M  END
>  <MODEL>
3

>  <REMARK>
 VINA RESULT:      -8.3      2.600      3.508
  Name = 
  2 active torsions:
  status: ('A' for Active; 'I' for Inactive)
    1  A    between atoms: N_11  and  C_28
    2  A    between atoms: C_28  and  C_30
                            x       y       z     vdW  Elec       q    Type
                         _______ _______ _______ _____ _____    ______ ____

>  <TORSDO>
F 2

$$$$
=
 OpenBabel11112416143D

 30 35  0  0  1  0  0  0  0  0999 V2000
  187.2920  176.8580  142.6320 C   0  0  0  0  0  0  0  0  0  0  0  0
  185.1090  178.0710  142.7670 C   0  0  0  0  0  0  0  0  0  0  0  0
  187.7840  176.9090  146.8680 C   0  0  0  0  0  2  0  0  0  0  0  0
  188.3990  176.2870  143.3080 C   0  0  0  0  0  0  0  0  0  0  0  0
  187.3020  176.8780  141.1260 C   0  0  0  0  0  2  0  0  0  0  0  0
  189.6680  174.1660  140.5530 O   0  0  0  0  0  0  0  0  0  0  0  0
  191.3040  176.6360  143.7150 C   0  0  1  0  0  3  0  0  0  0  0  0
  188.9980  175.0290  141.1840 C   0  0  0  0  0  0  0  0  0  0  0  0
  190.9120  176.6210  145.1890 C   0  0  2  0  0  3  0  0  0  0  0  0
  189.1340  176.1680  146.8910 C   0  0  1  0  0  3  0  0  0  0  0  0
  187.8700  175.6620  140.5620 N   0  0  0  0  0  0  0  0  0  0  0  0
  189.3310  175.3190  142.6170 C   0  0  1  0  0  3  0  0  0  0  0  0
  184.1070  178.6500  143.5510 C   0  0  0  0  0  3  0  0  0  0  0  0
  192.0330  175.8860  145.8640 C   0  0  0  0  0  2  0  0  0  0  0  0
  192.7630  176.6860  143.6910 N   0  0  0  0  0  2  0  0  0  0  0  0
  184.9370  178.0780  141.4220 F   0  0  0  0  0  0  0  0  0  0  0  0
  187.4620  176.9730  145.4200 C   0  0  0  0  0  0  0  0  0  0  0  0
  184.2110  178.6660  144.9410 C   0  0  0  0  0  3  0  0  0  0  0  0
  186.2480  177.4880  143.3780 C   0  0  0  0  0  0  0  0  0  0  0  0
  188.4780  176.4300  144.6930 C   0  0  0  0  0  0  0  0  0  0  0  0
  188.9410  174.7750  147.4620 C   0  0  0  0  0  1  0  0  0  0  0  0
  189.5900  176.0720  145.5010 N   0  0  0  0  0  0  0  0  0  0  0  0
  193.2340  176.2150  144.9960 C   0  0  0  0  0  2  0  0  0  0  0  0
  191.3050  174.2240  143.4210 O   0  0  0  0  0  1  0  0  0  0  0  0
  185.3210  178.1020  145.5640 C   0  0  0  0  0  3  0  0  0  0  0  0
  186.3360  177.5160  144.8010 C   0  0  0  0  0  0  0  0  0  0  0  0
  190.8360  175.4270  142.8870 C   0  0  2  0  0  3  0  0  0  0  0  0
  187.4420  175.2750  139.2250 C   0  0  0  0  0  2  0  0  0  0  0  0
  186.3370  176.0550  137.2700 O   0  0  0  0  0  1  0  0  0  0  0  0
  186.6880  176.4160  138.5690 C   0  0  0  0  0  2  0  0  0  0  0  0
  1  4  2  0  0  0  0
  1 19  1  0  0  0  0
  2 19  2  0  0  0  0
  2 13  1  0  0  0  0
  3 10  1  0  0  0  0
  4 20  1  0  0  0  0
  5  1  1  0  0  0  0
  6  8  2  0  0  0  0
  7 15  1  1  0  0  0
  7  9  1  0  0  0  0
  9 22  1  0  0  0  0
  9 14  1  1  0  0  0
 10 21  1  6  0  0  0
 11  5  1  0  0  0  0
 11  8  1  0  0  0  0
 12  8  1  6  0  0  0
 12 27  1  0  0  0  0
 12  4  1  0  0  0  0
 13 18  2  0  0  0  0
 15 23  1  0  0  0  0
 16  2  1  0  0  0  0
 17  3  1  0  0  0  0
 18 25  1  0  0  0  0
 19 26  1  0  0  0  0
 20 17  2  0  0  0  0
 20 22  1  0  0  0  0
 22 10  1  0  0  0  0
 23 14  1  0  0  0  0
 26 17  1  0  0  0  0
 26 25  2  0  0  0  0
 27 24  1  1  0  0  0
 27  7  1  0  0  0  0
 28 11  1  0  0  0  0
 29 30  1  0  0  0  0
 30 28  1  0  0  0  0
M  END
>  <MODEL>
4

>  <REMARK>
 VINA RESULT:      -8.3      1.728      2.129
  Name = 
  2 active torsions:
  status: ('A' for Active; 'I' for Inactive)
    1  A    between atoms: N_11  and  C_28
    2  A    between atoms: C_28  and  C_30
                            x       y       z     vdW  Elec       q    Type
                         _______ _______ _______ _____ _____    ______ ____

>  <TORSDO>
F 2

$$$$
=
 OpenBabel11112416143D

 30 35  0  0  1  0  0  0  0  0999 V2000
  188.1350  175.7750  141.9850 C   0  0  0  0  0  0  0  0  0  0  0  0
  186.6570  176.8840  140.3000 C   0  0  0  0  0  0  0  0  0  0  0  0
  186.6050  178.1710  145.1640 C   0  0  0  0  0  2  0  0  0  0  0  0
  188.5560  175.6650  143.3330 C   0  0  0  0  0  0  0  0  0  0  0  0
  188.8450  174.9540  140.9410 C   0  0  0  0  0  2  0  0  0  0  0  0
  190.1960  172.3540  143.1090 O   0  0  0  0  0  0  0  0  0  0  0  0
  190.8830  176.1470  145.0880 C   0  0  1  0  0  3  0  0  0  0  0  0
  189.6270  173.4300  142.7750 C   0  0  0  0  0  0  0  0  0  0  0  0
  189.8750  176.9600  145.8930 C   0  0  2  0  0  3  0  0  0  0  0  0
  187.4730  177.5520  146.2760 C   0  0  1  0  0  3  0  0  0  0  0  0
  189.1850  173.6230  141.4240 N   0  0  0  0  0  0  0  0  0  0  0  0
  189.3360  174.4650  143.8200 C   0  0  1  0  0  3  0  0  0  0  0  0
  185.6530  177.8140  140.0150 C   0  0  0  0  0  3  0  0  0  0  0  0
  190.2550  176.7110  147.3240 C   0  0  0  0  0  2  0  0  0  0  0  0
  192.1180  176.1570  145.8680 N   0  0  0  0  0  2  0  0  0  0  0  0
  187.1370  176.1430  139.2710 F   0  0  0  0  0  0  0  0  0  0  0  0
  187.0270  177.4220  143.9540 C   0  0  0  0  0  0  0  0  0  0  0  0
  185.1020  178.6000  141.0270 C   0  0  0  0  0  3  0  0  0  0  0  0
  187.1300  176.7270  141.6270 C   0  0  0  0  0  0  0  0  0  0  0  0
  188.0290  176.5540  144.2700 C   0  0  0  0  0  0  0  0  0  0  0  0
  186.6030  176.7150  147.1960 C   0  0  0  0  0  1  0  0  0  0  0  0
  188.4610  176.6930  145.6160 N   0  0  0  0  0  0  0  0  0  0  0  0
  191.7540  176.4880  147.2500 C   0  0  0  0  0  2  0  0  0  0  0  0
  190.2460  173.9800  145.9840 O   0  0  0  0  0  1  0  0  0  0  0  0
  185.5520  178.4650  142.3370 C   0  0  0  0  0  3  0  0  0  0  0  0
  186.5550  177.5420  142.6470 C   0  0  0  0  0  0  0  0  0  0  0  0
  190.4900  174.6870  144.8030 C   0  0  2  0  0  3  0  0  0  0  0  0
  189.3230  172.5620  140.4360 C   0  0  0  0  0  2  0  0  0  0  0  0
  188.7090  172.8600  138.1590 O   0  0  0  0  0  1  0  0  0  0  0  0
  188.1880  172.6370  139.4320 C   0  0  0  0  0  2  0  0  0  0  0  0
  1  4  1  0  0  0  0
  2 19  1  0  0  0  0
  3 10  1  0  0  0  0
  4 12  1  0  0  0  0
  4 20  2  0  0  0  0
  5 11  1  0  0  0  0
  5  1  1  0  0  0  0
  7 15  1  1  0  0  0
  7  9  1  0  0  0  0
  8  6  2  0  0  0  0
  9 14  1  1  0  0  0
 10 21  1  1  0  0  0
 11  8  1  0  0  0  0
 12  8  1  6  0  0  0
 12 27  1  0  0  0  0
 13  2  2  0  0  0  0
 13 18  1  0  0  0  0
 15 23  1  0  0  0  0
 16  2  1  0  0  0  0
 17 20  1  0  0  0  0
 17  3  1  0  0  0  0
 18 25  2  0  0  0  0
 19  1  2  0  0  0  0
 19 26  1  0  0  0  0
 20 22  1  0  0  0  0
 22  9  1  0  0  0  0
 22 10  1  0  0  0  0
 23 14  1  0  0  0  0
 25 26  1  0  0  0  0
 26 17  2  0  0  0  0
 27  7  1  0  0  0  0
 27 24  1  1  0  0  0
 28 11  1  0  0  0  0
 29 30  1  0  0  0  0
 30 28  1  0  0  0  0
M  END
>  <MODEL>
5

>  <REMARK>
 VINA RESULT:      -8.1      2.695      4.449
  Name = 
  2 active torsions:
  status: ('A' for Active; 'I' for Inactive)
    1  A    between atoms: N_11  and  C_28
    2  A    between atoms: C_28  and  C_30
                            x       y       z     vdW  Elec       q    Type
                         _______ _______ _______ _____ _____    ______ ____

>  <TORSDO>
F 2

$$$$
=
 OpenBabel11112416143D

 30 35  0  0  1  0  0  0  0  0999 V2000
  188.0220  175.4020  142.5980 C   0  0  0  0  0  0  0  0  0  0  0  0
  189.3250  173.4420  141.7560 C   0  0  0  0  0  0  0  0  0  0  0  0
  189.8550  175.1930  146.4430 C   0  0  0  0  0  2  0  0  0  0  0  0
  187.7360  176.2940  143.6610 C   0  0  0  0  0  0  0  0  0  0  0  0
  187.2140  175.5110  141.3320 C   0  0  0  0  0  2  0  0  0  0  0  0
  186.0860  178.9590  141.6920 O   0  0  0  0  0  0  0  0  0  0  0  0
  185.5930  177.0480  145.5500 C   0  0  1  0  0  3  0  0  0  0  0  0
  186.6180  177.8570  141.9990 C   0  0  0  0  0  0  0  0  0  0  0  0
  186.6750  176.7900  146.5930 C   0  0  2  0  0  3  0  0  0  0  0  0
  189.1020  176.3890  147.0560 C   0  0  1  0  0  3  0  0  0  0  0  0
  186.9240  176.8950  140.9800 N   0  0  0  0  0  0  0  0  0  0  0  0
  187.0100  177.5980  143.4240 C   0  0  1  0  0  3  0  0  0  0  0  0
  190.2960  172.4620  141.9830 C   0  0  0  0  0  3  0  0  0  0  0  0
  186.4380  177.8400  147.6400 C   0  0  0  0  0  2  0  0  0  0  0  0
  184.4410  177.5610  146.2870 N   0  0  0  0  0  2  0  0  0  0  0  0
  188.7470  173.4810  140.5300 F   0  0  0  0  0  0  0  0  0  0  0  0
  189.3160  175.1310  145.0610 C   0  0  0  0  0  0  0  0  0  0  0  0
  190.9420  172.3720  143.2150 C   0  0  0  0  0  3  0  0  0  0  0  0
  188.9860  174.3620  142.7790 C   0  0  0  0  0  0  0  0  0  0  0  0
  188.3520  176.0790  144.8940 C   0  0  0  0  0  0  0  0  0  0  0  0
  190.0590  177.5510  147.2480 C   0  0  0  0  0  1  0  0  0  0  0  0
  188.0550  176.7660  146.1010 N   0  0  0  0  0  0  0  0  0  0  0  0
  184.9390  178.0670  147.5700 C   0  0  0  0  0  2  0  0  0  0  0  0
  186.3180  179.2930  144.9700 O   0  0  0  0  0  1  0  0  0  0  0  0
  190.6240  173.2630  144.2360 C   0  0  0  0  0  3  0  0  0  0  0  0
  189.6570  174.2530  144.0320 C   0  0  0  0  0  0  0  0  0  0  0  0
  185.9570  178.0510  144.4420 C   0  0  2  0  0  3  0  0  0  0  0  0
  186.6910  177.1980  139.5750 C   0  0  0  0  0  2  0  0  0  0  0  0
  186.3380  176.0410  137.5290 O   0  0  0  0  0  1  0  0  0  0  0  0
  187.0660  176.0050  138.7160 C   0  0  0  0  0  2  0  0  0  0  0  0
  1 19  2  0  0  0  0
  1  4  1  0  0  0  0
  2 13  2  0  0  0  0
  2 19  1  0  0  0  0
  3 10  1  0  0  0  0
  4 20  2  0  0  0  0
  5  1  1  0  0  0  0
  6  8  2  0  0  0  0
  7 15  1  1  0  0  0
  7  9  1  0  0  0  0
  9 14  1  1  0  0  0
 10 21  1  6  0  0  0
 11  5  1  0  0  0  0
 11  8  1  0  0  0  0
 12  8  1  6  0  0  0
 12  4  1  0  0  0  0
 12 27  1  0  0  0  0
 13 18  1  0  0  0  0
 15 23  1  0  0  0  0
 16  2  1  0  0  0  0
 17  3  1  0  0  0  0
 18 25  2  0  0  0  0
 19 26  1  0  0  0  0
 20 17  1  0  0  0  0
 20 22  1  0  0  0  0
 22  9  1  0  0  0  0
 22 10  1  0  0  0  0
 23 14  1  0  0  0  0
 26 25  1  0  0  0  0
 26 17  2  0  0  0  0
 27 24  1  1  0  0  0
 27  7  1  0  0  0  0
 28 11  1  0  0  0  0
 29 30  1  0  0  0  0
 30 28  1  0  0  0  0
M  END
>  <MODEL>
6

>  <REMARK>
 VINA RESULT:      -7.6      2.809      5.323
  Name = 
  2 active torsions:
  status: ('A' for Active; 'I' for Inactive)
    1  A    between atoms: N_11  and  C_28
    2  A    between atoms: C_28  and  C_30
                            x       y       z     vdW  Elec       q    Type
                         _______ _______ _______ _____ _____    ______ ____

>  <TORSDO>
F 2

$$$$
=
 OpenBabel11112416143D

 30 35  0  0  1  0  0  0  0  0999 V2000
  190.3170  176.3070  145.0620 C   0  0  0  0  0  0  0  0  0  0  0  0
  189.1070  177.4460  146.9300 C   0  0  0  0  0  0  0  0  0  0  0  0
  186.7590  175.9570  142.7360 C   0  0  0  0  0  2  0  0  0  0  0  0
  190.2670  175.7200  143.7740 C   0  0  0  0  0  0  0  0  0  0  0  0
  191.6130  176.2560  145.8260 C   0  0  0  0  0  2  0  0  0  0  0  0
  193.8900  175.7900  143.0180 O   0  0  0  0  0  0  0  0  0  0  0  0
  190.5340  173.1220  142.3920 C   0  0  1  0  0  3  0  0  0  0  0  0
  192.8000  175.8790  143.6460 C   0  0  0  0  0  0  0  0  0  0  0  0
  189.1610  173.4850  141.8360 C   0  0  2  0  0  3  0  0  0  0  0  0
  187.4120  175.2500  141.5330 C   0  0  1  0  0  3  0  0  0  0  0  0
  192.7700  176.4490  144.9620 N   0  0  0  0  0  0  0  0  0  0  0  0
  191.5240  175.4700  142.9720 C   0  0  1  0  0  3  0  0  0  0  0  0
  187.9170  177.9710  147.4420 C   0  0  0  0  0  3  0  0  0  0  0  0
  189.1870  172.9780  140.4240 C   0  0  0  0  0  2  0  0  0  0  0  0
  190.9190  171.8820  141.7240 N   0  0  0  0  0  2  0  0  0  0  0  0
  190.2220  177.5570  147.6940 F   0  0  0  0  0  0  0  0  0  0  0  0
  187.9000  176.1580  143.6650 C   0  0  0  0  0  0  0  0  0  0  0  0
  186.7340  177.9050  146.7070 C   0  0  0  0  0  3  0  0  0  0  0  0
  189.1270  176.8380  145.6500 C   0  0  0  0  0  0  0  0  0  0  0  0
  189.0290  175.6030  143.1430 C   0  0  0  0  0  0  0  0  0  0  0  0
  187.4600  176.1970  140.3490 C   0  0  0  0  0  1  0  0  0  0  0  0
  188.7750  174.8950  141.9370 N   0  0  0  0  0  0  0  0  0  0  0  0
  190.1150  171.7800  140.5030 C   0  0  0  0  0  2  0  0  0  0  0  0
  191.8160  174.4570  140.8190 O   0  0  0  0  0  1  0  0  0  0  0  0
  186.7290  177.3100  145.4490 C   0  0  0  0  0  3  0  0  0  0  0  0
  187.9070  176.7790  144.9150 C   0  0  0  0  0  0  0  0  0  0  0  0
  191.6420  174.1660  142.1750 C   0  0  2  0  0  3  0  0  0  0  0  0
  193.9790  176.9940  145.5660 C   0  0  0  0  0  2  0  0  0  0  0  0
  195.5190  175.2100  145.8790 O   0  0  0  0  0  1  0  0  0  0  0  0
  194.5710  175.9910  146.5380 C   0  0  0  0  0  2  0  0  0  0  0  0
  1 19  1  0  0  0  0
  1  5  1  0  0  0  0
  2 13  1  0  0  0  0
  2 16  1  0  0  0  0
  3 17  1  0  0  0  0
  4  1  2  0  0  0  0
  6  8  2  0  0  0  0
  7 15  1  6  0  0  0
  8 11  1  0  0  0  0
  9 14  1  6  0  0  0
  9 22  1  0  0  0  0
  9  7  1  0  0  0  0
 10 21  1  6  0  0  0
 10 22  1  0  0  0  0
 10  3  1  0  0  0  0
 11 28  1  0  0  0  0
 11  5  1  0  0  0  0
 12  8  1  1  0  0  0
 12  4  1  0  0  0  0
 14 23  1  0  0  0  0
 17 26  1  0  0  0  0
 18 13  2  0  0  0  0
 19  2  2  0  0  0  0
 20 17  2  0  0  0  0
 20  4  1  0  0  0  0
 22 20  1  0  0  0  0
 23 15  1  0  0  0  0
 25 18  1  0  0  0  0
 26 25  2  0  0  0  0
 26 19  1  0  0  0  0
 27 24  1  6  0  0  0
 27  7  1  0  0  0  0
 27 12  1  0  0  0  0
 28 30  1  0  0  0  0
 29 30  1  0  0  0  0
M  END
>  <MODEL>
7

>  <REMARK>
 VINA RESULT:      -7.2      3.064      5.956
  Name = 
  2 active torsions:
  status: ('A' for Active; 'I' for Inactive)
    1  A    between atoms: N_11  and  C_28
    2  A    between atoms: C_28  and  C_30
                            x       y       z     vdW  Elec       q    Type
                         _______ _______ _______ _____ _____    ______ ____

>  <TORSDO>
F 2

$$$$
=
 OpenBabel11112416143D

 30 35  0  0  1  0  0  0  0  0999 V2000
  189.2540  174.8690  142.0370 C   0  0  0  0  0  0  0  0  0  0  0  0
  189.3260  173.5870  139.8920 C   0  0  0  0  0  0  0  0  0  0  0  0
  193.3880  174.1560  142.8070 C   0  0  0  0  0  2  0  0  0  0  0  0
  189.9430  175.3570  143.1750 C   0  0  0  0  0  0  0  0  0  0  0  0
  187.7670  175.0900  141.9480 C   0  0  0  0  0  2  0  0  0  0  0  0
  187.4940  177.9270  144.2200 O   0  0  0  0  0  0  0  0  0  0  0  0
  190.1090  175.0330  146.1060 C   0  0  1  0  0  3  0  0  0  0  0  0
  188.0170  176.9560  143.6090 C   0  0  0  0  0  0  0  0  0  0  0  0
  191.5870  174.8000  145.8120 C   0  0  2  0  0  3  0  0  0  0  0  0
  193.4460  174.9240  144.1410 C   0  0  1  0  0  3  0  0  0  0  0  0
  187.3720  176.3960  142.4560 N   0  0  0  0  0  0  0  0  0  0  0  0
  189.3610  176.4490  144.0410 C   0  0  1  0  0  3  0  0  0  0  0  0
  190.0670  172.8610  138.9540 C   0  0  0  0  0  3  0  0  0  0  0  0
  192.3010  175.4510  146.9610 C   0  0  0  0  0  2  0  0  0  0  0  0
  189.9870  175.0300  147.5620 N   0  0  0  0  0  2  0  0  0  0  0  0
  188.0110  173.7900  139.6320 F   0  0  0  0  0  0  0  0  0  0  0  0
  191.9710  174.3150  142.3920 C   0  0  0  0  0  0  0  0  0  0  0  0
  191.4270  172.6260  139.1490 C   0  0  0  0  0  3  0  0  0  0  0  0
  189.9510  174.0980  141.0570 C   0  0  0  0  0  0  0  0  0  0  0  0
  191.2800  174.9970  143.3470 C   0  0  0  0  0  0  0  0  0  0  0  0
  194.2460  176.2010  143.9600 C   0  0  0  0  0  1  0  0  0  0  0  0
  192.0650  175.2530  144.5030 N   0  0  0  0  0  0  0  0  0  0  0  0
  191.3200  175.3000  148.1090 C   0  0  0  0  0  2  0  0  0  0  0  0
  190.2080  177.4590  146.0430 O   0  0  0  0  0  1  0  0  0  0  0  0
  192.0630  173.1150  140.2860 C   0  0  0  0  0  3  0  0  0  0  0  0
  191.3430  173.8450  141.2380 C   0  0  0  0  0  0  0  0  0  0  0  0
  189.5170  176.3440  145.5620 C   0  0  2  0  0  3  0  0  0  0  0  0
  186.1440  176.9800  141.9330 C   0  0  0  0  0  2  0  0  0  0  0  0
  185.3380  178.4680  140.2640 O   0  0  0  0  0  1  0  0  0  0  0  0
  186.4140  177.6480  140.5980 C   0  0  0  0  0  2  0  0  0  0  0  0
  1  4  1  0  0  0  0
  2 19  1  0  0  0  0
  3 10  1  0  0  0  0
  4 20  2  0  0  0  0
  5  1  1  0  0  0  0
  5 11  1  0  0  0  0
  7 15  1  1  0  0  0
  8 12  1  0  0  0  0
  8  6  2  0  0  0  0
  9  7  1  0  0  0  0
  9 14  1  1  0  0  0
 10 21  1  6  0  0  0
 10 22  1  0  0  0  0
 11  8  1  0  0  0  0
 12  4  1  6  0  0  0
 12 27  1  0  0  0  0
 13 18  1  0  0  0  0
 13  2  2  0  0  0  0
 14 23  1  0  0  0  0
 15 23  1  0  0  0  0
 16  2  1  0  0  0  0
 17  3  1  0  0  0  0
 17 20  1  0  0  0  0
 18 25  2  0  0  0  0
 19 26  1  0  0  0  0
 19  1  2  0  0  0  0
 20 22  1  0  0  0  0
 22  9  1  0  0  0  0
 25 26  1  0  0  0  0
 26 17  2  0  0  0  0
 27 24  1  6  0  0  0
 27  7  1  0  0  0  0
 28 11  1  0  0  0  0
 29 30  1  0  0  0  0
 30 28  1  0  0  0  0
M  END
>  <MODEL>
8

>  <REMARK>
 VINA RESULT:      -7.1      3.031      5.784
  Name = 
  2 active torsions:
  status: ('A' for Active; 'I' for Inactive)
    1  A    between atoms: N_11  and  C_28
    2  A    between atoms: C_28  and  C_30
                            x       y       z     vdW  Elec       q    Type
                         _______ _______ _______ _____ _____    ______ ____

>  <TORSDO>
F 2

$$$$
=
 OpenBabel11112416143D

 30 35  0  0  1  0  0  0  0  0999 V2000
  191.1230  176.0460  144.0620 C   0  0  0  0  0  0  0  0  0  0  0  0
  189.7860  177.0430  145.9240 C   0  0  0  0  0  0  0  0  0  0  0  0
  194.5940  175.6820  146.5130 C   0  0  0  0  0  2  0  0  0  0  0  0
  192.3530  175.5040  143.6160 C   0  0  0  0  0  0  0  0  0  0  0  0
  190.0140  176.2300  143.0600 C   0  0  0  0  0  2  0  0  0  0  0  0
  191.1160  173.8110  140.5660 O   0  0  0  0  0  0  0  0  0  0  0  0
  194.6120  176.0570  141.7940 C   0  0  1  0  0  3  0  0  0  0  0  0
  191.1530  174.5390  141.5960 C   0  0  0  0  0  0  0  0  0  0  0  0
  195.4420  175.8500  143.0570 C   0  0  2  0  0  3  0  0  0  0  0  0
  195.5000  175.0620  145.4320 C   0  0  1  0  0  3  0  0  0  0  0  0
  189.9500  175.1360  142.1010 N   0  0  0  0  0  0  0  0  0  0  0  0
  192.4450  174.7010  142.3390 C   0  0  1  0  0  3  0  0  0  0  0  0
  189.7070  177.4450  147.2610 C   0  0  0  0  0  3  0  0  0  0  0  0
  196.6770  175.1450  142.5780 C   0  0  0  0  0  2  0  0  0  0  0  0
  195.5740  176.2360  140.7100 N   0  0  0  0  0  2  0  0  0  0  0  0
  188.6730  177.1810  145.1610 F   0  0  0  0  0  0  0  0  0  0  0  0
  193.3060  175.8740  145.7990 C   0  0  0  0  0  0  0  0  0  0  0  0
  190.8080  177.3200  148.1080 C   0  0  0  0  0  3  0  0  0  0  0  0
  190.9900  176.4990  145.4110 C   0  0  0  0  0  0  0  0  0  0  0  0
  193.4370  175.5020  144.4950 C   0  0  0  0  0  0  0  0  0  0  0  0
  195.7640  173.6050  145.7620 C   0  0  0  0  0  1  0  0  0  0  0  0
  194.7740  175.1570  144.1630 N   0  0  0  0  0  0  0  0  0  0  0  0
  196.8480  175.6690  141.1630 C   0  0  0  0  0  2  0  0  0  0  0  0
  194.3420  173.7010  141.2680 O   0  0  0  0  0  1  0  0  0  0  0  0
  192.0010  176.7910  147.6260 C   0  0  0  0  0  3  0  0  0  0  0  0
  192.1040  176.3810  146.2930 C   0  0  0  0  0  0  0  0  0  0  0  0
  193.6580  174.9090  141.4240 C   0  0  2  0  0  3  0  0  0  0  0  0
  188.6630  174.8590  141.4780 C   0  0  0  0  0  2  0  0  0  0  0  0
  186.6910  175.7110  142.4960 O   0  0  0  0  0  1  0  0  0  0  0  0
  187.7390  176.0500  141.6420 C   0  0  0  0  0  2  0  0  0  0  0  0
  1 19  1  0  0  0  0
  2 13  1  0  0  0  0
  4  1  2  0  0  0  0
  4 20  1  0  0  0  0
  5  1  1  0  0  0  0
  6  8  2  0  0  0  0
  7 15  1  6  0  0  0
  7  9  1  0  0  0  0
  8 11  1  0  0  0  0
  9 14  1  6  0  0  0
  9 22  1  0  0  0  0
 10 21  1  1  0  0  0
 10  3  1  0  0  0  0
 11  5  1  0  0  0  0
 12  8  1  6  0  0  0
 12  4  1  0  0  0  0
 13 18  2  0  0  0  0
 15 23  1  0  0  0  0
 16  2  1  0  0  0  0
 17 26  1  0  0  0  0
 17  3  1  0  0  0  0
 19  2  2  0  0  0  0
 19 26  1  0  0  0  0
 20 17  2  0  0  0  0
 22 20  1  0  0  0  0
 22 10  1  0  0  0  0
 23 14  1  0  0  0  0
 25 18  1  0  0  0  0
 26 25  2  0  0  0  0
 27 24  1  1  0  0  0
 27  7  1  0  0  0  0
 27 12  1  0  0  0  0
 28 30  1  0  0  0  0
 28 11  1  0  0  0  0
 30 29  1  0  0  0  0
M  END
>  <MODEL>
9

>  <REMARK>
 VINA RESULT:      -7.1      3.268      5.162
  Name = 
  2 active torsions:
  status: ('A' for Active; 'I' for Inactive)
    1  A    between atoms: N_11  and  C_28
    2  A    between atoms: C_28  and  C_30
                            x       y       z     vdW  Elec       q    Type
                         _______ _______ _______ _____ _____    ______ ____

>  <TORSDO>
F 2

$$$$
