=
 OpenBabel11112416353D

 32 38  0  0  1  0  0  0  0  0999 V2000
  185.4760  177.2920  146.0970 C   0  0  1  0  0  3  0  0  0  0  0  0
  190.2390  176.2010  144.0260 C   0  0  1  0  0  3  0  0  0  0  0  0
  188.4190  172.2490  141.6850 C   0  0  0  0  0  3  0  0  0  0  0  0
  189.6520  171.6090  141.8780 O   0  0  0  0  0  0  0  0  0  0  0  0
  192.7170  176.3930  144.3880 C   0  0  0  0  0  0  0  0  0  0  0  0
  194.1030  175.8410  144.2400 C   0  0  1  0  0  3  0  0  0  0  0  0
  188.4130  177.0760  145.4900 C   0  0  1  0  0  3  0  0  0  0  0  0
  187.8340  176.1380  143.2130 C   0  0  0  0  0  2  0  0  0  0  0  0
  194.9770  173.8970  145.1310 C   0  0  0  0  0  0  0  0  0  0  0  0
  185.9490  176.9320  144.6870 C   0  0  2  0  0  3  0  0  0  0  0  0
  188.2370  173.5050  142.0960 C   0  0  0  0  0  3  0  0  0  0  0  0
  189.1790  175.4730  143.2270 C   0  0  0  0  0  0  0  0  0  0  0  0
  189.3440  174.2230  142.7610 C   0  0  0  0  0  0  0  0  0  0  0  0
  191.7610  174.2220  143.5550 C   0  0  0  0  0  0  0  0  0  0  0  0
  195.6770  174.9470  145.7740 N   0  0  0  0  0  2  0  0  0  0  0  0
  186.4990  176.9630  147.2070 C   0  0  0  0  0  2  0  0  0  0  0  0
  187.3610  176.3130  144.6550 C   0  0  2  0  0  3  0  0  0  0  0  0
  195.0600  176.2080  145.3790 C   0  0  0  0  0  2  0  0  0  0  0  0
  187.9620  177.3400  146.9290 C   0  0  0  0  0  2  0  0  0  0  0  0
  185.9180  178.3890  145.1380 C   0  0  1  0  0  3  0  0  0  0  0  0
  190.7360  172.2520  142.4910 C   0  0  0  0  0  3  0  0  0  0  0  0
  190.6300  173.5150  142.9320 C   0  0  0  0  0  0  0  0  0  0  0  0
  192.9340  173.5990  143.7560 C   0  0  0  0  0  3  0  0  0  0  0  0
  189.7600  176.3510  145.4720 C   0  0  0  0  0  2  0  0  0  0  0  0
  192.5560  177.5760  144.7960 O   0  0  0  0  0  0  0  0  0  0  0  0
  195.1530  172.4660  145.5010 C   0  0  0  0  0  1  0  0  0  0  0  0
  191.5810  175.5990  143.9700 N   0  0  0  0  0  0  0  0  0  0  0  0
  194.0510  174.3610  144.3160 C   0  0  0  0  0  0  0  0  0  0  0  0
  184.6960  179.0660  144.5520 C   0  0  0  0  0  2  0  0  0  0  0  0
  184.5840  178.7410  143.1040 C   0  0  0  0  0  0  0  0  0  0  0  0
  185.6640  178.9550  142.2580 O   0  0  0  0  0  0  0  0  0  0  0  0
  183.4990  178.3030  142.6400 O   0  0  0  0  0  1  0  0  0  0  0  0
  1 16  1  1  0  0  0
  2 24  1  1  0  0  0
  3  4  1  0  0  0  0
  3 11  2  0  0  0  0
  4 21  1  0  0  0  0
  5 25  2  0  0  0  0
  6 28  1  0  0  0  0
  6  5  1  0  0  0  0
  6 18  1  1  0  0  0
  7 24  1  1  0  0  0
  7 19  1  0  0  0  0
  8 12  1  0  0  0  0
  8 17  1  0  0  0  0
  9 26  1  0  0  0  0
  9 15  1  0  0  0  0
 10 20  1  0  0  0  0
 10  1  1  0  0  0  0
 11 13  1  0  0  0  0
 12  2  1  0  0  0  0
 13 22  1  0  0  0  0
 13 12  2  0  0  0  0
 14 23  2  0  0  0  0
 14 27  1  0  0  0  0
 17 10  1  0  0  0  0
 17  7  1  0  0  0  0
 18 15  1  0  0  0  0
 19 16  1  0  0  0  0
 20  1  1  0  0  0  0
 21 22  2  0  0  0  0
 22 14  1  0  0  0  0
 23 28  1  0  0  0  0
 27  2  1  0  0  0  0
 27  5  1  0  0  0  0
 28  9  2  0  0  0  0
 29 20  1  0  0  0  0
 30 29  1  0  0  0  0
 31 30  2  0  0  0  0
 32 30  1  0  0  0  0
M  END
>  <MODEL>
1

>  <REMARK>
 VINA RESULT:      -8.9      0.000      0.000
  Name = 
  2 active torsions:
  status: ('A' for Active; 'I' for Inactive)
    1  A    between atoms: C_20  and  C_29
    2  A    between atoms: C_29  and  C_30
                            x       y       z     vdW  Elec       q    Type
                         _______ _______ _______ _____ _____    ______ ____

>  <TORSDO>
F 2

$$$$
=
 OpenBabel11112416353D

 32 38  0  0  1  0  0  0  0  0999 V2000
  185.5510  179.0260  144.2450 C   0  0  1  0  0  3  0  0  0  0  0  0
  188.6000  174.9220  142.8190 C   0  0  1  0  0  3  0  0  0  0  0  0
  192.5850  177.0790  144.7910 C   0  0  0  0  0  3  0  0  0  0  0  0
  193.3580  176.5040  143.7720 O   0  0  0  0  0  0  0  0  0  0  0  0
  188.8940  173.0840  141.1340 C   0  0  0  0  0  0  0  0  0  0  0  0
  189.7820  172.1980  140.3120 C   0  0  1  0  0  3  0  0  0  0  0  0
  186.7410  176.5870  142.9500 C   0  0  1  0  0  3  0  0  0  0  0  0
  188.4140  176.4460  144.8440 C   0  0  0  0  0  2  0  0  0  0  0  0
  191.2770  172.8030  138.6590 C   0  0  0  0  0  0  0  0  0  0  0  0
  186.6050  178.1960  144.9820 C   0  0  2  0  0  3  0  0  0  0  0  0
  191.2760  176.8320  144.8680 C   0  0  0  0  0  3  0  0  0  0  0  0
  189.3160  175.7150  143.8930 C   0  0  0  0  0  0  0  0  0  0  0  0
  190.6400  175.9480  143.8700 C   0  0  0  0  0  0  0  0  0  0  0  0
  190.8930  174.4360  141.8390 C   0  0  0  0  0  0  0  0  0  0  0  0
  190.2640  172.0730  137.9920 N   0  0  0  0  0  2  0  0  0  0  0  0
  185.5980  178.8800  142.7070 C   0  0  0  0  0  2  0  0  0  0  0  0
  187.5050  177.3740  144.0380 C   0  0  2  0  0  3  0  0  0  0  0  0
  189.2000  171.8000  138.9510 C   0  0  0  0  0  2  0  0  0  0  0  0
  185.7630  177.4560  142.1560 C   0  0  0  0  0  2  0  0  0  0  0  0
  185.1430  177.7600  144.9860 C   0  0  1  0  0  3  0  0  0  0  0  0
  192.8040  175.6470  142.8110 C   0  0  0  0  0  3  0  0  0  0  0  0
  191.4950  175.3530  142.8220 C   0  0  0  0  0  0  0  0  0  0  0  0
  191.6330  173.9030  140.8530 C   0  0  0  0  0  3  0  0  0  0  0  0
  187.7100  175.8680  142.0100 C   0  0  0  0  0  2  0  0  0  0  0  0
  187.6550  172.8530  141.1840 O   0  0  0  0  0  0  0  0  0  0  0  0
  192.3890  173.4820  137.9370 C   0  0  0  0  0  1  0  0  0  0  0  0
  189.4780  174.1350  141.9400 N   0  0  0  0  0  0  0  0  0  0  0  0
  191.0090  172.9440  139.9410 C   0  0  0  0  0  0  0  0  0  0  0  0
  184.5150  178.1350  146.3120 C   0  0  0  0  0  2  0  0  0  0  0  0
  185.5630  178.2040  147.3660 C   0  0  0  0  0  0  0  0  0  0  0  0
  186.1180  177.0360  147.8710 O   0  0  0  0  0  1  0  0  0  0  0  0
  185.9220  179.3200  147.8240 O   0  0  0  0  0  0  0  0  0  0  0  0
  1 16  1  6  0  0  0
  1 10  1  0  0  0  0
  1 20  1  0  0  0  0
  2 24  1  6  0  0  0
  2 12  1  0  0  0  0
  3 11  2  0  0  0  0
  4  3  1  0  0  0  0
  5 25  2  0  0  0  0
  5 27  1  0  0  0  0
  6 18  1  6  0  0  0
  6  5  1  0  0  0  0
  7 24  1  6  0  0  0
  7 17  1  0  0  0  0
  9 28  2  0  0  0  0
 10 20  1  0  0  0  0
 12  8  1  0  0  0  0
 13 12  2  0  0  0  0
 13 11  1  0  0  0  0
 14 27  1  0  0  0  0
 14 22  1  0  0  0  0
 15  9  1  0  0  0  0
 15 18  1  0  0  0  0
 17  8  1  0  0  0  0
 17 10  1  0  0  0  0
 19 16  1  0  0  0  0
 19  7  1  0  0  0  0
 20 29  1  0  0  0  0
 21 22  2  0  0  0  0
 21  4  1  0  0  0  0
 22 13  1  0  0  0  0
 23 14  2  0  0  0  0
 26  9  1  0  0  0  0
 27  2  1  0  0  0  0
 28  6  1  0  0  0  0
 28 23  1  0  0  0  0
 29 30  1  0  0  0  0
 30 32  2  0  0  0  0
 30 31  1  0  0  0  0
M  END
>  <MODEL>
2

>  <REMARK>
 VINA RESULT:      -8.8      2.684      5.156
  Name = 
  2 active torsions:
  status: ('A' for Active; 'I' for Inactive)
    1  A    between atoms: C_20  and  C_29
    2  A    between atoms: C_29  and  C_30
                            x       y       z     vdW  Elec       q    Type
                         _______ _______ _______ _____ _____    ______ ____

>  <TORSDO>
F 2

$$$$
=
 OpenBabel11112416353D

 32 38  0  0  1  0  0  0  0  0999 V2000
  191.1830  172.2410  140.8380 C   0  0  1  0  0  3  0  0  0  0  0  0
  188.9710  176.6940  142.6950 C   0  0  1  0  0  3  0  0  0  0  0  0
  191.6560  176.4130  146.8320 C   0  0  0  0  0  3  0  0  0  0  0  0
  190.5770  176.9710  147.5310 O   0  0  0  0  0  0  0  0  0  0  0  0
  186.9020  178.1170  142.6560 C   0  0  0  0  0  0  0  0  0  0  0  0
  185.9410  179.0400  143.3440 C   0  0  1  0  0  3  0  0  0  0  0  0
  189.3980  174.5900  141.4140 C   0  0  1  0  0  3  0  0  0  0  0  0
  191.2950  175.6690  142.6950 C   0  0  0  0  0  2  0  0  0  0  0  0
  184.5850  178.6040  145.1620 C   0  0  0  0  0  0  0  0  0  0  0  0
  191.7540  173.5040  141.4870 C   0  0  2  0  0  3  0  0  0  0  0  0
  191.5900  176.2370  145.5120 C   0  0  0  0  0  3  0  0  0  0  0  0
  190.2490  176.4260  143.4600 C   0  0  0  0  0  0  0  0  0  0  0  0
  190.3660  176.6310  144.7840 C   0  0  0  0  0  0  0  0  0  0  0  0
  188.0420  177.6660  144.8500 C   0  0  0  0  0  0  0  0  0  0  0  0
  183.6970  178.8070  144.0780 N   0  0  0  0  0  2  0  0  0  0  0  0
  189.6630  172.0570  141.0480 C   0  0  0  0  0  2  0  0  0  0  0  0
  190.6920  174.3470  142.2220 C   0  0  2  0  0  3  0  0  0  0  0  0
  184.4910  178.9250  142.8610 C   0  0  0  0  0  2  0  0  0  0  0  0
  188.7860  173.3030  140.8570 C   0  0  0  0  0  2  0  0  0  0  0  0
  191.5590  173.4380  139.9750 C   0  0  1  0  0  3  0  0  0  0  0  0
  189.4000  177.3730  146.8840 C   0  0  0  0  0  3  0  0  0  0  0  0
  189.2570  177.2270  145.5580 C   0  0  0  0  0  0  0  0  0  0  0  0
  187.0020  178.1810  145.5260 C   0  0  0  0  0  3  0  0  0  0  0  0
  188.3690  175.3600  142.2450 C   0  0  0  0  0  2  0  0  0  0  0  0
  186.8170  177.9430  141.4090 O   0  0  0  0  0  0  0  0  0  0  0  0
  184.1240  178.1790  146.5130 C   0  0  0  0  0  1  0  0  0  0  0  0
  187.9780  177.5100  143.4110 N   0  0  0  0  0  0  0  0  0  0  0  0
  185.8430  178.6660  144.7750 C   0  0  0  0  0  0  0  0  0  0  0  0
  192.8970  173.1780  139.3120 C   0  0  0  0  0  2  0  0  0  0  0  0
  193.4550  174.4530  138.7860 C   0  0  0  0  0  0  0  0  0  0  0  0
  193.0690  174.9180  137.5360 O   0  0  0  0  0  0  0  0  0  0  0  0
  194.3040  175.0930  139.4600 O   0  0  0  0  0  1  0  0  0  0  0  0
  1 16  1  1  0  0  0
  1 10  1  0  0  0  0
  2 24  1  1  0  0  0
  2 27  1  0  0  0  0
  2 12  1  0  0  0  0
  3  4  1  0  0  0  0
  5  6  1  0  0  0  0
  5 27  1  0  0  0  0
  6 18  1  6  0  0  0
  6 28  1  0  0  0  0
  7 19  1  1  0  0  0
  7 17  1  0  0  0  0
  7 24  1  0  0  0  0
  8 12  1  0  0  0  0
  9 26  1  0  0  0  0
 10 17  1  0  0  0  0
 11  3  2  0  0  0  0
 12 13  2  0  0  0  0
 13 11  1  0  0  0  0
 13 22  1  0  0  0  0
 14 23  2  0  0  0  0
 14 22  1  0  0  0  0
 15  9  1  0  0  0  0
 17  8  1  0  0  0  0
 18 15  1  0  0  0  0
 19 16  1  0  0  0  0
 20  1  1  0  0  0  0
 20 10  1  0  0  0  0
 21  4  1  0  0  0  0
 22 21  2  0  0  0  0
 25  5  2  0  0  0  0
 27 14  1  0  0  0  0
 28  9  2  0  0  0  0
 28 23  1  0  0  0  0
 29 20  1  0  0  0  0
 30 29  1  0  0  0  0
 30 32  1  0  0  0  0
 31 30  2  0  0  0  0
M  END
>  <MODEL>
3

>  <REMARK>
 VINA RESULT:      -8.6      2.947      8.010
  Name = 
  2 active torsions:
  status: ('A' for Active; 'I' for Inactive)
    1  A    between atoms: C_20  and  C_29
    2  A    between atoms: C_29  and  C_30
                            x       y       z     vdW  Elec       q    Type
                         _______ _______ _______ _____ _____    ______ ____

>  <TORSDO>
F 2

$$$$
=
 OpenBabel11112416353D

 32 38  0  0  1  0  0  0  0  0999 V2000
  186.3560  178.8410  143.5570 C   0  0  1  0  0  3  0  0  0  0  0  0
  189.1120  174.3320  144.0510 C   0  0  1  0  0  3  0  0  0  0  0  0
  192.2350  176.4800  147.2200 C   0  0  0  0  0  3  0  0  0  0  0  0
  193.2620  175.6820  146.6970 O   0  0  0  0  0  0  0  0  0  0  0  0
  189.7940  172.2170  142.8820 C   0  0  0  0  0  0  0  0  0  0  0  0
  190.8030  171.1380  142.6210 C   0  0  1  0  0  3  0  0  0  0  0  0
  187.6090  176.1330  143.1880 C   0  0  1  0  0  3  0  0  0  0  0  0
  188.3470  176.1880  145.6080 C   0  0  0  0  0  2  0  0  0  0  0  0
  192.9030  171.3350  141.6810 C   0  0  0  0  0  0  0  0  0  0  0  0
  186.8990  178.0710  144.7630 C   0  0  2  0  0  3  0  0  0  0  0  0
  190.9840  176.3520  146.7760 C   0  0  0  0  0  3  0  0  0  0  0  0
  189.4420  175.2390  145.2180 C   0  0  0  0  0  0  0  0  0  0  0  0
  190.6830  175.3620  145.7200 C   0  0  0  0  0  0  0  0  0  0  0  0
  191.5120  173.5110  144.1830 C   0  0  0  0  0  0  0  0  0  0  0  0
  192.1490  170.5830  140.7480 N   0  0  0  0  0  2  0  0  0  0  0  0
  186.9920  178.4320  142.2100 C   0  0  0  0  0  2  0  0  0  0  0  0
  187.9760  177.0320  144.3890 C   0  0  2  0  0  3  0  0  0  0  0  0
  190.7640  170.5600  141.2030 C   0  0  0  0  0  2  0  0  0  0  0  0
  187.1630  176.9260  141.9580 C   0  0  0  0  0  2  0  0  0  0  0  0
  185.5120  177.7550  144.2110 C   0  0  1  0  0  3  0  0  0  0  0  0
  193.0250  174.7190  145.7050 C   0  0  0  0  0  3  0  0  0  0  0  0
  191.7930  174.5330  145.2060 C   0  0  0  0  0  0  0  0  0  0  0  0
  192.5020  172.7630  143.6700 C   0  0  0  0  0  3  0  0  0  0  0  0
  188.7620  175.1920  142.8340 C   0  0  0  0  0  2  0  0  0  0  0  0
  188.6190  172.0940  142.4400 O   0  0  0  0  0  0  0  0  0  0  0  0
  194.2940  171.7940  141.4110 C   0  0  0  0  0  1  0  0  0  0  0  0
  190.1490  173.3420  143.7220 N   0  0  0  0  0  0  0  0  0  0  0  0
  192.1670  171.7130  142.7060 C   0  0  0  0  0  0  0  0  0  0  0  0
  184.4650  178.3980  145.0970 C   0  0  0  0  0  2  0  0  0  0  0  0
  184.5660  177.8500  146.4770 C   0  0  0  0  0  0  0  0  0  0  0  0
  184.7610  176.4890  146.6720 O   0  0  0  0  0  0  0  0  0  0  0  0
  184.4420  178.6150  147.4680 O   0  0  0  0  0  1  0  0  0  0  0  0
  1 16  1  6  0  0  0
  1 20  1  0  0  0  0
  1 10  1  0  0  0  0
  2 24  1  6  0  0  0
  2 12  1  0  0  0  0
  4  3  1  0  0  0  0
  5 27  1  0  0  0  0
  6 18  1  6  0  0  0
  6 28  1  0  0  0  0
  6  5  1  0  0  0  0
  7 19  1  6  0  0  0
  7 17  1  0  0  0  0
  9 28  2  0  0  0  0
 11  3  2  0  0  0  0
 12  8  1  0  0  0  0
 12 13  2  0  0  0  0
 13 11  1  0  0  0  0
 14 22  1  0  0  0  0
 15 18  1  0  0  0  0
 15  9  1  0  0  0  0
 17 10  1  0  0  0  0
 17  8  1  0  0  0  0
 19 16  1  0  0  0  0
 20 10  1  0  0  0  0
 20 29  1  0  0  0  0
 21  4  1  0  0  0  0
 22 21  2  0  0  0  0
 22 13  1  0  0  0  0
 23 14  2  0  0  0  0
 24  7  1  0  0  0  0
 25  5  2  0  0  0  0
 26  9  1  0  0  0  0
 27  2  1  0  0  0  0
 27 14  1  0  0  0  0
 28 23  1  0  0  0  0
 29 30  1  0  0  0  0
 30 31  2  0  0  0  0
 30 32  1  0  0  0  0
M  END
>  <MODEL>
4

>  <REMARK>
 VINA RESULT:      -8.4      2.308      4.537
  Name = 
  2 active torsions:
  status: ('A' for Active; 'I' for Inactive)
    1  A    between atoms: C_20  and  C_29
    2  A    between atoms: C_29  and  C_30
                            x       y       z     vdW  Elec       q    Type
                         _______ _______ _______ _____ _____    ______ ____

>  <TORSDO>
F 2

$$$$
=
 OpenBabel11112416353D

 32 38  0  0  1  0  0  0  0  0999 V2000
  190.8250  173.2220  145.3860 C   0  0  1  0  0  3  0  0  0  0  0  0
  187.7730  177.1600  143.5570 C   0  0  1  0  0  3  0  0  0  0  0  0
  186.3700  178.3290  148.1470 C   0  0  0  0  0  3  0  0  0  0  0  0
  185.1130  178.6850  147.6370 O   0  0  0  0  0  0  0  0  0  0  0  0
  186.4000  177.9420  141.6050 C   0  0  0  0  0  0  0  0  0  0  0  0
  185.2120  178.6750  141.0570 C   0  0  1  0  0  3  0  0  0  0  0  0
  189.1230  175.0630  143.7270 C   0  0  1  0  0  3  0  0  0  0  0  0
  189.3230  176.8170  145.5400 C   0  0  0  0  0  2  0  0  0  0  0  0
  182.9710  178.2070  141.3630 C   0  0  0  0  0  0  0  0  0  0  0  0
  190.6400  174.6840  145.7990 C   0  0  2  0  0  3  0  0  0  0  0  0
  187.3410  177.9180  147.3310 C   0  0  0  0  0  3  0  0  0  0  0  0
  188.0290  177.3830  145.0320 C   0  0  0  0  0  0  0  0  0  0  0  0
  187.0860  177.8360  145.8770 C   0  0  0  0  0  0  0  0  0  0  0  0
  185.4860  178.1990  143.9330 C   0  0  0  0  0  0  0  0  0  0  0  0
  183.2130  177.9730  139.9870 N   0  0  0  0  0  2  0  0  0  0  0  0
  189.6910  172.6720  144.4900 C   0  0  0  0  0  2  0  0  0  0  0  0
  189.3550  175.3210  145.2330 C   0  0  2  0  0  3  0  0  0  0  0  0
  184.6480  178.0910  139.7570 C   0  0  0  0  0  2  0  0  0  0  0  0
  189.2120  173.5830  143.3500 C   0  0  0  0  0  2  0  0  0  0  0  0
  191.6690  174.3090  144.7360 C   0  0  1  0  0  3  0  0  0  0  0  0
  184.8270  178.6380  146.2650 C   0  0  0  0  0  3  0  0  0  0  0  0
  185.7520  178.2330  145.3810 C   0  0  0  0  0  0  0  0  0  0  0  0
  184.2750  178.5220  143.4500 C   0  0  0  0  0  3  0  0  0  0  0  0
  187.7900  175.6570  143.2680 C   0  0  0  0  0  2  0  0  0  0  0  0
  187.3030  177.5410  140.8210 O   0  0  0  0  0  0  0  0  0  0  0  0
  181.6640  177.9110  142.0130 C   0  0  0  0  0  1  0  0  0  0  0  0
  186.5490  177.7880  143.0370 N   0  0  0  0  0  0  0  0  0  0  0  0
  184.0750  178.5390  142.0000 C   0  0  0  0  0  0  0  0  0  0  0  0
  193.0510  174.3120  145.3590 C   0  0  0  0  0  2  0  0  0  0  0  0
  193.5310  175.7110  145.5190 C   0  0  0  0  0  0  0  0  0  0  0  0
  193.2350  176.6620  144.5510 O   0  0  0  0  0  0  0  0  0  0  0  0
  194.2330  176.0250  146.5150 O   0  0  0  0  0  1  0  0  0  0  0  0
  1 16  1  6  0  0  0
  1 10  1  0  0  0  0
  2 24  1  1  0  0  0
  2 12  1  0  0  0  0
  4  3  1  0  0  0  0
  5 27  1  0  0  0  0
  6 18  1  6  0  0  0
  6  5  1  0  0  0  0
  6 28  1  0  0  0  0
  7 24  1  1  0  0  0
  7 17  1  0  0  0  0
  9 28  2  0  0  0  0
  9 26  1  0  0  0  0
 11  3  2  0  0  0  0
 12  8  1  0  0  0  0
 12 13  2  0  0  0  0
 13 11  1  0  0  0  0
 14 22  1  0  0  0  0
 15  9  1  0  0  0  0
 17  8  1  0  0  0  0
 17 10  1  0  0  0  0
 18 15  1  0  0  0  0
 19  7  1  0  0  0  0
 19 16  1  0  0  0  0
 20 29  1  0  0  0  0
 20  1  1  0  0  0  0
 20 10  1  0  0  0  0
 21  4  1  0  0  0  0
 22 13  1  0  0  0  0
 22 21  2  0  0  0  0
 23 14  2  0  0  0  0
 25  5  2  0  0  0  0
 27  2  1  0  0  0  0
 27 14  1  0  0  0  0
 28 23  1  0  0  0  0
 29 30  1  0  0  0  0
 30 32  1  0  0  0  0
 31 30  2  0  0  0  0
M  END
>  <MODEL>
5

>  <REMARK>
 VINA RESULT:      -8.4      2.813      8.424
  Name = 
  2 active torsions:
  status: ('A' for Active; 'I' for Inactive)
    1  A    between atoms: C_20  and  C_29
    2  A    between atoms: C_29  and  C_30
                            x       y       z     vdW  Elec       q    Type
                         _______ _______ _______ _____ _____    ______ ____

>  <TORSDO>
F 2

$$$$
=
 OpenBabel11112416353D

 32 38  0  0  1  0  0  0  0  0999 V2000
  186.5270  176.7910  145.9070 C   0  0  1  0  0  3  0  0  0  0  0  0
  191.2180  175.9420  143.5740 C   0  0  1  0  0  3  0  0  0  0  0  0
  189.1500  172.8330  140.3380 C   0  0  0  0  0  3  0  0  0  0  0  0
  190.3360  172.0850  140.3500 O   0  0  0  0  0  0  0  0  0  0  0  0
  193.7010  175.8720  143.9450 C   0  0  0  0  0  0  0  0  0  0  0  0
  195.0480  175.2840  143.6460 C   0  0  1  0  0  3  0  0  0  0  0  0
  189.4460  176.5400  145.2320 C   0  0  1  0  0  3  0  0  0  0  0  0
  188.8180  176.2440  142.7980 C   0  0  0  0  0  2  0  0  0  0  0  0
  195.7850  173.1260  144.0120 C   0  0  0  0  0  0  0  0  0  0  0  0
  186.9830  176.7650  144.4460 C   0  0  2  0  0  3  0  0  0  0  0  0
  189.0500  173.9550  141.0520 C   0  0  0  0  0  3  0  0  0  0  0  0
  190.1160  175.5100  142.6300 C   0  0  0  0  0  0  0  0  0  0  0  0
  190.1990  174.4080  141.8630 C   0  0  0  0  0  0  0  0  0  0  0  0
  192.6070  174.0480  142.6040 C   0  0  0  0  0  0  0  0  0  0  0  0
  196.5490  173.9320  144.8900 N   0  0  0  0  0  2  0  0  0  0  0  0
  187.5200  176.1260  146.8870 C   0  0  0  0  0  2  0  0  0  0  0  0
  188.3500  176.0820  144.2440 C   0  0  2  0  0  3  0  0  0  0  0  0
  196.0210  175.2890  144.8300 C   0  0  0  0  0  2  0  0  0  0  0  0
  189.0060  176.4630  146.6960 C   0  0  0  0  0  2  0  0  0  0  0  0
  187.0470  178.0610  145.2490 C   0  0  1  0  0  3  0  0  0  0  0  0
  191.4580  172.4810  141.0920 C   0  0  0  0  0  3  0  0  0  0  0  0
  191.4330  173.5960  141.8360 C   0  0  0  0  0  0  0  0  0  0  0  0
  193.7340  173.3180  142.6290 C   0  0  0  0  0  3  0  0  0  0  0  0
  190.7410  175.7550  145.0170 C   0  0  0  0  0  2  0  0  0  0  0  0
  193.6170  176.9230  144.6380 O   0  0  0  0  0  0  0  0  0  0  0  0
  195.8620  171.6390  144.0090 C   0  0  0  0  0  1  0  0  0  0  0  0
  192.5160  175.2860  143.3540 N   0  0  0  0  0  0  0  0  0  0  0  0
  194.8960  173.8390  143.3500 C   0  0  0  0  0  0  0  0  0  0  0  0
  185.8760  178.9430  144.8650 C   0  0  0  0  0  2  0  0  0  0  0  0
  184.9230  179.0410  146.0040 C   0  0  0  0  0  0  0  0  0  0  0  0
  185.3770  179.4150  147.2610 O   0  0  0  0  0  1  0  0  0  0  0  0
  183.7090  178.7510  145.8340 O   0  0  0  0  0  0  0  0  0  0  0  0
  1 16  1  1  0  0  0
  2 24  1  1  0  0  0
  3  4  1  0  0  0  0
  3 11  2  0  0  0  0
  4 21  1  0  0  0  0
  5 25  2  0  0  0  0
  6  5  1  0  0  0  0
  6 18  1  1  0  0  0
  7 24  1  1  0  0  0
  7 19  1  0  0  0  0
  8 17  1  0  0  0  0
  9 15  1  0  0  0  0
 10 20  1  0  0  0  0
 10  1  1  0  0  0  0
 11 13  1  0  0  0  0
 12  8  1  0  0  0  0
 12  2  1  0  0  0  0
 13 12  2  0  0  0  0
 14 23  2  0  0  0  0
 14 27  1  0  0  0  0
 17 10  1  0  0  0  0
 17  7  1  0  0  0  0
 18 15  1  0  0  0  0
 19 16  1  0  0  0  0
 20  1  1  0  0  0  0
 21 22  2  0  0  0  0
 22 13  1  0  0  0  0
 22 14  1  0  0  0  0
 23 28  1  0  0  0  0
 26  9  1  0  0  0  0
 27  2  1  0  0  0  0
 27  5  1  0  0  0  0
 28  6  1  0  0  0  0
 28  9  2  0  0  0  0
 29 20  1  0  0  0  0
 29 30  1  0  0  0  0
 30 31  1  0  0  0  0
 32 30  2  0  0  0  0
M  END
>  <MODEL>
6

>  <REMARK>
 VINA RESULT:      -8.2      1.637      1.741
  Name = 
  2 active torsions:
  status: ('A' for Active; 'I' for Inactive)
    1  A    between atoms: C_20  and  C_29
    2  A    between atoms: C_29  and  C_30
                            x       y       z     vdW  Elec       q    Type
                         _______ _______ _______ _____ _____    ______ ____

>  <TORSDO>
F 2

$$$$
=
 OpenBabel11112416353D

 32 38  0  0  1  0  0  0  0  0999 V2000
  186.3010  178.2380  144.5940 C   0  0  1  0  0  3  0  0  0  0  0  0
  189.1410  174.4240  142.2380 C   0  0  1  0  0  3  0  0  0  0  0  0
  193.2610  175.9780  144.4790 C   0  0  0  0  0  3  0  0  0  0  0  0
  193.9830  175.6040  143.3370 O   0  0  0  0  0  0  0  0  0  0  0  0
  189.3150  172.9730  140.1950 C   0  0  0  0  0  0  0  0  0  0  0  0
  190.1440  172.2500  139.1760 C   0  0  1  0  0  3  0  0  0  0  0  0
  187.3550  176.0870  142.7780 C   0  0  1  0  0  3  0  0  0  0  0  0
  189.0700  175.4920  144.5410 C   0  0  0  0  0  2  0  0  0  0  0  0
  191.6190  173.1360  137.6360 C   0  0  0  0  0  0  0  0  0  0  0  0
  187.3390  177.2360  145.1050 C   0  0  2  0  0  3  0  0  0  0  0  0
  191.9460  175.7660  144.5480 C   0  0  0  0  0  3  0  0  0  0  0  0
  189.9160  174.9470  143.4280 C   0  0  0  0  0  0  0  0  0  0  0  0
  191.2480  175.1340  143.4090 C   0  0  0  0  0  0  0  0  0  0  0  0
  191.3850  174.0760  141.0990 C   0  0  0  0  0  0  0  0  0  0  0  0
  190.5590  172.5990  136.8660 N   0  0  0  0  0  2  0  0  0  0  0  0
  186.3010  178.4170  143.0590 C   0  0  0  0  0  2  0  0  0  0  0  0
  188.1790  176.6000  143.9800 C   0  0  2  0  0  3  0  0  0  0  0  0
  189.5110  172.1670  137.7830 C   0  0  0  0  0  2  0  0  0  0  0  0
  186.3940  177.1360  142.2160 C   0  0  0  0  0  2  0  0  0  0  0  0
  185.8610  176.8590  145.0670 C   0  0  1  0  0  3  0  0  0  0  0  0
  193.3690  174.9890  142.2370 C   0  0  0  0  0  3  0  0  0  0  0  0
  192.0500  174.7440  142.2310 C   0  0  0  0  0  0  0  0  0  0  0  0
  192.0770  173.7370  139.9990 C   0  0  0  0  0  3  0  0  0  0  0  0
  188.2690  175.5490  141.6750 C   0  0  0  0  0  2  0  0  0  0  0  0
  188.0690  172.7790  140.2390 O   0  0  0  0  0  0  0  0  0  0  0  0
  192.7390  173.9130  137.0350 C   0  0  0  0  0  1  0  0  0  0  0  0
  189.9630  173.8100  141.1830 N   0  0  0  0  0  0  0  0  0  0  0  0
  191.3900  173.0140  138.9280 C   0  0  0  0  0  0  0  0  0  0  0  0
  185.2830  176.9680  146.4640 C   0  0  0  0  0  2  0  0  0  0  0  0
  184.7670  178.3450  146.6910 C   0  0  0  0  0  0  0  0  0  0  0  0
  185.4270  179.2000  147.5630 O   0  0  0  0  0  1  0  0  0  0  0  0
  183.7120  178.7230  146.1180 O   0  0  0  0  0  0  0  0  0  0  0  0
  1 16  1  6  0  0  0
  1 20  1  0  0  0  0
  1 10  1  0  0  0  0
  2 24  1  6  0  0  0
  2 12  1  0  0  0  0
  3 11  2  0  0  0  0
  4  3  1  0  0  0  0
  5 25  2  0  0  0  0
  5 27  1  0  0  0  0
  6 18  1  6  0  0  0
  6  5  1  0  0  0  0
  7 24  1  6  0  0  0
  7 17  1  0  0  0  0
  9 28  2  0  0  0  0
 12  8  1  0  0  0  0
 13 12  2  0  0  0  0
 13 11  1  0  0  0  0
 14 27  1  0  0  0  0
 14 22  1  0  0  0  0
 15  9  1  0  0  0  0
 15 18  1  0  0  0  0
 17  8  1  0  0  0  0
 17 10  1  0  0  0  0
 19  7  1  0  0  0  0
 19 16  1  0  0  0  0
 20 10  1  0  0  0  0
 20 29  1  0  0  0  0
 21  4  1  0  0  0  0
 22 21  2  0  0  0  0
 22 13  1  0  0  0  0
 23 14  2  0  0  0  0
 26  9  1  0  0  0  0
 27  2  1  0  0  0  0
 28  6  1  0  0  0  0
 28 23  1  0  0  0  0
 29 30  1  0  0  0  0
 30 31  1  0  0  0  0
 32 30  2  0  0  0  0
M  END
>  <MODEL>
7

>  <REMARK>
 VINA RESULT:      -8.1      2.935      5.244
  Name = 
  2 active torsions:
  status: ('A' for Active; 'I' for Inactive)
    1  A    between atoms: C_20  and  C_29
    2  A    between atoms: C_29  and  C_30
                            x       y       z     vdW  Elec       q    Type
                         _______ _______ _______ _____ _____    ______ ____

>  <TORSDO>
F 2

$$$$
=
 OpenBabel11112416353D

 32 38  0  0  1  0  0  0  0  0999 V2000
  187.4300  177.9160  145.4770 C   0  0  1  0  0  3  0  0  0  0  0  0
  190.5450  173.7370  144.4800 C   0  0  1  0  0  3  0  0  0  0  0  0
  194.4320  176.0400  146.4780 C   0  0  0  0  0  3  0  0  0  0  0  0
  195.2530  175.4000  145.5390 O   0  0  0  0  0  0  0  0  0  0  0  0
  190.9180  171.7880  142.9400 C   0  0  0  0  0  0  0  0  0  0  0  0
  191.8440  170.8510  142.2230 C   0  0  1  0  0  3  0  0  0  0  0  0
  188.6800  175.3990  144.4090 C   0  0  1  0  0  3  0  0  0  0  0  0
  190.2640  175.3950  146.3830 C   0  0  0  0  0  2  0  0  0  0  0  0
  193.4130  171.3460  140.6030 C   0  0  0  0  0  0  0  0  0  0  0  0
  188.4490  177.1440  146.3170 C   0  0  2  0  0  3  0  0  0  0  0  0
  193.1220  175.7940  146.5130 C   0  0  0  0  0  3  0  0  0  0  0  0
  191.2100  174.6040  145.5270 C   0  0  0  0  0  0  0  0  0  0  0  0
  192.5330  174.8400  145.5500 C   0  0  0  0  0  0  0  0  0  0  0  0
  192.8810  173.1930  143.6420 C   0  0  0  0  0  0  0  0  0  0  0  0
  192.4320  170.5680  139.9420 N   0  0  0  0  0  2  0  0  0  0  0  0
  187.5470  177.6650  143.9560 C   0  0  0  0  0  2  0  0  0  0  0  0
  189.3920  176.2620  145.4750 C   0  0  2  0  0  3  0  0  0  0  0  0
  191.3250  170.3580  140.8680 C   0  0  0  0  0  2  0  0  0  0  0  0
  187.7390  176.2070  143.5130 C   0  0  0  0  0  2  0  0  0  0  0  0
  186.9890  176.7030  146.2830 C   0  0  1  0  0  3  0  0  0  0  0  0
  194.7440  174.4770  144.6140 C   0  0  0  0  0  3  0  0  0  0  0  0
  193.4360  174.1780  144.5860 C   0  0  0  0  0  0  0  0  0  0  0  0
  193.6670  172.5970  142.7300 C   0  0  0  0  0  3  0  0  0  0  0  0
  189.6920  174.6210  143.5670 C   0  0  0  0  0  2  0  0  0  0  0  0
  189.6780  171.5560  142.9500 O   0  0  0  0  0  0  0  0  0  0  0  0
  194.5570  171.9780  139.8880 C   0  0  0  0  0  1  0  0  0  0  0  0
  191.4640  172.8940  143.6980 N   0  0  0  0  0  0  0  0  0  0  0  0
  193.0860  171.5750  141.8580 C   0  0  0  0  0  0  0  0  0  0  0  0
  186.3000  177.1660  147.5510 C   0  0  0  0  0  2  0  0  0  0  0  0
  185.3280  178.2470  147.2310 C   0  0  0  0  0  0  0  0  0  0  0  0
  184.1760  177.9560  146.5130 O   0  0  0  0  0  0  0  0  0  0  0  0
  185.5670  179.4310  147.5840 O   0  0  0  0  0  1  0  0  0  0  0  0
  1 16  1  6  0  0  0
  1 20  1  0  0  0  0
  1 10  1  0  0  0  0
  2 24  1  6  0  0  0
  2 12  1  0  0  0  0
  3 11  2  0  0  0  0
  4  3  1  0  0  0  0
  5 25  2  0  0  0  0
  5 27  1  0  0  0  0
  6 18  1  6  0  0  0
  6  5  1  0  0  0  0
  7 19  1  6  0  0  0
  7 17  1  0  0  0  0
  9 28  2  0  0  0  0
 12 13  2  0  0  0  0
 12  8  1  0  0  0  0
 13 11  1  0  0  0  0
 14 27  1  0  0  0  0
 14 22  1  0  0  0  0
 15  9  1  0  0  0  0
 15 18  1  0  0  0  0
 17 10  1  0  0  0  0
 17  8  1  0  0  0  0
 19 16  1  0  0  0  0
 20 10  1  0  0  0  0
 20 29  1  0  0  0  0
 21  4  1  0  0  0  0
 22 21  2  0  0  0  0
 22 13  1  0  0  0  0
 23 14  2  0  0  0  0
 24  7  1  0  0  0  0
 26  9  1  0  0  0  0
 27  2  1  0  0  0  0
 28  6  1  0  0  0  0
 28 23  1  0  0  0  0
 30 29  1  0  0  0  0
 30 32  1  0  0  0  0
 31 30  2  0  0  0  0
M  END
>  <MODEL>
8

>  <REMARK>
 VINA RESULT:      -7.9      2.438      4.817
  Name = 
  2 active torsions:
  status: ('A' for Active; 'I' for Inactive)
    1  A    between atoms: C_20  and  C_29
    2  A    between atoms: C_29  and  C_30
                            x       y       z     vdW  Elec       q    Type
                         _______ _______ _______ _____ _____    ______ ____

>  <TORSDO>
F 2

$$$$
=
 OpenBabel11112416353D

 32 38  0  0  1  0  0  0  0  0999 V2000
  190.8460  173.1760  145.1170 C   0  0  1  0  0  3  0  0  0  0  0  0
  187.7440  177.1310  143.4130 C   0  0  1  0  0  3  0  0  0  0  0  0
  186.5530  178.3210  148.0590 C   0  0  0  0  0  3  0  0  0  0  0  0
  185.2780  178.6850  147.6030 O   0  0  0  0  0  0  0  0  0  0  0  0
  186.2900  177.9180  141.5220 C   0  0  0  0  0  0  0  0  0  0  0  0
  185.0840  178.6580  141.0250 C   0  0  1  0  0  3  0  0  0  0  0  0
  189.0840  175.0250  143.5300 C   0  0  1  0  0  3  0  0  0  0  0  0
  189.3770  176.7820  145.3280 C   0  0  0  0  0  2  0  0  0  0  0  0
  182.8560  178.2070  141.4310 C   0  0  0  0  0  0  0  0  0  0  0  0
  190.6890  174.6400  145.5330 C   0  0  2  0  0  3  0  0  0  0  0  0
  187.4840  177.9010  147.2010 C   0  0  0  0  0  3  0  0  0  0  0  0
  188.0660  177.3550  144.8760 C   0  0  0  0  0  0  0  0  0  0  0  0
  187.1650  177.8170  145.7600 C   0  0  0  0  0  0  0  0  0  0  0  0
  185.4830  178.1870  143.8880 C   0  0  0  0  0  0  0  0  0  0  0  0
  183.0360  177.9680  140.0470 N   0  0  0  0  0  2  0  0  0  0  0  0
  189.6700  172.6320  144.2740 C   0  0  0  0  0  2  0  0  0  0  0  0
  189.3850  175.2840  145.0230 C   0  0  2  0  0  3  0  0  0  0  0  0
  184.4600  178.0740  139.7530 C   0  0  0  0  0  2  0  0  0  0  0  0
  189.1470  173.5430  143.1530 C   0  0  0  0  0  2  0  0  0  0  0  0
  191.6680  174.2550  144.4270 C   0  0  1  0  0  3  0  0  0  0  0  0
  184.9310  178.6360  146.2450 C   0  0  0  0  0  3  0  0  0  0  0  0
  185.8130  178.2230  145.3230 C   0  0  0  0  0  0  0  0  0  0  0  0
  184.2540  178.5170  143.4580 C   0  0  0  0  0  3  0  0  0  0  0  0
  187.7370  175.6270  143.1290 C   0  0  0  0  0  2  0  0  0  0  0  0
  187.1550  177.5080  140.7000 O   0  0  0  0  0  0  0  0  0  0  0  0
  181.5770  177.9210  142.1400 C   0  0  0  0  0  1  0  0  0  0  0  0
  186.5020  177.7660  142.9470 N   0  0  0  0  0  0  0  0  0  0  0  0
  183.9900  178.5320  142.0180 C   0  0  0  0  0  0  0  0  0  0  0  0
  193.0760  174.2490  144.9880 C   0  0  0  0  0  2  0  0  0  0  0  0
  193.7230  172.9370  144.7140 C   0  0  0  0  0  0  0  0  0  0  0  0
  194.2090  172.1700  145.7630 O   0  0  0  0  0  1  0  0  0  0  0  0
  193.8590  172.5390  143.5280 O   0  0  0  0  0  0  0  0  0  0  0  0
  1 16  1  6  0  0  0
  1 10  1  0  0  0  0
  2 24  1  1  0  0  0
  2 12  1  0  0  0  0
  4  3  1  0  0  0  0
  5 27  1  0  0  0  0
  6 18  1  6  0  0  0
  6  5  1  0  0  0  0
  6 28  1  0  0  0  0
  7 24  1  1  0  0  0
  7 17  1  0  0  0  0
  9 28  2  0  0  0  0
  9 26  1  0  0  0  0
 11  3  2  0  0  0  0
 12  8  1  0  0  0  0
 12 13  2  0  0  0  0
 13 11  1  0  0  0  0
 14 22  1  0  0  0  0
 15  9  1  0  0  0  0
 17  8  1  0  0  0  0
 17 10  1  0  0  0  0
 18 15  1  0  0  0  0
 19  7  1  0  0  0  0
 19 16  1  0  0  0  0
 20 29  1  0  0  0  0
 20  1  1  0  0  0  0
 20 10  1  0  0  0  0
 21  4  1  0  0  0  0
 22 13  1  0  0  0  0
 22 21  2  0  0  0  0
 23 14  2  0  0  0  0
 25  5  2  0  0  0  0
 27  2  1  0  0  0  0
 27 14  1  0  0  0  0
 28 23  1  0  0  0  0
 30 29  1  0  0  0  0
 30 31  1  0  0  0  0
 32 30  2  0  0  0  0
M  END
>  <MODEL>
9

>  <REMARK>
 VINA RESULT:      -7.9      2.985      8.628
  Name = 
  2 active torsions:
  status: ('A' for Active; 'I' for Inactive)
    1  A    between atoms: C_20  and  C_29
    2  A    between atoms: C_29  and  C_30
                            x       y       z     vdW  Elec       q    Type
                         _______ _______ _______ _____ _____    ______ ____

>  <TORSDO>
F 2

$$$$
