=
 OpenBabel11112416533D

 31 35  0  0  1  0  0  0  0  0999 V2000
  194.4850  176.0980  144.8430 C   0  0  0  0  0  0  0  0  0  0  0  0
  191.2200  176.8380  143.1520 C   0  0  2  0  0  3  0  0  0  0  0  0
  190.8300  175.5800  142.3910 C   0  0  0  0  0  0  0  0  0  0  0  0
  188.3500  176.3020  147.6380 O   0  0  0  0  0  0  0  0  0  0  0  0
  187.6440  176.8600  146.7570 C   0  0  0  0  0  0  0  0  0  0  0  0
  191.5080  173.5630  141.2100 C   0  0  0  0  0  0  0  0  0  0  0  0
  192.2390  176.5610  144.2250 C   0  0  0  0  0  0  0  0  0  0  0  0
  194.1020  175.8970  146.1720 C   0  0  0  0  0  3  0  0  0  0  0  0
  191.8290  174.6880  141.9710 C   0  0  0  0  0  3  0  0  0  0  0  0
  189.5720  177.0790  145.0890 C   0  0  0  0  0  0  0  0  0  0  0  0
  195.7850  175.9610  144.4860 F   0  0  0  0  0  0  0  0  0  0  0  0
  188.3730  176.2550  142.3950 C   0  0  0  0  0  2  0  0  0  0  0  0
  192.7680  172.4540  140.7140 Cl  0  0  0  0  0  0  0  0  0  0  0  0
  190.4450  176.5650  145.9060 N   0  0  0  0  0  0  0  0  0  0  0  0
  190.0100  177.6060  143.7330 C   0  0  2  0  0  3  0  0  0  0  0  0
  188.2140  177.2700  145.5060 N   0  0  0  0  0  2  0  0  0  0  0  0
  193.5540  176.4160  143.9040 N   0  0  0  0  0  0  0  0  0  0  0  0
  190.1840  173.3230  140.8430 C   0  0  0  0  0  3  0  0  0  0  0  0
  191.8190  176.3800  145.5510 C   0  0  0  0  0  0  0  0  0  0  0  0
  192.7590  176.0410  146.5250 C   0  0  0  0  0  3  0  0  0  0  0  0
  188.8680  177.6600  142.7190 C   0  0  0  0  0  2  0  0  0  0  0  0
  189.4940  175.3500  141.9810 C   0  0  0  0  0  0  0  0  0  0  0  0
  189.1810  174.2140  141.2290 C   0  0  0  0  0  3  0  0  0  0  0  0
  184.8670  178.8940  145.1700 N   0  0  0  0  0  0  0  0  0  0  0  0
  185.3290  176.5810  145.8470 C   0  0  0  0  0  2  0  0  0  0  0  0
  186.6960  179.0250  148.3540 O   0  0  0  0  0  1  0  0  0  0  0  0
  184.9220  179.7900  144.0290 C   0  0  0  0  0  1  0  0  0  0  0  0
  185.3520  177.5970  144.7030 C   0  0  0  0  0  2  0  0  0  0  0  0
  185.8190  178.5180  147.3940 C   0  0  2  0  0  3  0  0  0  0  0  0
  186.1800  177.0690  147.0230 C   0  0  2  0  0  3  0  0  0  0  0  0
  185.8080  179.4160  146.1570 C   0  0  0  0  0  2  0  0  0  0  0  0
  1  8  1  0  0  0  0
  2  3  1  1  0  0  0
  2 15  1  0  0  0  0
  2  7  1  0  0  0  0
  5  4  2  0  0  0  0
  6  9  1  0  0  0  0
  7 19  2  0  0  0  0
  8 20  2  0  0  0  0
  9  3  2  0  0  0  0
 10 16  1  0  0  0  0
 10 14  2  0  0  0  0
 11  1  1  0  0  0  0
 12 21  1  0  0  0  0
 13  6  1  0  0  0  0
 15 21  1  6  0  0  0
 15 10  1  0  0  0  0
 16  5  1  0  0  0  0
 17  7  1  0  0  0  0
 17  1  2  0  0  0  0
 18  6  2  0  0  0  0
 18 23  1  0  0  0  0
 19 14  1  0  0  0  0
 19 20  1  0  0  0  0
 22  3  1  0  0  0  0
 22 12  1  0  0  0  0
 23 22  2  0  0  0  0
 24 31  1  0  0  0  0
 25 30  1  0  0  0  0
 27 24  1  0  0  0  0
 28 24  1  0  0  0  0
 28 25  1  0  0  0  0
 29 26  1  1  0  0  0
 30  5  1  6  0  0  0
 30 29  1  0  0  0  0
 31 29  1  0  0  0  0
M  END
>  <MODEL>
1

>  <REMARK>
 VINA RESULT:      -8.9      0.000      0.000
  Name = 
  1 active torsions:
  status: ('A' for Active; 'I' for Inactive)
    1  A    between atoms: C_5  and  C_30
                            x       y       z     vdW  Elec       q    Type
                         _______ _______ _______ _____ _____    ______ ____

>  <TORSDO>
F 1

$$$$
=
 OpenBabel11112416533D

 31 35  0  0  1  0  0  0  0  0999 V2000
  186.0530  178.2490  140.9470 C   0  0  0  0  0  0  0  0  0  0  0  0
  188.5920  178.0710  143.7030 C   0  0  2  0  0  3  0  0  0  0  0  0
  187.8610  177.5630  144.9350 C   0  0  0  0  0  0  0  0  0  0  0  0
  190.8230  173.5680  141.8600 O   0  0  0  0  0  0  0  0  0  0  0  0
  191.5820  174.0870  142.7210 C   0  0  0  0  0  0  0  0  0  0  0  0
  185.7930  177.3870  146.2080 C   0  0  0  0  0  0  0  0  0  0  0  0
  187.8440  177.7680  142.4320 C   0  0  0  0  0  0  0  0  0  0  0  0
  186.3620  177.1260  140.1750 C   0  0  0  0  0  3  0  0  0  0  0  0
  186.4790  177.7780  145.0570 C   0  0  0  0  0  3  0  0  0  0  0  0
  190.1720  176.2090  142.9540 C   0  0  0  0  0  0  0  0  0  0  0  0
  185.0090  179.0410  140.6020 F   0  0  0  0  0  0  0  0  0  0  0  0
  190.0350  176.7290  145.9690 C   0  0  0  0  0  2  0  0  0  0  0  0
  184.0660  177.6470  146.3290 Cl  0  0  0  0  0  0  0  0  0  0  0  0
  189.3210  175.8420  142.0410 N   0  0  0  0  0  0  0  0  0  0  0  0
  190.0540  177.5760  143.6070 C   0  0  2  0  0  3  0  0  0  0  0  0
  191.3040  175.3840  143.2640 N   0  0  0  0  0  2  0  0  0  0  0  0
  186.7880  178.5400  142.0530 N   0  0  0  0  0  0  0  0  0  0  0  0
  186.4840  176.7910  147.2630 C   0  0  0  0  0  3  0  0  0  0  0  0
  188.1920  176.6400  141.6730 C   0  0  0  0  0  0  0  0  0  0  0  0
  187.4400  176.3190  140.5420 C   0  0  0  0  0  3  0  0  0  0  0  0
  190.7370  177.6440  144.9730 C   0  0  0  0  0  2  0  0  0  0  0  0
  188.5600  176.9940  146.0270 C   0  0  0  0  0  0  0  0  0  0  0  0
  187.8630  176.5940  147.1710 C   0  0  0  0  0  3  0  0  0  0  0  0
  194.3320  174.6440  145.2690 N   0  0  0  0  0  0  0  0  0  0  0  0
  192.6510  172.9560  144.6810 C   0  0  0  0  0  2  0  0  0  0  0  0
  194.1770  174.4770  141.6010 O   0  0  0  0  0  1  0  0  0  0  0  0
  194.5620  175.7840  146.1380 C   0  0  0  0  0  1  0  0  0  0  0  0
  192.9820  174.1660  145.5580 C   0  0  0  0  0  2  0  0  0  0  0  0
  194.1200  174.0060  142.9140 C   0  0  2  0  0  3  0  0  0  0  0  0
  192.7780  173.3100  143.1970 C   0  0  2  0  0  3  0  0  0  0  0  0
  194.3650  175.1500  143.8990 C   0  0  0  0  0  2  0  0  0  0  0  0
  1 17  1  0  0  0  0
  2  7  1  6  0  0  0
  2  3  1  0  0  0  0
  3  9  2  0  0  0  0
  3 22  1  0  0  0  0
  4  5  2  0  0  0  0
  5 16  1  0  0  0  0
  6 13  1  0  0  0  0
  6 18  2  0  0  0  0
  8 20  1  0  0  0  0
  8  1  2  0  0  0  0
  9  6  1  0  0  0  0
 10 16  1  0  0  0  0
 10 15  1  0  0  0  0
 11  1  1  0  0  0  0
 12 22  1  0  0  0  0
 14 10  2  0  0  0  0
 15  2  1  0  0  0  0
 15 21  1  1  0  0  0
 17  7  2  0  0  0  0
 19 14  1  0  0  0  0
 19  7  1  0  0  0  0
 20 19  2  0  0  0  0
 21 12  1  0  0  0  0
 22 23  2  0  0  0  0
 23 18  1  0  0  0  0
 24 28  1  0  0  0  0
 24 27  1  0  0  0  0
 25 28  1  0  0  0  0
 29 26  1  6  0  0  0
 29 30  1  0  0  0  0
 29 31  1  0  0  0  0
 30  5  1  1  0  0  0
 30 25  1  0  0  0  0
 31 24  1  0  0  0  0
M  END
>  <MODEL>
2

>  <REMARK>
 VINA RESULT:      -8.7      4.051      7.667
  Name = 
  1 active torsions:
  status: ('A' for Active; 'I' for Inactive)
    1  A    between atoms: C_5  and  C_30
                            x       y       z     vdW  Elec       q    Type
                         _______ _______ _______ _____ _____    ______ ____

>  <TORSDO>
F 1

$$$$
=
 OpenBabel11112416533D

 31 35  0  0  1  0  0  0  0  0999 V2000
  185.6510  178.2950  140.9990 C   0  0  0  0  0  0  0  0  0  0  0  0
  188.3790  178.2300  143.5740 C   0  0  2  0  0  3  0  0  0  0  0  0
  187.7560  177.6910  144.8520 C   0  0  0  0  0  0  0  0  0  0  0  0
  190.6730  173.8290  141.5710 O   0  0  0  0  0  0  0  0  0  0  0  0
  191.4660  174.3810  142.3790 C   0  0  0  0  0  0  0  0  0  0  0  0
  185.7900  177.4250  146.2630 C   0  0  0  0  0  0  0  0  0  0  0  0
  187.5600  177.8940  142.3560 C   0  0  0  0  0  0  0  0  0  0  0  0
  185.9560  177.1870  140.2040 C   0  0  0  0  0  3  0  0  0  0  0  0
  186.3780  177.8450  145.0690 C   0  0  0  0  0  3  0  0  0  0  0  0
  189.9840  176.4390  142.7140 C   0  0  0  0  0  0  0  0  0  0  0  0
  184.5530  179.0410  140.7280 F   0  0  0  0  0  0  0  0  0  0  0  0
  190.0310  176.9530  145.7330 C   0  0  0  0  0  2  0  0  0  0  0  0
  184.0660  177.6090  146.5020 Cl  0  0  0  0  0  0  0  0  0  0  0  0
  189.0890  176.0340  141.8610 N   0  0  0  0  0  0  0  0  0  0  0  0
  189.8510  177.8000  143.3770 C   0  0  2  0  0  3  0  0  0  0  0  0
  191.1690  175.6650  142.9440 N   0  0  0  0  0  2  0  0  0  0  0  0
  186.4480  178.6190  142.0530 N   0  0  0  0  0  0  0  0  0  0  0  0
  186.5780  176.8600  147.2670 C   0  0  0  0  0  3  0  0  0  0  0  0
  187.9040  176.7830  141.5720 C   0  0  0  0  0  0  0  0  0  0  0  0
  187.0910  176.4280  140.4950 C   0  0  0  0  0  3  0  0  0  0  0  0
  190.6230  177.8990  144.6930 C   0  0  0  0  0  2  0  0  0  0  0  0
  188.5530  177.1540  145.8920 C   0  0  0  0  0  0  0  0  0  0  0  0
  187.9550  176.7240  147.0800 C   0  0  0  0  0  3  0  0  0  0  0  0
  192.5750  170.7590  142.5140 N   0  0  0  0  0  0  0  0  0  0  0  0
  193.3200  172.9020  141.5790 C   0  0  0  0  0  2  0  0  0  0  0  0
  191.8610  173.3570  145.0130 O   0  0  0  0  0  1  0  0  0  0  0  0
  191.8300  169.5570  142.1840 C   0  0  0  0  0  1  0  0  0  0  0  0
  192.5530  171.6030  141.3210 C   0  0  0  0  0  2  0  0  0  0  0  0
  192.5500  172.7210  143.9790 C   0  0  2  0  0  3  0  0  0  0  0  0
  192.7240  173.6570  142.7700 C   0  0  2  0  0  3  0  0  0  0  0  0
  191.8330  171.4320  143.5770 C   0  0  0  0  0  2  0  0  0  0  0  0
  1 17  1  0  0  0  0
  2  7  1  6  0  0  0
  2  3  1  0  0  0  0
  3  9  2  0  0  0  0
  3 22  1  0  0  0  0
  4  5  2  0  0  0  0
  5 16  1  0  0  0  0
  6 13  1  0  0  0  0
  6 18  2  0  0  0  0
  8 20  1  0  0  0  0
  8  1  2  0  0  0  0
  9  6  1  0  0  0  0
 10 16  1  0  0  0  0
 10 15  1  0  0  0  0
 11  1  1  0  0  0  0
 12 22  1  0  0  0  0
 14 10  2  0  0  0  0
 15  2  1  0  0  0  0
 15 21  1  1  0  0  0
 17  7  2  0  0  0  0
 19 14  1  0  0  0  0
 19  7  1  0  0  0  0
 20 19  2  0  0  0  0
 21 12  1  0  0  0  0
 22 23  2  0  0  0  0
 23 18  1  0  0  0  0
 24 31  1  0  0  0  0
 25 30  1  0  0  0  0
 27 24  1  0  0  0  0
 28 25  1  0  0  0  0
 28 24  1  0  0  0  0
 29 26  1  1  0  0  0
 30  5  1  6  0  0  0
 30 29  1  0  0  0  0
 31 29  1  0  0  0  0
M  END
>  <MODEL>
3

>  <REMARK>
 VINA RESULT:      -7.9      4.111      7.888
  Name = 
  1 active torsions:
  status: ('A' for Active; 'I' for Inactive)
    1  A    between atoms: C_5  and  C_30
                            x       y       z     vdW  Elec       q    Type
                         _______ _______ _______ _____ _____    ______ ____

>  <TORSDO>
F 1

$$$$
=
 OpenBabel11112416533D

 31 35  0  0  1  0  0  0  0  0999 V2000
  190.4340  171.3240  142.4010 C   0  0  0  0  0  0  0  0  0  0  0  0
  189.9840  174.3170  144.6160 C   0  0  2  0  0  3  0  0  0  0  0  0
  191.2770  175.1130  144.5390 C   0  0  0  0  0  0  0  0  0  0  0  0
  186.9160  176.9270  141.0920 O   0  0  0  0  0  0  0  0  0  0  0  0
  186.8260  177.4870  142.2170 C   0  0  0  0  0  0  0  0  0  0  0  0
  193.6890  175.1460  144.2120 C   0  0  0  0  0  0  0  0  0  0  0  0
  189.8330  173.3630  143.4620 C   0  0  0  0  0  0  0  0  0  0  0  0
  189.6860  171.6650  141.2710 C   0  0  0  0  0  3  0  0  0  0  0  0
  192.4760  174.4560  144.2210 C   0  0  0  0  0  3  0  0  0  0  0  0
  188.1900  175.6910  143.4250 C   0  0  0  0  0  0  0  0  0  0  0  0
  191.1090  170.1500  142.4360 F   0  0  0  0  0  0  0  0  0  0  0  0
  190.0870  177.2500  145.2550 C   0  0  0  0  0  2  0  0  0  0  0  0
  195.1680  174.3100  143.7940 Cl  0  0  0  0  0  0  0  0  0  0  0  0
  188.3310  174.9630  142.3560 N   0  0  0  0  0  0  0  0  0  0  0  0
  188.7240  175.2020  144.7610 C   0  0  2  0  0  3  0  0  0  0  0  0
  187.4220  176.9010  143.3820 N   0  0  0  0  0  2  0  0  0  0  0  0
  190.4980  172.1740  143.4610 N   0  0  0  0  0  0  0  0  0  0  0  0
  193.7220  176.5020  144.5400 C   0  0  0  0  0  3  0  0  0  0  0  0
  189.0610  173.7320  142.3500 C   0  0  0  0  0  0  0  0  0  0  0  0
  188.9960  172.8780  141.2490 C   0  0  0  0  0  3  0  0  0  0  0  0
  188.9730  176.3370  145.7540 C   0  0  0  0  0  2  0  0  0  0  0  0
  191.3260  176.4790  144.9080 C   0  0  0  0  0  0  0  0  0  0  0  0
  192.5430  177.1660  144.8850 C   0  0  0  0  0  3  0  0  0  0  0  0
  184.5490  179.1360  144.7590 N   0  0  0  0  0  0  0  0  0  0  0  0
  186.6070  179.6170  143.5130 C   0  0  0  0  0  2  0  0  0  0  0  0
  184.1200  177.7920  141.3650 O   0  0  0  0  0  1  0  0  0  0  0  0
  184.0660  178.6230  146.0290 C   0  0  0  0  0  1  0  0  0  0  0  0
  186.0080  179.0910  144.8190 C   0  0  0  0  0  2  0  0  0  0  0  0
  184.5720  178.6660  142.3560 C   0  0  2  0  0  3  0  0  0  0  0  0
  186.1050  178.8020  142.3180 C   0  0  2  0  0  3  0  0  0  0  0  0
  184.0950  178.2010  143.7320 C   0  0  0  0  0  2  0  0  0  0  0  0
  1 11  1  0  0  0  0
  1 17  1  0  0  0  0
  2  7  1  6  0  0  0
  2 15  1  0  0  0  0
  3  2  1  0  0  0  0
  3 22  1  0  0  0  0
  4  5  2  0  0  0  0
  5 16  1  0  0  0  0
  6  9  1  0  0  0  0
  6 18  2  0  0  0  0
  8  1  2  0  0  0  0
  9  3  2  0  0  0  0
 10 15  1  0  0  0  0
 12 21  1  0  0  0  0
 13  6  1  0  0  0  0
 14 10  2  0  0  0  0
 15 21  1  1  0  0  0
 16 10  1  0  0  0  0
 17  7  2  0  0  0  0
 18 23  1  0  0  0  0
 19 14  1  0  0  0  0
 19  7  1  0  0  0  0
 20  8  1  0  0  0  0
 20 19  2  0  0  0  0
 22 12  1  0  0  0  0
 23 22  2  0  0  0  0
 24 28  1  0  0  0  0
 24 27  1  0  0  0  0
 25 28  1  0  0  0  0
 29 26  1  6  0  0  0
 29 31  1  0  0  0  0
 30  5  1  1  0  0  0
 30 29  1  0  0  0  0
 30 25  1  0  0  0  0
 31 24  1  0  0  0  0
M  END
>  <MODEL>
4

>  <REMARK>
 VINA RESULT:      -7.7      3.127      4.754
  Name = 
  1 active torsions:
  status: ('A' for Active; 'I' for Inactive)
    1  A    between atoms: C_5  and  C_30
                            x       y       z     vdW  Elec       q    Type
                         _______ _______ _______ _____ _____    ______ ____

>  <TORSDO>
F 1

$$$$
=
 OpenBabel11112416533D

 31 35  0  0  1  0  0  0  0  0999 V2000
  194.0420  170.3270  144.3040 C   0  0  0  0  0  0  0  0  0  0  0  0
  194.5790  173.8420  145.5000 C   0  0  2  0  0  3  0  0  0  0  0  0
  195.3570  174.5580  144.4070 C   0  0  0  0  0  0  0  0  0  0  0  0
  189.5660  175.3710  144.4200 O   0  0  0  0  0  0  0  0  0  0  0  0
  190.1150  176.2340  145.1540 C   0  0  0  0  0  0  0  0  0  0  0  0
  196.9500  174.4530  142.5690 C   0  0  0  0  0  0  0  0  0  0  0  0
  193.9020  172.5960  144.9940 C   0  0  0  0  0  0  0  0  0  0  0  0
  192.7000  170.3390  143.9160 C   0  0  0  0  0  3  0  0  0  0  0  0
  196.1700  173.8160  143.5370 C   0  0  0  0  0  3  0  0  0  0  0  0
  192.2300  174.8420  145.5240 C   0  0  0  0  0  0  0  0  0  0  0  0
  194.7810  169.2020  144.1500 F   0  0  0  0  0  0  0  0  0  0  0  0
  194.5380  176.8310  145.2180 C   0  0  0  0  0  2  0  0  0  0  0  0
  197.9410  173.5050  141.4820 Cl  0  0  0  0  0  0  0  0  0  0  0  0
  191.7840  173.8330  144.8330 N   0  0  0  0  0  0  0  0  0  0  0  0
  193.5690  174.7520  146.2350 C   0  0  2  0  0  3  0  0  0  0  0  0
  191.4090  176.0010  145.7250 N   0  0  0  0  0  2  0  0  0  0  0  0
  194.6130  171.4470  144.8240 N   0  0  0  0  0  0  0  0  0  0  0  0
  196.9400  175.8450  142.4720 C   0  0  0  0  0  3  0  0  0  0  0  0
  192.5490  172.6410  144.6270 C   0  0  0  0  0  0  0  0  0  0  0  0
  191.9510  171.5060  144.0800 C   0  0  0  0  0  3  0  0  0  0  0  0
  194.1850  176.1220  146.5200 C   0  0  0  0  0  2  0  0  0  0  0  0
  195.3840  175.9710  144.3260 C   0  0  0  0  0  0  0  0  0  0  0  0
  196.1580  176.6000  143.3470 C   0  0  0  0  0  3  0  0  0  0  0  0
  186.5450  177.2650  145.9040 N   0  0  0  0  0  0  0  0  0  0  0  0
  188.8040  177.5750  146.8130 C   0  0  0  0  0  2  0  0  0  0  0  0
  188.8300  177.6770  143.0550 O   0  0  0  0  0  1  0  0  0  0  0  0
  185.3580  176.4390  146.0310 C   0  0  0  0  0  1  0  0  0  0  0  0
  187.5110  176.7570  146.8760 C   0  0  0  0  0  2  0  0  0  0  0  0
  188.3360  177.8680  144.3470 C   0  0  2  0  0  3  0  0  0  0  0  0
  189.4030  177.5340  145.4040 C   0  0  2  0  0  3  0  0  0  0  0  0
  187.0710  177.0370  144.5610 C   0  0  0  0  0  2  0  0  0  0  0  0
  1 17  1  0  0  0  0
  2  3  1  6  0  0  0
  2 15  1  0  0  0  0
  4  5  2  0  0  0  0
  5 16  1  0  0  0  0
  6  9  1  0  0  0  0
  7  2  1  0  0  0  0
  8 20  1  0  0  0  0
  8  1  2  0  0  0  0
  9  3  2  0  0  0  0
 10 16  1  0  0  0  0
 10 15  1  0  0  0  0
 11  1  1  0  0  0  0
 12 21  1  0  0  0  0
 13  6  1  0  0  0  0
 14 10  2  0  0  0  0
 15 21  1  6  0  0  0
 17  7  2  0  0  0  0
 18  6  2  0  0  0  0
 18 23  1  0  0  0  0
 19 14  1  0  0  0  0
 19  7  1  0  0  0  0
 20 19  2  0  0  0  0
 22  3  1  0  0  0  0
 22 12  1  0  0  0  0
 23 22  2  0  0  0  0
 24 27  1  0  0  0  0
 24 28  1  0  0  0  0
 25 28  1  0  0  0  0
 29 26  1  6  0  0  0
 29 31  1  0  0  0  0
 29 30  1  0  0  0  0
 30  5  1  6  0  0  0
 30 25  1  0  0  0  0
 31 24  1  0  0  0  0
M  END
>  <MODEL>
5

>  <REMARK>
 VINA RESULT:      -7.7      3.106      5.045
  Name = 
  1 active torsions:
  status: ('A' for Active; 'I' for Inactive)
    1  A    between atoms: C_5  and  C_30
                            x       y       z     vdW  Elec       q    Type
                         _______ _______ _______ _____ _____    ______ ____

>  <TORSDO>
F 1

$$$$
=
 OpenBabel11112416533D

 31 35  0  0  1  0  0  0  0  0999 V2000
  186.5780  178.3570  142.1540 C   0  0  0  0  0  0  0  0  0  0  0  0
  189.6930  176.8790  143.6340 C   0  0  2  0  0  3  0  0  0  0  0  0
  189.2810  176.2170  144.9390 C   0  0  0  0  0  0  0  0  0  0  0  0
  189.7440  172.7010  140.2890 O   0  0  0  0  0  0  0  0  0  0  0  0
  190.8590  172.7840  140.8690 C   0  0  0  0  0  0  0  0  0  0  0  0
  187.7830  176.1380  146.8560 C   0  0  0  0  0  0  0  0  0  0  0  0
  188.5200  177.1100  142.7180 C   0  0  0  0  0  0  0  0  0  0  0  0
  186.2690  177.4560  141.1330 C   0  0  0  0  0  3  0  0  0  0  0  0
  188.1450  176.6790  145.6220 C   0  0  0  0  0  3  0  0  0  0  0  0
  190.3090  175.0070  142.0090 C   0  0  0  0  0  0  0  0  0  0  0  0
  185.7690  179.4180  142.3890 F   0  0  0  0  0  0  0  0  0  0  0  0
  191.3150  174.6820  144.8830 C   0  0  0  0  0  2  0  0  0  0  0  0
  186.3520  176.7180  147.6790 Cl  0  0  0  0  0  0  0  0  0  0  0  0
  189.1390  175.1000  141.4460 N   0  0  0  0  0  0  0  0  0  0  0  0
  190.8240  176.1300  142.8930 C   0  0  2  0  0  3  0  0  0  0  0  0
  191.1750  173.9070  141.7030 N   0  0  0  0  0  2  0  0  0  0  0  0
  187.6830  178.1650  142.9240 N   0  0  0  0  0  0  0  0  0  0  0  0
  188.5650  175.1380  147.4360 C   0  0  0  0  0  3  0  0  0  0  0  0
  188.2480  176.1920  141.6930 C   0  0  0  0  0  0  0  0  0  0  0  0
  187.1110  176.3670  140.9030 C   0  0  0  0  0  3  0  0  0  0  0  0
  191.8990  175.6670  143.8770 C   0  0  0  0  0  2  0  0  0  0  0  0
  190.0900  175.2300  145.5530 C   0  0  0  0  0  0  0  0  0  0  0  0
  189.7140  174.6850  146.7840 C   0  0  0  0  0  3  0  0  0  0  0  0
  191.2940  169.8970  138.4510 N   0  0  0  0  0  0  0  0  0  0  0  0
  192.5820  171.7810  139.3550 C   0  0  0  0  0  2  0  0  0  0  0  0
  190.4410  170.2040  142.0120 O   0  0  0  0  0  1  0  0  0  0  0  0
  190.4620  169.5070  137.3270 C   0  0  0  0  0  1  0  0  0  0  0  0
  191.6950  171.2820  138.2110 C   0  0  0  0  0  2  0  0  0  0  0  0
  191.2430  170.2660  140.8710 C   0  0  2  0  0  3  0  0  0  0  0  0
  191.8520  171.6690  140.6960 C   0  0  2  0  0  3  0  0  0  0  0  0
  190.4410  169.8570  139.6360 C   0  0  0  0  0  2  0  0  0  0  0  0
  1 11  1  0  0  0  0
  1 17  1  0  0  0  0
  2  7  1  6  0  0  0
  2  3  1  0  0  0  0
  3 22  2  0  0  0  0
  3  9  1  0  0  0  0
  4  5  2  0  0  0  0
  5 16  1  0  0  0  0
  6 18  1  0  0  0  0
  6 13  1  0  0  0  0
  7 17  2  0  0  0  0
  8  1  2  0  0  0  0
  9  6  2  0  0  0  0
 10 15  1  0  0  0  0
 12 22  1  0  0  0  0
 14 19  1  0  0  0  0
 14 10  2  0  0  0  0
 15  2  1  0  0  0  0
 15 21  1  1  0  0  0
 16 10  1  0  0  0  0
 19  7  1  0  0  0  0
 20  8  1  0  0  0  0
 20 19  2  0  0  0  0
 21 12  1  0  0  0  0
 22 23  1  0  0  0  0
 23 18  2  0  0  0  0
 24 31  1  0  0  0  0
 25 30  1  0  0  0  0
 27 24  1  0  0  0  0
 28 24  1  0  0  0  0
 28 25  1  0  0  0  0
 29 26  1  1  0  0  0
 30  5  1  6  0  0  0
 30 29  1  0  0  0  0
 31 29  1  0  0  0  0
M  END
>  <MODEL>
6

>  <REMARK>
 VINA RESULT:      -7.6      4.443      8.191
  Name = 
  1 active torsions:
  status: ('A' for Active; 'I' for Inactive)
    1  A    between atoms: C_5  and  C_30
                            x       y       z     vdW  Elec       q    Type
                         _______ _______ _______ _____ _____    ______ ____

>  <TORSDO>
F 1

$$$$
=
 OpenBabel11112416533D

 31 35  0  0  1  0  0  0  0  0999 V2000
  186.0890  177.2390  142.4190 C   0  0  0  0  0  0  0  0  0  0  0  0
  188.3020  174.2230  142.7050 C   0  0  2  0  0  3  0  0  0  0  0  0
  188.8910  173.9840  141.3230 C   0  0  0  0  0  0  0  0  0  0  0  0
  192.2670  176.9000  145.1040 O   0  0  0  0  0  0  0  0  0  0  0  0
  192.4670  175.6620  145.2270 C   0  0  0  0  0  0  0  0  0  0  0  0
  188.6770  174.1660  138.9050 C   0  0  0  0  0  0  0  0  0  0  0  0
  187.7740  175.6240  142.8640 C   0  0  0  0  0  0  0  0  0  0  0  0
  186.8600  178.2400  143.0150 C   0  0  0  0  0  3  0  0  0  0  0  0
  188.1970  174.4330  140.1880 C   0  0  0  0  0  3  0  0  0  0  0  0
  190.2140  175.0110  144.2040 C   0  0  0  0  0  0  0  0  0  0  0  0
  184.8760  177.5400  141.8960 F   0  0  0  0  0  0  0  0  0  0  0  0
  190.8570  172.6950  142.3070 C   0  0  0  0  0  2  0  0  0  0  0  0
  187.8050  174.7520  137.5060 Cl  0  0  0  0  0  0  0  0  0  0  0  0
  189.8310  176.2460  144.0560 N   0  0  0  0  0  0  0  0  0  0  0  0
  189.2710  173.8710  143.8560 C   0  0  2  0  0  3  0  0  0  0  0  0
  191.4760  174.7110  144.8140 N   0  0  0  0  0  2  0  0  0  0  0  0
  186.5600  175.9650  142.3500 N   0  0  0  0  0  0  0  0  0  0  0  0
  189.8500  173.4300  138.7390 C   0  0  0  0  0  3  0  0  0  0  0  0
  188.5700  176.6010  143.4820 C   0  0  0  0  0  0  0  0  0  0  0  0
  188.1080  177.9150  143.5490 C   0  0  0  0  0  3  0  0  0  0  0  0
  190.0040  172.5620  143.5640 C   0  0  0  0  0  2  0  0  0  0  0  0
  190.0590  173.2040  141.1440 C   0  0  0  0  0  0  0  0  0  0  0  0
  190.5390  172.9520  139.8550 C   0  0  0  0  0  3  0  0  0  0  0  0
  196.1150  176.0340  144.2700 N   0  0  0  0  0  0  0  0  0  0  0  0
  194.6550  176.3720  146.2130 C   0  0  0  0  0  2  0  0  0  0  0  0
  193.7120  173.2550  144.3360 O   0  0  0  0  0  1  0  0  0  0  0  0
  196.7010  176.7290  143.1380 C   0  0  0  0  0  1  0  0  0  0  0  0
  195.3160  177.0200  144.9940 C   0  0  0  0  0  2  0  0  0  0  0  0
  194.5490  174.2450  144.8540 C   0  0  2  0  0  3  0  0  0  0  0  0
  193.7770  175.1900  145.7910 C   0  0  2  0  0  3  0  0  0  0  0  0
  195.2190  175.0200  143.7190 C   0  0  0  0  0  2  0  0  0  0  0  0
  1  8  1  0  0  0  0
  2  3  1  6  0  0  0
  2  7  1  0  0  0  0
  2 15  1  0  0  0  0
  4  5  2  0  0  0  0
  6  9  1  0  0  0  0
  7 19  2  0  0  0  0
  8 20  2  0  0  0  0
  9  3  2  0  0  0  0
 10 16  1  0  0  0  0
 11  1  1  0  0  0  0
 12 21  1  0  0  0  0
 13  6  1  0  0  0  0
 14 10  2  0  0  0  0
 15 21  1  6  0  0  0
 15 10  1  0  0  0  0
 16  5  1  0  0  0  0
 17  1  2  0  0  0  0
 17  7  1  0  0  0  0
 18  6  2  0  0  0  0
 18 23  1  0  0  0  0
 19 20  1  0  0  0  0
 19 14  1  0  0  0  0
 22  3  1  0  0  0  0
 22 12  1  0  0  0  0
 23 22  2  0  0  0  0
 24 28  1  0  0  0  0
 27 24  1  0  0  0  0
 28 25  1  0  0  0  0
 29 26  1  6  0  0  0
 29 30  1  0  0  0  0
 30  5  1  6  0  0  0
 30 25  1  0  0  0  0
 31 24  1  0  0  0  0
 31 29  1  0  0  0  0
M  END
>  <MODEL>
7

>  <REMARK>
 VINA RESULT:      -7.5      3.568      6.935
  Name = 
  1 active torsions:
  status: ('A' for Active; 'I' for Inactive)
    1  A    between atoms: C_5  and  C_30
                            x       y       z     vdW  Elec       q    Type
                         _______ _______ _______ _____ _____    ______ ____

>  <TORSDO>
F 1

$$$$
=
 OpenBabel11112416533D

 31 35  0  0  1  0  0  0  0  0999 V2000
  184.9460  177.8000  146.4460 C   0  0  0  0  0  0  0  0  0  0  0  0
  186.7030  175.8960  143.7330 C   0  0  2  0  0  3  0  0  0  0  0  0
  186.4030  176.6210  142.4300 C   0  0  0  0  0  0  0  0  0  0  0  0
  191.5250  177.8660  144.9610 O   0  0  0  0  0  0  0  0  0  0  0  0
  191.6630  176.8770  144.1930 C   0  0  0  0  0  0  0  0  0  0  0  0
  184.8940  178.0060  141.1130 C   0  0  0  0  0  0  0  0  0  0  0  0
  186.4630  176.7670  144.9370 C   0  0  0  0  0  0  0  0  0  0  0  0
  185.9930  178.4930  147.0590 C   0  0  0  0  0  3  0  0  0  0  0  0
  185.2320  177.3870  142.3180 C   0  0  0  0  0  3  0  0  0  0  0  0
  189.1790  176.2630  144.2370 C   0  0  0  0  0  0  0  0  0  0  0  0
  183.6750  177.9710  146.8830 F   0  0  0  0  0  0  0  0  0  0  0  0
  188.4760  175.6370  141.3230 C   0  0  0  0  0  2  0  0  0  0  0  0
  183.4400  178.9730  141.0040 Cl  0  0  0  0  0  0  0  0  0  0  0  0
  188.8760  177.2110  145.0760 N   0  0  0  0  0  0  0  0  0  0  0  0
  188.1180  175.2760  143.7810 C   0  0  2  0  0  3  0  0  0  0  0  0
  190.5400  176.0610  143.8320 N   0  0  0  0  0  2  0  0  0  0  0  0
  185.1990  176.9640  145.4030 N   0  0  0  0  0  0  0  0  0  0  0  0
  185.7150  177.8510  139.9960 C   0  0  0  0  0  3  0  0  0  0  0  0
  187.5400  177.4370  145.5360 C   0  0  0  0  0  0  0  0  0  0  0  0
  187.2980  178.3080  146.5980 C   0  0  0  0  0  3  0  0  0  0  0  0
  188.4600  174.6090  142.4490 C   0  0  0  0  0  2  0  0  0  0  0  0
  187.2090  176.4370  141.2810 C   0  0  0  0  0  0  0  0  0  0  0  0
  186.8690  177.0700  140.0810 C   0  0  0  0  0  3  0  0  0  0  0  0
  193.7500  173.7550  143.6740 N   0  0  0  0  0  0  0  0  0  0  0  0
  192.9260  175.6800  142.3940 C   0  0  0  0  0  2  0  0  0  0  0  0
  193.9750  176.7050  145.8550 O   0  0  0  0  0  1  0  0  0  0  0  0
  193.4380  172.3770  144.0060 C   0  0  0  0  0  1  0  0  0  0  0  0
  192.6790  174.2240  142.7970 C   0  0  0  0  0  2  0  0  0  0  0  0
  194.0010  175.9820  144.6610 C   0  0  2  0  0  3  0  0  0  0  0  0
  193.0240  176.5770  143.6310 C   0  0  2  0  0  3  0  0  0  0  0  0
  193.6920  174.5090  144.9250 C   0  0  0  0  0  2  0  0  0  0  0  0
  1 11  1  0  0  0  0
  1  8  1  0  0  0  0
  2  3  1  6  0  0  0
  2 15  1  0  0  0  0
  2  7  1  0  0  0  0
  5  4  2  0  0  0  0
  6  9  2  0  0  0  0
  7 17  1  0  0  0  0
  7 19  2  0  0  0  0
  9  3  1  0  0  0  0
 10 14  2  0  0  0  0
 12 21  1  0  0  0  0
 13  6  1  0  0  0  0
 14 19  1  0  0  0  0
 15 21  1  6  0  0  0
 15 10  1  0  0  0  0
 16  5  1  0  0  0  0
 16 10  1  0  0  0  0
 17  1  2  0  0  0  0
 18 23  2  0  0  0  0
 18  6  1  0  0  0  0
 19 20  1  0  0  0  0
 20  8  2  0  0  0  0
 22 12  1  0  0  0  0
 22  3  2  0  0  0  0
 23 22  1  0  0  0  0
 24 27  1  0  0  0  0
 24 31  1  0  0  0  0
 25 28  1  0  0  0  0
 25 30  1  0  0  0  0
 28 24  1  0  0  0  0
 29 31  1  0  0  0  0
 29 26  1  1  0  0  0
 30  5  1  1  0  0  0
 30 29  1  0  0  0  0
M  END
>  <MODEL>
8

>  <REMARK>
 VINA RESULT:      -7.5      3.794      7.138
  Name = 
  1 active torsions:
  status: ('A' for Active; 'I' for Inactive)
    1  A    between atoms: C_5  and  C_30
                            x       y       z     vdW  Elec       q    Type
                         _______ _______ _______ _____ _____    ______ ____

>  <TORSDO>
F 1

$$$$
=
 OpenBabel11112416533D

 31 35  0  0  1  0  0  0  0  0999 V2000
  185.8910  179.0370  143.0530 C   0  0  0  0  0  0  0  0  0  0  0  0
  189.0310  177.1560  143.8730 C   0  0  2  0  0  3  0  0  0  0  0  0
  188.7520  176.3830  145.1530 C   0  0  0  0  0  0  0  0  0  0  0  0
  188.1910  173.3970  140.1560 O   0  0  0  0  0  0  0  0  0  0  0  0
  189.3820  173.3240  140.5610 C   0  0  0  0  0  0  0  0  0  0  0  0
  187.5500  176.2060  147.2620 C   0  0  0  0  0  0  0  0  0  0  0  0
  187.7650  177.5830  143.1790 C   0  0  0  0  0  0  0  0  0  0  0  0
  185.3500  178.2860  142.0060 C   0  0  0  0  0  3  0  0  0  0  0  0
  187.7780  176.8540  146.0470 C   0  0  0  0  0  3  0  0  0  0  0  0
  189.2200  175.4390  141.9920 C   0  0  0  0  0  0  0  0  0  0  0  0
  185.2300  180.1260  143.5160 F   0  0  0  0  0  0  0  0  0  0  0  0
  190.5990  174.7080  144.6270 C   0  0  0  0  0  2  0  0  0  0  0  0
  186.3160  176.8000  148.3520 Cl  0  0  0  0  0  0  0  0  0  0  0  0
  187.9950  175.6890  141.6290 N   0  0  0  0  0  0  0  0  0  0  0  0
  189.9650  176.4090  142.8940 C   0  0  2  0  0  3  0  0  0  0  0  0
  189.9230  174.3150  141.4450 N   0  0  0  0  0  2  0  0  0  0  0  0
  187.0720  178.6700  143.6170 N   0  0  0  0  0  0  0  0  0  0  0  0
  188.3080  175.0870  147.6080 C   0  0  0  0  0  3  0  0  0  0  0  0
  187.2590  176.8130  142.1210 C   0  0  0  0  0  0  0  0  0  0  0  0
  186.0420  177.1670  141.5390 C   0  0  0  0  0  3  0  0  0  0  0  0
  191.1220  175.7520  143.6460 C   0  0  0  0  0  2  0  0  0  0  0  0
  189.5430  175.2710  145.5300 C   0  0  0  0  0  0  0  0  0  0  0  0
  189.3000  174.6210  146.7440 C   0  0  0  0  0  3  0  0  0  0  0  0
  193.0210  172.3310  140.9350 N   0  0  0  0  0  0  0  0  0  0  0  0
  190.7850  171.4000  141.3310 C   0  0  0  0  0  2  0  0  0  0  0  0
  190.8820  173.3740  138.1350 O   0  0  0  0  0  1  0  0  0  0  0  0
  194.1040  173.0400  141.5910 C   0  0  0  0  0  1  0  0  0  0  0  0
  191.9760  172.1450  141.9390 C   0  0  0  0  0  2  0  0  0  0  0  0
  191.3560  172.5440  139.1520 C   0  0  2  0  0  3  0  0  0  0  0  0
  190.2270  172.1600  140.1250 C   0  0  2  0  0  3  0  0  0  0  0  0
  192.5130  173.2170  139.8910 C   0  0  0  0  0  2  0  0  0  0  0  0
  1 11  1  0  0  0  0
  1 17  1  0  0  0  0
  2  7  1  6  0  0  0
  2  3  1  0  0  0  0
  3 22  2  0  0  0  0
  3  9  1  0  0  0  0
  4  5  2  0  0  0  0
  5 16  1  0  0  0  0
  6 18  1  0  0  0  0
  6 13  1  0  0  0  0
  7 17  2  0  0  0  0
  8  1  2  0  0  0  0
  9  6  2  0  0  0  0
 10 15  1  0  0  0  0
 12 22  1  0  0  0  0
 14 10  2  0  0  0  0
 14 19  1  0  0  0  0
 15 21  1  1  0  0  0
 15  2  1  0  0  0  0
 16 10  1  0  0  0  0
 19  7  1  0  0  0  0
 20  8  1  0  0  0  0
 20 19  2  0  0  0  0
 21 12  1  0  0  0  0
 22 23  1  0  0  0  0
 23 18  2  0  0  0  0
 24 27  1  0  0  0  0
 24 28  1  0  0  0  0
 25 28  1  0  0  0  0
 29 26  1  6  0  0  0
 29 31  1  0  0  0  0
 29 30  1  0  0  0  0
 30  5  1  1  0  0  0
 30 25  1  0  0  0  0
 31 24  1  0  0  0  0
M  END
>  <MODEL>
9

>  <REMARK>
 VINA RESULT:      -7.5      4.290      7.924
  Name = 
  1 active torsions:
  status: ('A' for Active; 'I' for Inactive)
    1  A    between atoms: C_5  and  C_30
                            x       y       z     vdW  Elec       q    Type
                         _______ _______ _______ _____ _____    ______ ____

>  <TORSDO>
F 1

$$$$
