=
 OpenBabel11112417393D

 28 32  0  0  1  0  0  0  0  0999 V2000
  186.5500  177.2290  146.1030 C   0  0  0  0  0  0  0  0  0  0  0  0
  186.1720  175.6470  142.6730 O   0  0  0  0  0  0  0  0  0  0  0  0
  192.1410  175.3740  144.4890 O   0  0  0  0  0  1  0  0  0  0  0  0
  185.5210  179.6090  145.0410 C   0  0  0  0  0  3  0  0  0  0  0  0
  191.8620  177.7000  143.8980 C   0  0  2  0  0  3  0  0  0  0  0  0
  187.0940  176.0540  146.7040 N   0  0  0  0  0  2  0  0  0  0  0  0
  186.8190  176.7840  140.5880 O   0  0  0  0  0  0  0  0  0  0  0  0
  187.3280  176.1330  141.8430 S   0  0  0  0  0  0  0  0  0  0  0  0
  189.7220  174.8080  141.8360 C   0  0  0  0  0  0  0  0  0  0  0  0
  188.3080  177.2990  142.7550 C   0  0  2  0  0  3  0  0  0  0  0  0
  190.3680  175.0900  148.0180 O   0  0  0  0  0  1  0  0  0  0  0  0
  189.6270  177.6270  144.7720 C   0  0  2  0  0  3  0  0  0  0  0  0
  190.3100  175.8730  142.2980 N   0  0  0  0  0  0  0  0  0  0  0  0
  188.3530  174.8150  141.4360 N   0  0  0  0  0  2  0  0  0  0  0  0
  189.3080  175.0960  147.1110 C   0  0  2  0  0  3  0  0  0  0  0  0
  187.1230  177.7800  144.9390 C   0  0  0  0  0  0  0  0  0  0  0  0
  191.7950  176.6390  144.9890 C   0  0  1  0  0  3  0  0  0  0  0  0
  190.4500  173.5880  141.7780 N   0  0  0  0  0  1  0  0  0  0  0  0
  189.8360  175.3360  145.7000 C   0  0  0  0  0  2  0  0  0  0  0  0
  186.6100  178.9850  144.4280 C   0  0  0  0  0  3  0  0  0  0  0  0
  185.4530  177.8550  146.7040 C   0  0  0  0  0  3  0  0  0  0  0  0
  184.9380  179.0400  146.1750 C   0  0  0  0  0  3  0  0  0  0  0  0
  188.2920  176.1510  147.5220 C   0  0  0  0  0  2  0  0  0  0  0  0
  190.4230  178.0120  143.5380 C   0  0  2  0  0  3  0  0  0  0  0  0
  190.4370  176.6750  145.5740 N   0  0  2  0  0  0  0  0  0  0  0  0
  189.7790  177.2460  142.3710 C   0  0  2  0  0  3  0  0  0  0  0  0
  192.6340  177.3170  142.7960 O   0  0  0  0  0  1  0  0  0  0  0  0
  188.2790  177.0900  144.2630 C   0  0  1  0  0  3  0  0  0  0  0  0
  1 21  1  0  0  0  0
  1  6  1  0  0  0  0
  3 17  1  0  0  0  0
  4 22  1  0  0  0  0
  5 27  1  6  0  0  0
  5 17  1  0  0  0  0
  6 23  1  0  0  0  0
  7  8  2  0  0  0  0
  8  2  2  0  0  0  0
  9 13  2  0  0  0  0
 10  8  1  6  0  0  0
 10 28  1  0  0  0  0
 12 25  1  0  0  0  0
 13 26  1  0  0  0  0
 14  9  1  0  0  0  0
 14  8  1  0  0  0  0
 15 23  1  0  0  0  0
 15 11  1  0  0  0  0
 16  1  2  0  0  0  0
 17 25  1  0  0  0  0
 18  9  1  0  0  0  0
 19 15  1  0  0  0  0
 20 16  1  0  0  0  0
 20  4  2  0  0  0  0
 22 21  2  0  0  0  0
 24  5  1  0  0  0  0
 24 12  1  0  0  0  0
 25 19  1  0  0  0  0
 26 10  1  0  0  0  0
 26 24  1  0  0  0  0
 28 12  1  0  0  0  0
 28 16  1  0  0  0  0
M  END
>  <MODEL>
1

>  <REMARK>
 VINA RESULT:      -8.3      0.000      0.000
  Name = 
  0 active torsions:
  status: ('A' for Active; 'I' for Inactive)
                            x       y       z     vdW  Elec       q    Type
                         _______ _______ _______ _____ _____    ______ ____

>  <TORSDO>
F 0

$$$$
=
 OpenBabel11112417393D

 28 32  0  0  1  0  0  0  0  0999 V2000
  185.7060  177.2340  143.0320 C   0  0  0  0  0  0  0  0  0  0  0  0
  187.0460  173.8510  141.9510 O   0  0  0  0  0  0  0  0  0  0  0  0
  190.9260  176.4420  146.1030 O   0  0  0  0  0  1  0  0  0  0  0  0
  185.7860  178.0450  140.3510 C   0  0  0  0  0  3  0  0  0  0  0  0
  191.3580  177.7120  144.0930 C   0  0  2  0  0  3  0  0  0  0  0  0
  185.6540  176.8920  144.4170 N   0  0  0  0  0  2  0  0  0  0  0  0
  188.8870  173.5850  140.3400 O   0  0  0  0  0  0  0  0  0  0  0  0
  188.5230  174.0220  141.7310 S   0  0  0  0  0  0  0  0  0  0  0  0
  190.3060  173.7120  143.7830 C   0  0  0  0  0  0  0  0  0  0  0  0
  189.0000  175.7160  141.9600 C   0  0  2  0  0  3  0  0  0  0  0  0
  187.4900  177.9100  147.4120 O   0  0  0  0  0  1  0  0  0  0  0  0
  189.0280  177.5700  143.5340 C   0  0  2  0  0  3  0  0  0  0  0  0
  190.6910  174.9470  143.6310 N   0  0  0  0  0  0  0  0  0  0  0  0
  189.3990  173.0880  142.8780 N   0  0  0  0  0  2  0  0  0  0  0  0
  187.1150  177.0580  146.3720 C   0  0  2  0  0  3  0  0  0  0  0  0
  186.8960  177.0840  142.2920 C   0  0  0  0  0  0  0  0  0  0  0  0
  190.5510  177.5840  145.3790 C   0  0  1  0  0  3  0  0  0  0  0  0
  190.7610  172.9830  144.9160 N   0  0  0  0  0  1  0  0  0  0  0  0
  188.3580  176.5140  145.6760 C   0  0  0  0  0  2  0  0  0  0  0  0
  186.9280  177.5120  140.9540 C   0  0  0  0  0  3  0  0  0  0  0  0
  184.5640  177.7580  142.4180 C   0  0  0  0  0  3  0  0  0  0  0  0
  184.6020  178.1600  141.0810 C   0  0  0  0  0  3  0  0  0  0  0  0
  186.2060  177.8030  145.4070 C   0  0  0  0  0  2  0  0  0  0  0  0
  190.4150  177.3170  142.9740 C   0  0  2  0  0  3  0  0  0  0  0  0
  189.1170  177.5900  145.0160 N   0  0  2  0  0  0  0  0  0  0  0  0
  190.4140  175.8530  142.5030 C   0  0  2  0  0  3  0  0  0  0  0  0
  192.5420  176.9670  144.1040 O   0  0  0  0  0  1  0  0  0  0  0  0
  188.1190  176.4830  142.9360 C   0  0  1  0  0  3  0  0  0  0  0  0
  1  6  1  0  0  0  0
  4 20  2  0  0  0  0
  4 22  1  0  0  0  0
  5 27  1  1  0  0  0
  5 17  1  0  0  0  0
  6 23  1  0  0  0  0
  7  8  2  0  0  0  0
  8  2  2  0  0  0  0
  8 14  1  0  0  0  0
  9 18  1  0  0  0  0
 10  8  1  1  0  0  0
 10 26  1  0  0  0  0
 10 28  1  0  0  0  0
 12 25  1  0  0  0  0
 13  9  2  0  0  0  0
 14  9  1  0  0  0  0
 15 11  1  0  0  0  0
 16 28  1  0  0  0  0
 16  1  2  0  0  0  0
 17  3  1  0  0  0  0
 19 15  1  0  0  0  0
 20 16  1  0  0  0  0
 21  1  1  0  0  0  0
 22 21  2  0  0  0  0
 23 15  1  0  0  0  0
 24 12  1  0  0  0  0
 24  5  1  0  0  0  0
 25 17  1  0  0  0  0
 25 19  1  0  0  0  0
 26 24  1  0  0  0  0
 26 13  1  0  0  0  0
 28 12  1  0  0  0  0
M  END
>  <MODEL>
2

>  <REMARK>
 VINA RESULT:      -8.2      2.263      2.833
  Name = 
  0 active torsions:
  status: ('A' for Active; 'I' for Inactive)
                            x       y       z     vdW  Elec       q    Type
                         _______ _______ _______ _____ _____    ______ ____

>  <TORSDO>
F 0

$$$$
=
 OpenBabel11112417393D

 28 32  0  0  1  0  0  0  0  0999 V2000
  192.1240  174.0720  144.3600 C   0  0  0  0  0  0  0  0  0  0  0  0
  190.2420  175.5010  147.3300 O   0  0  0  0  0  0  0  0  0  0  0  0
  186.7970  176.0840  142.1540 O   0  0  0  0  0  1  0  0  0  0  0  0
  194.1870  175.8970  144.8780 C   0  0  0  0  0  3  0  0  0  0  0  0
  188.4810  177.7940  141.8780 C   0  0  2  0  0  3  0  0  0  0  0  0
  191.1060  173.1270  144.0320 N   0  0  0  0  0  2  0  0  0  0  0  0
  190.0570  177.9160  147.7710 O   0  0  0  0  0  0  0  0  0  0  0  0
  189.6250  176.7930  146.8700 S   0  0  0  0  0  0  0  0  0  0  0  0
  187.1560  176.8430  145.6910 C   0  0  0  0  0  0  0  0  0  0  0  0
  190.1080  177.1590  145.2010 C   0  0  2  0  0  3  0  0  0  0  0  0
  188.7210  172.7340  141.2880 O   0  0  0  0  0  1  0  0  0  0  0  0
  190.0880  176.3420  142.9110 C   0  0  2  0  0  3  0  0  0  0  0  0
  187.6860  177.3400  144.6110 N   0  0  0  0  0  0  0  0  0  0  0  0
  187.9110  176.6640  146.8880 N   0  0  0  0  0  2  0  0  0  0  0  0
  189.1350  173.0310  142.5870 C   0  0  2  0  0  3  0  0  0  0  0  0
  191.8270  175.4440  144.4900 C   0  0  0  0  0  0  0  0  0  0  0  0
  188.0700  176.3500  141.6270 C   0  0  1  0  0  3  0  0  0  0  0  0
  185.8010  176.4160  145.6610 N   0  0  0  0  0  1  0  0  0  0  0  0
  188.5700  174.3830  143.0130 C   0  0  0  0  0  2  0  0  0  0  0  0
  192.8740  176.3510  144.7300 C   0  0  0  0  0  3  0  0  0  0  0  0
  193.4400  173.6250  144.5210 C   0  0  0  0  0  3  0  0  0  0  0  0
  194.4680  174.5330  144.7820 C   0  0  0  0  0  3  0  0  0  0  0  0
  190.6530  173.0040  142.6550 C   0  0  0  0  0  2  0  0  0  0  0  0
  189.5120  177.7430  142.9880 C   0  0  2  0  0  3  0  0  0  0  0  0
  189.1210  175.4750  142.1920 N   0  0  2  0  0  0  0  0  0  0  0  0
  189.0320  177.9160  144.4390 C   0  0  2  0  0  3  0  0  0  0  0  0
  187.4020  178.6370  142.1670 O   0  0  0  0  0  1  0  0  0  0  0  0
  190.4070  175.9280  144.3570 C   0  0  1  0  0  3  0  0  0  0  0  0
  1 16  2  0  0  0  0
  1 21  1  0  0  0  0
  5 27  1  1  0  0  0
  5 24  1  0  0  0  0
  6  1  1  0  0  0  0
  8 14  1  0  0  0  0
  8  2  2  0  0  0  0
  8  7  2  0  0  0  0
  9 14  1  0  0  0  0
 10  8  1  1  0  0  0
 11 15  1  0  0  0  0
 12 24  1  0  0  0  0
 12 28  1  0  0  0  0
 13  9  2  0  0  0  0
 15 23  1  0  0  0  0
 15 19  1  0  0  0  0
 16 20  1  0  0  0  0
 17  5  1  0  0  0  0
 17  3  1  0  0  0  0
 17 25  1  0  0  0  0
 18  9  1  0  0  0  0
 20  4  2  0  0  0  0
 21 22  2  0  0  0  0
 22  4  1  0  0  0  0
 23  6  1  0  0  0  0
 24 26  1  0  0  0  0
 25 12  1  0  0  0  0
 25 19  1  0  0  0  0
 26 13  1  0  0  0  0
 26 10  1  0  0  0  0
 28 16  1  0  0  0  0
 28 10  1  0  0  0  0
M  END
>  <MODEL>
3

>  <REMARK>
 VINA RESULT:      -7.8      2.371      5.863
  Name = 
  0 active torsions:
  status: ('A' for Active; 'I' for Inactive)
                            x       y       z     vdW  Elec       q    Type
                         _______ _______ _______ _____ _____    ______ ____

>  <TORSDO>
F 0

$$$$
=
 OpenBabel11112417393D

 28 32  0  0  1  0  0  0  0  0999 V2000
  188.9190  176.8090  145.0440 C   0  0  0  0  0  0  0  0  0  0  0  0
  189.5910  173.3180  143.7160 O   0  0  0  0  0  0  0  0  0  0  0  0
  194.6610  175.4850  146.6480 O   0  0  0  0  0  1  0  0  0  0  0  0
  188.3670  177.6250  142.4210 C   0  0  0  0  0  3  0  0  0  0  0  0
  194.6690  176.7200  144.5710 C   0  0  2  0  0  3  0  0  0  0  0  0
  189.2000  176.4650  146.4000 N   0  0  0  0  0  2  0  0  0  0  0  0
  190.9070  172.8810  141.6830 O   0  0  0  0  0  0  0  0  0  0  0  0
  190.9670  173.3430  143.1110 S   0  0  0  0  0  0  0  0  0  0  0  0
  193.1900  172.8450  144.6280 C   0  0  0  0  0  0  0  0  0  0  0  0
  191.6490  174.9800  143.1730 C   0  0  2  0  0  3  0  0  0  0  0  0
  191.8510  177.2770  148.7860 O   0  0  0  0  0  1  0  0  0  0  0  0
  192.2720  176.8120  144.6480 C   0  0  2  0  0  3  0  0  0  0  0  0
  193.6390  174.0360  144.3550 N   0  0  0  0  0  0  0  0  0  0  0  0
  192.0190  172.3190  144.0060 N   0  0  0  0  0  2  0  0  0  0  0  0
  191.1340  176.4730  147.8980 C   0  0  2  0  0  3  0  0  0  0  0  0
  189.8510  176.5470  144.0200 C   0  0  0  0  0  0  0  0  0  0  0  0
  194.2210  176.6630  146.0260 C   0  0  1  0  0  3  0  0  0  0  0  0
  193.8540  172.0670  145.6160 N   0  0  0  0  0  1  0  0  0  0  0  0
  192.0910  175.8130  146.9110 C   0  0  0  0  0  2  0  0  0  0  0  0
  189.5700  176.9780  142.7120 C   0  0  0  0  0  3  0  0  0  0  0  0
  187.7110  177.4470  144.7410 C   0  0  0  0  0  3  0  0  0  0  0  0
  187.4340  177.8520  143.4340 C   0  0  0  0  0  3  0  0  0  0  0  0
  190.0800  177.3110  147.1910 C   0  0  0  0  0  2  0  0  0  0  0  0
  193.4310  176.4260  143.7470 C   0  0  2  0  0  3  0  0  0  0  0  0
  192.7490  176.8140  146.0530 N   0  0  2  0  0  0  0  0  0  0  0  0
  193.1630  174.9730  143.3230 C   0  0  2  0  0  3  0  0  0  0  0  0
  195.7360  175.8610  144.2850 O   0  0  0  0  0  1  0  0  0  0  0  0
  191.1360  175.8240  144.3310 C   0  0  1  0  0  3  0  0  0  0  0  0
  1  6  1  0  0  0  0
  4 20  2  0  0  0  0
  4 22  1  0  0  0  0
  5 27  1  1  0  0  0
  5 17  1  0  0  0  0
  6 23  1  0  0  0  0
  7  8  2  0  0  0  0
  8  2  2  0  0  0  0
  8 14  1  0  0  0  0
  9 18  1  0  0  0  0
 10  8  1  1  0  0  0
 10 26  1  0  0  0  0
 10 28  1  0  0  0  0
 12 25  1  0  0  0  0
 13  9  2  0  0  0  0
 14  9  1  0  0  0  0
 15 11  1  0  0  0  0
 16 28  1  0  0  0  0
 16  1  2  0  0  0  0
 17 25  1  0  0  0  0
 17  3  1  0  0  0  0
 19 15  1  0  0  0  0
 20 16  1  0  0  0  0
 21  1  1  0  0  0  0
 22 21  2  0  0  0  0
 23 15  1  0  0  0  0
 24  5  1  0  0  0  0
 24 12  1  0  0  0  0
 25 19  1  0  0  0  0
 26 24  1  0  0  0  0
 26 13  1  0  0  0  0
 28 12  1  0  0  0  0
M  END
>  <MODEL>
4

>  <REMARK>
 VINA RESULT:      -7.6      2.846      3.715
  Name = 
  0 active torsions:
  status: ('A' for Active; 'I' for Inactive)
                            x       y       z     vdW  Elec       q    Type
                         _______ _______ _______ _____ _____    ______ ____

>  <TORSDO>
F 0

$$$$
=
 OpenBabel11112417393D

 28 32  0  0  1  0  0  0  0  0999 V2000
  186.4950  178.0770  144.2220 C   0  0  0  0  0  0  0  0  0  0  0  0
  190.1040  178.1740  145.3930 O   0  0  0  0  0  0  0  0  0  0  0  0
  189.5710  174.3590  140.4780 O   0  0  0  0  0  1  0  0  0  0  0  0
  185.7640  177.1770  146.7730 C   0  0  0  0  0  3  0  0  0  0  0  0
  188.5940  173.0690  142.2720 C   0  0  2  0  0  3  0  0  0  0  0  0
  186.7990  178.5180  142.8990 N   0  0  0  0  0  2  0  0  0  0  0  0
  191.1360  176.3780  146.7230 O   0  0  0  0  0  0  0  0  0  0  0  0
  190.6040  176.7560  145.3690 S   0  0  0  0  0  0  0  0  0  0  0  0
  191.7050  175.6810  143.1060 C   0  0  0  0  0  0  0  0  0  0  0  0
  189.3020  175.6390  144.9150 C   0  0  2  0  0  3  0  0  0  0  0  0
  186.7490  176.9870  139.5780 O   0  0  0  0  0  1  0  0  0  0  0  0
  187.6780  175.0880  143.1900 C   0  0  2  0  0  3  0  0  0  0  0  0
  190.7680  174.7770  143.0840 N   0  0  0  0  0  0  0  0  0  0  0  0
  191.8480  176.5930  144.1940 N   0  0  0  0  0  2  0  0  0  0  0  0
  187.3290  177.5030  140.7370 C   0  0  2  0  0  3  0  0  0  0  0  0
  187.1470  176.9610  144.7830 C   0  0  0  0  0  0  0  0  0  0  0  0
  188.3700  174.0650  141.1420 C   0  0  1  0  0  3  0  0  0  0  0  0
  192.5780  175.7990  141.9900 N   0  0  0  0  0  1  0  0  0  0  0  0
  188.3590  176.5190  141.2830 C   0  0  0  0  0  2  0  0  0  0  0  0
  186.7580  176.5080  146.0550 C   0  0  0  0  0  3  0  0  0  0  0  0
  185.5090  178.7480  144.9520 C   0  0  0  0  0  3  0  0  0  0  0  0
  185.1460  178.3030  146.2250 C   0  0  0  0  0  3  0  0  0  0  0  0
  186.2430  177.8100  141.7570 C   0  0  0  0  0  2  0  0  0  0  0  0
  188.5130  173.8740  143.5540 C   0  0  2  0  0  3  0  0  0  0  0  0
  187.7220  175.2640  141.7170 N   0  0  2  0  0  0  0  0  0  0  0  0
  189.8160  174.4280  144.1520 C   0  0  2  0  0  3  0  0  0  0  0  0
  189.7880  172.3490  142.1500 O   0  0  0  0  0  1  0  0  0  0  0  0
  188.2380  176.2560  144.0180 C   0  0  1  0  0  3  0  0  0  0  0  0
  1 16  2  0  0  0  0
  1 21  1  0  0  0  0
  3 17  1  0  0  0  0
  5 27  1  6  0  0  0
  5 24  1  0  0  0  0
  6  1  1  0  0  0  0
  8  2  2  0  0  0  0
  8  7  2  0  0  0  0
  9 14  1  0  0  0  0
 10  8  1  6  0  0  0
 11 15  1  0  0  0  0
 12 24  1  0  0  0  0
 12 28  1  0  0  0  0
 13  9  2  0  0  0  0
 13 26  1  0  0  0  0
 14  8  1  0  0  0  0
 15 19  1  0  0  0  0
 15 23  1  0  0  0  0
 16 20  1  0  0  0  0
 17 25  1  0  0  0  0
 17  5  1  0  0  0  0
 18  9  1  0  0  0  0
 19 25  1  0  0  0  0
 20  4  2  0  0  0  0
 21 22  2  0  0  0  0
 22  4  1  0  0  0  0
 23  6  1  0  0  0  0
 24 26  1  0  0  0  0
 25 12  1  0  0  0  0
 26 10  1  0  0  0  0
 28 16  1  0  0  0  0
 28 10  1  0  0  0  0
M  END
>  <MODEL>
5

>  <REMARK>
 VINA RESULT:      -7.5      2.315      4.638
  Name = 
  0 active torsions:
  status: ('A' for Active; 'I' for Inactive)
                            x       y       z     vdW  Elec       q    Type
                         _______ _______ _______ _____ _____    ______ ____

>  <TORSDO>
F 0

$$$$
=
 OpenBabel11112417393D

 28 32  0  0  1  0  0  0  0  0999 V2000
  188.2210  176.9510  144.6820 C   0  0  0  0  0  0  0  0  0  0  0  0
  188.5660  173.7240  142.7130 O   0  0  0  0  0  0  0  0  0  0  0  0
  193.8200  174.8370  145.9000 O   0  0  0  0  0  1  0  0  0  0  0  0
  187.7420  178.2910  142.2680 C   0  0  0  0  0  3  0  0  0  0  0  0
  193.9380  176.4340  144.0900 C   0  0  2  0  0  3  0  0  0  0  0  0
  188.4730  176.3340  145.9440 N   0  0  0  0  0  2  0  0  0  0  0  0
  189.8330  173.5610  140.6090 O   0  0  0  0  0  0  0  0  0  0  0  0
  189.9380  173.7380  142.0970 S   0  0  0  0  0  0  0  0  0  0  0  0
  192.1080  172.7670  143.4510 C   0  0  0  0  0  0  0  0  0  0  0  0
  190.7680  175.2670  142.4500 C   0  0  2  0  0  3  0  0  0  0  0  0
  191.1910  176.4420  148.3880 O   0  0  0  0  0  1  0  0  0  0  0  0
  191.5590  176.7260  144.2280 C   0  0  2  0  0  3  0  0  0  0  0  0
  192.6650  173.9430  143.3970 N   0  0  0  0  0  0  0  0  0  0  0  0
  190.8930  172.4750  142.7640 N   0  0  0  0  0  2  0  0  0  0  0  0
  190.4020  175.8870  147.3800 C   0  0  2  0  0  3  0  0  0  0  0  0
  189.1230  176.8020  143.6090 C   0  0  0  0  0  0  0  0  0  0  0  0
  193.4900  176.1460  145.5170 C   0  0  1  0  0  3  0  0  0  0  0  0
  192.7000  171.7610  144.2630 N   0  0  0  0  0  1  0  0  0  0  0  0
  191.2920  175.3400  146.2680 C   0  0  0  0  0  2  0  0  0  0  0  0
  188.8810  177.4950  142.4100 C   0  0  0  0  0  3  0  0  0  0  0  0
  187.0770  177.7400  144.5270 C   0  0  0  0  0  3  0  0  0  0  0  0
  186.8360  178.4060  143.3240 C   0  0  0  0  0  3  0  0  0  0  0  0
  189.4280  176.9340  146.8620 C   0  0  0  0  0  2  0  0  0  0  0  0
  192.6760  176.4130  143.2500 C   0  0  2  0  0  3  0  0  0  0  0  0
  192.0380  176.4210  145.6000 N   0  0  2  0  0  0  0  0  0  0  0  0
  192.2750  175.0960  142.5660 C   0  0  2  0  0  3  0  0  0  0  0  0
  194.9210  175.5520  143.6280 O   0  0  0  0  0  1  0  0  0  0  0  0
  190.3370  175.9210  143.7550 C   0  0  1  0  0  3  0  0  0  0  0  0
  1  6  1  0  0  0  0
  4 20  2  0  0  0  0
  4 22  1  0  0  0  0
  5 27  1  6  0  0  0
  5 17  1  0  0  0  0
  6 23  1  0  0  0  0
  7  8  2  0  0  0  0
  8  2  2  0  0  0  0
  8 14  1  0  0  0  0
  9 18  1  0  0  0  0
 10  8  1  1  0  0  0
 10 26  1  0  0  0  0
 10 28  1  0  0  0  0
 12 25  1  0  0  0  0
 13  9  2  0  0  0  0
 14  9  1  0  0  0  0
 15 11  1  0  0  0  0
 16 28  1  0  0  0  0
 16  1  2  0  0  0  0
 17 25  1  0  0  0  0
 17  3  1  0  0  0  0
 19 15  1  0  0  0  0
 20 16  1  0  0  0  0
 21  1  1  0  0  0  0
 22 21  2  0  0  0  0
 23 15  1  0  0  0  0
 24  5  1  0  0  0  0
 24 12  1  0  0  0  0
 25 19  1  0  0  0  0
 26 24  1  0  0  0  0
 26 13  1  0  0  0  0
 28 12  1  0  0  0  0
M  END
>  <MODEL>
6

>  <REMARK>
 VINA RESULT:      -7.4      2.212      2.849
  Name = 
  0 active torsions:
  status: ('A' for Active; 'I' for Inactive)
                            x       y       z     vdW  Elec       q    Type
                         _______ _______ _______ _____ _____    ______ ____

>  <TORSDO>
F 0

$$$$
=
 OpenBabel11112417393D

 28 32  0  0  1  0  0  0  0  0999 V2000
  187.9780  176.3160  144.1010 C   0  0  0  0  0  0  0  0  0  0  0  0
  191.5040  177.6470  144.5540 O   0  0  0  0  0  0  0  0  0  0  0  0
  191.6660  172.2260  141.4590 O   0  0  0  0  0  1  0  0  0  0  0  0
  187.6910  176.3240  146.8880 C   0  0  0  0  0  3  0  0  0  0  0  0
  191.1940  171.5390  143.7280 C   0  0  2  0  0  3  0  0  0  0  0  0
  188.0620  176.2720  142.6770 N   0  0  0  0  0  2  0  0  0  0  0  0
  193.0650  176.7730  146.2440 O   0  0  0  0  0  0  0  0  0  0  0  0
  192.3600  176.4770  144.9500 S   0  0  0  0  0  0  0  0  0  0  0  0
  193.5480  174.8890  143.0650 C   0  0  0  0  0  0  0  0  0  0  0  0
  191.3730  175.0130  145.1390 C   0  0  2  0  0  3  0  0  0  0  0  0
  188.1910  173.6160  140.1660 O   0  0  0  0  0  1  0  0  0  0  0  0
  189.8400  173.5000  144.0110 C   0  0  2  0  0  3  0  0  0  0  0  0
  192.8860  173.8630  143.5170 N   0  0  0  0  0  0  0  0  0  0  0  0
  193.5180  176.1550  143.7210 N   0  0  0  0  0  2  0  0  0  0  0  0
  188.6920  174.6510  140.9560 C   0  0  2  0  0  3  0  0  0  0  0  0
  188.9410  175.6730  144.9040 C   0  0  0  0  0  0  0  0  0  0  0  0
  190.6350  171.9510  142.3720 C   0  0  1  0  0  3  0  0  0  0  0  0
  194.2790  174.7590  141.8520 N   0  0  0  0  0  1  0  0  0  0  0  0
  189.9820  174.2040  141.6370 C   0  0  0  0  0  2  0  0  0  0  0  0
  188.7750  175.6680  146.3000 C   0  0  0  0  0  3  0  0  0  0  0  0
  186.9020  176.9800  144.6980 C   0  0  0  0  0  3  0  0  0  0  0  0
  186.7590  176.9870  146.0870 C   0  0  0  0  0  3  0  0  0  0  0  0
  187.6370  175.0770  141.9650 C   0  0  0  0  0  2  0  0  0  0  0  0
  190.9900  172.7340  144.6380 C   0  0  2  0  0  3  0  0  0  0  0  0
  189.7330  173.1040  142.5850 N   0  0  2  0  0  0  0  0  0  0  0  0
  192.1370  173.7480  144.7800 C   0  0  2  0  0  3  0  0  0  0  0  0
  192.5250  171.1100  143.6730 O   0  0  0  0  0  1  0  0  0  0  0  0
  190.1250  174.9890  144.2690 C   0  0  1  0  0  3  0  0  0  0  0  0
  1 21  2  0  0  0  0
  1 16  1  0  0  0  0
  2  8  2  0  0  0  0
  3 17  1  0  0  0  0
  5 27  1  6  0  0  0
  5 24  1  0  0  0  0
  6  1  1  0  0  0  0
  8  7  2  0  0  0  0
  9 13  2  0  0  0  0
  9 14  1  0  0  0  0
 10  8  1  6  0  0  0
 11 15  1  0  0  0  0
 12 28  1  0  0  0  0
 12 24  1  0  0  0  0
 13 26  1  0  0  0  0
 14  8  1  0  0  0  0
 15 19  1  0  0  0  0
 15 23  1  0  0  0  0
 16 20  2  0  0  0  0
 17 25  1  0  0  0  0
 17  5  1  0  0  0  0
 18  9  1  0  0  0  0
 19 25  1  0  0  0  0
 20  4  1  0  0  0  0
 21 22  1  0  0  0  0
 22  4  2  0  0  0  0
 23  6  1  0  0  0  0
 24 26  1  0  0  0  0
 25 12  1  0  0  0  0
 26 10  1  0  0  0  0
 28 16  1  0  0  0  0
 28 10  1  0  0  0  0
M  END
>  <MODEL>
7

>  <REMARK>
 VINA RESULT:      -7.4      2.771      5.035
  Name = 
  0 active torsions:
  status: ('A' for Active; 'I' for Inactive)
                            x       y       z     vdW  Elec       q    Type
                         _______ _______ _______ _____ _____    ______ ____

>  <TORSDO>
F 0

$$$$
=
 OpenBabel11112417393D

 28 32  0  0  1  0  0  0  0  0999 V2000
  189.5600  175.9080  146.1390 C   0  0  0  0  0  0  0  0  0  0  0  0
  189.5440  172.2900  144.9910 O   0  0  0  0  0  0  0  0  0  0  0  0
  195.0570  174.9100  143.6710 O   0  0  0  0  0  1  0  0  0  0  0  0
  187.3570  176.3750  144.4710 C   0  0  0  0  0  3  0  0  0  0  0  0
  193.5900  175.8720  142.0090 C   0  0  2  0  0  3  0  0  0  0  0  0
  190.6880  175.7440  146.9970 N   0  0  0  0  0  2  0  0  0  0  0  0
  189.2530  171.6260  142.6390 O   0  0  0  0  0  0  0  0  0  0  0  0
  190.1840  172.2660  143.6310 S   0  0  0  0  0  0  0  0  0  0  0  0
  192.8930  172.0080  143.3450 C   0  0  0  0  0  0  0  0  0  0  0  0
  190.5770  173.9110  143.0930 C   0  0  2  0  0  3  0  0  0  0  0  0
  194.1570  176.9030  146.9720 O   0  0  0  0  0  1  0  0  0  0  0  0
  191.8260  175.9260  143.6360 C   0  0  2  0  0  3  0  0  0  0  0  0
  192.9360  173.1630  142.7470 N   0  0  0  0  0  0  0  0  0  0  0  0
  191.6580  171.3840  143.6920 N   0  0  0  0  0  2  0  0  0  0  0  0
  193.1190  175.9800  146.8450 C   0  0  2  0  0  3  0  0  0  0  0  0
  189.6210  175.5360  144.7810 C   0  0  0  0  0  0  0  0  0  0  0  0
  194.2050  175.9910  143.3970 C   0  0  1  0  0  3  0  0  0  0  0  0
  194.1110  171.3740  143.7110 N   0  0  0  0  0  1  0  0  0  0  0  0
  193.2610  175.2180  145.5310 C   0  0  0  0  0  2  0  0  0  0  0  0
  188.5160  175.7940  143.9510 C   0  0  0  0  0  3  0  0  0  0  0  0
  188.3910  176.4790  146.6540 C   0  0  0  0  0  3  0  0  0  0  0  0
  187.2920  176.7100  145.8250 C   0  0  0  0  0  3  0  0  0  0  0  0
  191.7830  176.7000  146.9410 C   0  0  0  0  0  2  0  0  0  0  0  0
  192.1500  175.4530  142.2310 C   0  0  2  0  0  3  0  0  0  0  0  0
  193.1000  176.1150  144.3730 N   0  0  2  0  0  0  0  0  0  0  0  0
  191.8140  173.9530  142.2100 C   0  0  2  0  0  3  0  0  0  0  0  0
  194.2910  175.0050  141.1630 O   0  0  0  0  0  1  0  0  0  0  0  0
  190.8620  174.8850  144.2280 C   0  0  1  0  0  3  0  0  0  0  0  0
  1 21  1  0  0  0  0
  1  6  1  0  0  0  0
  4 22  1  0  0  0  0
  5 27  1  6  0  0  0
  5 24  1  0  0  0  0
  5 17  1  0  0  0  0
  7  8  2  0  0  0  0
  8 14  1  0  0  0  0
  8  2  2  0  0  0  0
  9 14  1  0  0  0  0
  9 18  1  0  0  0  0
 10  8  1  1  0  0  0
 10 28  1  0  0  0  0
 12 28  1  0  0  0  0
 12 25  1  0  0  0  0
 13  9  2  0  0  0  0
 15 23  1  0  0  0  0
 15 11  1  0  0  0  0
 16  1  2  0  0  0  0
 17  3  1  0  0  0  0
 17 25  1  0  0  0  0
 19 15  1  0  0  0  0
 20  4  2  0  0  0  0
 20 16  1  0  0  0  0
 22 21  2  0  0  0  0
 23  6  1  0  0  0  0
 24 12  1  0  0  0  0
 25 19  1  0  0  0  0
 26 24  1  0  0  0  0
 26 13  1  0  0  0  0
 26 10  1  0  0  0  0
 28 16  1  0  0  0  0
M  END
>  <MODEL>
8

>  <REMARK>
 VINA RESULT:      -7.0      3.049      3.921
  Name = 
  0 active torsions:
  status: ('A' for Active; 'I' for Inactive)
                            x       y       z     vdW  Elec       q    Type
                         _______ _______ _______ _____ _____    ______ ____

>  <TORSDO>
F 0

$$$$
=
 OpenBabel11112417393D

 28 32  0  0  1  0  0  0  0  0999 V2000
  188.6500  174.4870  140.3600 C   0  0  0  0  0  0  0  0  0  0  0  0
  188.9790  171.9380  143.1530 O   0  0  0  0  0  0  0  0  0  0  0  0
  189.8450  177.6920  145.4210 O   0  0  0  0  0  1  0  0  0  0  0  0
  190.7380  173.1850  139.0210 C   0  0  0  0  0  3  0  0  0  0  0  0
  191.9050  177.2630  144.2330 C   0  0  2  0  0  3  0  0  0  0  0  0
  187.5930  175.2060  140.9940 N   0  0  0  0  0  2  0  0  0  0  0  0
  191.1470  171.2120  144.0640 O   0  0  0  0  0  0  0  0  0  0  0  0
  190.1680  172.3490  143.9760 S   0  0  0  0  0  0  0  0  0  0  0  0
  189.9130  174.1120  146.0520 C   0  0  0  0  0  0  0  0  0  0  0  0
  190.9700  173.7600  143.2580 C   0  0  2  0  0  3  0  0  0  0  0  0
  187.2580  178.5060  142.5350 O   0  0  0  0  0  1  0  0  0  0  0  0
  190.6620  176.0700  142.5620 C   0  0  2  0  0  3  0  0  0  0  0  0
  190.7290  174.9310  145.4520 N   0  0  0  0  0  0  0  0  0  0  0  0
  189.6620  172.8000  145.5550 N   0  0  0  0  0  2  0  0  0  0  0  0
  187.3640  177.1150  142.5070 C   0  0  2  0  0  3  0  0  0  0  0  0
  189.8640  174.2400  141.0320 C   0  0  0  0  0  0  0  0  0  0  0  0
  190.4890  177.8220  144.1810 C   0  0  1  0  0  3  0  0  0  0  0  0
  189.2120  174.5590  147.2050 N   0  0  0  0  0  1  0  0  0  0  0  0
  188.4380  176.6580  143.4890 C   0  0  0  0  0  2  0  0  0  0  0  0
  190.9110  173.6040  140.3420 C   0  0  0  0  0  3  0  0  0  0  0  0
  188.4820  174.0540  139.0410 C   0  0  0  0  0  3  0  0  0  0  0  0
  189.5210  173.4030  138.3730 C   0  0  0  0  0  3  0  0  0  0  0  0
  187.6600  176.6560  141.0880 C   0  0  0  0  0  2  0  0  0  0  0  0
  191.8540  175.9410  143.4920 C   0  0  2  0  0  3  0  0  0  0  0  0
  189.7710  177.1360  143.0840 N   0  0  2  0  0  0  0  0  0  0  0  0
  191.6110  174.6580  144.3040 C   0  0  2  0  0  3  0  0  0  0  0  0
  192.4090  177.1460  145.5330 O   0  0  0  0  0  1  0  0  0  0  0  0
  190.0380  174.6680  142.4670 C   0  0  1  0  0  3  0  0  0  0  0  0
  1  6  1  0  0  0  0
  1 16  1  0  0  0  0
  2  8  2  0  0  0  0
  4 20  1  0  0  0  0
  5 27  1  1  0  0  0
  6 23  1  0  0  0  0
  8  7  2  0  0  0  0
  8 14  1  0  0  0  0
  9 18  1  0  0  0  0
 10  8  1  1  0  0  0
 10 26  1  0  0  0  0
 12 25  1  0  0  0  0
 12 24  1  0  0  0  0
 13  9  2  0  0  0  0
 14  9  1  0  0  0  0
 15 11  1  0  0  0  0
 15 19  1  0  0  0  0
 16 28  1  0  0  0  0
 17  5  1  0  0  0  0
 17  3  1  0  0  0  0
 20 16  2  0  0  0  0
 21  1  2  0  0  0  0
 22  4  2  0  0  0  0
 22 21  1  0  0  0  0
 23 15  1  0  0  0  0
 24  5  1  0  0  0  0
 24 26  1  0  0  0  0
 25 19  1  0  0  0  0
 25 17  1  0  0  0  0
 26 13  1  0  0  0  0
 28 12  1  0  0  0  0
 28 10  1  0  0  0  0
M  END
>  <MODEL>
9

>  <REMARK>
 VINA RESULT:      -6.9      2.656      5.653
  Name = 
  0 active torsions:
  status: ('A' for Active; 'I' for Inactive)
                            x       y       z     vdW  Elec       q    Type
                         _______ _______ _______ _____ _____    ______ ____

>  <TORSDO>
F 0

$$$$
