=
 OpenBabel11112416293D

 32 37  0  0  1  0  0  0  0  0999 V2000
  186.5210  178.4300  142.6540 C   0  0  0  0  0  2  0  0  0  0  0  0
  190.0260  174.4190  144.0230 C   0  0  1  0  0  3  0  0  0  0  0  0
  193.8820  176.6190  146.3080 C   0  0  0  0  0  3  0  0  0  0  0  0
  194.5460  175.3920  146.3560 C   0  0  0  0  0  3  0  0  0  0  0  0
  190.4970  172.1360  142.8930 C   0  0  0  0  0  0  0  0  0  0  0  0
  191.5430  171.1210  142.5520 C   0  0  2  0  0  3  0  0  0  0  0  0
  187.8660  175.6470  143.7120 C   0  0  1  0  0  3  0  0  0  0  0  0
  189.7410  176.6580  145.0920 C   0  0  0  0  0  2  0  0  0  0  0  0
  193.1730  169.7370  143.2980 C   0  0  2  0  0  3  0  0  0  0  0  0
  187.5980  177.9160  144.9200 C   0  0  0  0  0  2  0  0  0  0  0  0
  192.6390  176.7150  145.6810 C   0  0  0  0  0  3  0  0  0  0  0  0
  190.7260  175.7450  144.3610 C   0  0  1  0  0  3  0  0  0  0  0  0
  192.0360  175.5850  145.1040 C   0  0  0  0  0  0  0  0  0  0  0  0
  192.0960  173.1130  144.5390 C   0  0  2  0  0  3  0  0  0  0  0  0
  192.3200  168.9170  142.3270 C   0  0  0  0  0  2  0  0  0  0  0  0
  186.8310  177.1280  141.8940 C   0  0  0  0  0  2  0  0  0  0  0  0
  188.5430  176.9560  144.1910 C   0  0  2  0  0  3  0  0  0  0  0  0
  191.1110  169.7840  142.0130 C   0  0  0  0  0  2  0  0  0  0  0  0
  186.6910  175.8630  142.7480 C   0  0  0  0  0  2  0  0  0  0  0  0
  186.3080  178.2440  144.1640 C   0  0  1  0  0  3  0  0  0  0  0  0
  193.9730  174.2660  145.7630 C   0  0  0  0  0  3  0  0  0  0  0  0
  192.7370  174.3550  145.1030 C   0  0  0  0  0  0  0  0  0  0  0  0
  193.0950  172.0380  144.0570 C   0  0  0  0  0  2  0  0  0  0  0  0
  188.8910  174.7280  143.0480 C   0  0  0  0  0  2  0  0  0  0  0  0
  189.3050  171.9220  142.7340 O   0  0  0  0  0  0  0  0  0  0  0  0
  193.5600  168.8770  144.4850 C   0  0  0  0  0  1  0  0  0  0  0  0
  191.0480  173.4350  143.4480 C   0  0  2  0  0  3  0  0  0  0  0  0
  192.3290  170.8350  143.7340 N   0  0  1  0  0  0  0  0  0  0  0  0
  185.6770  179.4860  144.7700 C   0  0  0  0  0  2  0  0  0  0  0  0
  184.9650  179.1550  146.0370 C   0  0  0  0  0  0  0  0  0  0  0  0
  185.5660  179.4150  147.2610 O   0  0  0  0  0  1  0  0  0  0  0  0
  183.8060  178.6660  145.9980 O   0  0  0  0  0  0  0  0  0  0  0  0
  1 20  1  0  0  0  0
  2 24  1  6  0  0  0
  2 12  1  0  0  0  0
  3  4  1  0  0  0  0
  6 18  1  1  0  0  0
  6  5  1  0  0  0  0
  6 28  1  0  0  0  0
  7 19  1  6  0  0  0
  7 17  1  0  0  0  0
  9 28  1  0  0  0  0
  9 26  1  1  0  0  0
 11  3  2  0  0  0  0
 12  8  1  1  0  0  0
 12 13  1  0  0  0  0
 13 11  1  0  0  0  0
 14 23  1  6  0  0  0
 14 22  1  0  0  0  0
 15  9  1  0  0  0  0
 16  1  1  0  0  0  0
 16 19  1  0  0  0  0
 17 10  1  1  0  0  0
 17  8  1  0  0  0  0
 18 15  1  0  0  0  0
 20 29  1  1  0  0  0
 20 10  1  0  0  0  0
 21  4  2  0  0  0  0
 22 13  2  0  0  0  0
 22 21  1  0  0  0  0
 24  7  1  0  0  0  0
 25  5  2  0  0  0  0
 27  5  1  1  0  0  0
 27  2  1  0  0  0  0
 27 14  1  0  0  0  0
 28 23  1  6  0  0  0
 29 30  1  0  0  0  0
 30 31  1  0  0  0  0
 32 30  2  0  0  0  0
M  END
>  <MODEL>
1

>  <REMARK>
 VINA RESULT:      -8.9      0.000      0.000
  Name = 
  2 active torsions:
  status: ('A' for Active; 'I' for Inactive)
    1  A    between atoms: C_20  and  C_29
    2  A    between atoms: C_29  and  C_30
                            x       y       z     vdW  Elec       q    Type
                         _______ _______ _______ _____ _____    ______ ____

>  <TORSDO>
F 2

$$$$
=
 OpenBabel11112416293D

 32 37  0  0  1  0  0  0  0  0999 V2000
  185.6950  176.8270  146.7930 C   0  0  0  0  0  2  0  0  0  0  0  0
  190.4750  175.8710  144.2470 C   0  0  1  0  0  3  0  0  0  0  0  0
  189.3670  173.5630  139.9600 C   0  0  0  0  0  3  0  0  0  0  0  0
  190.7280  173.3820  139.7120 C   0  0  0  0  0  3  0  0  0  0  0  0
  192.8430  175.4500  145.2120 C   0  0  0  0  0  0  0  0  0  0  0  0
  194.1250  174.6970  145.0470 C   0  0  2  0  0  3  0  0  0  0  0  0
  188.6990  177.0780  145.5340 C   0  0  1  0  0  3  0  0  0  0  0  0
  188.2050  176.1220  143.2360 C   0  0  0  0  0  2  0  0  0  0  0  0
  195.8820  174.1910  143.7120 C   0  0  2  0  0  3  0  0  0  0  0  0
  186.4000  177.3870  144.3960 C   0  0  0  0  0  2  0  0  0  0  0  0
  188.9480  174.1620  141.1500 C   0  0  0  0  0  3  0  0  0  0  0  0
  189.3890  175.1700  143.4140 C   0  0  1  0  0  3  0  0  0  0  0  0
  189.8830  174.6000  142.1010 C   0  0  0  0  0  0  0  0  0  0  0  0
  192.2910  174.8700  142.8500 C   0  0  2  0  0  3  0  0  0  0  0  0
  196.4670  174.5250  145.0860 C   0  0  0  0  0  2  0  0  0  0  0  0
  187.0610  176.4890  147.4160 C   0  0  0  0  0  2  0  0  0  0  0  0
  187.6180  176.4800  144.6000 C   0  0  2  0  0  3  0  0  0  0  0  0
  195.3060  175.0760  145.9010 C   0  0  0  0  0  2  0  0  0  0  0  0
  188.1990  177.4040  146.9490 C   0  0  0  0  0  2  0  0  0  0  0  0
  185.7510  177.8920  145.6870 C   0  0  1  0  0  3  0  0  0  0  0  0
  191.6690  173.7870  140.6600 C   0  0  0  0  0  3  0  0  0  0  0  0
  191.2600  174.3640  141.8730 C   0  0  0  0  0  0  0  0  0  0  0  0
  193.6250  174.0890  142.8350 C   0  0  0  0  0  2  0  0  0  0  0  0
  189.8970  176.1350  145.6370 C   0  0  0  0  0  2  0  0  0  0  0  0
  192.7160  176.3530  146.0250 O   0  0  0  0  0  0  0  0  0  0  0  0
  196.7680  174.7750  142.6290 C   0  0  0  0  0  1  0  0  0  0  0  0
  191.7310  174.9970  144.2850 C   0  0  2  0  0  3  0  0  0  0  0  0
  194.5730  174.8180  143.6760 N   0  0  1  0  0  0  0  0  0  0  0  0
  184.3570  178.4100  145.3750 C   0  0  0  0  0  2  0  0  0  0  0  0
  184.3520  179.1830  144.1010 C   0  0  0  0  0  0  0  0  0  0  0  0
  183.5960  178.7410  143.0230 O   0  0  0  0  0  0  0  0  0  0  0  0
  185.0100  180.2520  144.0100 O   0  0  0  0  0  1  0  0  0  0  0  0
  1 16  1  0  0  0  0
  2 27  1  0  0  0  0
  2 24  1  1  0  0  0
  3 11  1  0  0  0  0
  4  3  2  0  0  0  0
  4 21  1  0  0  0  0
  5 25  2  0  0  0  0
  6  5  1  0  0  0  0
  6 18  1  1  0  0  0
  7 24  1  1  0  0  0
  7 19  1  0  0  0  0
  9 26  1  6  0  0  0
  9 15  1  0  0  0  0
 10 17  1  0  0  0  0
 10 20  1  0  0  0  0
 11 13  2  0  0  0  0
 12  8  1  6  0  0  0
 12  2  1  0  0  0  0
 13 12  1  0  0  0  0
 14 23  1  1  0  0  0
 14 27  1  0  0  0  0
 15 18  1  0  0  0  0
 17  8  1  6  0  0  0
 17  7  1  0  0  0  0
 19 16  1  0  0  0  0
 20 29  1  6  0  0  0
 20  1  1  0  0  0  0
 21 22  2  0  0  0  0
 22 13  1  0  0  0  0
 22 14  1  0  0  0  0
 27  5  1  1  0  0  0
 28 23  1  6  0  0  0
 28  9  1  0  0  0  0
 28  6  1  0  0  0  0
 30 29  1  0  0  0  0
 31 30  2  0  0  0  0
 32 30  1  0  0  0  0
M  END
>  <MODEL>
2

>  <REMARK>
 VINA RESULT:      -8.7      2.730      4.663
  Name = 
  2 active torsions:
  status: ('A' for Active; 'I' for Inactive)
    1  A    between atoms: C_20  and  C_29
    2  A    between atoms: C_29  and  C_30
                            x       y       z     vdW  Elec       q    Type
                         _______ _______ _______ _____ _____    ______ ____

>  <TORSDO>
F 2

$$$$
=
 OpenBabel11112416293D

 32 37  0  0  1  0  0  0  0  0999 V2000
  186.3820  179.2000  143.0730 C   0  0  0  0  0  2  0  0  0  0  0  0
  189.2150  174.4910  142.8830 C   0  0  1  0  0  3  0  0  0  0  0  0
  192.9330  174.9340  146.1870 C   0  0  0  0  0  3  0  0  0  0  0  0
  193.4490  173.7090  145.7620 C   0  0  0  0  0  3  0  0  0  0  0  0
  189.5910  172.8290  140.9310 C   0  0  0  0  0  0  0  0  0  0  0  0
  190.5590  171.8940  140.2760 C   0  0  2  0  0  3  0  0  0  0  0  0
  187.2640  176.0570  142.9520 C   0  0  1  0  0  3  0  0  0  0  0  0
  189.0270  176.1100  144.7750 C   0  0  0  0  0  2  0  0  0  0  0  0
  191.9130  170.0920  140.4910 C   0  0  2  0  0  3  0  0  0  0  0  0
  187.0760  177.6430  144.9830 C   0  0  0  0  0  2  0  0  0  0  0  0
  191.8060  175.4700  145.5620 C   0  0  0  0  0  3  0  0  0  0  0  0
  190.0010  175.4360  143.8070 C   0  0  1  0  0  3  0  0  0  0  0  0
  191.1710  174.7840  144.5140 C   0  0  0  0  0  0  0  0  0  0  0  0
  191.0430  172.7850  142.9590 C   0  0  2  0  0  3  0  0  0  0  0  0
  191.1200  169.8840  139.1990 C   0  0  0  0  0  2  0  0  0  0  0  0
  186.6530  178.2940  141.8590 C   0  0  0  0  0  2  0  0  0  0  0  0
  188.0040  176.9320  143.9940 C   0  0  2  0  0  3  0  0  0  0  0  0
  190.0650  170.9810  139.1870 C   0  0  0  0  0  2  0  0  0  0  0  0
  186.2630  176.8280  142.0800 C   0  0  0  0  0  2  0  0  0  0  0  0
  185.9440  178.4470  144.3390 C   0  0  1  0  0  3  0  0  0  0  0  0
  192.8470  173.0280  144.7020 C   0  0  0  0  0  3  0  0  0  0  0  0
  191.7300  173.5710  144.0460 C   0  0  0  0  0  0  0  0  0  0  0  0
  191.9780  171.8610  142.1470 C   0  0  0  0  0  2  0  0  0  0  0  0
  188.2660  175.3440  142.0440 C   0  0  0  0  0  2  0  0  0  0  0  0
  188.4160  172.8870  140.6020 O   0  0  0  0  0  0  0  0  0  0  0  0
  192.0390  168.7720  141.2270 C   0  0  0  0  0  1  0  0  0  0  0  0
  190.1960  173.6840  142.0280 C   0  0  2  0  0  3  0  0  0  0  0  0
  191.1400  171.0310  141.2840 N   0  0  1  0  0  0  0  0  0  0  0  0
  185.3730  179.4130  145.3630 C   0  0  0  0  0  2  0  0  0  0  0  0
  184.9760  178.6940  146.6060 C   0  0  0  0  0  0  0  0  0  0  0  0
  185.5860  179.0040  147.8130 O   0  0  0  0  0  1  0  0  0  0  0  0
  184.0660  177.8250  146.5670 O   0  0  0  0  0  0  0  0  0  0  0  0
  1 20  1  0  0  0  0
  2 24  1  6  0  0  0
  2 12  1  0  0  0  0
  4  3  1  0  0  0  0
  6 18  1  6  0  0  0
  6  5  1  0  0  0  0
  6 28  1  0  0  0  0
  7 24  1  6  0  0  0
  7 17  1  0  0  0  0
  9 26  1  1  0  0  0
  9 28  1  0  0  0  0
 11  3  2  0  0  0  0
 12 13  1  0  0  0  0
 12  8  1  1  0  0  0
 13 11  1  0  0  0  0
 14 23  1  6  0  0  0
 14 22  1  0  0  0  0
 15  9  1  0  0  0  0
 16 19  1  0  0  0  0
 16  1  1  0  0  0  0
 17  8  1  1  0  0  0
 17 10  1  0  0  0  0
 18 15  1  0  0  0  0
 19  7  1  0  0  0  0
 20 10  1  0  0  0  0
 20 29  1  1  0  0  0
 21  4  2  0  0  0  0
 22 13  2  0  0  0  0
 22 21  1  0  0  0  0
 25  5  2  0  0  0  0
 27  5  1  6  0  0  0
 27  2  1  0  0  0  0
 27 14  1  0  0  0  0
 28 23  1  1  0  0  0
 29 30  1  0  0  0  0
 30 31  1  0  0  0  0
 32 30  2  0  0  0  0
M  END
>  <MODEL>
3

>  <REMARK>
 VINA RESULT:      -8.5      1.448      1.895
  Name = 
  2 active torsions:
  status: ('A' for Active; 'I' for Inactive)
    1  A    between atoms: C_20  and  C_29
    2  A    between atoms: C_29  and  C_30
                            x       y       z     vdW  Elec       q    Type
                         _______ _______ _______ _____ _____    ______ ____

>  <TORSDO>
F 2

$$$$
=
 OpenBabel11112416293D

 32 37  0  0  1  0  0  0  0  0999 V2000
  185.5540  179.1300  144.1680 C   0  0  0  0  0  2  0  0  0  0  0  0
  188.9680  175.0090  142.9050 C   0  0  1  0  0  3  0  0  0  0  0  0
  192.4650  174.9160  146.4680 C   0  0  0  0  0  3  0  0  0  0  0  0
  193.1490  173.9250  145.7630 C   0  0  0  0  0  3  0  0  0  0  0  0
  189.6300  174.0150  140.6050 C   0  0  0  0  0  0  0  0  0  0  0  0
  190.7340  173.4160  139.7920 C   0  0  2  0  0  3  0  0  0  0  0  0
  186.8320  176.2660  143.2560 C   0  0  1  0  0  3  0  0  0  0  0  0
  188.5000  175.9990  145.1480 C   0  0  0  0  0  2  0  0  0  0  0  0
  192.2970  171.7880  139.6040 C   0  0  2  0  0  3  0  0  0  0  0  0
  186.3630  177.1860  145.6240 C   0  0  0  0  0  2  0  0  0  0  0  0
  191.3040  175.4780  145.9330 C   0  0  0  0  0  3  0  0  0  0  0  0
  189.5900  175.7380  144.1070 C   0  0  1  0  0  3  0  0  0  0  0  0
  190.8040  175.0480  144.6930 C   0  0  0  0  0  0  0  0  0  0  0  0
  190.9940  173.5650  142.6440 C   0  0  2  0  0  3  0  0  0  0  0  0
  191.5890  171.8650  138.2500 C   0  0  0  0  0  2  0  0  0  0  0  0
  185.9850  178.6380  142.7760 C   0  0  0  0  0  2  0  0  0  0  0  0
  187.4130  176.8890  144.5490 C   0  0  2  0  0  3  0  0  0  0  0  0
  190.4040  172.7960  138.4610 C   0  0  0  0  0  2  0  0  0  0  0  0
  185.7760  177.1350  142.5570 C   0  0  0  0  0  2  0  0  0  0  0  0
  185.1650  178.0080  145.1430 C   0  0  1  0  0  3  0  0  0  0  0  0
  192.6810  173.5070  144.5160 C   0  0  0  0  0  3  0  0  0  0  0  0
  191.5310  174.0840  143.9530 C   0  0  0  0  0  0  0  0  0  0  0  0
  192.0700  173.0160  141.6820 C   0  0  0  0  0  2  0  0  0  0  0  0
  187.9520  175.9530  142.2640 C   0  0  0  0  0  2  0  0  0  0  0  0
  188.4720  174.0330  140.2180 O   0  0  0  0  0  0  0  0  0  0  0  0
  192.5600  170.3370  139.9560 C   0  0  0  0  0  1  0  0  0  0  0  0
  190.0770  174.5890  141.9350 C   0  0  2  0  0  3  0  0  0  0  0  0
  191.3800  172.3740  140.5640 N   0  0  1  0  0  0  0  0  0  0  0  0
  184.4350  178.5780  146.3480 C   0  0  0  0  0  2  0  0  0  0  0  0
  185.3610  178.7280  147.5060 C   0  0  0  0  0  0  0  0  0  0  0  0
  185.5660  177.6640  148.3740 O   0  0  0  0  0  1  0  0  0  0  0  0
  185.9800  179.8100  147.6810 O   0  0  0  0  0  0  0  0  0  0  0  0
  1 20  1  0  0  0  0
  2 24  1  6  0  0  0
  2 12  1  0  0  0  0
  4  3  2  0  0  0  0
  6 18  1  6  0  0  0
  6 28  1  0  0  0  0
  6  5  1  0  0  0  0
  7 24  1  6  0  0  0
  7 17  1  0  0  0  0
  9 26  1  1  0  0  0
  9 28  1  0  0  0  0
 11  3  1  0  0  0  0
 12 13  1  0  0  0  0
 12  8  1  1  0  0  0
 13 11  2  0  0  0  0
 14 23  1  6  0  0  0
 14 22  1  0  0  0  0
 15 18  1  0  0  0  0
 15  9  1  0  0  0  0
 16  1  1  0  0  0  0
 17  8  1  1  0  0  0
 17 10  1  0  0  0  0
 19 16  1  0  0  0  0
 19  7  1  0  0  0  0
 20 10  1  0  0  0  0
 20 29  1  1  0  0  0
 21  4  1  0  0  0  0
 22 21  2  0  0  0  0
 22 13  1  0  0  0  0
 25  5  2  0  0  0  0
 27  5  1  6  0  0  0
 27 14  1  0  0  0  0
 27  2  1  0  0  0  0
 28 23  1  1  0  0  0
 29 30  1  0  0  0  0
 30 32  2  0  0  0  0
 30 31  1  0  0  0  0
M  END
>  <MODEL>
4

>  <REMARK>
 VINA RESULT:      -8.4      2.048      2.647
  Name = 
  2 active torsions:
  status: ('A' for Active; 'I' for Inactive)
    1  A    between atoms: C_20  and  C_29
    2  A    between atoms: C_29  and  C_30
                            x       y       z     vdW  Elec       q    Type
                         _______ _______ _______ _____ _____    ______ ____

>  <TORSDO>
F 2

$$$$
=
 OpenBabel11112416293D

 32 37  0  0  1  0  0  0  0  0999 V2000
  186.7170  176.6330  146.5640 C   0  0  0  0  0  2  0  0  0  0  0  0
  191.0480  175.8530  143.2660 C   0  0  1  0  0  3  0  0  0  0  0  0
  189.5320  172.7880  139.6280 C   0  0  0  0  0  3  0  0  0  0  0  0
  190.8380  172.7300  139.1390 C   0  0  0  0  0  3  0  0  0  0  0  0
  193.5860  175.8660  143.7880 C   0  0  0  0  0  0  0  0  0  0  0  0
  194.9140  175.2500  143.4730 C   0  0  2  0  0  3  0  0  0  0  0  0
  189.3780  177.0320  144.7110 C   0  0  1  0  0  3  0  0  0  0  0  0
  188.6220  175.6770  142.7030 C   0  0  0  0  0  2  0  0  0  0  0  0
  196.4560  174.7480  141.8930 C   0  0  2  0  0  3  0  0  0  0  0  0
  186.8920  176.8890  144.0220 C   0  0  0  0  0  2  0  0  0  0  0  0
  189.2520  173.5130  140.7870 C   0  0  0  0  0  3  0  0  0  0  0  0
  189.9430  174.9090  142.7660 C   0  0  1  0  0  3  0  0  0  0  0  0
  190.2700  174.2010  141.4670 C   0  0  0  0  0  0  0  0  0  0  0  0
  192.7090  174.8620  141.6800 C   0  0  2  0  0  3  0  0  0  0  0  0
  197.2240  175.3590  143.0680 C   0  0  0  0  0  2  0  0  0  0  0  0
  188.2070  176.5580  146.9420 C   0  0  0  0  0  2  0  0  0  0  0  0
  188.2440  176.1730  144.0980 C   0  0  2  0  0  3  0  0  0  0  0  0
  196.1610  175.8920  144.0170 C   0  0  0  0  0  2  0  0  0  0  0  0
  189.0980  177.5140  146.1410 C   0  0  0  0  0  2  0  0  0  0  0  0
  186.4190  177.5110  145.3380 C   0  0  1  0  0  3  0  0  0  0  0  0
  191.8660  173.3850  139.8200 C   0  0  0  0  0  3  0  0  0  0  0  0
  191.6030  174.0940  141.0030 C   0  0  0  0  0  0  0  0  0  0  0  0
  194.1160  174.2490  141.5040 C   0  0  0  0  0  2  0  0  0  0  0  0
  190.6980  176.2620  144.6960 C   0  0  0  0  0  2  0  0  0  0  0  0
  193.4790  176.8630  144.4850 O   0  0  0  0  0  0  0  0  0  0  0  0
  197.0390  175.2550  140.5880 C   0  0  0  0  0  1  0  0  0  0  0  0
  192.4030  175.1460  143.1690 C   0  0  2  0  0  3  0  0  0  0  0  0
  195.0850  175.2050  142.0360 N   0  0  1  0  0  0  0  0  0  0  0  0
  184.9320  177.8090  145.2440 C   0  0  0  0  0  2  0  0  0  0  0  0
  184.6650  178.8480  144.2110 C   0  0  0  0  0  0  0  0  0  0  0  0
  185.3620  180.0490  144.2360 O   0  0  0  0  0  1  0  0  0  0  0  0
  183.8280  178.6270  143.2960 O   0  0  0  0  0  0  0  0  0  0  0  0
  1 16  1  0  0  0  0
  2 24  1  1  0  0  0
  3 11  1  0  0  0  0
  4  3  2  0  0  0  0
  4 21  1  0  0  0  0
  5 25  2  0  0  0  0
  6  5  1  0  0  0  0
  6 18  1  1  0  0  0
  7 24  1  1  0  0  0
  7 19  1  0  0  0  0
  9 26  1  6  0  0  0
  9 28  1  0  0  0  0
  9 15  1  0  0  0  0
 10 17  1  0  0  0  0
 10 20  1  0  0  0  0
 11 13  2  0  0  0  0
 12  8  1  6  0  0  0
 12  2  1  0  0  0  0
 13 12  1  0  0  0  0
 14 23  1  1  0  0  0
 14 27  1  0  0  0  0
 15 18  1  0  0  0  0
 17  8  1  6  0  0  0
 17  7  1  0  0  0  0
 19 16  1  0  0  0  0
 20 29  1  6  0  0  0
 20  1  1  0  0  0  0
 21 22  2  0  0  0  0
 22 13  1  0  0  0  0
 22 14  1  0  0  0  0
 27  2  1  0  0  0  0
 27  5  1  6  0  0  0
 28 23  1  6  0  0  0
 28  6  1  0  0  0  0
 30 31  1  0  0  0  0
 30 29  1  0  0  0  0
 32 30  2  0  0  0  0
M  END
>  <MODEL>
5

>  <REMARK>
 VINA RESULT:      -8.3      3.029      4.980
  Name = 
  2 active torsions:
  status: ('A' for Active; 'I' for Inactive)
    1  A    between atoms: C_20  and  C_29
    2  A    between atoms: C_29  and  C_30
                            x       y       z     vdW  Elec       q    Type
                         _______ _______ _______ _____ _____    ______ ____

>  <TORSDO>
F 2

$$$$
=
 OpenBabel11112416293D

 32 37  0  0  1  0  0  0  0  0999 V2000
  189.6380  172.1890  139.3010 C   0  0  0  0  0  2  0  0  0  0  0  0
  188.7770  175.7080  143.4380 C   0  0  1  0  0  3  0  0  0  0  0  0
  192.4190  174.9160  146.7610 C   0  0  0  0  0  3  0  0  0  0  0  0
  191.8090  175.8160  147.6360 C   0  0  0  0  0  3  0  0  0  0  0  0
  186.5770  176.7290  144.3510 C   0  0  0  0  0  0  0  0  0  0  0  0
  185.8390  177.1760  145.5740 C   0  0  2  0  0  3  0  0  0  0  0  0
  188.9800  174.8350  141.1010 C   0  0  1  0  0  3  0  0  0  0  0  0
  190.9260  174.6610  142.7190 C   0  0  0  0  0  2  0  0  0  0  0  0
  185.8140  178.5060  147.4070 C   0  0  2  0  0  3  0  0  0  0  0  0
  191.2590  173.8470  140.3890 C   0  0  0  0  0  2  0  0  0  0  0  0
  191.8150  174.6120  145.5400 C   0  0  0  0  0  3  0  0  0  0  0  0
  189.9350  174.7960  143.8750 C   0  0  1  0  0  3  0  0  0  0  0  0
  190.6010  175.2120  145.1710 C   0  0  0  0  0  0  0  0  0  0  0  0
  188.6770  176.7790  145.6960 C   0  0  2  0  0  3  0  0  0  0  0  0
  184.4410  178.6540  146.7470 C   0  0  0  0  0  2  0  0  0  0  0  0
  188.2980  172.6940  139.8650 C   0  0  0  0  0  2  0  0  0  0  0  0
  190.2340  174.0260  141.5130 C   0  0  2  0  0  3  0  0  0  0  0  0
  184.5520  177.9390  145.4090 C   0  0  0  0  0  2  0  0  0  0  0  0
  188.1910  174.2220  139.9350 C   0  0  0  0  0  2  0  0  0  0  0  0
  190.6870  173.2900  139.0820 C   0  0  1  0  0  3  0  0  0  0  0  0
  190.5870  176.3990  147.2960 C   0  0  0  0  0  3  0  0  0  0  0  0
  189.9540  176.0800  146.0840 C   0  0  0  0  0  0  0  0  0  0  0  0
  187.7850  177.1930  146.8880 C   0  0  0  0  0  2  0  0  0  0  0  0
  188.0410  175.0110  142.2950 C   0  0  0  0  0  2  0  0  0  0  0  0
  186.1630  176.9480  143.2230 O   0  0  0  0  0  0  0  0  0  0  0  0
  186.2830  179.8570  147.9100 C   0  0  0  0  0  1  0  0  0  0  0  0
  187.8700  175.9900  144.6390 C   0  0  2  0  0  3  0  0  0  0  0  0
  186.7040  178.0270  146.3650 N   0  0  1  0  0  0  0  0  0  0  0  0
  191.8260  172.7770  138.2180 C   0  0  0  0  0  2  0  0  0  0  0  0
  191.3410  172.4270  136.8540 C   0  0  0  0  0  0  0  0  0  0  0  0
  190.6870  173.3800  136.0840 O   0  0  0  0  0  0  0  0  0  0  0  0
  191.5490  171.2770  136.3860 O   0  0  0  0  0  1  0  0  0  0  0  0
  1 16  1  0  0  0  0
  2 24  1  6  0  0  0
  2 12  1  0  0  0  0
  2 27  1  0  0  0  0
  3  4  1  0  0  0  0
  5  6  1  0  0  0  0
  6 18  1  6  0  0  0
  6 28  1  0  0  0  0
  7 19  1  6  0  0  0
  7 17  1  0  0  0  0
  7 24  1  0  0  0  0
  9 26  1  6  0  0  0
 11  3  2  0  0  0  0
 12  8  1  6  0  0  0
 12 13  1  0  0  0  0
 13 11  1  0  0  0  0
 13 22  2  0  0  0  0
 14 22  1  0  0  0  0
 14 23  1  1  0  0  0
 15  9  1  0  0  0  0
 16 19  1  0  0  0  0
 17 10  1  6  0  0  0
 17  8  1  0  0  0  0
 18 15  1  0  0  0  0
 20 29  1  6  0  0  0
 20  1  1  0  0  0  0
 20 10  1  0  0  0  0
 21  4  2  0  0  0  0
 22 21  1  0  0  0  0
 25  5  2  0  0  0  0
 27  5  1  6  0  0  0
 27 14  1  0  0  0  0
 28 23  1  1  0  0  0
 28  9  1  0  0  0  0
 30 29  1  0  0  0  0
 31 30  2  0  0  0  0
 32 30  1  0  0  0  0
M  END
>  <MODEL>
6

>  <REMARK>
 VINA RESULT:      -8.3      3.422      7.879
  Name = 
  2 active torsions:
  status: ('A' for Active; 'I' for Inactive)
    1  A    between atoms: C_20  and  C_29
    2  A    between atoms: C_29  and  C_30
                            x       y       z     vdW  Elec       q    Type
                         _______ _______ _______ _____ _____    ______ ____

>  <TORSDO>
F 2

$$$$
=
 OpenBabel11112416293D

 32 37  0  0  1  0  0  0  0  0999 V2000
  186.0140  177.5730  145.9840 C   0  0  0  0  0  2  0  0  0  0  0  0
  190.2930  174.9680  143.7160 C   0  0  1  0  0  3  0  0  0  0  0  0
  188.8460  173.5660  139.1480 C   0  0  0  0  0  3  0  0  0  0  0  0
  190.0490  172.8770  138.9840 C   0  0  0  0  0  3  0  0  0  0  0  0
  192.1930  173.5840  144.8060 C   0  0  0  0  0  0  0  0  0  0  0  0
  193.0930  172.3960  144.6620 C   0  0  2  0  0  3  0  0  0  0  0  0
  188.9970  176.6950  144.9830 C   0  0  1  0  0  3  0  0  0  0  0  0
  188.4230  176.1610  142.5710 C   0  0  0  0  0  2  0  0  0  0  0  0
  194.6480  171.3220  143.4160 C   0  0  2  0  0  3  0  0  0  0  0  0
  187.1360  177.9600  143.7150 C   0  0  0  0  0  2  0  0  0  0  0  0
  188.5660  174.2040  140.3570 C   0  0  0  0  0  3  0  0  0  0  0  0
  189.1170  174.8090  142.7390 C   0  0  1  0  0  3  0  0  0  0  0  0
  189.4900  174.1750  141.4140 C   0  0  0  0  0  0  0  0  0  0  0  0
  191.7180  173.4210  142.3630 C   0  0  2  0  0  3  0  0  0  0  0  0
  195.1640  171.3090  144.8570 C   0  0  0  0  0  2  0  0  0  0  0  0
  187.0660  176.6830  146.6700 C   0  0  0  0  0  2  0  0  0  0  0  0
  187.8760  176.6350  143.9170 C   0  0  2  0  0  3  0  0  0  0  0  0
  194.2280  172.2220  145.6340 C   0  0  0  0  0  2  0  0  0  0  0  0
  188.5130  177.1010  146.3830 C   0  0  0  0  0  2  0  0  0  0  0  0
  186.5980  178.5970  144.9990 C   0  0  1  0  0  3  0  0  0  0  0  0
  190.9650  172.8150  140.0350 C   0  0  0  0  0  3  0  0  0  0  0  0
  190.6840  173.4280  141.2670 C   0  0  0  0  0  0  0  0  0  0  0  0
  192.6370  172.1790  142.3690 C   0  0  0  0  0  2  0  0  0  0  0  0
  189.7170  175.3500  145.0790 C   0  0  0  0  0  2  0  0  0  0  0  0
  192.3390  174.4080  145.6950 O   0  0  0  0  0  0  0  0  0  0  0  0
  195.8030  171.5760  142.4660 C   0  0  0  0  0  1  0  0  0  0  0  0
  191.0990  173.6670  143.7590 C   0  0  2  0  0  3  0  0  0  0  0  0
  193.6970  172.4170  143.3460 N   0  0  1  0  0  0  0  0  0  0  0  0
  185.5570  179.6430  144.6380 C   0  0  0  0  0  2  0  0  0  0  0  0
  184.2180  179.0160  144.4530 C   0  0  0  0  0  0  0  0  0  0  0  0
  183.9100  178.3760  143.2600 O   0  0  0  0  0  0  0  0  0  0  0  0
  183.3760  179.0410  145.3880 O   0  0  0  0  0  1  0  0  0  0  0  0
  1 16  1  0  0  0  0
  2 27  1  0  0  0  0
  2 24  1  1  0  0  0
  3 11  1  0  0  0  0
  4  3  2  0  0  0  0
  4 21  1  0  0  0  0
  5 25  2  0  0  0  0
  6  5  1  0  0  0  0
  6 18  1  1  0  0  0
  7 24  1  1  0  0  0
  7 19  1  0  0  0  0
  9 26  1  6  0  0  0
  9 15  1  0  0  0  0
 10 17  1  0  0  0  0
 10 20  1  0  0  0  0
 11 13  2  0  0  0  0
 12  8  1  6  0  0  0
 12  2  1  0  0  0  0
 13 12  1  0  0  0  0
 14 23  1  1  0  0  0
 14 27  1  0  0  0  0
 15 18  1  0  0  0  0
 17  8  1  6  0  0  0
 17  7  1  0  0  0  0
 19 16  1  0  0  0  0
 20 29  1  6  0  0  0
 20  1  1  0  0  0  0
 21 22  2  0  0  0  0
 22 13  1  0  0  0  0
 22 14  1  0  0  0  0
 27  5  1  1  0  0  0
 28 23  1  6  0  0  0
 28  9  1  0  0  0  0
 28  6  1  0  0  0  0
 30 29  1  0  0  0  0
 30 32  1  0  0  0  0
 31 30  2  0  0  0  0
M  END
>  <MODEL>
7

>  <REMARK>
 VINA RESULT:      -8.1      2.113      4.078
  Name = 
  2 active torsions:
  status: ('A' for Active; 'I' for Inactive)
    1  A    between atoms: C_20  and  C_29
    2  A    between atoms: C_29  and  C_30
                            x       y       z     vdW  Elec       q    Type
                         _______ _______ _______ _____ _____    ______ ____

>  <TORSDO>
F 2

$$$$
=
 OpenBabel11112416293D

 32 37  0  0  1  0  0  0  0  0999 V2000
  186.2790  177.9360  144.5330 C   0  0  0  0  0  2  0  0  0  0  0  0
  190.7250  174.9980  143.1780 C   0  0  1  0  0  3  0  0  0  0  0  0
  194.2590  176.1450  146.5140 C   0  0  0  0  0  3  0  0  0  0  0  0
  195.1780  175.3780  145.7970 C   0  0  0  0  0  3  0  0  0  0  0  0
  191.5420  174.1450  140.8710 C   0  0  0  0  0  0  0  0  0  0  0  0
  192.7340  173.8730  140.0080 C   0  0  2  0  0  3  0  0  0  0  0  0
  188.3270  175.5580  143.6270 C   0  0  1  0  0  3  0  0  0  0  0  0
  190.0910  175.9030  145.4170 C   0  0  0  0  0  2  0  0  0  0  0  0
  194.7100  172.7930  139.7700 C   0  0  2  0  0  3  0  0  0  0  0  0
  187.7200  176.4020  145.9920 C   0  0  0  0  0  2  0  0  0  0  0  0
  192.9560  176.3000  146.0370 C   0  0  0  0  0  3  0  0  0  0  0  0
  191.1530  175.9380  144.3170 C   0  0  1  0  0  3  0  0  0  0  0  0
  192.5500  175.6800  144.8450 C   0  0  0  0  0  0  0  0  0  0  0  0
  193.0800  174.2300  142.8330 C   0  0  2  0  0  3  0  0  0  0  0  0
  193.9440  172.5860  138.4610 C   0  0  0  0  0  2  0  0  0  0  0  0
  186.7690  177.5330  143.1310 C   0  0  0  0  0  2  0  0  0  0  0  0
  188.7530  176.3900  144.8610 C   0  0  2  0  0  3  0  0  0  0  0  0
  192.5430  173.1200  138.7200 C   0  0  0  0  0  2  0  0  0  0  0  0
  187.0210  176.0300  142.9710 C   0  0  0  0  0  2  0  0  0  0  0  0
  186.3040  176.7960  145.5630 C   0  0  1  0  0  3  0  0  0  0  0  0
  194.7970  174.7780  144.5950 C   0  0  0  0  0  3  0  0  0  0  0  0
  193.4980  174.9500  144.0890 C   0  0  0  0  0  0  0  0  0  0  0  0
  194.2230  173.9910  141.8210 C   0  0  0  0  0  2  0  0  0  0  0  0
  189.4370  175.5550  142.5750 C   0  0  0  0  0  2  0  0  0  0  0  0
  190.4160  173.7900  140.5590 O   0  0  0  0  0  0  0  0  0  0  0  0
  195.4240  171.5100  140.1480 C   0  0  0  0  0  1  0  0  0  0  0  0
  191.8580  174.8910  142.1530 C   0  0  2  0  0  3  0  0  0  0  0  0
  193.7070  173.1170  140.7690 N   0  0  1  0  0  0  0  0  0  0  0  0
  185.4970  177.1720  146.7940 C   0  0  0  0  0  2  0  0  0  0  0  0
  185.1390  178.6190  146.7720 C   0  0  0  0  0  0  0  0  0  0  0  0
  183.9840  179.0390  146.1250 O   0  0  0  0  0  0  0  0  0  0  0  0
  185.8670  179.4570  147.3640 O   0  0  0  0  0  1  0  0  0  0  0  0
  1 20  1  0  0  0  0
  2 24  1  6  0  0  0
  2 12  1  0  0  0  0
  4  3  2  0  0  0  0
  6 18  1  6  0  0  0
  6 28  1  0  0  0  0
  6  5  1  0  0  0  0
  7 24  1  6  0  0  0
  7 17  1  0  0  0  0
  9 26  1  1  0  0  0
  9 28  1  0  0  0  0
 11  3  1  0  0  0  0
 12 13  1  0  0  0  0
 12  8  1  1  0  0  0
 13 11  2  0  0  0  0
 14 23  1  6  0  0  0
 14 22  1  0  0  0  0
 15 18  1  0  0  0  0
 15  9  1  0  0  0  0
 16  1  1  0  0  0  0
 17  8  1  1  0  0  0
 17 10  1  0  0  0  0
 19 16  1  0  0  0  0
 19  7  1  0  0  0  0
 20 10  1  0  0  0  0
 20 29  1  1  0  0  0
 21  4  1  0  0  0  0
 22 21  2  0  0  0  0
 22 13  1  0  0  0  0
 25  5  2  0  0  0  0
 27  5  1  6  0  0  0
 27 14  1  0  0  0  0
 27  2  1  0  0  0  0
 28 23  1  1  0  0  0
 30 29  1  0  0  0  0
 30 32  1  0  0  0  0
 31 30  2  0  0  0  0
M  END
>  <MODEL>
8

>  <REMARK>
 VINA RESULT:      -7.8      2.342      2.642
  Name = 
  2 active torsions:
  status: ('A' for Active; 'I' for Inactive)
    1  A    between atoms: C_20  and  C_29
    2  A    between atoms: C_29  and  C_30
                            x       y       z     vdW  Elec       q    Type
                         _______ _______ _______ _____ _____    ______ ____

>  <TORSDO>
F 2

$$$$
=
 OpenBabel11112416293D

 32 37  0  0  1  0  0  0  0  0999 V2000
  194.5980  173.9830  145.7490 C   0  0  0  0  0  2  0  0  0  0  0  0
  189.6460  175.2680  143.7340 C   0  0  1  0  0  3  0  0  0  0  0  0
  189.5520  173.6070  139.0260 C   0  0  0  0  0  3  0  0  0  0  0  0
  188.3040  174.2050  138.8450 C   0  0  0  0  0  3  0  0  0  0  0  0
  188.0530  177.2310  144.3020 C   0  0  0  0  0  0  0  0  0  0  0  0
  187.0600  178.2110  143.7600 C   0  0  2  0  0  3  0  0  0  0  0  0
  191.3930  174.4540  145.3310 C   0  0  1  0  0  3  0  0  0  0  0  0
  191.1790  173.4310  143.0200 C   0  0  0  0  0  2  0  0  0  0  0  0
  185.1240  178.5380  142.6320 C   0  0  2  0  0  3  0  0  0  0  0  0
  192.8860  172.4890  144.5690 C   0  0  0  0  0  2  0  0  0  0  0  0
  190.2280  173.7560  140.2380 C   0  0  0  0  0  3  0  0  0  0  0  0
  190.4610  174.7000  142.5600 C   0  0  1  0  0  3  0  0  0  0  0  0
  189.6620  174.4920  141.2900 C   0  0  0  0  0  0  0  0  0  0  0  0
  187.7650  175.9020  142.2120 C   0  0  2  0  0  3  0  0  0  0  0  0
  185.0610  179.4370  143.8690 C   0  0  0  0  0  2  0  0  0  0  0  0
  193.7310  175.2170  146.0550 C   0  0  0  0  0  2  0  0  0  0  0  0
  192.1370  173.7620  144.1630 C   0  0  2  0  0  3  0  0  0  0  0  0
  186.2560  179.0410  144.7230 C   0  0  0  0  0  2  0  0  0  0  0  0
  192.3020  174.8780  146.4940 C   0  0  0  0  0  2  0  0  0  0  0  0
  193.8310  172.6520  145.7630 C   0  0  1  0  0  3  0  0  0  0  0  0
  187.7400  174.9650  139.8720 C   0  0  0  0  0  3  0  0  0  0  0  0
  188.4230  175.1470  141.0850 C   0  0  0  0  0  0  0  0  0  0  0  0
  186.7940  177.0140  141.7570 C   0  0  0  0  0  2  0  0  0  0  0  0
  190.6300  175.6790  144.8270 C   0  0  0  0  0  2  0  0  0  0  0  0
  188.2440  177.0920  145.5000 O   0  0  0  0  0  0  0  0  0  0  0  0
  183.7630  177.9160  142.3880 C   0  0  0  0  0  1  0  0  0  0  0  0
  188.7880  176.4370  143.2400 C   0  0  2  0  0  3  0  0  0  0  0  0
  186.0950  177.5040  142.9440 N   0  0  1  0  0  0  0  0  0  0  0  0
  194.7960  171.4800  145.7990 C   0  0  0  0  0  2  0  0  0  0  0  0
  196.0510  171.8050  145.0630 C   0  0  0  0  0  0  0  0  0  0  0  0
  197.1920  172.1730  145.7630 O   0  0  0  0  0  1  0  0  0  0  0  0
  196.0860  171.7170  143.8070 O   0  0  0  0  0  0  0  0  0  0  0  0
  1 20  1  0  0  0  0
  1 16  1  0  0  0  0
  2 24  1  1  0  0  0
  3 11  1  0  0  0  0
  4  3  2  0  0  0  0
  4 21  1  0  0  0  0
  5 25  2  0  0  0  0
  6  5  1  0  0  0  0
  6 18  1  1  0  0  0
  7 24  1  6  0  0  0
  7 19  1  0  0  0  0
  9 26  1  1  0  0  0
  9 28  1  0  0  0  0
  9 15  1  0  0  0  0
 10 20  1  0  0  0  0
 11 13  2  0  0  0  0
 12  8  1  1  0  0  0
 12  2  1  0  0  0  0
 13 12  1  0  0  0  0
 14 23  1  6  0  0  0
 14 27  1  0  0  0  0
 15 18  1  0  0  0  0
 16 19  1  0  0  0  0
 17  8  1  6  0  0  0
 17 10  1  0  0  0  0
 17  7  1  0  0  0  0
 20 29  1  6  0  0  0
 21 22  2  0  0  0  0
 22 13  1  0  0  0  0
 22 14  1  0  0  0  0
 27  2  1  0  0  0  0
 27  5  1  1  0  0  0
 28 23  1  6  0  0  0
 28  6  1  0  0  0  0
 30 31  1  0  0  0  0
 30 29  1  0  0  0  0
 32 30  2  0  0  0  0
M  END
>  <MODEL>
9

>  <REMARK>
 VINA RESULT:      -7.8      3.192      8.745
  Name = 
  2 active torsions:
  status: ('A' for Active; 'I' for Inactive)
    1  A    between atoms: C_20  and  C_29
    2  A    between atoms: C_29  and  C_30
                            x       y       z     vdW  Elec       q    Type
                         _______ _______ _______ _____ _____    ______ ____

>  <TORSDO>
F 2

$$$$
