=
 OpenBabel11112416493D

 31 35  0  0  1  0  0  0  0  0999 V2000
  189.9580  171.7960  142.1100 C   0  0  0  0  0  0  0  0  0  0  0  0
  190.2170  173.7370  145.3690 C   0  0  2  0  0  3  0  0  0  0  0  0
  191.6450  174.2540  145.4580 C   0  0  0  0  0  0  0  0  0  0  0  0
  193.9730  174.1990  144.7540 C   0  0  0  0  0  0  0  0  0  0  0  0
  189.8110  173.3580  143.9650 C   0  0  0  0  0  0  0  0  0  0  0  0
  189.1820  172.6490  141.3240 C   0  0  0  0  0  3  0  0  0  0  0  0
  192.6600  173.7370  144.6380 C   0  0  0  0  0  3  0  0  0  0  0  0
  189.0020  175.9230  145.0430 C   0  0  2  0  0  3  0  0  0  0  0  0
  190.4230  170.5990  141.5840 O   0  0  0  0  0  1  0  0  0  0  0  0
  191.0030  175.7230  147.2940 O   0  0  0  0  0  0  0  0  0  0  0  0
  195.0330  173.6510  143.8680 C   0  0  0  0  0  1  0  0  0  0  0  0
  188.3780  175.4530  143.7330 C   0  0  0  0  0  2  0  0  0  0  0  0
  189.2080  174.7260  145.9890 C   0  0  2  0  0  3  0  0  0  0  0  0
  190.2700  172.1490  143.4250 C   0  0  0  0  0  3  0  0  0  0  0  0
  194.2890  175.1750  145.7010 C   0  0  0  0  0  3  0  0  0  0  0  0
  189.0220  174.2180  143.1680 C   0  0  0  0  0  0  0  0  0  0  0  0
  188.7080  173.8510  141.8560 C   0  0  0  0  0  3  0  0  0  0  0  0
  189.7040  175.1420  147.3760 C   0  0  0  0  0  2  0  0  0  0  0  0
  191.9810  175.2150  146.4360 C   0  0  0  0  0  0  0  0  0  0  0  0
  193.2960  175.6810  146.5410 C   0  0  0  0  0  3  0  0  0  0  0  0
  188.0930  176.9890  145.6460 C   0  0  0  0  0  2  0  0  0  0  0  0
  185.6300  176.9540  145.5750 C   0  0  0  0  0  1  0  0  0  0  0  0
  186.8830  177.2500  144.7520 C   0  0  1  0  0  3  0  0  0  0  0  0
  184.5180  178.6930  142.4910 C   0  0  1  0  0  3  0  0  0  0  0  0
  185.6430  179.3460  144.6370 C   0  0  0  0  0  2  0  0  0  0  0  0
  188.2130  178.2460  142.3150 O   0  0  0  0  0  1  0  0  0  0  0  0
  183.3510  177.9370  141.8930 C   0  0  0  0  0  1  0  0  0  0  0  0
  184.3970  178.7040  144.0100 C   0  0  0  0  0  2  0  0  0  0  0  0
  186.9860  178.7280  142.7760 C   0  0  2  0  0  3  0  0  0  0  0  0
  186.8820  178.6460  144.2490 N   0  0  0  0  0  0  0  0  0  0  0  0
  185.8230  178.0320  142.0680 C   0  0  0  0  0  2  0  0  0  0  0  0
  1 14  1  0  0  0  0
  2  5  1  6  0  0  0
  2  3  1  0  0  0  0
  2 13  1  0  0  0  0
  3 19  1  0  0  0  0
  4 15  2  0  0  0  0
  6 17  1  0  0  0  0
  6  1  2  0  0  0  0
  7  4  1  0  0  0  0
  7  3  2  0  0  0  0
  8 21  1  1  0  0  0
  8 13  1  0  0  0  0
  9  1  1  0  0  0  0
 10 18  1  0  0  0  0
 11  4  1  0  0  0  0
 12  8  1  0  0  0  0
 13 18  1  1  0  0  0
 14  5  2  0  0  0  0
 15 20  1  0  0  0  0
 16 12  1  0  0  0  0
 16  5  1  0  0  0  0
 17 16  2  0  0  0  0
 19 20  2  0  0  0  0
 19 10  1  0  0  0  0
 23 22  1  1  0  0  0
 23 21  1  0  0  0  0
 24 27  1  6  0  0  0
 24 28  1  0  0  0  0
 28 25  1  0  0  0  0
 29 26  1  6  0  0  0
 29 30  1  0  0  0  0
 30 25  1  0  0  0  0
 30 23  1  0  0  0  0
 31 24  1  0  0  0  0
 31 29  1  0  0  0  0
M  END
>  <MODEL>
1

>  <REMARK>
 VINA RESULT:      -8.4      0.000      0.000
  Name = 
  3 active torsions:
  status: ('A' for Active; 'I' for Inactive)
    1  A    between atoms: C_5  and  C_16
    2  A    between atoms: C_5  and  N_30
    3  A    between atoms: C_10  and  C_16
                            x       y       z     vdW  Elec       q    Type
                         _______ _______ _______ _____ _____    ______ ____

>  <TORSDO>
F 3

$$$$
=
 OpenBabel11112416493D

 31 35  0  0  1  0  0  0  0  0999 V2000
  186.8870  177.4780  141.0180 C   0  0  0  0  0  0  0  0  0  0  0  0
  188.5260  177.7600  144.4370 C   0  0  2  0  0  3  0  0  0  0  0  0
  187.3990  177.8860  145.4520 C   0  0  0  0  0  0  0  0  0  0  0  0
  185.0740  178.3450  146.0020 C   0  0  0  0  0  0  0  0  0  0  0  0
  188.0710  177.1820  143.1180 C   0  0  0  0  0  0  0  0  0  0  0  0
  187.1060  176.1360  140.7000 C   0  0  0  0  0  3  0  0  0  0  0  0
  186.0910  178.2020  145.0550 C   0  0  0  0  0  3  0  0  0  0  0  0
  189.3870  175.4710  145.0520 C   0  0  2  0  0  3  0  0  0  0  0  0
  186.1880  178.2930  140.1390 O   0  0  0  0  0  1  0  0  0  0  0  0
  188.9820  177.4850  147.2620 O   0  0  0  0  0  0  0  0  0  0  0  0
  183.6910  178.6660  145.5630 C   0  0  0  0  0  1  0  0  0  0  0  0
  189.1650  174.9390  143.6390 C   0  0  0  0  0  2  0  0  0  0  0  0
  189.7250  176.9730  145.0040 C   0  0  2  0  0  3  0  0  0  0  0  0
  187.3690  177.9980  142.2210 C   0  0  0  0  0  3  0  0  0  0  0  0
  185.3570  178.1870  147.3600 C   0  0  0  0  0  3  0  0  0  0  0  0
  188.2950  175.8250  142.7920 C   0  0  0  0  0  0  0  0  0  0  0  0
  187.8170  175.3160  141.5810 C   0  0  0  0  0  3  0  0  0  0  0  0
  190.0950  177.5430  146.3740 C   0  0  0  0  0  2  0  0  0  0  0  0
  187.6820  177.7620  146.8300 C   0  0  0  0  0  0  0  0  0  0  0  0
  186.6590  177.8970  147.7730 C   0  0  0  0  0  3  0  0  0  0  0  0
  190.4960  174.6480  145.6990 C   0  0  0  0  0  2  0  0  0  0  0  0
  192.7430  175.1320  144.8100 C   0  0  0  0  0  1  0  0  0  0  0  0
  191.5320  174.2110  144.6670 C   0  0  1  0  0  3  0  0  0  0  0  0
  192.1360  171.8070  142.0890 C   0  0  1  0  0  3  0  0  0  0  0  0
  193.2200  172.5020  144.2420 C   0  0  0  0  0  2  0  0  0  0  0  0
  189.6940  171.9160  144.9000 O   0  0  0  0  0  1  0  0  0  0  0  0
  192.0310  172.1110  140.6090 C   0  0  0  0  0  1  0  0  0  0  0  0
  193.1970  172.7000  142.7190 C   0  0  0  0  0  2  0  0  0  0  0  0
  190.9340  171.8490  144.2630 C   0  0  2  0  0  3  0  0  0  0  0  0
  191.9090  172.7880  144.8570 N   0  0  0  0  0  0  0  0  0  0  0  0
  190.7850  172.0380  142.7530 C   0  0  0  0  0  2  0  0  0  0  0  0
  1 14  1  0  0  0  0
  2  5  1  6  0  0  0
  2 13  1  0  0  0  0
  2  3  1  0  0  0  0
  3 19  1  0  0  0  0
  4 15  2  0  0  0  0
  6  1  2  0  0  0  0
  6 17  1  0  0  0  0
  7  3  2  0  0  0  0
  7  4  1  0  0  0  0
  8 21  1  6  0  0  0
  9  1  1  0  0  0  0
 11  4  1  0  0  0  0
 12  8  1  0  0  0  0
 13  8  1  0  0  0  0
 13 18  1  1  0  0  0
 14  5  2  0  0  0  0
 15 20  1  0  0  0  0
 16  5  1  0  0  0  0
 16 12  1  0  0  0  0
 17 16  2  0  0  0  0
 18 10  1  0  0  0  0
 19 10  1  0  0  0  0
 19 20  2  0  0  0  0
 23 22  1  1  0  0  0
 23 30  1  0  0  0  0
 23 21  1  0  0  0  0
 24 27  1  6  0  0  0
 24 28  1  0  0  0  0
 24 31  1  0  0  0  0
 25 30  1  0  0  0  0
 28 25  1  0  0  0  0
 29 30  1  0  0  0  0
 29 26  1  1  0  0  0
 31 29  1  0  0  0  0
M  END
>  <MODEL>
2

>  <REMARK>
 VINA RESULT:      -8.4      2.301      7.033
  Name = 
  3 active torsions:
  status: ('A' for Active; 'I' for Inactive)
    1  A    between atoms: C_5  and  C_16
    2  A    between atoms: C_5  and  N_30
    3  A    between atoms: C_10  and  C_16
                            x       y       z     vdW  Elec       q    Type
                         _______ _______ _______ _____ _____    ______ ____

>  <TORSDO>
F 3

$$$$
=
 OpenBabel11112416493D

 31 35  0  0  1  0  0  0  0  0999 V2000
  186.0320  177.9930  147.1290 C   0  0  0  0  0  0  0  0  0  0  0  0
  188.6930  177.9360  144.4140 C   0  0  2  0  0  3  0  0  0  0  0  0
  189.9070  177.2340  145.0060 C   0  0  0  0  0  0  0  0  0  0  0  0
  191.1660  176.4190  146.9220 C   0  0  0  0  0  0  0  0  0  0  0  0
  187.4150  177.6410  145.1630 C   0  0  0  0  0  0  0  0  0  0  0  0
  185.1120  177.0550  146.6550 C   0  0  0  0  0  3  0  0  0  0  0  0
  190.0310  177.0370  146.3900 C   0  0  0  0  0  3  0  0  0  0  0  0
  188.0000  176.2050  142.7150 C   0  0  2  0  0  3  0  0  0  0  0  0
  185.8090  178.6320  148.3400 O   0  0  0  0  0  1  0  0  0  0  0  0
  190.8940  177.0590  142.7840 O   0  0  0  0  0  0  0  0  0  0  0  0
  191.2760  176.2050  148.3880 C   0  0  0  0  0  1  0  0  0  0  0  0
  186.6040  176.0820  143.3180 C   0  0  0  0  0  2  0  0  0  0  0  0
  188.5340  177.6360  142.9090 C   0  0  2  0  0  3  0  0  0  0  0  0
  187.1770  178.2850  146.3840 C   0  0  0  0  0  3  0  0  0  0  0  0
  192.1970  176.0050  146.0760 C   0  0  0  0  0  3  0  0  0  0  0  0
  186.4820  176.6950  144.6840 C   0  0  0  0  0  0  0  0  0  0  0  0
  185.3330  176.4160  145.4320 C   0  0  0  0  0  3  0  0  0  0  0  0
  189.8740  177.8710  142.2080 C   0  0  0  0  0  2  0  0  0  0  0  0
  190.9690  176.8430  144.1630 C   0  0  0  0  0  0  0  0  0  0  0  0
  192.0980  176.2170  144.6990 C   0  0  0  0  0  3  0  0  0  0  0  0
  187.9180  175.8110  141.2440 C   0  0  0  0  0  2  0  0  0  0  0  0
  189.3680  174.0960  142.2590 C   0  0  0  0  0  1  0  0  0  0  0  0
  188.8680  174.6580  140.9280 C   0  0  1  0  0  3  0  0  0  0  0  0
  190.4210  172.4390  138.5940 C   0  0  1  0  0  3  0  0  0  0  0  0
  188.7240  172.2750  140.4350 C   0  0  0  0  0  2  0  0  0  0  0  0
  187.7260  174.9840  138.2290 O   0  0  0  0  0  1  0  0  0  0  0  0
  191.9030  172.4430  138.2820 C   0  0  0  0  0  1  0  0  0  0  0  0
  190.2120  172.1460  140.0750 C   0  0  0  0  0  2  0  0  0  0  0  0
  188.3550  173.8170  138.6640 C   0  0  2  0  0  3  0  0  0  0  0  0
  188.1920  173.6140  140.1200 N   0  0  0  0  0  0  0  0  0  0  0  0
  189.8210  173.7910  138.2300 C   0  0  0  0  0  2  0  0  0  0  0  0
  1  9  1  0  0  0  0
  2  3  1  1  0  0  0
  2  5  1  0  0  0  0
  3  7  1  0  0  0  0
  4 11  1  0  0  0  0
  5 14  1  0  0  0  0
  6  1  1  0  0  0  0
  7  4  2  0  0  0  0
  8 21  1  6  0  0  0
  8 13  1  0  0  0  0
  8 12  1  0  0  0  0
 10 19  1  0  0  0  0
 12 16  1  0  0  0  0
 13 18  1  6  0  0  0
 13  2  1  0  0  0  0
 14  1  2  0  0  0  0
 15  4  1  0  0  0  0
 16  5  2  0  0  0  0
 16 17  1  0  0  0  0
 17  6  2  0  0  0  0
 18 10  1  0  0  0  0
 19 20  1  0  0  0  0
 19  3  2  0  0  0  0
 20 15  2  0  0  0  0
 23 21  1  0  0  0  0
 23 22  1  1  0  0  0
 24 27  1  1  0  0  0
 24 28  1  0  0  0  0
 28 25  1  0  0  0  0
 29 26  1  1  0  0  0
 29 30  1  0  0  0  0
 30 25  1  0  0  0  0
 30 23  1  0  0  0  0
 31 24  1  0  0  0  0
 31 29  1  0  0  0  0
M  END
>  <MODEL>
3

>  <REMARK>
 VINA RESULT:      -8.0      2.832      6.314
  Name = 
  3 active torsions:
  status: ('A' for Active; 'I' for Inactive)
    1  A    between atoms: C_5  and  C_16
    2  A    between atoms: C_5  and  N_30
    3  A    between atoms: C_10  and  C_16
                            x       y       z     vdW  Elec       q    Type
                         _______ _______ _______ _____ _____    ______ ____

>  <TORSDO>
F 3

$$$$
=
 OpenBabel11112416493D

 31 35  0  0  1  0  0  0  0  0999 V2000
  187.2850  177.1730  140.8890 C   0  0  0  0  0  0  0  0  0  0  0  0
  188.7000  177.5500  144.3980 C   0  0  2  0  0  3  0  0  0  0  0  0
  187.5170  177.7970  145.3220 C   0  0  0  0  0  0  0  0  0  0  0  0
  185.1920  178.4200  145.6790 C   0  0  0  0  0  0  0  0  0  0  0  0
  188.3020  176.9260  143.0810 C   0  0  0  0  0  0  0  0  0  0  0  0
  187.4430  175.8050  140.6570 C   0  0  0  0  0  3  0  0  0  0  0  0
  186.2610  178.1660  144.8160 C   0  0  0  0  0  3  0  0  0  0  0  0
  189.3750  175.2530  145.1890 C   0  0  2  0  0  3  0  0  0  0  0  0
  186.6990  177.9770  139.9220 O   0  0  0  0  0  1  0  0  0  0  0  0
  188.9440  177.4070  147.2590 O   0  0  0  0  0  0  0  0  0  0  0  0
  183.8650  178.7950  145.1270 C   0  0  0  0  0  1  0  0  0  0  0  0
  189.2180  174.6570  143.7940 C   0  0  0  0  0  2  0  0  0  0  0  0
  189.8070  176.7270  145.0890 C   0  0  2  0  0  3  0  0  0  0  0  0
  187.7150  177.7310  142.0950 C   0  0  0  0  0  3  0  0  0  0  0  0
  185.3710  178.3220  147.0600 C   0  0  0  0  0  3  0  0  0  0  0  0
  188.4640  175.5430  142.8420 C   0  0  0  0  0  0  0  0  0  0  0  0
  188.0390  174.9960  141.6270 C   0  0  0  0  0  3  0  0  0  0  0  0
  190.1170  177.3510  146.4510 C   0  0  0  0  0  2  0  0  0  0  0  0
  187.6970  177.7340  146.7210 C   0  0  0  0  0  0  0  0  0  0  0  0
  186.6220  177.9800  147.5800 C   0  0  0  0  0  3  0  0  0  0  0  0
  190.3840  174.4040  145.9560 C   0  0  0  0  0  2  0  0  0  0  0  0
  192.5710  175.1810  146.7860 C   0  0  0  0  0  1  0  0  0  0  0  0
  191.8140  174.7350  145.5350 C   0  0  1  0  0  3  0  0  0  0  0  0
  195.0840  174.6510  144.0910 C   0  0  1  0  0  3  0  0  0  0  0  0
  193.7080  173.2010  145.6070 C   0  0  0  0  0  2  0  0  0  0  0  0
  191.6990  173.9900  142.6840 O   0  0  0  0  0  1  0  0  0  0  0  0
  196.0160  175.8440  144.0400 C   0  0  0  0  0  1  0  0  0  0  0  0
  194.7590  174.3190  145.5420 C   0  0  0  0  0  2  0  0  0  0  0  0
  192.8280  173.8070  143.4830 C   0  0  2  0  0  3  0  0  0  0  0  0
  192.4670  173.5650  144.8970 N   0  0  0  0  0  0  0  0  0  0  0  0
  193.8090  174.9680  143.3200 C   0  0  0  0  0  2  0  0  0  0  0  0
  1 14  1  0  0  0  0
  2  5  1  6  0  0  0
  2 13  1  0  0  0  0
  2  3  1  0  0  0  0
  3 19  1  0  0  0  0
  4 15  2  0  0  0  0
  6  1  2  0  0  0  0
  6 17  1  0  0  0  0
  7  3  2  0  0  0  0
  7  4  1  0  0  0  0
  8 21  1  1  0  0  0
  9  1  1  0  0  0  0
 11  4  1  0  0  0  0
 12  8  1  0  0  0  0
 13  8  1  0  0  0  0
 13 18  1  1  0  0  0
 14  5  2  0  0  0  0
 15 20  1  0  0  0  0
 16  5  1  0  0  0  0
 16 12  1  0  0  0  0
 17 16  2  0  0  0  0
 18 10  1  0  0  0  0
 19 10  1  0  0  0  0
 19 20  2  0  0  0  0
 23 21  1  0  0  0  0
 23 22  1  1  0  0  0
 24 27  1  1  0  0  0
 24 28  1  0  0  0  0
 28 25  1  0  0  0  0
 29 26  1  6  0  0  0
 29 30  1  0  0  0  0
 30 23  1  0  0  0  0
 30 25  1  0  0  0  0
 31 29  1  0  0  0  0
 31 24  1  0  0  0  0
M  END
>  <MODEL>
4

>  <REMARK>
 VINA RESULT:      -8.0      2.287      7.128
  Name = 
  3 active torsions:
  status: ('A' for Active; 'I' for Inactive)
    1  A    between atoms: C_5  and  C_16
    2  A    between atoms: C_5  and  N_30
    3  A    between atoms: C_10  and  C_16
                            x       y       z     vdW  Elec       q    Type
                         _______ _______ _______ _____ _____    ______ ____

>  <TORSDO>
F 3

$$$$
=
 OpenBabel11112416493D

 31 35  0  0  1  0  0  0  0  0999 V2000
  185.7780  178.0670  147.3950 C   0  0  0  0  0  0  0  0  0  0  0  0
  187.9040  175.7040  145.3080 C   0  0  2  0  0  3  0  0  0  0  0  0
  187.7130  176.1120  143.8540 C   0  0  0  0  0  0  0  0  0  0  0  0
  186.4750  177.2910  142.1220 C   0  0  0  0  0  0  0  0  0  0  0  0
  187.5220  176.7920  146.2830 C   0  0  0  0  0  0  0  0  0  0  0  0
  186.7460  178.8700  148.0010 C   0  0  0  0  0  3  0  0  0  0  0  0
  186.6560  176.9510  143.4650 C   0  0  0  0  0  3  0  0  0  0  0  0
  190.3130  176.3830  145.6180 C   0  0  2  0  0  3  0  0  0  0  0  0
  184.4320  178.2990  147.6380 O   0  0  0  0  0  1  0  0  0  0  0  0
  189.6000  174.7110  143.2090 O   0  0  0  0  0  0  0  0  0  0  0  0
  185.3610  178.1910  141.7290 C   0  0  0  0  0  1  0  0  0  0  0  0
  189.9680  177.3050  146.7830 C   0  0  0  0  0  2  0  0  0  0  0  0
  189.3340  175.1940  145.5780 C   0  0  2  0  0  3  0  0  0  0  0  0
  186.1660  177.0310  146.5410 C   0  0  0  0  0  3  0  0  0  0  0  0
  187.3410  176.7850  141.1510 C   0  0  0  0  0  3  0  0  0  0  0  0
  188.4990  177.6030  146.9010 C   0  0  0  0  0  0  0  0  0  0  0  0
  188.1020  178.6320  147.7620 C   0  0  0  0  0  3  0  0  0  0  0  0
  189.7040  174.1550  144.5180 C   0  0  0  0  0  2  0  0  0  0  0  0
  188.5610  175.5790  142.8610 C   0  0  0  0  0  0  0  0  0  0  0  0
  188.3820  175.9300  141.5190 C   0  0  0  0  0  3  0  0  0  0  0  0
  191.7620  175.9360  145.7800 C   0  0  0  0  0  2  0  0  0  0  0  0
  191.7740  177.2680  143.7060 C   0  0  0  0  0  1  0  0  0  0  0  0
  192.5850  176.2770  144.5400 C   0  0  1  0  0  3  0  0  0  0  0  0
  195.5290  174.4210  145.3640 C   0  0  1  0  0  3  0  0  0  0  0  0
  194.9490  176.4170  143.9590 C   0  0  0  0  0  2  0  0  0  0  0  0
  193.5210  176.9200  147.2620 O   0  0  0  0  0  1  0  0  0  0  0  0
  195.5950  172.9090  145.3870 C   0  0  0  0  0  1  0  0  0  0  0  0
  195.1560  174.8950  143.9650 C   0  0  0  0  0  2  0  0  0  0  0  0
  194.3520  176.4170  146.2600 C   0  0  2  0  0  3  0  0  0  0  0  0
  193.9070  176.8390  144.9140 N   0  0  0  0  0  0  0  0  0  0  0  0
  194.4990  174.9000  146.3790 C   0  0  0  0  0  2  0  0  0  0  0  0
  1  9  1  0  0  0  0
  1  6  1  0  0  0  0
  2  3  1  6  0  0  0
  2 13  1  0  0  0  0
  2  5  1  0  0  0  0
  4  7  2  0  0  0  0
  5 14  1  0  0  0  0
  5 16  2  0  0  0  0
  7  3  1  0  0  0  0
  8 21  1  1  0  0  0
  8 12  1  0  0  0  0
 10 18  1  0  0  0  0
 11  4  1  0  0  0  0
 12 16  1  0  0  0  0
 13 18  1  6  0  0  0
 13  8  1  0  0  0  0
 14  1  2  0  0  0  0
 15 20  2  0  0  0  0
 15  4  1  0  0  0  0
 16 17  1  0  0  0  0
 17  6  2  0  0  0  0
 19 10  1  0  0  0  0
 19  3  2  0  0  0  0
 20 19  1  0  0  0  0
 23 22  1  6  0  0  0
 23 30  1  0  0  0  0
 23 21  1  0  0  0  0
 24 27  1  6  0  0  0
 24 31  1  0  0  0  0
 25 28  1  0  0  0  0
 25 30  1  0  0  0  0
 28 24  1  0  0  0  0
 29 31  1  0  0  0  0
 29 26  1  1  0  0  0
 30 29  1  0  0  0  0
M  END
>  <MODEL>
5

>  <REMARK>
 VINA RESULT:      -8.0      2.544      7.742
  Name = 
  3 active torsions:
  status: ('A' for Active; 'I' for Inactive)
    1  A    between atoms: C_5  and  C_16
    2  A    between atoms: C_5  and  N_30
    3  A    between atoms: C_10  and  C_16
                            x       y       z     vdW  Elec       q    Type
                         _______ _______ _______ _____ _____    ______ ____

>  <TORSDO>
F 3

$$$$
=
 OpenBabel11112416493D

 31 35  0  0  1  0  0  0  0  0999 V2000
  194.5400  176.3060  144.8230 C   0  0  0  0  0  0  0  0  0  0  0  0
  190.9600  177.0290  143.7670 C   0  0  2  0  0  3  0  0  0  0  0  0
  190.4490  175.7780  143.0670 C   0  0  0  0  0  0  0  0  0  0  0  0
  190.8490  173.6490  141.9600 C   0  0  0  0  0  0  0  0  0  0  0  0
  192.1630  176.7680  144.6430 C   0  0  0  0  0  0  0  0  0  0  0  0
  194.4140  176.1740  146.2080 C   0  0  0  0  0  3  0  0  0  0  0  0
  191.3300  174.7770  142.6290 C   0  0  0  0  0  3  0  0  0  0  0  0
  189.5320  176.9570  145.8450 C   0  0  2  0  0  3  0  0  0  0  0  0
  195.7790  176.1390  144.2200 O   0  0  0  0  0  1  0  0  0  0  0  0
  188.1740  176.6470  143.1670 O   0  0  0  0  0  0  0  0  0  0  0  0
  191.7930  172.5920  141.5150 C   0  0  0  0  0  1  0  0  0  0  0  0
  190.7530  176.9470  146.7590 C   0  0  0  0  0  2  0  0  0  0  0  0
  189.8430  177.7420  144.5570 C   0  0  2  0  0  3  0  0  0  0  0  0
  193.4190  176.6040  144.0450 C   0  0  0  0  0  3  0  0  0  0  0  0
  189.4820  173.5160  141.7090 C   0  0  0  0  0  3  0  0  0  0  0  0
  192.0380  176.6380  146.0440 C   0  0  0  0  0  0  0  0  0  0  0  0
  193.1690  176.3490  146.8160 C   0  0  0  0  0  3  0  0  0  0  0  0
  188.6200  177.9100  143.6530 C   0  0  0  0  0  2  0  0  0  0  0  0
  189.0740  175.6510  142.7780 C   0  0  0  0  0  0  0  0  0  0  0  0
  188.5960  174.5150  142.1170 C   0  0  0  0  0  3  0  0  0  0  0  0
  188.3630  177.5550  146.6200 C   0  0  0  0  0  2  0  0  0  0  0  0
  187.7690  175.3810  147.6170 C   0  0  0  0  0  1  0  0  0  0  0  0
  187.2320  176.5420  146.7810 C   0  0  1  0  0  3  0  0  0  0  0  0
  185.1520  179.0880  145.3730 C   0  0  1  0  0  3  0  0  0  0  0  0
  184.8310  176.9300  146.6110 C   0  0  0  0  0  2  0  0  0  0  0  0
  187.2010  178.9520  148.4810 O   0  0  0  0  0  1  0  0  0  0  0  0
  185.3760  179.7020  144.0070 C   0  0  0  0  0  1  0  0  0  0  0  0
  184.9220  177.5890  145.2270 C   0  0  0  0  0  2  0  0  0  0  0  0
  186.1800  178.6260  147.5870 C   0  0  2  0  0  3  0  0  0  0  0  0
  186.0440  177.1630  147.4170 N   0  0  0  0  0  0  0  0  0  0  0  0
  186.3650  179.3550  146.2560 C   0  0  0  0  0  2  0  0  0  0  0  0
  1  6  1  0  0  0  0
  2  3  1  1  0  0  0
  2 13  1  0  0  0  0
  2  5  1  0  0  0  0
  4  7  1  0  0  0  0
  5 16  2  0  0  0  0
  6 17  2  0  0  0  0
  7  3  2  0  0  0  0
  8 21  1  1  0  0  0
  8 12  1  0  0  0  0
  9  1  1  0  0  0  0
 10 18  1  0  0  0  0
 11  4  1  0  0  0  0
 13 18  1  6  0  0  0
 13  8  1  0  0  0  0
 14  5  1  0  0  0  0
 14  1  2  0  0  0  0
 15  4  2  0  0  0  0
 15 20  1  0  0  0  0
 16 12  1  0  0  0  0
 16 17  1  0  0  0  0
 19  3  1  0  0  0  0
 19 10  1  0  0  0  0
 20 19  2  0  0  0  0
 21 23  1  0  0  0  0
 23 30  1  0  0  0  0
 23 22  1  1  0  0  0
 24 27  1  6  0  0  0
 24 31  1  0  0  0  0
 25 30  1  0  0  0  0
 28 24  1  0  0  0  0
 28 25  1  0  0  0  0
 29 26  1  1  0  0  0
 30 29  1  0  0  0  0
 31 29  1  0  0  0  0
M  END
>  <MODEL>
6

>  <REMARK>
 VINA RESULT:      -7.9      2.476      4.748
  Name = 
  3 active torsions:
  status: ('A' for Active; 'I' for Inactive)
    1  A    between atoms: C_5  and  C_16
    2  A    between atoms: C_5  and  N_30
    3  A    between atoms: C_10  and  C_16
                            x       y       z     vdW  Elec       q    Type
                         _______ _______ _______ _____ _____    ______ ____

>  <TORSDO>
F 3

$$$$
=
 OpenBabel11112416493D

 31 35  0  0  1  0  0  0  0  0999 V2000
  186.0440  177.4760  142.1420 C   0  0  0  0  0  0  0  0  0  0  0  0
  188.6460  174.8870  143.1330 C   0  0  2  0  0  3  0  0  0  0  0  0
  189.1560  174.2640  141.8420 C   0  0  0  0  0  0  0  0  0  0  0  0
  188.9280  173.8190  139.4610 C   0  0  0  0  0  0  0  0  0  0  0  0
  187.9730  176.2230  142.9200 C   0  0  0  0  0  0  0  0  0  0  0  0
  186.7130  178.6750  142.4010 C   0  0  0  0  0  3  0  0  0  0  0  0
  188.4640  174.4230  140.6320 C   0  0  0  0  0  3  0  0  0  0  0  0
  190.7200  176.1350  143.8420 C   0  0  2  0  0  3  0  0  0  0  0  0
  184.7570  177.4980  141.6240 O   0  0  0  0  0  1  0  0  0  0  0  0
  190.9960  173.2320  143.0640 O   0  0  0  0  0  0  0  0  0  0  0  0
  188.1910  174.0100  138.1850 C   0  0  0  0  0  1  0  0  0  0  0  0
  189.9810  177.4690  143.8750 C   0  0  0  0  0  2  0  0  0  0  0  0
  189.7550  174.9880  144.2000 C   0  0  2  0  0  3  0  0  0  0  0  0
  186.6720  176.2560  142.4030 C   0  0  0  0  0  3  0  0  0  0  0  0
  190.0840  173.0360  139.4900 C   0  0  0  0  0  3  0  0  0  0  0  0
  188.6470  177.4360  143.1840 C   0  0  0  0  0  0  0  0  0  0  0  0
  188.0060  178.6530  142.9290 C   0  0  0  0  0  3  0  0  0  0  0  0
  190.4590  173.6350  144.3210 C   0  0  0  0  0  2  0  0  0  0  0  0
  190.3040  173.4430  141.8680 C   0  0  0  0  0  0  0  0  0  0  0  0
  190.7700  172.8480  140.6920 C   0  0  0  0  0  3  0  0  0  0  0  0
  191.8990  176.2210  144.8050 C   0  0  0  0  0  2  0  0  0  0  0  0
  193.0020  176.0130  142.6110 C   0  0  0  0  0  1  0  0  0  0  0  0
  193.2040  175.8300  144.1150 C   0  0  1  0  0  3  0  0  0  0  0  0
  196.3250  174.6040  145.3580 C   0  0  1  0  0  3  0  0  0  0  0  0
  195.5500  176.4160  143.8040 C   0  0  0  0  0  2  0  0  0  0  0  0
  193.6600  176.7060  146.8940 O   0  0  0  0  0  1  0  0  0  0  0  0
  196.6760  173.1350  145.4570 C   0  0  0  0  0  1  0  0  0  0  0  0
  196.0410  174.9640  143.9040 C   0  0  0  0  0  2  0  0  0  0  0  0
  194.6880  176.3530  146.0180 C   0  0  2  0  0  3  0  0  0  0  0  0
  194.3380  176.6480  144.6120 N   0  0  0  0  0  0  0  0  0  0  0  0
  195.1070  174.8970  146.2240 C   0  0  0  0  0  2  0  0  0  0  0  0
  1  6  2  0  0  0  0
  1 14  1  0  0  0  0
  2  3  1  6  0  0  0
  2 13  1  0  0  0  0
  3 19  1  0  0  0  0
  4 15  2  0  0  0  0
  4  7  1  0  0  0  0
  5  2  1  0  0  0  0
  5 16  1  0  0  0  0
  6 17  1  0  0  0  0
  7  3  2  0  0  0  0
  8 12  1  0  0  0  0
  8 13  1  0  0  0  0
  8 21  1  1  0  0  0
  9  1  1  0  0  0  0
 10 18  1  0  0  0  0
 11  4  1  0  0  0  0
 13 18  1  6  0  0  0
 14  5  2  0  0  0  0
 15 20  1  0  0  0  0
 16 12  1  0  0  0  0
 17 16  2  0  0  0  0
 19 10  1  0  0  0  0
 20 19  2  0  0  0  0
 23 22  1  6  0  0  0
 23 30  1  0  0  0  0
 23 21  1  0  0  0  0
 24 27  1  6  0  0  0
 24 31  1  0  0  0  0
 25 28  1  0  0  0  0
 25 30  1  0  0  0  0
 28 24  1  0  0  0  0
 29 31  1  0  0  0  0
 29 26  1  1  0  0  0
 30 29  1  0  0  0  0
M  END
>  <MODEL>
7

>  <REMARK>
 VINA RESULT:      -7.8      2.474      7.384
  Name = 
  3 active torsions:
  status: ('A' for Active; 'I' for Inactive)
    1  A    between atoms: C_5  and  C_16
    2  A    between atoms: C_5  and  N_30
    3  A    between atoms: C_10  and  C_16
                            x       y       z     vdW  Elec       q    Type
                         _______ _______ _______ _____ _____    ______ ____

>  <TORSDO>
F 3

$$$$
=
 OpenBabel11112416493D

 31 35  0  0  1  0  0  0  0  0999 V2000
  193.4600  170.8530  144.6810 C   0  0  0  0  0  0  0  0  0  0  0  0
  194.2980  174.4380  145.6310 C   0  0  2  0  0  3  0  0  0  0  0  0
  195.2690  174.9530  144.5780 C   0  0  0  0  0  0  0  0  0  0  0  0
  196.8460  174.5620  142.7670 C   0  0  0  0  0  0  0  0  0  0  0  0
  193.5140  173.2310  145.1720 C   0  0  0  0  0  0  0  0  0  0  0  0
  192.1440  170.9710  144.2280 C   0  0  0  0  0  3  0  0  0  0  0  0
  195.9340  174.0760  143.7070 C   0  0  0  0  0  3  0  0  0  0  0  0
  192.2880  175.8550  145.0740 C   0  0  2  0  0  3  0  0  0  0  0  0
  194.0910  169.6170  144.6600 O   0  0  0  0  0  1  0  0  0  0  0  0
  194.9560  177.2270  145.3980 O   0  0  0  0  0  0  0  0  0  0  0  0
  197.5300  173.6210  141.8430 C   0  0  0  0  0  1  0  0  0  0  0  0
  191.4070  174.6290  144.8500 C   0  0  0  0  0  2  0  0  0  0  0  0
  193.3580  175.5500  146.1380 C   0  0  2  0  0  3  0  0  0  0  0  0
  194.1400  171.9780  145.1520 C   0  0  0  0  0  3  0  0  0  0  0  0
  197.1140  175.9300  142.6960 C   0  0  0  0  0  3  0  0  0  0  0  0
  192.1820  173.3480  144.7170 C   0  0  0  0  0  0  0  0  0  0  0  0
  191.5050  172.2140  144.2550 C   0  0  0  0  0  3  0  0  0  0  0  0
  194.1900  176.7770  146.5130 C   0  0  0  0  0  2  0  0  0  0  0  0
  195.5720  176.3310  144.5210 C   0  0  0  0  0  0  0  0  0  0  0  0
  196.4790  176.8130  143.5720 C   0  0  0  0  0  3  0  0  0  0  0  0
  191.3880  177.0190  145.4730 C   0  0  0  0  0  2  0  0  0  0  0  0
  189.2860  176.5750  146.6820 C   0  0  0  0  0  1  0  0  0  0  0  0
  189.9140  176.6640  145.2910 C   0  0  1  0  0  3  0  0  0  0  0  0
  187.7650  175.9940  142.5130 C   0  0  1  0  0  3  0  0  0  0  0  0
  187.7570  177.5000  144.5190 C   0  0  0  0  0  2  0  0  0  0  0  0
  190.9460  177.9070  142.8240 O   0  0  0  0  0  1  0  0  0  0  0  0
  187.4340  174.6020  142.0170 C   0  0  0  0  0  1  0  0  0  0  0  0
  187.3060  176.1440  143.9580 C   0  0  0  0  0  2  0  0  0  0  0  0
  189.6020  177.5870  143.0220 C   0  0  2  0  0  3  0  0  0  0  0  0
  189.2220  177.6700  144.4490 N   0  0  0  0  0  0  0  0  0  0  0  0
  189.2660  176.2290  142.4050 C   0  0  0  0  0  2  0  0  0  0  0  0
  1 14  1  0  0  0  0
  2  3  1  6  0  0  0
  2 13  1  0  0  0  0
  4  7  1  0  0  0  0
  5  2  1  0  0  0  0
  6 17  1  0  0  0  0
  6  1  2  0  0  0  0
  7  3  2  0  0  0  0
  8 21  1  1  0  0  0
  8 13  1  0  0  0  0
  9  1  1  0  0  0  0
 10 18  1  0  0  0  0
 11  4  1  0  0  0  0
 12  8  1  0  0  0  0
 13 18  1  6  0  0  0
 14  5  2  0  0  0  0
 15  4  2  0  0  0  0
 15 20  1  0  0  0  0
 16 12  1  0  0  0  0
 16  5  1  0  0  0  0
 17 16  2  0  0  0  0
 19  3  1  0  0  0  0
 19 10  1  0  0  0  0
 20 19  2  0  0  0  0
 23 21  1  0  0  0  0
 23 22  1  1  0  0  0
 24 27  1  1  0  0  0
 24 28  1  0  0  0  0
 28 25  1  0  0  0  0
 29 26  1  1  0  0  0
 29 30  1  0  0  0  0
 30 25  1  0  0  0  0
 30 23  1  0  0  0  0
 31 24  1  0  0  0  0
 31 29  1  0  0  0  0
M  END
>  <MODEL>
8

>  <REMARK>
 VINA RESULT:      -7.8      2.454      3.912
  Name = 
  3 active torsions:
  status: ('A' for Active; 'I' for Inactive)
    1  A    between atoms: C_5  and  C_16
    2  A    between atoms: C_5  and  N_30
    3  A    between atoms: C_10  and  C_16
                            x       y       z     vdW  Elec       q    Type
                         _______ _______ _______ _____ _____    ______ ____

>  <TORSDO>
F 3

$$$$
=
 OpenBabel11112416493D

 31 35  0  0  1  0  0  0  0  0999 V2000
  185.9990  178.0650  140.9670 C   0  0  0  0  0  0  0  0  0  0  0  0
  188.8310  177.9520  143.5020 C   0  0  2  0  0  3  0  0  0  0  0  0
  188.2190  177.5030  144.8210 C   0  0  0  0  0  0  0  0  0  0  0  0
  186.2860  177.1420  146.2540 C   0  0  0  0  0  0  0  0  0  0  0  0
  187.9740  177.6100  142.3060 C   0  0  0  0  0  0  0  0  0  0  0  0
  186.2830  176.9590  140.1630 C   0  0  0  0  0  3  0  0  0  0  0  0
  186.8300  177.5260  145.0260 C   0  0  0  0  0  3  0  0  0  0  0  0
  190.2290  175.9190  142.9790 C   0  0  2  0  0  3  0  0  0  0  0  0
  184.8770  178.8400  140.7090 O   0  0  0  0  0  1  0  0  0  0  0  0
  190.4490  177.1340  145.7340 O   0  0  0  0  0  0  0  0  0  0  0  0
  184.8130  177.1580  146.4490 C   0  0  0  0  0  1  0  0  0  0  0  0
  189.5350  175.7090  141.6370 C   0  0  0  0  0  2  0  0  0  0  0  0
  190.2670  177.4190  143.3250 C   0  0  2  0  0  3  0  0  0  0  0  0
  186.8420  178.3890  142.0320 C   0  0  0  0  0  3  0  0  0  0  0  0
  187.1250  176.7430  147.2960 C   0  0  0  0  0  3  0  0  0  0  0  0
  188.2620  176.4940  141.4890 C   0  0  0  0  0  0  0  0  0  0  0  0
  187.4170  176.1830  140.4190 C   0  0  0  0  0  3  0  0  0  0  0  0
  191.0710  177.7180  144.5920 C   0  0  0  0  0  2  0  0  0  0  0  0
  189.0600  177.1310  145.8920 C   0  0  0  0  0  0  0  0  0  0  0  0
  188.5100  176.7380  147.1150 C   0  0  0  0  0  3  0  0  0  0  0  0
  191.6240  175.3090  142.8920 C   0  0  0  0  0  2  0  0  0  0  0  0
  190.4860  173.9040  144.5670 C   0  0  0  0  0  1  0  0  0  0  0  0
  191.8550  174.2990  144.0140 C   0  0  1  0  0  3  0  0  0  0  0  0
  195.1940  173.3730  144.8960 C   0  0  1  0  0  3  0  0  0  0  0  0
  192.9780  172.2260  144.6380 C   0  0  0  0  0  2  0  0  0  0  0  0
  193.5880  174.1730  141.6310 O   0  0  0  0  0  1  0  0  0  0  0  0
  196.0670  174.1660  145.8460 C   0  0  0  0  0  1  0  0  0  0  0  0
  193.9370  172.9120  145.6220 C   0  0  0  0  0  2  0  0  0  0  0  0
  193.8480  173.4730  142.8110 C   0  0  2  0  0  3  0  0  0  0  0  0
  192.6010  173.1150  143.5220 N   0  0  0  0  0  0  0  0  0  0  0  0
  194.8270  174.2410  143.6990 C   0  0  0  0  0  2  0  0  0  0  0  0
  1 14  1  0  0  0  0
  2  5  1  6  0  0  0
  2  3  1  0  0  0  0
  3  7  2  0  0  0  0
  3 19  1  0  0  0  0
  4 11  1  0  0  0  0
  4 15  2  0  0  0  0
  6 17  1  0  0  0  0
  6  1  2  0  0  0  0
  7  4  1  0  0  0  0
  8 21  1  6  0  0  0
  8 13  1  0  0  0  0
  9  1  1  0  0  0  0
 10 19  1  0  0  0  0
 12  8  1  0  0  0  0
 13  2  1  0  0  0  0
 13 18  1  1  0  0  0
 14  5  2  0  0  0  0
 16 12  1  0  0  0  0
 16  5  1  0  0  0  0
 17 16  2  0  0  0  0
 18 10  1  0  0  0  0
 19 20  2  0  0  0  0
 20 15  1  0  0  0  0
 21 23  1  0  0  0  0
 23 22  1  6  0  0  0
 24 28  1  0  0  0  0
 24 27  1  1  0  0  0
 25 28  1  0  0  0  0
 29 26  1  6  0  0  0
 29 30  1  0  0  0  0
 29 31  1  0  0  0  0
 30 23  1  0  0  0  0
 30 25  1  0  0  0  0
 31 24  1  0  0  0  0
M  END
>  <MODEL>
9

>  <REMARK>
 VINA RESULT:      -7.7      2.607      7.301
  Name = 
  3 active torsions:
  status: ('A' for Active; 'I' for Inactive)
    1  A    between atoms: C_5  and  C_16
    2  A    between atoms: C_5  and  N_30
    3  A    between atoms: C_10  and  C_16
                            x       y       z     vdW  Elec       q    Type
                         _______ _______ _______ _____ _____    ______ ____

>  <TORSDO>
F 3

$$$$
