=
 OpenBabel11112416353D

 32 37  0  0  1  0  0  0  0  0999 V2000
  195.1630  175.1840  146.1820 C   0  0  0  0  0  2  0  0  0  0  0  0
  190.3380  176.0380  143.5000 C   0  0  0  0  0  0  0  0  0  0  0  0
  189.7740  173.2730  139.5400 C   0  0  0  0  0  3  0  0  0  0  0  0
  188.5400  173.8040  139.3550 N   0  0  0  0  0  0  0  0  0  0  0  0
  188.4150  177.5240  144.2370 C   0  0  0  0  0  0  0  0  0  0  0  0
  187.0550  177.9840  143.9960 C   0  0  0  0  0  0  0  0  0  0  0  0
  192.4950  175.8600  144.6980 C   0  0  0  0  0  0  0  0  0  0  0  0
  192.1460  174.4840  142.7540 N   0  0  0  0  0  2  0  0  0  0  0  0
  185.1280  178.1640  142.9450 N   0  0  0  0  0  0  0  0  0  0  0  0
  194.3450  174.3190  143.9460 C   0  0  0  0  0  2  0  0  0  0  0  0
  190.5530  173.6800  140.6190 C   0  0  0  0  0  3  0  0  0  0  0  0
  190.8340  175.0290  142.5510 C   0  0  0  0  0  0  0  0  0  0  0  0
  190.0660  174.6400  141.5190 C   0  0  0  0  0  0  0  0  0  0  0  0
  188.2450  176.1170  142.1550 C   0  0  0  0  0  0  0  0  0  0  0  0
  185.0700  178.9310  144.0540 C   0  0  0  0  0  3  0  0  0  0  0  0
  194.6210  176.3790  145.6720 O   0  0  0  0  0  0  0  0  0  0  0  0
  192.9600  174.9050  143.8550 C   0  0  0  0  0  0  0  0  0  0  0  0
  186.2740  178.8450  144.7480 C   0  0  0  0  0  3  0  0  0  0  0  0
  193.2440  176.3220  145.9190 C   0  0  0  0  0  2  0  0  0  0  0  0
  194.7310  173.9490  145.3770 C   0  0  1  0  0  3  0  0  0  0  0  0
  188.0330  174.7350  140.2040 C   0  0  0  0  0  3  0  0  0  0  0  0
  188.7700  175.1870  141.3150 C   0  0  0  0  0  0  0  0  0  0  0  0
  186.8610  176.6820  141.8480 C   0  0  0  0  0  2  0  0  0  0  0  0
  191.1380  176.4150  144.5080 C   0  0  0  0  0  3  0  0  0  0  0  0
  189.0410  177.9510  145.2460 O   0  0  0  0  0  0  0  0  0  0  0  0
  184.0650  178.0100  141.9680 C   0  0  0  0  0  1  0  0  0  0  0  0
  189.0090  176.5800  143.3100 N   0  0  0  0  0  0  0  0  0  0  0  0
  186.3370  177.5850  142.9150 C   0  0  0  0  0  0  0  0  0  0  0  0
  195.8150  172.9780  145.3690 N   0  0  0  0  0  2  0  0  0  0  0  0
  195.6080  171.5910  145.6420 C   0  0  0  0  0  0  0  0  0  0  0  0
  194.4610  171.1560  145.9270 O   0  0  0  0  0  0  0  0  0  0  0  0
  196.7590  170.6530  145.5920 C   0  0  0  0  0  1  0  0  0  0  0  0
  2 24  2  0  0  0  0
  3 11  2  0  0  0  0
  4  3  1  0  0  0  0
  4 21  2  0  0  0  0
  5 25  2  0  0  0  0
  6  5  1  0  0  0  0
  6 18  1  0  0  0  0
  7 19  1  0  0  0  0
  8 17  1  0  0  0  0
  9 15  1  0  0  0  0
 10 20  1  0  0  0  0
 11 13  1  0  0  0  0
 12  8  1  0  0  0  0
 12  2  1  0  0  0  0
 13 12  2  0  0  0  0
 14 27  1  0  0  0  0
 15 18  2  0  0  0  0
 16 19  1  0  0  0  0
 16  1  1  0  0  0  0
 17 10  1  0  0  0  0
 17  7  2  0  0  0  0
 20 29  1  6  0  0  0
 20  1  1  0  0  0  0
 21 22  1  0  0  0  0
 22 13  1  0  0  0  0
 22 14  2  0  0  0  0
 23 14  1  0  0  0  0
 23 28  1  0  0  0  0
 24  7  1  0  0  0  0
 26  9  1  0  0  0  0
 27  2  1  0  0  0  0
 27  5  1  0  0  0  0
 28  9  1  0  0  0  0
 28  6  2  0  0  0  0
 29 30  1  0  0  0  0
 30 31  2  0  0  0  0
 32 30  1  0  0  0  0
M  END
>  <MODEL>
1

>  <REMARK>
 VINA RESULT:      -8.4      0.000      0.000
  Name = 
  1 active torsions:
  status: ('A' for Active; 'I' for Inactive)
    1  A    between atoms: C_20  and  N_29
                            x       y       z     vdW  Elec       q    Type
                         _______ _______ _______ _____ _____    ______ ____

>  <TORSDO>
F 1

$$$$
=
 OpenBabel11112416353D

 32 37  0  0  1  0  0  0  0  0999 V2000
  195.6590  174.6810  146.0710 C   0  0  0  0  0  2  0  0  0  0  0  0
  190.3910  176.1990  144.9980 C   0  0  0  0  0  0  0  0  0  0  0  0
  188.6840  174.5190  140.7670 C   0  0  0  0  0  3  0  0  0  0  0  0
  187.4810  175.0840  141.0370 N   0  0  0  0  0  0  0  0  0  0  0  0
  188.8140  177.4600  146.5390 C   0  0  0  0  0  0  0  0  0  0  0  0
  187.4710  177.9710  146.7720 C   0  0  0  0  0  0  0  0  0  0  0  0
  192.7590  175.7180  145.5270 C   0  0  0  0  0  0  0  0  0  0  0  0
  191.8500  174.8760  143.4630 N   0  0  0  0  0  2  0  0  0  0  0  0
  185.3610  178.4150  146.3240 N   0  0  0  0  0  0  0  0  0  0  0  0
  194.2590  174.4080  143.9780 C   0  0  0  0  0  2  0  0  0  0  0  0
  189.7300  174.6390  141.6760 C   0  0  0  0  0  3  0  0  0  0  0  0
  190.5690  175.4590  143.7390 C   0  0  0  0  0  0  0  0  0  0  0  0
  189.5460  175.3440  142.8750 C   0  0  0  0  0  0  0  0  0  0  0  0
  188.0410  176.6210  144.2930 C   0  0  0  0  0  0  0  0  0  0  0  0
  185.6300  178.8810  147.5620 C   0  0  0  0  0  3  0  0  0  0  0  0
  195.0900  175.9680  146.0200 O   0  0  0  0  0  0  0  0  0  0  0  0
  192.9370  175.0030  144.3870 C   0  0  0  0  0  0  0  0  0  0  0  0
  186.9590  178.6180  147.8830 C   0  0  0  0  0  3  0  0  0  0  0  0
  193.8150  175.8560  146.5900 C   0  0  0  0  0  2  0  0  0  0  0  0
  194.9600  173.6890  145.1290 C   0  0  1  0  0  3  0  0  0  0  0  0
  187.2630  175.7740  142.1870 C   0  0  0  0  0  3  0  0  0  0  0  0
  188.2800  175.9300  143.1470 C   0  0  0  0  0  0  0  0  0  0  0  0
  186.6660  177.2500  144.4950 C   0  0  0  0  0  2  0  0  0  0  0  0
  191.4380  176.3080  145.8290 C   0  0  0  0  0  3  0  0  0  0  0  0
  189.6960  177.6170  147.4270 O   0  0  0  0  0  0  0  0  0  0  0  0
  184.0820  178.5170  145.6430 C   0  0  0  0  0  1  0  0  0  0  0  0
  189.0960  176.7760  145.2910 N   0  0  0  0  0  0  0  0  0  0  0  0
  186.4840  177.8580  145.8470 C   0  0  0  0  0  0  0  0  0  0  0  0
  195.9400  172.7470  144.6100 N   0  0  0  0  0  2  0  0  0  0  0  0
  195.9610  171.3700  144.9910 C   0  0  0  0  0  0  0  0  0  0  0  0
  195.1300  170.9200  145.8230 O   0  0  0  0  0  0  0  0  0  0  0  0
  196.9780  170.4610  144.4020 C   0  0  0  0  0  1  0  0  0  0  0  0
  2 27  1  0  0  0  0
  2 24  2  0  0  0  0
  3  4  1  0  0  0  0
  3 11  2  0  0  0  0
  4 21  2  0  0  0  0
  5  6  1  0  0  0  0
  5 25  2  0  0  0  0
  6 18  1  0  0  0  0
  7 24  1  0  0  0  0
  7 19  1  0  0  0  0
  8 12  1  0  0  0  0
  8 17  1  0  0  0  0
  9 15  1  0  0  0  0
 10 17  1  0  0  0  0
 10 20  1  0  0  0  0
 11 13  1  0  0  0  0
 12  2  1  0  0  0  0
 13 22  1  0  0  0  0
 13 12  2  0  0  0  0
 14 23  1  0  0  0  0
 14 27  1  0  0  0  0
 15 18  2  0  0  0  0
 16  1  1  0  0  0  0
 16 19  1  0  0  0  0
 17  7  2  0  0  0  0
 20 29  1  6  0  0  0
 20  1  1  0  0  0  0
 21 22  1  0  0  0  0
 22 14  2  0  0  0  0
 23 28  1  0  0  0  0
 26  9  1  0  0  0  0
 27  5  1  0  0  0  0
 28  9  1  0  0  0  0
 28  6  2  0  0  0  0
 29 30  1  0  0  0  0
 30 31  2  0  0  0  0
 32 30  1  0  0  0  0
M  END
>  <MODEL>
2

>  <REMARK>
 VINA RESULT:      -8.3      1.576      2.014
  Name = 
  1 active torsions:
  status: ('A' for Active; 'I' for Inactive)
    1  A    between atoms: C_20  and  N_29
                            x       y       z     vdW  Elec       q    Type
                         _______ _______ _______ _____ _____    ______ ____

>  <TORSDO>
F 1

$$$$
=
 OpenBabel11112416353D

 32 37  0  0  1  0  0  0  0  0999 V2000
  185.6220  178.3300  144.7060 C   0  0  0  0  0  2  0  0  0  0  0  0
  190.2940  175.7340  143.0840 C   0  0  0  0  0  0  0  0  0  0  0  0
  189.6100  172.5090  139.5100 C   0  0  0  0  0  3  0  0  0  0  0  0
  190.9440  172.2640  139.4870 N   0  0  0  0  0  0  0  0  0  0  0  0
  192.6630  176.2070  143.8680 C   0  0  0  0  0  0  0  0  0  0  0  0
  194.0840  175.9280  143.7220 C   0  0  0  0  0  0  0  0  0  0  0  0
  188.2820  176.8490  143.9930 C   0  0  0  0  0  0  0  0  0  0  0  0
  188.0060  175.2720  142.1950 N   0  0  0  0  0  2  0  0  0  0  0  0
  195.8910  174.9460  142.9330 N   0  0  0  0  0  0  0  0  0  0  0  0
  185.9590  176.3770  143.1290 C   0  0  0  0  0  2  0  0  0  0  0  0
  189.0880  173.4370  140.4050 C   0  0  0  0  0  3  0  0  0  0  0  0
  189.4160  175.0100  142.1510 C   0  0  0  0  0  0  0  0  0  0  0  0
  189.9370  174.1230  141.2860 C   0  0  0  0  0  0  0  0  0  0  0  0
  192.2040  174.4950  142.0780 C   0  0  0  0  0  0  0  0  0  0  0  0
  196.2800  175.8600  143.8470 C   0  0  0  0  0  3  0  0  0  0  0  0
  186.5470  177.5930  145.4680 O   0  0  0  0  0  0  0  0  0  0  0  0
  187.4570  176.2180  143.1200 C   0  0  0  0  0  0  0  0  0  0  0  0
  195.1620  176.5040  144.3720 C   0  0  0  0  0  3  0  0  0  0  0  0
  187.8140  177.9050  144.9580 C   0  0  0  0  0  2  0  0  0  0  0  0
  185.5260  177.8370  143.2550 C   0  0  1  0  0  3  0  0  0  0  0  0
  191.7990  172.9080  140.3240 C   0  0  0  0  0  3  0  0  0  0  0  0
  191.3330  173.8590  141.2510 C   0  0  0  0  0  0  0  0  0  0  0  0
  193.6840  174.1300  142.0030 C   0  0  0  0  0  2  0  0  0  0  0  0
  189.7380  176.5990  143.9440 C   0  0  0  0  0  3  0  0  0  0  0  0
  192.2870  177.0690  144.7080 O   0  0  0  0  0  0  0  0  0  0  0  0
  196.7760  174.0730  142.1830 C   0  0  0  0  0  1  0  0  0  0  0  0
  191.7190  175.4860  143.0350 N   0  0  0  0  0  0  0  0  0  0  0  0
  194.5530  174.9930  142.8560 C   0  0  0  0  0  0  0  0  0  0  0  0
  184.1590  177.9970  142.7830 N   0  0  0  0  0  2  0  0  0  0  0  0
  183.8400  178.2040  141.4050 C   0  0  0  0  0  0  0  0  0  0  0  0
  184.7500  178.2790  140.5380 O   0  0  0  0  0  0  0  0  0  0  0  0
  182.4180  178.3350  140.9930 C   0  0  0  0  0  1  0  0  0  0  0  0
  1 16  1  0  0  0  0
  2 24  2  0  0  0  0
  3 11  2  0  0  0  0
  4  3  1  0  0  0  0
  4 21  2  0  0  0  0
  5 25  2  0  0  0  0
  6  5  1  0  0  0  0
  6 18  1  0  0  0  0
  7 19  1  0  0  0  0
  8 17  1  0  0  0  0
  9 15  1  0  0  0  0
 10 20  1  0  0  0  0
 11 13  1  0  0  0  0
 12  8  1  0  0  0  0
 12  2  1  0  0  0  0
 13 12  2  0  0  0  0
 14 27  1  0  0  0  0
 15 18  2  0  0  0  0
 17 10  1  0  0  0  0
 17  7  2  0  0  0  0
 19 16  1  0  0  0  0
 20 29  1  1  0  0  0
 20  1  1  0  0  0  0
 21 22  1  0  0  0  0
 22 13  1  0  0  0  0
 22 14  2  0  0  0  0
 23 14  1  0  0  0  0
 23 28  1  0  0  0  0
 24  7  1  0  0  0  0
 26  9  1  0  0  0  0
 27  2  1  0  0  0  0
 27  5  1  0  0  0  0
 28  9  1  0  0  0  0
 28  6  2  0  0  0  0
 30 29  1  0  0  0  0
 31 30  2  0  0  0  0
 32 30  1  0  0  0  0
M  END
>  <MODEL>
3

>  <REMARK>
 VINA RESULT:      -8.2      2.242      8.071
  Name = 
  1 active torsions:
  status: ('A' for Active; 'I' for Inactive)
    1  A    between atoms: C_20  and  N_29
                            x       y       z     vdW  Elec       q    Type
                         _______ _______ _______ _____ _____    ______ ____

>  <TORSDO>
F 1

$$$$
=
 OpenBabel11112416353D

 32 37  0  0  1  0  0  0  0  0999 V2000
  189.6890  173.1850  137.7090 C   0  0  0  0  0  2  0  0  0  0  0  0
  188.4810  175.3930  142.6960 C   0  0  0  0  0  0  0  0  0  0  0  0
  191.9490  174.7170  146.0370 C   0  0  0  0  0  3  0  0  0  0  0  0
  191.2200  175.4360  146.9260 N   0  0  0  0  0  0  0  0  0  0  0  0
  186.4690  176.8240  143.2930 C   0  0  0  0  0  0  0  0  0  0  0  0
  185.7940  177.6370  144.2930 C   0  0  0  0  0  0  0  0  0  0  0  0
  188.8290  174.3400  140.4840 C   0  0  0  0  0  0  0  0  0  0  0  0
  190.5330  174.0720  142.1640 N   0  0  0  0  0  2  0  0  0  0  0  0
  185.4580  178.5820  146.2550 N   0  0  0  0  0  0  0  0  0  0  0  0
  190.8800  172.9780  139.9350 C   0  0  0  0  0  2  0  0  0  0  0  0
  191.4690  174.5140  144.7460 C   0  0  0  0  0  3  0  0  0  0  0  0
  189.7790  174.8390  143.1130 C   0  0  0  0  0  0  0  0  0  0  0  0
  190.2320  175.0520  144.3600 C   0  0  0  0  0  0  0  0  0  0  0  0
  188.2760  176.3530  144.9830 C   0  0  0  0  0  0  0  0  0  0  0  0
  184.4460  178.9450  145.4400 C   0  0  0  0  0  3  0  0  0  0  0  0
  188.5700  172.9720  138.5350 O   0  0  0  0  0  0  0  0  0  0  0  0
  190.0430  173.8480  140.8370 C   0  0  0  0  0  0  0  0  0  0  0  0
  184.6220  178.3660  144.1850 C   0  0  0  0  0  3  0  0  0  0  0  0
  188.2560  174.2150  139.0990 C   0  0  0  0  0  2  0  0  0  0  0  0
  190.9590  173.5180  138.5080 C   0  0  1  0  0  3  0  0  0  0  0  0
  190.0180  175.9730  146.5910 C   0  0  0  0  0  3  0  0  0  0  0  0
  189.4790  175.8050  145.3020 C   0  0  0  0  0  0  0  0  0  0  0  0
  187.5130  177.1180  146.0610 C   0  0  0  0  0  2  0  0  0  0  0  0
  188.0520  175.1470  141.4490 C   0  0  0  0  0  3  0  0  0  0  0  0
  185.9550  176.7010  142.1480 O   0  0  0  0  0  0  0  0  0  0  0  0
  185.6100  178.9810  147.6420 C   0  0  0  0  0  1  0  0  0  0  0  0
  187.7220  176.1820  143.6430 N   0  0  0  0  0  0  0  0  0  0  0  0
  186.2800  177.7880  145.5520 C   0  0  0  0  0  0  0  0  0  0  0  0
  192.1160  172.9630  137.8240 N   0  0  0  0  0  2  0  0  0  0  0  0
  193.1820  173.7760  137.3300 C   0  0  0  0  0  0  0  0  0  0  0  0
  193.1440  175.0290  137.4500 O   0  0  0  0  0  0  0  0  0  0  0  0
  194.3450  173.1360  136.6620 C   0  0  0  0  0  1  0  0  0  0  0  0
  1 20  1  0  0  0  0
  1 16  1  0  0  0  0
  2 12  1  0  0  0  0
  2 27  1  0  0  0  0
  3  4  1  0  0  0  0
  5 27  1  0  0  0  0
  5  6  1  0  0  0  0
  6 28  2  0  0  0  0
  7 17  2  0  0  0  0
  7 24  1  0  0  0  0
  8 12  1  0  0  0  0
  9 26  1  0  0  0  0
 10 17  1  0  0  0  0
 11  3  2  0  0  0  0
 12 13  2  0  0  0  0
 13 11  1  0  0  0  0
 13 22  1  0  0  0  0
 14 22  2  0  0  0  0
 14 23  1  0  0  0  0
 15  9  1  0  0  0  0
 16 19  1  0  0  0  0
 17  8  1  0  0  0  0
 18  6  1  0  0  0  0
 18 15  2  0  0  0  0
 19  7  1  0  0  0  0
 20 29  1  6  0  0  0
 20 10  1  0  0  0  0
 21  4  2  0  0  0  0
 22 21  1  0  0  0  0
 24  2  2  0  0  0  0
 25  5  2  0  0  0  0
 27 14  1  0  0  0  0
 28 23  1  0  0  0  0
 28  9  1  0  0  0  0
 30 31  2  0  0  0  0
 30 29  1  0  0  0  0
 32 30  1  0  0  0  0
M  END
>  <MODEL>
4

>  <REMARK>
 VINA RESULT:      -8.2      3.381      5.879
  Name = 
  1 active torsions:
  status: ('A' for Active; 'I' for Inactive)
    1  A    between atoms: C_20  and  N_29
                            x       y       z     vdW  Elec       q    Type
                         _______ _______ _______ _____ _____    ______ ____

>  <TORSDO>
F 1

$$$$
=
 OpenBabel11112416353D

 32 37  0  0  1  0  0  0  0  0999 V2000
  185.1040  178.4630  145.0330 C   0  0  0  0  0  2  0  0  0  0  0  0
  189.8030  175.6050  144.0570 C   0  0  0  0  0  0  0  0  0  0  0  0
  189.5020  172.5580  140.2800 C   0  0  0  0  0  3  0  0  0  0  0  0
  190.8040  172.2220  140.4580 N   0  0  0  0  0  0  0  0  0  0  0  0
  192.0400  175.8860  145.2260 C   0  0  0  0  0  0  0  0  0  0  0  0
  193.4460  175.5150  145.2950 C   0  0  0  0  0  0  0  0  0  0  0  0
  187.7450  176.8260  144.6840 C   0  0  0  0  0  0  0  0  0  0  0  0
  187.6640  175.3340  142.7970 N   0  0  0  0  0  2  0  0  0  0  0  0
  195.2910  174.4380  144.7590 N   0  0  0  0  0  0  0  0  0  0  0  0
  185.5660  176.5460  143.4430 C   0  0  0  0  0  2  0  0  0  0  0  0
  188.9020  173.4900  141.1210 C   0  0  0  0  0  3  0  0  0  0  0  0
  189.0430  174.9760  142.9650 C   0  0  0  0  0  0  0  0  0  0  0  0
  189.6390  174.0850  142.1560 C   0  0  0  0  0  0  0  0  0  0  0  0
  191.7690  174.2720  143.3120 C   0  0  0  0  0  0  0  0  0  0  0  0
  195.5840  175.2910  145.7630 C   0  0  0  0  0  3  0  0  0  0  0  0
  185.8460  177.6380  145.8980 O   0  0  0  0  0  0  0  0  0  0  0  0
  187.0340  176.2830  143.6650 C   0  0  0  0  0  0  0  0  0  0  0  0
  194.4390  175.9930  146.1320 C   0  0  0  0  0  3  0  0  0  0  0  0
  187.1950  177.8780  145.6090 C   0  0  0  0  0  2  0  0  0  0  0  0
  185.2110  178.0270  143.5630 C   0  0  1  0  0  3  0  0  0  0  0  0
  191.5520  172.7770  141.4470 C   0  0  0  0  0  3  0  0  0  0  0  0
  191.0040  173.7260  142.3300 C   0  0  0  0  0  0  0  0  0  0  0  0
  193.2150  173.8080  143.4560 C   0  0  0  0  0  2  0  0  0  0  0  0
  189.1710  176.4770  144.8560 C   0  0  0  0  0  3  0  0  0  0  0  0
  191.5890  176.7440  146.0330 O   0  0  0  0  0  0  0  0  0  0  0  0
  196.2280  173.5310  144.1200 C   0  0  0  0  0  1  0  0  0  0  0  0
  191.1990  175.2610  144.2230 N   0  0  0  0  0  0  0  0  0  0  0  0
  193.9880  174.5800  144.4730 C   0  0  0  0  0  0  0  0  0  0  0  0
  183.9510  178.2970  142.8890 N   0  0  0  0  0  2  0  0  0  0  0  0
  183.8240  178.2910  141.4660 C   0  0  0  0  0  0  0  0  0  0  0  0
  184.8220  178.0700  140.7310 O   0  0  0  0  0  0  0  0  0  0  0  0
  182.4990  178.5520  140.8460 C   0  0  0  0  0  1  0  0  0  0  0  0
  1 16  1  0  0  0  0
  2 27  1  0  0  0  0
  2 24  2  0  0  0  0
  3  4  1  0  0  0  0
  3 11  2  0  0  0  0
  4 21  2  0  0  0  0
  5  6  1  0  0  0  0
  5 25  2  0  0  0  0
  6 18  1  0  0  0  0
  7 24  1  0  0  0  0
  7 19  1  0  0  0  0
  8 12  1  0  0  0  0
  8 17  1  0  0  0  0
  9 15  1  0  0  0  0
 10 20  1  0  0  0  0
 10 17  1  0  0  0  0
 11 13  1  0  0  0  0
 12  2  1  0  0  0  0
 13 22  1  0  0  0  0
 13 12  2  0  0  0  0
 14 23  1  0  0  0  0
 14 27  1  0  0  0  0
 15 18  2  0  0  0  0
 17  7  2  0  0  0  0
 19 16  1  0  0  0  0
 20 29  1  6  0  0  0
 20  1  1  0  0  0  0
 21 22  1  0  0  0  0
 22 14  2  0  0  0  0
 23 28  1  0  0  0  0
 26  9  1  0  0  0  0
 27  5  1  0  0  0  0
 28  9  1  0  0  0  0
 28  6  2  0  0  0  0
 30 29  1  0  0  0  0
 31 30  2  0  0  0  0
 32 30  1  0  0  0  0
M  END
>  <MODEL>
5

>  <REMARK>
 VINA RESULT:      -8.2      2.012      8.104
  Name = 
  1 active torsions:
  status: ('A' for Active; 'I' for Inactive)
    1  A    between atoms: C_20  and  N_29
                            x       y       z     vdW  Elec       q    Type
                         _______ _______ _______ _____ _____    ______ ____

>  <TORSDO>
F 1

$$$$
=
 OpenBabel11112416353D

 32 37  0  0  1  0  0  0  0  0999 V2000
  193.1680  172.8000  139.6420 C   0  0  0  0  0  2  0  0  0  0  0  0
  189.7940  175.4980  143.1840 C   0  0  2  0  0  3  0  0  0  0  0  0
  191.8210  176.4280  147.5050 C   0  0  0  0  0  3  0  0  0  0  0  0
  190.6920  177.0770  147.8840 N   0  0  0  0  0  0  0  0  0  0  0  0
  187.4770  176.4170  142.6960 C   0  0  0  0  0  0  0  0  0  0  0  0
  186.3380  177.1900  143.1680 C   0  0  0  0  0  0  0  0  0  0  0  0
  191.1330  174.1810  141.5730 C   0  0  0  0  0  0  0  0  0  0  0  0
  192.1030  174.7050  143.7130 N   0  0  0  0  0  0  0  0  0  0  0  0
  185.1240  178.3610  144.5840 N   0  0  0  0  0  0  0  0  0  0  0  0
  193.4550  173.3460  142.0980 C   0  0  0  0  0  2  0  0  0  0  0  0
  191.9050  175.8630  146.2360 C   0  0  0  0  0  3  0  0  0  0  0  0
  190.9200  175.4040  144.1260 C   0  0  0  0  0  0  0  0  0  0  0  0
  190.8260  175.9630  145.3450 C   0  0  0  0  0  0  0  0  0  0  0  0
  188.5750  176.7800  144.9340 C   0  0  0  0  0  0  0  0  0  0  0  0
  184.4420  178.2760  143.4230 C   0  0  0  0  0  3  0  0  0  0  0  0
  191.8810  172.4520  140.0930 O   0  0  0  0  0  0  0  0  0  0  0  0
  192.1960  174.1110  142.4140 C   0  0  0  0  0  0  0  0  0  0  0  0
  185.1790  177.5410  142.4980 C   0  0  0  0  0  3  0  0  0  0  0  0
  191.1540  173.6470  140.1670 C   0  0  0  0  0  2  0  0  0  0  0  0
  193.9600  173.6080  140.6800 C   0  0  1  0  0  3  0  0  0  0  0  0
  189.6260  177.1960  147.0510 C   0  0  0  0  0  3  0  0  0  0  0  0
  189.6500  176.6480  145.7550 C   0  0  0  0  0  0  0  0  0  0  0  0
  187.3360  177.4980  145.4610 C   0  0  0  0  0  2  0  0  0  0  0  0
  189.9170  174.9140  141.9830 C   0  0  0  0  0  3  0  0  0  0  0  0
  187.4610  175.9460  141.5260 O   0  0  0  0  0  0  0  0  0  0  0  0
  184.6690  179.0410  145.7840 C   0  0  0  0  0  1  0  0  0  0  0  0
  188.6040  176.2150  143.5870 N   0  0  0  0  0  0  0  0  0  0  0  0
  186.2810  177.7020  144.4240 C   0  0  0  0  0  0  0  0  0  0  0  0
  195.3710  173.2680  140.5790 N   0  0  0  0  0  2  0  0  0  0  0  0
  196.3590  174.2030  140.1430 C   0  0  0  0  0  0  0  0  0  0  0  0
  196.0330  175.3710  139.8010 O   0  0  0  0  0  0  0  0  0  0  0  0
  197.7860  173.7920  140.0870 C   0  0  0  0  0  1  0  0  0  0  0  0
  1 16  1  0  0  0  0
  1 20  1  0  0  0  0
  2 24  1  6  0  0  0
  2 27  1  0  0  0  0
  2 12  1  0  0  0  0
  3  4  1  0  0  0  0
  5  6  1  0  0  0  0
  5 27  1  0  0  0  0
  6 28  2  0  0  0  0
  7 24  2  0  0  0  0
  7 17  1  0  0  0  0
  8 12  1  0  0  0  0
  9 26  1  0  0  0  0
 10 17  1  0  0  0  0
 11  3  2  0  0  0  0
 12 13  2  0  0  0  0
 13 22  1  0  0  0  0
 13 11  1  0  0  0  0
 14 23  1  0  0  0  0
 14 22  2  0  0  0  0
 15  9  1  0  0  0  0
 16 19  1  0  0  0  0
 17  8  2  0  0  0  0
 18  6  1  0  0  0  0
 18 15  2  0  0  0  0
 19  7  1  0  0  0  0
 20 29  1  1  0  0  0
 20 10  1  0  0  0  0
 21  4  2  0  0  0  0
 22 21  1  0  0  0  0
 25  5  2  0  0  0  0
 27 14  1  0  0  0  0
 28  9  1  0  0  0  0
 28 23  1  0  0  0  0
 30 29  1  0  0  0  0
 31 30  2  0  0  0  0
 32 30  1  0  0  0  0
M  END
>  <MODEL>
6

>  <REMARK>
 VINA RESULT:      -7.8      2.841      4.839
  Name = 
  1 active torsions:
  status: ('A' for Active; 'I' for Inactive)
    1  A    between atoms: C_20  and  N_29
                            x       y       z     vdW  Elec       q    Type
                         _______ _______ _______ _____ _____    ______ ____

>  <TORSDO>
F 1

$$$$
=
 OpenBabel11112416353D

 32 37  0  0  1  0  0  0  0  0999 V2000
  186.1740  178.4430  142.4680 C   0  0  0  0  0  2  0  0  0  0  0  0
  189.4360  174.0250  141.4450 C   0  0  2  0  0  3  0  0  0  0  0  0
  192.5900  173.0410  145.0130 C   0  0  0  0  0  3  0  0  0  0  0  0
  193.0220  171.9580  144.3200 N   0  0  0  0  0  0  0  0  0  0  0  0
  189.2920  172.4360  139.4680 C   0  0  0  0  0  0  0  0  0  0  0  0
  189.7720  171.2180  138.8330 C   0  0  0  0  0  0  0  0  0  0  0  0
  188.0300  176.0430  141.7100 C   0  0  0  0  0  0  0  0  0  0  0  0
  189.5810  175.4860  143.4650 N   0  0  0  0  0  0  0  0  0  0  0  0
  191.0140  169.4180  138.5710 N   0  0  0  0  0  0  0  0  0  0  0  0
  188.1810  177.5490  143.7290 C   0  0  0  0  0  2  0  0  0  0  0  0
  191.5810  173.8450  144.4890 C   0  0  0  0  0  3  0  0  0  0  0  0
  190.0420  174.3310  142.7500 C   0  0  0  0  0  0  0  0  0  0  0  0
  191.0080  173.5400  143.2460 C   0  0  0  0  0  0  0  0  0  0  0  0
  190.9500  172.0530  141.3240 C   0  0  0  0  0  0  0  0  0  0  0  0
  190.1500  169.4810  137.5360 C   0  0  0  0  0  3  0  0  0  0  0  0
  187.0230  178.1910  141.3740 O   0  0  0  0  0  0  0  0  0  0  0  0
  188.5520  176.3260  142.9300 C   0  0  0  0  0  0  0  0  0  0  0  0
  189.3440  170.6100  137.6660 C   0  0  0  0  0  3  0  0  0  0  0  0
  186.9030  176.8240  141.0910 C   0  0  0  0  0  2  0  0  0  0  0  0
  186.6730  177.7890  143.7660 C   0  0  1  0  0  3  0  0  0  0  0  0
  192.4920  171.6290  143.1140 C   0  0  0  0  0  3  0  0  0  0  0  0
  191.4700  172.4000  142.5310 C   0  0  0  0  0  0  0  0  0  0  0  0
  191.5230  170.8360  140.6040 C   0  0  0  0  0  2  0  0  0  0  0  0
  188.4860  174.8450  140.9730 C   0  0  0  0  0  3  0  0  0  0  0  0
  188.3700  173.0980  138.9150 O   0  0  0  0  0  0  0  0  0  0  0  0
  192.0170  168.3870  138.7720 C   0  0  0  0  0  1  0  0  0  0  0  0
  189.8840  172.8520  140.7250 N   0  0  0  0  0  0  0  0  0  0  0  0
  190.7780  170.4750  139.3620 C   0  0  0  0  0  0  0  0  0  0  0  0
  186.3280  178.6390  144.8950 N   0  0  0  0  0  2  0  0  0  0  0  0
  185.8780  178.1130  146.1450 C   0  0  0  0  0  0  0  0  0  0  0  0
  185.7400  176.8720  146.3090 O   0  0  0  0  0  0  0  0  0  0  0  0
  185.5660  179.0410  147.2630 C   0  0  0  0  0  1  0  0  0  0  0  0
  1 20  1  0  0  0  0
  2 24  1  1  0  0  0
  2 12  1  0  0  0  0
  4  3  1  0  0  0  0
  5 27  1  0  0  0  0
  6 28  2  0  0  0  0
  6  5  1  0  0  0  0
  7 17  1  0  0  0  0
  9 26  1  0  0  0  0
  9 28  1  0  0  0  0
 10 20  1  0  0  0  0
 11  3  2  0  0  0  0
 12 13  2  0  0  0  0
 12  8  1  0  0  0  0
 13 11  1  0  0  0  0
 14 22  2  0  0  0  0
 15 18  2  0  0  0  0
 15  9  1  0  0  0  0
 16  1  1  0  0  0  0
 17  8  2  0  0  0  0
 17 10  1  0  0  0  0
 18  6  1  0  0  0  0
 19 16  1  0  0  0  0
 19  7  1  0  0  0  0
 20 29  1  1  0  0  0
 21  4  2  0  0  0  0
 22 21  1  0  0  0  0
 22 13  1  0  0  0  0
 23 14  1  0  0  0  0
 24  7  2  0  0  0  0
 25  5  2  0  0  0  0
 27 14  1  0  0  0  0
 27  2  1  0  0  0  0
 28 23  1  0  0  0  0
 29 30  1  0  0  0  0
 30 31  2  0  0  0  0
 30 32  1  0  0  0  0
M  END
>  <MODEL>
7

>  <REMARK>
 VINA RESULT:      -7.6      3.164      8.216
  Name = 
  1 active torsions:
  status: ('A' for Active; 'I' for Inactive)
    1  A    between atoms: C_20  and  N_29
                            x       y       z     vdW  Elec       q    Type
                         _______ _______ _______ _____ _____    ______ ____

>  <TORSDO>
F 1

$$$$
=
 OpenBabel11112416353D

 32 37  0  0  1  0  0  0  0  0999 V2000
  181.8120  178.6030  140.5130 C   0  0  0  0  0  2  0  0  0  0  0  0
  186.3190  177.2830  143.5360 C   0  0  2  0  0  3  0  0  0  0  0  0
  186.2670  179.1080  148.0420 C   0  0  0  0  0  3  0  0  0  0  0  0
  187.4430  178.4830  148.3000 N   0  0  0  0  0  0  0  0  0  0  0  0
  188.2110  175.7240  142.8690 C   0  0  0  0  0  0  0  0  0  0  0  0
  189.4330  175.0370  143.2620 C   0  0  0  0  0  0  0  0  0  0  0  0
  184.4480  177.9130  142.0450 C   0  0  0  0  0  0  0  0  0  0  0  0
  184.4530  178.7560  144.3000 N   0  0  0  0  0  0  0  0  0  0  0  0
  191.1110  174.4650  144.5670 N   0  0  0  0  0  0  0  0  0  0  0  0
  182.5670  179.4210  142.7880 C   0  0  0  0  0  2  0  0  0  0  0  0
  185.6680  178.9780  146.7930 C   0  0  0  0  0  3  0  0  0  0  0  0
  185.6900  178.0920  144.5920 C   0  0  0  0  0  0  0  0  0  0  0  0
  186.2770  178.2010  145.7960 C   0  0  0  0  0  0  0  0  0  0  0  0
  188.1420  176.7800  145.1550 C   0  0  0  0  0  0  0  0  0  0  0  0
  191.2490  173.8030  143.3990 C   0  0  0  0  0  3  0  0  0  0  0  0
  183.1740  178.8120  140.2270 O   0  0  0  0  0  0  0  0  0  0  0  0
  183.8340  178.6370  143.0140 C   0  0  0  0  0  0  0  0  0  0  0  0
  190.2030  174.1390  142.5430 C   0  0  0  0  0  3  0  0  0  0  0  0
  183.8500  177.6740  140.6850 C   0  0  0  0  0  2  0  0  0  0  0  0
  181.5140  178.6240  142.0200 C   0  0  1  0  0  3  0  0  0  0  0  0
  188.0630  177.7210  147.3620 C   0  0  0  0  0  3  0  0  0  0  0  0
  187.5080  177.5490  146.0800 C   0  0  0  0  0  0  0  0  0  0  0  0
  189.4780  176.1430  145.5250 C   0  0  0  0  0  2  0  0  0  0  0  0
  185.7150  177.2110  142.3410 C   0  0  0  0  0  3  0  0  0  0  0  0
  187.7430  175.5400  141.7120 O   0  0  0  0  0  0  0  0  0  0  0  0
  192.0170  174.3770  145.6990 C   0  0  0  0  0  1  0  0  0  0  0  0
  187.5610  176.5980  143.8280 N   0  0  0  0  0  0  0  0  0  0  0  0
  190.0020  175.2130  144.4820 C   0  0  0  0  0  0  0  0  0  0  0  0
  180.1940  179.1940  142.2410 N   0  0  0  0  0  2  0  0  0  0  0  0
  179.0040  178.4040  142.2390 C   0  0  0  0  0  0  0  0  0  0  0  0
  179.0550  177.1650  142.0190 O   0  0  0  0  0  0  0  0  0  0  0  0
  177.6910  179.0510  142.4960 C   0  0  0  0  0  1  0  0  0  0  0  0
  1 20  1  0  0  0  0
  2 24  1  1  0  0  0
  2 27  1  0  0  0  0
  2 12  1  0  0  0  0
  3  4  1  0  0  0  0
  5  6  1  0  0  0  0
  5 27  1  0  0  0  0
  6 28  2  0  0  0  0
  7 24  2  0  0  0  0
  7 17  1  0  0  0  0
  8 12  1  0  0  0  0
  9 26  1  0  0  0  0
 10 17  1  0  0  0  0
 11  3  2  0  0  0  0
 12 13  2  0  0  0  0
 13 22  1  0  0  0  0
 13 11  1  0  0  0  0
 14 23  1  0  0  0  0
 14 22  2  0  0  0  0
 15  9  1  0  0  0  0
 16  1  1  0  0  0  0
 16 19  1  0  0  0  0
 17  8  2  0  0  0  0
 18  6  1  0  0  0  0
 18 15  2  0  0  0  0
 19  7  1  0  0  0  0
 20 29  1  6  0  0  0
 20 10  1  0  0  0  0
 21  4  2  0  0  0  0
 22 21  1  0  0  0  0
 25  5  2  0  0  0  0
 27 14  1  0  0  0  0
 28  9  1  0  0  0  0
 28 23  1  0  0  0  0
 30 29  1  0  0  0  0
 30 32  1  0  0  0  0
 31 30  2  0  0  0  0
M  END
>  <MODEL>
8

>  <REMARK>
 VINA RESULT:      -7.5      3.527     10.271
  Name = 
  1 active torsions:
  status: ('A' for Active; 'I' for Inactive)
    1  A    between atoms: C_20  and  N_29
                            x       y       z     vdW  Elec       q    Type
                         _______ _______ _______ _____ _____    ______ ____

>  <TORSDO>
F 1

$$$$
=
 OpenBabel11112416353D

 32 37  0  0  1  0  0  0  0  0999 V2000
  186.0770  176.7590  142.7650 C   0  0  0  0  0  2  0  0  0  0  0  0
  191.0960  174.3510  143.2230 C   0  0  2  0  0  3  0  0  0  0  0  0
  193.9930  176.4550  146.5130 C   0  0  0  0  0  3  0  0  0  0  0  0
  194.9410  175.5180  146.2640 N   0  0  0  0  0  0  0  0  0  0  0  0
  191.8930  172.2330  142.0680 C   0  0  0  0  0  0  0  0  0  0  0  0
  192.9410  171.2350  141.9200 C   0  0  0  0  0  0  0  0  0  0  0  0
  188.8960  175.4090  142.8200 C   0  0  0  0  0  0  0  0  0  0  0  0
  190.3550  176.3850  144.4680 N   0  0  0  0  0  0  0  0  0  0  0  0
  194.8950  170.2760  142.2580 N   0  0  0  0  0  0  0  0  0  0  0  0
  188.1400  177.4800  144.0450 C   0  0  0  0  0  2  0  0  0  0  0  0
  192.7810  176.4180  145.8290 C   0  0  0  0  0  3  0  0  0  0  0  0
  191.3640  175.3960  144.2230 C   0  0  0  0  0  0  0  0  0  0  0  0
  192.5360  175.4130  144.8820 C   0  0  0  0  0  0  0  0  0  0  0  0
  193.3560  173.4370  143.7280 C   0  0  0  0  0  0  0  0  0  0  0  0
  194.2030  169.5130  141.3860 C   0  0  0  0  0  3  0  0  0  0  0  0
  187.0440  176.5110  141.7740 O   0  0  0  0  0  0  0  0  0  0  0  0
  189.1090  176.3620  143.7610 C   0  0  0  0  0  0  0  0  0  0  0  0
  192.9570  170.0880  141.1450 C   0  0  0  0  0  3  0  0  0  0  0  0
  187.6000  175.2600  142.0720 C   0  0  0  0  0  2  0  0  0  0  0  0
  186.6960  176.9910  144.1520 C   0  0  1  0  0  3  0  0  0  0  0  0
  194.7420  174.5300  145.3550 C   0  0  0  0  0  3  0  0  0  0  0  0
  193.5380  174.4360  144.6310 C   0  0  0  0  0  0  0  0  0  0  0  0
  194.4940  172.4490  143.4900 C   0  0  0  0  0  2  0  0  0  0  0  0
  189.9230  174.3740  142.5740 C   0  0  0  0  0  3  0  0  0  0  0  0
  190.8270  172.1120  141.4050 O   0  0  0  0  0  0  0  0  0  0  0  0
  196.2380  170.0020  142.7380 C   0  0  0  0  0  1  0  0  0  0  0  0
  192.1030  173.3390  142.9830 N   0  0  0  0  0  0  0  0  0  0  0  0
  194.1220  171.3220  142.5840 C   0  0  0  0  0  0  0  0  0  0  0  0
  185.8910  177.9580  144.8820 N   0  0  0  0  0  2  0  0  0  0  0  0
  185.1660  177.6190  146.0650 C   0  0  0  0  0  0  0  0  0  0  0  0
  185.1790  176.4420  146.5130 O   0  0  0  0  0  0  0  0  0  0  0  0
  184.3830  178.6660  146.7720 C   0  0  0  0  0  1  0  0  0  0  0  0
  1 20  1  0  0  0  0
  2 24  1  1  0  0  0
  2 12  1  0  0  0  0
  4  3  1  0  0  0  0
  5 27  1  0  0  0  0
  6  5  1  0  0  0  0
  6 28  2  0  0  0  0
  7 17  1  0  0  0  0
  9 28  1  0  0  0  0
  9 26  1  0  0  0  0
 10 20  1  0  0  0  0
 11  3  2  0  0  0  0
 12  8  1  0  0  0  0
 12 13  2  0  0  0  0
 13 11  1  0  0  0  0
 14 22  2  0  0  0  0
 15  9  1  0  0  0  0
 16 19  1  0  0  0  0
 16  1  1  0  0  0  0
 17 10  1  0  0  0  0
 17  8  2  0  0  0  0
 18 15  2  0  0  0  0
 18  6  1  0  0  0  0
 19  7  1  0  0  0  0
 20 29  1  6  0  0  0
 21  4  2  0  0  0  0
 22 13  1  0  0  0  0
 22 21  1  0  0  0  0
 23 14  1  0  0  0  0
 24  7  2  0  0  0  0
 25  5  2  0  0  0  0
 27  2  1  0  0  0  0
 27 14  1  0  0  0  0
 28 23  1  0  0  0  0
 29 30  1  0  0  0  0
 30 31  2  0  0  0  0
 30 32  1  0  0  0  0
M  END
>  <MODEL>
9

>  <REMARK>
 VINA RESULT:      -7.5      2.615      8.723
  Name = 
  1 active torsions:
  status: ('A' for Active; 'I' for Inactive)
    1  A    between atoms: C_20  and  N_29
                            x       y       z     vdW  Elec       q    Type
                         _______ _______ _______ _____ _____    ______ ____

>  <TORSDO>
F 1

$$$$
