=
 OpenBabel11112416593D

 31 35  0  0  0  0  0  0  0  0999 V2000
  184.9000  178.3020  146.5640 C   0  0  0  0  0  0  0  0  0  0  0  0
  187.4380  177.4610  143.9210 C   0  0  0  0  0  0  0  0  0  0  0  0
  186.7540  177.5680  142.6810 C   0  0  0  0  0  0  0  0  0  0  0  0
  191.2010  176.2530  147.3890 O   0  0  0  0  0  0  0  0  0  0  0  0
  191.5710  175.8690  146.2460 C   0  0  0  0  0  0  0  0  0  0  0  0
  184.8600  178.2530  141.4020 C   0  0  0  0  0  0  0  0  0  0  0  0
  186.9190  177.9340  145.1570 C   0  0  0  0  0  0  0  0  0  0  0  0
  185.6850  177.9890  147.8100 C   0  0  0  0  0  2  0  0  0  0  0  0
  185.5220  178.1450  142.5840 N   0  0  0  0  0  0  0  0  0  0  0  0
  189.4310  176.7040  145.1180 C   0  0  0  0  0  0  0  0  0  0  0  0
  183.6810  178.2910  146.6040 O   0  0  0  0  0  0  0  0  0  0  0  0
  188.6090  176.4660  141.5730 C   0  0  0  0  0  3  0  0  0  0  0  0
  183.2810  179.0060  141.3520 Cl  0  0  0  0  0  0  0  0  0  0  0  0
  188.9010  177.1750  146.2760 N   0  0  0  0  0  0  0  0  0  0  0  0
  188.7140  176.8370  143.9210 C   0  0  0  0  0  0  0  0  0  0  0  0
  190.7220  176.0760  145.1070 N   0  0  0  0  0  2  0  0  0  0  0  0
  185.5950  178.6480  145.2760 C   0  0  0  0  0  2  0  0  0  0  0  0
  185.4350  177.7640  140.2280 C   0  0  0  0  0  3  0  0  0  0  0  0
  187.6850  177.7690  146.3270 C   0  0  0  0  0  0  0  0  0  0  0  0
  187.1750  178.2890  147.6380 C   0  0  0  0  0  2  0  0  0  0  0  0
  189.2530  176.3660  142.7620 N   0  0  0  0  0  0  0  0  0  0  0  0
  187.3580  177.0640  141.5070 C   0  0  0  0  0  0  0  0  0  0  0  0
  186.6920  177.1660  140.2860 C   0  0  0  0  0  3  0  0  0  0  0  0
  195.3210  173.8510  145.6940 C   0  0  0  0  0  0  0  0  0  0  0  0
  192.9050  173.8710  145.6200 C   0  0  0  0  0  3  0  0  0  0  0  0
  194.1490  177.1710  146.7690 O   0  0  0  0  0  1  0  0  0  0  0  0
  196.6090  173.1370  145.4980 C   0  0  0  0  0  1  0  0  0  0  0  0
  194.1150  173.1990  145.4350 C   0  0  0  0  0  3  0  0  0  0  0  0
  194.1090  175.8540  146.3260 C   0  0  0  0  0  0  0  0  0  0  0  0
  192.8810  175.2030  146.0660 C   0  0  0  0  0  0  0  0  0  0  0  0
  195.3160  175.1740  146.1380 C   0  0  0  0  0  3  0  0  0  0  0  0
  1 11  2  0  0  0  0
  1  8  1  0  0  0  0
  2 15  1  0  0  0  0
  2  7  1  0  0  0  0
  3  2  2  0  0  0  0
  5  4  2  0  0  0  0
  6  9  2  0  0  0  0
  7 17  1  0  0  0  0
  7 19  2  0  0  0  0
  9  3  1  0  0  0  0
 10 14  2  0  0  0  0
 12 21  1  0  0  0  0
 13  6  1  0  0  0  0
 14 19  1  0  0  0  0
 15 10  1  0  0  0  0
 16 10  1  0  0  0  0
 16  5  1  0  0  0  0
 17  1  1  0  0  0  0
 18 23  2  0  0  0  0
 18  6  1  0  0  0  0
 19 20  1  0  0  0  0
 20  8  1  0  0  0  0
 21 15  2  0  0  0  0
 22 12  2  0  0  0  0
 22  3  1  0  0  0  0
 23 22  1  0  0  0  0
 24 31  1  0  0  0  0
 25 30  2  0  0  0  0
 27 24  1  0  0  0  0
 28 25  1  0  0  0  0
 28 24  2  0  0  0  0
 29 26  1  0  0  0  0
 30  5  1  0  0  0  0
 30 29  1  0  0  0  0
 31 29  2  0  0  0  0
M  END
>  <MODEL>
1

>  <REMARK>
 VINA RESULT:      -9.5      0.000      0.000
  Name = 
  1 active torsions:
  status: ('A' for Active; 'I' for Inactive)
    1  A    between atoms: C_5  and  C_30
                            x       y       z     vdW  Elec       q    Type
                         _______ _______ _______ _____ _____    ______ ____

>  <TORSDO>
F 1

$$$$
=
 OpenBabel11112416593D

 31 35  0  0  0  0  0  0  0  0999 V2000
  186.1590  177.4940  141.1170 C   0  0  0  0  0  0  0  0  0  0  0  0
  187.6890  176.7230  144.4630 C   0  0  0  0  0  0  0  0  0  0  0  0
  186.8600  177.3610  145.4240 C   0  0  0  0  0  0  0  0  0  0  0  0
  191.8370  174.2280  142.4100 O   0  0  0  0  0  0  0  0  0  0  0  0
  192.0560  174.4280  143.6350 C   0  0  0  0  0  0  0  0  0  0  0  0
  184.8360  178.4810  146.0090 C   0  0  0  0  0  0  0  0  0  0  0  0
  187.3350  176.5520  143.0970 C   0  0  0  0  0  0  0  0  0  0  0  0
  187.2040  176.9210  140.1970 C   0  0  0  0  0  2  0  0  0  0  0  0
  185.6370  177.8690  145.0970 N   0  0  0  0  0  0  0  0  0  0  0  0
  189.8070  175.5950  143.9910 C   0  0  0  0  0  0  0  0  0  0  0  0
  185.4110  178.3650  140.7070 O   0  0  0  0  0  0  0  0  0  0  0  0
  188.5490  176.9790  147.1220 C   0  0  0  0  0  3  0  0  0  0  0  0
  183.2780  179.1100  145.5180 Cl  0  0  0  0  0  0  0  0  0  0  0  0
  189.4280  175.4480  142.6960 N   0  0  0  0  0  0  0  0  0  0  0  0
  188.9500  176.2320  144.8980 C   0  0  0  0  0  0  0  0  0  0  0  0
  191.0760  175.0990  144.4420 N   0  0  0  0  0  2  0  0  0  0  0  0
  186.0100  176.9940  142.5270 C   0  0  0  0  0  2  0  0  0  0  0  0
  185.2530  178.6120  147.3340 C   0  0  0  0  0  3  0  0  0  0  0  0
  188.2400  175.9060  142.2320 C   0  0  0  0  0  0  0  0  0  0  0  0
  187.8770  175.6840  140.7950 C   0  0  0  0  0  2  0  0  0  0  0  0
  189.3340  176.3730  146.1970 N   0  0  0  0  0  0  0  0  0  0  0  0
  187.3060  177.4800  146.7590 C   0  0  0  0  0  0  0  0  0  0  0  0
  186.4970  178.1070  147.7070 C   0  0  0  0  0  3  0  0  0  0  0  0
  195.6830  173.0240  145.4570 C   0  0  0  0  0  0  0  0  0  0  0  0
  193.3740  172.6890  144.8200 C   0  0  0  0  0  3  0  0  0  0  0  0
  194.4900  176.0650  143.7600 O   0  0  0  0  0  1  0  0  0  0  0  0
  196.9280  172.5210  146.0910 C   0  0  0  0  0  1  0  0  0  0  0  0
  194.5460  172.2160  145.4160 C   0  0  0  0  0  3  0  0  0  0  0  0
  194.4800  174.7840  144.3020 C   0  0  0  0  0  0  0  0  0  0  0  0
  193.3220  173.9740  144.2560 C   0  0  0  0  0  0  0  0  0  0  0  0
  195.6490  174.3030  144.9010 C   0  0  0  0  0  3  0  0  0  0  0  0
  1 17  1  0  0  0  0
  2 15  2  0  0  0  0
  2  3  1  0  0  0  0
  3 22  1  0  0  0  0
  4  5  2  0  0  0  0
  5 30  1  0  0  0  0
  5 16  1  0  0  0  0
  6 18  2  0  0  0  0
  7  2  1  0  0  0  0
  8 20  1  0  0  0  0
  8  1  1  0  0  0  0
  9  3  2  0  0  0  0
  9  6  1  0  0  0  0
 10 16  1  0  0  0  0
 10 15  1  0  0  0  0
 11  1  2  0  0  0  0
 13  6  1  0  0  0  0
 14 10  2  0  0  0  0
 15 21  1  0  0  0  0
 17  7  1  0  0  0  0
 18 23  1  0  0  0  0
 19 14  1  0  0  0  0
 19  7  2  0  0  0  0
 20 19  1  0  0  0  0
 21 12  2  0  0  0  0
 22 12  1  0  0  0  0
 22 23  2  0  0  0  0
 24 27  1  0  0  0  0
 25 28  2  0  0  0  0
 26 29  1  0  0  0  0
 28 24  1  0  0  0  0
 29 31  1  0  0  0  0
 30 29  2  0  0  0  0
 30 25  1  0  0  0  0
 31 24  2  0  0  0  0
M  END
>  <MODEL>
2

>  <REMARK>
 VINA RESULT:      -9.1      2.117      4.182
  Name = 
  1 active torsions:
  status: ('A' for Active; 'I' for Inactive)
    1  A    between atoms: C_5  and  C_30
                            x       y       z     vdW  Elec       q    Type
                         _______ _______ _______ _____ _____    ______ ____

>  <TORSDO>
F 1

$$$$
=
 OpenBabel11112416593D

 31 35  0  0  0  0  0  0  0  0999 V2000
  184.8310  178.0760  146.7310 C   0  0  0  0  0  0  0  0  0  0  0  0
  187.1630  177.6870  143.8070 C   0  0  0  0  0  0  0  0  0  0  0  0
  186.3460  177.7750  142.6480 C   0  0  0  0  0  0  0  0  0  0  0  0
  191.3770  176.7660  146.8120 O   0  0  0  0  0  0  0  0  0  0  0  0
  191.6690  176.4900  145.6170 C   0  0  0  0  0  0  0  0  0  0  0  0
  184.2640  178.2910  141.6040 C   0  0  0  0  0  0  0  0  0  0  0  0
  186.7230  178.0290  145.1150 C   0  0  0  0  0  0  0  0  0  0  0  0
  185.7720  177.7970  147.8730 C   0  0  0  0  0  2  0  0  0  0  0  0
  185.0530  178.2030  142.7070 N   0  0  0  0  0  0  0  0  0  0  0  0
  189.3430  177.1170  144.7560 C   0  0  0  0  0  0  0  0  0  0  0  0
  183.6330  177.9150  146.8870 O   0  0  0  0  0  0  0  0  0  0  0  0
  188.1920  176.9650  141.2980 C   0  0  0  0  0  3  0  0  0  0  0  0
  182.6120  178.8480  141.7550 Cl  0  0  0  0  0  0  0  0  0  0  0  0
  188.8850  177.4590  145.9870 N   0  0  0  0  0  0  0  0  0  0  0  0
  188.4950  177.2230  143.6450 C   0  0  0  0  0  0  0  0  0  0  0  0
  190.6890  176.6510  144.5810 N   0  0  0  0  0  2  0  0  0  0  0  0
  185.3450  178.5700  145.4070 C   0  0  0  0  0  2  0  0  0  0  0  0
  184.7670  177.9370  140.3510 C   0  0  0  0  0  3  0  0  0  0  0  0
  187.6190  177.8980  146.1930 C   0  0  0  0  0  0  0  0  0  0  0  0
  187.1910  178.2840  147.5770 C   0  0  0  0  0  2  0  0  0  0  0  0
  188.9620  176.8830  142.4110 N   0  0  0  0  0  0  0  0  0  0  0  0
  186.8800  177.4100  141.3920 C   0  0  0  0  0  0  0  0  0  0  0  0
  186.0840  177.4930  140.2490 C   0  0  0  0  0  3  0  0  0  0  0  0
  195.6240  175.1590  144.6010 C   0  0  0  0  0  0  0  0  0  0  0  0
  194.0410  176.9340  145.0320 C   0  0  0  0  0  3  0  0  0  0  0  0
  192.3610  173.6460  145.3890 O   0  0  0  0  0  1  0  0  0  0  0  0
  196.9980  174.7170  144.2490 C   0  0  0  0  0  1  0  0  0  0  0  0
  195.3330  176.5190  144.7010 C   0  0  0  0  0  3  0  0  0  0  0  0
  193.3280  174.6210  145.1660 C   0  0  0  0  0  0  0  0  0  0  0  0
  193.0220  175.9970  145.2690 C   0  0  0  0  0  0  0  0  0  0  0  0
  194.6240  174.2130  144.8340 C   0  0  0  0  0  3  0  0  0  0  0  0
  1 11  2  0  0  0  0
  1  8  1  0  0  0  0
  2  7  1  0  0  0  0
  3  9  1  0  0  0  0
  3  2  2  0  0  0  0
  5  4  2  0  0  0  0
  6 13  1  0  0  0  0
  6  9  2  0  0  0  0
  7 17  1  0  0  0  0
  7 19  2  0  0  0  0
 10 14  2  0  0  0  0
 12 22  2  0  0  0  0
 12 21  1  0  0  0  0
 14 19  1  0  0  0  0
 15  2  1  0  0  0  0
 15 10  1  0  0  0  0
 16 10  1  0  0  0  0
 16  5  1  0  0  0  0
 17  1  1  0  0  0  0
 18  6  1  0  0  0  0
 19 20  1  0  0  0  0
 20  8  1  0  0  0  0
 21 15  2  0  0  0  0
 22  3  1  0  0  0  0
 23 18  2  0  0  0  0
 23 22  1  0  0  0  0
 24 28  2  0  0  0  0
 24 31  1  0  0  0  0
 25 30  2  0  0  0  0
 27 24  1  0  0  0  0
 28 25  1  0  0  0  0
 29 30  1  0  0  0  0
 29 26  1  0  0  0  0
 30  5  1  0  0  0  0
 31 29  2  0  0  0  0
M  END
>  <MODEL>
3

>  <REMARK>
 VINA RESULT:      -8.9      1.083      1.436
  Name = 
  1 active torsions:
  status: ('A' for Active; 'I' for Inactive)
    1  A    between atoms: C_5  and  C_30
                            x       y       z     vdW  Elec       q    Type
                         _______ _______ _______ _____ _____    ______ ____

>  <TORSDO>
F 1

$$$$
=
 OpenBabel11112416593D

 31 35  0  0  0  0  0  0  0  0999 V2000
  191.2980  176.3310  147.1560 C   0  0  0  0  0  0  0  0  0  0  0  0
  188.7460  176.3050  144.3950 C   0  0  0  0  0  0  0  0  0  0  0  0
  187.5810  176.9090  144.9400 C   0  0  0  0  0  0  0  0  0  0  0  0
  191.8190  173.6290  141.0730 O   0  0  0  0  0  0  0  0  0  0  0  0
  190.6500  173.6570  140.6030 C   0  0  0  0  0  0  0  0  0  0  0  0
  186.4950  178.1590  146.6580 C   0  0  0  0  0  0  0  0  0  0  0  0
  190.0230  176.3380  145.0190 C   0  0  0  0  0  0  0  0  0  0  0  0
  192.4010  175.5270  146.5200 C   0  0  0  0  0  2  0  0  0  0  0  0
  187.6040  177.5780  146.1280 N   0  0  0  0  0  0  0  0  0  0  0  0
  189.7390  175.0110  142.5730 C   0  0  0  0  0  0  0  0  0  0  0  0
  191.2320  176.4030  148.3710 O   0  0  0  0  0  0  0  0  0  0  0  0
  186.3000  176.1390  143.0290 C   0  0  0  0  0  3  0  0  0  0  0  0
  186.5980  179.0010  148.1880 Cl  0  0  0  0  0  0  0  0  0  0  0  0
  190.9410  175.0710  143.2000 N   0  0  0  0  0  0  0  0  0  0  0  0
  188.6210  175.6250  143.1550 C   0  0  0  0  0  0  0  0  0  0  0  0
  189.6020  174.3290  141.3180 N   0  0  0  0  0  2  0  0  0  0  0  0
  190.2890  177.0640  146.3160 C   0  0  0  0  0  2  0  0  0  0  0  0
  185.2750  178.0840  145.9850 C   0  0  0  0  0  3  0  0  0  0  0  0
  191.1090  175.7010  144.3880 C   0  0  0  0  0  0  0  0  0  0  0  0
  192.4720  175.7500  145.0090 C   0  0  0  0  0  2  0  0  0  0  0  0
  187.4180  175.5650  142.5190 N   0  0  0  0  0  0  0  0  0  0  0  0
  186.3580  176.8180  144.2390 C   0  0  0  0  0  0  0  0  0  0  0  0
  185.2100  177.4080  144.7680 C   0  0  0  0  0  3  0  0  0  0  0  0
  189.7610  171.8410  136.8140 C   0  0  0  0  0  0  0  0  0  0  0  0
  190.1830  173.7990  138.1690 C   0  0  0  0  0  3  0  0  0  0  0  0
  190.3550  170.7540  140.2800 O   0  0  0  0  0  1  0  0  0  0  0  0
  189.4530  171.2310  135.4950 C   0  0  0  0  0  1  0  0  0  0  0  0
  189.8940  173.2260  136.9280 C   0  0  0  0  0  3  0  0  0  0  0  0
  190.2070  171.5970  139.1850 C   0  0  0  0  0  0  0  0  0  0  0  0
  190.3440  172.9990  139.3120 C   0  0  0  0  0  0  0  0  0  0  0  0
  189.9170  171.0310  137.9390 C   0  0  0  0  0  3  0  0  0  0  0  0
  1 11  2  0  0  0  0
  2  3  1  0  0  0  0
  2  7  1  0  0  0  0
  3  9  1  0  0  0  0
  5  4  2  0  0  0  0
  5 16  1  0  0  0  0
  6 13  1  0  0  0  0
  7 17  1  0  0  0  0
  8  1  1  0  0  0  0
  9  6  2  0  0  0  0
 10 15  1  0  0  0  0
 10 14  2  0  0  0  0
 12 22  1  0  0  0  0
 14 19  1  0  0  0  0
 15  2  2  0  0  0  0
 16 10  1  0  0  0  0
 17  1  1  0  0  0  0
 18  6  1  0  0  0  0
 19 20  1  0  0  0  0
 19  7  2  0  0  0  0
 20  8  1  0  0  0  0
 21 12  2  0  0  0  0
 21 15  1  0  0  0  0
 22 23  1  0  0  0  0
 22  3  2  0  0  0  0
 23 18  2  0  0  0  0
 24 28  2  0  0  0  0
 24 31  1  0  0  0  0
 25 30  2  0  0  0  0
 27 24  1  0  0  0  0
 28 25  1  0  0  0  0
 29 30  1  0  0  0  0
 29 26  1  0  0  0  0
 30  5  1  0  0  0  0
 31 29  2  0  0  0  0
M  END
>  <MODEL>
4

>  <REMARK>
 VINA RESULT:      -8.7      4.037      6.620
  Name = 
  1 active torsions:
  status: ('A' for Active; 'I' for Inactive)
    1  A    between atoms: C_5  and  C_30
                            x       y       z     vdW  Elec       q    Type
                         _______ _______ _______ _____ _____    ______ ____

>  <TORSDO>
F 1

$$$$
=
 OpenBabel11112416593D

 31 35  0  0  0  0  0  0  0  0999 V2000
  195.5620  173.7360  145.0480 C   0  0  0  0  0  0  0  0  0  0  0  0
  191.9970  172.8220  144.2770 C   0  0  0  0  0  0  0  0  0  0  0  0
  192.0610  171.6220  143.5200 C   0  0  0  0  0  0  0  0  0  0  0  0
  190.0160  177.1770  146.4560 O   0  0  0  0  0  0  0  0  0  0  0  0
  189.1030  176.6060  145.8000 C   0  0  0  0  0  0  0  0  0  0  0  0
  193.2840  169.7470  142.6910 C   0  0  0  0  0  0  0  0  0  0  0  0
  193.1010  173.3760  144.9820 C   0  0  0  0  0  0  0  0  0  0  0  0
  195.3680  175.0860  145.6880 C   0  0  0  0  0  2  0  0  0  0  0  0
  193.2120  170.8980  143.4130 N   0  0  0  0  0  0  0  0  0  0  0  0
  190.6370  174.7000  145.0540 C   0  0  0  0  0  0  0  0  0  0  0  0
  196.6360  173.4610  144.5420 O   0  0  0  0  0  0  0  0  0  0  0  0
  189.7200  171.8740  142.9390 C   0  0  0  0  0  3  0  0  0  0  0  0
  194.7940  168.8690  142.5970 Cl  0  0  0  0  0  0  0  0  0  0  0  0
  191.7150  175.1910  145.7180 N   0  0  0  0  0  0  0  0  0  0  0  0
  190.7550  173.5100  144.3230 C   0  0  0  0  0  0  0  0  0  0  0  0
  189.3770  175.3850  145.0980 N   0  0  0  0  0  2  0  0  0  0  0  0
  194.4570  172.7160  145.0400 C   0  0  0  0  0  2  0  0  0  0  0  0
  192.1560  169.2660  142.0250 C   0  0  0  0  0  3  0  0  0  0  0  0
  192.9220  174.5760  145.6970 C   0  0  0  0  0  0  0  0  0  0  0  0
  194.0600  175.1630  146.4760 C   0  0  0  0  0  2  0  0  0  0  0  0
  189.6700  173.0200  143.6620 N   0  0  0  0  0  0  0  0  0  0  0  0
  190.9060  171.1560  142.8540 C   0  0  0  0  0  0  0  0  0  0  0  0
  190.9610  169.9780  142.1090 C   0  0  0  0  0  3  0  0  0  0  0  0
  185.1370  178.2530  145.7380 C   0  0  0  0  0  0  0  0  0  0  0  0
  186.8900  177.0120  146.8500 C   0  0  0  0  0  3  0  0  0  0  0  0
  188.0630  178.1170  143.5080 O   0  0  0  0  0  1  0  0  0  0  0  0
  183.7620  178.8150  145.7350 C   0  0  0  0  0  1  0  0  0  0  0  0
  185.5970  177.5410  146.8470 C   0  0  0  0  0  3  0  0  0  0  0  0
  187.2660  177.9110  144.6290 C   0  0  0  0  0  0  0  0  0  0  0  0
  187.7410  177.1870  145.7470 C   0  0  0  0  0  0  0  0  0  0  0  0
  185.9700  178.4370  144.6340 C   0  0  0  0  0  3  0  0  0  0  0  0
  1  8  1  0  0  0  0
  2 15  1  0  0  0  0
  2  7  1  0  0  0  0
  3  2  2  0  0  0  0
  5  4  2  0  0  0  0
  6  9  2  0  0  0  0
  7 17  1  0  0  0  0
  7 19  2  0  0  0  0
  8 20  1  0  0  0  0
  9  3  1  0  0  0  0
 10 16  1  0  0  0  0
 10 14  2  0  0  0  0
 11  1  2  0  0  0  0
 12 21  1  0  0  0  0
 13  6  1  0  0  0  0
 15 10  1  0  0  0  0
 16  5  1  0  0  0  0
 17  1  1  0  0  0  0
 18 23  2  0  0  0  0
 18  6  1  0  0  0  0
 19 14  1  0  0  0  0
 19 20  1  0  0  0  0
 21 15  2  0  0  0  0
 22 12  2  0  0  0  0
 22  3  1  0  0  0  0
 23 22  1  0  0  0  0
 24 28  1  0  0  0  0
 26 29  1  0  0  0  0
 27 24  1  0  0  0  0
 28 25  2  0  0  0  0
 29 31  1  0  0  0  0
 29 30  2  0  0  0  0
 30  5  1  0  0  0  0
 30 25  1  0  0  0  0
 31 24  2  0  0  0  0
M  END
>  <MODEL>
5

>  <REMARK>
 VINA RESULT:      -8.3      4.028      8.667
  Name = 
  1 active torsions:
  status: ('A' for Active; 'I' for Inactive)
    1  A    between atoms: C_5  and  C_30
                            x       y       z     vdW  Elec       q    Type
                         _______ _______ _______ _____ _____    ______ ____

>  <TORSDO>
F 1

$$$$
=
 OpenBabel11112416593D

 31 35  0  0  0  0  0  0  0  0999 V2000
  188.9490  175.0590  146.5630 C   0  0  0  0  0  0  0  0  0  0  0  0
  188.1380  176.1150  143.0470 C   0  0  0  0  0  0  0  0  0  0  0  0
  187.1880  177.1640  143.1680 C   0  0  0  0  0  0  0  0  0  0  0  0
  191.0790  172.3560  140.8420 O   0  0  0  0  0  0  0  0  0  0  0  0
  190.3620  172.8810  139.9470 C   0  0  0  0  0  0  0  0  0  0  0  0
  186.0190  178.7710  144.4900 C   0  0  0  0  0  0  0  0  0  0  0  0
  188.8950  175.6000  144.1350 C   0  0  0  0  0  0  0  0  0  0  0  0
  189.8130  173.8550  146.2980 C   0  0  0  0  0  2  0  0  0  0  0  0
  186.9270  177.7660  144.3640 N   0  0  0  0  0  0  0  0  0  0  0  0
  189.2610  174.5080  141.5860 C   0  0  0  0  0  0  0  0  0  0  0  0
  188.3740  175.1600  147.6330 O   0  0  0  0  0  0  0  0  0  0  0  0
  186.7260  177.0070  140.7920 C   0  0  0  0  0  3  0  0  0  0  0  0
  185.7350  179.4970  146.0570 Cl  0  0  0  0  0  0  0  0  0  0  0  0
  189.9670  174.0490  142.6500 N   0  0  0  0  0  0  0  0  0  0  0  0
  188.3360  175.5460  141.7610 C   0  0  0  0  0  0  0  0  0  0  0  0
  189.4560  173.9430  140.2810 N   0  0  0  0  0  2  0  0  0  0  0  0
  188.8010  176.1490  145.5380 C   0  0  0  0  0  2  0  0  0  0  0  0
  185.3140  179.2230  143.3750 C   0  0  0  0  0  3  0  0  0  0  0  0
  189.8070  174.5540  143.8980 C   0  0  0  0  0  0  0  0  0  0  0  0
  190.6410  174.0150  145.0210 C   0  0  0  0  0  2  0  0  0  0  0  0
  187.6330  176.0050  140.6880 N   0  0  0  0  0  0  0  0  0  0  0  0
  186.4870  177.6030  142.0230 C   0  0  0  0  0  0  0  0  0  0  0  0
  185.5520  178.6330  142.1350 C   0  0  0  0  0  3  0  0  0  0  0  0
  190.5450  171.4390  135.9060 C   0  0  0  0  0  0  0  0  0  0  0  0
  189.7170  171.2700  138.1720 C   0  0  0  0  0  3  0  0  0  0  0  0
  191.9780  174.1960  137.8790 O   0  0  0  0  0  1  0  0  0  0  0  0
  190.5950  170.9250  134.5130 C   0  0  0  0  0  1  0  0  0  0  0  0
  189.7650  170.7870  136.8620 C   0  0  0  0  0  3  0  0  0  0  0  0
  191.2340  173.0640  137.5690 C   0  0  0  0  0  0  0  0  0  0  0  0
  190.4470  172.4100  138.5450 C   0  0  0  0  0  0  0  0  0  0  0  0
  191.2760  172.5730  136.2600 C   0  0  0  0  0  3  0  0  0  0  0  0
  1 11  2  0  0  0  0
  2  3  1  0  0  0  0
  2  7  1  0  0  0  0
  3  9  1  0  0  0  0
  5 16  1  0  0  0  0
  5  4  2  0  0  0  0
  6 13  1  0  0  0  0
  7 17  1  0  0  0  0
  8  1  1  0  0  0  0
  9  6  2  0  0  0  0
 10 15  1  0  0  0  0
 10 14  2  0  0  0  0
 12 22  1  0  0  0  0
 14 19  1  0  0  0  0
 15  2  2  0  0  0  0
 16 10  1  0  0  0  0
 17  1  1  0  0  0  0
 18  6  1  0  0  0  0
 19  7  2  0  0  0  0
 19 20  1  0  0  0  0
 20  8  1  0  0  0  0
 21 12  2  0  0  0  0
 21 15  1  0  0  0  0
 22 23  1  0  0  0  0
 22  3  2  0  0  0  0
 23 18  2  0  0  0  0
 24 31  2  0  0  0  0
 24 28  1  0  0  0  0
 25 30  1  0  0  0  0
 27 24  1  0  0  0  0
 28 25  2  0  0  0  0
 29 26  1  0  0  0  0
 29 30  2  0  0  0  0
 30  5  1  0  0  0  0
 31 29  1  0  0  0  0
M  END
>  <MODEL>
6

>  <REMARK>
 VINA RESULT:      -8.3      4.519      6.425
  Name = 
  1 active torsions:
  status: ('A' for Active; 'I' for Inactive)
    1  A    between atoms: C_5  and  C_30
                            x       y       z     vdW  Elec       q    Type
                         _______ _______ _______ _____ _____    ______ ____

>  <TORSDO>
F 1

$$$$
=
 OpenBabel11112416593D

 31 35  0  0  0  0  0  0  0  0999 V2000
  194.7530  175.1520  140.4590 C   0  0  0  0  0  0  0  0  0  0  0  0
  191.2180  173.9670  140.9430 C   0  0  0  0  0  0  0  0  0  0  0  0
  191.0030  172.9760  139.9480 C   0  0  0  0  0  0  0  0  0  0  0  0
  190.1720  177.4550  144.7360 O   0  0  0  0  0  0  0  0  0  0  0  0
  189.0880  176.9240  144.3690 C   0  0  0  0  0  0  0  0  0  0  0  0
  191.8350  171.4990  138.2680 C   0  0  0  0  0  0  0  0  0  0  0  0
  192.4950  174.4950  141.2740 C   0  0  0  0  0  0  0  0  0  0  0  0
  194.7970  176.2950  141.4380 C   0  0  0  0  0  2  0  0  0  0  0  0
  192.0300  172.4480  139.2220 N   0  0  0  0  0  0  0  0  0  0  0  0
  190.2390  175.4390  142.6320 C   0  0  0  0  0  0  0  0  0  0  0  0
  195.5330  175.1340  139.5220 O   0  0  0  0  0  0  0  0  0  0  0  0
  188.6230  173.0380  140.4130 C   0  0  0  0  0  3  0  0  0  0  0  0
  193.2000  170.8670  137.3750 Cl  0  0  0  0  0  0  0  0  0  0  0  0
  191.4780  175.9130  142.9210 N   0  0  0  0  0  0  0  0  0  0  0  0
  190.0830  174.4600  141.6420 C   0  0  0  0  0  0  0  0  0  0  0  0
  189.0880  175.9280  143.3350 N   0  0  0  0  0  2  0  0  0  0  0  0
  193.7760  174.0220  140.6300 C   0  0  0  0  0  2  0  0  0  0  0  0
  190.5490  171.0290  137.9990 C   0  0  0  0  0  3  0  0  0  0  0  0
  192.5880  175.4800  142.2770 C   0  0  0  0  0  0  0  0  0  0  0  0
  193.9270  176.0290  142.6680 C   0  0  0  0  0  2  0  0  0  0  0  0
  188.8390  173.9860  141.3590 N   0  0  0  0  0  0  0  0  0  0  0  0
  189.6910  172.5170  139.6950 C   0  0  0  0  0  0  0  0  0  0  0  0
  189.4720  171.5440  138.7190 C   0  0  0  0  0  3  0  0  0  0  0  0
  185.3590  178.1380  146.1200 C   0  0  0  0  0  0  0  0  0  0  0  0
  187.0150  178.2910  144.3650 C   0  0  0  0  0  3  0  0  0  0  0  0
  188.0920  175.7940  146.8890 O   0  0  0  0  0  1  0  0  0  0  0  0
  184.0660  178.5700  146.7100 C   0  0  0  0  0  1  0  0  0  0  0  0
  185.8000  178.6970  144.9200 C   0  0  0  0  0  3  0  0  0  0  0  0
  187.3520  176.7590  146.2150 C   0  0  0  0  0  0  0  0  0  0  0  0
  187.8080  177.3200  145.0000 C   0  0  0  0  0  0  0  0  0  0  0  0
  186.1330  177.1720  146.7640 C   0  0  0  0  0  3  0  0  0  0  0  0
  1 17  1  0  0  0  0
  1  8  1  0  0  0  0
  2  7  1  0  0  0  0
  2 15  1  0  0  0  0
  3  2  2  0  0  0  0
  5  4  2  0  0  0  0
  5 30  1  0  0  0  0
  6  9  2  0  0  0  0
  7 19  2  0  0  0  0
  8 20  1  0  0  0  0
  9  3  1  0  0  0  0
 10 14  2  0  0  0  0
 10 16  1  0  0  0  0
 11  1  2  0  0  0  0
 12 21  1  0  0  0  0
 13  6  1  0  0  0  0
 15 10  1  0  0  0  0
 16  5  1  0  0  0  0
 17  7  1  0  0  0  0
 18  6  1  0  0  0  0
 18 23  2  0  0  0  0
 19 20  1  0  0  0  0
 19 14  1  0  0  0  0
 21 15  2  0  0  0  0
 22  3  1  0  0  0  0
 22 12  2  0  0  0  0
 23 22  1  0  0  0  0
 24 27  1  0  0  0  0
 24 31  1  0  0  0  0
 25 28  1  0  0  0  0
 25 30  2  0  0  0  0
 28 24  2  0  0  0  0
 29 31  2  0  0  0  0
 29 26  1  0  0  0  0
 30 29  1  0  0  0  0
M  END
>  <MODEL>
7

>  <REMARK>
 VINA RESULT:      -8.0      4.547      8.260
  Name = 
  1 active torsions:
  status: ('A' for Active; 'I' for Inactive)
    1  A    between atoms: C_5  and  C_30
                            x       y       z     vdW  Elec       q    Type
                         _______ _______ _______ _____ _____    ______ ____

>  <TORSDO>
F 1

$$$$
=
 OpenBabel11112416593D

 31 35  0  0  0  0  0  0  0  0999 V2000
  196.4540  175.2860  144.3320 C   0  0  0  0  0  0  0  0  0  0  0  0
  193.0370  173.7300  144.5250 C   0  0  0  0  0  0  0  0  0  0  0  0
  193.2480  172.3260  144.4720 C   0  0  0  0  0  0  0  0  0  0  0  0
  190.5210  178.3450  144.4280 O   0  0  0  0  0  0  0  0  0  0  0  0
  189.6770  177.4250  144.2530 C   0  0  0  0  0  0  0  0  0  0  0  0
  194.7010  170.4360  144.5670 C   0  0  0  0  0  0  0  0  0  0  0  0
  194.0740  174.6820  144.7300 C   0  0  0  0  0  0  0  0  0  0  0  0
  196.0890  176.7430  144.2250 C   0  0  0  0  0  2  0  0  0  0  0  0
  194.4880  171.7780  144.6160 N   0  0  0  0  0  0  0  0  0  0  0  0
  191.4460  175.5820  144.4010 C   0  0  0  0  0  0  0  0  0  0  0  0
  197.5370  174.9070  143.9180 O   0  0  0  0  0  0  0  0  0  0  0  0
  190.8740  171.9920  144.1070 C   0  0  0  0  0  3  0  0  0  0  0  0
  196.3200  169.8010  144.7590 Cl  0  0  0  0  0  0  0  0  0  0  0  0
  192.4640  176.4570  144.6030 N   0  0  0  0  0  0  0  0  0  0  0  0
  191.7090  174.2070  144.3570 C   0  0  0  0  0  0  0  0  0  0  0  0
  190.1000  176.0530  144.2340 N   0  0  0  0  0  2  0  0  0  0  0  0
  195.5140  174.2950  144.9600 C   0  0  0  0  0  2  0  0  0  0  0  0
  193.6310  169.5630  144.3620 C   0  0  0  0  0  3  0  0  0  0  0  0
  193.7470  176.0510  144.7600 C   0  0  0  0  0  0  0  0  0  0  0  0
  194.8170  177.0720  145.0080 C   0  0  0  0  0  2  0  0  0  0  0  0
  190.6830  173.3340  144.1580 N   0  0  0  0  0  0  0  0  0  0  0  0
  192.1480  171.4650  144.2630 C   0  0  0  0  0  0  0  0  0  0  0  0
  192.3480  170.0850  144.2090 C   0  0  0  0  0  3  0  0  0  0  0  0
  185.5060  178.3490  143.8140 C   0  0  0  0  0  0  0  0  0  0  0  0
  187.4130  177.8070  145.1980 C   0  0  0  0  0  3  0  0  0  0  0  0
  188.4490  177.9490  141.6390 O   0  0  0  0  0  1  0  0  0  0  0  0
  184.0610  178.6670  143.6810 C   0  0  0  0  0  1  0  0  0  0  0  0
  186.0540  178.1060  145.0740 C   0  0  0  0  0  3  0  0  0  0  0  0
  187.6780  177.9950  142.7950 C   0  0  0  0  0  0  0  0  0  0  0  0
  188.2430  177.7460  144.0670 C   0  0  0  0  0  0  0  0  0  0  0  0
  186.3160  178.2940  142.6790 C   0  0  0  0  0  3  0  0  0  0  0  0
  1 17  1  0  0  0  0
  2  7  1  0  0  0  0
  3  2  1  0  0  0  0
  3  9  1  0  0  0  0
  5  4  2  0  0  0  0
  6  9  2  0  0  0  0
  6 13  1  0  0  0  0
  7 19  2  0  0  0  0
  7 17  1  0  0  0  0
  8  1  1  0  0  0  0
  8 20  1  0  0  0  0
 10 14  2  0  0  0  0
 11  1  2  0  0  0  0
 12 21  2  0  0  0  0
 12 22  1  0  0  0  0
 14 19  1  0  0  0  0
 15 10  1  0  0  0  0
 15  2  2  0  0  0  0
 16  5  1  0  0  0  0
 16 10  1  0  0  0  0
 18  6  1  0  0  0  0
 19 20  1  0  0  0  0
 21 15  1  0  0  0  0
 22  3  2  0  0  0  0
 23 22  1  0  0  0  0
 23 18  2  0  0  0  0
 24 28  1  0  0  0  0
 26 29  1  0  0  0  0
 27 24  1  0  0  0  0
 28 25  2  0  0  0  0
 29 30  2  0  0  0  0
 30  5  1  0  0  0  0
 30 25  1  0  0  0  0
 31 29  1  0  0  0  0
 31 24  2  0  0  0  0
M  END
>  <MODEL>
8

>  <REMARK>
 VINA RESULT:      -8.0      3.988      9.095
  Name = 
  1 active torsions:
  status: ('A' for Active; 'I' for Inactive)
    1  A    between atoms: C_5  and  C_30
                            x       y       z     vdW  Elec       q    Type
                         _______ _______ _______ _____ _____    ______ ____

>  <TORSDO>
F 1

$$$$
=
 OpenBabel11112416593D

 31 35  0  0  0  0  0  0  0  0999 V2000
  192.7640  169.7420  142.7450 C   0  0  0  0  0  0  0  0  0  0  0  0
  192.9570  173.2950  143.9570 C   0  0  0  0  0  0  0  0  0  0  0  0
  194.2020  173.4060  144.6320 C   0  0  0  0  0  0  0  0  0  0  0  0
  188.1130  174.5140  142.3140 O   0  0  0  0  0  0  0  0  0  0  0  0
  188.5290  175.4420  143.0600 C   0  0  0  0  0  0  0  0  0  0  0  0
  196.3560  172.5390  145.1790 C   0  0  0  0  0  0  0  0  0  0  0  0
  192.5940  172.1930  143.1350 C   0  0  0  0  0  0  0  0  0  0  0  0
  191.3560  169.7080  142.2120 C   0  0  0  0  0  2  0  0  0  0  0  0
  195.1610  172.4420  144.5370 N   0  0  0  0  0  0  0  0  0  0  0  0
  190.7740  174.2900  143.4800 C   0  0  0  0  0  0  0  0  0  0  0  0
  193.3040  168.7010  143.0790 O   0  0  0  0  0  0  0  0  0  0  0  0
  193.5050  175.5420  145.5480 C   0  0  0  0  0  3  0  0  0  0  0  0
  197.5420  171.2620  145.0130 Cl  0  0  0  0  0  0  0  0  0  0  0  0
  190.4700  173.2210  142.6990 N   0  0  0  0  0  0  0  0  0  0  0  0
  192.0180  174.3490  144.1230 C   0  0  0  0  0  0  0  0  0  0  0  0
  189.8350  175.3610  143.6500 N   0  0  0  0  0  2  0  0  0  0  0  0
  193.5210  171.0360  142.8520 C   0  0  0  0  0  2  0  0  0  0  0  0
  196.6400  173.6530  145.9700 C   0  0  0  0  0  3  0  0  0  0  0  0
  191.3290  172.1890  142.5180 C   0  0  0  0  0  0  0  0  0  0  0  0
  190.9360  171.0550  141.6200 C   0  0  0  0  0  2  0  0  0  0  0  0
  192.3190  175.4250  144.9010 N   0  0  0  0  0  0  0  0  0  0  0  0
  194.4640  174.5440  145.4270 C   0  0  0  0  0  0  0  0  0  0  0  0
  195.6840  174.6600  146.0920 C   0  0  0  0  0  3  0  0  0  0  0  0
  186.0500  178.8330  143.9550 C   0  0  0  0  0  0  0  0  0  0  0  0
  187.1750  176.8030  144.6340 C   0  0  0  0  0  3  0  0  0  0  0  0
  187.8160  177.4460  141.0370 O   0  0  0  0  0  1  0  0  0  0  0  0
  185.1910  180.0000  144.2830 C   0  0  0  0  0  1  0  0  0  0  0  0
  186.3680  177.9000  144.9430 C   0  0  0  0  0  3  0  0  0  0  0  0
  187.3500  177.5720  142.3410 C   0  0  0  0  0  0  0  0  0  0  0  0
  187.6770  176.6220  143.3350 C   0  0  0  0  0  0  0  0  0  0  0  0
  186.5400  178.6680  142.6580 C   0  0  0  0  0  3  0  0  0  0  0  0
  1 17  1  0  0  0  0
  1 11  2  0  0  0  0
  2 15  2  0  0  0  0
  2  3  1  0  0  0  0
  3 22  1  0  0  0  0
  4  5  2  0  0  0  0
  5 30  1  0  0  0  0
  5 16  1  0  0  0  0
  6 18  2  0  0  0  0
  7  2  1  0  0  0  0
  8  1  1  0  0  0  0
  9  3  2  0  0  0  0
  9  6  1  0  0  0  0
 10 16  1  0  0  0  0
 10 15  1  0  0  0  0
 13  6  1  0  0  0  0
 14 10  2  0  0  0  0
 15 21  1  0  0  0  0
 17  7  1  0  0  0  0
 18 23  1  0  0  0  0
 19 14  1  0  0  0  0
 19  7  2  0  0  0  0
 20  8  1  0  0  0  0
 20 19  1  0  0  0  0
 21 12  2  0  0  0  0
 22 12  1  0  0  0  0
 22 23  2  0  0  0  0
 24 27  1  0  0  0  0
 24 28  1  0  0  0  0
 25 28  2  0  0  0  0
 26 29  1  0  0  0  0
 29 31  1  0  0  0  0
 29 30  2  0  0  0  0
 30 25  1  0  0  0  0
 31 24  2  0  0  0  0
M  END
>  <MODEL>
9

>  <REMARK>
 VINA RESULT:      -7.9      4.542      9.474
  Name = 
  1 active torsions:
  status: ('A' for Active; 'I' for Inactive)
    1  A    between atoms: C_5  and  C_30
                            x       y       z     vdW  Elec       q    Type
                         _______ _______ _______ _____ _____    ______ ____

>  <TORSDO>
F 1

$$$$
