=
 OpenBabel11112416403D

 32 37  0  0  1  0  0  0  0  0999 V2000
  188.6270  175.6750  144.5060 C   0  0  0  0  0  0  0  0  0  0  0  0
  185.7440  177.6980  147.8630 C   0  0  0  0  0  3  0  0  0  0  0  0
  185.0310  178.4560  146.8150 C   0  0  0  0  0  3  0  0  0  0  0  0
  188.1090  175.9430  142.0890 C   0  0  0  0  0  0  0  0  0  0  0  0
  186.9360  176.0740  141.1590 C   0  0  2  0  0  3  0  0  0  0  0  0
  190.4660  174.1440  145.1810 C   0  0  2  0  0  3  0  0  0  0  0  0
  189.0450  175.2280  146.9370 C   0  0  0  0  0  2  0  0  0  0  0  0
  185.5960  177.8360  140.3740 N   0  0  0  0  0  0  0  0  0  0  0  0
  186.8790  177.0450  147.5900 C   0  0  0  0  0  3  0  0  0  0  0  0
  188.3250  175.9550  145.8890 N   0  0  0  0  0  0  0  0  0  0  0  0
  187.5370  177.1460  146.2340 C   0  0  1  0  0  3  0  0  0  0  0  0
  186.7500  177.1350  143.8770 C   0  0  0  0  0  0  0  0  0  0  0  0
  186.2500  177.3770  139.2210 N   0  0  0  0  0  2  0  0  0  0  0  0
  190.4770  174.9010  146.5130 C   0  0  2  0  0  3  0  0  0  0  0  0
  187.2830  176.4480  139.7150 C   0  0  0  0  0  2  0  0  0  0  0  0
  185.3910  178.3590  145.5340 C   0  0  0  0  0  3  0  0  0  0  0  0
  186.5390  177.5070  145.1520 C   0  0  0  0  0  0  0  0  0  0  0  0
  185.9220  177.6760  142.7750 C   0  0  0  0  0  3  0  0  0  0  0  0
  189.7010  174.8340  144.1910 O   0  0  0  0  0  0  0  0  0  0  0  0
  189.2140  175.5100  141.6640 O   0  0  0  0  0  0  0  0  0  0  0  0
  184.6690  178.9550  140.3470 C   0  0  0  0  0  1  0  0  0  0  0  0
  187.8900  176.2380  143.5300 C   0  0  0  0  0  0  0  0  0  0  0  0
  186.0510  177.1880  141.5380 C   0  0  0  0  0  0  0  0  0  0  0  0
  191.6640  176.6760  147.7900 C   0  0  0  0  0  2  0  0  0  0  0  0
  191.3100  176.1710  146.4050 C   0  0  1  0  0  3  0  0  0  0  0  0
  192.6910  175.9170  146.9780 C   0  0  1  0  0  3  0  0  0  0  0  0
  193.6680  176.8920  146.3540 C   0  0  0  0  0  2  0  0  0  0  0  0
  194.8010  176.1500  145.7340 C   0  0  0  0  0  0  0  0  0  0  0  0
  195.3780  176.6170  144.5610 O   0  0  0  0  0  0  0  0  0  0  0  0
  195.2590  175.1210  146.2950 O   0  0  0  0  0  1  0  0  0  0  0  0
  189.5820  172.1170  144.0340 C   0  0  0  0  0  1  0  0  0  0  0  0
  189.9350  172.7310  145.3750 C   0  0  0  0  0  2  0  0  0  0  0  0
  1 10  1  0  0  0  0
  3  2  1  0  0  0  0
  4 22  1  0  0  0  0
  5 15  1  6  0  0  0
  5 23  1  0  0  0  0
  5  4  1  0  0  0  0
  6 32  1  1  0  0  0
  6 14  1  0  0  0  0
  8 23  1  0  0  0  0
  9  2  2  0  0  0  0
 10 11  1  0  0  0  0
 10  7  1  0  0  0  0
 11  9  1  1  0  0  0
 12 17  2  0  0  0  0
 13 15  1  0  0  0  0
 13  8  1  0  0  0  0
 14  7  1  6  0  0  0
 16  3  2  0  0  0  0
 17 16  1  0  0  0  0
 17 11  1  0  0  0  0
 18 12  1  0  0  0  0
 19  1  1  0  0  0  0
 19  6  1  0  0  0  0
 20  4  2  0  0  0  0
 21  8  1  0  0  0  0
 22 12  1  0  0  0  0
 22  1  2  0  0  0  0
 23 18  2  0  0  0  0
 25 14  1  0  0  0  0
 25 26  1  0  0  0  0
 25 24  1  1  0  0  0
 26 27  1  6  0  0  0
 26 24  1  0  0  0  0
 28 30  1  0  0  0  0
 28 27  1  0  0  0  0
 29 28  2  0  0  0  0
 31 32  1  0  0  0  0
M  END
>  <MODEL>
1

>  <REMARK>
 VINA RESULT:      -8.0      0.000      0.000
  Name = 
  4 active torsions:
  status: ('A' for Active; 'I' for Inactive)
    1  A    between atoms: C_7  and  C_19
    2  A    between atoms: C_10  and  C_17
    3  A    between atoms: C_20  and  C_29
    4  A    between atoms: C_29  and  C_30
                            x       y       z     vdW  Elec       q    Type
                         _______ _______ _______ _____ _____    ______ ____

>  <TORSDO>
F 4

$$$$
=
 OpenBabel11112416403D

 32 37  0  0  1  0  0  0  0  0999 V2000
  190.0260  175.5030  143.2670 C   0  0  0  0  0  0  0  0  0  0  0  0
  191.3630  176.4550  147.8470 C   0  0  0  0  0  3  0  0  0  0  0  0
  190.2910  177.4630  147.9660 C   0  0  0  0  0  3  0  0  0  0  0  0
  187.9000  176.4280  142.3680 C   0  0  0  0  0  0  0  0  0  0  0  0
  186.5120  176.7940  142.8120 C   0  0  2  0  0  3  0  0  0  0  0  0
  191.3070  173.8760  141.8910 C   0  0  2  0  0  3  0  0  0  0  0  0
  192.0640  174.3990  144.2210 C   0  0  0  0  0  2  0  0  0  0  0  0
  185.4900  178.6830  143.7650 N   0  0  0  0  0  0  0  0  0  0  0  0
  191.6810  175.9240  146.6610 C   0  0  0  0  0  3  0  0  0  0  0  0
  190.9810  175.3780  144.3400 N   0  0  0  0  0  0  0  0  0  0  0  0
  191.0400  176.4120  145.3830 C   0  0  1  0  0  3  0  0  0  0  0  0
  188.7420  177.0480  144.6860 C   0  0  0  0  0  0  0  0  0  0  0  0
  184.8830  178.5770  142.5050 N   0  0  0  0  0  2  0  0  0  0  0  0
  192.5120  174.2290  142.7700 C   0  0  2  0  0  3  0  0  0  0  0  0
  185.6770  177.5640  141.7840 C   0  0  0  0  0  2  0  0  0  0  0  0
  189.4890  177.7350  146.9350 C   0  0  0  0  0  3  0  0  0  0  0  0
  189.6870  177.0440  145.6410 C   0  0  0  0  0  0  0  0  0  0  0  0
  187.5130  177.8620  144.8280 C   0  0  0  0  0  3  0  0  0  0  0  0
  190.2350  174.8020  142.0720 O   0  0  0  0  0  0  0  0  0  0  0  0
  188.1300  176.1510  141.1600 O   0  0  0  0  0  0  0  0  0  0  0  0
  185.1620  179.7480  144.6970 C   0  0  0  0  0  1  0  0  0  0  0  0
  188.9530  176.3040  143.4100 C   0  0  0  0  0  0  0  0  0  0  0  0
  186.5230  177.7430  143.9380 C   0  0  0  0  0  0  0  0  0  0  0  0
  194.2370  175.9520  143.2670 C   0  0  0  0  0  2  0  0  0  0  0  0
  193.1960  175.4920  142.2650 C   0  0  1  0  0  3  0  0  0  0  0  0
  194.6640  175.2060  142.0210 C   0  0  1  0  0  3  0  0  0  0  0  0
  195.1920  176.1890  140.9960 C   0  0  0  0  0  2  0  0  0  0  0  0
  196.6420  175.9470  140.7590 C   0  0  0  0  0  0  0  0  0  0  0  0
  197.5310  175.9570  141.8260 O   0  0  0  0  0  1  0  0  0  0  0  0
  197.0570  175.6950  139.5980 O   0  0  0  0  0  0  0  0  0  0  0  0
  189.4020  172.2800  141.7200 C   0  0  0  0  0  1  0  0  0  0  0  0
  190.8380  172.4560  142.1750 C   0  0  0  0  0  2  0  0  0  0  0  0
  1 22  2  0  0  0  0
  1 10  1  0  0  0  0
  2  3  1  0  0  0  0
  4  5  1  0  0  0  0
  4 22  1  0  0  0  0
  5 15  1  6  0  0  0
  5 23  1  0  0  0  0
  6 19  1  0  0  0  0
  6 32  1  1  0  0  0
  6 14  1  0  0  0  0
  7 10  1  0  0  0  0
  8 23  1  0  0  0  0
  8 21  1  0  0  0  0
  9  2  2  0  0  0  0
 10 11  1  0  0  0  0
 11 17  1  0  0  0  0
 11  9  1  1  0  0  0
 12 18  1  0  0  0  0
 12 17  2  0  0  0  0
 13  8  1  0  0  0  0
 14  7  1  1  0  0  0
 15 13  1  0  0  0  0
 16  3  2  0  0  0  0
 17 16  1  0  0  0  0
 19  1  1  0  0  0  0
 20  4  2  0  0  0  0
 22 12  1  0  0  0  0
 23 18  2  0  0  0  0
 25 14  1  0  0  0  0
 25 24  1  1  0  0  0
 26 27  1  6  0  0  0
 26 25  1  0  0  0  0
 26 24  1  0  0  0  0
 28 27  1  0  0  0  0
 28 29  1  0  0  0  0
 30 28  2  0  0  0  0
 31 32  1  0  0  0  0
M  END
>  <MODEL>
2

>  <REMARK>
 VINA RESULT:      -7.6      2.617      3.915
  Name = 
  4 active torsions:
  status: ('A' for Active; 'I' for Inactive)
    1  A    between atoms: C_7  and  C_19
    2  A    between atoms: C_10  and  C_17
    3  A    between atoms: C_20  and  C_29
    4  A    between atoms: C_29  and  C_30
                            x       y       z     vdW  Elec       q    Type
                         _______ _______ _______ _____ _____    ______ ____

>  <TORSDO>
F 4

$$$$
=
 OpenBabel11112416403D

 32 37  0  0  1  0  0  0  0  0999 V2000
  190.4980  175.0550  143.7250 C   0  0  0  0  0  0  0  0  0  0  0  0
  194.4850  176.4510  146.1380 C   0  0  0  0  0  3  0  0  0  0  0  0
  195.0120  175.0730  146.0940 C   0  0  0  0  0  3  0  0  0  0  0  0
  190.3860  172.7930  142.7000 C   0  0  0  0  0  0  0  0  0  0  0  0
  191.2700  171.7660  142.0500 C   0  0  2  0  0  3  0  0  0  0  0  0
  188.6680  176.6750  143.2700 C   0  0  2  0  0  3  0  0  0  0  0  0
  190.6750  177.4060  144.5780 C   0  0  0  0  0  2  0  0  0  0  0  0
  192.6380  170.0070  142.7930 N   0  0  0  0  0  0  0  0  0  0  0  0
  193.2230  176.7180  145.7870 C   0  0  0  0  0  3  0  0  0  0  0  0
  191.2040  176.0410  144.5060 N   0  0  0  0  0  0  0  0  0  0  0  0
  192.2520  175.6120  145.4420 C   0  0  1  0  0  3  0  0  0  0  0  0
  192.3630  173.5040  144.1310 C   0  0  0  0  0  0  0  0  0  0  0  0
  191.6280  169.3590  142.0670 N   0  0  0  0  0  2  0  0  0  0  0  0
  189.1480  177.4220  144.5180 C   0  0  2  0  0  3  0  0  0  0  0  0
  190.6190  170.4010  141.8050 C   0  0  0  0  0  2  0  0  0  0  0  0
  194.3100  174.0880  145.5300 C   0  0  0  0  0  3  0  0  0  0  0  0
  192.9700  174.3650  144.9660 C   0  0  0  0  0  0  0  0  0  0  0  0
  192.9460  172.1730  143.8470 C   0  0  0  0  0  3  0  0  0  0  0  0
  189.2470  175.3730  143.1800 O   0  0  0  0  0  0  0  0  0  0  0  0
  189.1490  172.8140  142.4560 O   0  0  0  0  0  0  0  0  0  0  0  0
  193.7060  169.2790  143.4580 C   0  0  0  0  0  1  0  0  0  0  0  0
  191.0320  173.8330  143.5430 C   0  0  0  0  0  0  0  0  0  0  0  0
  192.4060  171.3900  142.9090 C   0  0  0  0  0  0  0  0  0  0  0  0
  189.0970  177.5110  147.0040 C   0  0  0  0  0  2  0  0  0  0  0  0
  188.5530  176.8050  145.7770 C   0  0  1  0  0  3  0  0  0  0  0  0
  187.7100  177.8410  146.4940 C   0  0  1  0  0  3  0  0  0  0  0  0
  186.6740  177.1300  147.3410 C   0  0  0  0  0  2  0  0  0  0  0  0
  185.3400  177.7630  147.1500 C   0  0  0  0  0  0  0  0  0  0  0  0
  185.1020  179.0410  147.6380 O   0  0  0  0  0  1  0  0  0  0  0  0
  184.4410  177.1550  146.5130 O   0  0  0  0  0  0  0  0  0  0  0  0
  187.6840  177.9160  141.3460 C   0  0  0  0  0  1  0  0  0  0  0  0
  188.9740  177.4810  142.0160 C   0  0  0  0  0  2  0  0  0  0  0  0
  1 10  1  0  0  0  0
  3  2  1  0  0  0  0
  4 22  1  0  0  0  0
  5 15  1  1  0  0  0
  5  4  1  0  0  0  0
  5 23  1  0  0  0  0
  6 32  1  6  0  0  0
  6 14  1  0  0  0  0
  8 23  1  0  0  0  0
  8 21  1  0  0  0  0
  9  2  2  0  0  0  0
 10  7  1  0  0  0  0
 10 11  1  0  0  0  0
 11  9  1  6  0  0  0
 12 17  2  0  0  0  0
 13  8  1  0  0  0  0
 14  7  1  1  0  0  0
 14 25  1  0  0  0  0
 15 13  1  0  0  0  0
 16  3  2  0  0  0  0
 17 11  1  0  0  0  0
 17 16  1  0  0  0  0
 18 12  1  0  0  0  0
 19  6  1  0  0  0  0
 19  1  1  0  0  0  0
 20  4  2  0  0  0  0
 22  1  2  0  0  0  0
 22 12  1  0  0  0  0
 23 18  2  0  0  0  0
 25 26  1  0  0  0  0
 25 24  1  1  0  0  0
 26 24  1  0  0  0  0
 26 27  1  1  0  0  0
 28 27  1  0  0  0  0
 28 29  1  0  0  0  0
 30 28  2  0  0  0  0
 31 32  1  0  0  0  0
M  END
>  <MODEL>
3

>  <REMARK>
 VINA RESULT:      -7.3      3.327      7.308
  Name = 
  4 active torsions:
  status: ('A' for Active; 'I' for Inactive)
    1  A    between atoms: C_7  and  C_19
    2  A    between atoms: C_10  and  C_17
    3  A    between atoms: C_20  and  C_29
    4  A    between atoms: C_29  and  C_30
                            x       y       z     vdW  Elec       q    Type
                         _______ _______ _______ _____ _____    ______ ____

>  <TORSDO>
F 4

$$$$
=
 OpenBabel11112416403D

 32 37  0  0  1  0  0  0  0  0999 V2000
  191.2680  175.4910  144.2340 C   0  0  0  0  0  0  0  0  0  0  0  0
  189.7240  172.3440  140.8600 C   0  0  0  0  0  3  0  0  0  0  0  0
  190.9780  172.5210  140.1010 C   0  0  0  0  0  3  0  0  0  0  0  0
  193.6260  176.2780  144.2230 C   0  0  0  0  0  0  0  0  0  0  0  0
  195.0100  175.8000  143.8800 C   0  0  2  0  0  3  0  0  0  0  0  0
  189.7980  176.1190  146.1380 C   0  0  2  0  0  3  0  0  0  0  0  0
  188.9480  174.5530  144.3780 C   0  0  0  0  0  2  0  0  0  0  0  0
  196.3290  175.7110  141.9380 N   0  0  0  0  0  0  0  0  0  0  0  0
  189.4160  173.1530  141.8790 C   0  0  0  0  0  3  0  0  0  0  0  0
  190.2060  174.7130  143.6450 N   0  0  0  0  0  0  0  0  0  0  0  0
  190.2760  174.3470  142.2230 C   0  0  1  0  0  3  0  0  0  0  0  0
  192.7170  174.7860  142.3760 C   0  0  0  0  0  0  0  0  0  0  0  0
  197.0200  176.6050  142.7690 N   0  0  0  0  0  2  0  0  0  0  0  0
  188.6220  175.7910  145.2140 C   0  0  2  0  0  3  0  0  0  0  0  0
  196.0960  176.8800  143.8850 C   0  0  0  0  0  2  0  0  0  0  0  0
  191.9210  173.3660  140.5220 C   0  0  0  0  0  3  0  0  0  0  0  0
  191.7040  174.1640  141.7480 C   0  0  0  0  0  0  0  0  0  0  0  0
  194.0760  174.8160  141.7910 C   0  0  0  0  0  3  0  0  0  0  0  0
  191.0280  176.2030  145.4160 O   0  0  0  0  0  0  0  0  0  0  0  0
  193.4630  177.2120  145.0530 O   0  0  0  0  0  0  0  0  0  0  0  0
  196.7920  175.3760  140.6030 C   0  0  0  0  0  1  0  0  0  0  0  0
  192.4730  175.5450  143.6370 C   0  0  0  0  0  0  0  0  0  0  0  0
  195.0990  175.3120  142.4940 C   0  0  0  0  0  0  0  0  0  0  0  0
  187.3290  176.5490  143.2270 C   0  0  0  0  0  2  0  0  0  0  0  0
  188.2940  176.9760  144.3160 C   0  0  1  0  0  3  0  0  0  0  0  0
  186.8190  177.3050  144.4350 C   0  0  1  0  0  3  0  0  0  0  0  0
  186.6100  178.7620  144.0720 C   0  0  0  0  0  2  0  0  0  0  0  0
  185.4790  179.3240  144.8600 C   0  0  0  0  0  0  0  0  0  0  0  0
  185.5540  179.3730  146.2450 O   0  0  0  0  0  1  0  0  0  0  0  0
  184.4710  179.7900  144.2670 O   0  0  0  0  0  0  0  0  0  0  0  0
  191.1920  175.2900  148.0300 C   0  0  0  0  0  1  0  0  0  0  0  0
  189.9050  175.0880  147.2530 C   0  0  0  0  0  2  0  0  0  0  0  0
  1 19  1  0  0  0  0
  2  9  2  0  0  0  0
  3 16  2  0  0  0  0
  3  2  1  0  0  0  0
  4 20  2  0  0  0  0
  5 15  1  6  0  0  0
  5  4  1  0  0  0  0
  6 32  1  1  0  0  0
  8 23  1  0  0  0  0
  8 13  1  0  0  0  0
 10  1  1  0  0  0  0
 10  7  1  0  0  0  0
 11  9  1  1  0  0  0
 11 10  1  0  0  0  0
 12 22  1  0  0  0  0
 13 15  1  0  0  0  0
 14  7  1  6  0  0  0
 14  6  1  0  0  0  0
 16 17  1  0  0  0  0
 17 11  1  0  0  0  0
 17 12  2  0  0  0  0
 18 12  1  0  0  0  0
 18 23  2  0  0  0  0
 19  6  1  0  0  0  0
 21  8  1  0  0  0  0
 22  4  1  0  0  0  0
 22  1  2  0  0  0  0
 23  5  1  0  0  0  0
 24 26  1  0  0  0  0
 25 24  1  6  0  0  0
 25 26  1  0  0  0  0
 25 14  1  0  0  0  0
 26 27  1  6  0  0  0
 27 28  1  0  0  0  0
 28 29  1  0  0  0  0
 30 28  2  0  0  0  0
 32 31  1  0  0  0  0
M  END
>  <MODEL>
4

>  <REMARK>
 VINA RESULT:      -7.3      3.788      7.687
  Name = 
  4 active torsions:
  status: ('A' for Active; 'I' for Inactive)
    1  A    between atoms: C_7  and  C_19
    2  A    between atoms: C_10  and  C_17
    3  A    between atoms: C_20  and  C_29
    4  A    between atoms: C_29  and  C_30
                            x       y       z     vdW  Elec       q    Type
                         _______ _______ _______ _____ _____    ______ ____

>  <TORSDO>
F 4

$$$$
=
 OpenBabel11112416403D

 32 37  0  0  1  0  0  0  0  0999 V2000
  189.3660  175.3440  142.1530 C   0  0  0  0  0  0  0  0  0  0  0  0
  193.1540  177.1650  144.6030 C   0  0  0  0  0  3  0  0  0  0  0  0
  193.8520  175.8670  144.5180 C   0  0  0  0  0  3  0  0  0  0  0  0
  189.5380  173.1170  141.0620 C   0  0  0  0  0  0  0  0  0  0  0  0
  190.5430  172.2300  140.3810 C   0  0  2  0  0  3  0  0  0  0  0  0
  187.3430  176.7310  141.7460 C   0  0  2  0  0  3  0  0  0  0  0  0
  189.2480  177.6730  143.0740 C   0  0  0  0  0  2  0  0  0  0  0  0
  192.1270  170.6390  141.0720 N   0  0  0  0  0  0  0  0  0  0  0  0
  191.8670  177.2790  144.2610 C   0  0  0  0  0  3  0  0  0  0  0  0
  189.9450  176.3890  142.9620 N   0  0  0  0  0  0  0  0  0  0  0  0
  191.0430  176.0700  143.8840 C   0  0  1  0  0  3  0  0  0  0  0  0
  191.4150  174.0320  142.5120 C   0  0  0  0  0  0  0  0  0  0  0  0
  191.2040  169.8880  140.3280 N   0  0  0  0  0  2  0  0  0  0  0  0
  187.7300  177.4960  143.0160 C   0  0  2  0  0  3  0  0  0  0  0  0
  190.0700  170.8010  140.0970 C   0  0  0  0  0  2  0  0  0  0  0  0
  193.2780  174.8180  143.9260 C   0  0  0  0  0  3  0  0  0  0  0  0
  191.9120  174.9380  143.3710 C   0  0  0  0  0  0  0  0  0  0  0  0
  192.1610  172.7950  142.1890 C   0  0  0  0  0  3  0  0  0  0  0  0
  188.0830  175.5160  141.6180 O   0  0  0  0  0  0  0  0  0  0  0  0
  188.3080  172.9870  140.8200 O   0  0  0  0  0  0  0  0  0  0  0  0
  193.2810  170.0330  141.7150 C   0  0  0  0  0  1  0  0  0  0  0  0
  190.0510  174.2050  141.9340 C   0  0  0  0  0  0  0  0  0  0  0  0
  191.7210  171.9770  141.2280 C   0  0  0  0  0  0  0  0  0  0  0  0
  187.9820  177.2530  145.4790 C   0  0  0  0  0  2  0  0  0  0  0  0
  187.2240  176.7730  144.2570 C   0  0  1  0  0  3  0  0  0  0  0  0
  186.5890  177.7760  145.1990 C   0  0  1  0  0  3  0  0  0  0  0  0
  185.5890  177.0550  146.0810 C   0  0  0  0  0  2  0  0  0  0  0  0
  184.7380  178.0460  146.7980 C   0  0  0  0  0  0  0  0  0  0  0  0
  183.6870  178.6650  146.1370 O   0  0  0  0  0  0  0  0  0  0  0  0
  184.9500  178.2920  148.0140 O   0  0  0  0  0  1  0  0  0  0  0  0
  186.3110  177.5410  139.6280 C   0  0  0  0  0  1  0  0  0  0  0  0
  187.5390  177.6060  140.5160 C   0  0  0  0  0  2  0  0  0  0  0  0
  1 10  1  0  0  0  0
  3  2  1  0  0  0  0
  4 22  1  0  0  0  0
  5 15  1  1  0  0  0
  5  4  1  0  0  0  0
  5 23  1  0  0  0  0
  6 32  1  6  0  0  0
  6 14  1  0  0  0  0
  8 23  1  0  0  0  0
  8 21  1  0  0  0  0
  9  2  2  0  0  0  0
 10  7  1  0  0  0  0
 10 11  1  0  0  0  0
 11  9  1  6  0  0  0
 12 17  2  0  0  0  0
 13  8  1  0  0  0  0
 14  7  1  1  0  0  0
 14 25  1  0  0  0  0
 15 13  1  0  0  0  0
 16  3  2  0  0  0  0
 17 11  1  0  0  0  0
 17 16  1  0  0  0  0
 18 12  1  0  0  0  0
 19  6  1  0  0  0  0
 19  1  1  0  0  0  0
 20  4  2  0  0  0  0
 22  1  2  0  0  0  0
 22 12  1  0  0  0  0
 23 18  2  0  0  0  0
 25 26  1  0  0  0  0
 25 24  1  1  0  0  0
 26 24  1  0  0  0  0
 26 27  1  1  0  0  0
 27 28  1  0  0  0  0
 28 30  1  0  0  0  0
 29 28  2  0  0  0  0
 31 32  1  0  0  0  0
M  END
>  <MODEL>
5

>  <REMARK>
 VINA RESULT:      -6.8      3.609      7.176
  Name = 
  4 active torsions:
  status: ('A' for Active; 'I' for Inactive)
    1  A    between atoms: C_7  and  C_19
    2  A    between atoms: C_10  and  C_17
    3  A    between atoms: C_20  and  C_29
    4  A    between atoms: C_29  and  C_30
                            x       y       z     vdW  Elec       q    Type
                         _______ _______ _______ _____ _____    ______ ____

>  <TORSDO>
F 4

$$$$
=
 OpenBabel11112416403D

 32 37  0  0  1  0  0  0  0  0999 V2000
  191.9260  175.1150  144.8140 C   0  0  0  0  0  0  0  0  0  0  0  0
  190.8690  173.7030  140.2800 C   0  0  0  0  0  3  0  0  0  0  0  0
  189.4500  174.0570  140.4850 C   0  0  0  0  0  3  0  0  0  0  0  0
  190.2400  176.3460  146.1650 C   0  0  0  0  0  0  0  0  0  0  0  0
  189.1160  177.3310  146.0040 C   0  0  2  0  0  3  0  0  0  0  0  0
  194.2320  174.8600  145.7080 C   0  0  2  0  0  3  0  0  0  0  0  0
  193.7020  174.0570  143.3950 C   0  0  0  0  0  2  0  0  0  0  0  0
  186.8210  177.2030  145.5220 N   0  0  0  0  0  0  0  0  0  0  0  0
  191.7250  173.6670  141.3060 C   0  0  0  0  0  3  0  0  0  0  0  0
  192.3010  174.4360  143.5980 N   0  0  0  0  0  0  0  0  0  0  0  0
  191.2580  173.8750  142.7280 C   0  0  1  0  0  3  0  0  0  0  0  0
  189.6780  175.4180  143.8650 C   0  0  0  0  0  0  0  0  0  0  0  0
  186.8580  177.7080  146.8300 N   0  0  0  0  0  2  0  0  0  0  0  0
  194.3860  173.7030  144.7160 C   0  0  2  0  0  3  0  0  0  0  0  0
  188.2620  177.5590  147.2550 C   0  0  0  0  0  2  0  0  0  0  0  0
  189.0240  174.5300  141.6580 C   0  0  0  0  0  3  0  0  0  0  0  0
  189.9730  174.6760  142.7840 C   0  0  0  0  0  0  0  0  0  0  0  0
  188.3330  176.0100  144.0430 C   0  0  0  0  0  3  0  0  0  0  0  0
  192.8680  175.2630  145.8400 O   0  0  0  0  0  0  0  0  0  0  0  0
  190.8460  176.2450  147.2650 O   0  0  0  0  0  0  0  0  0  0  0  0
  185.5720  176.9440  144.8250 C   0  0  0  0  0  1  0  0  0  0  0  0
  190.6730  175.5840  144.9640 C   0  0  0  0  0  0  0  0  0  0  0  0
  188.1000  176.8600  145.0480 C   0  0  0  0  0  0  0  0  0  0  0  0
  193.6190  171.3950  144.1900 C   0  0  0  0  0  2  0  0  0  0  0  0
  193.8100  172.4180  145.2940 C   0  0  1  0  0  3  0  0  0  0  0  0
  194.8120  171.2940  145.1160 C   0  0  1  0  0  3  0  0  0  0  0  0
  194.5500  170.2330  146.1670 C   0  0  0  0  0  2  0  0  0  0  0  0
  195.8400  169.6570  146.6390 C   0  0  0  0  0  0  0  0  0  0  0  0
  197.0410  170.1400  146.1370 O   0  0  0  0  0  0  0  0  0  0  0  0
  195.8420  168.7580  147.5200 O   0  0  0  0  0  1  0  0  0  0  0  0
  194.5700  177.3210  145.9100 C   0  0  0  0  0  1  0  0  0  0  0  0
  195.0970  176.0410  145.2890 C   0  0  0  0  0  2  0  0  0  0  0  0
  1 22  2  0  0  0  0
  1 19  1  0  0  0  0
  2  3  1  0  0  0  0
  2  9  2  0  0  0  0
  3 16  2  0  0  0  0
  4 20  2  0  0  0  0
  5  4  1  0  0  0  0
  5 15  1  1  0  0  0
  6 32  1  6  0  0  0
  6 19  1  0  0  0  0
  7 10  1  0  0  0  0
  8 13  1  0  0  0  0
 10  1  1  0  0  0  0
 11  9  1  6  0  0  0
 11 17  1  0  0  0  0
 11 10  1  0  0  0  0
 12 18  1  0  0  0  0
 12 22  1  0  0  0  0
 13 15  1  0  0  0  0
 14  7  1  6  0  0  0
 14 25  1  0  0  0  0
 14  6  1  0  0  0  0
 16 17  1  0  0  0  0
 17 12  2  0  0  0  0
 18 23  2  0  0  0  0
 21  8  1  0  0  0  0
 22  4  1  0  0  0  0
 23  8  1  0  0  0  0
 23  5  1  0  0  0  0
 24 26  1  0  0  0  0
 25 24  1  6  0  0  0
 26 25  1  0  0  0  0
 26 27  1  1  0  0  0
 27 28  1  0  0  0  0
 28 30  1  0  0  0  0
 29 28  2  0  0  0  0
 32 31  1  0  0  0  0
M  END
>  <MODEL>
6

>  <REMARK>
 VINA RESULT:      -6.8      3.264      5.991
  Name = 
  4 active torsions:
  status: ('A' for Active; 'I' for Inactive)
    1  A    between atoms: C_7  and  C_19
    2  A    between atoms: C_10  and  C_17
    3  A    between atoms: C_20  and  C_29
    4  A    between atoms: C_29  and  C_30
                            x       y       z     vdW  Elec       q    Type
                         _______ _______ _______ _____ _____    ______ ____

>  <TORSDO>
F 4

$$$$
=
 OpenBabel11112416403D

 32 37  0  0  1  0  0  0  0  0999 V2000
  189.1120  175.3020  143.3530 C   0  0  0  0  0  0  0  0  0  0  0  0
  185.9930  178.8300  144.5760 C   0  0  0  0  0  3  0  0  0  0  0  0
  185.6510  179.0400  143.1550 C   0  0  0  0  0  3  0  0  0  0  0  0
  189.1550  174.4230  141.0280 C   0  0  0  0  0  0  0  0  0  0  0  0
  188.2370  174.1630  139.8660 C   0  0  2  0  0  3  0  0  0  0  0  0
  190.4830  174.1720  145.0930 C   0  0  2  0  0  3  0  0  0  0  0  0
  188.9400  176.0350  145.7440 C   0  0  0  0  0  2  0  0  0  0  0  0
  187.4100  175.4170  138.0600 N   0  0  0  0  0  0  0  0  0  0  0  0
  187.0300  178.0630  144.9290 C   0  0  0  0  0  3  0  0  0  0  0  0
  188.5860  176.2190  144.3350 N   0  0  0  0  0  0  0  0  0  0  0  0
  187.9610  177.4740  143.8950 C   0  0  1  0  0  3  0  0  0  0  0  0
  187.6830  176.3920  141.6750 C   0  0  0  0  0  0  0  0  0  0  0  0
  188.1970  174.4310  137.4470 N   0  0  0  0  0  2  0  0  0  0  0  0
  190.3500  175.4670  145.9010 C   0  0  2  0  0  3  0  0  0  0  0  0
  188.9320  173.7900  138.5530 C   0  0  0  0  0  2  0  0  0  0  0  0
  186.2440  178.3290  142.1950 C   0  0  0  0  0  3  0  0  0  0  0  0
  187.2820  177.3340  142.5460 C   0  0  0  0  0  0  0  0  0  0  0  0
  187.2040  176.3930  140.2740 C   0  0  0  0  0  3  0  0  0  0  0  0
  190.0670  174.3520  143.7380 O   0  0  0  0  0  0  0  0  0  0  0  0
  190.2320  173.7790  141.1450 O   0  0  0  0  0  0  0  0  0  0  0  0
  186.7140  176.4390  137.2970 C   0  0  0  0  0  1  0  0  0  0  0  0
  188.6990  175.3750  142.0740 C   0  0  0  0  0  0  0  0  0  0  0  0
  187.4980  175.3720  139.4630 C   0  0  0  0  0  0  0  0  0  0  0  0
  192.3360  176.7870  146.6100 C   0  0  0  0  0  2  0  0  0  0  0  0
  191.3930  176.4860  145.4620 C   0  0  1  0  0  3  0  0  0  0  0  0
  192.7680  175.8470  145.5040 C   0  0  1  0  0  3  0  0  0  0  0  0
  193.6790  176.5810  144.5410 C   0  0  0  0  0  2  0  0  0  0  0  0
  195.0920  176.1660  144.7620 C   0  0  0  0  0  0  0  0  0  0  0  0
  195.3720  175.0200  145.4950 O   0  0  0  0  0  1  0  0  0  0  0  0
  196.0310  176.8320  144.2530 O   0  0  0  0  0  0  0  0  0  0  0  0
  189.4900  171.9100  144.7680 C   0  0  0  0  0  1  0  0  0  0  0  0
  189.6890  173.0510  145.7480 C   0  0  0  0  0  2  0  0  0  0  0  0
  1 19  1  0  0  0  0
  1 10  1  0  0  0  0
  2  9  2  0  0  0  0
  3  2  1  0  0  0  0
  4 20  2  0  0  0  0
  4 22  1  0  0  0  0
  5 15  1  6  0  0  0
  5  4  1  0  0  0  0
  6 32  1  1  0  0  0
  6 14  1  0  0  0  0
  8 23  1  0  0  0  0
 10  7  1  0  0  0  0
 11 10  1  0  0  0  0
 11  9  1  1  0  0  0
 12 22  1  0  0  0  0
 12 17  2  0  0  0  0
 13  8  1  0  0  0  0
 13 15  1  0  0  0  0
 14  7  1  6  0  0  0
 16 17  1  0  0  0  0
 16  3  2  0  0  0  0
 17 11  1  0  0  0  0
 18 12  1  0  0  0  0
 19  6  1  0  0  0  0
 21  8  1  0  0  0  0
 22  1  2  0  0  0  0
 23  5  1  0  0  0  0
 23 18  2  0  0  0  0
 25 26  1  0  0  0  0
 25 14  1  0  0  0  0
 25 24  1  1  0  0  0
 26 27  1  6  0  0  0
 26 24  1  0  0  0  0
 27 28  1  0  0  0  0
 28 29  1  0  0  0  0
 30 28  2  0  0  0  0
 31 32  1  0  0  0  0
M  END
>  <MODEL>
7

>  <REMARK>
 VINA RESULT:      -6.8      1.633      2.465
  Name = 
  4 active torsions:
  status: ('A' for Active; 'I' for Inactive)
    1  A    between atoms: C_7  and  C_19
    2  A    between atoms: C_10  and  C_17
    3  A    between atoms: C_20  and  C_29
    4  A    between atoms: C_29  and  C_30
                            x       y       z     vdW  Elec       q    Type
                         _______ _______ _______ _____ _____    ______ ____

>  <TORSDO>
F 4

$$$$
=
 OpenBabel11112416403D

 32 37  0  0  1  0  0  0  0  0999 V2000
  191.9460  174.8430  143.7490 C   0  0  0  0  0  0  0  0  0  0  0  0
  190.7940  171.0100  140.9820 C   0  0  0  0  0  3  0  0  0  0  0  0
  192.1040  171.0860  140.3060 C   0  0  0  0  0  3  0  0  0  0  0  0
  194.2730  175.7170  143.7670 C   0  0  0  0  0  0  0  0  0  0  0  0
  195.6940  175.2420  143.6430 C   0  0  2  0  0  3  0  0  0  0  0  0
  190.2960  175.7770  145.3580 C   0  0  2  0  0  3  0  0  0  0  0  0
  189.6490  173.8500  143.8950 C   0  0  0  0  0  2  0  0  0  0  0  0
  197.1820  174.8210  141.8740 N   0  0  0  0  0  0  0  0  0  0  0  0
  190.3740  171.9950  141.7840 C   0  0  0  0  0  3  0  0  0  0  0  0
  190.9620  173.9140  143.2490 N   0  0  0  0  0  0  0  0  0  0  0  0
  191.1670  173.2710  141.9440 C   0  0  1  0  0  3  0  0  0  0  0  0
  193.5720  173.8410  142.2000 C   0  0  0  0  0  0  0  0  0  0  0  0
  197.7720  175.8950  142.5560 N   0  0  0  0  0  2  0  0  0  0  0  0
  189.2160  175.2150  144.4280 C   0  0  2  0  0  3  0  0  0  0  0  0
  196.7460  176.3480  143.5130 C   0  0  0  0  0  2  0  0  0  0  0  0
  192.9830  172.0410  140.6190 C   0  0  0  0  0  3  0  0  0  0  0  0
  192.6360  173.0600  141.6330 C   0  0  0  0  0  0  0  0  0  0  0  0
  194.9770  173.8140  141.7330 C   0  0  0  0  0  3  0  0  0  0  0  0
  191.5820  175.7680  144.7360 O   0  0  0  0  0  0  0  0  0  0  0  0
  194.0120  176.7910  144.3700 O   0  0  0  0  0  0  0  0  0  0  0  0
  197.7710  174.2430  140.6780 C   0  0  0  0  0  1  0  0  0  0  0  0
  193.1970  174.8290  143.2530 C   0  0  0  0  0  0  0  0  0  0  0  0
  195.9190  174.4870  142.3980 C   0  0  0  0  0  0  0  0  0  0  0  0
  187.7140  175.7210  142.5110 C   0  0  0  0  0  2  0  0  0  0  0  0
  188.9370  176.1780  143.2820 C   0  0  1  0  0  3  0  0  0  0  0  0
  187.5990  176.8540  143.5080 C   0  0  1  0  0  3  0  0  0  0  0  0
  187.5890  178.1790  142.7730 C   0  0  0  0  0  2  0  0  0  0  0  0
  186.1890  178.6640  142.6190 C   0  0  0  0  0  0  0  0  0  0  0  0
  185.4450  178.2940  141.5060 O   0  0  0  0  0  0  0  0  0  0  0  0
  185.6680  179.3770  143.5150 O   0  0  0  0  0  1  0  0  0  0  0  0
  188.9410  174.9170  147.2630 C   0  0  0  0  0  1  0  0  0  0  0  0
  190.3330  175.0000  146.6650 C   0  0  0  0  0  2  0  0  0  0  0  0
  1 19  1  0  0  0  0
  2  9  2  0  0  0  0
  3 16  2  0  0  0  0
  3  2  1  0  0  0  0
  4 20  2  0  0  0  0
  5 15  1  6  0  0  0
  5  4  1  0  0  0  0
  6 32  1  1  0  0  0
  8 23  1  0  0  0  0
  8 13  1  0  0  0  0
 10  1  1  0  0  0  0
 10  7  1  0  0  0  0
 11  9  1  1  0  0  0
 11 10  1  0  0  0  0
 12 22  1  0  0  0  0
 13 15  1  0  0  0  0
 14  7  1  6  0  0  0
 14  6  1  0  0  0  0
 16 17  1  0  0  0  0
 17 11  1  0  0  0  0
 17 12  2  0  0  0  0
 18 12  1  0  0  0  0
 18 23  2  0  0  0  0
 19  6  1  0  0  0  0
 21  8  1  0  0  0  0
 22  1  2  0  0  0  0
 22  4  1  0  0  0  0
 23  5  1  0  0  0  0
 24 26  1  0  0  0  0
 25 24  1  6  0  0  0
 25 26  1  0  0  0  0
 25 14  1  0  0  0  0
 26 27  1  6  0  0  0
 28 27  1  0  0  0  0
 28 30  1  0  0  0  0
 29 28  2  0  0  0  0
 32 31  1  0  0  0  0
M  END
>  <MODEL>
8

>  <REMARK>
 VINA RESULT:      -6.7      3.950      8.222
  Name = 
  4 active torsions:
  status: ('A' for Active; 'I' for Inactive)
    1  A    between atoms: C_7  and  C_19
    2  A    between atoms: C_10  and  C_17
    3  A    between atoms: C_20  and  C_29
    4  A    between atoms: C_29  and  C_30
                            x       y       z     vdW  Elec       q    Type
                         _______ _______ _______ _____ _____    ______ ____

>  <TORSDO>
F 4

$$$$
=
 OpenBabel11112416403D

 32 37  0  0  1  0  0  0  0  0999 V2000
  190.4680  174.2790  142.8550 C   0  0  0  0  0  0  0  0  0  0  0  0
  186.8650  176.5650  145.1920 C   0  0  0  0  0  3  0  0  0  0  0  0
  186.2240  176.9010  143.9050 C   0  0  0  0  0  3  0  0  0  0  0  0
  190.2910  173.8360  140.4150 C   0  0  0  0  0  0  0  0  0  0  0  0
  189.2650  173.5260  139.3610 C   0  0  2  0  0  3  0  0  0  0  0  0
  192.3720  173.3030  144.1210 C   0  0  2  0  0  3  0  0  0  0  0  0
  190.5700  174.5380  145.3460 C   0  0  0  0  0  2  0  0  0  0  0  0
  187.8360  174.7800  137.9820 N   0  0  0  0  0  0  0  0  0  0  0  0
  188.1050  176.0670  145.2350 C   0  0  0  0  0  3  0  0  0  0  0  0
  189.9260  174.8430  144.0660 N   0  0  0  0  0  0  0  0  0  0  0  0
  188.9420  175.9320  143.9840 C   0  0  1  0  0  3  0  0  0  0  0  0
  188.5300  175.1920  141.6480 C   0  0  0  0  0  0  0  0  0  0  0  0
  188.7120  174.1620  137.0770 N   0  0  0  0  0  2  0  0  0  0  0  0
  192.0800  174.3620  145.1890 C   0  0  2  0  0  3  0  0  0  0  0  0
  189.7740  173.5770  137.9170 C   0  0  0  0  0  2  0  0  0  0  0  0
  186.7840  176.5460  142.7470 C   0  0  0  0  0  3  0  0  0  0  0  0
  188.0800  175.8320  142.7410 C   0  0  0  0  0  0  0  0  0  0  0  0
  187.8130  175.2880  140.3560 C   0  0  0  0  0  3  0  0  0  0  0  0
  191.6810  173.5800  142.9020 O   0  0  0  0  0  0  0  0  0  0  0  0
  191.4950  173.5030  140.2480 O   0  0  0  0  0  0  0  0  0  0  0  0
  186.7820  175.6810  137.5480 C   0  0  0  0  0  1  0  0  0  0  0  0
  189.8190  174.4430  141.6870 C   0  0  0  0  0  0  0  0  0  0  0  0
  188.1920  174.5340  139.3210 C   0  0  0  0  0  0  0  0  0  0  0  0
  192.7550  176.6010  146.0390 C   0  0  0  0  0  2  0  0  0  0  0  0
  192.7420  175.6860  144.8300 C   0  0  1  0  0  3  0  0  0  0  0  0
  194.0100  175.8510  145.6460 C   0  0  1  0  0  3  0  0  0  0  0  0
  194.9490  176.7840  144.9080 C   0  0  0  0  0  2  0  0  0  0  0  0
  196.0470  176.0020  144.2750 C   0  0  0  0  0  0  0  0  0  0  0  0
  196.7420  176.5300  143.1950 O   0  0  0  0  0  0  0  0  0  0  0  0
  196.3700  174.8790  144.7420 O   0  0  0  0  0  1  0  0  0  0  0  0
  192.2340  170.8830  143.5450 C   0  0  0  0  0  1  0  0  0  0  0  0
  192.0130  171.9160  144.6330 C   0  0  0  0  0  2  0  0  0  0  0  0
  1 19  1  0  0  0  0
  1 10  1  0  0  0  0
  2  9  2  0  0  0  0
  3  2  1  0  0  0  0
  4 22  1  0  0  0  0
  5 15  1  6  0  0  0
  5  4  1  0  0  0  0
  6 32  1  1  0  0  0
  6 14  1  0  0  0  0
  8 23  1  0  0  0  0
 10  7  1  0  0  0  0
 11 10  1  0  0  0  0
 11  9  1  1  0  0  0
 12 22  1  0  0  0  0
 12 17  2  0  0  0  0
 13 15  1  0  0  0  0
 13  8  1  0  0  0  0
 14  7  1  6  0  0  0
 16  3  2  0  0  0  0
 17 16  1  0  0  0  0
 17 11  1  0  0  0  0
 18 12  1  0  0  0  0
 19  6  1  0  0  0  0
 20  4  2  0  0  0  0
 21  8  1  0  0  0  0
 22  1  2  0  0  0  0
 23  5  1  0  0  0  0
 23 18  2  0  0  0  0
 25 14  1  0  0  0  0
 25 26  1  0  0  0  0
 25 24  1  1  0  0  0
 26 27  1  6  0  0  0
 26 24  1  0  0  0  0
 28 30  1  0  0  0  0
 28 27  1  0  0  0  0
 29 28  2  0  0  0  0
 31 32  1  0  0  0  0
M  END
>  <MODEL>
9

>  <REMARK>
 VINA RESULT:      -6.5      2.302      3.143
  Name = 
  4 active torsions:
  status: ('A' for Active; 'I' for Inactive)
    1  A    between atoms: C_7  and  C_19
    2  A    between atoms: C_10  and  C_17
    3  A    between atoms: C_20  and  C_29
    4  A    between atoms: C_29  and  C_30
                            x       y       z     vdW  Elec       q    Type
                         _______ _______ _______ _____ _____    ______ ____

>  <TORSDO>
F 4

$$$$
