=
 OpenBabel11112417483D

 34 40  0  0  1  0  0  0  0  0999 V2000
  192.2130  176.1220  145.3650 C   0  0  0  0  0  0  0  0  0  0  0  0
  190.1150  177.1970  146.2520 C   0  0  0  0  0  3  0  0  0  0  0  0
  195.8300  174.8980  140.1340 C   0  0  2  0  0  3  0  0  0  0  0  0
  194.2030  175.5570  144.1000 C   0  0  0  0  0  0  0  0  0  0  0  0
  193.8800  174.8520  141.7610 C   0  0  0  0  0  0  0  0  0  0  0  0
  194.3050  172.8570  140.2970 C   0  0  0  0  0  1  0  0  0  0  0  0
  196.0170  175.0410  138.6360 C   0  0  0  0  0  1  0  0  0  0  0  0
  196.7140  173.8730  142.0540 C   0  0  0  0  0  2  0  0  0  0  0  0
  189.8850  175.6210  144.5200 C   0  0  2  0  0  3  0  0  0  0  0  0
  187.5460  176.2340  142.3640 C   0  0  0  0  0  2  0  0  0  0  0  0
  192.5490  174.9830  141.8550 C   0  0  0  0  0  3  0  0  0  0  0  0
  196.2590  175.0960  142.8470 C   0  0  0  0  0  2  0  0  0  0  0  0
  190.4670  175.7100  143.0900 C   0  0  1  0  0  3  0  0  0  0  0  0
  188.8520  177.2980  145.8820 C   0  0  0  0  0  3  0  0  0  0  0  0
  194.7580  175.1460  142.9470 C   0  0  0  0  0  0  0  0  0  0  0  0
  196.8810  174.1120  140.6680 O   0  0  0  0  0  0  0  0  0  0  0  0
  188.0630  177.1450  143.4910 C   0  0  2  0  0  3  0  0  0  0  0  0
  192.7420  175.6850  144.2130 C   0  0  2  0  0  3  0  0  0  0  0  0
  194.4190  174.3710  140.4390 C   0  0  2  0  0  3  0  0  0  0  0  0
  191.9070  175.3830  143.0780 N   0  0  0  0  0  0  0  0  0  0  0  0
  194.3540  176.3860  146.4240 C   0  0  0  0  0  3  0  0  0  0  0  0
  188.1660  174.8360  142.3250 C   0  0  0  0  0  2  0  0  0  0  0  0
  194.9990  175.9100  145.2370 N   0  0  0  0  0  0  0  0  0  0  0  0
  189.6780  174.8430  142.0930 C   0  0  0  0  0  2  0  0  0  0  0  0
  188.5450  176.3710  144.7380 C   0  0  1  0  0  3  0  0  0  0  0  0
  193.0560  176.4850  146.4750 N   0  0  0  0  0  0  0  0  0  0  0  0
  190.7940  176.2360  145.4680 N   0  0  0  0  0  0  0  0  0  0  0  0
  187.0190  178.0940  143.8430 N   0  0  0  0  0  2  0  0  0  0  0  0
  185.7890  177.3340  143.9970 C   0  0  0  0  0  2  0  0  0  0  0  0
  185.6290  177.5640  147.6020 C   0  0  0  0  0  2  0  0  0  0  0  0
  185.6130  179.0970  145.7510 C   0  0  0  0  0  2  0  0  0  0  0  0
  185.0510  177.7870  145.2420 C   0  0  0  0  0  3  0  0  0  0  0  0
  185.4760  179.0280  147.2520 C   0  0  0  0  0  2  0  0  0  0  0  0
  185.2480  176.7790  146.3590 C   0  0  0  0  0  2  0  0  0  0  0  0
  1 27  1  0  0  0  0
  1 26  2  0  0  0  0
  3  7  1  6  0  0  0
  3 19  1  0  0  0  0
  3 16  1  0  0  0  0
  4 23  1  0  0  0  0
  5 11  2  0  0  0  0
  5 15  1  0  0  0  0
  8 12  1  0  0  0  0
  9 25  1  0  0  0  0
  9 27  1  1  0  0  0
 10 17  1  0  0  0  0
 11 20  1  0  0  0  0
 12 15  1  0  0  0  0
 13 24  1  6  0  0  0
 13  9  1  0  0  0  0
 14  2  2  0  0  0  0
 15  4  2  0  0  0  0
 16  8  1  0  0  0  0
 17 28  1  1  0  0  0
 17 25  1  0  0  0  0
 18  4  1  6  0  0  0
 18  1  1  0  0  0  0
 19  6  1  1  0  0  0
 19  5  1  0  0  0  0
 20 13  1  0  0  0  0
 20 18  1  0  0  0  0
 21 26  1  0  0  0  0
 22 10  1  0  0  0  0
 23 21  2  0  0  0  0
 24 22  1  0  0  0  0
 25 14  1  1  0  0  0
 27  2  1  0  0  0  0
 28 29  1  0  0  0  0
 29 32  1  0  0  0  0
 31 33  1  0  0  0  0
 32 31  1  0  0  0  0
 32 34  1  0  0  0  0
 33 30  1  0  0  0  0
 34 30  1  0  0  0  0
M  END
>  <MODEL>
1

>  <REMARK>
 VINA RESULT:      -8.6      0.000      0.000
  Name = 
  3 active torsions:
  status: ('A' for Active; 'I' for Inactive)
    1  A    between atoms: C_17  and  N_28
    2  A    between atoms: N_28  and  C_29
    3  A    between atoms: C_29  and  C_32
                            x       y       z     vdW  Elec       q    Type
                         _______ _______ _______ _____ _____    ______ ____

>  <TORSDO>
F 3

$$$$
=
 OpenBabel11112417483D

 34 40  0  0  1  0  0  0  0  0999 V2000
  189.2650  174.1930  142.2450 C   0  0  0  0  0  0  0  0  0  0  0  0
  187.1200  175.4380  142.6830 C   0  0  0  0  0  3  0  0  0  0  0  0
  194.1150  170.7640  144.8270 C   0  0  2  0  0  3  0  0  0  0  0  0
  191.1320  172.6450  142.3030 C   0  0  0  0  0  0  0  0  0  0  0  0
  192.5860  172.7200  144.2930 C   0  0  0  0  0  0  0  0  0  0  0  0
  194.9850  173.1640  144.8830 C   0  0  0  0  0  1  0  0  0  0  0  0
  194.7510  170.1640  146.0660 C   0  0  0  0  0  1  0  0  0  0  0  0
  194.4490  171.1370  142.5320 C   0  0  0  0  0  2  0  0  0  0  0  0
  189.0270  176.0890  143.8980 C   0  0  2  0  0  3  0  0  0  0  0  0
  188.4930  177.0290  146.9520 C   0  0  0  0  0  2  0  0  0  0  0  0
  191.8650  173.7080  144.8410 C   0  0  0  0  0  3  0  0  0  0  0  0
  192.9400  170.9910  142.3470 C   0  0  0  0  0  2  0  0  0  0  0  0
  189.8450  175.2270  144.8880 C   0  0  1  0  0  3  0  0  0  0  0  0
  186.6590  176.2760  143.5930 C   0  0  0  0  0  3  0  0  0  0  0  0
  192.2070  172.1600  142.9480 C   0  0  0  0  0  0  0  0  0  0  0  0
  194.9500  170.5260  143.7070 O   0  0  0  0  0  0  0  0  0  0  0  0
  187.5020  176.3850  145.9680 C   0  0  2  0  0  3  0  0  0  0  0  0
  190.3500  173.7430  142.8940 C   0  0  0  0  0  0  0  0  0  0  0  0
  193.7840  172.2450  145.0730 C   0  0  2  0  0  3  0  0  0  0  0  0
  190.7300  174.2860  144.1740 N   0  0  0  0  0  0  0  0  0  0  0  0
  189.5140  172.6310  140.4350 C   0  0  0  0  0  3  0  0  0  0  0  0
  189.8750  177.3350  146.3710 C   0  0  0  0  0  2  0  0  0  0  0  0
  190.6940  172.1040  141.0520 N   0  0  0  0  0  2  0  0  0  0  0  0
  190.6270  176.0910  145.8930 C   0  0  0  0  0  2  0  0  0  0  0  0
  187.7630  176.7610  144.4930 C   0  0  1  0  0  3  0  0  0  0  0  0
  188.8520  173.6020  140.9980 N   0  0  0  0  0  0  0  0  0  0  0  0
  188.5160  175.2620  142.8210 N   0  0  0  0  0  0  0  0  0  0  0  0
  186.1490  176.7460  146.3630 N   0  0  0  0  0  2  0  0  0  0  0  0
  186.2280  178.0440  147.0120 C   0  0  0  0  0  2  0  0  0  0  0  0
  185.0440  179.6020  143.9710 C   0  0  0  0  0  2  0  0  0  0  0  0
  184.0890  178.3070  145.7580 C   0  0  0  0  0  2  0  0  0  0  0  0
  185.2950  179.0240  146.3280 C   0  0  0  0  0  3  0  0  0  0  0  0
  183.7310  179.0730  144.5080 C   0  0  0  0  0  2  0  0  0  0  0  0
  185.9960  179.6760  145.1520 C   0  0  0  0  0  2  0  0  0  0  0  0
  1 27  1  0  0  0  0
  1 18  2  0  0  0  0
  2 27  1  0  0  0  0
  2 14  2  0  0  0  0
  3 19  1  0  0  0  0
  3  7  1  1  0  0  0
  4 18  1  0  0  0  0
  4 15  2  0  0  0  0
  5 11  2  0  0  0  0
  5 19  1  0  0  0  0
  8 16  1  0  0  0  0
  9 27  1  6  0  0  0
  9 25  1  0  0  0  0
  9 13  1  0  0  0  0
 12  8  1  0  0  0  0
 12 15  1  0  0  0  0
 13 24  1  6  0  0  0
 15  5  1  0  0  0  0
 16  3  1  0  0  0  0
 17 28  1  1  0  0  0
 17 10  1  0  0  0  0
 18 20  1  0  0  0  0
 19  6  1  6  0  0  0
 20 11  1  0  0  0  0
 20 13  1  0  0  0  0
 21 26  2  0  0  0  0
 21 23  1  0  0  0  0
 22 10  1  0  0  0  0
 23  4  1  0  0  0  0
 24 22  1  0  0  0  0
 25 14  1  6  0  0  0
 25 17  1  0  0  0  0
 26  1  1  0  0  0  0
 28 29  1  0  0  0  0
 30 33  1  0  0  0  0
 30 34  1  0  0  0  0
 31 32  1  0  0  0  0
 32 29  1  0  0  0  0
 33 31  1  0  0  0  0
 34 32  1  0  0  0  0
M  END
>  <MODEL>
2

>  <REMARK>
 VINA RESULT:      -8.2      2.729      4.553
  Name = 
  3 active torsions:
  status: ('A' for Active; 'I' for Inactive)
    1  A    between atoms: C_17  and  N_28
    2  A    between atoms: N_28  and  C_29
    3  A    between atoms: C_29  and  C_32
                            x       y       z     vdW  Elec       q    Type
                         _______ _______ _______ _____ _____    ______ ____

>  <TORSDO>
F 3

$$$$
=
 OpenBabel11112417483D

 34 40  0  0  1  0  0  0  0  0999 V2000
  190.1840  174.5950  142.1930 C   0  0  0  0  0  0  0  0  0  0  0  0
  192.5950  173.8760  142.3090 C   0  0  0  0  0  3  0  0  0  0  0  0
  185.8640  179.1850  143.6820 C   0  0  2  0  0  3  0  0  0  0  0  0
  188.1180  175.8580  142.0520 C   0  0  0  0  0  0  0  0  0  0  0  0
  187.5700  177.3240  143.9560 C   0  0  0  0  0  0  0  0  0  0  0  0
  185.7740  177.6070  145.6870 C   0  0  0  0  0  1  0  0  0  0  0  0
  185.5850  180.5320  144.3210 C   0  0  0  0  0  1  0  0  0  0  0  0
  184.8340  177.3200  142.6940 C   0  0  0  0  0  2  0  0  0  0  0  0
  191.5210  174.4230  144.3300 C   0  0  2  0  0  3  0  0  0  0  0  0
  193.3690  175.8920  146.5490 C   0  0  0  0  0  2  0  0  0  0  0  0
  188.6840  176.9680  144.6120 C   0  0  0  0  0  3  0  0  0  0  0  0
  186.0690  177.1810  141.8060 C   0  0  0  0  0  2  0  0  0  0  0  0
  190.9170  175.7890  144.7290 C   0  0  1  0  0  3  0  0  0  0  0  0
  193.5680  173.9020  143.2010 C   0  0  0  0  0  3  0  0  0  0  0  0
  187.2630  176.7340  142.6070 C   0  0  0  0  0  0  0  0  0  0  0  0
  184.6480  178.6190  143.2260 O   0  0  0  0  0  0  0  0  0  0  0  0
  193.7140  175.5720  145.0850 C   0  0  2  0  0  3  0  0  0  0  0  0
  189.3320  175.4510  142.7780 C   0  0  0  0  0  0  0  0  0  0  0  0
  186.6580  178.2980  144.6550 C   0  0  2  0  0  3  0  0  0  0  0  0
  189.6100  176.0060  144.0780 N   0  0  0  0  0  0  0  0  0  0  0  0
  188.8730  174.4230  140.1870 C   0  0  0  0  0  3  0  0  0  0  0  0
  192.0120  175.3670  147.0240 C   0  0  0  0  0  2  0  0  0  0  0  0
  187.9020  175.3170  140.7450 N   0  0  0  0  0  2  0  0  0  0  0  0
  190.8260  175.9540  146.2560 C   0  0  0  0  0  2  0  0  0  0  0  0
  193.0480  174.2810  144.5610 C   0  0  1  0  0  3  0  0  0  0  0  0
  189.9340  174.0940  140.8670 N   0  0  0  0  0  0  0  0  0  0  0  0
  191.3550  174.2000  142.9070 N   0  0  0  0  0  0  0  0  0  0  0  0
  195.1610  175.5010  144.9500 N   0  0  0  0  0  2  0  0  0  0  0  0
  195.6660  174.8450  146.1450 C   0  0  0  0  0  2  0  0  0  0  0  0
  196.5790  171.7900  144.4390 C   0  0  0  0  0  2  0  0  0  0  0  0
  197.2570  174.0960  144.3770 C   0  0  0  0  0  2  0  0  0  0  0  0
  196.7280  173.8290  145.7710 C   0  0  0  0  0  3  0  0  0  0  0  0
  197.5810  172.7350  143.8120 C   0  0  0  0  0  2  0  0  0  0  0  0
  196.1270  172.4370  145.7370 C   0  0  0  0  0  2  0  0  0  0  0  0
  1 18  2  0  0  0  0
  1 27  1  0  0  0  0
  2 27  1  0  0  0  0
  2 14  2  0  0  0  0
  3  7  1  1  0  0  0
  3 19  1  0  0  0  0
  4 15  2  0  0  0  0
  4 18  1  0  0  0  0
  5 11  2  0  0  0  0
  5 19  1  0  0  0  0
  8 16  1  0  0  0  0
  9 27  1  6  0  0  0
  9 25  1  0  0  0  0
  9 13  1  0  0  0  0
 10 22  1  0  0  0  0
 12 15  1  0  0  0  0
 12  8  1  0  0  0  0
 13 24  1  1  0  0  0
 15  5  1  0  0  0  0
 16  3  1  0  0  0  0
 17 28  1  1  0  0  0
 17 10  1  0  0  0  0
 18 20  1  0  0  0  0
 19  6  1  6  0  0  0
 20 11  1  0  0  0  0
 20 13  1  0  0  0  0
 21 23  1  0  0  0  0
 21 26  2  0  0  0  0
 23  4  1  0  0  0  0
 24 22  1  0  0  0  0
 25 14  1  6  0  0  0
 25 17  1  0  0  0  0
 26  1  1  0  0  0  0
 28 29  1  0  0  0  0
 30 34  1  0  0  0  0
 31 32  1  0  0  0  0
 32 29  1  0  0  0  0
 33 31  1  0  0  0  0
 33 30  1  0  0  0  0
 34 32  1  0  0  0  0
M  END
>  <MODEL>
3

>  <REMARK>
 VINA RESULT:      -8.2      2.995      8.781
  Name = 
  3 active torsions:
  status: ('A' for Active; 'I' for Inactive)
    1  A    between atoms: C_17  and  N_28
    2  A    between atoms: N_28  and  C_29
    3  A    between atoms: C_29  and  C_32
                            x       y       z     vdW  Elec       q    Type
                         _______ _______ _______ _____ _____    ______ ____

>  <TORSDO>
F 3

$$$$
=
 OpenBabel11112417483D

 34 40  0  0  1  0  0  0  0  0999 V2000
  191.6120  174.4140  142.6270 C   0  0  0  0  0  0  0  0  0  0  0  0
  189.8560  176.1870  142.9670 C   0  0  0  0  0  3  0  0  0  0  0  0
  194.7280  169.3640  145.2220 C   0  0  2  0  0  3  0  0  0  0  0  0
  192.9270  172.3770  142.6750 C   0  0  0  0  0  0  0  0  0  0  0  0
  193.9350  171.7450  144.8340 C   0  0  0  0  0  0  0  0  0  0  0  0
  196.2030  171.3550  145.8350 C   0  0  0  0  0  1  0  0  0  0  0  0
  194.9220  168.4430  146.4110 C   0  0  0  0  0  1  0  0  0  0  0  0
  195.5860  169.9120  143.1040 C   0  0  0  0  0  2  0  0  0  0  0  0
  191.5990  176.0610  144.5440 C   0  0  2  0  0  3  0  0  0  0  0  0
  190.7720  176.7160  147.6070 C   0  0  0  0  0  2  0  0  0  0  0  0
  193.4270  172.8270  145.4410 C   0  0  0  0  0  3  0  0  0  0  0  0
  194.1600  170.2580  142.6800 C   0  0  0  0  0  2  0  0  0  0  0  0
  191.9390  174.8700  145.4690 C   0  0  1  0  0  3  0  0  0  0  0  0
  189.4810  177.0000  143.9370 C   0  0  0  0  0  3  0  0  0  0  0  0
  193.6810  171.5080  143.3700 C   0  0  0  0  0  0  0  0  0  0  0  0
  195.6620  169.0300  144.2100 O   0  0  0  0  0  0  0  0  0  0  0  0
  189.8490  176.5380  146.3890 C   0  0  2  0  0  3  0  0  0  0  0  0
  192.3830  173.5750  143.3340 C   0  0  0  0  0  0  0  0  0  0  0  0
  194.7810  170.8300  145.6800 C   0  0  2  0  0  3  0  0  0  0  0  0
  192.6470  173.8050  144.7320 N   0  0  0  0  0  0  0  0  0  0  0  0
  191.7580  173.1000  140.6210 C   0  0  0  0  0  3  0  0  0  0  0  0
  192.2700  176.6570  147.2970 C   0  0  0  0  0  2  0  0  0  0  0  0
  192.6050  172.1630  141.2960 N   0  0  0  0  0  2  0  0  0  0  0  0
  192.7230  175.3170  146.7160 C   0  0  0  0  0  2  0  0  0  0  0  0
  190.4820  177.0040  145.0600 C   0  0  1  0  0  3  0  0  0  0  0  0
  191.2980  174.1450  141.2480 N   0  0  0  0  0  0  0  0  0  0  0  0
  191.0950  175.5770  143.2720 N   0  0  0  0  0  0  0  0  0  0  0  0
  188.6000  177.2400  146.6430 N   0  0  0  0  0  2  0  0  0  0  0  0
  187.5940  176.2290  146.9230 C   0  0  0  0  0  2  0  0  0  0  0  0
  185.4240  179.1220  146.9290 C   0  0  0  0  0  2  0  0  0  0  0  0
  185.2560  176.8130  146.2820 C   0  0  0  0  0  2  0  0  0  0  0  0
  186.3050  176.8900  147.3710 C   0  0  0  0  0  3  0  0  0  0  0  0
  184.4500  178.0820  146.4210 C   0  0  0  0  0  2  0  0  0  0  0  0
  186.5390  178.3660  147.6300 C   0  0  0  0  0  2  0  0  0  0  0  0
  1 27  1  0  0  0  0
  1 18  2  0  0  0  0
  2 27  1  0  0  0  0
  2 14  2  0  0  0  0
  3 19  1  0  0  0  0
  3  7  1  1  0  0  0
  4 18  1  0  0  0  0
  4 15  2  0  0  0  0
  5 11  2  0  0  0  0
  5 19  1  0  0  0  0
  8 16  1  0  0  0  0
  9 27  1  6  0  0  0
  9 25  1  0  0  0  0
  9 13  1  0  0  0  0
 12  8  1  0  0  0  0
 12 15  1  0  0  0  0
 13 24  1  1  0  0  0
 15  5  1  0  0  0  0
 16  3  1  0  0  0  0
 17 28  1  1  0  0  0
 17 10  1  0  0  0  0
 18 20  1  0  0  0  0
 19  6  1  6  0  0  0
 20 11  1  0  0  0  0
 20 13  1  0  0  0  0
 21 26  2  0  0  0  0
 21 23  1  0  0  0  0
 22 10  1  0  0  0  0
 23  4  1  0  0  0  0
 24 22  1  0  0  0  0
 25 14  1  6  0  0  0
 25 17  1  0  0  0  0
 26  1  1  0  0  0  0
 28 29  1  0  0  0  0
 29 32  1  0  0  0  0
 30 34  1  0  0  0  0
 31 33  1  0  0  0  0
 31 32  1  0  0  0  0
 32 34  1  0  0  0  0
 33 30  1  0  0  0  0
M  END
>  <MODEL>
4

>  <REMARK>
 VINA RESULT:      -7.9      3.049      4.686
  Name = 
  3 active torsions:
  status: ('A' for Active; 'I' for Inactive)
    1  A    between atoms: C_17  and  N_28
    2  A    between atoms: N_28  and  C_29
    3  A    between atoms: C_29  and  C_32
                            x       y       z     vdW  Elec       q    Type
                         _______ _______ _______ _____ _____    ______ ____

>  <TORSDO>
F 3

$$$$
=
 OpenBabel11112417483D

 34 40  0  0  1  0  0  0  0  0999 V2000
  190.1040  176.6540  146.2980 C   0  0  0  0  0  0  0  0  0  0  0  0
  187.7380  177.5150  146.3550 C   0  0  0  0  0  3  0  0  0  0  0  0
  195.6550  176.3980  142.9720 C   0  0  2  0  0  3  0  0  0  0  0  0
  192.4820  176.3550  145.9280 C   0  0  0  0  0  0  0  0  0  0  0  0
  193.2210  176.0360  143.5990 C   0  0  0  0  0  0  0  0  0  0  0  0
  194.3950  174.3210  142.1910 C   0  0  0  0  0  1  0  0  0  0  0  0
  196.4310  176.7900  141.7300 C   0  0  0  0  0  1  0  0  0  0  0  0
  195.7580  175.0940  144.9240 C   0  0  0  0  0  2  0  0  0  0  0  0
  188.3900  176.2400  144.4880 C   0  0  2  0  0  3  0  0  0  0  0  0
  187.1060  177.1400  141.6530 C   0  0  0  0  0  2  0  0  0  0  0  0
  191.9650  176.1160  143.1390 C   0  0  0  0  0  3  0  0  0  0  0  0
  194.9050  176.1580  145.6110 C   0  0  0  0  0  2  0  0  0  0  0  0
  189.5010  176.5770  143.4660 C   0  0  1  0  0  3  0  0  0  0  0  0
  186.7370  177.6440  145.5040 C   0  0  0  0  0  3  0  0  0  0  0  0
  193.4990  176.1530  145.0730 C   0  0  0  0  0  0  0  0  0  0  0  0
  196.4590  175.5610  143.7860 O   0  0  0  0  0  0  0  0  0  0  0  0
  187.0250  177.8660  143.0080 C   0  0  2  0  0  3  0  0  0  0  0  0
  191.1000  176.4250  145.4290 C   0  0  2  0  0  3  0  0  0  0  0  0
  194.3000  175.7920  142.5760 C   0  0  2  0  0  3  0  0  0  0  0  0
  190.8400  176.2940  144.0180 N   0  0  0  0  0  0  0  0  0  0  0  0
  191.5820  176.7950  148.1880 C   0  0  0  0  0  3  0  0  0  0  0  0
  187.8130  175.7840  141.6870 C   0  0  0  0  0  2  0  0  0  0  0  0
  192.7010  176.5360  147.3320 N   0  0  0  0  0  0  0  0  0  0  0  0
  189.2780  175.8670  142.1190 C   0  0  0  0  0  2  0  0  0  0  0  0
  187.0180  176.9100  144.2200 C   0  0  1  0  0  3  0  0  0  0  0  0
  190.3760  176.8510  147.6990 N   0  0  0  0  0  0  0  0  0  0  0  0
  188.7660  176.7140  145.8070 N   0  0  0  0  0  0  0  0  0  0  0  0
  185.8460  178.7180  143.0120 N   0  0  0  0  0  2  0  0  0  0  0  0
  184.7130  177.8760  142.6650 C   0  0  0  0  0  2  0  0  0  0  0  0
  182.0290  177.9180  140.2410 C   0  0  0  0  0  2  0  0  0  0  0  0
  182.3530  178.6630  142.5040 C   0  0  0  0  0  2  0  0  0  0  0  0
  183.7130  178.6650  141.8410 C   0  0  0  0  0  3  0  0  0  0  0  0
  181.3610  178.6770  141.3670 C   0  0  0  0  0  2  0  0  0  0  0  0
  183.5260  178.0110  140.4850 C   0  0  0  0  0  2  0  0  0  0  0  0
  1 26  2  0  0  0  0
  3  7  1  6  0  0  0
  3 16  1  0  0  0  0
  4 23  1  0  0  0  0
  5 15  1  0  0  0  0
  8 12  1  0  0  0  0
  9 27  1  1  0  0  0
 10 22  1  0  0  0  0
 10 17  1  0  0  0  0
 11  5  2  0  0  0  0
 11 20  1  0  0  0  0
 13 24  1  6  0  0  0
 13 20  1  0  0  0  0
 13  9  1  0  0  0  0
 14  2  2  0  0  0  0
 15 12  1  0  0  0  0
 15  4  2  0  0  0  0
 16  8  1  0  0  0  0
 17 28  1  6  0  0  0
 17 25  1  0  0  0  0
 18  4  1  6  0  0  0
 18  1  1  0  0  0  0
 19  6  1  1  0  0  0
 19  3  1  0  0  0  0
 19  5  1  0  0  0  0
 20 18  1  0  0  0  0
 22 24  1  0  0  0  0
 23 21  2  0  0  0  0
 25  9  1  0  0  0  0
 25 14  1  1  0  0  0
 26 21  1  0  0  0  0
 27  1  1  0  0  0  0
 27  2  1  0  0  0  0
 29 28  1  0  0  0  0
 30 34  1  0  0  0  0
 30 33  1  0  0  0  0
 32 31  1  0  0  0  0
 32 29  1  0  0  0  0
 33 31  1  0  0  0  0
 34 32  1  0  0  0  0
M  END
>  <MODEL>
5

>  <REMARK>
 VINA RESULT:      -7.8      2.233      3.262
  Name = 
  3 active torsions:
  status: ('A' for Active; 'I' for Inactive)
    1  A    between atoms: C_17  and  N_28
    2  A    between atoms: N_28  and  C_29
    3  A    between atoms: C_29  and  C_32
                            x       y       z     vdW  Elec       q    Type
                         _______ _______ _______ _____ _____    ______ ____

>  <TORSDO>
F 3

$$$$
=
 OpenBabel11112417483D

 34 40  0  0  1  0  0  0  0  0999 V2000
  192.2980  175.8020  145.3780 C   0  0  0  0  0  0  0  0  0  0  0  0
  190.2240  177.2290  145.4360 C   0  0  0  0  0  3  0  0  0  0  0  0
  196.4200  172.4530  141.6700 C   0  0  2  0  0  3  0  0  0  0  0  0
  194.3680  174.6970  144.7630 C   0  0  0  0  0  0  0  0  0  0  0  0
  194.2810  173.1380  142.8560 C   0  0  0  0  0  0  0  0  0  0  0  0
  194.6870  170.7110  142.3610 C   0  0  0  0  0  1  0  0  0  0  0  0
  196.8140  171.9830  140.2840 C   0  0  0  0  0  1  0  0  0  0  0  0
  196.9380  172.2340  143.9510 C   0  0  0  0  0  2  0  0  0  0  0  0
  190.0610  175.1070  144.4310 C   0  0  2  0  0  3  0  0  0  0  0  0
  188.0970  174.9170  141.8620 C   0  0  0  0  0  2  0  0  0  0  0  0
  192.9700  173.3530  142.6790 C   0  0  0  0  0  3  0  0  0  0  0  0
  196.5110  173.6900  144.1290 C   0  0  0  0  0  2  0  0  0  0  0  0
  190.8300  174.5970  143.1900 C   0  0  1  0  0  3  0  0  0  0  0  0
  189.0360  177.2290  144.8590 C   0  0  0  0  0  3  0  0  0  0  0  0
  195.0230  173.8390  143.9610 C   0  0  0  0  0  0  0  0  0  0  0  0
  197.3070  171.8980  142.6260 O   0  0  0  0  0  0  0  0  0  0  0  0
  188.5540  176.1760  142.6190 C   0  0  2  0  0  3  0  0  0  0  0  0
  192.9250  174.9210  144.5830 C   0  0  2  0  0  3  0  0  0  0  0  0
  194.9350  172.1500  141.9250 C   0  0  2  0  0  3  0  0  0  0  0  0
  192.2180  174.2310  143.5340 N   0  0  0  0  0  0  0  0  0  0  0  0
  194.3000  176.3710  146.5800 C   0  0  0  0  0  3  0  0  0  0  0  0
  188.5700  173.5920  142.4640 C   0  0  0  0  0  2  0  0  0  0  0  0
  195.0410  175.4370  145.7870 N   0  0  0  0  0  0  0  0  0  0  0  0
  190.0930  173.4420  142.4910 C   0  0  0  0  0  2  0  0  0  0  0  0
  188.7880  175.9380  144.1270 C   0  0  1  0  0  3  0  0  0  0  0  0
  193.0230  176.5370  146.3810 N   0  0  0  0  0  0  0  0  0  0  0  0
  190.8970  176.0080  145.2010 N   0  0  0  0  0  0  0  0  0  0  0  0
  187.5750  177.2300  142.4060 N   0  0  0  0  0  2  0  0  0  0  0  0
  186.2620  176.6390  142.6100 C   0  0  0  0  0  2  0  0  0  0  0  0
  185.6070  178.7520  145.4710 C   0  0  0  0  0  2  0  0  0  0  0  0
  185.8210  179.0440  143.0940 C   0  0  0  0  0  2  0  0  0  0  0  0
  185.3540  177.6220  143.3230 C   0  0  0  0  0  3  0  0  0  0  0  0
  185.4810  179.7790  144.3680 C   0  0  0  0  0  2  0  0  0  0  0  0
  185.4130  177.3920  144.8210 C   0  0  0  0  0  2  0  0  0  0  0  0
  1 26  2  0  0  0  0
  3  7  1  6  0  0  0
  3 19  1  0  0  0  0
  3 16  1  0  0  0  0
  4 23  1  0  0  0  0
  5 15  1  0  0  0  0
  8 12  1  0  0  0  0
  9 27  1  6  0  0  0
 10 22  1  0  0  0  0
 10 17  1  0  0  0  0
 11  5  2  0  0  0  0
 11 20  1  0  0  0  0
 13 24  1  1  0  0  0
 13 20  1  0  0  0  0
 13  9  1  0  0  0  0
 14  2  2  0  0  0  0
 15 12  1  0  0  0  0
 15  4  2  0  0  0  0
 16  8  1  0  0  0  0
 17 28  1  1  0  0  0
 17 25  1  0  0  0  0
 18  4  1  6  0  0  0
 18  1  1  0  0  0  0
 19  6  1  1  0  0  0
 19  5  1  0  0  0  0
 20 18  1  0  0  0  0
 22 24  1  0  0  0  0
 23 21  2  0  0  0  0
 25  9  1  0  0  0  0
 25 14  1  1  0  0  0
 26 21  1  0  0  0  0
 27  1  1  0  0  0  0
 27  2  1  0  0  0  0
 28 29  1  0  0  0  0
 29 32  1  0  0  0  0
 31 32  1  0  0  0  0
 31 33  1  0  0  0  0
 32 34  1  0  0  0  0
 33 30  1  0  0  0  0
 34 30  1  0  0  0  0
M  END
>  <MODEL>
6

>  <REMARK>
 VINA RESULT:      -7.7      1.608      1.866
  Name = 
  3 active torsions:
  status: ('A' for Active; 'I' for Inactive)
    1  A    between atoms: C_17  and  N_28
    2  A    between atoms: N_28  and  C_29
    3  A    between atoms: C_29  and  C_32
                            x       y       z     vdW  Elec       q    Type
                         _______ _______ _______ _____ _____    ______ ____

>  <TORSDO>
F 3

$$$$
=
 OpenBabel11112417483D

 34 40  0  0  1  0  0  0  0  0999 V2000
  190.6890  172.7980  142.4890 C   0  0  0  0  0  0  0  0  0  0  0  0
  188.8620  174.5300  142.5490 C   0  0  0  0  0  3  0  0  0  0  0  0
  194.8020  169.1980  145.9640 C   0  0  2  0  0  3  0  0  0  0  0  0
  192.1970  170.9630  142.9790 C   0  0  0  0  0  0  0  0  0  0  0  0
  193.6930  171.2300  144.9200 C   0  0  0  0  0  0  0  0  0  0  0  0
  196.1480  171.3010  145.4360 C   0  0  0  0  0  1  0  0  0  0  0  0
  195.3350  168.8090  147.3290 C   0  0  0  0  0  1  0  0  0  0  0  0
  195.1370  168.9060  143.6570 C   0  0  0  0  0  2  0  0  0  0  0  0
  190.8970  175.0550  143.6070 C   0  0  2  0  0  3  0  0  0  0  0  0
  190.6580  176.8200  146.3130 C   0  0  0  0  0  2  0  0  0  0  0  0
  193.2090  172.4520  145.1850 C   0  0  0  0  0  3  0  0  0  0  0  0
  193.6250  169.0340  143.4800 C   0  0  0  0  0  2  0  0  0  0  0  0
  191.5480  174.3180  144.8010 C   0  0  1  0  0  3  0  0  0  0  0  0
  188.6100  175.6450  143.2080 C   0  0  0  0  0  3  0  0  0  0  0  0
  193.1680  170.4430  143.7500 C   0  0  0  0  0  0  0  0  0  0  0  0
  195.5350  168.5190  144.9600 O   0  0  0  0  0  0  0  0  0  0  0  0
  189.5270  176.1690  145.4990 C   0  0  2  0  0  3  0  0  0  0  0  0
  191.6760  172.3110  143.2560 C   0  0  0  0  0  0  0  0  0  0  0  0
  194.7900  170.7280  145.8220 C   0  0  2  0  0  3  0  0  0  0  0  0
  192.1980  173.0660  144.3670 N   0  0  0  0  0  0  0  0  0  0  0  0
  190.5570  170.8170  141.1360 C   0  0  0  0  0  3  0  0  0  0  0  0
  192.0560  176.6770  145.7070 C   0  0  0  0  0  2  0  0  0  0  0  0
  191.6210  170.2280  141.8930 N   0  0  0  0  0  2  0  0  0  0  0  0
  192.5200  175.2250  145.5750 C   0  0  0  0  0  2  0  0  0  0  0  0
  189.8170  176.1010  143.9840 C   0  0  1  0  0  3  0  0  0  0  0  0
  190.1270  172.0130  141.4210 N   0  0  0  0  0  0  0  0  0  0  0  0
  190.1950  174.1090  142.7600 N   0  0  0  0  0  0  0  0  0  0  0  0
  188.2900  176.8900  145.7580 N   0  0  0  0  0  2  0  0  0  0  0  0
  187.6610  176.2550  146.9050 C   0  0  0  0  0  2  0  0  0  0  0  0
  185.3270  179.0160  146.8410 C   0  0  0  0  0  2  0  0  0  0  0  0
  185.5630  176.9010  145.7230 C   0  0  0  0  0  2  0  0  0  0  0  0
  186.2430  176.7660  147.0700 C   0  0  0  0  0  3  0  0  0  0  0  0
  184.6400  178.0860  145.8660 C   0  0  0  0  0  2  0  0  0  0  0  0
  186.2580  178.1560  147.6780 C   0  0  0  0  0  2  0  0  0  0  0  0
  1 27  1  0  0  0  0
  1 18  2  0  0  0  0
  2 27  1  0  0  0  0
  2 14  2  0  0  0  0
  3  7  1  1  0  0  0
  4 18  1  0  0  0  0
  4 15  2  0  0  0  0
  5 11  2  0  0  0  0
  5 19  1  0  0  0  0
  8 16  1  0  0  0  0
  9 27  1  6  0  0  0
  9 25  1  0  0  0  0
  9 13  1  0  0  0  0
 12  8  1  0  0  0  0
 12 15  1  0  0  0  0
 13 24  1  6  0  0  0
 15  5  1  0  0  0  0
 16  3  1  0  0  0  0
 17 28  1  6  0  0  0
 17 10  1  0  0  0  0
 18 20  1  0  0  0  0
 19  6  1  6  0  0  0
 19  3  1  0  0  0  0
 20 13  1  0  0  0  0
 20 11  1  0  0  0  0
 21 26  2  0  0  0  0
 21 23  1  0  0  0  0
 22 10  1  0  0  0  0
 23  4  1  0  0  0  0
 24 22  1  0  0  0  0
 25 14  1  6  0  0  0
 25 17  1  0  0  0  0
 26  1  1  0  0  0  0
 28 29  1  0  0  0  0
 29 32  1  0  0  0  0
 30 34  1  0  0  0  0
 31 33  1  0  0  0  0
 31 32  1  0  0  0  0
 32 34  1  0  0  0  0
 33 30  1  0  0  0  0
M  END
>  <MODEL>
7

>  <REMARK>
 VINA RESULT:      -7.7      3.537      5.085
  Name = 
  3 active torsions:
  status: ('A' for Active; 'I' for Inactive)
    1  A    between atoms: C_17  and  N_28
    2  A    between atoms: N_28  and  C_29
    3  A    between atoms: C_29  and  C_32
                            x       y       z     vdW  Elec       q    Type
                         _______ _______ _______ _____ _____    ______ ____

>  <TORSDO>
F 3

$$$$
=
 OpenBabel11112417483D

 34 40  0  0  1  0  0  0  0  0999 V2000
  194.5060  175.8710  144.1450 C   0  0  0  0  0  0  0  0  0  0  0  0
  193.5340  176.5810  146.3570 C   0  0  0  0  0  3  0  0  0  0  0  0
  193.3410  174.7370  137.8760 C   0  0  2  0  0  3  0  0  0  0  0  0
  195.0080  175.5780  141.7900 C   0  0  0  0  0  0  0  0  0  0  0  0
  193.2800  174.4980  140.4030 C   0  0  0  0  0  0  0  0  0  0  0  0
  192.9890  172.4580  138.9710 C   0  0  0  0  0  1  0  0  0  0  0  0
  192.3400  174.7050  136.7370 C   0  0  0  0  0  1  0  0  0  0  0  0
  195.5560  174.2070  138.4510 C   0  0  0  0  0  2  0  0  0  0  0  0
  192.5230  174.7650  145.2530 C   0  0  2  0  0  3  0  0  0  0  0  0
  189.3060  174.5490  145.5610 C   0  0  0  0  0  2  0  0  0  0  0  0
  192.4610  174.3510  141.4540 C   0  0  0  0  0  3  0  0  0  0  0  0
  195.5340  175.4010  139.4020 C   0  0  0  0  0  2  0  0  0  0  0  0
  191.8390  174.7760  143.8670 C   0  0  1  0  0  3  0  0  0  0  0  0
  192.4300  176.3530  147.0440 C   0  0  0  0  0  3  0  0  0  0  0  0
  194.6300  175.1390  140.5770 C   0  0  0  0  0  0  0  0  0  0  0  0
  194.5990  174.2790  137.4100 O   0  0  0  0  0  0  0  0  0  0  0  0
  190.2290  175.6990  146.0010 C   0  0  2  0  0  3  0  0  0  0  0  0
  194.1200  175.4010  142.9490 C   0  0  0  0  0  0  0  0  0  0  0  0
  192.7870  173.9650  139.0830 C   0  0  2  0  0  3  0  0  0  0  0  0
  192.8350  174.7700  142.7780 N   0  0  0  0  0  0  0  0  0  0  0  0
  196.5830  176.7380  143.3010 C   0  0  0  0  0  3  0  0  0  0  0  0
  190.0240  173.3270  144.9850 C   0  0  0  0  0  2  0  0  0  0  0  0
  196.2550  176.2510  141.9950 N   0  0  0  0  0  2  0  0  0  0  0  0
  190.8250  173.6280  143.7170 C   0  0  0  0  0  2  0  0  0  0  0  0
  191.6340  175.2300  146.4350 C   0  0  1  0  0  3  0  0  0  0  0  0
  195.7620  176.5600  144.2970 N   0  0  0  0  0  0  0  0  0  0  0  0
  193.6420  175.6890  145.2650 N   0  0  0  0  0  0  0  0  0  0  0  0
  189.5760  176.4400  147.0690 N   0  0  0  0  0  2  0  0  0  0  0  0
  188.5960  177.3120  146.4440 C   0  0  0  0  0  2  0  0  0  0  0  0
  185.2600  178.4870  147.2000 C   0  0  0  0  0  2  0  0  0  0  0  0
  186.2370  176.7040  145.9160 C   0  0  0  0  0  2  0  0  0  0  0  0
  187.2180  177.0420  147.0180 C   0  0  0  0  0  3  0  0  0  0  0  0
  184.9140  177.2610  146.3830 C   0  0  0  0  0  2  0  0  0  0  0  0
  186.6830  178.2900  147.6940 C   0  0  0  0  0  2  0  0  0  0  0  0
  1 26  1  0  0  0  0
  1 27  1  0  0  0  0
  2 14  2  0  0  0  0
  3  7  1  6  0  0  0
  3 19  1  0  0  0  0
  4 23  1  0  0  0  0
  4 18  1  0  0  0  0
  5 15  1  0  0  0  0
  5 11  2  0  0  0  0
  8 12  1  0  0  0  0
  9 27  1  6  0  0  0
  9 25  1  0  0  0  0
 10 17  1  0  0  0  0
 11 20  1  0  0  0  0
 12 15  1  0  0  0  0
 13 24  1  6  0  0  0
 13  9  1  0  0  0  0
 15  4  2  0  0  0  0
 16  3  1  0  0  0  0
 16  8  1  0  0  0  0
 17 25  1  0  0  0  0
 17 28  1  1  0  0  0
 18  1  2  0  0  0  0
 19  6  1  6  0  0  0
 19  5  1  0  0  0  0
 20 18  1  0  0  0  0
 20 13  1  0  0  0  0
 21 26  2  0  0  0  0
 22 10  1  0  0  0  0
 23 21  1  0  0  0  0
 24 22  1  0  0  0  0
 25 14  1  6  0  0  0
 27  2  1  0  0  0  0
 29 32  1  0  0  0  0
 29 28  1  0  0  0  0
 30 34  1  0  0  0  0
 31 33  1  0  0  0  0
 31 32  1  0  0  0  0
 32 34  1  0  0  0  0
 33 30  1  0  0  0  0
M  END
>  <MODEL>
8

>  <REMARK>
 VINA RESULT:      -7.6      1.952      3.034
  Name = 
  3 active torsions:
  status: ('A' for Active; 'I' for Inactive)
    1  A    between atoms: C_17  and  N_28
    2  A    between atoms: N_28  and  C_29
    3  A    between atoms: C_29  and  C_32
                            x       y       z     vdW  Elec       q    Type
                         _______ _______ _______ _____ _____    ______ ____

>  <TORSDO>
F 3

$$$$
=
 OpenBabel11112417483D

 34 40  0  0  1  0  0  0  0  0999 V2000
  192.5830  176.1610  145.1790 C   0  0  0  0  0  0  0  0  0  0  0  0
  190.2520  176.8410  145.8450 C   0  0  0  0  0  3  0  0  0  0  0  0
  196.7310  175.2530  140.2880 C   0  0  2  0  0  3  0  0  0  0  0  0
  194.7310  175.9180  144.0790 C   0  0  0  0  0  0  0  0  0  0  0  0
  194.7250  174.9440  141.8150 C   0  0  0  0  0  0  0  0  0  0  0  0
  195.6550  172.9580  140.5930 C   0  0  0  0  0  1  0  0  0  0  0  0
  196.9880  175.2910  138.7940 C   0  0  0  0  0  1  0  0  0  0  0  0
  197.6730  174.6240  142.3460 C   0  0  0  0  0  2  0  0  0  0  0  0
  190.4750  175.0970  144.2810 C   0  0  2  0  0  3  0  0  0  0  0  0
  188.2150  174.9930  141.9620 C   0  0  0  0  0  2  0  0  0  0  0  0
  193.3920  174.7960  141.8300 C   0  0  0  0  0  3  0  0  0  0  0  0
  196.9200  175.7910  142.9820 C   0  0  0  0  0  2  0  0  0  0  0  0
  191.1240  175.1740  142.8800 C   0  0  1  0  0  3  0  0  0  0  0  0
  189.0240  176.6360  145.4060 C   0  0  0  0  0  3  0  0  0  0  0  0
  195.4370  175.5280  143.0040 C   0  0  0  0  0  0  0  0  0  0  0  0
  197.8820  174.7620  140.9530 O   0  0  0  0  0  0  0  0  0  0  0  0
  188.4530  176.0940  143.0100 C   0  0  2  0  0  3  0  0  0  0  0  0
  193.2710  175.7400  144.1070 C   0  0  2  0  0  3  0  0  0  0  0  0
  195.4420  174.4670  140.5790 C   0  0  2  0  0  3  0  0  0  0  0  0
  192.5970  175.1630  142.9710 N   0  0  0  0  0  0  0  0  0  0  0  0
  194.5440  176.9740  146.3050 C   0  0  0  0  0  3  0  0  0  0  0  0
  189.1130  173.7620  142.1020 C   0  0  0  0  0  2  0  0  0  0  0  0
  195.3550  176.5370  145.2090 N   0  0  0  0  0  0  0  0  0  0  0  0
  190.6030  174.0700  141.9430 C   0  0  0  0  0  2  0  0  0  0  0  0
  188.9970  175.5610  144.3530 C   0  0  1  0  0  3  0  0  0  0  0  0
  193.2540  176.7980  146.2830 N   0  0  0  0  0  0  0  0  0  0  0  0
  191.1680  175.9790  145.2010 N   0  0  0  0  0  0  0  0  0  0  0  0
  187.2120  176.8270  143.2070 N   0  0  0  0  0  2  0  0  0  0  0  0
  187.3750  178.1200  142.5620 C   0  0  0  0  0  2  0  0  0  0  0  0
  183.8010  178.2980  143.0810 C   0  0  0  0  0  2  0  0  0  0  0  0
  185.7730  179.0590  144.2260 C   0  0  0  0  0  2  0  0  0  0  0  0
  186.1270  178.9590  142.7580 C   0  0  0  0  0  3  0  0  0  0  0  0
  184.2660  179.1190  144.2640 C   0  0  0  0  0  2  0  0  0  0  0  0
  184.9430  178.2950  142.0800 C   0  0  0  0  0  2  0  0  0  0  0  0
  1 27  1  0  0  0  0
  1 26  2  0  0  0  0
  3  7  1  6  0  0  0
  3 19  1  0  0  0  0
  3 16  1  0  0  0  0
  4 23  1  0  0  0  0
  5 11  2  0  0  0  0
  5 15  1  0  0  0  0
  8 12  1  0  0  0  0
  9 25  1  0  0  0  0
  9 27  1  1  0  0  0
 10 22  1  0  0  0  0
 10 17  1  0  0  0  0
 11 20  1  0  0  0  0
 12 15  1  0  0  0  0
 13 24  1  6  0  0  0
 13 20  1  0  0  0  0
 13  9  1  0  0  0  0
 14  2  2  0  0  0  0
 15  4  2  0  0  0  0
 16  8  1  0  0  0  0
 17 28  1  1  0  0  0
 17 25  1  0  0  0  0
 18  4  1  6  0  0  0
 18  1  1  0  0  0  0
 19  6  1  1  0  0  0
 19  5  1  0  0  0  0
 20 18  1  0  0  0  0
 23 21  2  0  0  0  0
 24 22  1  0  0  0  0
 25 14  1  1  0  0  0
 26 21  1  0  0  0  0
 27  2  1  0  0  0  0
 29 32  1  0  0  0  0
 29 28  1  0  0  0  0
 30 33  1  0  0  0  0
 31 33  1  0  0  0  0
 32 31  1  0  0  0  0
 34 32  1  0  0  0  0
 34 30  1  0  0  0  0
M  END
>  <MODEL>
9

>  <REMARK>
 VINA RESULT:      -7.6      1.372      1.700
  Name = 
  3 active torsions:
  status: ('A' for Active; 'I' for Inactive)
    1  A    between atoms: C_17  and  N_28
    2  A    between atoms: N_28  and  C_29
    3  A    between atoms: C_29  and  C_32
                            x       y       z     vdW  Elec       q    Type
                         _______ _______ _______ _____ _____    ______ ____

>  <TORSDO>
F 3

$$$$
