=
 OpenBabel11112416263D

 30 35  0  0  1  0  0  0  0  0999 V2000
  186.3180  177.5230  143.7490 C   0  0  0  0  0  0  0  0  0  0  0  0
  184.6020  178.5330  145.1350 C   0  0  0  0  0  0  0  0  0  0  0  0
  188.3490  176.1790  147.0610 N   0  0  0  0  0  0  0  0  0  0  0  0
  187.4890  176.7200  143.6000 C   0  0  0  0  0  0  0  0  0  0  0  0
  185.7810  178.1700  142.4980 C   0  0  0  0  0  2  0  0  0  0  0  0
  187.5430  176.3860  139.9650 O   0  0  0  0  0  0  0  0  0  0  0  0
  190.3100  175.7450  142.7270 C   0  0  1  0  0  3  0  0  0  0  0  0
  187.1310  176.6410  141.1300 C   0  0  0  0  0  0  0  0  0  0  0  0
  190.3230  175.3160  144.1110 N   0  0  0  0  0  0  0  0  0  0  0  0
  189.4100  175.6010  146.4520 C   0  0  0  0  0  0  0  0  0  0  0  0
  185.7570  177.2060  141.3260 C   0  0  2  0  0  3  0  0  0  0  0  0
  187.9350  176.3080  142.2760 N   0  0  0  0  0  0  0  0  0  0  0  0
  184.0690  178.8220  146.3930 C   0  0  0  0  0  3  0  0  0  0  0  0
  191.4420  174.4290  144.3740 C   0  0  0  0  0  2  0  0  0  0  0  0
  191.4650  175.0190  142.1250 C   0  0  0  0  0  3  0  0  0  0  0  0
  183.8930  178.9730  144.0650 F   0  0  0  0  0  0  0  0  0  0  0  0
  187.5730  176.6310  146.0560 C   0  0  0  0  0  0  0  0  0  0  0  0
  184.7110  178.3800  147.5400 C   0  0  0  0  0  3  0  0  0  0  0  0
  185.7720  177.8080  145.0030 N   0  0  0  0  0  0  0  0  0  0  0  0
  188.1320  176.3300  144.7780 C   0  0  0  0  0  0  0  0  0  0  0  0
  190.5450  175.0180  147.2200 C   0  0  0  0  0  1  0  0  0  0  0  0
  189.3190  175.6870  145.0620 C   0  0  0  0  0  0  0  0  0  0  0  0
  192.0970  174.2910  143.0430 C   0  0  0  0  0  3  0  0  0  0  0  0
  188.5930  174.0530  142.4240 O   0  0  0  0  0  1  0  0  0  0  0  0
  185.8790  177.6440  147.4250 C   0  0  0  0  0  3  0  0  0  0  0  0
  186.3990  177.3570  146.1580 C   0  0  0  0  0  0  0  0  0  0  0  0
  189.0070  175.3350  142.0490 C   0  0  2  0  0  3  0  0  0  0  0  0
  185.3330  177.8830  140.1790 O   0  0  0  0  0  0  0  0  0  0  0  0
  182.9570  177.8480  140.2500 C   0  0  0  0  0  1  0  0  0  0  0  0
  184.2170  178.6160  140.5880 C   0  0  0  0  0  2  0  0  0  0  0  0
  1 19  1  0  0  0  0
  2 13  2  0  0  0  0
  4  1  2  0  0  0  0
  4 20  1  0  0  0  0
  5  1  1  0  0  0  0
  6  8  2  0  0  0  0
  7 15  1  6  0  0  0
  7  9  1  0  0  0  0
  8 11  1  0  0  0  0
  8 12  1  0  0  0  0
  9 14  1  0  0  0  0
  9 22  1  0  0  0  0
 10  3  2  0  0  0  0
 10 21  1  0  0  0  0
 11 28  1  6  0  0  0
 11  5  1  0  0  0  0
 12  4  1  0  0  0  0
 13 18  1  0  0  0  0
 15 23  2  0  0  0  0
 16  2  1  0  0  0  0
 17 26  2  0  0  0  0
 17  3  1  0  0  0  0
 19  2  1  0  0  0  0
 19 26  1  0  0  0  0
 20 22  2  0  0  0  0
 20 17  1  0  0  0  0
 22 10  1  0  0  0  0
 23 14  1  0  0  0  0
 25 18  2  0  0  0  0
 26 25  1  0  0  0  0
 27 12  1  0  0  0  0
 27 24  1  1  0  0  0
 27  7  1  0  0  0  0
 28 30  1  0  0  0  0
 29 30  1  0  0  0  0
M  END
>  <MODEL>
1

>  <REMARK>
 VINA RESULT:      -8.6      0.000      0.000
  Name = 
  2 active torsions:
  status: ('A' for Active; 'I' for Inactive)
    1  A    between atoms: C_11  and  O_28
    2  A    between atoms: O_28  and  C_30
                            x       y       z     vdW  Elec       q    Type
                         _______ _______ _______ _____ _____    ______ ____

>  <TORSDO>
F 2

$$$$
=
 OpenBabel11112416263D

 30 35  0  0  1  0  0  0  0  0999 V2000
  189.3750  175.4560  144.1140 C   0  0  0  0  0  0  0  0  0  0  0  0
  191.2260  174.6900  145.4840 C   0  0  0  0  0  0  0  0  0  0  0  0
  187.9000  177.7380  147.1990 N   0  0  0  0  0  0  0  0  0  0  0  0
  188.2310  176.2870  143.9140 C   0  0  0  0  0  0  0  0  0  0  0  0
  189.6980  174.4770  143.0140 C   0  0  0  0  0  2  0  0  0  0  0  0
  187.6730  175.7080  140.3520 O   0  0  0  0  0  0  0  0  0  0  0  0
  185.3610  177.2330  143.1850 C   0  0  1  0  0  3  0  0  0  0  0  0
  188.2360  175.7200  141.4810 C   0  0  0  0  0  0  0  0  0  0  0  0
  185.5640  177.9930  144.4020 N   0  0  0  0  0  0  0  0  0  0  0  0
  186.7890  178.2290  146.6020 C   0  0  0  0  0  0  0  0  0  0  0  0
  189.5970  175.1140  141.6400 C   0  0  2  0  0  3  0  0  0  0  0  0
  187.6190  176.3900  142.5960 N   0  0  0  0  0  0  0  0  0  0  0  0
  191.9200  174.6820  146.6950 C   0  0  0  0  0  3  0  0  0  0  0  0
  184.5340  179.0030  144.5680 C   0  0  0  0  0  2  0  0  0  0  0  0
  184.1640  177.8760  142.5680 C   0  0  0  0  0  3  0  0  0  0  0  0
  191.7540  173.9430  144.4810 F   0  0  0  0  0  0  0  0  0  0  0  0
  188.5040  176.9910  146.2530 C   0  0  0  0  0  0  0  0  0  0  0  0
  191.4690  175.4450  147.7620 C   0  0  0  0  0  3  0  0  0  0  0  0
  190.0820  175.4500  145.3190 N   0  0  0  0  0  0  0  0  0  0  0  0
  187.7820  177.0070  145.0230 C   0  0  0  0  0  0  0  0  0  0  0  0
  185.8030  179.0720  147.3320 C   0  0  0  0  0  1  0  0  0  0  0  0
  186.6770  177.7930  145.2810 C   0  0  0  0  0  0  0  0  0  0  0  0
  183.7030  178.8570  143.3410 C   0  0  0  0  0  3  0  0  0  0  0  0
  187.0890  178.6550  142.2410 O   0  0  0  0  0  1  0  0  0  0  0  0
  190.3300  176.2200  147.6100 C   0  0  0  0  0  3  0  0  0  0  0  0
  189.6470  176.2220  146.3890 C   0  0  0  0  0  0  0  0  0  0  0  0
  186.5700  177.3570  142.2640 C   0  0  2  0  0  3  0  0  0  0  0  0
  189.8220  174.1410  140.6620 O   0  0  0  0  0  0  0  0  0  0  0  0
  190.2900  171.8250  140.4060 C   0  0  0  0  0  1  0  0  0  0  0  0
  190.0680  172.9660  141.3750 C   0  0  0  0  0  2  0  0  0  0  0  0
  1 19  1  0  0  0  0
  2 13  2  0  0  0  0
  4  1  2  0  0  0  0
  4 20  1  0  0  0  0
  5  1  1  0  0  0  0
  6  8  2  0  0  0  0
  7 15  1  6  0  0  0
  7  9  1  0  0  0  0
  8 11  1  0  0  0  0
  8 12  1  0  0  0  0
  9 14  1  0  0  0  0
  9 22  1  0  0  0  0
 10  3  2  0  0  0  0
 10 21  1  0  0  0  0
 11 28  1  6  0  0  0
 11  5  1  0  0  0  0
 12  4  1  0  0  0  0
 13 18  1  0  0  0  0
 15 23  2  0  0  0  0
 16  2  1  0  0  0  0
 17 26  2  0  0  0  0
 17  3  1  0  0  0  0
 19  2  1  0  0  0  0
 19 26  1  0  0  0  0
 20 22  2  0  0  0  0
 20 17  1  0  0  0  0
 22 10  1  0  0  0  0
 23 14  1  0  0  0  0
 25 18  2  0  0  0  0
 26 25  1  0  0  0  0
 27 24  1  1  0  0  0
 27 12  1  0  0  0  0
 27  7  1  0  0  0  0
 28 30  1  0  0  0  0
 29 30  1  0  0  0  0
M  END
>  <MODEL>
2

>  <REMARK>
 VINA RESULT:      -8.2      2.270      5.701
  Name = 
  2 active torsions:
  status: ('A' for Active; 'I' for Inactive)
    1  A    between atoms: C_11  and  O_28
    2  A    between atoms: O_28  and  C_30
                            x       y       z     vdW  Elec       q    Type
                         _______ _______ _______ _____ _____    ______ ____

>  <TORSDO>
F 2

$$$$
=
 OpenBabel11112416263D

 30 35  0  0  1  0  0  0  0  0999 V2000
  187.7910  176.5550  144.7620 C   0  0  0  0  0  0  0  0  0  0  0  0
  186.5620  178.3750  145.7930 C   0  0  0  0  0  0  0  0  0  0  0  0
  186.4550  177.6310  141.0260 N   0  0  0  0  0  0  0  0  0  0  0  0
  188.2510  175.8590  143.6030 C   0  0  0  0  0  0  0  0  0  0  0  0
  188.1370  175.9460  146.0970 C   0  0  0  0  0  2  0  0  0  0  0  0
  190.6330  173.5770  145.1680 O   0  0  0  0  0  0  0  0  0  0  0  0
  188.9120  173.5750  141.6000 C   0  0  1  0  0  3  0  0  0  0  0  0
  189.8410  174.5470  145.0140 C   0  0  0  0  0  0  0  0  0  0  0  0
  188.4310  174.5790  140.6720 N   0  0  0  0  0  0  0  0  0  0  0  0
  187.0330  176.6520  140.2920 C   0  0  0  0  0  0  0  0  0  0  0  0
  189.5820  175.4850  146.1530 C   0  0  2  0  0  3  0  0  0  0  0  0
  189.2530  174.8090  143.7270 N   0  0  0  0  0  0  0  0  0  0  0  0
  185.7130  179.4800  145.6930 C   0  0  0  0  0  3  0  0  0  0  0  0
  188.7260  174.2090  139.2990 C   0  0  0  0  0  2  0  0  0  0  0  0
  189.5810  172.5760  140.7170 C   0  0  0  0  0  3  0  0  0  0  0  0
  187.0010  178.0640  147.0390 F   0  0  0  0  0  0  0  0  0  0  0  0
  186.8610  177.4050  142.2910 C   0  0  0  0  0  0  0  0  0  0  0  0
  185.2460  179.8900  144.4530 C   0  0  0  0  0  3  0  0  0  0  0  0
  186.9510  177.6680  144.6700 N   0  0  0  0  0  0  0  0  0  0  0  0
  187.7240  176.2730  142.3770 C   0  0  0  0  0  0  0  0  0  0  0  0
  186.7910  176.5070  138.8300 C   0  0  0  0  0  1  0  0  0  0  0  0
  187.8020  175.7970  141.0840 C   0  0  0  0  0  0  0  0  0  0  0  0
  189.4730  172.9270  139.4380 C   0  0  0  0  0  3  0  0  0  0  0  0
  190.7820  175.0830  141.9580 O   0  0  0  0  0  1  0  0  0  0  0  0
  185.6340  179.1970  143.3170 C   0  0  0  0  0  3  0  0  0  0  0  0
  186.4900  178.0960  143.4320 C   0  0  0  0  0  0  0  0  0  0  0  0
  189.9120  174.1810  142.5780 C   0  0  2  0  0  3  0  0  0  0  0  0
  189.8190  174.8540  147.3770 O   0  0  0  0  0  0  0  0  0  0  0  0
  191.0470  176.8030  147.9660 C   0  0  0  0  0  1  0  0  0  0  0  0
  191.0810  175.3020  147.7720 C   0  0  0  0  0  2  0  0  0  0  0  0
  1  5  1  0  0  0  0
  2 16  1  0  0  0  0
  3 17  1  0  0  0  0
  4 12  1  0  0  0  0
  4  1  2  0  0  0  0
  5 11  1  0  0  0  0
  7 15  1  6  0  0  0
  7 27  1  0  0  0  0
  8  6  2  0  0  0  0
  8 11  1  0  0  0  0
  9 22  1  0  0  0  0
  9  7  1  0  0  0  0
 10  3  2  0  0  0  0
 10 22  1  0  0  0  0
 11 28  1  1  0  0  0
 12  8  1  0  0  0  0
 13  2  2  0  0  0  0
 14 23  1  0  0  0  0
 14  9  1  0  0  0  0
 17 20  1  0  0  0  0
 17 26  2  0  0  0  0
 18 13  1  0  0  0  0
 19  1  1  0  0  0  0
 19  2  1  0  0  0  0
 20  4  1  0  0  0  0
 21 10  1  0  0  0  0
 22 20  2  0  0  0  0
 23 15  2  0  0  0  0
 25 26  1  0  0  0  0
 25 18  2  0  0  0  0
 26 19  1  0  0  0  0
 27 24  1  6  0  0  0
 27 12  1  0  0  0  0
 28 30  1  0  0  0  0
 30 29  1  0  0  0  0
M  END
>  <MODEL>
3

>  <REMARK>
 VINA RESULT:      -8.1      2.385      5.304
  Name = 
  2 active torsions:
  status: ('A' for Active; 'I' for Inactive)
    1  A    between atoms: C_11  and  O_28
    2  A    between atoms: O_28  and  C_30
                            x       y       z     vdW  Elec       q    Type
                         _______ _______ _______ _____ _____    ______ ____

>  <TORSDO>
F 2

$$$$
=
 OpenBabel11112416263D

 30 35  0  0  1  0  0  0  0  0999 V2000
  188.3820  176.2130  143.7660 C   0  0  0  0  0  0  0  0  0  0  0  0
  186.0650  176.8360  144.1270 C   0  0  0  0  0  0  0  0  0  0  0  0
  189.3930  177.3620  147.5820 N   0  0  0  0  0  0  0  0  0  0  0  0
  189.7120  176.0190  144.2500 C   0  0  0  0  0  0  0  0  0  0  0  0
  188.1620  175.9910  142.2910 C   0  0  0  0  0  2  0  0  0  0  0  0
  191.1630  174.3030  141.3710 O   0  0  0  0  0  0  0  0  0  0  0  0
  192.8110  176.1150  144.4850 C   0  0  1  0  0  3  0  0  0  0  0  0
  190.3040  174.7990  142.1520 C   0  0  0  0  0  0  0  0  0  0  0  0
  192.4550  176.3370  145.8730 N   0  0  0  0  0  0  0  0  0  0  0  0
  190.7230  177.1150  147.5440 C   0  0  0  0  0  0  0  0  0  0  0  0
  188.8500  174.7320  141.7970 C   0  0  2  0  0  3  0  0  0  0  0  0
  190.7040  175.3470  143.4210 N   0  0  0  0  0  0  0  0  0  0  0  0
  185.0560  177.3440  144.9470 C   0  0  0  0  0  3  0  0  0  0  0  0
  193.6170  176.2190  146.7370 C   0  0  0  0  0  2  0  0  0  0  0  0
  194.2650  175.7930  144.5450 C   0  0  0  0  0  3  0  0  0  0  0  0
  185.6900  176.4450  142.8820 F   0  0  0  0  0  0  0  0  0  0  0  0
  188.9330  176.9780  146.3750 C   0  0  0  0  0  0  0  0  0  0  0  0
  185.3450  177.7340  146.2470 C   0  0  0  0  0  3  0  0  0  0  0  0
  187.3650  176.7110  144.5840 N   0  0  0  0  0  0  0  0  0  0  0  0
  189.9740  176.4630  145.5480 C   0  0  0  0  0  0  0  0  0  0  0  0
  191.6270  177.4530  148.6780 C   0  0  0  0  0  1  0  0  0  0  0  0
  191.1160  176.5810  146.3150 C   0  0  0  0  0  0  0  0  0  0  0  0
  194.7140  175.8560  145.7970 C   0  0  0  0  0  3  0  0  0  0  0  0
  191.9100  173.8830  144.8150 O   0  0  0  0  0  1  0  0  0  0  0  0
  186.6400  177.6060  146.7230 C   0  0  0  0  0  3  0  0  0  0  0  0
  187.6400  177.0900  145.8910 C   0  0  0  0  0  0  0  0  0  0  0  0
  192.0250  174.9420  143.9090 C   0  0  2  0  0  3  0  0  0  0  0  0
  188.6830  174.6270  140.4140 O   0  0  0  0  0  0  0  0  0  0  0  0
  188.3320  173.0020  138.7150 C   0  0  0  0  0  1  0  0  0  0  0  0
  188.3070  173.2990  140.1990 C   0  0  0  0  0  2  0  0  0  0  0  0
  1  4  2  0  0  0  0
  1 19  1  0  0  0  0
  2 19  1  0  0  0  0
  2 13  2  0  0  0  0
  4 20  1  0  0  0  0
  5  1  1  0  0  0  0
  6  8  2  0  0  0  0
  7 15  1  1  0  0  0
  7  9  1  0  0  0  0
  8 12  1  0  0  0  0
  9 22  1  0  0  0  0
  9 14  1  0  0  0  0
 10  3  2  0  0  0  0
 10 21  1  0  0  0  0
 11 28  1  6  0  0  0
 11  8  1  0  0  0  0
 11  5  1  0  0  0  0
 12 27  1  0  0  0  0
 12  4  1  0  0  0  0
 13 18  1  0  0  0  0
 15 23  2  0  0  0  0
 16  2  1  0  0  0  0
 17  3  1  0  0  0  0
 18 25  2  0  0  0  0
 19 26  1  0  0  0  0
 20 22  2  0  0  0  0
 20 17  1  0  0  0  0
 22 10  1  0  0  0  0
 23 14  1  0  0  0  0
 26 17  2  0  0  0  0
 26 25  1  0  0  0  0
 27  7  1  0  0  0  0
 27 24  1  1  0  0  0
 29 30  1  0  0  0  0
 30 28  1  0  0  0  0
M  END
>  <MODEL>
4

>  <REMARK>
 VINA RESULT:      -8.0      2.247      3.447
  Name = 
  2 active torsions:
  status: ('A' for Active; 'I' for Inactive)
    1  A    between atoms: C_11  and  O_28
    2  A    between atoms: O_28  and  C_30
                            x       y       z     vdW  Elec       q    Type
                         _______ _______ _______ _____ _____    ______ ____

>  <TORSDO>
F 2

$$$$
=
 OpenBabel11112416263D

 30 35  0  0  1  0  0  0  0  0999 V2000
  189.6030  175.0180  144.1810 C   0  0  0  0  0  0  0  0  0  0  0  0
  191.1130  173.4350  143.1320 C   0  0  0  0  0  0  0  0  0  0  0  0
  187.8140  175.8610  140.5770 N   0  0  0  0  0  0  0  0  0  0  0  0
  188.4870  175.9060  144.1200 C   0  0  0  0  0  0  0  0  0  0  0  0
  190.3450  174.9560  145.4930 C   0  0  0  0  0  2  0  0  0  0  0  0
  188.0510  176.5840  147.6810 O   0  0  0  0  0  0  0  0  0  0  0  0
  186.7010  178.4310  144.4470 C   0  0  1  0  0  3  0  0  0  0  0  0
  188.4480  176.0410  146.6140 C   0  0  0  0  0  0  0  0  0  0  0  0
  186.3260  178.0410  143.1010 N   0  0  0  0  0  0  0  0  0  0  0  0
  186.9330  176.8040  140.9810 C   0  0  0  0  0  0  0  0  0  0  0  0
  189.3980  174.8840  146.6770 C   0  0  2  0  0  3  0  0  0  0  0  0
  187.9250  176.4660  145.3420 N   0  0  0  0  0  0  0  0  0  0  0  0
  191.5810  172.7710  141.9960 C   0  0  0  0  0  3  0  0  0  0  0  0
  185.1560  178.7740  142.6500 C   0  0  0  0  0  2  0  0  0  0  0  0
  185.6500  179.4170  144.8300 C   0  0  0  0  0  3  0  0  0  0  0  0
  191.7110  173.1140  144.3070 F   0  0  0  0  0  0  0  0  0  0  0  0
  188.4460  175.4690  141.7010 C   0  0  0  0  0  0  0  0  0  0  0  0
  191.0020  173.0110  140.7590 C   0  0  0  0  0  3  0  0  0  0  0  0
  190.0710  174.3420  143.0520 N   0  0  0  0  0  0  0  0  0  0  0  0
  187.9580  176.1570  142.8510 C   0  0  0  0  0  0  0  0  0  0  0  0
  186.0630  177.5410  140.0220 C   0  0  0  0  0  1  0  0  0  0  0  0
  187.0020  177.0220  142.3580 C   0  0  0  0  0  0  0  0  0  0  0  0
  184.7940  179.6110  143.8280 C   0  0  0  0  0  3  0  0  0  0  0  0
  185.5820  176.3890  145.1390 O   0  0  0  0  0  1  0  0  0  0  0  0
  189.9510  173.9100  140.6640 C   0  0  0  0  0  3  0  0  0  0  0  0
  189.4880  174.5640  141.8110 C   0  0  0  0  0  0  0  0  0  0  0  0
  186.6740  177.2280  145.3830 C   0  0  2  0  0  3  0  0  0  0  0  0
  190.1370  174.9160  147.8620 O   0  0  0  0  0  0  0  0  0  0  0  0
  191.5660  176.7410  148.3880 C   0  0  0  0  0  1  0  0  0  0  0  0
  191.3450  175.5240  147.5150 C   0  0  0  0  0  2  0  0  0  0  0  0
  1  5  1  0  0  0  0
  2 16  1  0  0  0  0
  3 10  2  0  0  0  0
  3 17  1  0  0  0  0
  4  1  2  0  0  0  0
  4 12  1  0  0  0  0
  5 11  1  0  0  0  0
  7 15  1  1  0  0  0
  7 27  1  0  0  0  0
  8 11  1  0  0  0  0
  8  6  2  0  0  0  0
  9  7  1  0  0  0  0
 10 22  1  0  0  0  0
 11 28  1  1  0  0  0
 12 27  1  0  0  0  0
 12  8  1  0  0  0  0
 13  2  2  0  0  0  0
 14  9  1  0  0  0  0
 14 23  1  0  0  0  0
 17 26  2  0  0  0  0
 17 20  1  0  0  0  0
 18 13  1  0  0  0  0
 19  2  1  0  0  0  0
 19  1  1  0  0  0  0
 20  4  1  0  0  0  0
 21 10  1  0  0  0  0
 22 20  2  0  0  0  0
 22  9  1  0  0  0  0
 23 15  2  0  0  0  0
 25 18  2  0  0  0  0
 25 26  1  0  0  0  0
 26 19  1  0  0  0  0
 27 24  1  6  0  0  0
 30 28  1  0  0  0  0
 30 29  1  0  0  0  0
M  END
>  <MODEL>
5

>  <REMARK>
 VINA RESULT:      -7.8      2.862      7.261
  Name = 
  2 active torsions:
  status: ('A' for Active; 'I' for Inactive)
    1  A    between atoms: C_11  and  O_28
    2  A    between atoms: O_28  and  C_30
                            x       y       z     vdW  Elec       q    Type
                         _______ _______ _______ _____ _____    ______ ____

>  <TORSDO>
F 2

$$$$
=
 OpenBabel11112416263D

 30 35  0  0  1  0  0  0  0  0999 V2000
  189.9690  175.2630  143.9340 C   0  0  0  0  0  0  0  0  0  0  0  0
  190.6260  174.1410  141.8860 C   0  0  0  0  0  0  0  0  0  0  0  0
  186.3750  176.3910  142.2880 N   0  0  0  0  0  0  0  0  0  0  0  0
  189.0010  175.9560  144.7220 C   0  0  0  0  0  0  0  0  0  0  0  0
  191.3410  175.1050  144.5390 C   0  0  0  0  0  2  0  0  0  0  0  0
  190.7190  175.9540  147.9440 O   0  0  0  0  0  0  0  0  0  0  0  0
  187.6630  178.0680  146.5710 C   0  0  1  0  0  3  0  0  0  0  0  0
  190.4310  175.6670  146.7490 C   0  0  0  0  0  0  0  0  0  0  0  0
  186.5830  177.8520  145.6290 N   0  0  0  0  0  0  0  0  0  0  0  0
  185.8680  177.0990  143.3230 C   0  0  0  0  0  0  0  0  0  0  0  0
  191.2750  174.6850  145.9950 C   0  0  2  0  0  3  0  0  0  0  0  0
  189.2470  176.2070  146.1360 N   0  0  0  0  0  0  0  0  0  0  0  0
  190.3590  173.7590  140.5690 C   0  0  0  0  0  3  0  0  0  0  0  0
  185.3470  178.4500  146.1030 C   0  0  0  0  0  2  0  0  0  0  0  0
  187.0060  178.7940  147.6950 C   0  0  0  0  0  3  0  0  0  0  0  0
  191.8120  173.7310  142.4040 F   0  0  0  0  0  0  0  0  0  0  0  0
  187.5600  175.9250  142.7300 C   0  0  0  0  0  0  0  0  0  0  0  0
  189.1560  174.1050  139.9740 C   0  0  0  0  0  3  0  0  0  0  0  0
  189.7060  174.8680  142.6210 N   0  0  0  0  0  0  0  0  0  0  0  0
  187.8190  176.3250  144.0750 C   0  0  0  0  0  0  0  0  0  0  0  0
  184.5770  177.8340  143.2260 C   0  0  0  0  0  1  0  0  0  0  0  0
  186.7270  177.0930  144.4240 C   0  0  0  0  0  0  0  0  0  0  0  0
  185.7190  179.0100  147.4320 C   0  0  0  0  0  3  0  0  0  0  0  0
  187.2360  175.7860  147.2850 O   0  0  0  0  0  1  0  0  0  0  0  0
  188.2200  174.8250  140.6990 C   0  0  0  0  0  3  0  0  0  0  0  0
  188.4980  175.1960  142.0200 C   0  0  0  0  0  0  0  0  0  0  0  0
  188.2330  176.7380  147.0510 C   0  0  2  0  0  3  0  0  0  0  0  0
  192.5690  174.6390  146.5220 O   0  0  0  0  0  0  0  0  0  0  0  0
  194.2880  176.2790  146.4600 C   0  0  0  0  0  1  0  0  0  0  0  0
  193.3370  175.4180  145.6560 C   0  0  0  0  0  2  0  0  0  0  0  0
  1  5  1  0  0  0  0
  1  4  2  0  0  0  0
  2 16  1  0  0  0  0
  2 19  1  0  0  0  0
  3 17  1  0  0  0  0
  3 10  2  0  0  0  0
  4 12  1  0  0  0  0
  5 11  1  0  0  0  0
  7 27  1  0  0  0  0
  7 15  1  1  0  0  0
  8  6  2  0  0  0  0
  9 14  1  0  0  0  0
  9  7  1  0  0  0  0
 10 22  1  0  0  0  0
 11 28  1  1  0  0  0
 11  8  1  0  0  0  0
 12  8  1  0  0  0  0
 12 27  1  0  0  0  0
 13  2  2  0  0  0  0
 14 23  1  0  0  0  0
 17 20  1  0  0  0  0
 18 13  1  0  0  0  0
 18 25  2  0  0  0  0
 19  1  1  0  0  0  0
 20 22  2  0  0  0  0
 20  4  1  0  0  0  0
 21 10  1  0  0  0  0
 22  9  1  0  0  0  0
 23 15  2  0  0  0  0
 25 26  1  0  0  0  0
 26 19  1  0  0  0  0
 26 17  2  0  0  0  0
 27 24  1  6  0  0  0
 30 29  1  0  0  0  0
 30 28  1  0  0  0  0
M  END
>  <MODEL>
6

>  <REMARK>
 VINA RESULT:      -7.6      3.119      7.214
  Name = 
  2 active torsions:
  status: ('A' for Active; 'I' for Inactive)
    1  A    between atoms: C_11  and  O_28
    2  A    between atoms: O_28  and  C_30
                            x       y       z     vdW  Elec       q    Type
                         _______ _______ _______ _____ _____    ______ ____

>  <TORSDO>
F 2

$$$$
=
 OpenBabel11112416263D

 30 35  0  0  1  0  0  0  0  0999 V2000
  187.5550  176.6010  143.6880 C   0  0  0  0  0  0  0  0  0  0  0  0
  185.9850  178.1530  142.6820 C   0  0  0  0  0  0  0  0  0  0  0  0
  188.3590  174.8880  140.0380 N   0  0  0  0  0  0  0  0  0  0  0  0
  188.5440  175.5760  143.5730 C   0  0  0  0  0  0  0  0  0  0  0  0
  187.1540  176.9980  145.0860 C   0  0  0  0  0  2  0  0  0  0  0  0
  189.7500  175.5060  147.0190 O   0  0  0  0  0  0  0  0  0  0  0  0
  190.1290  172.9400  144.0250 C   0  0  1  0  0  3  0  0  0  0  0  0
  189.1600  175.8940  145.9730 C   0  0  0  0  0  0  0  0  0  0  0  0
  190.2070  173.0250  142.5800 N   0  0  0  0  0  0  0  0  0  0  0  0
  189.2260  173.9250  140.4300 C   0  0  0  0  0  0  0  0  0  0  0  0
  188.3560  177.1580  145.9970 C   0  0  2  0  0  3  0  0  0  0  0  0
  189.3280  175.1790  144.7360 N   0  0  0  0  0  0  0  0  0  0  0  0
  185.3210  178.6550  141.5610 C   0  0  0  0  0  3  0  0  0  0  0  0
  191.1680  172.0740  142.0500 C   0  0  0  0  0  2  0  0  0  0  0  0
  191.1500  171.9090  144.3690 C   0  0  0  0  0  3  0  0  0  0  0  0
  185.7120  178.7580  143.8660 F   0  0  0  0  0  0  0  0  0  0  0  0
  188.0490  175.5580  141.1660 C   0  0  0  0  0  0  0  0  0  0  0  0
  185.5670  178.1190  140.3060 C   0  0  0  0  0  3  0  0  0  0  0  0
  186.8950  177.1170  142.5700 N   0  0  0  0  0  0  0  0  0  0  0  0
  188.7330  175.0310  142.3010 C   0  0  0  0  0  0  0  0  0  0  0  0
  189.7760  172.9180  139.4810 C   0  0  0  0  0  1  0  0  0  0  0  0
  189.4660  173.9730  141.8040 C   0  0  0  0  0  0  0  0  0  0  0  0
  191.7250  171.4250  143.2700 C   0  0  0  0  0  3  0  0  0  0  0  0
  191.5540  174.9070  144.0230 O   0  0  0  0  0  1  0  0  0  0  0  0
  186.4830  177.0870  140.1760 C   0  0  0  0  0  3  0  0  0  0  0  0
  187.1450  176.5970  141.3070 C   0  0  0  0  0  0  0  0  0  0  0  0
  190.4810  174.2790  144.6630 C   0  0  2  0  0  3  0  0  0  0  0  0
  187.9190  177.4410  147.2940 O   0  0  0  0  0  0  0  0  0  0  0  0
  186.2640  179.0400  147.8890 C   0  0  0  0  0  1  0  0  0  0  0  0
  186.5650  177.7500  147.1560 C   0  0  0  0  0  2  0  0  0  0  0  0
  1  5  1  0  0  0  0
  2 16  1  0  0  0  0
  3 10  2  0  0  0  0
  3 17  1  0  0  0  0
  4  1  2  0  0  0  0
  4 12  1  0  0  0  0
  5 11  1  0  0  0  0
  7 15  1  1  0  0  0
  7 27  1  0  0  0  0
  8 11  1  0  0  0  0
  8  6  2  0  0  0  0
  9  7  1  0  0  0  0
 10 22  1  0  0  0  0
 11 28  1  1  0  0  0
 12  8  1  0  0  0  0
 13  2  2  0  0  0  0
 14  9  1  0  0  0  0
 14 23  1  0  0  0  0
 17 26  2  0  0  0  0
 17 20  1  0  0  0  0
 18 13  1  0  0  0  0
 19  2  1  0  0  0  0
 19  1  1  0  0  0  0
 20  4  1  0  0  0  0
 21 10  1  0  0  0  0
 22 20  2  0  0  0  0
 22  9  1  0  0  0  0
 23 15  2  0  0  0  0
 25 18  2  0  0  0  0
 25 26  1  0  0  0  0
 26 19  1  0  0  0  0
 27 24  1  6  0  0  0
 27 12  1  0  0  0  0
 30 28  1  0  0  0  0
 30 29  1  0  0  0  0
M  END
>  <MODEL>
7

>  <REMARK>
 VINA RESULT:      -7.6      2.458      5.048
  Name = 
  2 active torsions:
  status: ('A' for Active; 'I' for Inactive)
    1  A    between atoms: C_11  and  O_28
    2  A    between atoms: O_28  and  C_30
                            x       y       z     vdW  Elec       q    Type
                         _______ _______ _______ _____ _____    ______ ____

>  <TORSDO>
F 2

$$$$
=
 OpenBabel11112416263D

 30 35  0  0  1  0  0  0  0  0999 V2000
  189.1110  176.3550  144.7890 C   0  0  0  0  0  0  0  0  0  0  0  0
  190.0490  176.9390  146.9490 C   0  0  0  0  0  0  0  0  0  0  0  0
  191.8920  173.3720  144.2700 N   0  0  0  0  0  0  0  0  0  0  0  0
  189.0550  175.5080  143.6410 C   0  0  0  0  0  0  0  0  0  0  0  0
  188.2110  177.5650  144.7790 C   0  0  0  0  0  2  0  0  0  0  0  0
  186.0100  176.7900  142.0850 O   0  0  0  0  0  0  0  0  0  0  0  0
  188.9570  174.5410  140.6870 C   0  0  1  0  0  3  0  0  0  0  0  0
  186.9070  176.5780  142.9480 C   0  0  0  0  0  0  0  0  0  0  0  0
  189.8690  173.5560  141.2340 N   0  0  0  0  0  0  0  0  0  0  0  0
  191.5330  172.9440  143.0380 C   0  0  0  0  0  0  0  0  0  0  0  0
  186.8130  177.2290  144.2930 C   0  0  2  0  0  3  0  0  0  0  0  0
  187.9690  175.6450  142.6790 N   0  0  0  0  0  0  0  0  0  0  0  0
  190.9910  176.7370  147.9600 C   0  0  0  0  0  3  0  0  0  0  0  0
  190.0830  172.4650  140.3010 C   0  0  0  0  0  2  0  0  0  0  0  0
  188.5690  173.9630  139.3690 C   0  0  0  0  0  3  0  0  0  0  0  0
  189.1320  177.9160  147.1660 F   0  0  0  0  0  0  0  0  0  0  0  0
  191.0080  174.3440  144.5740 C   0  0  0  0  0  0  0  0  0  0  0  0
  191.9420  175.7350  147.8370 C   0  0  0  0  0  3  0  0  0  0  0  0
  190.0420  176.1530  145.8100 N   0  0  0  0  0  0  0  0  0  0  0  0
  190.0550  174.5390  143.5310 C   0  0  0  0  0  0  0  0  0  0  0  0
  192.2990  171.8990  142.3060 C   0  0  0  0  0  1  0  0  0  0  0  0
  190.4260  173.6420  142.5500 C   0  0  0  0  0  0  0  0  0  0  0  0
  189.1990  172.8100  139.1520 C   0  0  0  0  0  3  0  0  0  0  0  0
  187.2790  173.4760  142.0830 O   0  0  0  0  0  1  0  0  0  0  0  0
  191.9430  174.9340  146.7070 C   0  0  0  0  0  3  0  0  0  0  0  0
  190.9900  175.1430  145.7040 C   0  0  0  0  0  0  0  0  0  0  0  0
  187.7340  174.7000  141.5840 C   0  0  2  0  0  3  0  0  0  0  0  0
  186.0540  178.4000  144.2250 O   0  0  0  0  0  0  0  0  0  0  0  0
  184.4370  178.6370  145.9510 C   0  0  0  0  0  1  0  0  0  0  0  0
  185.8890  178.7980  145.5520 C   0  0  0  0  0  2  0  0  0  0  0  0
  1 19  1  0  0  0  0
  2 16  1  0  0  0  0
  2 13  2  0  0  0  0
  3 17  1  0  0  0  0
  4  1  2  0  0  0  0
  5  1  1  0  0  0  0
  6  8  2  0  0  0  0
  7 15  1  6  0  0  0
  7  9  1  0  0  0  0
  7 27  1  0  0  0  0
  8 11  1  0  0  0  0
  9 22  1  0  0  0  0
 10  3  2  0  0  0  0
 11 28  1  6  0  0  0
 11  5  1  0  0  0  0
 12  8  1  0  0  0  0
 12  4  1  0  0  0  0
 14  9  1  0  0  0  0
 17 26  2  0  0  0  0
 18 13  1  0  0  0  0
 19  2  1  0  0  0  0
 20  4  1  0  0  0  0
 20 17  1  0  0  0  0
 21 10  1  0  0  0  0
 22 10  1  0  0  0  0
 22 20  2  0  0  0  0
 23 15  2  0  0  0  0
 23 14  1  0  0  0  0
 25 18  2  0  0  0  0
 26 19  1  0  0  0  0
 26 25  1  0  0  0  0
 27 24  1  1  0  0  0
 27 12  1  0  0  0  0
 28 30  1  0  0  0  0
 30 29  1  0  0  0  0
M  END
>  <MODEL>
8

>  <REMARK>
 VINA RESULT:      -7.5      2.318      4.557
  Name = 
  2 active torsions:
  status: ('A' for Active; 'I' for Inactive)
    1  A    between atoms: C_11  and  O_28
    2  A    between atoms: O_28  and  C_30
                            x       y       z     vdW  Elec       q    Type
                         _______ _______ _______ _____ _____    ______ ____

>  <TORSDO>
F 2

$$$$
=
 OpenBabel11112416263D

 30 35  0  0  1  0  0  0  0  0999 V2000
  188.4570  175.7510  143.2010 C   0  0  0  0  0  0  0  0  0  0  0  0
  188.2630  176.4260  145.5240 C   0  0  0  0  0  0  0  0  0  0  0  0
  190.6450  172.4300  144.2410 N   0  0  0  0  0  0  0  0  0  0  0  0
  188.8580  174.8100  142.2050 C   0  0  0  0  0  0  0  0  0  0  0  0
  187.8750  177.0510  142.7060 C   0  0  0  0  0  2  0  0  0  0  0  0
  187.2300  176.2830  139.2860 O   0  0  0  0  0  0  0  0  0  0  0  0
  190.1080  173.5830  139.6360 C   0  0  1  0  0  3  0  0  0  0  0  0
  187.5310  176.0510  140.4900 C   0  0  0  0  0  0  0  0  0  0  0  0
  190.4660  172.5560  140.5940 N   0  0  0  0  0  0  0  0  0  0  0  0
  190.8910  171.9300  143.0070 C   0  0  0  0  0  0  0  0  0  0  0  0
  186.8750  176.8350  141.5850 C   0  0  2  0  0  3  0  0  0  0  0  0
  188.4330  174.9800  140.8210 N   0  0  0  0  0  0  0  0  0  0  0  0
  188.5300  176.2150  146.8780 C   0  0  0  0  0  3  0  0  0  0  0  0
  190.9530  171.3620  139.9260 C   0  0  0  0  0  2  0  0  0  0  0  0
  190.3510  172.9300  138.3180 C   0  0  0  0  0  3  0  0  0  0  0  0
  187.5180  177.5200  145.2200 F   0  0  0  0  0  0  0  0  0  0  0  0
  189.8840  173.5220  144.0290 C   0  0  0  0  0  0  0  0  0  0  0  0
  189.2540  175.1020  147.2800 C   0  0  0  0  0  3  0  0  0  0  0  0
  188.7100  175.5410  144.5590 N   0  0  0  0  0  0  0  0  0  0  0  0
  189.6210  173.7260  142.6420 C   0  0  0  0  0  0  0  0  0  0  0  0
  191.7560  170.7370  142.7920 C   0  0  0  0  0  1  0  0  0  0  0  0
  190.2960  172.7020  142.0080 C   0  0  0  0  0  0  0  0  0  0  0  0
  190.8250  171.6970  138.4800 C   0  0  0  0  0  3  0  0  0  0  0  0
  187.8200  172.8580  140.0080 O   0  0  0  0  0  1  0  0  0  0  0  0
  189.7020  174.2010  146.3260 C   0  0  0  0  0  3  0  0  0  0  0  0
  189.4210  174.4230  144.9730 C   0  0  0  0  0  0  0  0  0  0  0  0
  188.6400  173.9680  139.7820 C   0  0  2  0  0  3  0  0  0  0  0  0
  186.4370  178.0740  141.1120 O   0  0  0  0  0  0  0  0  0  0  0  0
  184.1450  178.3050  140.5240 C   0  0  0  0  0  1  0  0  0  0  0  0
  185.1570  178.2290  141.6480 C   0  0  0  0  0  2  0  0  0  0  0  0
  1 19  1  0  0  0  0
  2 13  2  0  0  0  0
  4 20  1  0  0  0  0
  4  1  2  0  0  0  0
  5  1  1  0  0  0  0
  6  8  2  0  0  0  0
  7 15  1  6  0  0  0
  7 27  1  0  0  0  0
  7  9  1  0  0  0  0
  8 12  1  0  0  0  0
  8 11  1  0  0  0  0
  9 22  1  0  0  0  0
 10  3  2  0  0  0  0
 11 28  1  6  0  0  0
 11  5  1  0  0  0  0
 12  4  1  0  0  0  0
 13 18  1  0  0  0  0
 14  9  1  0  0  0  0
 15 23  2  0  0  0  0
 16  2  1  0  0  0  0
 17  3  1  0  0  0  0
 17 26  2  0  0  0  0
 19 26  1  0  0  0  0
 19  2  1  0  0  0  0
 20 17  1  0  0  0  0
 21 10  1  0  0  0  0
 22 20  2  0  0  0  0
 22 10  1  0  0  0  0
 23 14  1  0  0  0  0
 25 18  2  0  0  0  0
 26 25  1  0  0  0  0
 27 24  1  1  0  0  0
 27 12  1  0  0  0  0
 28 30  1  0  0  0  0
 29 30  1  0  0  0  0
M  END
>  <MODEL>
9

>  <REMARK>
 VINA RESULT:      -7.4      2.507      3.924
  Name = 
  2 active torsions:
  status: ('A' for Active; 'I' for Inactive)
    1  A    between atoms: C_11  and  O_28
    2  A    between atoms: O_28  and  C_30
                            x       y       z     vdW  Elec       q    Type
                         _______ _______ _______ _____ _____    ______ ____

>  <TORSDO>
F 2

$$$$
