=
 OpenBabel11112417093D

 37 43  0  0  1  0  0  0  0  0999 V2000
  192.9270  171.7120  142.8330 C   0  0  0  0  0  2  0  0  0  0  0  0
  196.7230  174.8430  139.8490 C   0  0  0  0  0  0  0  0  0  0  0  0
  194.8850  175.1560  143.6980 C   0  0  1  0  0  3  0  0  0  0  0  0
  191.9440  170.5210  142.7810 C   0  0  2  0  0  3  0  0  0  0  0  0
  191.1500  175.9490  142.5230 S   0  0  0  0  0  0  0  0  0  0  0  0
  196.8280  175.7160  142.2620 C   0  0  2  0  0  3  0  0  0  0  0  0
  193.5020  174.5150  143.4670 C   0  0  1  0  0  3  0  0  0  0  0  0
  189.8560  172.0620  142.9070 N   0  0  0  0  0  0  0  0  0  0  0  0
  195.3700  175.3720  142.3070 C   0  0  1  0  0  3  0  0  0  0  0  0
  192.2110  175.2870  143.8650 C   0  0  1  0  0  3  0  0  0  0  0  0
  197.0160  176.8870  143.0690 O   0  0  0  0  0  0  0  0  0  0  0  0
  190.4530  170.7990  142.4150 C   0  0  0  0  0  2  0  0  0  0  0  0
  195.0040  174.1400  141.5650 C   0  0  2  0  0  3  0  0  0  0  0  0
  197.6320  173.6370  140.0270 C   0  0  0  0  0  1  0  0  0  0  0  0
  194.4820  176.6760  145.8380 C   0  0  0  0  0  2  0  0  0  0  0  0
  196.2200  177.1550  144.2080 C   0  0  0  0  0  3  0  0  0  0  0  0
  195.2480  174.4310  140.0870 C   0  0  0  0  0  2  0  0  0  0  0  0
  190.6480  173.2370  142.5290 C   0  0  2  0  0  3  0  0  0  0  0  0
  189.9270  174.5760  142.6090 C   0  0  0  0  0  2  0  0  0  0  0  0
  195.1500  176.3980  144.5260 C   0  0  0  0  0  0  0  0  0  0  0  0
  193.5500  174.0420  141.9830 C   0  0  1  0  0  3  0  0  0  0  0  0
  197.1780  175.9860  140.7920 C   0  0  0  0  0  2  0  0  0  0  0  0
  192.1720  176.1210  145.1490 C   0  0  2  0  0  3  0  0  0  0  0  0
  196.8560  175.3240  138.4200 C   0  0  0  0  0  1  0  0  0  0  0  0
  191.4430  173.0550  141.2430 C   0  0  0  0  0  2  0  0  0  0  0  0
  189.7910  172.0020  144.3600 C   0  0  0  0  0  1  0  0  0  0  0  0
  192.8680  172.7070  141.6490 C   0  0  2  0  0  3  0  0  0  0  0  0
  193.2910  175.7790  146.1180 C   0  0  0  0  0  2  0  0  0  0  0  0
  190.5100  174.8630  146.5780 C   0  0  0  0  0  3  0  0  0  0  0  0
  190.8410  175.9990  145.8220 C   0  0  0  0  0  0  0  0  0  0  0  0
  189.9040  177.0280  145.6750 C   0  0  0  0  0  3  0  0  0  0  0  0
  187.7440  177.9250  146.1350 F   0  0  0  0  0  0  0  0  0  0  0  0
  188.3230  175.7940  147.0330 C   0  0  0  0  0  3  0  0  0  0  0  0
  188.6470  176.9270  146.2800 C   0  0  0  0  0  0  0  0  0  0  0  0
  189.2540  174.7620  147.1820 C   0  0  0  0  0  3  0  0  0  0  0  0
  193.3370  169.9360  144.3990 C   0  0  0  0  0  1  0  0  0  0  0  0
  192.0120  169.8100  143.9810 O   0  0  0  0  0  0  0  0  0  0  0  0
  2 14  1  0  0  0  0
  2 17  1  0  0  0  0
  2 22  1  0  0  0  0
  3 20  1  6  0  0  0
  4  1  1  0  0  0  0
  4 37  1  1  0  0  0
  5 19  1  0  0  0  0
  5 10  1  0  0  0  0
  6 22  1  6  0  0  0
  6  9  1  0  0  0  0
  6 11  1  0  0  0  0
  7  3  1  0  0  0  0
  7 10  1  0  0  0  0
  8 26  1  0  0  0  0
  9  3  1  0  0  0  0
 10 23  1  0  0  0  0
 11 16  1  0  0  0  0
 12  4  1  0  0  0  0
 12  8  1  0  0  0  0
 13 21  1  0  0  0  0
 13  9  1  0  0  0  0
 15 28  1  0  0  0  0
 16 20  2  0  0  0  0
 17 13  1  0  0  0  0
 18 19  1  0  0  0  0
 18  8  1  0  0  0  0
 20 15  1  0  0  0  0
 21  7  1  0  0  0  0
 23 30  1  0  0  0  0
 23 28  1  0  0  0  0
 24  2  1  0  0  0  0
 25 27  1  0  0  0  0
 25 18  1  0  0  0  0
 27 21  1  0  0  0  0
 27  1  1  0  0  0  0
 29 35  1  0  0  0  0
 30 29  2  0  0  0  0
 31 30  1  0  0  0  0
 31 34  2  0  0  0  0
 32 34  1  0  0  0  0
 33 35  2  0  0  0  0
 34 33  1  0  0  0  0
 37 36  1  0  0  0  0
M  END
>  <MODEL>
1

>  <REMARK>
 VINA RESULT:      -8.0      0.000      0.000
  Name = 
  2 active torsions:
  status: ('A' for Active; 'I' for Inactive)
    1  A    between atoms: C_4  and  O_37
    2  A    between atoms: C_23  and  C_30
                            x       y       z     vdW  Elec       q    Type
                         _______ _______ _______ _____ _____    ______ ____

>  <TORSDO>
F 2

$$$$
=
 OpenBabel11112417093D

 37 43  0  0  1  0  0  0  0  0999 V2000
  194.4630  174.6320  143.9780 C   0  0  0  0  0  2  0  0  0  0  0  0
  194.2780  169.0120  145.2030 C   0  0  0  0  0  0  0  0  0  0  0  0
  192.1160  171.6270  142.5990 C   0  0  1  0  0  3  0  0  0  0  0  0
  195.0710  175.9970  144.3690 C   0  0  2  0  0  3  0  0  0  0  0  0
  190.1590  173.7500  145.3610 S   0  0  0  0  0  0  0  0  0  0  0  0
  192.8870  169.3160  143.0650 C   0  0  2  0  0  3  0  0  0  0  0  0
  192.1320  172.9620  143.3680 C   0  0  1  0  0  3  0  0  0  0  0  0
  192.8150  176.8920  145.2960 N   0  0  0  0  0  0  0  0  0  0  0  0
  192.5380  170.6540  143.6440 C   0  0  1  0  0  3  0  0  0  0  0  0
  190.8000  173.7190  143.6420 C   0  0  1  0  0  3  0  0  0  0  0  0
  191.7350  168.8470  142.3490 O   0  0  0  0  0  0  0  0  0  0  0  0
  194.2940  176.9000  145.3760 C   0  0  0  0  0  2  0  0  0  0  0  0
  193.6460  171.3170  144.3760 C   0  0  2  0  0  3  0  0  0  0  0  0
  195.6510  168.9770  144.5510 C   0  0  0  0  0  1  0  0  0  0  0  0
  190.0290  171.9040  140.9790 C   0  0  0  0  0  2  0  0  0  0  0  0
  190.8370  169.7290  141.7030 C   0  0  0  0  0  3  0  0  0  0  0  0
  193.9240  170.4650  145.6110 C   0  0  0  0  0  2  0  0  0  0  0  0
  192.2600  175.5360  145.3720 C   0  0  2  0  0  3  0  0  0  0  0  0
  190.7810  175.4440  145.7200 C   0  0  0  0  0  2  0  0  0  0  0  0
  190.9300  171.0680  141.8350 C   0  0  0  0  0  0  0  0  0  0  0  0
  192.9820  172.6540  144.6380 C   0  0  1  0  0  3  0  0  0  0  0  0
  193.2270  168.3950  144.2440 C   0  0  0  0  0  2  0  0  0  0  0  0
  189.7030  173.7660  142.5740 C   0  0  2  0  0  3  0  0  0  0  0  0
  194.3320  168.1670  146.4570 C   0  0  0  0  0  1  0  0  0  0  0  0
  193.1270  174.5600  146.1560 C   0  0  0  0  0  2  0  0  0  0  0  0
  192.4230  177.4760  144.0220 C   0  0  0  0  0  1  0  0  0  0  0  0
  193.9250  173.7590  145.1370 C   0  0  2  0  0  3  0  0  0  0  0  0
  190.2010  173.3970  141.1880 C   0  0  0  0  0  2  0  0  0  0  0  0
  189.7870  176.2850  142.3910 C   0  0  0  0  0  3  0  0  0  0  0  0
  189.0400  175.1080  142.5520 C   0  0  0  0  0  0  0  0  0  0  0  0
  187.6520  175.1870  142.7170 C   0  0  0  0  0  3  0  0  0  0  0  0
  185.6710  176.5030  142.8770 F   0  0  0  0  0  0  0  0  0  0  0  0
  187.7630  177.6010  142.5560 C   0  0  0  0  0  3  0  0  0  0  0  0
  187.0140  176.4310  142.7180 C   0  0  0  0  0  0  0  0  0  0  0  0
  189.1490  177.5280  142.3930 C   0  0  0  0  0  3  0  0  0  0  0  0
  196.7600  176.7860  143.1740 C   0  0  0  0  0  1  0  0  0  0  0  0
  195.3660  176.7230  143.2130 O   0  0  0  0  0  0  0  0  0  0  0  0
  1  4  1  0  0  0  0
  1 27  1  0  0  0  0
  2 17  1  0  0  0  0
  2 24  1  0  0  0  0
  3 20  1  1  0  0  0
  3  7  1  0  0  0  0
  3  9  1  0  0  0  0
  4 37  1  6  0  0  0
  4 12  1  0  0  0  0
  5 19  1  0  0  0  0
  6  9  1  0  0  0  0
  6 22  1  1  0  0  0
  7 10  1  0  0  0  0
  7 21  1  0  0  0  0
  8 18  1  0  0  0  0
  8 12  1  0  0  0  0
  9 13  1  0  0  0  0
 10  5  1  0  0  0  0
 11  6  1  0  0  0  0
 13 21  1  0  0  0  0
 13 17  1  0  0  0  0
 14  2  1  0  0  0  0
 15 28  1  0  0  0  0
 15 20  1  0  0  0  0
 16 20  2  0  0  0  0
 16 11  1  0  0  0  0
 18 19  1  0  0  0  0
 18 25  1  0  0  0  0
 21 27  1  0  0  0  0
 22  2  1  0  0  0  0
 23 10  1  0  0  0  0
 26  8  1  0  0  0  0
 27 25  1  0  0  0  0
 28 23  1  0  0  0  0
 29 35  2  0  0  0  0
 29 30  1  0  0  0  0
 30 23  1  0  0  0  0
 30 31  2  0  0  0  0
 31 34  1  0  0  0  0
 33 34  2  0  0  0  0
 34 32  1  0  0  0  0
 35 33  1  0  0  0  0
 36 37  1  0  0  0  0
M  END
>  <MODEL>
2

>  <REMARK>
 VINA RESULT:      -7.6      2.452      6.174
  Name = 
  2 active torsions:
  status: ('A' for Active; 'I' for Inactive)
    1  A    between atoms: C_4  and  O_37
    2  A    between atoms: C_23  and  C_30
                            x       y       z     vdW  Elec       q    Type
                         _______ _______ _______ _____ _____    ______ ____

>  <TORSDO>
F 2

$$$$
=
 OpenBabel11112417093D

 37 43  0  0  1  0  0  0  0  0999 V2000
  190.4570  173.3000  142.8310 C   0  0  0  0  0  2  0  0  0  0  0  0
  195.7550  175.5030  143.2790 C   0  0  0  0  0  0  0  0  0  0  0  0
  192.1790  175.6870  145.6200 C   0  0  1  0  0  3  0  0  0  0  0  0
  189.4760  172.5300  141.9190 C   0  0  2  0  0  3  0  0  0  0  0  0
  189.9390  177.8660  143.1310 S   0  0  0  0  0  0  0  0  0  0  0  0
  194.6550  175.8320  145.5770 C   0  0  2  0  0  3  0  0  0  0  0  0
  191.0700  175.5910  144.5530 C   0  0  1  0  0  3  0  0  0  0  0  0
  187.9830  174.6200  141.5280 N   0  0  0  0  0  0  0  0  0  0  0  0
  193.3840  175.9840  144.7970 C   0  0  1  0  0  3  0  0  0  0  0  0
  189.9380  176.6570  144.5110 C   0  0  1  0  0  3  0  0  0  0  0  0
  194.5680  176.7070  146.7110 O   0  0  0  0  0  0  0  0  0  0  0  0
  188.5170  173.3440  140.9970 C   0  0  0  0  0  2  0  0  0  0  0  0
  193.2800  175.1000  143.6090 C   0  0  2  0  0  3  0  0  0  0  0  0
  196.1800  174.0550  143.4600 C   0  0  0  0  0  1  0  0  0  0  0  0
  190.9340  176.8330  147.6660 C   0  0  0  0  0  2  0  0  0  0  0  0
  193.3360  177.0060  147.3400 C   0  0  0  0  0  3  0  0  0  0  0  0
  194.3510  175.5630  142.6250 C   0  0  0  0  0  2  0  0  0  0  0  0
  189.0460  175.5180  141.9940 C   0  0  2  0  0  3  0  0  0  0  0  0
  188.6540  176.9800  142.1560 C   0  0  0  0  0  2  0  0  0  0  0  0
  192.1560  176.5980  146.8310 C   0  0  0  0  0  0  0  0  0  0  0  0
  191.8490  175.4100  143.2150 C   0  0  1  0  0  3  0  0  0  0  0  0
  195.8040  176.2380  144.6430 C   0  0  0  0  0  2  0  0  0  0  0  0
  189.3410  177.2050  145.8110 C   0  0  2  0  0  3  0  0  0  0  0  0
  196.7420  176.1690  142.3440 C   0  0  0  0  0  1  0  0  0  0  0  0
  190.3730  175.3250  141.2730 C   0  0  0  0  0  2  0  0  0  0  0  0
  187.1130  174.3180  142.6550 C   0  0  0  0  0  1  0  0  0  0  0  0
  191.2440  174.4600  142.1720 C   0  0  2  0  0  3  0  0  0  0  0  0
  189.6510  176.3430  147.0210 C   0  0  0  0  0  2  0  0  0  0  0  0
  186.9540  176.4480  146.1480 C   0  0  0  0  0  3  0  0  0  0  0  0
  187.8640  177.4060  145.6740 C   0  0  0  0  0  0  0  0  0  0  0  0
  187.3870  178.5600  145.0440 C   0  0  0  0  0  3  0  0  0  0  0  0
  185.5540  179.8790  144.2790 F   0  0  0  0  0  0  0  0  0  0  0  0
  185.1090  177.8030  145.3640 C   0  0  0  0  0  3  0  0  0  0  0  0
  186.0110  178.7600  144.8900 C   0  0  0  0  0  0  0  0  0  0  0  0
  185.5800  176.6470  145.9930 C   0  0  0  0  0  3  0  0  0  0  0  0
  189.2630  171.7400  143.9770 C   0  0  0  0  0  1  0  0  0  0  0  0
  188.7390  171.6270  142.6880 O   0  0  0  0  0  0  0  0  0  0  0  0
  2 14  1  0  0  0  0
  2 22  1  0  0  0  0
  3 20  1  1  0  0  0
  4 37  1  1  0  0  0
  4  1  1  0  0  0  0
  5 10  1  0  0  0  0
  6 22  1  6  0  0  0
  6 11  1  0  0  0  0
  7  3  1  0  0  0  0
  8 18  1  0  0  0  0
  8 26  1  0  0  0  0
  9  6  1  0  0  0  0
  9  3  1  0  0  0  0
 10  7  1  0  0  0  0
 10 23  1  0  0  0  0
 11 16  1  0  0  0  0
 12  8  1  0  0  0  0
 12  4  1  0  0  0  0
 13  9  1  0  0  0  0
 17  2  1  0  0  0  0
 17 13  1  0  0  0  0
 18 19  1  0  0  0  0
 19  5  1  0  0  0  0
 20 16  2  0  0  0  0
 20 15  1  0  0  0  0
 21 13  1  0  0  0  0
 21  7  1  0  0  0  0
 23 28  1  0  0  0  0
 24  2  1  0  0  0  0
 25 18  1  0  0  0  0
 25 27  1  0  0  0  0
 27  1  1  0  0  0  0
 27 21  1  0  0  0  0
 28 15  1  0  0  0  0
 30 23  1  0  0  0  0
 30 29  2  0  0  0  0
 31 30  1  0  0  0  0
 32 34  1  0  0  0  0
 33 35  2  0  0  0  0
 34 31  2  0  0  0  0
 34 33  1  0  0  0  0
 35 29  1  0  0  0  0
 37 36  1  0  0  0  0
M  END
>  <MODEL>
3

>  <REMARK>
 VINA RESULT:      -7.6      2.278      3.493
  Name = 
  2 active torsions:
  status: ('A' for Active; 'I' for Inactive)
    1  A    between atoms: C_4  and  O_37
    2  A    between atoms: C_23  and  C_30
                            x       y       z     vdW  Elec       q    Type
                         _______ _______ _______ _____ _____    ______ ____

>  <TORSDO>
F 2

$$$$
=
 OpenBabel11112417093D

 37 43  0  0  1  0  0  0  0  0999 V2000
  192.5990  174.5380  140.6600 C   0  0  0  0  0  2  0  0  0  0  0  0
  187.8190  176.6290  143.0870 C   0  0  0  0  0  0  0  0  0  0  0  0
  191.7780  175.7440  144.4430 C   0  0  1  0  0  3  0  0  0  0  0  0
  193.2010  173.8920  139.3910 C   0  0  2  0  0  3  0  0  0  0  0  0
  191.6230  171.7590  144.2000 S   0  0  0  0  0  0  0  0  0  0  0  0
  189.7180  177.0910  144.7530 C   0  0  2  0  0  3  0  0  0  0  0  0
  192.1790  174.5450  143.5600 C   0  0  1  0  0  3  0  0  0  0  0  0
  193.5030  171.5840  140.5440 N   0  0  0  0  0  0  0  0  0  0  0  0
  190.3060  175.8150  144.2300 C   0  0  1  0  0  3  0  0  0  0  0  0
  192.7080  173.2380  144.2180 C   0  0  1  0  0  3  0  0  0  0  0  0
  190.0500  177.1740  146.1470 O   0  0  0  0  0  0  0  0  0  0  0  0
  193.2440  172.3360  139.2950 C   0  0  0  0  0  2  0  0  0  0  0  0
  190.1060  175.5950  142.7760 C   0  0  2  0  0  3  0  0  0  0  0  0
  188.0550  177.8210  142.1720 C   0  0  0  0  0  1  0  0  0  0  0  0
  193.3960  175.5040  146.5350 C   0  0  0  0  0  2  0  0  0  0  0  0
  191.2470  176.6330  146.6720 C   0  0  0  0  0  3  0  0  0  0  0  0
  188.6070  175.4000  142.5660 C   0  0  0  0  0  2  0  0  0  0  0  0
  192.5750  171.9510  141.6190 C   0  0  2  0  0  3  0  0  0  0  0  0
  192.4770  170.9660  142.7750 C   0  0  0  0  0  2  0  0  0  0  0  0
  192.0840  175.8870  145.9210 C   0  0  0  0  0  0  0  0  0  0  0  0
  190.9570  174.3520  142.6110 C   0  0  1  0  0  3  0  0  0  0  0  0
  188.2010  177.0040  144.5430 C   0  0  0  0  0  2  0  0  0  0  0  0
  193.6400  173.3050  145.4320 C   0  0  2  0  0  3  0  0  0  0  0  0
  186.3430  176.2960  143.0530 C   0  0  0  0  0  1  0  0  0  0  0  0
  191.2200  172.4360  141.1210 C   0  0  0  0  0  2  0  0  0  0  0  0
  194.8570  171.8840  140.9860 C   0  0  0  0  0  1  0  0  0  0  0  0
  191.2530  173.9570  141.1570 C   0  0  2  0  0  3  0  0  0  0  0  0
  194.2760  174.6700  145.6230 C   0  0  0  0  0  2  0  0  0  0  0  0
  194.5640  171.0370  146.0570 C   0  0  0  0  0  3  0  0  0  0  0  0
  194.6930  172.2430  145.3520 C   0  0  0  0  0  0  0  0  0  0  0  0
  195.8340  172.4700  144.5740 C   0  0  0  0  0  3  0  0  0  0  0  0
  197.9410  171.7240  143.7450 F   0  0  0  0  0  0  0  0  0  0  0  0
  196.7050  170.3000  145.2030 C   0  0  0  0  0  3  0  0  0  0  0  0
  196.8380  171.5000  144.4990 C   0  0  0  0  0  0  0  0  0  0  0  0
  195.5680  170.0680  145.9830 C   0  0  0  0  0  3  0  0  0  0  0  0
  194.6280  175.4210  140.1190 C   0  0  0  0  0  1  0  0  0  0  0  0
  194.4750  174.4160  139.1630 O   0  0  0  0  0  0  0  0  0  0  0  0
  1 27  1  0  0  0  0
  2 22  1  0  0  0  0
  3 20  1  1  0  0  0
  4 37  1  1  0  0  0
  4  1  1  0  0  0  0
  5 10  1  0  0  0  0
  6 22  1  1  0  0  0
  6 11  1  0  0  0  0
  7 10  1  0  0  0  0
  7  3  1  0  0  0  0
  8 26  1  0  0  0  0
  8 18  1  0  0  0  0
  9  3  1  0  0  0  0
  9  6  1  0  0  0  0
 10 23  1  0  0  0  0
 11 16  1  0  0  0  0
 12  4  1  0  0  0  0
 12  8  1  0  0  0  0
 13  9  1  0  0  0  0
 14  2  1  0  0  0  0
 17 13  1  0  0  0  0
 17  2  1  0  0  0  0
 18 19  1  0  0  0  0
 19  5  1  0  0  0  0
 20 15  1  0  0  0  0
 20 16  2  0  0  0  0
 21 13  1  0  0  0  0
 21  7  1  0  0  0  0
 23 28  1  0  0  0  0
 24  2  1  0  0  0  0
 25 27  1  0  0  0  0
 25 18  1  0  0  0  0
 27 21  1  0  0  0  0
 28 15  1  0  0  0  0
 30 23  1  0  0  0  0
 30 29  2  0  0  0  0
 31 30  1  0  0  0  0
 32 34  1  0  0  0  0
 33 35  2  0  0  0  0
 34 31  2  0  0  0  0
 34 33  1  0  0  0  0
 35 29  1  0  0  0  0
 37 36  1  0  0  0  0
M  END
>  <MODEL>
4

>  <REMARK>
 VINA RESULT:      -7.6      3.361      6.453
  Name = 
  2 active torsions:
  status: ('A' for Active; 'I' for Inactive)
    1  A    between atoms: C_4  and  O_37
    2  A    between atoms: C_23  and  C_30
                            x       y       z     vdW  Elec       q    Type
                         _______ _______ _______ _____ _____    ______ ____

>  <TORSDO>
F 2

$$$$
=
 OpenBabel11112417093D

 37 43  0  0  1  0  0  0  0  0999 V2000
  194.6960  173.1550  145.3850 C   0  0  0  0  0  2  0  0  0  0  0  0
  189.6530  175.8710  145.9380 C   0  0  0  0  0  0  0  0  0  0  0  0
  191.6630  173.8110  142.7750 C   0  0  1  0  0  3  0  0  0  0  0  0
  196.0530  172.8490  146.0570 C   0  0  2  0  0  3  0  0  0  0  0  0
  194.6210  176.4200  142.1380 S   0  0  0  0  0  0  0  0  0  0  0  0
  189.5000  174.5370  143.7490 C   0  0  2  0  0  3  0  0  0  0  0  0
  193.1480  174.0900  143.0780 C   0  0  1  0  0  3  0  0  0  0  0  0
  197.3690  174.3520  144.3960 N   0  0  0  0  0  0  0  0  0  0  0  0
  190.9710  174.8050  143.6410 C   0  0  1  0  0  3  0  0  0  0  0  0
  194.0710  174.6780  141.9710 C   0  0  1  0  0  3  0  0  0  0  0  0
  188.9660  174.5410  142.4170 O   0  0  0  0  0  0  0  0  0  0  0  0
  197.2610  173.7910  145.7630 C   0  0  0  0  0  2  0  0  0  0  0  0
  191.6990  174.7780  144.9330 C   0  0  2  0  0  3  0  0  0  0  0  0
  189.3160  174.7370  146.8940 C   0  0  0  0  0  1  0  0  0  0  0  0
  191.6890  173.2250  140.1850 C   0  0  0  0  0  2  0  0  0  0  0  0
  189.7220  174.1180  141.2990 C   0  0  0  0  0  3  0  0  0  0  0  0
  191.1880  175.9630  145.7480 C   0  0  0  0  0  2  0  0  0  0  0  0
  196.1420  175.0350  143.9750 C   0  0  2  0  0  3  0  0  0  0  0  0
  196.2850  175.9880  142.7970 C   0  0  0  0  0  2  0  0  0  0  0  0
  191.0330  173.8150  141.3950 C   0  0  0  0  0  0  0  0  0  0  0  0
  193.1140  174.9090  144.4040 C   0  0  1  0  0  3  0  0  0  0  0  0
  188.9010  175.6660  144.5970 C   0  0  0  0  0  2  0  0  0  0  0  0
  193.9320  174.2110  140.5190 C   0  0  2  0  0  3  0  0  0  0  0  0
  189.1730  177.1650  146.5590 C   0  0  0  0  0  1  0  0  0  0  0  0
  195.3350  175.6170  145.1280 C   0  0  0  0  0  2  0  0  0  0  0  0
  197.6240  173.2570  143.4710 C   0  0  0  0  0  1  0  0  0  0  0  0
  194.2190  174.6270  145.4320 C   0  0  2  0  0  3  0  0  0  0  0  0
  193.1600  172.9110  140.3800 C   0  0  0  0  0  2  0  0  0  0  0  0
  196.1980  173.1190  140.2720 C   0  0  0  0  0  3  0  0  0  0  0  0
  195.2750  174.0960  139.8670 C   0  0  0  0  0  0  0  0  0  0  0  0
  195.6200  174.9940  138.8510 C   0  0  0  0  0  3  0  0  0  0  0  0
  197.2060  175.7870  137.2570 F   0  0  0  0  0  0  0  0  0  0  0  0
  197.7910  173.9400  138.6470 C   0  0  0  0  0  3  0  0  0  0  0  0
  196.8760  174.9160  138.2400 C   0  0  0  0  0  0  0  0  0  0  0  0
  197.4530  173.0420  139.6620 C   0  0  0  0  0  3  0  0  0  0  0  0
  195.2050  170.8650  145.5580 C   0  0  0  0  0  1  0  0  0  0  0  0
  196.4120  171.5250  145.7970 O   0  0  0  0  0  0  0  0  0  0  0  0
  1 27  1  0  0  0  0
  1  4  1  0  0  0  0
  2 24  1  0  0  0  0
  2 14  1  0  0  0  0
  3 20  1  6  0  0  0
  3  7  1  0  0  0  0
  3  9  1  0  0  0  0
  4 37  1  6  0  0  0
  5 19  1  0  0  0  0
  6 22  1  1  0  0  0
  7 21  1  0  0  0  0
  8 12  1  0  0  0  0
  9  6  1  0  0  0  0
  9 13  1  0  0  0  0
 10  5  1  0  0  0  0
 10  7  1  0  0  0  0
 11  6  1  0  0  0  0
 12  4  1  0  0  0  0
 13 17  1  0  0  0  0
 15 28  1  0  0  0  0
 15 20  1  0  0  0  0
 16 20  2  0  0  0  0
 16 11  1  0  0  0  0
 17  2  1  0  0  0  0
 18  8  1  0  0  0  0
 18 25  1  0  0  0  0
 19 18  1  0  0  0  0
 21 13  1  0  0  0  0
 21 27  1  0  0  0  0
 22  2  1  0  0  0  0
 23 10  1  0  0  0  0
 25 27  1  0  0  0  0
 26  8  1  0  0  0  0
 28 23  1  0  0  0  0
 30 29  1  0  0  0  0
 30 23  1  0  0  0  0
 31 30  2  0  0  0  0
 32 34  1  0  0  0  0
 33 35  1  0  0  0  0
 34 33  2  0  0  0  0
 34 31  1  0  0  0  0
 35 29  2  0  0  0  0
 36 37  1  0  0  0  0
M  END
>  <MODEL>
5

>  <REMARK>
 VINA RESULT:      -7.4      3.243      7.563
  Name = 
  2 active torsions:
  status: ('A' for Active; 'I' for Inactive)
    1  A    between atoms: C_4  and  O_37
    2  A    between atoms: C_23  and  C_30
                            x       y       z     vdW  Elec       q    Type
                         _______ _______ _______ _____ _____    ______ ____

>  <TORSDO>
F 2

$$$$
=
 OpenBabel11112417093D

 37 43  0  0  1  0  0  0  0  0999 V2000
  193.9960  174.5340  142.1760 C   0  0  0  0  0  2  0  0  0  0  0  0
  191.9390  170.1090  139.1250 C   0  0  0  0  0  0  0  0  0  0  0  0
  190.3350  173.7910  140.5980 C   0  0  1  0  0  3  0  0  0  0  0  0
  195.1920  175.0610  142.9990 C   0  0  2  0  0  3  0  0  0  0  0  0
  190.3540  172.9400  144.5020 S   0  0  0  0  0  0  0  0  0  0  0  0
  190.2080  171.9920  138.8940 C   0  0  2  0  0  3  0  0  0  0  0  0
  191.1250  174.0070  141.9040 C   0  0  1  0  0  3  0  0  0  0  0  0
  193.8940  174.9020  145.2440 N   0  0  0  0  0  0  0  0  0  0  0  0
  190.6260  172.3650  140.2850 C   0  0  1  0  0  3  0  0  0  0  0  0
  190.3670  174.2690  143.2370 C   0  0  1  0  0  3  0  0  0  0  0  0
  188.8060  172.2780  138.7780 O   0  0  0  0  0  0  0  0  0  0  0  0
  195.1960  174.8310  144.5420 C   0  0  0  0  0  2  0  0  0  0  0  0
  192.0730  172.1860  140.5610 C   0  0  2  0  0  3  0  0  0  0  0  0
  192.9080  170.5890  138.0560 C   0  0  0  0  0  1  0  0  0  0  0  0
  188.1530  175.2550  140.9790 C   0  0  0  0  0  2  0  0  0  0  0  0
  188.1910  173.3380  139.4850 C   0  0  0  0  0  3  0  0  0  0  0  0
  192.3470  170.6850  140.5050 C   0  0  0  0  0  2  0  0  0  0  0  0
  192.8910  174.0120  144.6500 C   0  0  2  0  0  3  0  0  0  0  0  0
  191.6860  173.6940  145.5240 C   0  0  0  0  0  2  0  0  0  0  0  0
  188.8540  174.0580  140.4130 C   0  0  0  0  0  0  0  0  0  0  0  0
  192.1220  172.8090  141.9430 C   0  0  1  0  0  3  0  0  0  0  0  0
  190.4900  170.4930  138.7280 C   0  0  0  0  0  2  0  0  0  0  0  0
  189.1140  175.1490  143.2550 C   0  0  2  0  0  3  0  0  0  0  0  0
  192.0280  168.6000  139.1960 C   0  0  0  0  0  1  0  0  0  0  0  0
  193.4830  172.7850  143.9690 C   0  0  0  0  0  2  0  0  0  0  0  0
  193.4020  176.2690  145.1570 C   0  0  0  0  0  1  0  0  0  0  0  0
  193.5340  173.0870  142.4780 C   0  0  2  0  0  3  0  0  0  0  0  0
  188.9690  176.0090  142.0120 C   0  0  0  0  0  2  0  0  0  0  0  0
  190.0790  176.9490  144.7440 C   0  0  0  0  0  3  0  0  0  0  0  0
  189.0790  175.9980  144.4870 C   0  0  0  0  0  0  0  0  0  0  0  0
  188.0380  175.8250  145.4070 C   0  0  0  0  0  3  0  0  0  0  0  0
  186.9870  176.4240  147.4610 F   0  0  0  0  0  0  0  0  0  0  0  0
  188.9940  177.5410  146.8240 C   0  0  0  0  0  3  0  0  0  0  0  0
  187.9950  176.5950  146.5730 C   0  0  0  0  0  0  0  0  0  0  0  0
  190.0360  177.7180  145.9100 C   0  0  0  0  0  3  0  0  0  0  0  0
  196.6940  176.6830  143.1280 C   0  0  0  0  0  1  0  0  0  0  0  0
  195.3860  176.4160  142.7230 O   0  0  0  0  0  0  0  0  0  0  0  0
  1 27  1  0  0  0  0
  1  4  1  0  0  0  0
  2 24  1  0  0  0  0
  2 17  1  0  0  0  0
  3 20  1  1  0  0  0
  3  7  1  0  0  0  0
  4 37  1  1  0  0  0
  4 12  1  0  0  0  0
  5 19  1  0  0  0  0
  6 22  1  1  0  0  0
  6  9  1  0  0  0  0
  7 21  1  0  0  0  0
  7 10  1  0  0  0  0
  9 13  1  0  0  0  0
  9  3  1  0  0  0  0
 10 23  1  0  0  0  0
 10  5  1  0  0  0  0
 11  6  1  0  0  0  0
 11 16  1  0  0  0  0
 12  8  1  0  0  0  0
 13 21  1  0  0  0  0
 14  2  1  0  0  0  0
 15 28  1  0  0  0  0
 16 20  2  0  0  0  0
 17 13  1  0  0  0  0
 18  8  1  0  0  0  0
 18 19  1  0  0  0  0
 20 15  1  0  0  0  0
 21 27  1  0  0  0  0
 22  2  1  0  0  0  0
 23 30  1  0  0  0  0
 25 18  1  0  0  0  0
 26  8  1  0  0  0  0
 27 25  1  0  0  0  0
 28 23  1  0  0  0  0
 29 35  1  0  0  0  0
 30 29  2  0  0  0  0
 30 31  1  0  0  0  0
 31 34  2  0  0  0  0
 34 33  1  0  0  0  0
 34 32  1  0  0  0  0
 35 33  2  0  0  0  0
 37 36  1  0  0  0  0
M  END
>  <MODEL>
6

>  <REMARK>
 VINA RESULT:      -7.3      2.501      5.580
  Name = 
  2 active torsions:
  status: ('A' for Active; 'I' for Inactive)
    1  A    between atoms: C_4  and  O_37
    2  A    between atoms: C_23  and  C_30
                            x       y       z     vdW  Elec       q    Type
                         _______ _______ _______ _____ _____    ______ ____

>  <TORSDO>
F 2

$$$$
=
 OpenBabel11112417093D

 37 43  0  0  1  0  0  0  0  0999 V2000
  190.5010  173.4650  139.8140 C   0  0  0  0  0  2  0  0  0  0  0  0
  186.9690  177.0740  142.5740 C   0  0  0  0  0  0  0  0  0  0  0  0
  191.1170  176.0710  142.8590 C   0  0  1  0  0  3  0  0  0  0  0  0
  190.5910  172.3140  138.7870 C   0  0  2  0  0  3  0  0  0  0  0  0
  190.7440  172.3540  144.2770 S   0  0  0  0  0  0  0  0  0  0  0  0
  189.3510  177.7710  143.2370 C   0  0  2  0  0  3  0  0  0  0  0  0
  191.1360  174.5850  142.4470 C   0  0  1  0  0  3  0  0  0  0  0  0
  191.2000  170.5580  140.6020 N   0  0  0  0  0  0  0  0  0  0  0  0
  189.6690  176.3120  143.1070 C   0  0  1  0  0  3  0  0  0  0  0  0
  191.8180  173.5320  143.3670 C   0  0  1  0  0  3  0  0  0  0  0  0
  190.1580  178.2910  144.3040 O   0  0  0  0  0  0  0  0  0  0  0  0
  190.5420  170.8440  139.3070 C   0  0  0  0  0  2  0  0  0  0  0  0
  188.9590  175.6220  142.0010 C   0  0  2  0  0  3  0  0  0  0  0  0
  186.9080  177.7980  141.2380 C   0  0  0  0  0  1  0  0  0  0  0  0
  193.3620  176.3250  144.2560 C   0  0  0  0  0  2  0  0  0  0  0  0
  191.4430  177.7770  144.5970 C   0  0  0  0  0  3  0  0  0  0  0  0
  187.4770  175.6250  142.3660 C   0  0  0  0  0  2  0  0  0  0  0  0
  190.7260  171.4400  141.6750 C   0  0  2  0  0  3  0  0  0  0  0  0
  191.0090  170.9680  143.0940 C   0  0  0  0  0  2  0  0  0  0  0  0
  191.9320  176.6800  143.9830 C   0  0  0  0  0  0  0  0  0  0  0  0
  189.6520  174.2760  142.0860 C   0  0  1  0  0  3  0  0  0  0  0  0
  187.8550  177.8750  143.5630 C   0  0  0  0  0  2  0  0  0  0  0  0
  193.1210  173.8690  144.0980 C   0  0  2  0  0  3  0  0  0  0  0  0
  185.5660  177.0090  143.1380 C   0  0  0  0  0  1  0  0  0  0  0  0
  189.3010  171.9390  141.4760 C   0  0  0  0  0  2  0  0  0  0  0  0
  192.6320  170.7610  140.4430 C   0  0  0  0  0  1  0  0  0  0  0  0
  189.3990  173.3410  140.8940 C   0  0  2  0  0  3  0  0  0  0  0  0
  193.8310  175.0820  143.5240 C   0  0  0  0  0  2  0  0  0  0  0  0
  194.7130  172.2670  142.9640 C   0  0  0  0  0  3  0  0  0  0  0  0
  194.0380  172.6860  144.1210 C   0  0  0  0  0  0  0  0  0  0  0  0
  194.2080  171.9760  145.3150 C   0  0  0  0  0  3  0  0  0  0  0  0
  195.2070  170.1740  146.5130 F   0  0  0  0  0  0  0  0  0  0  0  0
  195.7160  170.4450  144.1990 C   0  0  0  0  0  3  0  0  0  0  0  0
  195.0460  170.8580  145.3550 C   0  0  0  0  0  0  0  0  0  0  0  0
  195.5500  171.1480  143.0040 C   0  0  0  0  0  3  0  0  0  0  0  0
  192.1580  173.7890  138.2660 C   0  0  0  0  0  1  0  0  0  0  0  0
  191.7190  172.4950  137.9850 O   0  0  0  0  0  0  0  0  0  0  0  0
  1 27  1  0  0  0  0
  2 24  1  0  0  0  0
  2 22  1  0  0  0  0
  3  9  1  0  0  0  0
  3 20  1  1  0  0  0
  4 37  1  1  0  0  0
  4 12  1  0  0  0  0
  4  1  1  0  0  0  0
  6 22  1  1  0  0  0
  6 11  1  0  0  0  0
  7  3  1  0  0  0  0
  7 10  1  0  0  0  0
  8 18  1  0  0  0  0
  9  6  1  0  0  0  0
 10 23  1  0  0  0  0
 10  5  1  0  0  0  0
 11 16  1  0  0  0  0
 12  8  1  0  0  0  0
 13 21  1  0  0  0  0
 13 17  1  0  0  0  0
 13  9  1  0  0  0  0
 14  2  1  0  0  0  0
 17  2  1  0  0  0  0
 18 19  1  0  0  0  0
 19  5  1  0  0  0  0
 20 15  1  0  0  0  0
 20 16  2  0  0  0  0
 21  7  1  0  0  0  0
 23 30  1  0  0  0  0
 25 18  1  0  0  0  0
 26  8  1  0  0  0  0
 27 25  1  0  0  0  0
 27 21  1  0  0  0  0
 28 23  1  0  0  0  0
 28 15  1  0  0  0  0
 29 35  2  0  0  0  0
 29 30  1  0  0  0  0
 30 31  2  0  0  0  0
 31 34  1  0  0  0  0
 33 34  2  0  0  0  0
 34 32  1  0  0  0  0
 35 33  1  0  0  0  0
 37 36  1  0  0  0  0
M  END
>  <MODEL>
7

>  <REMARK>
 VINA RESULT:      -7.3      3.570      6.436
  Name = 
  2 active torsions:
  status: ('A' for Active; 'I' for Inactive)
    1  A    between atoms: C_4  and  O_37
    2  A    between atoms: C_23  and  C_30
                            x       y       z     vdW  Elec       q    Type
                         _______ _______ _______ _____ _____    ______ ____

>  <TORSDO>
F 2

$$$$
=
 OpenBabel11112417093D

 37 43  0  0  1  0  0  0  0  0999 V2000
  194.5260  174.0840  141.3130 C   0  0  0  0  0  2  0  0  0  0  0  0
  191.5470  170.6970  137.7400 C   0  0  0  0  0  0  0  0  0  0  0  0
  190.5600  173.7900  140.5240 C   0  0  1  0  0  3  0  0  0  0  0  0
  195.9120  174.3640  141.9360 C   0  0  2  0  0  3  0  0  0  0  0  0
  191.4400  171.8600  143.9100 S   0  0  0  0  0  0  0  0  0  0  0  0
  189.9280  172.5530  138.4690 C   0  0  2  0  0  3  0  0  0  0  0  0
  191.6450  173.6310  141.6070 C   0  0  1  0  0  3  0  0  0  0  0  0
  195.1680  173.5600  144.2910 N   0  0  0  0  0  0  0  0  0  0  0  0
  190.6820  172.5160  139.7640 C   0  0  1  0  0  3  0  0  0  0  0  0
  191.2380  173.4950  143.1020 C   0  0  1  0  0  3  0  0  0  0  0  0
  188.5580  172.8470  138.7800 O   0  0  0  0  0  0  0  0  0  0  0  0
  196.2630  173.7030  143.3040 C   0  0  0  0  0  2  0  0  0  0  0  0
  192.1400  172.2780  139.6220 C   0  0  2  0  0  3  0  0  0  0  0  0
  192.2660  171.4710  136.6460 C   0  0  0  0  0  1  0  0  0  0  0  0
  188.6210  175.0660  141.8140 C   0  0  0  0  0  2  0  0  0  0  0  0
  188.1910  173.6560  139.8820 C   0  0  0  0  0  3  0  0  0  0  0  0
  192.3010  170.8590  139.0840 C   0  0  0  0  0  2  0  0  0  0  0  0
  194.0010  172.8680  143.7330 C   0  0  2  0  0  3  0  0  0  0  0  0
  193.0170  172.3030  144.7480 C   0  0  0  0  0  2  0  0  0  0  0  0
  189.0960  174.0870  140.7850 C   0  0  0  0  0  0  0  0  0  0  0  0
  192.5490  172.4810  141.0680 C   0  0  1  0  0  3  0  0  0  0  0  0
  190.0710  171.1660  137.8280 C   0  0  0  0  0  2  0  0  0  0  0  0
  190.0790  174.3220  143.6670 C   0  0  2  0  0  3  0  0  0  0  0  0
  191.5580  169.2310  137.3630 C   0  0  0  0  0  1  0  0  0  0  0  0
  194.3420  171.8920  142.6150 C   0  0  0  0  0  2  0  0  0  0  0  0
  194.7530  174.8900  144.7110 C   0  0  0  0  0  1  0  0  0  0  0  0
  194.0610  172.6070  141.3020 C   0  0  2  0  0  3  0  0  0  0  0  0
  189.7000  175.5000  142.7870 C   0  0  0  0  0  2  0  0  0  0  0  0
  189.5450  174.4580  146.1340 C   0  0  0  0  0  3  0  0  0  0  0  0
  190.3850  174.7840  145.0580 C   0  0  0  0  0  0  0  0  0  0  0  0
  191.5200  175.5720  145.2820 C   0  0  0  0  0  3  0  0  0  0  0  0
  192.9150  176.7920  146.7820 F   0  0  0  0  0  0  0  0  0  0  0  0
  190.9760  175.7010  147.6380 C   0  0  0  0  0  3  0  0  0  0  0  0
  191.8150  176.0290  146.5700 C   0  0  0  0  0  0  0  0  0  0  0  0
  189.8400  174.9160  147.4210 C   0  0  0  0  0  3  0  0  0  0  0  0
  195.0800  176.3030  141.2630 C   0  0  0  0  0  1  0  0  0  0  0  0
  196.1180  175.7430  142.0110 O   0  0  0  0  0  0  0  0  0  0  0  0
  1  4  1  0  0  0  0
  2 22  1  0  0  0  0
  2 17  1  0  0  0  0
  3 20  1  1  0  0  0
  3  7  1  0  0  0  0
  4 37  1  1  0  0  0
  4 12  1  0  0  0  0
  5 19  1  0  0  0  0
  6 22  1  1  0  0  0
  6 11  1  0  0  0  0
  6  9  1  0  0  0  0
  7 10  1  0  0  0  0
  8 26  1  0  0  0  0
  9  3  1  0  0  0  0
 10 23  1  0  0  0  0
 10  5  1  0  0  0  0
 11 16  1  0  0  0  0
 12  8  1  0  0  0  0
 13  9  1  0  0  0  0
 13 21  1  0  0  0  0
 14  2  1  0  0  0  0
 15 28  1  0  0  0  0
 16 20  2  0  0  0  0
 17 13  1  0  0  0  0
 18  8  1  0  0  0  0
 18 19  1  0  0  0  0
 20 15  1  0  0  0  0
 21 27  1  0  0  0  0
 21  7  1  0  0  0  0
 23 30  1  0  0  0  0
 24  2  1  0  0  0  0
 25 18  1  0  0  0  0
 27  1  1  0  0  0  0
 27 25  1  0  0  0  0
 28 23  1  0  0  0  0
 29 35  1  0  0  0  0
 30 31  1  0  0  0  0
 30 29  2  0  0  0  0
 31 34  2  0  0  0  0
 34 32  1  0  0  0  0
 34 33  1  0  0  0  0
 35 33  2  0  0  0  0
 36 37  1  0  0  0  0
M  END
>  <MODEL>
8

>  <REMARK>
 VINA RESULT:      -7.2      2.839      5.599
  Name = 
  2 active torsions:
  status: ('A' for Active; 'I' for Inactive)
    1  A    between atoms: C_4  and  O_37
    2  A    between atoms: C_23  and  C_30
                            x       y       z     vdW  Elec       q    Type
                         _______ _______ _______ _____ _____    ______ ____

>  <TORSDO>
F 2

$$$$
=
 OpenBabel11112417093D

 37 43  0  0  1  0  0  0  0  0999 V2000
  189.1750  174.5810  140.5130 C   0  0  0  0  0  2  0  0  0  0  0  0
  186.4910  177.3330  144.7960 C   0  0  0  0  0  0  0  0  0  0  0  0
  190.5110  176.0910  144.0310 C   0  0  1  0  0  3  0  0  0  0  0  0
  188.9890  173.7980  139.1940 C   0  0  2  0  0  3  0  0  0  0  0  0
  189.9920  172.1410  144.3330 S   0  0  0  0  0  0  0  0  0  0  0  0
  189.0040  177.6760  145.2000 C   0  0  2  0  0  3  0  0  0  0  0  0
  190.3180  174.8050  143.2030 C   0  0  1  0  0  3  0  0  0  0  0  0
  189.6920  171.5430  140.2730 N   0  0  0  0  0  0  0  0  0  0  0  0
  189.1500  176.3140  144.5920 C   0  0  1  0  0  3  0  0  0  0  0  0
  191.0240  173.4880  143.6350 C   0  0  1  0  0  3  0  0  0  0  0  0
  190.0130  177.8030  146.2120 O   0  0  0  0  0  0  0  0  0  0  0  0
  188.8730  172.2450  139.2570 C   0  0  0  0  0  2  0  0  0  0  0  0
  188.2120  176.0330  143.4770 C   0  0  2  0  0  3  0  0  0  0  0  0
  186.2960  178.4350  143.7660 C   0  0  0  0  0  1  0  0  0  0  0  0
  192.9590  175.7940  145.0190 C   0  0  0  0  0  2  0  0  0  0  0  0
  191.2710  177.1630  146.1080 C   0  0  0  0  0  3  0  0  0  0  0  0
  186.8120  175.9950  144.0830 C   0  0  0  0  0  2  0  0  0  0  0  0
  189.4800  172.0740  141.6240 C   0  0  2  0  0  3  0  0  0  0  0  0
  189.9300  171.1750  142.7670 C   0  0  0  0  0  2  0  0  0  0  0  0
  191.5470  176.2850  145.1220 C   0  0  0  0  0  0  0  0  0  0  0  0
  188.7720  174.6950  143.0360 C   0  0  1  0  0  3  0  0  0  0  0  0
  187.5940  177.7470  145.8030 C   0  0  0  0  0  2  0  0  0  0  0  0
  192.4520  173.5210  144.1900 C   0  0  2  0  0  3  0  0  0  0  0  0
  185.1920  177.1660  145.5550 C   0  0  0  0  0  1  0  0  0  0  0  0
  188.0990  172.6780  141.8370 C   0  0  0  0  0  2  0  0  0  0  0  0
  191.0950  171.7140  139.9280 C   0  0  0  0  0  1  0  0  0  0  0  0
  188.2460  174.1850  141.6870 C   0  0  2  0  0  3  0  0  0  0  0  0
  193.1830  174.8150  143.8820 C   0  0  0  0  0  2  0  0  0  0  0  0
  193.6080  171.3050  144.5670 C   0  0  0  0  0  3  0  0  0  0  0  0
  193.2380  172.3450  143.6990 C   0  0  0  0  0  0  0  0  0  0  0  0
  193.6280  172.2960  142.3560 C   0  0  0  0  0  3  0  0  0  0  0  0
  194.7530  171.1730  140.5800 F   0  0  0  0  0  0  0  0  0  0  0  0
  194.7430  170.1820  142.7480 C   0  0  0  0  0  3  0  0  0  0  0  0
  194.3780  171.2160  141.8810 C   0  0  0  0  0  0  0  0  0  0  0  0
  194.3580  170.2260  144.0910 C   0  0  0  0  0  3  0  0  0  0  0  0
  189.5060  173.7830  137.0410 C   0  0  0  0  0  1  0  0  0  0  0  0
  189.9920  174.1620  138.2930 O   0  0  0  0  0  0  0  0  0  0  0  0
  1 27  1  0  0  0  0
  2 24  1  0  0  0  0
  2 22  1  0  0  0  0
  3  9  1  0  0  0  0
  3 20  1  1  0  0  0
  4 37  1  6  0  0  0
  4 12  1  0  0  0  0
  4  1  1  0  0  0  0
  6 22  1  1  0  0  0
  6 11  1  0  0  0  0
  7 10  1  0  0  0  0
  7  3  1  0  0  0  0
  8 18  1  0  0  0  0
  9  6  1  0  0  0  0
 10 23  1  0  0  0  0
 10  5  1  0  0  0  0
 12  8  1  0  0  0  0
 13 17  1  0  0  0  0
 13  9  1  0  0  0  0
 14  2  1  0  0  0  0
 15 20  1  0  0  0  0
 16 11  1  0  0  0  0
 17  2  1  0  0  0  0
 18 25  1  0  0  0  0
 18 19  1  0  0  0  0
 19  5  1  0  0  0  0
 20 16  2  0  0  0  0
 21  7  1  0  0  0  0
 21 13  1  0  0  0  0
 26  8  1  0  0  0  0
 27 25  1  0  0  0  0
 27 21  1  0  0  0  0
 28 23  1  0  0  0  0
 28 15  1  0  0  0  0
 30 23  1  0  0  0  0
 30 29  2  0  0  0  0
 31 30  1  0  0  0  0
 32 34  1  0  0  0  0
 33 35  2  0  0  0  0
 34 31  2  0  0  0  0
 34 33  1  0  0  0  0
 35 29  1  0  0  0  0
 36 37  1  0  0  0  0
M  END
>  <MODEL>
9

>  <REMARK>
 VINA RESULT:      -7.1      3.630      7.008
  Name = 
  2 active torsions:
  status: ('A' for Active; 'I' for Inactive)
    1  A    between atoms: C_4  and  O_37
    2  A    between atoms: C_23  and  C_30
                            x       y       z     vdW  Elec       q    Type
                         _______ _______ _______ _____ _____    ______ ____

>  <TORSDO>
F 2

$$$$
