=
 OpenBabel11112416543D

 31 35  0  0  1  0  0  0  0  0999 V2000
  184.5330  178.4360  146.4700 C   0  0  0  0  0  0  0  0  0  0  0  0
  186.7000  176.6470  143.8540 C   0  0  2  0  0  3  0  0  0  0  0  0
  186.1840  177.2220  142.5470 C   0  0  0  0  0  0  0  0  0  0  0  0
  190.4830  175.3950  147.4670 O   0  0  0  0  0  0  0  0  0  0  0  0
  190.9300  175.1900  146.3070 C   0  0  0  0  0  0  0  0  0  0  0  0
  184.3460  177.9500  141.1260 C   0  0  0  0  0  0  0  0  0  0  0  0
  186.2320  177.3040  145.1450 C   0  0  0  0  0  0  0  0  0  0  0  0
  185.3090  178.2740  147.6180 C   0  0  0  0  0  3  0  0  0  0  0  0
  184.8230  177.5120  142.3650 C   0  0  0  0  0  3  0  0  0  0  0  0
  188.8580  176.1390  145.1500 C   0  0  0  0  0  0  0  0  0  0  0  0
  183.3330  179.0600  146.5460 F   0  0  0  0  0  0  0  0  0  0  0  0
  188.3840  176.9360  141.5710 O   0  0  0  0  0  0  0  0  0  0  0  0
  182.9060  178.2760  140.9580 C   0  0  0  0  0  1  0  0  0  0  0  0
  188.2780  176.4740  146.2660 N   0  0  0  0  0  0  0  0  0  0  0  0
  188.2020  176.4480  143.8680 C   0  0  0  0  0  0  0  0  0  0  0  0
  190.1590  175.5380  145.1490 N   0  0  0  0  0  2  0  0  0  0  0  0
  184.9850  177.9400  145.2460 C   0  0  0  0  0  3  0  0  0  0  0  0
  185.2210  178.0680  140.0450 C   0  0  0  0  0  3  0  0  0  0  0  0
  187.0030  177.1310  146.3170 C   0  0  0  0  0  0  0  0  0  0  0  0
  186.5400  177.6200  147.5420 C   0  0  0  0  0  3  0  0  0  0  0  0
  188.9180  176.5580  142.7890 N   0  0  0  0  0  0  0  0  0  0  0  0
  187.0470  177.3050  141.4400 C   0  0  0  0  0  0  0  0  0  0  0  0
  186.5690  177.7400  140.2000 C   0  0  0  0  0  3  0  0  0  0  0  0
  193.6260  175.4280  143.6560 C   0  0  1  0  0  3  0  0  0  0  0  0
  193.3980  175.6440  146.1470 C   0  0  0  0  0  2  0  0  0  0  0  0
  191.3740  172.7240  144.9040 O   0  0  0  0  0  1  0  0  0  0  0  0
  193.6570  176.2010  142.3550 C   0  0  0  0  0  1  0  0  0  0  0  0
  193.4470  176.4000  144.8190 C   0  0  0  0  0  2  0  0  0  0  0  0
  192.4210  173.6460  144.9360 C   0  0  2  0  0  3  0  0  0  0  0  0
  192.2940  174.5810  146.1520 C   0  0  2  0  0  3  0  0  0  0  0  0
  192.4780  174.4240  143.6230 C   0  0  0  0  0  2  0  0  0  0  0  0
  1 11  1  0  0  0  0
  1  8  1  0  0  0  0
  2  3  1  6  0  0  0
  2 15  1  0  0  0  0
  2  7  1  0  0  0  0
  5  4  2  0  0  0  0
  6  9  2  0  0  0  0
  7 17  1  0  0  0  0
  7 19  2  0  0  0  0
  9  3  1  0  0  0  0
 10 14  2  0  0  0  0
 12 21  1  0  0  0  0
 13  6  1  0  0  0  0
 14 19  1  0  0  0  0
 15 10  1  0  0  0  0
 16 10  1  0  0  0  0
 16  5  1  0  0  0  0
 17  1  2  0  0  0  0
 18 23  2  0  0  0  0
 18  6  1  0  0  0  0
 19 20  1  0  0  0  0
 20  8  2  0  0  0  0
 21 15  2  0  0  0  0
 22 12  1  0  0  0  0
 22  3  2  0  0  0  0
 23 22  1  0  0  0  0
 24 27  1  6  0  0  0
 24 28  1  0  0  0  0
 25 30  1  0  0  0  0
 28 25  1  0  0  0  0
 29 26  1  6  0  0  0
 29 30  1  0  0  0  0
 30  5  1  6  0  0  0
 31 24  1  0  0  0  0
 31 29  1  0  0  0  0
M  END
>  <MODEL>
1

>  <REMARK>
 VINA RESULT:      -9.9      0.000      0.000
  Name = 
  1 active torsions:
  status: ('A' for Active; 'I' for Inactive)
    1  A    between atoms: C_5  and  C_30
                            x       y       z     vdW  Elec       q    Type
                         _______ _______ _______ _____ _____    ______ ____

>  <TORSDO>
F 1

$$$$
=
 OpenBabel11112416543D

 31 35  0  0  1  0  0  0  0  0999 V2000
  184.6000  178.4060  146.6090 C   0  0  0  0  0  0  0  0  0  0  0  0
  186.4510  176.6890  143.7170 C   0  0  2  0  0  3  0  0  0  0  0  0
  185.8100  177.3170  142.4930 C   0  0  0  0  0  0  0  0  0  0  0  0
  190.5740  175.2620  146.8630 O   0  0  0  0  0  0  0  0  0  0  0  0
  190.8940  175.0950  145.6560 C   0  0  0  0  0  0  0  0  0  0  0  0
  183.8430  178.1180  141.3010 C   0  0  0  0  0  0  0  0  0  0  0  0
  186.1330  177.3040  145.0720 C   0  0  0  0  0  0  0  0  0  0  0  0
  185.4900  178.1930  147.6620 C   0  0  0  0  0  3  0  0  0  0  0  0
  184.4410  177.6290  142.4660 C   0  0  0  0  0  3  0  0  0  0  0  0
  188.7250  176.1090  144.7580 C   0  0  0  0  0  0  0  0  0  0  0  0
  183.4240  179.0410  146.8340 F   0  0  0  0  0  0  0  0  0  0  0  0
  187.8900  177.0420  141.2800 O   0  0  0  0  0  0  0  0  0  0  0  0
  182.3990  178.4660  141.2980 C   0  0  0  0  0  1  0  0  0  0  0  0
  188.2720  176.4090  145.9410 N   0  0  0  0  0  0  0  0  0  0  0  0
  187.9430  176.4720  143.5650 C   0  0  0  0  0  0  0  0  0  0  0  0
  190.0100  175.4930  144.5990 N   0  0  0  0  0  2  0  0  0  0  0  0
  184.9120  177.9500  145.3270 C   0  0  0  0  0  3  0  0  0  0  0  0
  184.6010  178.2650  140.1380 C   0  0  0  0  0  3  0  0  0  0  0  0
  187.0200  177.0790  146.1490 C   0  0  0  0  0  0  0  0  0  0  0  0
  186.6960  177.5280  147.4330 C   0  0  0  0  0  3  0  0  0  0  0  0
  188.5430  176.6140  142.4200 N   0  0  0  0  0  0  0  0  0  0  0  0
  186.5520  177.4300  141.3040 C   0  0  0  0  0  0  0  0  0  0  0  0
  185.9530  177.9160  140.1380 C   0  0  0  0  0  3  0  0  0  0  0  0
  194.4170  176.4540  145.3480 C   0  0  1  0  0  3  0  0  0  0  0  0
  193.2040  174.5880  146.5090 C   0  0  0  0  0  2  0  0  0  0  0  0
  191.9400  174.9650  142.9840 O   0  0  0  0  0  1  0  0  0  0  0  0
  194.9420  177.8640  145.5090 C   0  0  0  0  0  1  0  0  0  0  0  0
  193.7570  176.0060  146.6490 C   0  0  0  0  0  2  0  0  0  0  0  0
  192.8570  175.0020  144.0350 C   0  0  2  0  0  3  0  0  0  0  0  0
  192.2240  174.4760  145.3360 C   0  0  2  0  0  3  0  0  0  0  0  0
  193.4100  176.4160  144.2020 C   0  0  0  0  0  2  0  0  0  0  0  0
  1 11  1  0  0  0  0
  1  8  1  0  0  0  0
  2  3  1  6  0  0  0
  2  7  1  0  0  0  0
  5  4  2  0  0  0  0
  6  9  2  0  0  0  0
  7 17  1  0  0  0  0
  7 19  2  0  0  0  0
  9  3  1  0  0  0  0
 10 14  2  0  0  0  0
 12 22  1  0  0  0  0
 12 21  1  0  0  0  0
 13  6  1  0  0  0  0
 14 19  1  0  0  0  0
 15  2  1  0  0  0  0
 15 10  1  0  0  0  0
 16 10  1  0  0  0  0
 16  5  1  0  0  0  0
 17  1  2  0  0  0  0
 18  6  1  0  0  0  0
 19 20  1  0  0  0  0
 20  8  2  0  0  0  0
 21 15  2  0  0  0  0
 22  3  2  0  0  0  0
 23 18  2  0  0  0  0
 23 22  1  0  0  0  0
 24 27  1  1  0  0  0
 24 28  1  0  0  0  0
 25 28  1  0  0  0  0
 29 26  1  6  0  0  0
 29 31  1  0  0  0  0
 29 30  1  0  0  0  0
 30  5  1  1  0  0  0
 30 25  1  0  0  0  0
 31 24  1  0  0  0  0
M  END
>  <MODEL>
2

>  <REMARK>
 VINA RESULT:      -9.7      0.862      1.221
  Name = 
  1 active torsions:
  status: ('A' for Active; 'I' for Inactive)
    1  A    between atoms: C_5  and  C_30
                            x       y       z     vdW  Elec       q    Type
                         _______ _______ _______ _____ _____    ______ ____

>  <TORSDO>
F 1

$$$$
=
 OpenBabel11112416543D

 31 35  0  0  1  0  0  0  0  0999 V2000
  184.9570  178.3910  146.8000 C   0  0  0  0  0  0  0  0  0  0  0  0
  186.7590  177.1810  143.6340 C   0  0  2  0  0  3  0  0  0  0  0  0
  185.8590  177.6930  142.5240 C   0  0  0  0  0  0  0  0  0  0  0  0
  191.4370  176.5730  146.2180 O   0  0  0  0  0  0  0  0  0  0  0  0
  191.6360  176.5100  144.9760 C   0  0  0  0  0  0  0  0  0  0  0  0
  183.6400  178.0920  141.6040 C   0  0  0  0  0  0  0  0  0  0  0  0
  186.4870  177.6790  145.0460 C   0  0  0  0  0  0  0  0  0  0  0  0
  185.9920  178.3430  147.7340 C   0  0  0  0  0  3  0  0  0  0  0  0
  184.4620  177.7100  142.6670 C   0  0  0  0  0  3  0  0  0  0  0  0
  189.2130  177.0670  144.3810 C   0  0  0  0  0  0  0  0  0  0  0  0
  183.7110  178.7580  147.1880 F   0  0  0  0  0  0  0  0  0  0  0  0
  187.7890  177.8950  141.0720 O   0  0  0  0  0  0  0  0  0  0  0  0
  182.1660  178.1280  141.7810 C   0  0  0  0  0  1  0  0  0  0  0  0
  188.8540  177.2330  145.6210 N   0  0  0  0  0  0  0  0  0  0  0  0
  188.2340  177.2880  143.3040 C   0  0  0  0  0  0  0  0  0  0  0  0
  190.5680  176.7410  144.0460 N   0  0  0  0  0  2  0  0  0  0  0  0
  185.1990  178.0460  145.4690 C   0  0  0  0  0  3  0  0  0  0  0  0
  184.2050  178.4280  140.3710 C   0  0  0  0  0  3  0  0  0  0  0  0
  187.5250  177.6180  146.0030 C   0  0  0  0  0  0  0  0  0  0  0  0
  187.2730  177.9540  147.3370 C   0  0  0  0  0  3  0  0  0  0  0  0
  188.6490  177.5840  142.1080 N   0  0  0  0  0  0  0  0  0  0  0  0
  186.4130  177.9920  141.2660 C   0  0  0  0  0  0  0  0  0  0  0  0
  185.5900  178.3710  140.2020 C   0  0  0  0  0  3  0  0  0  0  0  0
  193.5750  173.2930  144.4740 C   0  0  1  0  0  3  0  0  0  0  0  0
  192.9830  175.3660  143.1870 C   0  0  0  0  0  2  0  0  0  0  0  0
  193.8970  176.2530  146.7280 O   0  0  0  0  0  1  0  0  0  0  0  0
  193.1780  171.8570  144.7390 C   0  0  0  0  0  1  0  0  0  0  0  0
  192.6130  173.9080  143.4620 C   0  0  0  0  0  2  0  0  0  0  0  0
  193.9230  175.5360  145.5320 C   0  0  2  0  0  3  0  0  0  0  0  0
  193.0170  176.1940  144.4760 C   0  0  2  0  0  3  0  0  0  0  0  0
  193.5410  174.0780  145.7820 C   0  0  0  0  0  2  0  0  0  0  0  0
  1 11  1  0  0  0  0
  1  8  1  0  0  0  0
  2  3  1  6  0  0  0
  2  7  1  0  0  0  0
  3  9  1  0  0  0  0
  5  4  2  0  0  0  0
  6 13  1  0  0  0  0
  6  9  2  0  0  0  0
  7 17  1  0  0  0  0
  7 19  2  0  0  0  0
 10 14  2  0  0  0  0
 12 22  1  0  0  0  0
 12 21  1  0  0  0  0
 14 19  1  0  0  0  0
 15  2  1  0  0  0  0
 15 10  1  0  0  0  0
 16 10  1  0  0  0  0
 16  5  1  0  0  0  0
 17  1  2  0  0  0  0
 18  6  1  0  0  0  0
 19 20  1  0  0  0  0
 20  8  2  0  0  0  0
 21 15  2  0  0  0  0
 22  3  2  0  0  0  0
 23 18  2  0  0  0  0
 23 22  1  0  0  0  0
 24 27  1  1  0  0  0
 24 31  1  0  0  0  0
 25 28  1  0  0  0  0
 25 30  1  0  0  0  0
 28 24  1  0  0  0  0
 29 31  1  0  0  0  0
 29 26  1  1  0  0  0
 30  5  1  1  0  0  0
 30 29  1  0  0  0  0
M  END
>  <MODEL>
3

>  <REMARK>
 VINA RESULT:      -9.5      1.267      1.928
  Name = 
  1 active torsions:
  status: ('A' for Active; 'I' for Inactive)
    1  A    between atoms: C_5  and  C_30
                            x       y       z     vdW  Elec       q    Type
                         _______ _______ _______ _____ _____    ______ ____

>  <TORSDO>
F 1

$$$$
=
 OpenBabel11112416543D

 31 35  0  0  1  0  0  0  0  0999 V2000
  190.7680  176.5340  146.3830 C   0  0  0  0  0  0  0  0  0  0  0  0
  187.6270  176.0920  144.2200 C   0  0  2  0  0  3  0  0  0  0  0  0
  186.7970  177.3080  144.5880 C   0  0  0  0  0  0  0  0  0  0  0  0
  190.1230  172.7480  140.8250 O   0  0  0  0  0  0  0  0  0  0  0  0
  189.0280  173.1130  140.3210 C   0  0  0  0  0  0  0  0  0  0  0  0
  185.9330  178.8640  146.2500 C   0  0  0  0  0  0  0  0  0  0  0  0
  189.0670  176.0490  144.7100 C   0  0  0  0  0  0  0  0  0  0  0  0
  191.6780  175.7210  145.7050 C   0  0  0  0  0  3  0  0  0  0  0  0
  186.7750  177.8050  145.9010 C   0  0  0  0  0  3  0  0  0  0  0  0
  188.5010  174.7500  142.2120 C   0  0  0  0  0  0  0  0  0  0  0  0
  191.1420  177.1660  147.5220 F   0  0  0  0  0  0  0  0  0  0  0  0
  185.8360  177.3080  142.3630 O   0  0  0  0  0  0  0  0  0  0  0  0
  185.9410  179.3940  147.6380 C   0  0  0  0  0  1  0  0  0  0  0  0
  189.6240  174.5330  142.8320 N   0  0  0  0  0  0  0  0  0  0  0  0
  187.5530  175.7420  142.7470 C   0  0  0  0  0  0  0  0  0  0  0  0
  188.2040  174.0880  140.9760 N   0  0  0  0  0  2  0  0  0  0  0  0
  189.4680  176.6830  145.8970 C   0  0  0  0  0  3  0  0  0  0  0  0
  185.0750  179.4160  145.2960 C   0  0  0  0  0  3  0  0  0  0  0  0
  189.9920  175.2150  144.0410 C   0  0  0  0  0  0  0  0  0  0  0  0
  191.2900  175.0610  144.5390 C   0  0  0  0  0  3  0  0  0  0  0  0
  186.6920  176.3040  141.9520 N   0  0  0  0  0  0  0  0  0  0  0  0
  185.8990  177.8430  143.6480 C   0  0  0  0  0  0  0  0  0  0  0  0
  185.0540  178.9010  143.9980 C   0  0  0  0  0  3  0  0  0  0  0  0
  190.7280  172.6160  136.9710 C   0  0  1  0  0  3  0  0  0  0  0  0
  189.4230  171.2780  138.6480 C   0  0  0  0  0  2  0  0  0  0  0  0
  187.8710  174.6780  138.2080 O   0  0  0  0  0  1  0  0  0  0  0  0
  192.1210  172.9880  136.5140 C   0  0  0  0  0  1  0  0  0  0  0  0
  190.8200  171.6590  138.1560 C   0  0  0  0  0  2  0  0  0  0  0  0
  188.5650  173.5230  137.8490 C   0  0  2  0  0  3  0  0  0  0  0  0
  188.5950  172.5150  139.0130 C   0  0  2  0  0  3  0  0  0  0  0  0
  189.9710  173.8800  137.3690 C   0  0  0  0  0  2  0  0  0  0  0  0
  1 11  1  0  0  0  0
  2 15  1  6  0  0  0
  2  3  1  0  0  0  0
  2  7  1  0  0  0  0
  3  9  1  0  0  0  0
  5  4  2  0  0  0  0
  5 16  1  0  0  0  0
  6 13  1  0  0  0  0
  7 17  2  0  0  0  0
  8  1  2  0  0  0  0
  9  6  2  0  0  0  0
 10 15  1  0  0  0  0
 10 14  2  0  0  0  0
 12 22  1  0  0  0  0
 14 19  1  0  0  0  0
 16 10  1  0  0  0  0
 17  1  1  0  0  0  0
 18  6  1  0  0  0  0
 19 20  2  0  0  0  0
 19  7  1  0  0  0  0
 20  8  1  0  0  0  0
 21 12  1  0  0  0  0
 21 15  2  0  0  0  0
 22 23  1  0  0  0  0
 22  3  2  0  0  0  0
 23 18  2  0  0  0  0
 24 27  1  1  0  0  0
 24 31  1  0  0  0  0
 24 28  1  0  0  0  0
 25 30  1  0  0  0  0
 28 25  1  0  0  0  0
 29 26  1  1  0  0  0
 29 30  1  0  0  0  0
 30  5  1  1  0  0  0
 31 29  1  0  0  0  0
M  END
>  <MODEL>
4

>  <REMARK>
 VINA RESULT:      -8.7      3.834      5.909
  Name = 
  1 active torsions:
  status: ('A' for Active; 'I' for Inactive)
    1  A    between atoms: C_5  and  C_30
                            x       y       z     vdW  Elec       q    Type
                         _______ _______ _______ _____ _____    ______ ____

>  <TORSDO>
F 1

$$$$
=
 OpenBabel11112416543D

 31 35  0  0  1  0  0  0  0  0999 V2000
  194.7600  175.7970  145.0590 C   0  0  0  0  0  0  0  0  0  0  0  0
  191.3950  175.7780  143.2110 C   0  0  2  0  0  3  0  0  0  0  0  0
  191.6800  174.8890  142.0130 C   0  0  0  0  0  0  0  0  0  0  0  0
  188.6870  177.3230  147.5930 O   0  0  0  0  0  0  0  0  0  0  0  0
  187.8720  176.9300  146.7170 C   0  0  0  0  0  0  0  0  0  0  0  0
  193.1420  174.1650  140.2060 C   0  0  0  0  0  0  0  0  0  0  0  0
  192.4430  175.8300  144.3130 C   0  0  0  0  0  0  0  0  0  0  0  0
  194.3630  176.1910  146.3370 C   0  0  0  0  0  3  0  0  0  0  0  0
  192.9240  174.9160  141.3650 C   0  0  0  0  0  3  0  0  0  0  0  0
  189.7030  176.1760  145.1010 C   0  0  0  0  0  0  0  0  0  0  0  0
  196.0720  175.5880  144.7910 F   0  0  0  0  0  0  0  0  0  0  0  0
  189.3600  174.1840  142.0050 O   0  0  0  0  0  0  0  0  0  0  0  0
  194.4730  174.1860  139.5470 C   0  0  0  0  0  1  0  0  0  0  0  0
  190.6710  176.4720  145.9190 N   0  0  0  0  0  0  0  0  0  0  0  0
  190.0130  175.5690  143.7960 C   0  0  0  0  0  0  0  0  0  0  0  0
  188.3350  176.3670  145.4820 N   0  0  0  0  0  2  0  0  0  0  0  0
  193.8090  175.6330  144.0500 C   0  0  0  0  0  3  0  0  0  0  0  0
  192.1040  173.4070  139.6620 C   0  0  0  0  0  3  0  0  0  0  0  0
  192.0530  176.2440  145.6070 C   0  0  0  0  0  0  0  0  0  0  0  0
  193.0130  176.4170  146.6090 C   0  0  0  0  0  3  0  0  0  0  0  0
  189.1110  174.8590  143.1850 N   0  0  0  0  0  0  0  0  0  0  0  0
  190.6300  174.1550  141.4320 C   0  0  0  0  0  0  0  0  0  0  0  0
  190.8470  173.4070  140.2710 C   0  0  0  0  0  3  0  0  0  0  0  0
  185.0500  178.8530  145.0750 C   0  0  1  0  0  3  0  0  0  0  0  0
  185.5590  176.5110  145.8260 C   0  0  0  0  0  2  0  0  0  0  0  0
  186.7680  178.9890  148.3880 O   0  0  0  0  0  1  0  0  0  0  0  0
  185.0640  179.7910  143.8880 C   0  0  0  0  0  1  0  0  0  0  0  0
  185.5480  177.4770  144.6410 C   0  0  0  0  0  2  0  0  0  0  0  0
  185.9560  178.4730  147.3780 C   0  0  2  0  0  3  0  0  0  0  0  0
  186.4000  177.0510  146.9880 C   0  0  2  0  0  3  0  0  0  0  0  0
  185.9430  179.4160  146.1770 C   0  0  0  0  0  2  0  0  0  0  0  0
  1  8  1  0  0  0  0
  2  3  1  6  0  0  0
  2 15  1  0  0  0  0
  2  7  1  0  0  0  0
  5  4  2  0  0  0  0
  6  9  1  0  0  0  0
  7 19  2  0  0  0  0
  8 20  2  0  0  0  0
  9  3  2  0  0  0  0
 10 16  1  0  0  0  0
 10 14  2  0  0  0  0
 11  1  1  0  0  0  0
 12 21  1  0  0  0  0
 13  6  1  0  0  0  0
 15 10  1  0  0  0  0
 16  5  1  0  0  0  0
 17  7  1  0  0  0  0
 17  1  2  0  0  0  0
 18  6  2  0  0  0  0
 18 23  1  0  0  0  0
 19 14  1  0  0  0  0
 19 20  1  0  0  0  0
 21 15  2  0  0  0  0
 22 12  1  0  0  0  0
 22  3  1  0  0  0  0
 23 22  2  0  0  0  0
 24 27  1  6  0  0  0
 24 31  1  0  0  0  0
 25 30  1  0  0  0  0
 28 24  1  0  0  0  0
 28 25  1  0  0  0  0
 29 26  1  1  0  0  0
 30  5  1  6  0  0  0
 30 29  1  0  0  0  0
 31 29  1  0  0  0  0
M  END
>  <MODEL>
5

>  <REMARK>
 VINA RESULT:      -8.6      3.280      7.384
  Name = 
  1 active torsions:
  status: ('A' for Active; 'I' for Inactive)
    1  A    between atoms: C_5  and  C_30
                            x       y       z     vdW  Elec       q    Type
                         _______ _______ _______ _____ _____    ______ ____

>  <TORSDO>
F 1

$$$$
=
 OpenBabel11112416543D

 31 35  0  0  1  0  0  0  0  0999 V2000
  190.3690  175.7560  146.7180 C   0  0  0  0  0  0  0  0  0  0  0  0
  187.9710  175.9980  143.7300 C   0  0  2  0  0  3  0  0  0  0  0  0
  187.1920  177.2660  144.0310 C   0  0  0  0  0  0  0  0  0  0  0  0
  191.0080  172.7540  140.6990 O   0  0  0  0  0  0  0  0  0  0  0  0
  190.1500  173.3210  139.9720 C   0  0  0  0  0  0  0  0  0  0  0  0
  186.0380  178.7260  145.6010 C   0  0  0  0  0  0  0  0  0  0  0  0
  189.1930  175.7030  144.5870 C   0  0  0  0  0  0  0  0  0  0  0  0
  191.3530  174.9100  146.2050 C   0  0  0  0  0  3  0  0  0  0  0  0
  186.8370  177.6080  145.3450 C   0  0  0  0  0  3  0  0  0  0  0  0
  189.2570  174.7880  141.8650 C   0  0  0  0  0  0  0  0  0  0  0  0
  190.4540  176.1970  147.9960 F   0  0  0  0  0  0  0  0  0  0  0  0
  186.9290  177.6520  141.6530 O   0  0  0  0  0  0  0  0  0  0  0  0
  185.6920  179.0870  147.0000 C   0  0  0  0  0  1  0  0  0  0  0  0
  190.1230  174.3500  142.7330 N   0  0  0  0  0  0  0  0  0  0  0  0
  188.2960  175.8320  142.2590 C   0  0  0  0  0  0  0  0  0  0  0  0
  189.2710  174.3180  140.5110 N   0  0  0  0  0  2  0  0  0  0  0  0
  189.2890  176.1370  145.9190 C   0  0  0  0  0  3  0  0  0  0  0  0
  185.5550  179.4950  144.5400 C   0  0  0  0  0  3  0  0  0  0  0  0
  190.1860  174.8320  144.0830 C   0  0  0  0  0  0  0  0  0  0  0  0
  191.2600  174.4460  144.8920 C   0  0  0  0  0  3  0  0  0  0  0  0
  187.7650  176.5940  141.3490 N   0  0  0  0  0  0  0  0  0  0  0  0
  186.6660  178.0230  142.9700 C   0  0  0  0  0  0  0  0  0  0  0  0
  185.8640  179.1400  143.2250 C   0  0  0  0  0  3  0  0  0  0  0  0
  191.5350  170.4520  137.9200 C   0  0  1  0  0  3  0  0  0  0  0  0
  189.3400  171.6040  138.3230 C   0  0  0  0  0  2  0  0  0  0  0  0
  192.1060  174.1410  138.0350 O   0  0  0  0  0  1  0  0  0  0  0  0
  192.4000  169.2810  138.3310 C   0  0  0  0  0  1  0  0  0  0  0  0
  190.2290  170.4210  138.7090 C   0  0  0  0  0  2  0  0  0  0  0  0
  191.4190  172.9500  137.7950 C   0  0  2  0  0  3  0  0  0  0  0  0
  190.0630  172.9410  138.5220 C   0  0  2  0  0  3  0  0  0  0  0  0
  192.2840  171.7540  138.1880 C   0  0  0  0  0  2  0  0  0  0  0  0
  1 11  1  0  0  0  0
  2 15  1  6  0  0  0
  2  3  1  0  0  0  0
  2  7  1  0  0  0  0
  3  9  1  0  0  0  0
  5 16  1  0  0  0  0
  5  4  2  0  0  0  0
  6 13  1  0  0  0  0
  7 17  1  0  0  0  0
  8  1  1  0  0  0  0
  9  6  2  0  0  0  0
 10 15  1  0  0  0  0
 10 14  2  0  0  0  0
 12 22  1  0  0  0  0
 14 19  1  0  0  0  0
 16 10  1  0  0  0  0
 17  1  2  0  0  0  0
 18  6  1  0  0  0  0
 19  7  2  0  0  0  0
 19 20  1  0  0  0  0
 20  8  2  0  0  0  0
 21 12  1  0  0  0  0
 21 15  2  0  0  0  0
 22 23  1  0  0  0  0
 22  3  2  0  0  0  0
 23 18  2  0  0  0  0
 24 31  1  0  0  0  0
 24 27  1  1  0  0  0
 24 28  1  0  0  0  0
 25 30  1  0  0  0  0
 25 28  1  0  0  0  0
 29 26  1  1  0  0  0
 29 31  1  0  0  0  0
 29 30  1  0  0  0  0
 30  5  1  1  0  0  0
M  END
>  <MODEL>
6

>  <REMARK>
 VINA RESULT:      -8.5      3.978      5.799
  Name = 
  1 active torsions:
  status: ('A' for Active; 'I' for Inactive)
    1  A    between atoms: C_5  and  C_30
                            x       y       z     vdW  Elec       q    Type
                         _______ _______ _______ _____ _____    ______ ____

>  <TORSDO>
F 1

$$$$
=
 OpenBabel11112416543D

 31 35  0  0  1  0  0  0  0  0999 V2000
  189.7420  177.4300  146.9690 C   0  0  0  0  0  0  0  0  0  0  0  0
  188.0100  175.9790  143.8660 C   0  0  2  0  0  3  0  0  0  0  0  0
  186.8820  176.9670  143.6240 C   0  0  0  0  0  0  0  0  0  0  0  0
  192.3320  173.0910  142.4850 O   0  0  0  0  0  0  0  0  0  0  0  0
  191.5180  173.1070  141.5240 C   0  0  0  0  0  0  0  0  0  0  0  0
  185.0960  178.3960  144.4580 C   0  0  0  0  0  0  0  0  0  0  0  0
  189.0700  176.3600  144.8880 C   0  0  0  0  0  0  0  0  0  0  0  0
  190.9950  176.8220  146.8870 C   0  0  0  0  0  3  0  0  0  0  0  0
  186.1940  177.5640  144.6920 C   0  0  0  0  0  3  0  0  0  0  0  0
  189.9120  174.7250  142.6830 C   0  0  0  0  0  0  0  0  0  0  0  0
  189.4520  178.2440  148.0130 F   0  0  0  0  0  0  0  0  0  0  0  0
  187.0050  176.5020  141.2480 O   0  0  0  0  0  0  0  0  0  0  0  0
  184.3960  179.0400  145.5990 C   0  0  0  0  0  1  0  0  0  0  0  0
  190.6720  174.8690  143.7290 N   0  0  0  0  0  0  0  0  0  0  0  0
  188.6530  175.4820  142.5870 C   0  0  0  0  0  0  0  0  0  0  0  0
  190.3190  173.8930  141.5890 N   0  0  0  0  0  2  0  0  0  0  0  0
  188.7820  177.1880  145.9850 C   0  0  0  0  0  3  0  0  0  0  0  0
  184.6500  178.6110  143.1520 C   0  0  0  0  0  3  0  0  0  0  0  0
  190.3370  175.7350  144.8230 C   0  0  0  0  0  0  0  0  0  0  0  0
  191.2900  175.9740  145.8180 C   0  0  0  0  0  3  0  0  0  0  0  0
  188.1330  175.7210  141.4200 N   0  0  0  0  0  0  0  0  0  0  0  0
  186.3970  177.1560  142.3170 C   0  0  0  0  0  0  0  0  0  0  0  0
  185.2960  177.9860  142.0840 C   0  0  0  0  0  3  0  0  0  0  0  0
  189.8290  172.6960  138.1580 C   0  0  1  0  0  3  0  0  0  0  0  0
  192.1120  173.1820  139.0820 C   0  0  0  0  0  2  0  0  0  0  0  0
  190.4410  170.4780  141.0990 O   0  0  0  0  0  1  0  0  0  0  0  0
  188.5670  173.3260  137.6100 C   0  0  0  0  0  1  0  0  0  0  0  0
  190.8300  173.7910  138.5120 C   0  0  0  0  0  2  0  0  0  0  0  0
  190.7530  171.2380  139.9710 C   0  0  2  0  0  3  0  0  0  0  0  0
  191.8230  172.2950  140.2990 C   0  0  2  0  0  3  0  0  0  0  0  0
  189.4870  171.8690  139.3940 C   0  0  0  0  0  2  0  0  0  0  0  0
  1 11  1  0  0  0  0
  2 15  1  6  0  0  0
  2  7  1  0  0  0  0
  3  2  1  0  0  0  0
  3  9  1  0  0  0  0
  5 16  1  0  0  0  0
  5  4  2  0  0  0  0
  6  9  2  0  0  0  0
  6 13  1  0  0  0  0
  7 17  1  0  0  0  0
  8  1  1  0  0  0  0
 10 14  2  0  0  0  0
 12 21  1  0  0  0  0
 12 22  1  0  0  0  0
 14 19  1  0  0  0  0
 15 10  1  0  0  0  0
 16 10  1  0  0  0  0
 17  1  2  0  0  0  0
 18  6  1  0  0  0  0
 19  7  2  0  0  0  0
 19 20  1  0  0  0  0
 20  8  2  0  0  0  0
 21 15  2  0  0  0  0
 22  3  2  0  0  0  0
 23 22  1  0  0  0  0
 23 18  2  0  0  0  0
 24 27  1  1  0  0  0
 24 28  1  0  0  0  0
 24 31  1  0  0  0  0
 25 30  1  0  0  0  0
 28 25  1  0  0  0  0
 29 30  1  0  0  0  0
 29 26  1  1  0  0  0
 30  5  1  1  0  0  0
 31 29  1  0  0  0  0
M  END
>  <MODEL>
7

>  <REMARK>
 VINA RESULT:      -8.4      3.209      4.721
  Name = 
  1 active torsions:
  status: ('A' for Active; 'I' for Inactive)
    1  A    between atoms: C_5  and  C_30
                            x       y       z     vdW  Elec       q    Type
                         _______ _______ _______ _____ _____    ______ ____

>  <TORSDO>
F 1

$$$$
=
 OpenBabel11112416543D

 31 35  0  0  1  0  0  0  0  0999 V2000
  192.2780  169.5720  142.7240 C   0  0  0  0  0  0  0  0  0  0  0  0
  192.7080  172.8030  144.7520 C   0  0  2  0  0  3  0  0  0  0  0  0
  194.1800  172.7700  145.1200 C   0  0  0  0  0  0  0  0  0  0  0  0
  188.2570  175.0010  142.6810 O   0  0  0  0  0  0  0  0  0  0  0  0
  188.9200  175.8890  143.2800 C   0  0  0  0  0  0  0  0  0  0  0  0
  196.1560  171.5550  145.8630 C   0  0  0  0  0  0  0  0  0  0  0  0
  192.2150  171.7870  143.7320 C   0  0  0  0  0  0  0  0  0  0  0  0
  191.1060  169.8510  142.0180 C   0  0  0  0  0  3  0  0  0  0  0  0
  194.8270  171.5630  145.4310 C   0  0  0  0  0  3  0  0  0  0  0  0
  190.8800  174.3290  143.7910 C   0  0  0  0  0  0  0  0  0  0  0  0
  192.8820  168.3670  142.5840 F   0  0  0  0  0  0  0  0  0  0  0  0
  194.2230  175.1930  145.1120 O   0  0  0  0  0  0  0  0  0  0  0  0
  196.8320  170.2670  146.1640 C   0  0  0  0  0  1  0  0  0  0  0  0
  190.3590  173.3210  143.1530 N   0  0  0  0  0  0  0  0  0  0  0  0
  192.2100  174.1920  144.4060 C   0  0  0  0  0  0  0  0  0  0  0  0
  190.2060  175.5930  143.8410 N   0  0  0  0  0  2  0  0  0  0  0  0
  192.8190  170.5270  143.5860 C   0  0  0  0  0  3  0  0  0  0  0  0
  196.8430  172.7600  146.0230 C   0  0  0  0  0  3  0  0  0  0  0  0
  191.0200  172.0530  143.0250 C   0  0  0  0  0  0  0  0  0  0  0  0
  190.4780  171.0880  142.1710 C   0  0  0  0  0  3  0  0  0  0  0  0
  192.9310  175.2520  144.6240 N   0  0  0  0  0  0  0  0  0  0  0  0
  194.8690  173.9780  145.3260 C   0  0  0  0  0  0  0  0  0  0  0  0
  196.1980  173.9700  145.7610 C   0  0  0  0  0  3  0  0  0  0  0  0
  186.1060  177.4040  145.3150 C   0  0  1  0  0  3  0  0  0  0  0  0
  188.5230  177.8500  144.8010 C   0  0  0  0  0  2  0  0  0  0  0  0
  186.7070  176.7840  141.6820 O   0  0  0  0  0  1  0  0  0  0  0  0
  185.1600  176.7660  146.3090 C   0  0  0  0  0  1  0  0  0  0  0  0
  187.5440  177.2260  145.7960 C   0  0  0  0  0  2  0  0  0  0  0  0
  186.8800  177.3750  142.9340 C   0  0  2  0  0  3  0  0  0  0  0  0
  188.3450  177.2710  143.3930 C   0  0  2  0  0  3  0  0  0  0  0  0
  185.9200  176.7540  143.9480 C   0  0  0  0  0  2  0  0  0  0  0  0
  1 17  1  0  0  0  0
  2  7  1  6  0  0  0
  2  3  1  0  0  0  0
  3 22  2  0  0  0  0
  3  9  1  0  0  0  0
  4  5  2  0  0  0  0
  5 16  1  0  0  0  0
  6 18  1  0  0  0  0
  6 13  1  0  0  0  0
  8 20  1  0  0  0  0
  8  1  2  0  0  0  0
  9  6  2  0  0  0  0
 10 16  1  0  0  0  0
 10 15  1  0  0  0  0
 11  1  1  0  0  0  0
 12 22  1  0  0  0  0
 14 10  2  0  0  0  0
 15 21  2  0  0  0  0
 15  2  1  0  0  0  0
 17  7  2  0  0  0  0
 19 14  1  0  0  0  0
 19  7  1  0  0  0  0
 20 19  2  0  0  0  0
 21 12  1  0  0  0  0
 22 23  1  0  0  0  0
 23 18  2  0  0  0  0
 24 28  1  0  0  0  0
 24 27  1  1  0  0  0
 25 28  1  0  0  0  0
 29 26  1  6  0  0  0
 29 30  1  0  0  0  0
 29 31  1  0  0  0  0
 30  5  1  1  0  0  0
 30 25  1  0  0  0  0
 31 24  1  0  0  0  0
M  END
>  <MODEL>
8

>  <REMARK>
 VINA RESULT:      -8.4      3.878      9.157
  Name = 
  1 active torsions:
  status: ('A' for Active; 'I' for Inactive)
    1  A    between atoms: C_5  and  C_30
                            x       y       z     vdW  Elec       q    Type
                         _______ _______ _______ _____ _____    ______ ____

>  <TORSDO>
F 1

$$$$
=
 OpenBabel11112416543D

 31 35  0  0  1  0  0  0  0  0999 V2000
  186.7550  176.7550  141.0300 C   0  0  0  0  0  0  0  0  0  0  0  0
  187.9910  177.2230  144.6350 C   0  0  2  0  0  3  0  0  0  0  0  0
  186.7070  177.5170  145.3900 C   0  0  0  0  0  0  0  0  0  0  0  0
  192.5810  174.5870  143.6780 O   0  0  0  0  0  0  0  0  0  0  0  0
  192.4360  174.7330  144.9200 C   0  0  0  0  0  0  0  0  0  0  0  0
  184.5460  178.6270  145.5510 C   0  0  0  0  0  0  0  0  0  0  0  0
  187.8660  176.7430  143.1970 C   0  0  0  0  0  0  0  0  0  0  0  0
  187.8160  176.0410  140.4730 C   0  0  0  0  0  3  0  0  0  0  0  0
  185.6810  178.2820  144.8130 C   0  0  0  0  0  3  0  0  0  0  0  0
  190.1130  175.7790  144.7040 C   0  0  0  0  0  0  0  0  0  0  0  0
  185.6990  177.1110  140.2590 F   0  0  0  0  0  0  0  0  0  0  0  0
  187.6540  176.4920  147.3710 O   0  0  0  0  0  0  0  0  0  0  0  0
  183.4580  179.4160  144.9170 C   0  0  0  0  0  1  0  0  0  0  0  0
  190.0750  175.6430  143.4100 N   0  0  0  0  0  0  0  0  0  0  0  0
  188.9520  176.3460  145.4110 C   0  0  0  0  0  0  0  0  0  0  0  0
  191.2420  175.3190  145.4580 N   0  0  0  0  0  2  0  0  0  0  0  0
  186.7880  177.1170  142.3780 C   0  0  0  0  0  3  0  0  0  0  0  0
  184.4410  178.2420  146.8900 C   0  0  0  0  0  3  0  0  0  0  0  0
  188.9440  176.0340  142.6180 C   0  0  0  0  0  0  0  0  0  0  0  0
  188.9100  175.6840  141.2640 C   0  0  0  0  0  3  0  0  0  0  0  0
  188.7680  176.0720  146.6680 N   0  0  0  0  0  0  0  0  0  0  0  0
  186.6090  177.1720  146.7490 C   0  0  0  0  0  0  0  0  0  0  0  0
  185.4750  177.5210  147.4890 C   0  0  0  0  0  3  0  0  0  0  0  0
  196.1910  174.3890  144.5540 C   0  0  1  0  0  3  0  0  0  0  0  0
  194.5290  175.4030  146.1400 C   0  0  0  0  0  2  0  0  0  0  0  0
  193.3480  172.0110  145.0130 O   0  0  0  0  0  1  0  0  0  0  0  0
  197.0920  174.6750  143.3720 C   0  0  0  0  0  1  0  0  0  0  0  0
  195.4590  175.6660  144.9550 C   0  0  0  0  0  2  0  0  0  0  0  0
  194.2610  173.0100  145.3550 C   0  0  2  0  0  3  0  0  0  0  0  0
  193.5330  174.2780  145.8380 C   0  0  2  0  0  3  0  0  0  0  0  0
  195.1900  173.3010  144.1780 C   0  0  0  0  0  2  0  0  0  0  0  0
  1 17  1  0  0  0  0
  2  7  1  6  0  0  0
  2  3  1  0  0  0  0
  2 15  1  0  0  0  0
  3 22  1  0  0  0  0
  4  5  2  0  0  0  0
  5 16  1  0  0  0  0
  6 18  2  0  0  0  0
  8  1  2  0  0  0  0
  8 20  1  0  0  0  0
  9  3  2  0  0  0  0
  9  6  1  0  0  0  0
 10 15  1  0  0  0  0
 10 16  1  0  0  0  0
 11  1  1  0  0  0  0
 13  6  1  0  0  0  0
 14 10  2  0  0  0  0
 15 21  2  0  0  0  0
 17  7  2  0  0  0  0
 18 23  1  0  0  0  0
 19  7  1  0  0  0  0
 19 14  1  0  0  0  0
 20 19  2  0  0  0  0
 21 12  1  0  0  0  0
 22 12  1  0  0  0  0
 22 23  2  0  0  0  0
 24 27  1  6  0  0  0
 24 28  1  0  0  0  0
 28 25  1  0  0  0  0
 29 26  1  6  0  0  0
 29 30  1  0  0  0  0
 30  5  1  6  0  0  0
 30 25  1  0  0  0  0
 31 24  1  0  0  0  0
 31 29  1  0  0  0  0
M  END
>  <MODEL>
9

>  <REMARK>
 VINA RESULT:      -8.3      2.295      4.255
  Name = 
  1 active torsions:
  status: ('A' for Active; 'I' for Inactive)
    1  A    between atoms: C_5  and  C_30
                            x       y       z     vdW  Elec       q    Type
                         _______ _______ _______ _____ _____    ______ ____

>  <TORSDO>
F 1

$$$$
