=
 OpenBabel11112417433D

 28 32  0  0  1  0  0  0  0  0999 V2000
  186.6520  178.2600  144.5210 C   0  0  0  0  0  0  0  0  0  0  0  0
  190.1420  177.9270  145.3780 F   0  0  0  0  0  0  0  0  0  0  0  0
  188.0030  173.4680  141.2650 O   0  0  0  0  0  0  0  0  0  0  0  0
  185.4100  177.8430  147.0550 C   0  0  0  0  0  2  0  0  0  0  0  0
  189.7610  174.0020  142.8450 C   0  0  2  0  0  3  0  0  0  0  0  0
  187.4390  178.7020  143.3260 C   0  0  0  0  0  2  0  0  0  0  0  0
  188.8020  177.9340  147.3240 C   0  0  0  0  0  1  0  0  0  0  0  0
  189.7290  177.1290  146.4330 C   0  0  1  0  0  0  0  0  0  0  0  0
  191.8660  175.8040  146.5810 C   0  0  0  0  0  0  0  0  0  0  0  0
  189.0250  175.8450  145.9220 C   0  0  2  0  0  3  0  0  0  0  0  0
  186.3830  177.4470  139.8560 C   0  0  0  0  0  1  0  0  0  0  0  0
  188.6690  176.1250  143.5130 C   0  0  1  0  0  3  0  0  0  0  0  0
  191.4200  174.9400  145.6700 C   0  0  0  0  0  3  0  0  0  0  0  0
  190.9410  176.7510  147.2820 C   0  0  0  0  0  2  0  0  0  0  0  0
  187.0610  177.3670  141.2070 C   0  0  2  0  0  3  0  0  0  0  0  0
  186.8500  177.0750  145.1540 C   0  0  0  0  0  0  0  0  0  0  0  0
  188.4960  174.2530  142.1190 C   0  0  0  0  0  0  0  0  0  0  0  0
  193.2270  175.7430  146.9870 N   0  0  0  0  0  1  0  0  0  0  0  0
  186.7000  176.0410  141.8630 C   0  0  0  0  0  2  0  0  0  0  0  0
  185.8690  176.6480  146.2180 C   0  0  0  0  0  2  0  0  0  0  0  0
  185.5820  179.1680  144.9900 C   0  0  0  0  0  3  0  0  0  0  0  0
  184.9690  178.9620  146.1580 C   0  0  0  0  0  3  0  0  0  0  0  0
  186.6040  178.5460  142.0590 C   0  0  0  0  0  2  0  0  0  0  0  0
  189.9280  175.2640  143.7020 C   0  0  1  0  0  3  0  0  0  0  0  0
  187.8760  175.4620  142.5010 N   0  0  0  0  0  0  0  0  0  0  0  0
  189.9980  174.9070  145.1850 C   0  0  2  0  0  3  0  0  0  0  0  0
  190.9150  173.9040  141.8660 C   0  0  0  0  0  1  0  0  0  0  0  0
  187.9590  176.0870  144.8530 C   0  0  2  0  0  3  0  0  0  0  0  0
  1 21  1  0  0  0  0
  1 16  2  0  0  0  0
  2  8  1  0  0  0  0
  3 17  2  0  0  0  0
  5 27  1  6  0  0  0
  5 24  1  0  0  0  0
  6  1  1  0  0  0  0
  8 14  1  0  0  0  0
  8  7  1  1  0  0  0
  9 18  1  0  0  0  0
  9 14  1  0  0  0  0
 10  8  1  0  0  0  0
 11 15  1  0  0  0  0
 12 24  1  0  0  0  0
 12 28  1  0  0  0  0
 13  9  2  0  0  0  0
 15 19  1  0  0  0  0
 15 23  1  0  0  0  0
 16 20  1  0  0  0  0
 17 25  1  0  0  0  0
 17  5  1  0  0  0  0
 19 25  1  0  0  0  0
 20  4  1  0  0  0  0
 21 22  2  0  0  0  0
 22  4  1  0  0  0  0
 23  6  1  0  0  0  0
 24 26  1  0  0  0  0
 25 12  1  0  0  0  0
 26 13  1  0  0  0  0
 26 10  1  0  0  0  0
 28 16  1  0  0  0  0
 28 10  1  0  0  0  0
M  END
>  <MODEL>
1

>  <REMARK>
 VINA RESULT:      -9.3      0.000      0.000
  Name = 
  0 active torsions:
  status: ('A' for Active; 'I' for Inactive)
                            x       y       z     vdW  Elec       q    Type
                         _______ _______ _______ _____ _____    ______ ____

>  <TORSDO>
F 0

$$$$
=
 OpenBabel11112417433D

 28 32  0  0  1  0  0  0  0  0999 V2000
  189.9610  176.0610  143.3510 C   0  0  0  0  0  0  0  0  0  0  0  0
  187.5520  178.2810  141.8370 F   0  0  0  0  0  0  0  0  0  0  0  0
  186.1290  176.5690  147.8720 O   0  0  0  0  0  0  0  0  0  0  0  0
  189.7450  173.7660  141.6700 C   0  0  0  0  0  2  0  0  0  0  0  0
  185.2120  177.4650  145.8150 C   0  0  2  0  0  3  0  0  0  0  0  0
  190.1480  177.4040  143.9850 C   0  0  0  0  0  2  0  0  0  0  0  0
  187.8610  176.3520  140.5060 C   0  0  0  0  0  1  0  0  0  0  0  0
  186.9060  177.1430  141.3780 C   0  0  1  0  0  0  0  0  0  0  0  0
  184.6220  178.1990  141.2600 C   0  0  0  0  0  0  0  0  0  0  0  0
  186.3910  176.2780  142.5580 C   0  0  2  0  0  3  0  0  0  0  0  0
  190.5280  177.6070  147.7990 C   0  0  0  0  0  1  0  0  0  0  0  0
  187.3620  177.2010  144.6110 C   0  0  1  0  0  3  0  0  0  0  0  0
  184.3900  177.8940  142.5360 C   0  0  0  0  0  3  0  0  0  0  0  0
  185.7340  177.5550  140.4910 C   0  0  0  0  0  2  0  0  0  0  0  0
  189.7780  177.4980  146.4890 C   0  0  2  0  0  3  0  0  0  0  0  0
  188.7610  175.4310  143.2630 C   0  0  0  0  0  0  0  0  0  0  0  0
  186.2850  176.9030  146.6670 C   0  0  0  0  0  0  0  0  0  0  0  0
  183.7210  179.0620  140.5790 N   0  0  0  0  0  1  0  0  0  0  0  0
  188.7720  176.3600  146.5880 C   0  0  0  0  0  2  0  0  0  0  0  0
  188.7260  174.0000  142.7870 C   0  0  0  0  0  2  0  0  0  0  0  0
  191.1770  175.3900  142.8360 C   0  0  0  0  0  3  0  0  0  0  0  0
  191.0880  174.2950  142.0780 C   0  0  0  0  0  3  0  0  0  0  0  0
  190.7790  177.2520  145.3650 C   0  0  0  0  0  2  0  0  0  0  0  0
  185.9300  177.7440  144.4880 C   0  0  1  0  0  3  0  0  0  0  0  0
  187.5080  176.7530  145.9790 N   0  0  0  0  0  0  0  0  0  0  0  0
  185.2680  176.9800  143.3430 C   0  0  2  0  0  3  0  0  0  0  0  0
  184.7130  178.7730  146.3990 C   0  0  0  0  0  1  0  0  0  0  0  0
  187.4230  176.0230  143.6570 C   0  0  2  0  0  3  0  0  0  0  0  0
  1  6  1  0  0  0  0
  4 22  1  0  0  0  0
  4 20  1  0  0  0  0
  5 27  1  1  0  0  0
  5 17  1  0  0  0  0
  6 23  1  0  0  0  0
  8  7  1  6  0  0  0
  8  2  1  0  0  0  0
  8 10  1  0  0  0  0
  9 13  2  0  0  0  0
 10 26  1  0  0  0  0
 10 28  1  0  0  0  0
 12 25  1  0  0  0  0
 13 26  1  0  0  0  0
 14  9  1  0  0  0  0
 14  8  1  0  0  0  0
 15 19  1  0  0  0  0
 15 11  1  0  0  0  0
 16  1  2  0  0  0  0
 16 28  1  0  0  0  0
 17  3  2  0  0  0  0
 18  9  1  0  0  0  0
 20 16  1  0  0  0  0
 21  1  1  0  0  0  0
 22 21  2  0  0  0  0
 23 15  1  0  0  0  0
 24 12  1  0  0  0  0
 24  5  1  0  0  0  0
 25 19  1  0  0  0  0
 25 17  1  0  0  0  0
 26 24  1  0  0  0  0
 28 12  1  0  0  0  0
M  END
>  <MODEL>
2

>  <REMARK>
 VINA RESULT:      -8.9      2.412      6.559
  Name = 
  0 active torsions:
  status: ('A' for Active; 'I' for Inactive)
                            x       y       z     vdW  Elec       q    Type
                         _______ _______ _______ _____ _____    ______ ____

>  <TORSDO>
F 0

$$$$
=
 OpenBabel11112417433D

 28 32  0  0  1  0  0  0  0  0999 V2000
  190.1850  174.9050  144.0040 C   0  0  0  0  0  0  0  0  0  0  0  0
  187.3510  175.8410  146.0330 F   0  0  0  0  0  0  0  0  0  0  0  0
  186.8570  177.5750  139.8590 O   0  0  0  0  0  0  0  0  0  0  0  0
  192.2720  176.4230  145.2200 C   0  0  0  0  0  2  0  0  0  0  0  0
  186.0150  177.9960  142.0910 C   0  0  2  0  0  3  0  0  0  0  0  0
  189.0610  173.9890  143.6320 C   0  0  0  0  0  2  0  0  0  0  0  0
  189.3530  176.6980  146.9510 C   0  0  0  0  0  1  0  0  0  0  0  0
  188.0250  177.0230  146.2950 C   0  0  1  0  0  0  0  0  0  0  0  0
  185.9530  178.3880  146.7260 C   0  0  0  0  0  0  0  0  0  0  0  0
  188.2380  177.8450  144.9970 C   0  0  2  0  0  3  0  0  0  0  0  0
  188.3810  173.3190  139.9150 C   0  0  0  0  0  1  0  0  0  0  0  0
  187.6140  176.4030  143.1160 C   0  0  1  0  0  3  0  0  0  0  0  0
  185.8380  178.6670  145.4280 C   0  0  0  0  0  3  0  0  0  0  0  0
  187.2240  177.8460  147.3020 C   0  0  0  0  0  2  0  0  0  0  0  0
  188.3140  174.0910  141.2140 C   0  0  2  0  0  3  0  0  0  0  0  0
  190.0750  176.2590  144.0280 C   0  0  0  0  0  0  0  0  0  0  0  0
  186.8930  177.3400  141.0960 C   0  0  0  0  0  0  0  0  0  0  0  0
  184.8880  178.7280  147.6040 N   0  0  0  0  0  1  0  0  0  0  0  0
  188.6910  175.5420  140.9470 C   0  0  0  0  0  2  0  0  0  0  0  0
  191.3230  177.0860  144.2200 C   0  0  0  0  0  2  0  0  0  0  0  0
  191.4860  174.2740  144.3200 C   0  0  0  0  0  3  0  0  0  0  0  0
  192.4820  174.9830  144.8570 C   0  0  0  0  0  3  0  0  0  0  0  0
  189.2650  173.4510  142.2200 C   0  0  0  0  0  2  0  0  0  0  0  0
  186.4220  177.3270  143.4110 C   0  0  1  0  0  3  0  0  0  0  0  0
  187.8030  176.4340  141.6820 N   0  0  0  0  0  0  0  0  0  0  0  0
  186.9100  178.3660  144.4180 C   0  0  2  0  0  3  0  0  0  0  0  0
  184.5620  177.6790  141.7960 C   0  0  0  0  0  1  0  0  0  0  0  0
  188.7950  177.0440  143.8210 C   0  0  2  0  0  3  0  0  0  0  0  0
  1 16  2  0  0  0  0
  1 21  1  0  0  0  0
  2  8  1  0  0  0  0
  3 17  2  0  0  0  0
  5 27  1  6  0  0  0
  5 24  1  0  0  0  0
  6  1  1  0  0  0  0
  8  7  1  1  0  0  0
  8 14  1  0  0  0  0
  9 14  1  0  0  0  0
  9 18  1  0  0  0  0
 10  8  1  0  0  0  0
 11 15  1  0  0  0  0
 12 24  1  0  0  0  0
 12 28  1  0  0  0  0
 13  9  2  0  0  0  0
 15 23  1  0  0  0  0
 16 20  1  0  0  0  0
 17 25  1  0  0  0  0
 17  5  1  0  0  0  0
 19 15  1  0  0  0  0
 19 25  1  0  0  0  0
 20  4  1  0  0  0  0
 21 22  2  0  0  0  0
 22  4  1  0  0  0  0
 23  6  1  0  0  0  0
 24 26  1  0  0  0  0
 25 12  1  0  0  0  0
 26 10  1  0  0  0  0
 26 13  1  0  0  0  0
 28 16  1  0  0  0  0
 28 10  1  0  0  0  0
M  END
>  <MODEL>
3

>  <REMARK>
 VINA RESULT:      -8.7      2.142      5.067
  Name = 
  0 active torsions:
  status: ('A' for Active; 'I' for Inactive)
                            x       y       z     vdW  Elec       q    Type
                         _______ _______ _______ _____ _____    ______ ____

>  <TORSDO>
F 0

$$$$
=
 OpenBabel11112417433D

 28 32  0  0  1  0  0  0  0  0999 V2000
  190.8440  174.9000  143.9780 C   0  0  0  0  0  0  0  0  0  0  0  0
  188.9390  177.2060  141.9590 F   0  0  0  0  0  0  0  0  0  0  0  0
  186.7310  176.5150  147.9600 O   0  0  0  0  0  0  0  0  0  0  0  0
  190.4440  172.4540  142.5650 C   0  0  0  0  0  2  0  0  0  0  0  0
  186.1500  177.2480  145.7250 C   0  0  2  0  0  3  0  0  0  0  0  0
  191.1680  176.2770  144.4660 C   0  0  0  0  0  2  0  0  0  0  0  0
  189.0790  175.0950  140.9060 C   0  0  0  0  0  1  0  0  0  0  0  0
  188.1760  176.1170  141.5690 C   0  0  1  0  0  0  0  0  0  0  0  0
  186.0950  177.4470  141.0780 C   0  0  0  0  0  0  0  0  0  0  0  0
  187.4330  175.4920  142.7790 C   0  0  2  0  0  3  0  0  0  0  0  0
  191.2240  176.9280  148.2480 C   0  0  0  0  0  1  0  0  0  0  0  0
  188.3380  176.5380  144.8030 C   0  0  1  0  0  3  0  0  0  0  0  0
  185.7040  177.3480  142.3480 C   0  0  0  0  0  3  0  0  0  0  0  0
  187.1640  176.5630  140.5160 C   0  0  0  0  0  2  0  0  0  0  0  0
  190.5890  176.7500  146.8860 C   0  0  2  0  0  3  0  0  0  0  0  0
  189.5770  174.4330  143.8340 C   0  0  0  0  0  0  0  0  0  0  0  0
  187.0440  176.6630  146.7490 C   0  0  0  0  0  0  0  0  0  0  0  0
  185.3980  178.3270  140.2050 N   0  0  0  0  0  1  0  0  0  0  0  0
  189.4200  175.7820  147.0080 C   0  0  0  0  0  2  0  0  0  0  0  0
  189.3730  172.9690  143.5280 C   0  0  0  0  0  2  0  0  0  0  0  0
  191.9880  174.0080  143.6820 C   0  0  0  0  0  3  0  0  0  0  0  0
  191.8070  172.8450  143.0520 C   0  0  0  0  0  3  0  0  0  0  0  0
  191.6410  176.2250  145.9150 C   0  0  0  0  0  2  0  0  0  0  0  0
  187.0190  177.2490  144.4610 C   0  0  1  0  0  3  0  0  0  0  0  0
  188.2900  176.2590  146.2220 N   0  0  0  0  0  0  0  0  0  0  0  0
  186.3590  176.4370  143.3480 C   0  0  2  0  0  3  0  0  0  0  0  0
  185.7990  178.6770  146.0920 C   0  0  0  0  0  1  0  0  0  0  0  0
  188.3110  175.2470  144.0070 C   0  0  2  0  0  3  0  0  0  0  0  0
  1  6  1  0  0  0  0
  4 22  1  0  0  0  0
  4 20  1  0  0  0  0
  5 27  1  1  0  0  0
  5 17  1  0  0  0  0
  6 23  1  0  0  0  0
  8  7  1  6  0  0  0
  8  2  1  0  0  0  0
  8 10  1  0  0  0  0
  9 13  2  0  0  0  0
 10 26  1  0  0  0  0
 10 28  1  0  0  0  0
 12 25  1  0  0  0  0
 13 26  1  0  0  0  0
 14  9  1  0  0  0  0
 14  8  1  0  0  0  0
 15 19  1  0  0  0  0
 15 11  1  0  0  0  0
 16  1  2  0  0  0  0
 16 28  1  0  0  0  0
 17  3  2  0  0  0  0
 18  9  1  0  0  0  0
 20 16  1  0  0  0  0
 21  1  1  0  0  0  0
 22 21  2  0  0  0  0
 23 15  1  0  0  0  0
 24 12  1  0  0  0  0
 24  5  1  0  0  0  0
 25 17  1  0  0  0  0
 25 19  1  0  0  0  0
 26 24  1  0  0  0  0
 28 12  1  0  0  0  0
M  END
>  <MODEL>
4

>  <REMARK>
 VINA RESULT:      -8.4      2.289      6.498
  Name = 
  0 active torsions:
  status: ('A' for Active; 'I' for Inactive)
                            x       y       z     vdW  Elec       q    Type
                         _______ _______ _______ _____ _____    ______ ____

>  <TORSDO>
F 0

$$$$
=
 OpenBabel11112417433D

 28 32  0  0  1  0  0  0  0  0999 V2000
  190.6760  174.7090  142.0860 C   0  0  0  0  0  0  0  0  0  0  0  0
  188.8050  177.7760  142.4240 F   0  0  0  0  0  0  0  0  0  0  0  0
  190.8200  175.2910  148.0040 O   0  0  0  0  0  0  0  0  0  0  0  0
  188.7090  172.9730  140.9640 C   0  0  0  0  0  2  0  0  0  0  0  0
  189.2360  176.8190  146.9920 C   0  0  2  0  0  3  0  0  0  0  0  0
  191.6590  175.7830  142.4350 C   0  0  0  0  0  2  0  0  0  0  0  0
  187.5550  176.1650  141.2310 C   0  0  0  0  0  1  0  0  0  0  0  0
  187.6690  176.9870  142.5000 C   0  0  1  0  0  0  0  0  0  0  0  0
  186.3240  178.6340  143.8500 C   0  0  0  0  0  0  0  0  0  0  0  0
  187.7090  176.0690  143.7500 C   0  0  2  0  0  3  0  0  0  0  0  0
  194.2990  175.0610  145.1250 C   0  0  0  0  0  1  0  0  0  0  0  0
  189.9630  176.2310  144.6970 C   0  0  1  0  0  3  0  0  0  0  0  0
  186.8190  178.1430  144.9860 C   0  0  0  0  0  3  0  0  0  0  0  0
  186.4360  177.8850  142.5580 C   0  0  0  0  0  2  0  0  0  0  0  0
  192.9340  175.4440  144.5970 C   0  0  2  0  0  3  0  0  0  0  0  0
  189.5410  174.4700  142.7930 C   0  0  0  0  0  0  0  0  0  0  0  0
  190.3230  175.8160  146.9720 C   0  0  0  0  0  0  0  0  0  0  0  0
  185.5660  179.8360  143.8880 N   0  0  0  0  0  1  0  0  0  0  0  0
  191.8740  174.6340  145.3330 C   0  0  0  0  0  2  0  0  0  0  0  0
  188.7310  173.2380  142.4700 C   0  0  0  0  0  2  0  0  0  0  0  0
  191.0060  173.8520  140.9240 C   0  0  0  0  0  3  0  0  0  0  0  0
  190.1040  173.0110  140.4130 C   0  0  0  0  0  3  0  0  0  0  0  0
  192.8900  175.1740  143.0970 C   0  0  0  0  0  2  0  0  0  0  0  0
  189.0490  177.1620  145.5080 C   0  0  1  0  0  3  0  0  0  0  0  0
  190.7360  175.4820  145.6640 N   0  0  0  0  0  0  0  0  0  0  0  0
  187.6180  176.8710  145.0600 C   0  0  2  0  0  3  0  0  0  0  0  0
  189.6840  178.0610  147.7400 C   0  0  0  0  0  1  0  0  0  0  0  0
  189.0230  175.3110  143.9410 C   0  0  2  0  0  3  0  0  0  0  0  0
  1  6  1  0  0  0  0
  1 16  2  0  0  0  0
  2  8  1  0  0  0  0
  4 20  1  0  0  0  0
  5 27  1  1  0  0  0
  6 23  1  0  0  0  0
  8  7  1  6  0  0  0
  8 14  1  0  0  0  0
  8 10  1  0  0  0  0
  9 18  1  0  0  0  0
  9 13  2  0  0  0  0
 10 28  1  0  0  0  0
 10 26  1  0  0  0  0
 12 24  1  0  0  0  0
 12 25  1  0  0  0  0
 13 26  1  0  0  0  0
 14  9  1  0  0  0  0
 15 11  1  0  0  0  0
 15 19  1  0  0  0  0
 16 28  1  0  0  0  0
 17  5  1  0  0  0  0
 17  3  2  0  0  0  0
 19 25  1  0  0  0  0
 20 16  1  0  0  0  0
 21  1  1  0  0  0  0
 22 21  2  0  0  0  0
 22  4  1  0  0  0  0
 23 15  1  0  0  0  0
 24  5  1  0  0  0  0
 25 17  1  0  0  0  0
 26 24  1  0  0  0  0
 28 12  1  0  0  0  0
M  END
>  <MODEL>
5

>  <REMARK>
 VINA RESULT:      -8.3      2.308      6.227
  Name = 
  0 active torsions:
  status: ('A' for Active; 'I' for Inactive)
                            x       y       z     vdW  Elec       q    Type
                         _______ _______ _______ _____ _____    ______ ____

>  <TORSDO>
F 0

$$$$
=
 OpenBabel11112417433D

 28 32  0  0  1  0  0  0  0  0999 V2000
  186.6220  176.8390  143.4380 C   0  0  0  0  0  0  0  0  0  0  0  0
  188.6180  173.8330  143.4970 F   0  0  0  0  0  0  0  0  0  0  0  0
  190.1700  178.1170  148.0370 O   0  0  0  0  0  0  0  0  0  0  0  0
  187.3060  177.9150  140.8860 C   0  0  0  0  0  2  0  0  0  0  0  0
  190.9600  176.1850  146.8070 C   0  0  2  0  0  3  0  0  0  0  0  0
  186.1730  176.0410  144.6220 C   0  0  0  0  0  2  0  0  0  0  0  0
  188.7080  174.8510  141.3670 C   0  0  0  0  0  1  0  0  0  0  0  0
  189.4760  174.4760  142.6190 C   0  0  1  0  0  0  0  0  0  0  0  0
  191.5270  173.1810  143.3000 C   0  0  0  0  0  0  0  0  0  0  0  0
  190.1100  175.7310  143.2750 C   0  0  2  0  0  3  0  0  0  0  0  0
  185.6580  177.8420  147.9710 C   0  0  0  0  0  1  0  0  0  0  0  0
  188.9290  176.1190  145.3870 C   0  0  1  0  0  3  0  0  0  0  0  0
  191.7770  174.0490  144.2800 C   0  0  0  0  0  3  0  0  0  0  0  0
  190.5750  173.5060  142.1910 C   0  0  0  0  0  2  0  0  0  0  0  0
  186.4500  177.1660  146.8740 C   0  0  2  0  0  3  0  0  0  0  0  0
  187.9200  177.1540  143.1920 C   0  0  0  0  0  0  0  0  0  0  0  0
  189.9870  177.2490  147.1420 C   0  0  0  0  0  0  0  0  0  0  0  0
  192.2710  171.9720  143.2390 N   0  0  0  0  0  1  0  0  0  0  0  0
  187.6470  178.0380  146.5190 C   0  0  0  0  0  2  0  0  0  0  0  0
  188.2330  178.1290  142.0840 C   0  0  0  0  0  2  0  0  0  0  0  0
  185.5660  177.3290  142.5230 C   0  0  0  0  0  3  0  0  0  0  0  0
  185.8770  177.8670  141.3410 C   0  0  0  0  0  3  0  0  0  0  0  0
  185.5430  176.9570  145.6660 C   0  0  0  0  0  2  0  0  0  0  0  0
  190.2390  175.3850  145.7130 C   0  0  1  0  0  3  0  0  0  0  0  0
  188.8320  177.2110  146.3320 N   0  0  0  0  0  0  0  0  0  0  0  0
  191.0620  175.3630  144.4270 C   0  0  2  0  0  3  0  0  0  0  0  0
  191.1910  175.2910  148.0100 C   0  0  0  0  0  1  0  0  0  0  0  0
  189.1140  176.6520  143.9780 C   0  0  2  0  0  3  0  0  0  0  0  0
  1  6  1  0  0  0  0
  4 22  1  0  0  0  0
  4 20  1  0  0  0  0
  5 17  1  0  0  0  0
  5 27  1  1  0  0  0
  6 23  1  0  0  0  0
  8  7  1  6  0  0  0
  8 10  1  0  0  0  0
  8  2  1  0  0  0  0
  9 13  2  0  0  0  0
 10 28  1  0  0  0  0
 10 26  1  0  0  0  0
 12 24  1  0  0  0  0
 12 25  1  0  0  0  0
 13 26  1  0  0  0  0
 14  8  1  0  0  0  0
 14  9  1  0  0  0  0
 15 11  1  0  0  0  0
 16  1  2  0  0  0  0
 16 28  1  0  0  0  0
 17  3  2  0  0  0  0
 18  9  1  0  0  0  0
 19 15  1  0  0  0  0
 20 16  1  0  0  0  0
 21  1  1  0  0  0  0
 22 21  2  0  0  0  0
 23 15  1  0  0  0  0
 24  5  1  0  0  0  0
 25 19  1  0  0  0  0
 25 17  1  0  0  0  0
 26 24  1  0  0  0  0
 28 12  1  0  0  0  0
M  END
>  <MODEL>
6

>  <REMARK>
 VINA RESULT:      -8.2      2.508      4.807
  Name = 
  0 active torsions:
  status: ('A' for Active; 'I' for Inactive)
                            x       y       z     vdW  Elec       q    Type
                         _______ _______ _______ _____ _____    ______ ____

>  <TORSDO>
F 0

$$$$
=
 OpenBabel11112417433D

 28 32  0  0  1  0  0  0  0  0999 V2000
  191.1270  174.3550  144.8230 C   0  0  0  0  0  0  0  0  0  0  0  0
  188.3100  175.5610  146.7290 F   0  0  0  0  0  0  0  0  0  0  0  0
  187.7850  176.4790  140.3840 O   0  0  0  0  0  0  0  0  0  0  0  0
  193.2280  176.0080  145.8200 C   0  0  0  0  0  2  0  0  0  0  0  0
  186.9590  177.1920  142.5480 C   0  0  2  0  0  3  0  0  0  0  0  0
  189.9970  173.4040  144.5800 C   0  0  0  0  0  2  0  0  0  0  0  0
  190.3220  176.5200  147.5160 C   0  0  0  0  0  1  0  0  0  0  0  0
  188.9910  176.7640  146.8310 C   0  0  1  0  0  0  0  0  0  0  0  0
  186.9270  178.1840  147.0920 C   0  0  0  0  0  0  0  0  0  0  0  0
  189.1990  177.4090  145.4360 C   0  0  2  0  0  3  0  0  0  0  0  0
  189.2900  172.2590  140.9860 C   0  0  0  0  0  1  0  0  0  0  0  0
  188.5580  175.7380  143.7620 C   0  0  1  0  0  3  0  0  0  0  0  0
  186.8060  178.2920  145.7700 C   0  0  0  0  0  3  0  0  0  0  0  0
  188.2000  177.7150  147.7270 C   0  0  0  0  0  2  0  0  0  0  0  0
  189.2350  173.1940  142.1740 C   0  0  2  0  0  3  0  0  0  0  0  0
  191.0230  175.7000  144.6710 C   0  0  0  0  0  0  0  0  0  0  0  0
  187.8280  176.4080  141.6410 C   0  0  0  0  0  0  0  0  0  0  0  0
  185.8690  178.6410  147.9250 N   0  0  0  0  0  1  0  0  0  0  0  0
  189.6170  174.5960  141.7170 C   0  0  0  0  0  2  0  0  0  0  0  0
  192.2760  176.5390  144.7470 C   0  0  0  0  0  2  0  0  0  0  0  0
  192.4280  173.7630  145.2110 C   0  0  0  0  0  3  0  0  0  0  0  0
  193.4290  174.5310  145.6450 C   0  0  0  0  0  3  0  0  0  0  0  0
  190.1900  172.6860  143.2480 C   0  0  0  0  0  2  0  0  0  0  0  0
  187.3710  176.6980  143.9410 C   0  0  1  0  0  3  0  0  0  0  0  0
  188.7380  175.5810  142.3350 N   0  0  0  0  0  0  0  0  0  0  0  0
  187.8700  177.8570  144.8010 C   0  0  2  0  0  3  0  0  0  0  0  0
  185.5030  176.8470  142.3040 C   0  0  0  0  0  1  0  0  0  0  0  0
  189.7460  176.4580  144.3710 C   0  0  2  0  0  3  0  0  0  0  0  0
  1 21  1  0  0  0  0
  2  8  1  0  0  0  0
  3 17  2  0  0  0  0
  5 27  1  6  0  0  0
  5 24  1  0  0  0  0
  6  1  1  0  0  0  0
  8  7  1  1  0  0  0
  8 14  1  0  0  0  0
  9 14  1  0  0  0  0
  9 18  1  0  0  0  0
 10  8  1  0  0  0  0
 11 15  1  0  0  0  0
 12 24  1  0  0  0  0
 12 28  1  0  0  0  0
 13  9  2  0  0  0  0
 15 23  1  0  0  0  0
 16 20  1  0  0  0  0
 16  1  2  0  0  0  0
 17 25  1  0  0  0  0
 17  5  1  0  0  0  0
 19 15  1  0  0  0  0
 19 25  1  0  0  0  0
 20  4  1  0  0  0  0
 21 22  2  0  0  0  0
 22  4  1  0  0  0  0
 23  6  1  0  0  0  0
 24 26  1  0  0  0  0
 25 12  1  0  0  0  0
 26 10  1  0  0  0  0
 26 13  1  0  0  0  0
 28 16  1  0  0  0  0
 28 10  1  0  0  0  0
M  END
>  <MODEL>
7

>  <REMARK>
 VINA RESULT:      -7.8      2.009      5.136
  Name = 
  0 active torsions:
  status: ('A' for Active; 'I' for Inactive)
                            x       y       z     vdW  Elec       q    Type
                         _______ _______ _______ _____ _____    ______ ____

>  <TORSDO>
F 0

$$$$
=
 OpenBabel11112417433D

 28 32  0  0  1  0  0  0  0  0999 V2000
  189.1190  176.3180  145.0830 C   0  0  0  0  0  0  0  0  0  0  0  0
  192.6800  176.8130  144.7640 F   0  0  0  0  0  0  0  0  0  0  0  0
  190.1060  173.1450  140.1500 O   0  0  0  0  0  0  0  0  0  0  0  0
  188.9680  174.9160  147.5630 C   0  0  0  0  0  2  0  0  0  0  0  0
  192.1760  173.7420  141.2590 C   0  0  2  0  0  3  0  0  0  0  0  0
  189.3270  177.2640  143.9420 C   0  0  0  0  0  2  0  0  0  0  0  0
  192.1490  175.9230  146.8880 C   0  0  0  0  0  1  0  0  0  0  0  0
  192.8310  175.6850  145.5550 C   0  0  1  0  0  0  0  0  0  0  0  0
  195.0910  175.0530  144.6390 C   0  0  0  0  0  0  0  0  0  0  0  0
  192.2500  174.4290  144.8550 C   0  0  2  0  0  3  0  0  0  0  0  0
  187.3620  176.6960  140.6950 C   0  0  0  0  0  1  0  0  0  0  0  0
  191.0110  175.2040  142.8870 C   0  0  1  0  0  3  0  0  0  0  0  0
  194.5230  174.3620  143.6510 C   0  0  0  0  0  3  0  0  0  0  0  0
  194.3140  175.4720  145.8490 C   0  0  0  0  0  2  0  0  0  0  0  0
  188.4790  176.4730  141.6900 C   0  0  2  0  0  3  0  0  0  0  0  0
  189.7530  175.1210  145.1930 C   0  0  0  0  0  0  0  0  0  0  0  0
  190.7110  173.7910  141.0460 C   0  0  0  0  0  0  0  0  0  0  0  0
  196.4920  175.2910  144.6010 N   0  0  0  0  0  1  0  0  0  0  0  0
  188.6380  174.9770  141.9280 C   0  0  0  0  0  2  0  0  0  0  0  0
  189.3160  174.1660  146.2760 C   0  0  0  0  0  2  0  0  0  0  0  0
  188.1340  176.7190  146.1130 C   0  0  0  0  0  3  0  0  0  0  0  0
  188.0310  176.0480  147.2630 C   0  0  0  0  0  3  0  0  0  0  0  0
  188.1410  177.2040  142.9850 C   0  0  0  0  0  2  0  0  0  0  0  0
  192.3940  174.7320  142.4110 C   0  0  1  0  0  3  0  0  0  0  0  0
  190.0500  174.6230  141.9750 N   0  0  0  0  0  0  0  0  0  0  0  0
  193.0550  174.0410  143.6020 C   0  0  2  0  0  3  0  0  0  0  0  0
  192.9000  174.2440  140.0240 C   0  0  0  0  0  1  0  0  0  0  0  0
  190.8470  174.6150  144.2760 C   0  0  2  0  0  3  0  0  0  0  0  0
  1 16  2  0  0  0  0
  1 21  1  0  0  0  0
  2  8  1  0  0  0  0
  3 17  2  0  0  0  0
  5 27  1  6  0  0  0
  5 24  1  0  0  0  0
  6  1  1  0  0  0  0
  8 14  1  0  0  0  0
  8  7  1  1  0  0  0
  9 14  1  0  0  0  0
 10  8  1  0  0  0  0
 11 15  1  0  0  0  0
 12 28  1  0  0  0  0
 13  9  2  0  0  0  0
 15 19  1  0  0  0  0
 15 23  1  0  0  0  0
 16 20  1  0  0  0  0
 17  5  1  0  0  0  0
 17 25  1  0  0  0  0
 18  9  1  0  0  0  0
 19 25  1  0  0  0  0
 20  4  1  0  0  0  0
 21 22  2  0  0  0  0
 22  4  1  0  0  0  0
 23  6  1  0  0  0  0
 24 12  1  0  0  0  0
 24 26  1  0  0  0  0
 25 12  1  0  0  0  0
 26 13  1  0  0  0  0
 26 10  1  0  0  0  0
 28 10  1  0  0  0  0
 28 16  1  0  0  0  0
M  END
>  <MODEL>
8

>  <REMARK>
 VINA RESULT:      -7.8      2.084      3.261
  Name = 
  0 active torsions:
  status: ('A' for Active; 'I' for Inactive)
                            x       y       z     vdW  Elec       q    Type
                         _______ _______ _______ _____ _____    ______ ____

>  <TORSDO>
F 0

$$$$
=
 OpenBabel11112417433D

 28 32  0  0  1  0  0  0  0  0999 V2000
  188.9960  176.3570  144.7400 C   0  0  0  0  0  0  0  0  0  0  0  0
  189.1410  172.8310  143.9840 F   0  0  0  0  0  0  0  0  0  0  0  0
  194.7400  175.3450  145.9100 O   0  0  0  0  0  0  0  0  0  0  0  0
  188.3270  177.4490  142.1910 C   0  0  0  0  0  2  0  0  0  0  0  0
  193.7200  173.4780  144.7500 C   0  0  2  0  0  3  0  0  0  0  0  0
  189.0960  175.6340  146.0470 C   0  0  0  0  0  2  0  0  0  0  0  0
  188.3080  174.0460  142.1370 C   0  0  0  0  0  1  0  0  0  0  0  0
  189.4410  173.1990  142.6820 C   0  0  1  0  0  0  0  0  0  0  0  0
  190.7080  171.0940  142.1260 C   0  0  0  0  0  0  0  0  0  0  0  0
  190.7860  173.9690  142.6150 C   0  0  2  0  0  3  0  0  0  0  0  0
  191.5520  176.9390  148.6920 C   0  0  0  0  0  1  0  0  0  0  0  0
  191.4530  174.4660  144.9200 C   0  0  1  0  0  3  0  0  0  0  0  0
  191.8360  171.6200  142.6020 C   0  0  0  0  0  3  0  0  0  0  0  0
  189.5180  171.9480  141.8110 C   0  0  0  0  0  2  0  0  0  0  0  0
  191.1310  176.1810  147.4520 C   0  0  2  0  0  3  0  0  0  0  0  0
  189.8470  176.1520  143.7010 C   0  0  0  0  0  0  0  0  0  0  0  0
  193.7090  174.7780  145.4580 C   0  0  0  0  0  0  0  0  0  0  0  0
  190.6740  169.7130  141.7930 N   0  0  0  0  0  1  0  0  0  0  0  0
  192.0760  176.5360  146.3110 C   0  0  0  0  0  2  0  0  0  0  0  0
  189.7760  177.0770  142.5110 C   0  0  0  0  0  2  0  0  0  0  0  0
  187.9240  177.3710  144.6160 C   0  0  0  0  0  3  0  0  0  0  0  0
  187.6270  177.9140  143.4330 C   0  0  0  0  0  3  0  0  0  0  0  0
  189.6920  176.5510  147.1110 C   0  0  0  0  0  2  0  0  0  0  0  0
  192.2330  173.2220  144.4670 C   0  0  1  0  0  3  0  0  0  0  0  0
  192.4180  175.3400  145.5530 N   0  0  0  0  0  0  0  0  0  0  0  0
  191.9850  173.0700  142.9680 C   0  0  2  0  0  3  0  0  0  0  0  0
  194.2490  172.3900  145.6650 C   0  0  0  0  0  1  0  0  0  0  0  0
  190.9280  175.0920  143.6420 C   0  0  2  0  0  3  0  0  0  0  0  0
  1  6  1  0  0  0  0
  4 20  1  0  0  0  0
  4 22  1  0  0  0  0
  5 17  1  0  0  0  0
  5 27  1  1  0  0  0
  6 23  1  0  0  0  0
  8  7  1  6  0  0  0
  8  2  1  0  0  0  0
  9 13  2  0  0  0  0
 10  8  1  0  0  0  0
 10 26  1  0  0  0  0
 10 28  1  0  0  0  0
 12 25  1  0  0  0  0
 13 26  1  0  0  0  0
 14  9  1  0  0  0  0
 14  8  1  0  0  0  0
 15 11  1  0  0  0  0
 16  1  2  0  0  0  0
 17 25  1  0  0  0  0
 17  3  2  0  0  0  0
 18  9  1  0  0  0  0
 19 15  1  0  0  0  0
 20 16  1  0  0  0  0
 21  1  1  0  0  0  0
 22 21  2  0  0  0  0
 23 15  1  0  0  0  0
 24  5  1  0  0  0  0
 24 12  1  0  0  0  0
 25 19  1  0  0  0  0
 26 24  1  0  0  0  0
 28 16  1  0  0  0  0
 28 12  1  0  0  0  0
M  END
>  <MODEL>
9

>  <REMARK>
 VINA RESULT:      -7.7      2.785      5.721
  Name = 
  0 active torsions:
  status: ('A' for Active; 'I' for Inactive)
                            x       y       z     vdW  Elec       q    Type
                         _______ _______ _______ _____ _____    ______ ____

>  <TORSDO>
F 0

$$$$
