=
 OpenBabel11112417043D

 31 35  0  0  1  0  0  0  0  0999 V2000
  186.0810  177.4580  147.4180 C   0  0  0  0  0  0  0  0  0  0  0  0
  189.0000  177.6090  144.9850 C   0  0  2  0  0  3  0  0  0  0  0  0
  189.7790  176.3090  145.2360 C   0  0  2  0  0  3  0  0  0  0  0  0
  191.0380  175.2320  147.0730 C   0  0  0  0  0  0  0  0  0  0  0  0
  187.5830  177.5100  145.5080 C   0  0  0  0  0  0  0  0  0  0  0  0
  184.9990  177.2210  146.5690 C   0  0  0  0  0  3  0  0  0  0  0  0
  190.0180  176.0070  146.6910 C   0  0  0  0  0  3  0  0  0  0  0  0
  188.0430  177.0930  142.6590 C   0  0  1  0  0  3  0  0  0  0  0  0
  185.8860  177.5440  148.7560 F   0  0  0  0  0  0  0  0  0  0  0  0
  191.2750  176.9070  143.3770 N   0  0  0  0  0  0  0  0  0  0  0  0
  191.1920  174.9160  148.3800 F   0  0  0  0  0  0  0  0  0  0  0  0
  186.6140  177.3050  143.1510 C   0  0  0  0  0  2  0  0  0  0  0  0
  189.0050  177.9550  143.4860 C   0  0  2  0  0  3  0  0  0  0  0  0
  187.3650  177.6020  146.8900 C   0  0  0  0  0  3  0  0  0  0  0  0
  192.0390  174.7780  146.0850 C   0  0  0  0  0  3  0  0  0  0  0  0
  186.4820  177.2740  144.6500 C   0  0  0  0  0  0  0  0  0  0  0  0
  185.1990  177.1390  145.1890 C   0  0  0  0  0  3  0  0  0  0  0  0
  190.4180  177.9970  142.9030 C   0  0  0  0  0  2  0  0  0  0  0  0
  191.0680  176.2100  144.4540 C   0  0  0  0  0  0  0  0  0  0  0  0
  192.0460  175.2510  144.8740 N   0  0  0  0  0  0  0  0  0  0  0  0
  188.1920  175.2910  140.4330 O   0  0  0  0  0  0  0  0  0  0  0  0
  188.4010  174.8210  141.5830 C   0  0  0  0  0  0  0  0  0  0  0  0
  188.3950  175.6800  142.7260 N   0  0  0  0  0  2  0  0  0  0  0  0
  191.2730  172.6090  140.7830 C   0  0  0  0  0  0  0  0  0  0  0  0
  189.7660  173.0560  142.7080 C   0  0  0  0  0  2  0  0  0  0  0  0
  187.8160  172.4020  139.6980 O   0  0  0  0  0  0  0  0  0  0  0  0
  192.4170  172.2720  140.3840 O   0  0  0  0  0  0  0  0  0  0  0  0
  191.1250  173.3540  142.0730 C   0  0  0  0  0  2  0  0  0  0  0  0
  188.8090  172.6610  140.4270 C   0  0  0  0  0  0  0  0  0  0  0  0
  188.6060  173.3480  141.7490 C   0  0  2  0  0  3  0  0  0  0  0  0
  190.1250  172.3250  139.9800 N   0  0  0  0  0  2  0  0  0  0  0  0
  1  9  1  0  0  0  0
  2  3  1  0  0  0  0
  2  5  1  6  0  0  0
  3  7  1  1  0  0  0
  4 11  1  0  0  0  0
  5 14  2  0  0  0  0
  6  1  2  0  0  0  0
  7  4  2  0  0  0  0
  8 23  1  1  0  0  0
  8 12  1  0  0  0  0
  8 13  1  0  0  0  0
 10 19  2  0  0  0  0
 12 16  1  0  0  0  0
 13 18  1  6  0  0  0
 13  2  1  0  0  0  0
 14  1  1  0  0  0  0
 15  4  1  0  0  0  0
 16 17  2  0  0  0  0
 16  5  1  0  0  0  0
 17  6  1  0  0  0  0
 18 10  1  0  0  0  0
 19 20  1  0  0  0  0
 19  3  1  0  0  0  0
 20 15  2  0  0  0  0
 21 22  2  0  0  0  0
 22 23  1  0  0  0  0
 24 28  1  0  0  0  0
 26 29  2  0  0  0  0
 27 24  2  0  0  0  0
 28 25  1  0  0  0  0
 29 30  1  0  0  0  0
 30 22  1  6  0  0  0
 30 25  1  0  0  0  0
 31 29  1  0  0  0  0
 31 24  1  0  0  0  0
M  END
>  <MODEL>
1

>  <REMARK>
 VINA RESULT:      -8.7      0.000      0.000
  Name = 
  2 active torsions:
  status: ('A' for Active; 'I' for Inactive)
    1  A    between atoms: C_5  and  C_30
    2  A    between atoms: C_10  and  N_16
                            x       y       z     vdW  Elec       q    Type
                         _______ _______ _______ _____ _____    ______ ____

>  <TORSDO>
F 2

$$$$
=
 OpenBabel11112417043D

 31 35  0  0  1  0  0  0  0  0999 V2000
  184.1920  178.6420  143.2550 C   0  0  0  0  0  0  0  0  0  0  0  0
  187.8790  177.9720  143.9010 C   0  0  2  0  0  3  0  0  0  0  0  0
  187.8910  176.7830  144.8740 C   0  0  2  0  0  3  0  0  0  0  0  0
  187.1350  176.2670  147.1720 C   0  0  0  0  0  0  0  0  0  0  0  0
  186.5540  178.0760  143.1770 C   0  0  0  0  0  0  0  0  0  0  0  0
  184.0340  178.1950  141.9430 C   0  0  0  0  0  3  0  0  0  0  0  0
  186.9310  176.9230  146.0250 C   0  0  0  0  0  3  0  0  0  0  0  0
  188.7920  176.8130  141.7990 C   0  0  1  0  0  3  0  0  0  0  0  0
  183.1270  179.1300  143.9370 F   0  0  0  0  0  0  0  0  0  0  0  0
  190.3460  176.7540  144.7270 N   0  0  0  0  0  0  0  0  0  0  0  0
  186.2220  176.3510  148.1680 F   0  0  0  0  0  0  0  0  0  0  0  0
  187.5570  177.2050  140.9920 C   0  0  0  0  0  2  0  0  0  0  0  0
  189.0400  177.8530  142.8980 C   0  0  2  0  0  3  0  0  0  0  0  0
  185.4450  178.5840  143.8680 C   0  0  0  0  0  3  0  0  0  0  0  0
  188.3850  175.5090  147.3840 C   0  0  0  0  0  3  0  0  0  0  0  0
  186.3910  177.6280  141.8440 C   0  0  0  0  0  0  0  0  0  0  0  0
  185.1330  177.6990  141.2380 C   0  0  0  0  0  3  0  0  0  0  0  0
  190.3920  177.6770  143.5910 C   0  0  0  0  0  2  0  0  0  0  0  0
  189.2690  176.4160  145.3710 C   0  0  0  0  0  0  0  0  0  0  0  0
  189.3730  175.5980  146.5430 N   0  0  0  0  0  0  0  0  0  0  0  0
  190.6910  174.6720  141.6090 O   0  0  0  0  0  0  0  0  0  0  0  0
  189.5920  174.4340  142.1790 C   0  0  0  0  0  0  0  0  0  0  0  0
  188.6280  175.4750  142.3530 N   0  0  0  0  0  2  0  0  0  0  0  0
  191.6680  171.8470  143.8470 C   0  0  0  0  0  0  0  0  0  0  0  0
  189.4380  172.9020  144.1460 C   0  0  0  0  0  2  0  0  0  0  0  0
  189.8110  171.6750  140.7340 O   0  0  0  0  0  0  0  0  0  0  0  0
  192.6750  171.3200  144.3840 O   0  0  0  0  0  0  0  0  0  0  0  0
  190.9050  172.9060  144.5790 C   0  0  0  0  0  2  0  0  0  0  0  0
  190.1220  172.0230  141.9030 C   0  0  0  0  0  0  0  0  0  0  0  0
  189.2840  173.0400  142.6280 C   0  0  2  0  0  3  0  0  0  0  0  0
  191.2860  171.4690  142.5220 N   0  0  0  0  0  2  0  0  0  0  0  0
  1 14  1  0  0  0  0
  1  9  1  0  0  0  0
  2  5  1  6  0  0  0
  2  3  1  0  0  0  0
  3 19  1  0  0  0  0
  3  7  1  1  0  0  0
  4 15  1  0  0  0  0
  4 11  1  0  0  0  0
  5 14  2  0  0  0  0
  6  1  2  0  0  0  0
  7  4  2  0  0  0  0
  8 23  1  1  0  0  0
  8 13  1  0  0  0  0
 10 19  2  0  0  0  0
 12  8  1  0  0  0  0
 12 16  1  0  0  0  0
 13 18  1  1  0  0  0
 13  2  1  0  0  0  0
 16  5  1  0  0  0  0
 17 16  2  0  0  0  0
 17  6  1  0  0  0  0
 18 10  1  0  0  0  0
 19 20  1  0  0  0  0
 20 15  2  0  0  0  0
 21 22  2  0  0  0  0
 22 23  1  0  0  0  0
 24 27  2  0  0  0  0
 24 28  1  0  0  0  0
 25 28  1  0  0  0  0
 26 29  2  0  0  0  0
 29 31  1  0  0  0  0
 29 30  1  0  0  0  0
 30 22  1  6  0  0  0
 30 25  1  0  0  0  0
 31 24  1  0  0  0  0
M  END
>  <MODEL>
2

>  <REMARK>
 VINA RESULT:      -8.5      2.172      3.058
  Name = 
  2 active torsions:
  status: ('A' for Active; 'I' for Inactive)
    1  A    between atoms: C_5  and  C_30
    2  A    between atoms: C_10  and  N_16
                            x       y       z     vdW  Elec       q    Type
                         _______ _______ _______ _____ _____    ______ ____

>  <TORSDO>
F 2

$$$$
=
 OpenBabel11112417043D

 31 35  0  0  1  0  0  0  0  0999 V2000
  186.0870  177.6090  147.2300 C   0  0  0  0  0  0  0  0  0  0  0  0
  189.1600  177.7470  144.9930 C   0  0  2  0  0  3  0  0  0  0  0  0
  190.1650  176.7940  145.6580 C   0  0  2  0  0  3  0  0  0  0  0  0
  191.4110  176.6140  147.7860 C   0  0  0  0  0  0  0  0  0  0  0  0
  187.7470  177.4690  145.4600 C   0  0  0  0  0  0  0  0  0  0  0  0
  185.1820  176.8910  146.4470 C   0  0  0  0  0  3  0  0  0  0  0  0
  190.2990  176.9840  147.1450 C   0  0  0  0  0  3  0  0  0  0  0  0
  188.5990  176.3790  142.8920 C   0  0  1  0  0  3  0  0  0  0  0  0
  185.7300  178.0230  148.4690 F   0  0  0  0  0  0  0  0  0  0  0  0
  191.6960  177.1750  143.7710 N   0  0  0  0  0  0  0  0  0  0  0  0
  191.4820  176.7280  149.1340 F   0  0  0  0  0  0  0  0  0  0  0  0
  187.1120  176.3780  143.2360 C   0  0  0  0  0  2  0  0  0  0  0  0
  189.2570  177.6430  143.4600 C   0  0  2  0  0  3  0  0  0  0  0  0
  187.3620  177.8960  146.7390 C   0  0  0  0  0  3  0  0  0  0  0  0
  192.5900  176.1470  147.0270 C   0  0  0  0  0  3  0  0  0  0  0  0
  186.8240  176.7450  144.6670 C   0  0  0  0  0  0  0  0  0  0  0  0
  185.5470  176.4700  145.1660 C   0  0  0  0  0  3  0  0  0  0  0  0
  190.6850  177.8500  142.9530 C   0  0  0  0  0  2  0  0  0  0  0  0
  191.5230  176.7840  144.9980 C   0  0  0  0  0  0  0  0  0  0  0  0
  192.6300  176.2450  145.7300 N   0  0  0  0  0  0  0  0  0  0  0  0
  190.0490  174.4620  141.3280 O   0  0  0  0  0  0  0  0  0  0  0  0
  189.9000  174.2250  142.5570 C   0  0  0  0  0  0  0  0  0  0  0  0
  189.2340  175.1680  143.3990 N   0  0  0  0  0  2  0  0  0  0  0  0
  193.1960  172.5240  142.4080 C   0  0  0  0  0  0  0  0  0  0  0  0
  191.5120  173.1410  144.1280 C   0  0  0  0  0  2  0  0  0  0  0  0
  189.9240  171.3270  141.3940 O   0  0  0  0  0  0  0  0  0  0  0  0
  194.4070  172.3380  142.1240 O   0  0  0  0  0  0  0  0  0  0  0  0
  192.8230  173.5350  143.4460 C   0  0  0  0  0  2  0  0  0  0  0  0
  190.7980  171.9690  142.0330 C   0  0  0  0  0  0  0  0  0  0  0  0
  190.3810  172.9240  143.1180 C   0  0  2  0  0  3  0  0  0  0  0  0
  192.1800  171.8060  141.7030 N   0  0  0  0  0  2  0  0  0  0  0  0
  1  9  1  0  0  0  0
  2  5  1  1  0  0  0
  2  3  1  0  0  0  0
  3  7  1  1  0  0  0
  4 11  1  0  0  0  0
  5 14  2  0  0  0  0
  6  1  2  0  0  0  0
  7  4  2  0  0  0  0
  8 12  1  0  0  0  0
  8 23  1  1  0  0  0
  8 13  1  0  0  0  0
 10 19  2  0  0  0  0
 12 16  1  0  0  0  0
 13 18  1  1  0  0  0
 13  2  1  0  0  0  0
 14  1  1  0  0  0  0
 15  4  1  0  0  0  0
 16 17  2  0  0  0  0
 16  5  1  0  0  0  0
 17  6  1  0  0  0  0
 18 10  1  0  0  0  0
 19  3  1  0  0  0  0
 19 20  1  0  0  0  0
 20 15  2  0  0  0  0
 21 22  2  0  0  0  0
 22 23  1  0  0  0  0
 24 28  1  0  0  0  0
 26 29  2  0  0  0  0
 27 24  2  0  0  0  0
 28 25  1  0  0  0  0
 29 30  1  0  0  0  0
 30 22  1  6  0  0  0
 30 25  1  0  0  0  0
 31 29  1  0  0  0  0
 31 24  1  0  0  0  0
M  END
>  <MODEL>
3

>  <REMARK>
 VINA RESULT:      -8.4      1.461      1.605
  Name = 
  2 active torsions:
  status: ('A' for Active; 'I' for Inactive)
    1  A    between atoms: C_5  and  C_30
    2  A    between atoms: C_10  and  N_16
                            x       y       z     vdW  Elec       q    Type
                         _______ _______ _______ _____ _____    ______ ____

>  <TORSDO>
F 2

$$$$
=
 OpenBabel11112417043D

 31 35  0  0  1  0  0  0  0  0999 V2000
  185.1560  178.2420  144.3420 C   0  0  0  0  0  0  0  0  0  0  0  0
  188.9160  177.8470  144.7500 C   0  0  2  0  0  3  0  0  0  0  0  0
  189.0960  176.4350  145.3270 C   0  0  2  0  0  3  0  0  0  0  0  0
  188.4890  175.1820  147.3720 C   0  0  0  0  0  0  0  0  0  0  0  0
  187.5620  178.0040  144.0930 C   0  0  0  0  0  0  0  0  0  0  0  0
  185.0000  178.1840  142.9560 C   0  0  0  0  0  3  0  0  0  0  0  0
  188.1700  176.1170  146.4710 C   0  0  0  0  0  3  0  0  0  0  0  0
  189.8740  177.4720  142.3960 C   0  0  1  0  0  3  0  0  0  0  0  0
  184.0700  178.3790  145.1400 F   0  0  0  0  0  0  0  0  0  0  0  0
  191.5320  176.7370  145.1720 N   0  0  0  0  0  0  0  0  0  0  0  0
  187.6100  174.8630  148.3510 F   0  0  0  0  0  0  0  0  0  0  0  0
  188.5740  177.9370  141.7450 C   0  0  0  0  0  2  0  0  0  0  0  0
  190.0460  178.1650  143.7540 C   0  0  2  0  0  3  0  0  0  0  0  0
  186.4300  178.1520  144.9060 C   0  0  0  0  0  3  0  0  0  0  0  0
  189.8220  174.5460  147.3470 C   0  0  0  0  0  3  0  0  0  0  0  0
  187.4000  177.9500  142.6870 C   0  0  0  0  0  0  0  0  0  0  0  0
  186.1200  178.0490  142.1330 C   0  0  0  0  0  3  0  0  0  0  0  0
  191.4340  177.9520  144.3600 C   0  0  0  0  0  2  0  0  0  0  0  0
  190.5240  176.1020  145.6900 C   0  0  0  0  0  0  0  0  0  0  0  0
  190.7620  174.9940  146.5670 N   0  0  0  0  0  0  0  0  0  0  0  0
  192.1270  175.7530  141.9540 O   0  0  0  0  0  0  0  0  0  0  0  0
  191.0260  175.2140  142.2440 C   0  0  0  0  0  0  0  0  0  0  0  0
  189.8800  176.0200  142.5300 N   0  0  0  0  0  2  0  0  0  0  0  0
  188.8040  172.8980  140.3790 C   0  0  0  0  0  0  0  0  0  0  0  0
  191.2300  173.1480  140.8540 C   0  0  0  0  0  2  0  0  0  0  0  0
  189.3170  173.2390  143.9550 O   0  0  0  0  0  0  0  0  0  0  0  0
  187.9100  172.5220  139.5790 O   0  0  0  0  0  0  0  0  0  0  0  0
  190.1060  173.4140  139.8520 C   0  0  0  0  0  2  0  0  0  0  0  0
  189.5660  173.2620  142.7220 C   0  0  0  0  0  0  0  0  0  0  0  0
  190.9140  173.7220  142.2390 C   0  0  2  0  0  3  0  0  0  0  0  0
  188.5540  172.8780  141.7870 N   0  0  0  0  0  2  0  0  0  0  0  0
  1 14  1  0  0  0  0
  1  9  1  0  0  0  0
  2  5  1  6  0  0  0
  2  3  1  0  0  0  0
  3 19  1  0  0  0  0
  3  7  1  1  0  0  0
  4 11  1  0  0  0  0
  5 14  2  0  0  0  0
  6  1  2  0  0  0  0
  7  4  2  0  0  0  0
  8 23  1  1  0  0  0
  8 13  1  0  0  0  0
 10 19  2  0  0  0  0
 12  8  1  0  0  0  0
 12 16  1  0  0  0  0
 13 18  1  1  0  0  0
 13  2  1  0  0  0  0
 15  4  1  0  0  0  0
 16  5  1  0  0  0  0
 17 16  2  0  0  0  0
 17  6  1  0  0  0  0
 18 10  1  0  0  0  0
 19 20  1  0  0  0  0
 20 15  2  0  0  0  0
 21 22  2  0  0  0  0
 22 23  1  0  0  0  0
 24 31  1  0  0  0  0
 25 30  1  0  0  0  0
 27 24  2  0  0  0  0
 28 24  1  0  0  0  0
 28 25  1  0  0  0  0
 29 26  2  0  0  0  0
 30 22  1  6  0  0  0
 30 29  1  0  0  0  0
 31 29  1  0  0  0  0
M  END
>  <MODEL>
4

>  <REMARK>
 VINA RESULT:      -8.0      1.884      2.696
  Name = 
  2 active torsions:
  status: ('A' for Active; 'I' for Inactive)
    1  A    between atoms: C_5  and  C_30
    2  A    between atoms: C_10  and  N_16
                            x       y       z     vdW  Elec       q    Type
                         _______ _______ _______ _____ _____    ______ ____

>  <TORSDO>
F 2

$$$$
=
 OpenBabel11112417043D

 31 35  0  0  1  0  0  0  0  0999 V2000
  186.4260  176.8260  146.6960 C   0  0  0  0  0  0  0  0  0  0  0  0
  189.7010  177.4980  144.8850 C   0  0  2  0  0  3  0  0  0  0  0  0
  190.5920  176.2970  145.2390 C   0  0  2  0  0  3  0  0  0  0  0  0
  191.6190  175.2870  147.2490 C   0  0  0  0  0  0  0  0  0  0  0  0
  188.2390  177.1850  145.1190 C   0  0  0  0  0  0  0  0  0  0  0  0
  185.5660  176.5010  145.6460 C   0  0  0  0  0  3  0  0  0  0  0  0
  190.5920  175.9440  146.7020 C   0  0  0  0  0  3  0  0  0  0  0  0
  189.2810  177.0010  142.4000 C   0  0  1  0  0  3  0  0  0  0  0  0
  185.9720  176.8060  147.9730 F   0  0  0  0  0  0  0  0  0  0  0  0
  192.3130  177.1940  143.7280 N   0  0  0  0  0  0  0  0  0  0  0  0
  191.5660  174.9160  148.5500 F   0  0  0  0  0  0  0  0  0  0  0  0
  187.7690  176.9960  142.6120 C   0  0  0  0  0  2  0  0  0  0  0  0
  189.9400  177.9300  143.4270 C   0  0  2  0  0  3  0  0  0  0  0  0
  187.7540  177.1660  146.4340 C   0  0  0  0  0  3  0  0  0  0  0  0
  192.8410  175.0250  146.4610 C   0  0  0  0  0  3  0  0  0  0  0  0
  187.3630  176.8600  144.0550 C   0  0  0  0  0  0  0  0  0  0  0  0
  186.0330  176.5280  144.3290 C   0  0  0  0  0  3  0  0  0  0  0  0
  191.4180  178.1900  143.1320 C   0  0  0  0  0  2  0  0  0  0  0  0
  192.0060  176.4130  144.7200 C   0  0  0  0  0  0  0  0  0  0  0  0
  193.0100  175.5670  145.2900 N   0  0  0  0  0  0  0  0  0  0  0  0
  189.0340  174.9710  140.3900 O   0  0  0  0  0  0  0  0  0  0  0  0
  189.6040  174.6610  141.4700 C   0  0  0  0  0  0  0  0  0  0  0  0
  189.8060  175.6440  142.4880 N   0  0  0  0  0  2  0  0  0  0  0  0
  189.7940  172.5940  144.5470 C   0  0  0  0  0  0  0  0  0  0  0  0
  188.8660  172.4050  142.2500 C   0  0  0  0  0  2  0  0  0  0  0  0
  192.3760  173.3810  142.1220 O   0  0  0  0  0  0  0  0  0  0  0  0
  189.6910  172.2910  145.7630 O   0  0  0  0  0  0  0  0  0  0  0  0
  188.5610  172.7370  143.7110 C   0  0  0  0  0  2  0  0  0  0  0  0
  191.2300  173.1560  142.5930 C   0  0  0  0  0  0  0  0  0  0  0  0
  190.0250  173.2430  141.6980 C   0  0  2  0  0  3  0  0  0  0  0  0
  191.0820  172.8490  143.9820 N   0  0  0  0  0  2  0  0  0  0  0  0
  1  9  1  0  0  0  0
  2  5  1  6  0  0  0
  2  3  1  0  0  0  0
  3  7  1  1  0  0  0
  4 11  1  0  0  0  0
  5 14  2  0  0  0  0
  6  1  2  0  0  0  0
  7  4  2  0  0  0  0
  8 23  1  1  0  0  0
  8 12  1  0  0  0  0
  8 13  1  0  0  0  0
 10 19  2  0  0  0  0
 12 16  1  0  0  0  0
 13 18  1  6  0  0  0
 13  2  1  0  0  0  0
 14  1  1  0  0  0  0
 15  4  1  0  0  0  0
 16 17  2  0  0  0  0
 16  5  1  0  0  0  0
 17  6  1  0  0  0  0
 18 10  1  0  0  0  0
 19  3  1  0  0  0  0
 19 20  1  0  0  0  0
 20 15  2  0  0  0  0
 21 22  2  0  0  0  0
 22 23  1  0  0  0  0
 24 27  2  0  0  0  0
 25 28  1  0  0  0  0
 26 29  2  0  0  0  0
 28 24  1  0  0  0  0
 29 31  1  0  0  0  0
 30 22  1  1  0  0  0
 30 25  1  0  0  0  0
 30 29  1  0  0  0  0
 31 24  1  0  0  0  0
M  END
>  <MODEL>
5

>  <REMARK>
 VINA RESULT:      -7.8      1.579      2.168
  Name = 
  2 active torsions:
  status: ('A' for Active; 'I' for Inactive)
    1  A    between atoms: C_5  and  C_30
    2  A    between atoms: C_10  and  N_16
                            x       y       z     vdW  Elec       q    Type
                         _______ _______ _______ _____ _____    ______ ____

>  <TORSDO>
F 2

$$$$
=
 OpenBabel11112417043D

 31 35  0  0  1  0  0  0  0  0999 V2000
  195.2220  175.0630  142.3510 C   0  0  0  0  0  0  0  0  0  0  0  0
  192.1150  173.8510  144.1780 C   0  0  2  0  0  3  0  0  0  0  0  0
  191.6660  175.0560  145.0180 C   0  0  2  0  0  3  0  0  0  0  0  0
  192.5300  176.4360  146.8810 C   0  0  0  0  0  0  0  0  0  0  0  0
  193.0320  174.2770  143.0510 C   0  0  0  0  0  0  0  0  0  0  0  0
  194.7660  175.1890  141.0390 C   0  0  0  0  0  3  0  0  0  0  0  0
  192.7810  175.7240  145.7780 C   0  0  0  0  0  3  0  0  0  0  0  0
  190.2180  173.8070  142.4470 C   0  0  1  0  0  3  0  0  0  0  0  0
  196.5020  175.3860  142.6560 F   0  0  0  0  0  0  0  0  0  0  0  0
  189.6930  173.7660  145.7210 N   0  0  0  0  0  0  0  0  0  0  0  0
  193.5380  177.0870  147.5070 F   0  0  0  0  0  0  0  0  0  0  0  0
  191.2090  173.9300  141.2920 C   0  0  0  0  0  2  0  0  0  0  0  0
  190.8910  173.0970  143.6280 C   0  0  2  0  0  3  0  0  0  0  0  0
  194.3600  174.6100  143.3510 C   0  0  0  0  0  3  0  0  0  0  0  0
  191.1710  176.4580  147.4600 C   0  0  0  0  0  3  0  0  0  0  0  0
  192.5730  174.4020  141.7180 C   0  0  0  0  0  0  0  0  0  0  0  0
  193.4480  174.8490  140.7230 C   0  0  0  0  0  3  0  0  0  0  0  0
  189.9040  172.7080  144.7300 C   0  0  0  0  0  2  0  0  0  0  0  0
  190.5010  174.7610  145.9340 C   0  0  0  0  0  0  0  0  0  0  0  0
  190.2420  175.6630  147.0150 N   0  0  0  0  0  0  0  0  0  0  0  0
  187.4780  174.6500  142.3630 O   0  0  0  0  0  0  0  0  0  0  0  0
  188.3430  175.4980  142.7110 C   0  0  0  0  0  0  0  0  0  0  0  0
  189.7170  175.1230  142.8250 N   0  0  0  0  0  2  0  0  0  0  0  0
  185.8650  176.9900  145.0390 C   0  0  0  0  0  0  0  0  0  0  0  0
  188.2390  177.3420  144.3950 C   0  0  0  0  0  2  0  0  0  0  0  0
  186.1190  177.2750  141.4300 O   0  0  0  0  0  0  0  0  0  0  0  0
  184.9880  177.0460  145.9380 O   0  0  0  0  0  0  0  0  0  0  0  0
  187.2870  176.7000  145.4050 C   0  0  0  0  0  2  0  0  0  0  0  0
  186.4750  177.1340  142.6290 C   0  0  0  0  0  0  0  0  0  0  0  0
  187.9270  176.9140  142.9570 C   0  0  2  0  0  3  0  0  0  0  0  0
  185.4930  177.1530  143.6680 N   0  0  0  0  0  2  0  0  0  0  0  0
  1  9  1  0  0  0  0
  1 14  1  0  0  0  0
  2  5  1  6  0  0  0
  2  3  1  0  0  0  0
  3  7  1  1  0  0  0
  3 19  1  0  0  0  0
  4 15  1  0  0  0  0
  4 11  1  0  0  0  0
  5 14  2  0  0  0  0
  6  1  2  0  0  0  0
  7  4  2  0  0  0  0
  8 23  1  1  0  0  0
  8 13  1  0  0  0  0
 10 19  2  0  0  0  0
 12 16  1  0  0  0  0
 12  8  1  0  0  0  0
 13  2  1  0  0  0  0
 13 18  1  1  0  0  0
 16  5  1  0  0  0  0
 17  6  1  0  0  0  0
 17 16  2  0  0  0  0
 18 10  1  0  0  0  0
 19 20  1  0  0  0  0
 20 15  2  0  0  0  0
 21 22  2  0  0  0  0
 22 23  1  0  0  0  0
 24 28  1  0  0  0  0
 24 27  2  0  0  0  0
 25 28  1  0  0  0  0
 26 29  2  0  0  0  0
 29 30  1  0  0  0  0
 29 31  1  0  0  0  0
 30 22  1  1  0  0  0
 30 25  1  0  0  0  0
 31 24  1  0  0  0  0
M  END
>  <MODEL>
6

>  <REMARK>
 VINA RESULT:      -7.8      2.870      6.324
  Name = 
  2 active torsions:
  status: ('A' for Active; 'I' for Inactive)
    1  A    between atoms: C_5  and  C_30
    2  A    between atoms: C_10  and  N_16
                            x       y       z     vdW  Elec       q    Type
                         _______ _______ _______ _____ _____    ______ ____

>  <TORSDO>
F 2

$$$$
=
 OpenBabel11112417043D

 31 35  0  0  1  0  0  0  0  0999 V2000
  190.2490  171.7070  141.9360 C   0  0  0  0  0  0  0  0  0  0  0  0
  190.2980  175.4650  142.5130 C   0  0  2  0  0  3  0  0  0  0  0  0
  188.8970  175.9380  142.0970 C   0  0  2  0  0  3  0  0  0  0  0  0
  187.5020  176.0150  140.0560 C   0  0  0  0  0  0  0  0  0  0  0  0
  190.3150  173.9790  142.7960 C   0  0  0  0  0  0  0  0  0  0  0  0
  190.2270  171.2070  143.2390 C   0  0  0  0  0  3  0  0  0  0  0  0
  188.4250  175.3770  140.7820 C   0  0  0  0  0  3  0  0  0  0  0  0
  190.1340  175.8200  145.0510 C   0  0  1  0  0  3  0  0  0  0  0  0
  190.2230  170.8540  140.8840 F   0  0  0  0  0  0  0  0  0  0  0  0
  189.4980  178.2050  142.8370 N   0  0  0  0  0  0  0  0  0  0  0  0
  187.0400  175.4570  138.9120 F   0  0  0  0  0  0  0  0  0  0  0  0
  190.4630  174.3540  145.3220 C   0  0  0  0  0  2  0  0  0  0  0  0
  190.7890  176.2600  143.7360 C   0  0  2  0  0  3  0  0  0  0  0  0
  190.2940  173.0850  141.7170 C   0  0  0  0  0  3  0  0  0  0  0  0
  187.0330  177.3570  140.4580 C   0  0  0  0  0  3  0  0  0  0  0  0
  190.2970  173.4680  144.1170 C   0  0  0  0  0  0  0  0  0  0  0  0
  190.2610  172.0850  144.3240 C   0  0  0  0  0  3  0  0  0  0  0  0
  190.7230  177.7710  143.5130 C   0  0  0  0  0  2  0  0  0  0  0  0
  188.7260  177.4390  142.1270 C   0  0  0  0  0  0  0  0  0  0  0  0
  187.6220  178.0110  141.4170 N   0  0  0  0  0  0  0  0  0  0  0  0
  188.6190  177.4140  146.8920 O   0  0  0  0  0  0  0  0  0  0  0  0
  187.9870  176.7840  146.0030 C   0  0  0  0  0  0  0  0  0  0  0  0
  188.6900  176.0160  145.0230 N   0  0  0  0  0  2  0  0  0  0  0  0
  185.5330  179.3540  144.9270 C   0  0  0  0  0  0  0  0  0  0  0  0
  185.9310  176.9240  144.5890 C   0  0  0  0  0  2  0  0  0  0  0  0
  185.9200  177.7240  148.1460 O   0  0  0  0  0  0  0  0  0  0  0  0
  185.1010  180.4360  144.4550 O   0  0  0  0  0  0  0  0  0  0  0  0
  186.1240  178.3280  144.0120 C   0  0  0  0  0  2  0  0  0  0  0  0
  185.9520  177.8920  146.8990 C   0  0  0  0  0  0  0  0  0  0  0  0
  186.4900  176.8050  146.0110 C   0  0  2  0  0  3  0  0  0  0  0  0
  185.5050  179.1300  146.3390 N   0  0  0  0  0  2  0  0  0  0  0  0
  1  6  1  0  0  0  0
  2  5  1  1  0  0  0
  2 13  1  0  0  0  0
  3  7  1  6  0  0  0
  3 19  1  0  0  0  0
  3  2  1  0  0  0  0
  4 15  1  0  0  0  0
  4  7  2  0  0  0  0
  5 16  2  0  0  0  0
  6 17  2  0  0  0  0
  8 23  1  6  0  0  0
  8 12  1  0  0  0  0
  9  1  1  0  0  0  0
 10 18  1  0  0  0  0
 11  4  1  0  0  0  0
 13 18  1  6  0  0  0
 13  8  1  0  0  0  0
 14  1  2  0  0  0  0
 14  5  1  0  0  0  0
 15 20  2  0  0  0  0
 16 17  1  0  0  0  0
 16 12  1  0  0  0  0
 19 10  2  0  0  0  0
 20 19  1  0  0  0  0
 22 21  2  0  0  0  0
 23 22  1  0  0  0  0
 24 31  1  0  0  0  0
 25 30  1  0  0  0  0
 27 24  2  0  0  0  0
 28 25  1  0  0  0  0
 28 24  1  0  0  0  0
 29 26  2  0  0  0  0
 30 22  1  6  0  0  0
 30 29  1  0  0  0  0
 31 29  1  0  0  0  0
M  END
>  <MODEL>
7

>  <REMARK>
 VINA RESULT:      -7.6      3.952      7.094
  Name = 
  2 active torsions:
  status: ('A' for Active; 'I' for Inactive)
    1  A    between atoms: C_5  and  C_30
    2  A    between atoms: C_10  and  N_16
                            x       y       z     vdW  Elec       q    Type
                         _______ _______ _______ _____ _____    ______ ____

>  <TORSDO>
F 2

$$$$
=
 OpenBabel11112417043D

 31 35  0  0  1  0  0  0  0  0999 V2000
  185.6810  177.7860  143.5370 C   0  0  0  0  0  0  0  0  0  0  0  0
  188.1930  175.1020  144.5120 C   0  0  2  0  0  3  0  0  0  0  0  0
  189.1760  175.0470  143.3320 C   0  0  2  0  0  3  0  0  0  0  0  0
  189.1420  174.4950  140.9220 C   0  0  0  0  0  0  0  0  0  0  0  0
  187.4200  176.4030  144.5220 C   0  0  0  0  0  0  0  0  0  0  0  0
  186.0140  178.8320  144.3990 C   0  0  0  0  0  3  0  0  0  0  0  0
  188.5120  175.0110  141.9810 C   0  0  0  0  0  3  0  0  0  0  0  0
  189.7220  176.1410  146.2950 C   0  0  1  0  0  3  0  0  0  0  0  0
  184.6820  177.9440  142.6360 F   0  0  0  0  0  0  0  0  0  0  0  0
  190.5130  173.4090  144.5900 N   0  0  0  0  0  0  0  0  0  0  0  0
  188.5550  174.5390  139.7020 F   0  0  0  0  0  0  0  0  0  0  0  0
  188.7560  177.3040  146.5090 C   0  0  0  0  0  2  0  0  0  0  0  0
  188.9410  174.9010  145.8410 C   0  0  2  0  0  3  0  0  0  0  0  0
  186.3800  176.5790  143.5990 C   0  0  0  0  0  3  0  0  0  0  0  0
  190.4430  173.8150  141.0850 C   0  0  0  0  0  3  0  0  0  0  0  0
  187.7520  177.4650  145.3990 C   0  0  0  0  0  0  0  0  0  0  0  0
  187.0400  178.6670  145.3330 C   0  0  0  0  0  3  0  0  0  0  0  0
  189.7900  173.6290  145.8450 C   0  0  0  0  0  2  0  0  0  0  0  0
  190.2050  173.9470  143.4480 C   0  0  0  0  0  0  0  0  0  0  0  0
  190.9180  173.5570  142.2690 N   0  0  0  0  0  0  0  0  0  0  0  0
  192.5490  175.8020  146.6390 O   0  0  0  0  0  0  0  0  0  0  0  0
  192.1490  176.3620  145.5840 C   0  0  0  0  0  0  0  0  0  0  0  0
  190.7500  176.5110  145.3300 N   0  0  0  0  0  2  0  0  0  0  0  0
  195.1880  174.8900  144.0420 C   0  0  0  0  0  0  0  0  0  0  0  0
  193.1580  176.1230  143.3100 C   0  0  0  0  0  2  0  0  0  0  0  0
  194.8230  177.9150  146.0130 O   0  0  0  0  0  0  0  0  0  0  0  0
  196.0660  174.0320  143.7710 O   0  0  0  0  0  0  0  0  0  0  0  0
  193.8110  174.7500  143.4740 C   0  0  0  0  0  2  0  0  0  0  0  0
  194.5280  176.9800  145.2240 C   0  0  0  0  0  0  0  0  0  0  0  0
  193.1510  176.9170  144.6210 C   0  0  2  0  0  3  0  0  0  0  0  0
  195.4940  175.9680  144.9300 N   0  0  0  0  0  2  0  0  0  0  0  0
  1 14  2  0  0  0  0
  1  6  1  0  0  0  0
  2  5  1  1  0  0  0
  2 13  1  0  0  0  0
  3  7  1  6  0  0  0
  3 19  1  0  0  0  0
  3  2  1  0  0  0  0
  4 15  1  0  0  0  0
  4  7  2  0  0  0  0
  5 16  2  0  0  0  0
  6 17  2  0  0  0  0
  8 23  1  6  0  0  0
  8 12  1  0  0  0  0
  9  1  1  0  0  0  0
 10 18  1  0  0  0  0
 11  4  1  0  0  0  0
 13 18  1  6  0  0  0
 13  8  1  0  0  0  0
 14  5  1  0  0  0  0
 15 20  2  0  0  0  0
 16 12  1  0  0  0  0
 17 16  1  0  0  0  0
 19 10  2  0  0  0  0
 20 19  1  0  0  0  0
 22 21  2  0  0  0  0
 23 22  1  0  0  0  0
 24 31  1  0  0  0  0
 25 28  1  0  0  0  0
 25 30  1  0  0  0  0
 27 24  2  0  0  0  0
 28 24  1  0  0  0  0
 29 26  2  0  0  0  0
 30 29  1  0  0  0  0
 30 22  1  1  0  0  0
 31 29  1  0  0  0  0
M  END
>  <MODEL>
8

>  <REMARK>
 VINA RESULT:      -7.4      3.505      5.332
  Name = 
  2 active torsions:
  status: ('A' for Active; 'I' for Inactive)
    1  A    between atoms: C_5  and  C_30
    2  A    between atoms: C_10  and  N_16
                            x       y       z     vdW  Elec       q    Type
                         _______ _______ _______ _____ _____    ______ ____

>  <TORSDO>
F 2

$$$$
=
 OpenBabel11112417043D

 31 35  0  0  1  0  0  0  0  0999 V2000
  193.3760  172.8070  143.9980 C   0  0  0  0  0  0  0  0  0  0  0  0
  191.4900  175.9950  143.1370 C   0  0  2  0  0  3  0  0  0  0  0  0
  190.1220  175.5110  142.6340 C   0  0  2  0  0  3  0  0  0  0  0  0
  189.2080  174.1670  140.7700 C   0  0  0  0  0  0  0  0  0  0  0  0
  192.1870  174.9260  143.9510 C   0  0  0  0  0  0  0  0  0  0  0  0
  193.3970  172.8420  145.3930 C   0  0  0  0  0  3  0  0  0  0  0  0
  190.1980  174.3810  141.6410 C   0  0  0  0  0  3  0  0  0  0  0  0
  190.7770  177.0510  145.3670 C   0  0  1  0  0  3  0  0  0  0  0  0
  193.9350  171.7640  143.3390 F   0  0  0  0  0  0  0  0  0  0  0  0
  189.4140  177.8600  142.4540 N   0  0  0  0  0  0  0  0  0  0  0  0
  189.2640  173.1020  139.9350 F   0  0  0  0  0  0  0  0  0  0  0  0
  191.7330  176.1530  146.1480 C   0  0  0  0  0  2  0  0  0  0  0  0
  191.3320  177.2880  143.9560 C   0  0  2  0  0  3  0  0  0  0  0  0
  192.7750  173.8440  143.2820 C   0  0  0  0  0  3  0  0  0  0  0  0
  188.0870  175.1230  140.6640 C   0  0  0  0  0  3  0  0  0  0  0  0
  192.2140  174.9610  145.3660 C   0  0  0  0  0  0  0  0  0  0  0  0
  192.8260  173.9210  146.0730 C   0  0  0  0  0  3  0  0  0  0  0  0
  190.5710  178.3730  143.1920 C   0  0  0  0  0  2  0  0  0  0  0  0
  189.2370  176.6190  142.1120 C   0  0  0  0  0  0  0  0  0  0  0  0
  188.1220  176.2650  141.2860 N   0  0  0  0  0  0  0  0  0  0  0  0
  188.3340  178.3550  146.1120 O   0  0  0  0  0  0  0  0  0  0  0  0
  188.2710  177.1460  145.7620 C   0  0  0  0  0  0  0  0  0  0  0  0
  189.4460  176.4570  145.3280 N   0  0  0  0  0  2  0  0  0  0  0  0
  184.8160  178.1270  144.8250 C   0  0  0  0  0  0  0  0  0  0  0  0
  186.3520  176.2070  144.4660 C   0  0  0  0  0  2  0  0  0  0  0  0
  186.1170  176.9950  148.0170 O   0  0  0  0  0  0  0  0  0  0  0  0
  183.8810  178.8380  144.3770 O   0  0  0  0  0  0  0  0  0  0  0  0
  185.7940  177.5050  143.8790 C   0  0  0  0  0  2  0  0  0  0  0  0
  186.0010  177.1220  146.7700 C   0  0  0  0  0  0  0  0  0  0  0  0
  186.9650  176.4210  145.8540 C   0  0  2  0  0  3  0  0  0  0  0  0
  184.9710  177.9580  146.2360 N   0  0  0  0  0  2  0  0  0  0  0  0
  1  6  1  0  0  0  0
  2  5  1  1  0  0  0
  2 13  1  0  0  0  0
  3  7  1  6  0  0  0
  3  2  1  0  0  0  0
  4  7  2  0  0  0  0
  5 16  2  0  0  0  0
  6 17  2  0  0  0  0
  8 23  1  6  0  0  0
  8 12  1  0  0  0  0
  9  1  1  0  0  0  0
 10 18  1  0  0  0  0
 11  4  1  0  0  0  0
 13 18  1  6  0  0  0
 13  8  1  0  0  0  0
 14  5  1  0  0  0  0
 14  1  2  0  0  0  0
 15  4  1  0  0  0  0
 15 20  2  0  0  0  0
 16 17  1  0  0  0  0
 16 12  1  0  0  0  0
 19 10  2  0  0  0  0
 19  3  1  0  0  0  0
 20 19  1  0  0  0  0
 22 21  2  0  0  0  0
 23 22  1  0  0  0  0
 24 31  1  0  0  0  0
 25 30  1  0  0  0  0
 27 24  2  0  0  0  0
 28 25  1  0  0  0  0
 28 24  1  0  0  0  0
 29 26  2  0  0  0  0
 30 22  1  6  0  0  0
 30 29  1  0  0  0  0
 31 29  1  0  0  0  0
M  END
>  <MODEL>
9

>  <REMARK>
 VINA RESULT:      -7.3      3.738      6.889
  Name = 
  2 active torsions:
  status: ('A' for Active; 'I' for Inactive)
    1  A    between atoms: C_5  and  C_30
    2  A    between atoms: C_10  and  N_16
                            x       y       z     vdW  Elec       q    Type
                         _______ _______ _______ _____ _____    ______ ____

>  <TORSDO>
F 2

$$$$
