=
 OpenBabel11112417263D

 37 44  0  0  1  0  0  0  0  0999 V2000
  190.0350  175.6790  146.5370 C   0  0  0  0  0  2  0  0  0  0  0  0
  185.8020  178.3770  147.2190 C   0  0  0  0  0  0  0  0  0  0  0  0
  186.3480  176.5060  143.3230 C   0  0  1  0  0  3  0  0  0  0  0  0
  191.4190  176.0990  147.0330 C   0  0  1  0  0  0  0  0  0  0  0  0
  190.0220  175.6820  142.4210 C   0  0  0  0  0  2  0  0  0  0  0  0
  185.2170  178.2440  144.7500 C   0  0  1  0  0  3  0  0  0  0  0  0
  187.8580  176.4840  143.4820 C   0  0  2  0  0  3  0  0  0  0  0  0
  192.8090  175.1430  145.0510 C   0  0  2  0  0  3  0  0  0  0  0  0
  185.7710  176.8230  144.7020 C   0  0  2  0  0  3  0  0  0  0  0  0
  188.5140  175.4250  142.5720 C   0  0  1  0  0  3  0  0  0  0  0  0
  184.1600  178.3540  143.7590 N   0  0  0  0  0  2  0  0  0  0  0  0
  192.6450  176.2390  146.1180 C   0  0  0  0  0  2  0  0  0  0  0  0
  186.8800  176.5860  145.7400 C   0  0  2  0  0  3  0  0  0  0  0  0
  185.2830  177.4670  148.3170 C   0  0  0  0  0  1  0  0  0  0  0  0
  186.4330  177.4250  140.9710 C   0  0  0  0  0  3  0  0  0  0  0  0
  184.7800  178.4470  142.4330 C   0  0  0  0  0  2  0  0  0  0  0  0
  187.1150  177.8030  146.6570 C   0  0  0  0  0  2  0  0  0  0  0  0
  192.1950  175.5060  143.6950 C   0  0  0  0  0  2  0  0  0  0  0  0
  190.6900  175.6880  143.7870 C   0  0  1  0  0  3  0  0  0  0  0  0
  185.8830  177.4340  142.2020 C   0  0  0  0  0  0  0  0  0  0  0  0
  188.1120  176.1400  144.9470 C   0  0  2  0  0  3  0  0  0  0  0  0
  184.7030  178.5420  146.1520 C   0  0  0  0  0  2  0  0  0  0  0  0
  187.7980  175.2940  141.2120 C   0  0  1  0  0  3  0  0  0  0  0  0
  186.0950  179.7340  147.8230 C   0  0  0  0  0  1  0  0  0  0  0  0
  190.4020  176.8980  144.4400 O   0  0  0  0  0  0  0  0  0  0  0  0
  192.3620  173.8980  145.4990 O   0  0  0  0  0  1  0  0  0  0  0  0
  189.4750  176.6370  145.4750 C   0  0  2  0  0  3  0  0  0  0  0  0
  187.6360  176.6370  140.5060 C   0  0  0  0  0  2  0  0  0  0  0  0
  191.4370  176.9120  148.2370 C   0  0  0  0  0  2  0  0  0  0  0  0
  191.7560  175.4730  148.3160 N   0  0  0  0  0  2  0  0  0  0  0  0
  188.2840  174.3720  138.9400 C   0  0  0  0  0  3  0  0  0  0  0  0
  188.3840  174.2310  140.3290 C   0  0  0  0  0  0  0  0  0  0  0  0
  188.9940  173.0850  140.8650 C   0  0  0  0  0  3  0  0  0  0  0  0
  190.0990  170.9990  140.5390 F   0  0  0  0  0  0  0  0  0  0  0  0
  189.4110  172.2520  138.6320 C   0  0  0  0  0  3  0  0  0  0  0  0
  189.5080  172.1010  140.0180 C   0  0  0  0  0  0  0  0  0  0  0  0
  188.7990  173.3870  138.0930 C   0  0  0  0  0  3  0  0  0  0  0  0
  1  4  1  0  0  0  0
  2 24  1  0  0  0  0
  2 14  1  0  0  0  0
  3 20  1  6  0  0  0
  3  7  1  0  0  0  0
  3  9  1  0  0  0  0
  4 12  1  6  0  0  0
  4 29  1  0  0  0  0
  4 30  1  0  0  0  0
  5 10  1  0  0  0  0
  5 19  1  0  0  0  0
  6 22  1  1  0  0  0
  7 21  1  0  0  0  0
  8 26  1  0  0  0  0
  8 12  1  0  0  0  0
  9  6  1  0  0  0  0
  9 13  1  0  0  0  0
 10  7  1  0  0  0  0
 11  6  1  0  0  0  0
 13 17  1  0  0  0  0
 15 20  2  0  0  0  0
 16 11  1  0  0  0  0
 17  2  1  0  0  0  0
 18 19  1  0  0  0  0
 18  8  1  0  0  0  0
 19 25  1  0  0  0  0
 20 16  1  0  0  0  0
 21 27  1  0  0  0  0
 21 13  1  0  0  0  0
 22  2  1  0  0  0  0
 23 10  1  0  0  0  0
 25 27  1  0  0  0  0
 27  1  1  0  0  0  0
 28 15  1  0  0  0  0
 28 23  1  0  0  0  0
 29 30  1  0  0  0  0
 31 32  1  0  0  0  0
 32 33  2  0  0  0  0
 32 23  1  0  0  0  0
 35 36  2  0  0  0  0
 36 34  1  0  0  0  0
 36 33  1  0  0  0  0
 37 35  1  0  0  0  0
 37 31  2  0  0  0  0
M  END
>  <MODEL>
1

>  <REMARK>
 VINA RESULT:     -10.4      0.000      0.000
  Name = 
  1 active torsions:
  status: ('A' for Active; 'I' for Inactive)
    1  A    between atoms: C_23  and  C_30
                            x       y       z     vdW  Elec       q    Type
                         _______ _______ _______ _____ _____    ______ ____

>  <TORSDO>
F 1

$$$$
=
 OpenBabel11112417263D

 37 44  0  0  1  0  0  0  0  0999 V2000
  190.1280  174.1610  140.6340 C   0  0  0  0  0  2  0  0  0  0  0  0
  187.1130  177.1630  143.3840 C   0  0  0  0  0  0  0  0  0  0  0  0
  191.1520  176.5100  144.8810 C   0  0  1  0  0  3  0  0  0  0  0  0
  189.6790  172.8610  139.9660 C   0  0  1  0  0  0  0  0  0  0  0  0
  192.8600  173.2860  143.5850 C   0  0  0  0  0  2  0  0  0  0  0  0
  188.7720  177.2090  145.3080 C   0  0  1  0  0  3  0  0  0  0  0  0
  191.2700  175.1840  144.1500 C   0  0  2  0  0  3  0  0  0  0  0  0
  191.8890  171.5220  140.2800 C   0  0  2  0  0  3  0  0  0  0  0  0
  189.9230  177.2150  144.3070 C   0  0  2  0  0  3  0  0  0  0  0  0
  192.7420  174.7780  143.9320 C   0  0  1  0  0  3  0  0  0  0  0  0
  189.2060  177.9140  146.5030 N   0  0  0  0  0  2  0  0  0  0  0  0
  190.3520  171.5020  140.2100 C   0  0  0  0  0  2  0  0  0  0  0  0
  189.5600  176.5190  142.9850 C   0  0  2  0  0  3  0  0  0  0  0  0
  186.9810  178.2000  142.2850 C   0  0  0  0  0  1  0  0  0  0  0  0
  192.0520  175.5920  147.0560 C   0  0  0  0  0  3  0  0  0  0  0  0
  190.1030  177.0330  147.2570 C   0  0  0  0  0  2  0  0  0  0  0  0
  188.0880  176.0610  142.9330 C   0  0  0  0  0  2  0  0  0  0  0  0
  192.4400  171.6550  141.7030 C   0  0  0  0  0  2  0  0  0  0  0  0
  192.0390  172.9720  142.3440 C   0  0  1  0  0  3  0  0  0  0  0  0
  191.1530  176.3520  146.4010 C   0  0  0  0  0  0  0  0  0  0  0  0
  190.5830  175.3940  142.8050 C   0  0  2  0  0  3  0  0  0  0  0  0
  187.5510  177.8690  144.6820 C   0  0  0  0  0  2  0  0  0  0  0  0
  193.6440  175.1830  145.1170 C   0  0  1  0  0  3  0  0  0  0  0  0
  185.7550  176.5340  143.6130 C   0  0  0  0  0  1  0  0  0  0  0  0
  190.6760  172.9340  142.6850 O   0  0  0  0  0  0  0  0  0  0  0  0
  192.4450  172.4770  139.4240 O   0  0  0  0  0  1  0  0  0  0  0  0
  190.0530  174.0920  142.1650 C   0  0  2  0  0  3  0  0  0  0  0  0
  193.1050  174.6880  146.4560 C   0  0  0  0  0  2  0  0  0  0  0  0
  188.2840  172.8080  139.5630 C   0  0  0  0  0  2  0  0  0  0  0  0
  189.3320  173.0590  138.5550 N   0  0  0  0  0  2  0  0  0  0  0  0
  195.6980  173.9020  145.7400 C   0  0  0  0  0  3  0  0  0  0  0  0
  195.0920  174.8480  144.9050 C   0  0  0  0  0  0  0  0  0  0  0  0
  195.8560  175.4880  143.9150 C   0  0  0  0  0  3  0  0  0  0  0  0
  197.9410  175.7900  142.8010 F   0  0  0  0  0  0  0  0  0  0  0  0
  197.8060  174.2230  144.5910 C   0  0  0  0  0  3  0  0  0  0  0  0
  197.2080  175.1730  143.7590 C   0  0  0  0  0  0  0  0  0  0  0  0
  197.0510  173.5880  145.5820 C   0  0  0  0  0  3  0  0  0  0  0  0
  1 27  1  0  0  0  0
  2 24  1  0  0  0  0
  2 22  1  0  0  0  0
  3 20  1  1  0  0  0
  4 29  1  1  0  0  0
  4 12  1  0  0  0  0
  4  1  1  0  0  0  0
  5 10  1  0  0  0  0
  6 22  1  6  0  0  0
  6 11  1  0  0  0  0
  7  3  1  0  0  0  0
  8 18  1  0  0  0  0
  9  3  1  0  0  0  0
  9  6  1  0  0  0  0
 10  7  1  0  0  0  0
 10 23  1  0  0  0  0
 11 16  1  0  0  0  0
 12  8  1  0  0  0  0
 13  9  1  0  0  0  0
 14  2  1  0  0  0  0
 17 13  1  0  0  0  0
 17  2  1  0  0  0  0
 18 19  1  0  0  0  0
 19 25  1  0  0  0  0
 19  5  1  0  0  0  0
 20 15  2  0  0  0  0
 20 16  1  0  0  0  0
 21 13  1  0  0  0  0
 21  7  1  0  0  0  0
 23 28  1  0  0  0  0
 26  8  1  0  0  0  0
 27 25  1  0  0  0  0
 27 21  1  0  0  0  0
 28 15  1  0  0  0  0
 30 29  1  0  0  0  0
 30  4  1  0  0  0  0
 32 23  1  0  0  0  0
 32 31  2  0  0  0  0
 33 32  1  0  0  0  0
 34 36  1  0  0  0  0
 35 37  2  0  0  0  0
 36 33  2  0  0  0  0
 36 35  1  0  0  0  0
 37 31  1  0  0  0  0
M  END
>  <MODEL>
2

>  <REMARK>
 VINA RESULT:      -9.6      3.263      6.821
  Name = 
  1 active torsions:
  status: ('A' for Active; 'I' for Inactive)
    1  A    between atoms: C_23  and  C_30
                            x       y       z     vdW  Elec       q    Type
                         _______ _______ _______ _____ _____    ______ ____

>  <TORSDO>
F 1

$$$$
=
 OpenBabel11112417263D

 37 44  0  0  1  0  0  0  0  0999 V2000
  190.6110  171.9280  141.5430 C   0  0  0  0  0  2  0  0  0  0  0  0
  194.8260  172.1720  144.3420 C   0  0  0  0  0  0  0  0  0  0  0  0
  191.6930  175.0670  145.2280 C   0  0  1  0  0  3  0  0  0  0  0  0
  190.5860  171.6860  140.0330 C   0  0  1  0  0  0  0  0  0  0  0  0
  189.2240  175.7240  142.3200 C   0  0  0  0  0  2  0  0  0  0  0  0
  194.1080  174.3760  145.3850 C   0  0  1  0  0  3  0  0  0  0  0  0
  191.1270  174.9700  143.8220 C   0  0  2  0  0  3  0  0  0  0  0  0
  188.5470  173.2010  139.4650 C   0  0  2  0  0  3  0  0  0  0  0  0
  192.6600  173.8940  145.3890 C   0  0  2  0  0  3  0  0  0  0  0  0
  189.6550  175.4280  143.7640 C   0  0  1  0  0  3  0  0  0  0  0  0
  194.2860  175.2910  146.4990 N   0  0  0  0  0  2  0  0  0  0  0  0
  189.9080  172.6320  139.0300 C   0  0  0  0  0  2  0  0  0  0  0  0
  192.3680  172.8900  144.2630 C   0  0  2  0  0  3  0  0  0  0  0  0
  194.6280  170.7900  144.9350 C   0  0  0  0  0  1  0  0  0  0  0  0
  191.6460  177.5930  145.2630 C   0  0  0  0  0  3  0  0  0  0  0  0
  193.6710  176.5730  146.1450 C   0  0  0  0  0  2  0  0  0  0  0  0
  193.6240  172.5210  143.4460 C   0  0  0  0  0  2  0  0  0  0  0  0
  188.6410  174.5670  140.1530 C   0  0  0  0  0  2  0  0  0  0  0  0
  189.4260  174.4930  141.4510 C   0  0  1  0  0  3  0  0  0  0  0  0
  192.2890  176.4400  145.5350 C   0  0  0  0  0  0  0  0  0  0  0  0
  191.2300  173.4980  143.4390 C   0  0  2  0  0  3  0  0  0  0  0  0
  195.0420  173.1770  145.4900 C   0  0  0  0  0  2  0  0  0  0  0  0
  189.3670  176.6040  144.7210 C   0  0  1  0  0  3  0  0  0  0  0  0
  196.0710  172.1490  143.4810 C   0  0  0  0  0  1  0  0  0  0  0  0
  190.7940  174.3450  141.1660 O   0  0  0  0  0  0  0  0  0  0  0  0
  187.8140  172.2910  140.2320 O   0  0  0  0  0  1  0  0  0  0  0  0
  191.2900  173.2540  141.9150 C   0  0  2  0  0  3  0  0  0  0  0  0
  190.3380  177.7660  144.5250 C   0  0  0  0  0  2  0  0  0  0  0  0
  191.6810  170.8890  139.5050 C   0  0  0  0  0  2  0  0  0  0  0  0
  190.3540  170.2750  139.7070 N   0  0  0  0  0  2  0  0  0  0  0  0
  187.5120  178.0130  143.8170 C   0  0  0  0  0  3  0  0  0  0  0  0
  187.9290  177.0320  144.7240 C   0  0  0  0  0  0  0  0  0  0  0  0
  187.0060  176.4980  145.6370 C   0  0  0  0  0  3  0  0  0  0  0  0
  184.7900  176.4160  146.5130 F   0  0  0  0  0  0  0  0  0  0  0  0
  185.2670  177.9100  144.7190 C   0  0  0  0  0  3  0  0  0  0  0  0
  185.6790  176.9350  145.6320 C   0  0  0  0  0  0  0  0  0  0  0  0
  186.1840  178.4490  143.8120 C   0  0  0  0  0  3  0  0  0  0  0  0
  1 27  1  0  0  0  0
  2 14  1  0  0  0  0
  2 22  1  0  0  0  0
  3  9  1  0  0  0  0
  3 20  1  6  0  0  0
  4 12  1  6  0  0  0
  4  1  1  0  0  0  0
  5 10  1  0  0  0  0
  6  9  1  0  0  0  0
  6 22  1  1  0  0  0
  6 11  1  0  0  0  0
  7  3  1  0  0  0  0
  8 18  1  0  0  0  0
  8 26  1  0  0  0  0
 10  7  1  0  0  0  0
 10 23  1  0  0  0  0
 12  8  1  0  0  0  0
 13  9  1  0  0  0  0
 15 20  2  0  0  0  0
 16 11  1  0  0  0  0
 17 13  1  0  0  0  0
 17  2  1  0  0  0  0
 18 19  1  0  0  0  0
 19  5  1  0  0  0  0
 20 16  1  0  0  0  0
 21  7  1  0  0  0  0
 21 13  1  0  0  0  0
 23 32  1  0  0  0  0
 24  2  1  0  0  0  0
 25 19  1  0  0  0  0
 25 27  1  0  0  0  0
 27 21  1  0  0  0  0
 28 23  1  0  0  0  0
 28 15  1  0  0  0  0
 29 30  1  0  0  0  0
 29  4  1  0  0  0  0
 30  4  1  0  0  0  0
 31 32  1  0  0  0  0
 32 33  2  0  0  0  0
 35 36  2  0  0  0  0
 36 33  1  0  0  0  0
 36 34  1  0  0  0  0
 37 31  2  0  0  0  0
 37 35  1  0  0  0  0
M  END
>  <MODEL>
3

>  <REMARK>
 VINA RESULT:      -8.9      3.298      7.854
  Name = 
  1 active torsions:
  status: ('A' for Active; 'I' for Inactive)
    1  A    between atoms: C_23  and  C_30
                            x       y       z     vdW  Elec       q    Type
                         _______ _______ _______ _____ _____    ______ ____

>  <TORSDO>
F 1

$$$$
=
 OpenBabel11112417263D

 37 44  0  0  1  0  0  0  0  0999 V2000
  190.8360  171.6910  141.5040 C   0  0  0  0  0  2  0  0  0  0  0  0
  195.4390  171.4030  143.6010 C   0  0  0  0  0  0  0  0  0  0  0  0
  192.6880  174.3450  145.2620 C   0  0  1  0  0  3  0  0  0  0  0  0
  190.5630  171.6160  140.0010 C   0  0  1  0  0  0  0  0  0  0  0  0
  189.8530  175.4470  142.8680 C   0  0  0  0  0  2  0  0  0  0  0  0
  195.0450  173.5140  144.9600 C   0  0  1  0  0  3  0  0  0  0  0  0
  191.9070  174.4330  143.9630 C   0  0  2  0  0  3  0  0  0  0  0  0
  188.5710  173.2900  139.9220 C   0  0  2  0  0  3  0  0  0  0  0  0
  193.5850  173.1130  145.1480 C   0  0  2  0  0  3  0  0  0  0  0  0
  190.4800  174.9720  144.1880 C   0  0  1  0  0  3  0  0  0  0  0  0
  195.4550  174.2910  146.1170 N   0  0  0  0  0  2  0  0  0  0  0  0
  189.8060  172.7010  139.2190 C   0  0  0  0  0  2  0  0  0  0  0  0
  193.0540  172.2540  143.9890 C   0  0  2  0  0  3  0  0  0  0  0  0
  195.2390  169.9770  144.0770 C   0  0  0  0  0  1  0  0  0  0  0  0
  192.8230  176.8510  145.5560 C   0  0  0  0  0  3  0  0  0  0  0  0
  194.8830  175.6360  145.9960 C   0  0  0  0  0  2  0  0  0  0  0  0
  194.1400  171.9110  142.9490 C   0  0  0  0  0  2  0  0  0  0  0  0
  188.8640  174.5650  140.7180 C   0  0  0  0  0  2  0  0  0  0  0  0
  189.8330  174.3090  141.8600 C   0  0  1  0  0  3  0  0  0  0  0  0
  193.4180  175.6430  145.6050 C   0  0  0  0  0  0  0  0  0  0  0  0
  191.8470  173.0080  143.4230 C   0  0  2  0  0  3  0  0  0  0  0  0
  195.8980  172.2640  144.7930 C   0  0  0  0  0  2  0  0  0  0  0  0
  190.4250  176.0500  145.2900 C   0  0  1  0  0  3  0  0  0  0  0  0
  196.5320  171.4080  142.5540 C   0  0  0  0  0  1  0  0  0  0  0  0
  191.1270  174.1210  141.3450 O   0  0  0  0  0  0  0  0  0  0  0  0
  187.9030  172.3420  140.7020 O   0  0  0  0  0  1  0  0  0  0  0  0
  191.6550  172.9290  141.8920 C   0  0  2  0  0  3  0  0  0  0  0  0
  191.4320  177.1730  145.0580 C   0  0  0  0  0  2  0  0  0  0  0  0
  191.5050  170.8250  139.2270 C   0  0  0  0  0  2  0  0  0  0  0  0
  190.1850  170.2640  139.5770 N   0  0  0  0  0  2  0  0  0  0  0  0
  188.3110  175.9860  146.6220 C   0  0  0  0  0  3  0  0  0  0  0  0
  189.0380  176.5500  145.5660 C   0  0  0  0  0  0  0  0  0  0  0  0
  188.4410  177.5410  144.7690 C   0  0  0  0  0  3  0  0  0  0  0  0
  186.5680  178.9260  144.2660 F   0  0  0  0  0  0  0  0  0  0  0  0
  186.4210  177.4060  146.0960 C   0  0  0  0  0  3  0  0  0  0  0  0
  187.1380  177.9680  145.0360 C   0  0  0  0  0  0  0  0  0  0  0  0
  187.0070  176.4150  146.8880 C   0  0  0  0  0  3  0  0  0  0  0  0
  1 27  1  0  0  0  0
  2 14  1  0  0  0  0
  2 22  1  0  0  0  0
  3 20  1  6  0  0  0
  4 12  1  6  0  0  0
  4  1  1  0  0  0  0
  5 10  1  0  0  0  0
  6 22  1  1  0  0  0
  6  9  1  0  0  0  0
  6 11  1  0  0  0  0
  7 10  1  0  0  0  0
  7  3  1  0  0  0  0
  8 26  1  0  0  0  0
  8 18  1  0  0  0  0
  9  3  1  0  0  0  0
 10 23  1  0  0  0  0
 12  8  1  0  0  0  0
 13  9  1  0  0  0  0
 15 20  2  0  0  0  0
 16 11  1  0  0  0  0
 17  2  1  0  0  0  0
 17 13  1  0  0  0  0
 18 19  1  0  0  0  0
 19  5  1  0  0  0  0
 20 16  1  0  0  0  0
 21  7  1  0  0  0  0
 21 13  1  0  0  0  0
 23 32  1  0  0  0  0
 24  2  1  0  0  0  0
 25 19  1  0  0  0  0
 25 27  1  0  0  0  0
 27 21  1  0  0  0  0
 28 23  1  0  0  0  0
 28 15  1  0  0  0  0
 29 30  1  0  0  0  0
 29  4  1  0  0  0  0
 30  4  1  0  0  0  0
 31 37  1  0  0  0  0
 32 31  2  0  0  0  0
 33 36  2  0  0  0  0
 33 32  1  0  0  0  0
 34 36  1  0  0  0  0
 35 37  2  0  0  0  0
 36 35  1  0  0  0  0
M  END
>  <MODEL>
4

>  <REMARK>
 VINA RESULT:      -8.5      3.589      8.479
  Name = 
  1 active torsions:
  status: ('A' for Active; 'I' for Inactive)
    1  A    between atoms: C_23  and  C_30
                            x       y       z     vdW  Elec       q    Type
                         _______ _______ _______ _____ _____    ______ ____

>  <TORSDO>
F 1

$$$$
=
 OpenBabel11112417263D

 37 44  0  0  1  0  0  0  0  0999 V2000
  194.1150  175.1210  143.1530 C   0  0  0  0  0  2  0  0  0  0  0  0
  194.2120  171.9110  139.2350 C   0  0  0  0  0  0  0  0  0  0  0  0
  190.3900  173.7870  140.1620 C   0  0  1  0  0  3  0  0  0  0  0  0
  194.8360  174.8890  144.4810 C   0  0  1  0  0  0  0  0  0  0  0  0
  190.0510  175.0640  143.8000 C   0  0  0  0  0  2  0  0  0  0  0  0
  191.6780  171.9360  139.0430 C   0  0  1  0  0  3  0  0  0  0  0  0
  190.7840  174.0050  141.6120 C   0  0  2  0  0  3  0  0  0  0  0  0
  193.0670  175.9900  146.0410 C   0  0  2  0  0  3  0  0  0  0  0  0
  191.6710  173.4160  139.4150 C   0  0  2  0  0  3  0  0  0  0  0  0
  189.9540  175.1270  142.2690 C   0  0  1  0  0  3  0  0  0  0  0  0
  190.5370  171.6790  138.1800 N   0  0  0  0  0  2  0  0  0  0  0  0
  194.1300  174.8960  145.8460 C   0  0  0  0  0  2  0  0  0  0  0  0
  192.8620  173.8070  140.3050 C   0  0  2  0  0  3  0  0  0  0  0  0
  195.1830  172.7610  138.4380 C   0  0  0  0  0  1  0  0  0  0  0  0
  188.1130  172.8550  140.7370 C   0  0  0  0  0  3  0  0  0  0  0  0
  189.3300  171.6480  139.0110 C   0  0  0  0  0  2  0  0  0  0  0  0
  193.8440  172.6420  140.5400 C   0  0  0  0  0  2  0  0  0  0  0  0
  191.6440  175.5340  145.7020 C   0  0  0  0  0  2  0  0  0  0  0  0
  191.5040  175.1610  144.2370 C   0  0  1  0  0  3  0  0  0  0  0  0
  189.2410  172.7920  140.0020 C   0  0  0  0  0  0  0  0  0  0  0  0
  192.2580  174.3960  141.5830 C   0  0  2  0  0  3  0  0  0  0  0  0
  192.9910  171.5920  138.3520 C   0  0  0  0  0  2  0  0  0  0  0  0
  188.4940  175.1470  141.7680 C   0  0  1  0  0  3  0  0  0  0  0  0
  194.8990  170.6110  139.5950 C   0  0  0  0  0  1  0  0  0  0  0  0
  192.1440  173.9330  144.0010 O   0  0  0  0  0  0  0  0  0  0  0  0
  193.3970  177.1740  145.3770 O   0  0  0  0  0  1  0  0  0  0  0  0
  193.0110  174.0860  142.8950 C   0  0  2  0  0  3  0  0  0  0  0  0
  187.8160  173.7850  141.8910 C   0  0  0  0  0  2  0  0  0  0  0  0
  196.0550  174.1010  144.4080 C   0  0  0  0  0  2  0  0  0  0  0  0
  196.1350  175.5700  144.5280 N   0  0  0  0  0  2  0  0  0  0  0  0
  187.8500  177.5610  141.8490 C   0  0  0  0  0  3  0  0  0  0  0  0
  187.6800  176.2650  142.3510 C   0  0  0  0  0  0  0  0  0  0  0  0
  186.7830  176.0470  143.4090 C   0  0  0  0  0  3  0  0  0  0  0  0
  185.1910  176.8960  144.9670 F   0  0  0  0  0  0  0  0  0  0  0  0
  186.2270  178.4020  143.4370 C   0  0  0  0  0  3  0  0  0  0  0  0
  186.0580  177.1120  143.9480 C   0  0  0  0  0  0  0  0  0  0  0  0
  187.1230  178.6260  142.3880 C   0  0  0  0  0  3  0  0  0  0  0  0
  2 24  1  0  0  0  0
  2 17  1  0  0  0  0
  3 20  1  1  0  0  0
  3  7  1  0  0  0  0
  4  1  1  6  0  0  0
  4 30  1  0  0  0  0
  4 12  1  0  0  0  0
  5 19  1  0  0  0  0
  6 22  1  6  0  0  0
  6  9  1  0  0  0  0
  7 10  1  0  0  0  0
  9  3  1  0  0  0  0
  9 13  1  0  0  0  0
 10  5  1  0  0  0  0
 11 16  1  0  0  0  0
 11  6  1  0  0  0  0
 12  8  1  0  0  0  0
 13 17  1  0  0  0  0
 13 21  1  0  0  0  0
 14  2  1  0  0  0  0
 15 28  1  0  0  0  0
 16 20  1  0  0  0  0
 18  8  1  0  0  0  0
 19 18  1  0  0  0  0
 20 15  2  0  0  0  0
 21  7  1  0  0  0  0
 21 27  1  0  0  0  0
 22  2  1  0  0  0  0
 23 28  1  0  0  0  0
 23 10  1  0  0  0  0
 23 32  1  0  0  0  0
 25 19  1  0  0  0  0
 26  8  1  0  0  0  0
 27  1  1  0  0  0  0
 27 25  1  0  0  0  0
 29  4  1  0  0  0  0
 29 30  1  0  0  0  0
 31 32  2  0  0  0  0
 31 37  1  0  0  0  0
 32 33  1  0  0  0  0
 33 36  2  0  0  0  0
 35 36  1  0  0  0  0
 36 34  1  0  0  0  0
 37 35  2  0  0  0  0
M  END
>  <MODEL>
5

>  <REMARK>
 VINA RESULT:      -7.9      3.475      7.373
  Name = 
  1 active torsions:
  status: ('A' for Active; 'I' for Inactive)
    1  A    between atoms: C_23  and  C_30
                            x       y       z     vdW  Elec       q    Type
                         _______ _______ _______ _____ _____    ______ ____

>  <TORSDO>
F 1

$$$$
=
 OpenBabel11112417263D

 37 44  0  0  1  0  0  0  0  0999 V2000
  192.2020  170.7530  141.6370 C   0  0  0  0  0  2  0  0  0  0  0  0
  196.7020  169.7570  143.7390 C   0  0  0  0  0  0  0  0  0  0  0  0
  194.3910  173.0210  145.4670 C   0  0  1  0  0  3  0  0  0  0  0  0
  191.9300  170.7560  140.1320 C   0  0  1  0  0  0  0  0  0  0  0  0
  191.7580  174.5760  143.0930 C   0  0  0  0  0  2  0  0  0  0  0  0
  196.6060  171.8690  145.1490 C   0  0  1  0  0  3  0  0  0  0  0  0
  193.6390  173.2520  144.1680 C   0  0  2  0  0  3  0  0  0  0  0  0
  190.1990  172.6990  140.0900 C   0  0  2  0  0  3  0  0  0  0  0  0
  195.1030  171.6760  145.3230 C   0  0  2  0  0  3  0  0  0  0  0  0
  192.3020  173.9840  144.4020 C   0  0  1  0  0  3  0  0  0  0  0  0
  197.1160  172.5500  146.3270 N   0  0  0  0  0  2  0  0  0  0  0  0
  191.3410  171.9560  139.3760 C   0  0  0  0  0  2  0  0  0  0  0  0
  194.4620  170.9310  144.1420 C   0  0  2  0  0  3  0  0  0  0  0  0
  196.2970  168.3630  144.1780 C   0  0  0  0  0  1  0  0  0  0  0  0
  194.8810  175.4740  145.8240 C   0  0  0  0  0  3  0  0  0  0  0  0
  196.7440  173.9650  146.2380 C   0  0  0  0  0  2  0  0  0  0  0  0
  195.4940  170.4620  143.0960 C   0  0  0  0  0  2  0  0  0  0  0  0
  190.6670  173.8990  140.9190 C   0  0  0  0  0  2  0  0  0  0  0  0
  191.5810  173.4790  142.0560 C   0  0  1  0  0  3  0  0  0  0  0  0
  195.2970  174.1920  145.8440 C   0  0  0  0  0  0  0  0  0  0  0  0
  193.3790  171.8640  143.5910 C   0  0  2  0  0  3  0  0  0  0  0  0
  197.2730  170.5130  144.9540 C   0  0  0  0  0  2  0  0  0  0  0  0
  192.3950  175.0310  145.5320 C   0  0  1  0  0  3  0  0  0  0  0  0
  197.7920  169.6310  142.6950 C   0  0  0  0  0  1  0  0  0  0  0  0
  192.8380  173.1190  141.5410 O   0  0  0  0  0  0  0  0  0  0  0  0
  189.3980  171.8370  140.8440 O   0  0  0  0  0  1  0  0  0  0  0  0
  193.1870  171.8510  142.0590 C   0  0  2  0  0  3  0  0  0  0  0  0
  193.5540  176.0040  145.3310 C   0  0  0  0  0  2  0  0  0  0  0  0
  192.7540  169.8570  139.3410 C   0  0  0  0  0  2  0  0  0  0  0  0
  191.3650  169.4820  139.6730 N   0  0  0  0  0  2  0  0  0  0  0  0
  190.8920  177.0180  145.3370 C   0  0  0  0  0  3  0  0  0  0  0  0
  191.0920  175.7180  145.8160 C   0  0  0  0  0  0  0  0  0  0  0  0
  190.0880  175.1020  146.5820 C   0  0  0  0  0  3  0  0  0  0  0  0
  187.9290  175.1790  147.5880 F   0  0  0  0  0  0  0  0  0  0  0  0
  188.6990  177.0720  146.3630 C   0  0  0  0  0  3  0  0  0  0  0  0
  188.8950  175.7780  146.8520 C   0  0  0  0  0  0  0  0  0  0  0  0
  189.6980  177.6930  145.6060 C   0  0  0  0  0  3  0  0  0  0  0  0
  1 27  1  0  0  0  0
  2 14  1  0  0  0  0
  2 22  1  0  0  0  0
  3 20  1  6  0  0  0
  4 29  1  6  0  0  0
  4  1  1  0  0  0  0
  5 10  1  0  0  0  0
  6 22  1  1  0  0  0
  6  9  1  0  0  0  0
  6 11  1  0  0  0  0
  7 10  1  0  0  0  0
  7  3  1  0  0  0  0
  8 26  1  0  0  0  0
  8 18  1  0  0  0  0
  9  3  1  0  0  0  0
 10 23  1  0  0  0  0
 12  8  1  0  0  0  0
 12  4  1  0  0  0  0
 13  9  1  0  0  0  0
 15 20  2  0  0  0  0
 16 11  1  0  0  0  0
 17  2  1  0  0  0  0
 17 13  1  0  0  0  0
 18 19  1  0  0  0  0
 19  5  1  0  0  0  0
 20 16  1  0  0  0  0
 21 13  1  0  0  0  0
 21  7  1  0  0  0  0
 23 32  1  0  0  0  0
 24  2  1  0  0  0  0
 25 19  1  0  0  0  0
 25 27  1  0  0  0  0
 27 21  1  0  0  0  0
 28 23  1  0  0  0  0
 28 15  1  0  0  0  0
 29 30  1  0  0  0  0
 30  4  1  0  0  0  0
 31 37  2  0  0  0  0
 31 32  1  0  0  0  0
 32 33  2  0  0  0  0
 33 36  1  0  0  0  0
 35 36  2  0  0  0  0
 36 34  1  0  0  0  0
 37 35  1  0  0  0  0
M  END
>  <MODEL>
6

>  <REMARK>
 VINA RESULT:      -7.8      4.400      9.520
  Name = 
  1 active torsions:
  status: ('A' for Active; 'I' for Inactive)
    1  A    between atoms: C_23  and  C_30
                            x       y       z     vdW  Elec       q    Type
                         _______ _______ _______ _____ _____    ______ ____

>  <TORSDO>
F 1

$$$$
=
 OpenBabel11112417263D

 37 44  0  0  1  0  0  0  0  0999 V2000
  195.2590  175.4550  142.5440 C   0  0  0  0  0  2  0  0  0  0  0  0
  194.2070  172.7890  138.3660 C   0  0  0  0  0  0  0  0  0  0  0  0
  190.8520  173.8390  140.9410 C   0  0  1  0  0  3  0  0  0  0  0  0
  196.4630  175.2020  143.4530 C   0  0  1  0  0  0  0  0  0  0  0  0
  191.8050  174.6050  144.6140 C   0  0  0  0  0  2  0  0  0  0  0  0
  191.8140  172.3880  139.1230 C   0  0  1  0  0  3  0  0  0  0  0  0
  191.7500  173.9540  142.1600 C   0  0  2  0  0  3  0  0  0  0  0  0
  195.3220  175.7840  145.7190 C   0  0  2  0  0  3  0  0  0  0  0  0
  191.7770  173.7900  139.7240 C   0  0  2  0  0  3  0  0  0  0  0  0
  191.1140  174.8280  143.2600 C   0  0  1  0  0  3  0  0  0  0  0  0
  190.4670  172.0350  138.7070 N   0  0  0  0  0  2  0  0  0  0  0  0
  196.3480  174.9260  144.9600 C   0  0  0  0  0  2  0  0  0  0  0  0
  193.1630  174.2790  140.1690 C   0  0  2  0  0  3  0  0  0  0  0  0
  194.6830  173.8840  137.4310 C   0  0  0  0  0  1  0  0  0  0  0  0
  189.1070  172.4600  142.1380 C   0  0  0  0  0  3  0  0  0  0  0  0
  189.6910  171.6950  139.9040 C   0  0  0  0  0  2  0  0  0  0  0  0
  194.2920  173.2870  139.8210 C   0  0  0  0  0  2  0  0  0  0  0  0
  193.9440  175.1260  145.8500 C   0  0  0  0  0  2  0  0  0  0  0  0
  193.2910  174.9070  144.4970 C   0  0  1  0  0  3  0  0  0  0  0  0
  189.8590  172.6830  141.0420 C   0  0  0  0  0  0  0  0  0  0  0  0
  193.0390  174.6010  141.6620 C   0  0  2  0  0  3  0  0  0  0  0  0
  192.7860  172.3640  137.9500 C   0  0  0  0  0  2  0  0  0  0  0  0
  189.5830  174.6480  143.3410 C   0  0  1  0  0  3  0  0  0  0  0  0
  195.1300  171.5980  138.2160 C   0  0  0  0  0  1  0  0  0  0  0  0
  193.9300  173.8470  143.8320 O   0  0  0  0  0  0  0  0  0  0  0  0
  195.2240  177.0760  145.1970 O   0  0  0  0  0  1  0  0  0  0  0  0
  194.2740  174.2790  142.5310 C   0  0  2  0  0  3  0  0  0  0  0  0
  189.1740  173.1820  143.4640 C   0  0  0  0  0  2  0  0  0  0  0  0
  197.6410  174.6550  142.8010 C   0  0  0  0  0  2  0  0  0  0  0  0
  197.5860  176.0910  143.1380 N   0  0  0  0  0  2  0  0  0  0  0  0
  188.9380  175.1260  145.7080 C   0  0  0  0  0  3  0  0  0  0  0  0
  188.9330  175.5290  144.3670 C   0  0  0  0  0  0  0  0  0  0  0  0
  188.2900  176.7250  144.0080 C   0  0  0  0  0  3  0  0  0  0  0  0
  187.0560  178.6650  144.6320 F   0  0  0  0  0  0  0  0  0  0  0  0
  187.6870  177.1060  146.3200 C   0  0  0  0  0  3  0  0  0  0  0  0
  187.6720  177.5110  144.9830 C   0  0  0  0  0  0  0  0  0  0  0  0
  188.3200  175.9140  146.6830 C   0  0  0  0  0  3  0  0  0  0  0  0
  2 17  1  0  0  0  0
  3 20  1  1  0  0  0
  3  7  1  0  0  0  0
  4  1  1  6  0  0  0
  4 12  1  0  0  0  0
  6 22  1  6  0  0  0
  6  9  1  0  0  0  0
  7 10  1  0  0  0  0
  8 18  1  0  0  0  0
  9 13  1  0  0  0  0
  9  3  1  0  0  0  0
 10 23  1  0  0  0  0
 10  5  1  0  0  0  0
 11  6  1  0  0  0  0
 11 16  1  0  0  0  0
 12  8  1  0  0  0  0
 13 21  1  0  0  0  0
 14  2  1  0  0  0  0
 15 28  1  0  0  0  0
 16 20  1  0  0  0  0
 17 13  1  0  0  0  0
 19  5  1  0  0  0  0
 19 18  1  0  0  0  0
 20 15  2  0  0  0  0
 21  7  1  0  0  0  0
 21 27  1  0  0  0  0
 22  2  1  0  0  0  0
 23 28  1  0  0  0  0
 23 32  1  0  0  0  0
 24  2  1  0  0  0  0
 25 19  1  0  0  0  0
 26  8  1  0  0  0  0
 27  1  1  0  0  0  0
 27 25  1  0  0  0  0
 29 30  1  0  0  0  0
 29  4  1  0  0  0  0
 30  4  1  0  0  0  0
 31 37  1  0  0  0  0
 32 31  2  0  0  0  0
 33 32  1  0  0  0  0
 33 36  2  0  0  0  0
 34 36  1  0  0  0  0
 35 37  2  0  0  0  0
 36 35  1  0  0  0  0
M  END
>  <MODEL>
7

>  <REMARK>
 VINA RESULT:      -7.8      3.863      7.905
  Name = 
  1 active torsions:
  status: ('A' for Active; 'I' for Inactive)
    1  A    between atoms: C_23  and  C_30
                            x       y       z     vdW  Elec       q    Type
                         _______ _______ _______ _____ _____    ______ ____

>  <TORSDO>
F 1

$$$$
=
 OpenBabel11112417263D

 37 44  0  0  1  0  0  0  0  0999 V2000
  190.1620  176.2320  142.7510 C   0  0  0  0  0  2  0  0  0  0  0  0
  194.1810  176.1740  145.8340 C   0  0  0  0  0  0  0  0  0  0  0  0
  193.5070  172.6270  143.3950 C   0  0  1  0  0  3  0  0  0  0  0  0
  188.7870  176.7860  143.1290 C   0  0  1  0  0  0  0  0  0  0  0  0
  189.8630  172.1680  142.1730 C   0  0  0  0  0  2  0  0  0  0  0  0
  194.5860  173.7040  145.3990 C   0  0  1  0  0  3  0  0  0  0  0  0
  192.0220  172.9190  143.2800 C   0  0  2  0  0  3  0  0  0  0  0  0
  187.3400  175.0790  141.8000 C   0  0  2  0  0  3  0  0  0  0  0  0
  194.1570  173.8960  143.9470 C   0  0  2  0  0  3  0  0  0  0  0  0
  191.3940  172.2200  142.0570 C   0  0  1  0  0  3  0  0  0  0  0  0
  195.5510  172.6190  145.4480 N   0  0  0  0  0  2  0  0  0  0  0  0
  187.4880  175.9710  143.0440 C   0  0  0  0  0  2  0  0  0  0  0  0
  193.1560  175.0490  143.7750 C   0  0  2  0  0  3  0  0  0  0  0  0
  194.8590  177.3350  145.1310 C   0  0  0  0  0  1  0  0  0  0  0  0
  193.1640  170.1900  143.9640 C   0  0  0  0  0  3  0  0  0  0  0  0
  194.8270  171.3520  145.3060 C   0  0  0  0  0  2  0  0  0  0  0  0
  192.8840  175.8110  145.0880 C   0  0  0  0  0  2  0  0  0  0  0  0
  187.8160  173.6390  142.0130 C   0  0  0  0  0  2  0  0  0  0  0  0
  189.3020  173.5740  142.3210 C   0  0  1  0  0  3  0  0  0  0  0  0
  193.8030  171.3550  144.1880 C   0  0  0  0  0  0  0  0  0  0  0  0
  191.9110  174.4330  143.1290 C   0  0  2  0  0  3  0  0  0  0  0  0
  195.1770  175.0030  145.9310 C   0  0  0  0  0  2  0  0  0  0  0  0
  192.0140  170.8330  141.7900 C   0  0  1  0  0  3  0  0  0  0  0  0
  193.8160  176.6140  147.2370 C   0  0  0  0  0  1  0  0  0  0  0  0
  189.5310  174.0310  143.6300 O   0  0  0  0  0  0  0  0  0  0  0  0
  187.9280  175.6500  140.6680 O   0  0  0  0  0  1  0  0  0  0  0  0
  190.5530  175.0070  143.5890 C   0  0  2  0  0  3  0  0  0  0  0  0
  192.0030  169.9410  143.0280 C   0  0  0  0  0  2  0  0  0  0  0  0
  188.7890  177.8670  144.1010 C   0  0  0  0  0  2  0  0  0  0  0  0
  188.6050  178.1660  142.6670 N   0  0  0  0  0  2  0  0  0  0  0  0
  190.9440  168.8600  140.6910 C   0  0  0  0  0  3  0  0  0  0  0  0
  191.4590  170.1560  140.5710 C   0  0  0  0  0  0  0  0  0  0  0  0
  191.4780  170.7770  139.3120 C   0  0  0  0  0  3  0  0  0  0  0  0
  190.9940  170.7160  136.9790 F   0  0  0  0  0  0  0  0  0  0  0  0
  190.4570  168.8200  138.3200 C   0  0  0  0  0  3  0  0  0  0  0  0
  190.9760  170.1110  138.1910 C   0  0  0  0  0  0  0  0  0  0  0  0
  190.4410  168.1940  139.5690 C   0  0  0  0  0  3  0  0  0  0  0  0
  1 27  1  0  0  0  0
  2 22  1  0  0  0  0
  2 24  1  0  0  0  0
  3  9  1  0  0  0  0
  3 20  1  1  0  0  0
  4  1  1  6  0  0  0
  4 29  1  0  0  0  0
  5 19  1  0  0  0  0
  6 11  1  0  0  0  0
  6 22  1  6  0  0  0
  7  3  1  0  0  0  0
  8 18  1  0  0  0  0
  8 12  1  0  0  0  0
  9  6  1  0  0  0  0
 10  5  1  0  0  0  0
 10  7  1  0  0  0  0
 12  4  1  0  0  0  0
 13  9  1  0  0  0  0
 13 17  1  0  0  0  0
 14  2  1  0  0  0  0
 15 20  2  0  0  0  0
 16 11  1  0  0  0  0
 17  2  1  0  0  0  0
 18 19  1  0  0  0  0
 19 25  1  0  0  0  0
 20 16  1  0  0  0  0
 21  7  1  0  0  0  0
 21 27  1  0  0  0  0
 21 13  1  0  0  0  0
 23 10  1  0  0  0  0
 23 28  1  0  0  0  0
 26  8  1  0  0  0  0
 27 25  1  0  0  0  0
 28 15  1  0  0  0  0
 30  4  1  0  0  0  0
 30 29  1  0  0  0  0
 32 31  1  0  0  0  0
 32 23  1  0  0  0  0
 33 32  2  0  0  0  0
 34 36  1  0  0  0  0
 35 37  1  0  0  0  0
 36 35  2  0  0  0  0
 36 33  1  0  0  0  0
 37 31  2  0  0  0  0
M  END
>  <MODEL>
8

>  <REMARK>
 VINA RESULT:      -7.7      2.987      7.109
  Name = 
  1 active torsions:
  status: ('A' for Active; 'I' for Inactive)
    1  A    between atoms: C_23  and  C_30
                            x       y       z     vdW  Elec       q    Type
                         _______ _______ _______ _____ _____    ______ ____

>  <TORSDO>
F 1

$$$$
=
 OpenBabel11112417263D

 37 44  0  0  1  0  0  0  0  0999 V2000
  195.5120  175.1710  141.8770 C   0  0  0  0  0  2  0  0  0  0  0  0
  193.9750  172.8840  137.6260 C   0  0  0  0  0  0  0  0  0  0  0  0
  190.9520  173.6340  140.6730 C   0  0  1  0  0  3  0  0  0  0  0  0
  196.8180  174.8560  142.6070 C   0  0  1  0  0  0  0  0  0  0  0  0
  192.3400  174.0740  144.2600 C   0  0  0  0  0  2  0  0  0  0  0  0
  191.6940  172.3740  138.6240 C   0  0  1  0  0  3  0  0  0  0  0  0
  191.9910  173.6510  141.7800 C   0  0  2  0  0  3  0  0  0  0  0  0
  195.9580  175.2060  145.0380 C   0  0  2  0  0  3  0  0  0  0  0  0
  191.7220  173.7130  139.3540 C   0  0  2  0  0  3  0  0  0  0  0  0
  191.4880  174.4090  143.0260 C   0  0  1  0  0  3  0  0  0  0  0  0
  190.3090  172.0380  138.3430 N   0  0  0  0  0  2  0  0  0  0  0  0
  196.8890  174.4390  144.0840 C   0  0  0  0  0  2  0  0  0  0  0  0
  193.1500  174.1840  139.6730 C   0  0  2  0  0  3  0  0  0  0  0  0
  194.3270  174.0690  136.7460 C   0  0  0  0  0  1  0  0  0  0  0  0
  189.3730  172.1200  141.9370 C   0  0  0  0  0  3  0  0  0  0  0  0
  189.6860  171.5760  139.5870 C   0  0  0  0  0  2  0  0  0  0  0  0
  194.2330  173.2470  139.1000 C   0  0  0  0  0  2  0  0  0  0  0  0
  194.6110  174.5150  145.2730 C   0  0  0  0  0  2  0  0  0  0  0  0
  193.7990  174.4110  143.9940 C   0  0  1  0  0  3  0  0  0  0  0  0
  189.9850  172.4570  140.7840 C   0  0  0  0  0  0  0  0  0  0  0  0
  193.2050  174.3630  141.1930 C   0  0  2  0  0  3  0  0  0  0  0  0
  192.5160  172.4760  137.3460 C   0  0  0  0  0  2  0  0  0  0  0  0
  189.9800  174.1960  143.2740 C   0  0  1  0  0  3  0  0  0  0  0  0
  194.8790  171.7280  137.2540 C   0  0  0  0  0  1  0  0  0  0  0  0
  194.3590  173.4280  143.1600 O   0  0  0  0  0  0  0  0  0  0  0  0
  195.7900  176.5390  144.6560 O   0  0  0  0  0  1  0  0  0  0  0  0
  194.5390  173.9840  141.8730 C   0  0  2  0  0  3  0  0  0  0  0  0
  189.5970  172.7180  143.3070 C   0  0  0  0  0  2  0  0  0  0  0  0
  197.9120  174.3920  141.7690 C   0  0  0  0  0  2  0  0  0  0  0  0
  197.8900  175.7890  142.2440 N   0  0  0  0  0  2  0  0  0  0  0  0
  189.1290  176.3180  144.2830 C   0  0  0  0  0  3  0  0  0  0  0  0
  189.4540  174.9670  144.4490 C   0  0  0  0  0  0  0  0  0  0  0  0
  189.3170  174.3740  145.7150 C   0  0  0  0  0  3  0  0  0  0  0  0
  188.7150  174.5490  148.0150 F   0  0  0  0  0  0  0  0  0  0  0  0
  188.5190  176.4720  146.6210 C   0  0  0  0  0  3  0  0  0  0  0  0
  188.8490  175.1250  146.7960 C   0  0  0  0  0  0  0  0  0  0  0  0
  188.6600  177.0690  145.3650 C   0  0  0  0  0  3  0  0  0  0  0  0
  1  4  1  0  0  0  0
  2 17  1  0  0  0  0
  3 20  1  6  0  0  0
  3  7  1  0  0  0  0
  4 29  1  6  0  0  0
  4 12  1  0  0  0  0
  6 22  1  6  0  0  0
  6  9  1  0  0  0  0
  7 10  1  0  0  0  0
  8 18  1  0  0  0  0
  9 13  1  0  0  0  0
  9  3  1  0  0  0  0
 10 23  1  0  0  0  0
 10  5  1  0  0  0  0
 11  6  1  0  0  0  0
 11 16  1  0  0  0  0
 12  8  1  0  0  0  0
 13 21  1  0  0  0  0
 14  2  1  0  0  0  0
 15 28  1  0  0  0  0
 16 20  1  0  0  0  0
 17 13  1  0  0  0  0
 19  5  1  0  0  0  0
 19 18  1  0  0  0  0
 20 15  2  0  0  0  0
 21  7  1  0  0  0  0
 21 27  1  0  0  0  0
 22  2  1  0  0  0  0
 23 28  1  0  0  0  0
 23 32  1  0  0  0  0
 24  2  1  0  0  0  0
 25 19  1  0  0  0  0
 26  8  1  0  0  0  0
 27  1  1  0  0  0  0
 27 25  1  0  0  0  0
 29 30  1  0  0  0  0
 30  4  1  0  0  0  0
 31 32  2  0  0  0  0
 31 37  1  0  0  0  0
 32 33  1  0  0  0  0
 33 36  2  0  0  0  0
 35 36  1  0  0  0  0
 36 34  1  0  0  0  0
 37 35  2  0  0  0  0
M  END
>  <MODEL>
9

>  <REMARK>
 VINA RESULT:      -7.6      4.032      8.131
  Name = 
  1 active torsions:
  status: ('A' for Active; 'I' for Inactive)
    1  A    between atoms: C_23  and  C_30
                            x       y       z     vdW  Elec       q    Type
                         _______ _______ _______ _____ _____    ______ ____

>  <TORSDO>
F 1

$$$$
