=
 OpenBabel11112417543D

 34 41  0  0  1  0  0  0  0  0999 V2000
  189.3110  175.7330  142.9160 C   0  0  0  0  0  0  0  0  0  0  0  0
  191.4020  174.8140  142.0890 C   0  0  0  0  0  3  0  0  0  0  0  0
  185.8970  179.1880  147.1410 C   0  0  2  0  0  3  0  0  0  0  0  0
  187.3040  176.6780  143.9650 C   0  0  0  0  0  0  0  0  0  0  0  0
  187.4160  177.5220  146.1970 C   0  0  0  0  0  0  0  0  0  0  0  0
  187.4870  178.7990  148.4980 C   0  0  0  0  0  2  0  0  0  0  0  0
  186.4180  179.8820  148.3800 C   0  0  0  0  0  2  0  0  0  0  0  0
  184.3510  177.5500  146.0830 C   0  0  0  0  0  2  0  0  0  0  0  0
  191.3670  175.6280  144.1250 C   0  0  0  0  0  0  0  0  0  0  0  0
  193.8280  175.8210  146.0520 C   0  0  0  0  0  2  0  0  0  0  0  0
  188.7620  177.1590  146.2820 C   0  0  0  0  0  3  0  0  0  0  0  0
  185.2780  177.7230  144.8610 C   0  0  0  0  0  2  0  0  0  0  0  0
  190.7840  176.2160  145.2740 C   0  0  0  0  0  0  0  0  0  0  0  0
  192.6740  174.6280  142.6040 C   0  0  0  0  0  3  0  0  0  0  0  0
  186.6830  177.2620  145.0470 N   0  0  0  0  0  0  0  0  0  0  0  0
  184.4550  178.7260  147.0780 C   0  0  0  0  0  2  0  0  0  0  0  0
  193.7640  175.0670  144.8110 N   0  0  0  0  0  0  0  0  0  0  0  0
  188.6740  176.3260  144.0270 C   0  0  0  0  0  0  0  0  0  0  0  0
  186.7420  177.9910  147.4520 C   0  0  1  0  0  3  0  0  0  0  0  0
  189.4140  176.5700  145.2010 C   0  0  0  0  0  0  0  0  0  0  0  0
  187.2330  175.8280  141.6760 C   0  0  0  0  0  3  0  0  0  0  0  0
  192.6040  175.5630  146.8950 C   0  0  0  0  0  2  0  0  0  0  0  0
  186.6000  176.4180  142.7720 C   0  0  0  0  0  3  0  0  0  0  0  0
  191.5640  176.5860  146.5070 C   0  0  0  0  0  2  0  0  0  0  0  0
  192.6550  175.1500  143.8930 C   0  0  0  0  0  0  0  0  0  0  0  0
  188.5820  175.4860  141.7460 C   0  0  0  0  0  3  0  0  0  0  0  0
  190.6290  175.4090  143.0180 N   0  0  0  0  0  0  0  0  0  0  0  0
  194.8960  174.1950  144.5220 C   0  0  0  0  0  2  0  0  0  0  0  0
  196.2000  174.8840  144.8920 C   0  0  0  0  0  2  0  0  0  0  0  0
  195.7950  175.3230  141.5400 N   0  0  0  0  0  2  0  0  0  0  0  0
  196.7160  176.6890  143.2650 C   0  0  0  0  0  2  0  0  0  0  0  0
  196.9770  175.2490  143.6400 C   0  0  2  0  0  3  0  0  0  0  0  0
  196.3360  176.6450  141.8050 C   0  0  0  0  0  2  0  0  0  0  0  0
  196.4700  174.4280  142.4710 C   0  0  0  0  0  2  0  0  0  0  0  0
  1 27  1  0  0  0  0
  1 18  1  0  0  0  0
  2 14  2  0  0  0  0
  2 27  1  0  0  0  0
  3 16  1  1  0  0  0
  3 19  1  0  0  0  0
  3  7  1  0  0  0  0
  4 18  2  0  0  0  0
  4 15  1  0  0  0  0
  5 11  2  0  0  0  0
  5 19  1  0  0  0  0
  7  6  1  0  0  0  0
  8 16  1  0  0  0  0
  9 13  1  0  0  0  0
 10 22  1  0  0  0  0
 12 15  1  0  0  0  0
 12  8  1  0  0  0  0
 13 24  1  0  0  0  0
 14 25  1  0  0  0  0
 15  5  1  0  0  0  0
 17 10  1  0  0  0  0
 18 20  1  0  0  0  0
 19  6  1  1  0  0  0
 20 13  2  0  0  0  0
 20 11  1  0  0  0  0
 21 26  1  0  0  0  0
 21 23  2  0  0  0  0
 23  4  1  0  0  0  0
 24 22  1  0  0  0  0
 25  9  2  0  0  0  0
 25 17  1  0  0  0  0
 26  1  2  0  0  0  0
 27  9  1  0  0  0  0
 28 17  1  0  0  0  0
 28 29  1  0  0  0  0
 30 33  1  0  0  0  0
 30 34  1  0  0  0  0
 31 32  1  0  0  0  0
 32 29  1  1  0  0  0
 33 31  1  0  0  0  0
 34 32  1  0  0  0  0
M  END
>  <MODEL>
1

>  <REMARK>
 VINA RESULT:      -8.9      0.000      0.000
  Name = 
  3 active torsions:
  status: ('A' for Active; 'I' for Inactive)
    1  A    between atoms: N_17  and  C_28
    2  A    between atoms: C_28  and  C_29
    3  A    between atoms: C_29  and  C_32
                            x       y       z     vdW  Elec       q    Type
                         _______ _______ _______ _____ _____    ______ ____

>  <TORSDO>
F 3

$$$$
=
 OpenBabel11112417543D

 34 41  0  0  1  0  0  0  0  0999 V2000
  189.4840  175.7400  143.0170 C   0  0  0  0  0  0  0  0  0  0  0  0
  191.6240  174.8910  142.2450 C   0  0  0  0  0  3  0  0  0  0  0  0
  185.8620  179.1610  147.0950 C   0  0  2  0  0  3  0  0  0  0  0  0
  187.4220  176.6260  144.0120 C   0  0  0  0  0  0  0  0  0  0  0  0
  187.4660  177.5380  146.2200 C   0  0  0  0  0  0  0  0  0  0  0  0
  187.4480  178.8810  148.4830 C   0  0  0  0  0  2  0  0  0  0  0  0
  186.3350  179.9120  148.3210 C   0  0  0  0  0  2  0  0  0  0  0  0
  184.4050  177.4270  146.0650 C   0  0  0  0  0  2  0  0  0  0  0  0
  191.5250  175.7610  144.2560 C   0  0  0  0  0  0  0  0  0  0  0  0
  193.9470  176.1180  146.2080 C   0  0  0  0  0  2  0  0  0  0  0  0
  188.8250  177.2360  146.3330 C   0  0  0  0  0  3  0  0  0  0  0  0
  185.3410  177.6060  144.8510 C   0  0  0  0  0  2  0  0  0  0  0  0
  190.9000  176.3550  145.3790 C   0  0  0  0  0  0  0  0  0  0  0  0
  192.8950  174.7760  142.7810 C   0  0  0  0  0  3  0  0  0  0  0  0
  186.7620  177.2120  145.0690 N   0  0  0  0  0  0  0  0  0  0  0  0
  184.4430  178.6340  147.0270 C   0  0  0  0  0  2  0  0  0  0  0  0
  193.9340  175.3260  144.9890 N   0  0  0  0  0  0  0  0  0  0  0  0
  188.8050  176.3360  144.1020 C   0  0  0  0  0  0  0  0  0  0  0  0
  186.7540  178.0110  147.4510 C   0  0  1  0  0  3  0  0  0  0  0  0
  189.5180  176.6460  145.2780 C   0  0  0  0  0  0  0  0  0  0  0  0
  187.4210  175.7080  141.7480 C   0  0  0  0  0  3  0  0  0  0  0  0
  192.7240  175.8290  147.0430 C   0  0  0  0  0  2  0  0  0  0  0  0
  186.7480  176.3010  142.8190 C   0  0  0  0  0  3  0  0  0  0  0  0
  191.6460  176.7950  146.6110 C   0  0  0  0  0  2  0  0  0  0  0  0
  192.8360  175.3330  144.0540 C   0  0  0  0  0  0  0  0  0  0  0  0
  188.7830  175.4280  141.8460 C   0  0  0  0  0  3  0  0  0  0  0  0
  190.8130  175.4790  143.1460 N   0  0  0  0  0  0  0  0  0  0  0  0
  195.1070  174.4970  144.7400 C   0  0  0  0  0  2  0  0  0  0  0  0
  195.9380  174.3650  146.0080 C   0  0  0  0  0  2  0  0  0  0  0  0
  196.9320  171.4010  144.6610 N   0  0  0  0  0  2  0  0  0  0  0  0
  197.5860  173.6640  144.2880 C   0  0  0  0  0  2  0  0  0  0  0  0
  197.1850  173.5430  145.7380 C   0  0  2  0  0  3  0  0  0  0  0  0
  197.7620  172.2410  143.8150 C   0  0  0  0  0  2  0  0  0  0  0  0
  196.8790  172.0730  145.9520 C   0  0  0  0  0  2  0  0  0  0  0  0
  1 27  1  0  0  0  0
  1 18  1  0  0  0  0
  2 14  2  0  0  0  0
  2 27  1  0  0  0  0
  3 16  1  1  0  0  0
  3 19  1  0  0  0  0
  3  7  1  0  0  0  0
  4 18  2  0  0  0  0
  4 15  1  0  0  0  0
  5 11  2  0  0  0  0
  5 19  1  0  0  0  0
  7  6  1  0  0  0  0
  8 16  1  0  0  0  0
  9 13  1  0  0  0  0
 10 22  1  0  0  0  0
 12 15  1  0  0  0  0
 12  8  1  0  0  0  0
 13 24  1  0  0  0  0
 14 25  1  0  0  0  0
 15  5  1  0  0  0  0
 17 10  1  0  0  0  0
 18 20  1  0  0  0  0
 19  6  1  1  0  0  0
 20 13  2  0  0  0  0
 20 11  1  0  0  0  0
 21 26  1  0  0  0  0
 21 23  2  0  0  0  0
 23  4  1  0  0  0  0
 24 22  1  0  0  0  0
 25  9  2  0  0  0  0
 25 17  1  0  0  0  0
 26  1  2  0  0  0  0
 27  9  1  0  0  0  0
 28 17  1  0  0  0  0
 28 29  1  0  0  0  0
 30 34  1  0  0  0  0
 31 32  1  0  0  0  0
 32 34  1  0  0  0  0
 32 29  1  6  0  0  0
 33 31  1  0  0  0  0
 33 30  1  0  0  0  0
M  END
>  <MODEL>
2

>  <REMARK>
 VINA RESULT:      -8.8      1.225      1.636
  Name = 
  3 active torsions:
  status: ('A' for Active; 'I' for Inactive)
    1  A    between atoms: N_17  and  C_28
    2  A    between atoms: C_28  and  C_29
    3  A    between atoms: C_29  and  C_32
                            x       y       z     vdW  Elec       q    Type
                         _______ _______ _______ _____ _____    ______ ____

>  <TORSDO>
F 3

$$$$
=
 OpenBabel11112417543D

 34 41  0  0  1  0  0  0  0  0999 V2000
  190.1390  174.9050  143.8140 C   0  0  0  0  0  0  0  0  0  0  0  0
  189.4680  176.6900  145.3170 C   0  0  0  0  0  3  0  0  0  0  0  0
  190.2920  172.1110  138.0160 C   0  0  2  0  0  3  0  0  0  0  0  0
  190.6360  173.1650  142.1560 C   0  0  0  0  0  0  0  0  0  0  0  0
  189.4670  173.1430  140.0720 C   0  0  0  0  0  0  0  0  0  0  0  0
  188.5170  173.2110  137.6190 C   0  0  0  0  0  2  0  0  0  0  0  0
  189.6140  172.5970  136.7540 C   0  0  0  0  0  2  0  0  0  0  0  0
  190.6410  170.3310  139.7200 C   0  0  0  0  0  2  0  0  0  0  0  0
  188.4760  176.5570  143.3650 C   0  0  0  0  0  0  0  0  0  0  0  0
  186.3230  178.5540  142.2770 C   0  0  0  0  0  2  0  0  0  0  0  0
  188.7190  174.2550  140.4630 C   0  0  0  0  0  3  0  0  0  0  0  0
  191.3080  171.4680  140.5230 C   0  0  0  0  0  2  0  0  0  0  0  0
  188.1890  176.0020  142.0950 C   0  0  0  0  0  0  0  0  0  0  0  0
  188.5370  177.7150  145.2830 C   0  0  0  0  0  3  0  0  0  0  0  0
  190.4080  172.5850  140.9270 N   0  0  0  0  0  0  0  0  0  0  0  0
  190.5710  170.6330  138.2070 C   0  0  0  0  0  2  0  0  0  0  0  0
  186.8050  178.4710  143.6450 N   0  0  0  0  0  0  0  0  0  0  0  0
  189.9030  174.3080  142.5570 C   0  0  0  0  0  0  0  0  0  0  0  0
  189.0650  172.4440  138.8080 C   0  0  1  0  0  3  0  0  0  0  0  0
  188.9310  174.8620  141.6990 C   0  0  0  0  0  0  0  0  0  0  0  0
  191.8280  173.2340  144.2870 C   0  0  0  0  0  3  0  0  0  0  0  0
  185.9850  177.1820  141.7480 C   0  0  0  0  0  2  0  0  0  0  0  0
  191.5980  172.6430  143.0430 C   0  0  0  0  0  3  0  0  0  0  0  0
  187.2350  176.6240  141.1100 C   0  0  0  0  0  2  0  0  0  0  0  0
  187.9120  177.6370  144.0440 C   0  0  0  0  0  0  0  0  0  0  0  0
  191.1020  174.3600  144.6720 C   0  0  0  0  0  3  0  0  0  0  0  0
  189.4130  176.0020  144.1600 N   0  0  0  0  0  0  0  0  0  0  0  0
  186.1050  179.2860  144.6310 C   0  0  0  0  0  2  0  0  0  0  0  0
  184.6930  178.7610  144.8410 C   0  0  0  0  0  2  0  0  0  0  0  0
  186.0630  176.7660  147.2360 N   0  0  0  0  0  2  0  0  0  0  0  0
  185.4630  179.0740  147.1820 C   0  0  0  0  0  2  0  0  0  0  0  0
  184.4990  178.3350  146.2850 C   0  0  2  0  0  3  0  0  0  0  0  0
  186.1290  177.9980  148.0050 C   0  0  0  0  0  2  0  0  0  0  0  0
  184.8510  176.8680  146.4330 C   0  0  0  0  0  2  0  0  0  0  0  0
  1 27  1  0  0  0  0
  1 26  1  0  0  0  0
  3  7  1  6  0  0  0
  3 16  1  0  0  0  0
  3 19  1  0  0  0  0
  4 18  1  0  0  0  0
  4 23  2  0  0  0  0
  5 11  2  0  0  0  0
  5 15  1  0  0  0  0
  7  6  1  0  0  0  0
  8 12  1  0  0  0  0
  9 25  2  0  0  0  0
  9 27  1  0  0  0  0
 10 17  1  0  0  0  0
 11 20  1  0  0  0  0
 12 15  1  0  0  0  0
 13  9  1  0  0  0  0
 14  2  2  0  0  0  0
 15  4  1  0  0  0  0
 16  8  1  0  0  0  0
 17 25  1  0  0  0  0
 17 28  1  0  0  0  0
 18  1  2  0  0  0  0
 19  6  1  6  0  0  0
 19  5  1  0  0  0  0
 20 13  2  0  0  0  0
 20 18  1  0  0  0  0
 21 26  2  0  0  0  0
 22 10  1  0  0  0  0
 23 21  1  0  0  0  0
 24 22  1  0  0  0  0
 24 13  1  0  0  0  0
 25 14  1  0  0  0  0
 27  2  1  0  0  0  0
 28 29  1  0  0  0  0
 30 33  1  0  0  0  0
 31 33  1  0  0  0  0
 32 29  1  6  0  0  0
 32 34  1  0  0  0  0
 32 31  1  0  0  0  0
 34 30  1  0  0  0  0
M  END
>  <MODEL>
3

>  <REMARK>
 VINA RESULT:      -8.7      2.921      8.895
  Name = 
  3 active torsions:
  status: ('A' for Active; 'I' for Inactive)
    1  A    between atoms: N_17  and  C_28
    2  A    between atoms: C_28  and  C_29
    3  A    between atoms: C_29  and  C_32
                            x       y       z     vdW  Elec       q    Type
                         _______ _______ _______ _____ _____    ______ ____

>  <TORSDO>
F 3

$$$$
=
 OpenBabel11112417543D

 34 41  0  0  1  0  0  0  0  0999 V2000
  186.2440  178.3390  145.6100 C   0  0  0  0  0  0  0  0  0  0  0  0
  184.2150  179.0380  144.4730 C   0  0  0  0  0  3  0  0  0  0  0  0
  192.4390  176.5870  145.6190 C   0  0  2  0  0  3  0  0  0  0  0  0
  188.3660  177.5410  146.5510 C   0  0  0  0  0  0  0  0  0  0  0  0
  190.0510  176.6640  145.1020 C   0  0  0  0  0  0  0  0  0  0  0  0
  192.1110  176.0110  143.5990 C   0  0  0  0  0  2  0  0  0  0  0  0
  193.3370  176.4130  144.4140 C   0  0  0  0  0  2  0  0  0  0  0  0
  191.3860  175.6460  147.6690 C   0  0  0  0  0  2  0  0  0  0  0  0
  185.8460  178.2160  143.2590 C   0  0  0  0  0  0  0  0  0  0  0  0
  185.8450  177.9640  140.1380 C   0  0  0  0  0  2  0  0  0  0  0  0
  189.2210  176.8560  143.9960 C   0  0  0  0  0  3  0  0  0  0  0  0
  190.4940  176.9030  147.5800 C   0  0  0  0  0  2  0  0  0  0  0  0
  187.1150  177.6340  143.0200 C   0  0  0  0  0  0  0  0  0  0  0  0
  183.7630  179.0360  143.1640 C   0  0  0  0  0  3  0  0  0  0  0  0
  189.6150  176.9860  146.3800 N   0  0  0  0  0  0  0  0  0  0  0  0
  192.7090  175.8010  146.8870 C   0  0  0  0  0  2  0  0  0  0  0  0
  184.6970  178.2630  140.9770 N   0  0  0  0  0  0  0  0  0  0  0  0
  187.5210  177.7650  145.4360 C   0  0  0  0  0  0  0  0  0  0  0  0
  191.3240  175.9000  144.8920 C   0  0  1  0  0  3  0  0  0  0  0  0
  187.9550  177.4190  144.1400 C   0  0  0  0  0  0  0  0  0  0  0  0
  186.6290  178.4670  147.9980 C   0  0  0  0  0  3  0  0  0  0  0  0
  186.6190  176.7940  140.6920 C   0  0  0  0  0  2  0  0  0  0  0  0
  187.8950  177.9020  147.8290 C   0  0  0  0  0  3  0  0  0  0  0  0
  187.6530  177.3460  141.6440 C   0  0  0  0  0  2  0  0  0  0  0  0
  184.7990  178.5220  142.3920 C   0  0  0  0  0  0  0  0  0  0  0  0
  185.8060  178.6850  146.8940 C   0  0  0  0  0  3  0  0  0  0  0  0
  185.4650  178.5360  144.5120 N   0  0  0  0  0  0  0  0  0  0  0  0
  183.3980  178.2910  140.3150 C   0  0  0  0  0  2  0  0  0  0  0  0
  182.2960  177.9460  141.3050 C   0  0  0  0  0  2  0  0  0  0  0  0
  178.9280  177.5940  140.9540 N   0  0  0  0  0  2  0  0  0  0  0  0
  180.2880  179.0410  142.2750 C   0  0  0  0  0  2  0  0  0  0  0  0
  181.0440  178.7480  141.0000 C   0  0  2  0  0  3  0  0  0  0  0  0
  178.8700  178.6100  141.9910 C   0  0  0  0  0  2  0  0  0  0  0  0
  180.1010  177.9160  140.1530 C   0  0  0  0  0  2  0  0  0  0  0  0
  1 26  1  0  0  0  0
  2 27  1  0  0  0  0
  3  7  1  6  0  0  0
  3 16  1  0  0  0  0
  4 23  2  0  0  0  0
  5 15  1  0  0  0  0
  6  7  1  0  0  0  0
  9 27  1  0  0  0  0
 10 22  1  0  0  0  0
 10 17  1  0  0  0  0
 11 20  1  0  0  0  0
 11  5  2  0  0  0  0
 12  8  1  0  0  0  0
 13  9  1  0  0  0  0
 13 20  2  0  0  0  0
 14  2  2  0  0  0  0
 15  4  1  0  0  0  0
 15 12  1  0  0  0  0
 16  8  1  0  0  0  0
 17 25  1  0  0  0  0
 18  1  2  0  0  0  0
 18  4  1  0  0  0  0
 19  6  1  6  0  0  0
 19  5  1  0  0  0  0
 19  3  1  0  0  0  0
 20 18  1  0  0  0  0
 22 24  1  0  0  0  0
 23 21  1  0  0  0  0
 24 13  1  0  0  0  0
 25 14  1  0  0  0  0
 25  9  2  0  0  0  0
 26 21  2  0  0  0  0
 27  1  1  0  0  0  0
 28 17  1  0  0  0  0
 28 29  1  0  0  0  0
 30 33  1  0  0  0  0
 32 29  1  1  0  0  0
 32 31  1  0  0  0  0
 33 31  1  0  0  0  0
 34 30  1  0  0  0  0
 34 32  1  0  0  0  0
M  END
>  <MODEL>
4

>  <REMARK>
 VINA RESULT:      -8.4      3.300      9.481
  Name = 
  3 active torsions:
  status: ('A' for Active; 'I' for Inactive)
    1  A    between atoms: N_17  and  C_28
    2  A    between atoms: C_28  and  C_29
    3  A    between atoms: C_29  and  C_32
                            x       y       z     vdW  Elec       q    Type
                         _______ _______ _______ _____ _____    ______ ____

>  <TORSDO>
F 3

$$$$
=
 OpenBabel11112417543D

 34 41  0  0  1  0  0  0  0  0999 V2000
  189.7880  174.7310  142.1390 C   0  0  0  0  0  0  0  0  0  0  0  0
  187.4220  175.2260  142.3790 C   0  0  0  0  0  3  0  0  0  0  0  0
  195.7170  174.0120  144.5410 C   0  0  2  0  0  3  0  0  0  0  0  0
  192.2130  174.3520  142.0990 C   0  0  0  0  0  0  0  0  0  0  0  0
  193.5430  174.9790  143.9820 C   0  0  0  0  0  0  0  0  0  0  0  0
  195.0620  175.2910  146.1090 C   0  0  0  0  0  2  0  0  0  0  0  0
  196.1510  174.2300  145.9740 C   0  0  0  0  0  2  0  0  0  0  0  0
  195.9440  174.5480  142.1210 C   0  0  0  0  0  2  0  0  0  0  0  0
  188.7580  175.7460  144.0390 C   0  0  0  0  0  0  0  0  0  0  0  0
  187.8680  176.9820  146.7750 C   0  0  0  0  0  2  0  0  0  0  0  0
  192.4120  175.4720  144.6360 C   0  0  0  0  0  3  0  0  0  0  0  0
  194.5970  173.8030  142.0060 C   0  0  0  0  0  2  0  0  0  0  0  0
  189.9980  175.8730  144.7110 C   0  0  0  0  0  0  0  0  0  0  0  0
  186.6280  175.8170  143.3480 C   0  0  0  0  0  3  0  0  0  0  0  0
  193.4460  174.4400  142.7060 N   0  0  0  0  0  0  0  0  0  0  0  0
  196.7130  174.1880  143.4120 C   0  0  0  0  0  2  0  0  0  0  0  0
  187.0520  176.8640  145.5790 N   0  0  0  0  0  0  0  0  0  0  0  0
  191.0520  174.8250  142.7590 C   0  0  0  0  0  0  0  0  0  0  0  0
  194.8800  175.2530  144.6020 C   0  0  1  0  0  3  0  0  0  0  0  0
  191.1520  175.3920  144.0450 C   0  0  0  0  0  0  0  0  0  0  0  0
  190.8160  173.7030  140.2020 C   0  0  0  0  0  3  0  0  0  0  0  0
  189.2270  177.5440  146.4390 C   0  0  0  0  0  2  0  0  0  0  0  0
  192.0680  173.7920  140.8140 C   0  0  0  0  0  3  0  0  0  0  0  0
  190.1330  176.3770  146.1240 C   0  0  0  0  0  2  0  0  0  0  0  0
  187.4720  176.1410  144.4040 C   0  0  0  0  0  0  0  0  0  0  0  0
  189.6800  174.1700  140.8610 C   0  0  0  0  0  3  0  0  0  0  0  0
  188.6990  175.1980  142.8090 N   0  0  0  0  0  0  0  0  0  0  0  0
  185.7540  177.5270  145.6100 C   0  0  0  0  0  2  0  0  0  0  0  0
  185.9260  179.0310  145.4620 C   0  0  0  0  0  2  0  0  0  0  0  0
  185.3440  178.3960  142.1680 N   0  0  0  0  0  2  0  0  0  0  0  0
  183.9110  178.6660  144.0560 C   0  0  0  0  0  2  0  0  0  0  0  0
  185.1220  179.5400  144.2790 C   0  0  2  0  0  3  0  0  0  0  0  0
  183.9560  178.3090  142.5900 C   0  0  0  0  0  2  0  0  0  0  0  0
  185.9480  179.4170  143.0130 C   0  0  0  0  0  2  0  0  0  0  0  0
  1 18  1  0  0  0  0
  1 27  1  0  0  0  0
  2 27  1  0  0  0  0
  2 14  2  0  0  0  0
  3 16  1  6  0  0  0
  3 19  1  0  0  0  0
  3  7  1  0  0  0  0
  4 15  1  0  0  0  0
  4 18  2  0  0  0  0
  5 19  1  0  0  0  0
  5 11  2  0  0  0  0
  7  6  1  0  0  0  0
  8 16  1  0  0  0  0
  9 25  2  0  0  0  0
  9 13  1  0  0  0  0
 12  8  1  0  0  0  0
 12 15  1  0  0  0  0
 13 24  1  0  0  0  0
 14 25  1  0  0  0  0
 15  5  1  0  0  0  0
 17 28  1  0  0  0  0
 17 10  1  0  0  0  0
 18 20  1  0  0  0  0
 19  6  1  1  0  0  0
 20 11  1  0  0  0  0
 20 13  2  0  0  0  0
 21 23  2  0  0  0  0
 21 26  1  0  0  0  0
 22 10  1  0  0  0  0
 23  4  1  0  0  0  0
 24 22  1  0  0  0  0
 25 17  1  0  0  0  0
 26  1  2  0  0  0  0
 27  9  1  0  0  0  0
 29 28  1  0  0  0  0
 30 33  1  0  0  0  0
 30 34  1  0  0  0  0
 31 32  1  0  0  0  0
 32 29  1  1  0  0  0
 33 31  1  0  0  0  0
 34 32  1  0  0  0  0
M  END
>  <MODEL>
5

>  <REMARK>
 VINA RESULT:      -8.3      1.544      8.173
  Name = 
  3 active torsions:
  status: ('A' for Active; 'I' for Inactive)
    1  A    between atoms: N_17  and  C_28
    2  A    between atoms: C_28  and  C_29
    3  A    between atoms: C_29  and  C_32
                            x       y       z     vdW  Elec       q    Type
                         _______ _______ _______ _____ _____    ______ ____

>  <TORSDO>
F 3

$$$$
=
 OpenBabel11112417543D

 34 41  0  0  1  0  0  0  0  0999 V2000
  188.6730  176.2540  146.5030 C   0  0  0  0  0  0  0  0  0  0  0  0
  190.6830  175.5200  147.6520 C   0  0  0  0  0  3  0  0  0  0  0  0
  185.3270  177.5220  141.1520 C   0  0  2  0  0  3  0  0  0  0  0  0
  186.7810  177.0440  145.1540 C   0  0  0  0  0  0  0  0  0  0  0  0
  187.0970  177.5320  142.8370 C   0  0  0  0  0  0  0  0  0  0  0  0
  187.2220  177.7640  140.2180 C   0  0  0  0  0  2  0  0  0  0  0  0
  185.8190  177.4190  139.7250 C   0  0  0  0  0  2  0  0  0  0  0  0
  184.3440  178.8770  142.9940 C   0  0  0  0  0  2  0  0  0  0  0  0
  190.8320  175.9980  145.5160 C   0  0  0  0  0  0  0  0  0  0  0  0
  193.4090  175.7080  143.7600 C   0  0  0  0  0  2  0  0  0  0  0  0
  188.4520  177.2140  142.9400 C   0  0  0  0  0  3  0  0  0  0  0  0
  184.7960  177.6920  143.8750 C   0  0  0  0  0  2  0  0  0  0  0  0
  190.3660  176.4360  144.2530 C   0  0  0  0  0  0  0  0  0  0  0  0
  192.0090  175.3290  147.3020 C   0  0  0  0  0  3  0  0  0  0  0  0
  186.2680  177.4690  143.9490 N   0  0  0  0  0  0  0  0  0  0  0  0
  184.2170  178.4930  141.5040 C   0  0  0  0  0  2  0  0  0  0  0  0
  193.3450  175.6430  145.2110 N   0  0  0  0  0  0  0  0  0  0  0  0
  188.1480  176.6940  145.2690 C   0  0  0  0  0  0  0  0  0  0  0  0
  186.6230  178.1540  141.5570 C   0  0  1  0  0  3  0  0  0  0  0  0
  188.9960  176.7790  144.1470 C   0  0  0  0  0  0  0  0  0  0  0  0
  186.4910  176.5120  147.5210 C   0  0  0  0  0  3  0  0  0  0  0  0
  192.6350  176.8970  143.2470 C   0  0  0  0  0  2  0  0  0  0  0  0
  185.9680  176.9450  146.3010 C   0  0  0  0  0  3  0  0  0  0  0  0
  191.2140  176.4420  143.0090 C   0  0  0  0  0  2  0  0  0  0  0  0
  192.1050  175.6250  145.9470 C   0  0  0  0  0  0  0  0  0  0  0  0
  187.8380  176.1680  147.6230 C   0  0  0  0  0  3  0  0  0  0  0  0
  189.9930  175.9280  146.5690 N   0  0  0  0  0  0  0  0  0  0  0  0
  194.6200  175.5970  145.9160 C   0  0  0  0  0  2  0  0  0  0  0  0
  195.6140  174.7350  145.1520 C   0  0  0  0  0  2  0  0  0  0  0  0
  196.3530  171.5750  144.1240 N   0  0  0  0  0  2  0  0  0  0  0  0
  196.8350  172.7980  146.1150 C   0  0  0  0  0  2  0  0  0  0  0  0
  195.5040  173.2870  145.5940 C   0  0  2  0  0  3  0  0  0  0  0  0
  197.0880  171.5060  145.3760 C   0  0  0  0  0  2  0  0  0  0  0  0
  195.1930  172.4130  144.3960 C   0  0  0  0  0  2  0  0  0  0  0  0
  1 27  1  0  0  0  0
  1 26  1  0  0  0  0
  3  7  1  6  0  0  0
  3 16  1  0  0  0  0
  3 19  1  0  0  0  0
  4 18  1  0  0  0  0
  4 23  2  0  0  0  0
  5 11  2  0  0  0  0
  5 15  1  0  0  0  0
  7  6  1  0  0  0  0
  8 12  1  0  0  0  0
  9 25  2  0  0  0  0
  9 27  1  0  0  0  0
 10 17  1  0  0  0  0
 11 20  1  0  0  0  0
 12 15  1  0  0  0  0
 13  9  1  0  0  0  0
 14  2  2  0  0  0  0
 15  4  1  0  0  0  0
 16  8  1  0  0  0  0
 17 28  1  0  0  0  0
 17 25  1  0  0  0  0
 18  1  2  0  0  0  0
 19  6  1  6  0  0  0
 19  5  1  0  0  0  0
 20 13  2  0  0  0  0
 20 18  1  0  0  0  0
 21 26  2  0  0  0  0
 22 10  1  0  0  0  0
 23 21  1  0  0  0  0
 24 22  1  0  0  0  0
 24 13  1  0  0  0  0
 25 14  1  0  0  0  0
 27  2  1  0  0  0  0
 29 28  1  0  0  0  0
 30 34  1  0  0  0  0
 30 33  1  0  0  0  0
 32 29  1  6  0  0  0
 32 31  1  0  0  0  0
 33 31  1  0  0  0  0
 34 32  1  0  0  0  0
M  END
>  <MODEL>
6

>  <REMARK>
 VINA RESULT:      -8.3      2.018      4.246
  Name = 
  3 active torsions:
  status: ('A' for Active; 'I' for Inactive)
    1  A    between atoms: N_17  and  C_28
    2  A    between atoms: C_28  and  C_29
    3  A    between atoms: C_29  and  C_32
                            x       y       z     vdW  Elec       q    Type
                         _______ _______ _______ _____ _____    ______ ____

>  <TORSDO>
F 3

$$$$
=
 OpenBabel11112417543D

 34 41  0  0  1  0  0  0  0  0999 V2000
  191.0920  175.3330  145.0840 C   0  0  0  0  0  0  0  0  0  0  0  0
  190.0490  177.3730  145.8900 C   0  0  0  0  0  3  0  0  0  0  0  0
  191.9970  170.7950  140.6080 C   0  0  2  0  0  3  0  0  0  0  0  0
  191.9620  173.2500  144.1210 C   0  0  0  0  0  0  0  0  0  0  0  0
  190.9100  172.3020  142.1970 C   0  0  0  0  0  0  0  0  0  0  0  0
  190.0740  171.3510  139.8890 C   0  0  0  0  0  2  0  0  0  0  0  0
  191.3010  170.6870  139.2690 C   0  0  0  0  0  2  0  0  0  0  0  0
  192.5770  169.8030  142.8160 C   0  0  0  0  0  2  0  0  0  0  0  0
  189.1840  176.4000  144.1240 C   0  0  0  0  0  0  0  0  0  0  0  0
  186.7640  177.4750  142.4540 C   0  0  0  0  0  2  0  0  0  0  0  0
  189.9610  173.3260  142.1930 C   0  0  0  0  0  3  0  0  0  0  0  0
  192.9960  171.2480  143.1630 C   0  0  0  0  0  2  0  0  0  0  0  0
  189.0580  175.4000  143.1300 C   0  0  0  0  0  0  0  0  0  0  0  0
  188.9540  178.1370  145.5220 C   0  0  0  0  0  3  0  0  0  0  0  0
  191.8960  172.2530  143.1730 N   0  0  0  0  0  0  0  0  0  0  0  0
  192.5240  169.5500  141.2930 C   0  0  0  0  0  2  0  0  0  0  0  0
  187.1910  177.9570  143.7570 N   0  0  0  0  0  0  0  0  0  0  0  0
  191.0210  174.3080  144.1160 C   0  0  0  0  0  0  0  0  0  0  0  0
  190.6950  171.1520  141.2600 C   0  0  1  0  0  3  0  0  0  0  0  0
  190.0070  174.3480  143.1390 C   0  0  0  0  0  0  0  0  0  0  0  0
  193.0260  174.2620  146.0740 C   0  0  0  0  0  3  0  0  0  0  0  0
  186.6980  175.9680  142.4390 C   0  0  0  0  0  2  0  0  0  0  0  0
  192.9600  173.2480  145.1150 C   0  0  0  0  0  3  0  0  0  0  0  0
  188.0540  175.4620  142.0090 C   0  0  0  0  0  2  0  0  0  0  0  0
  188.4080  177.5250  144.3980 C   0  0  0  0  0  0  0  0  0  0  0  0
  192.0960  175.3000  146.0600 C   0  0  0  0  0  3  0  0  0  0  0  0
  190.1680  176.3310  145.0440 N   0  0  0  0  0  0  0  0  0  0  0  0
  186.3150  178.9190  144.4130 C   0  0  0  0  0  2  0  0  0  0  0  0
  184.9400  178.3090  144.6430 C   0  0  0  0  0  2  0  0  0  0  0  0
  186.3240  176.8220  147.3750 N   0  0  0  0  0  2  0  0  0  0  0  0
  185.5560  179.0380  146.9360 C   0  0  0  0  0  2  0  0  0  0  0  0
  184.7000  178.0940  146.1260 C   0  0  2  0  0  3  0  0  0  0  0  0
  186.2550  178.1580  147.9440 C   0  0  0  0  0  2  0  0  0  0  0  0
  185.1530  176.7010  146.5160 C   0  0  0  0  0  2  0  0  0  0  0  0
  1 26  1  0  0  0  0
  3  7  1  6  0  0  0
  3 19  1  0  0  0  0
  3 16  1  0  0  0  0
  4 23  2  0  0  0  0
  5 15  1  0  0  0  0
  7  6  1  0  0  0  0
  8 12  1  0  0  0  0
  9 25  2  0  0  0  0
  9 27  1  0  0  0  0
 10 17  1  0  0  0  0
 11  5  2  0  0  0  0
 11 20  1  0  0  0  0
 12 15  1  0  0  0  0
 13 20  2  0  0  0  0
 13  9  1  0  0  0  0
 14  2  2  0  0  0  0
 15  4  1  0  0  0  0
 16  8  1  0  0  0  0
 17 25  1  0  0  0  0
 17 28  1  0  0  0  0
 18  4  1  0  0  0  0
 18  1  2  0  0  0  0
 19  6  1  6  0  0  0
 19  5  1  0  0  0  0
 20 18  1  0  0  0  0
 22 10  1  0  0  0  0
 23 21  1  0  0  0  0
 24 22  1  0  0  0  0
 24 13  1  0  0  0  0
 25 14  1  0  0  0  0
 26 21  2  0  0  0  0
 27  1  1  0  0  0  0
 27  2  1  0  0  0  0
 28 29  1  0  0  0  0
 30 33  1  0  0  0  0
 31 33  1  0  0  0  0
 32 29  1  6  0  0  0
 32 34  1  0  0  0  0
 32 31  1  0  0  0  0
 34 30  1  0  0  0  0
M  END
>  <MODEL>
7

>  <REMARK>
 VINA RESULT:      -8.2      2.475      8.776
  Name = 
  3 active torsions:
  status: ('A' for Active; 'I' for Inactive)
    1  A    between atoms: N_17  and  C_28
    2  A    between atoms: C_28  and  C_29
    3  A    between atoms: C_29  and  C_32
                            x       y       z     vdW  Elec       q    Type
                         _______ _______ _______ _____ _____    ______ ____

>  <TORSDO>
F 3

$$$$
=
 OpenBabel11112417543D

 34 41  0  0  1  0  0  0  0  0999 V2000
  192.4850  175.9250  144.5610 C   0  0  0  0  0  0  0  0  0  0  0  0
  191.1700  177.8900  144.0060 C   0  0  0  0  0  3  0  0  0  0  0  0
  194.1580  169.7710  143.6860 C   0  0  2  0  0  3  0  0  0  0  0  0
  193.6430  173.8100  145.0210 C   0  0  0  0  0  0  0  0  0  0  0  0
  192.8170  171.7770  144.0770 C   0  0  0  0  0  0  0  0  0  0  0  0
  192.2280  169.5380  142.8250 C   0  0  0  0  0  2  0  0  0  0  0  0
  193.5560  168.7960  142.6980 C   0  0  0  0  0  2  0  0  0  0  0  0
  194.7250  170.3800  146.0320 C   0  0  0  0  0  2  0  0  0  0  0  0
  190.5240  175.9550  143.2000 C   0  0  0  0  0  0  0  0  0  0  0  0
  188.0930  175.5020  141.2790 C   0  0  0  0  0  2  0  0  0  0  0  0
  191.7580  172.4650  143.4830 C   0  0  0  0  0  3  0  0  0  0  0  0
  194.9540  171.7830  145.4310 C   0  0  0  0  0  2  0  0  0  0  0  0
  190.5700  174.5530  143.0090 C   0  0  0  0  0  0  0  0  0  0  0  0
  190.0170  178.1360  143.2800 C   0  0  0  0  0  3  0  0  0  0  0  0
  193.7460  172.4460  144.8630 N   0  0  0  0  0  0  0  0  0  0  0  0
  194.7860  169.2610  144.9680 C   0  0  0  0  0  2  0  0  0  0  0  0
  188.3880  176.7160  142.0210 N   0  0  0  0  0  0  0  0  0  0  0  0
  192.5880  174.5270  144.4040 C   0  0  0  0  0  0  0  0  0  0  0  0
  192.7900  170.2780  144.0240 C   0  0  1  0  0  3  0  0  0  0  0  0
  191.6320  173.8450  143.6240 C   0  0  0  0  0  0  0  0  0  0  0  0
  194.4720  175.9130  145.9480 C   0  0  0  0  0  3  0  0  0  0  0  0
  188.2030  174.2920  142.1730 C   0  0  0  0  0  2  0  0  0  0  0  0
  194.5770  174.5290  145.7920 C   0  0  0  0  0  3  0  0  0  0  0  0
  189.6310  173.8050  142.1010 C   0  0  0  0  0  2  0  0  0  0  0  0
  189.6090  176.9120  142.7630 C   0  0  0  0  0  0  0  0  0  0  0  0
  193.4310  176.6090  145.3360 C   0  0  0  0  0  3  0  0  0  0  0  0
  191.4560  176.5740  143.9530 N   0  0  0  0  0  0  0  0  0  0  0  0
  187.3710  177.7600  141.9900 C   0  0  0  0  0  2  0  0  0  0  0  0
  186.1720  177.3530  142.8330 C   0  0  0  0  0  2  0  0  0  0  0  0
  184.2830  178.8590  145.2320 N   0  0  0  0  0  2  0  0  0  0  0  0
  185.7550  176.9820  145.2530 C   0  0  0  0  0  2  0  0  0  0  0  0
  186.2770  177.9540  144.2230 C   0  0  2  0  0  3  0  0  0  0  0  0
  184.7700  177.7790  146.0740 C   0  0  0  0  0  2  0  0  0  0  0  0
  185.3750  179.1690  144.3200 C   0  0  0  0  0  2  0  0  0  0  0  0
  1 26  1  0  0  0  0
  3  7  1  6  0  0  0
  3 19  1  0  0  0  0
  3 16  1  0  0  0  0
  4 23  2  0  0  0  0
  5 15  1  0  0  0  0
  7  6  1  0  0  0  0
  9 27  1  0  0  0  0
 10 17  1  0  0  0  0
 10 22  1  0  0  0  0
 11 20  1  0  0  0  0
 11  5  2  0  0  0  0
 12  8  1  0  0  0  0
 13  9  1  0  0  0  0
 13 20  2  0  0  0  0
 14  2  2  0  0  0  0
 15  4  1  0  0  0  0
 15 12  1  0  0  0  0
 16  8  1  0  0  0  0
 17 25  1  0  0  0  0
 18  1  2  0  0  0  0
 18  4  1  0  0  0  0
 19  6  1  6  0  0  0
 19  5  1  0  0  0  0
 20 18  1  0  0  0  0
 23 21  1  0  0  0  0
 24 22  1  0  0  0  0
 24 13  1  0  0  0  0
 25  9  2  0  0  0  0
 25 14  1  0  0  0  0
 26 21  2  0  0  0  0
 27  2  1  0  0  0  0
 27  1  1  0  0  0  0
 28 17  1  0  0  0  0
 28 29  1  0  0  0  0
 30 33  1  0  0  0  0
 31 33  1  0  0  0  0
 32 29  1  6  0  0  0
 32 34  1  0  0  0  0
 32 31  1  0  0  0  0
 34 30  1  0  0  0  0
M  END
>  <MODEL>
8

>  <REMARK>
 VINA RESULT:      -8.2      2.612      8.901
  Name = 
  3 active torsions:
  status: ('A' for Active; 'I' for Inactive)
    1  A    between atoms: N_17  and  C_28
    2  A    between atoms: C_28  and  C_29
    3  A    between atoms: C_29  and  C_32
                            x       y       z     vdW  Elec       q    Type
                         _______ _______ _______ _____ _____    ______ ____

>  <TORSDO>
F 3

$$$$
=
 OpenBabel11112417543D

 34 41  0  0  1  0  0  0  0  0999 V2000
  189.4460  174.3820  144.8060 C   0  0  0  0  0  0  0  0  0  0  0  0
  190.9620  172.5630  144.2630 C   0  0  0  0  0  3  0  0  0  0  0  0
  184.5020  178.2650  143.4230 C   0  0  2  0  0  3  0  0  0  0  0  0
  187.8770  176.2430  145.1200 C   0  0  0  0  0  0  0  0  0  0  0  0
  186.6260  177.0670  143.2590 C   0  0  0  0  0  0  0  0  0  0  0  0
  184.9390  177.8290  141.3880 C   0  0  0  0  0  2  0  0  0  0  0  0
  183.6950  178.2910  142.1440 C   0  0  0  0  0  2  0  0  0  0  0  0
  185.9410  179.4380  145.0810 C   0  0  0  0  0  2  0  0  0  0  0  0
  189.7470  173.4110  142.6450 C   0  0  0  0  0  0  0  0  0  0  0  0
  189.7020  172.4030  139.6810 C   0  0  0  0  0  2  0  0  0  0  0  0
  187.2530  176.1510  142.4130 C   0  0  0  0  0  3  0  0  0  0  0  0
  186.2420  178.0070  145.5750 C   0  0  0  0  0  2  0  0  0  0  0  0
  188.8140  174.2990  142.0570 C   0  0  0  0  0  0  0  0  0  0  0  0
  191.3130  171.8770  143.1120 C   0  0  0  0  0  3  0  0  0  0  0  0
  186.9540  177.1270  144.6070 N   0  0  0  0  0  0  0  0  0  0  0  0
  184.6340  179.5210  144.2620 C   0  0  0  0  0  2  0  0  0  0  0  0
  190.6690  172.0330  140.7000 N   0  0  0  0  0  0  0  0  0  0  0  0
  188.5040  175.2910  144.2790 C   0  0  0  0  0  0  0  0  0  0  0  0
  185.7640  178.1190  142.6290 C   0  0  1  0  0  3  0  0  0  0  0  0
  188.1880  175.2430  142.9070 C   0  0  0  0  0  0  0  0  0  0  0  0
  189.1560  175.3570  147.0030 C   0  0  0  0  0  3  0  0  0  0  0  0
  189.4970  173.8980  139.6600 C   0  0  0  0  0  2  0  0  0  0  0  0
  188.2220  176.2560  146.4860 C   0  0  0  0  0  3  0  0  0  0  0  0
  188.3740  174.2120  140.6190 C   0  0  0  0  0  2  0  0  0  0  0  0
  190.5390  172.4090  142.0860 C   0  0  0  0  0  0  0  0  0  0  0  0
  189.7670  174.4230  146.1680 C   0  0  0  0  0  3  0  0  0  0  0  0
  190.0260  173.4840  143.9620 N   0  0  0  0  0  0  0  0  0  0  0  0
  191.8130  171.2450  140.2560 C   0  0  0  0  0  2  0  0  0  0  0  0
  192.4320  171.8690  139.0150 C   0  0  0  0  0  2  0  0  0  0  0  0
  193.3070  174.5410  140.9360 N   0  0  0  0  0  2  0  0  0  0  0  0
  194.1450  172.3150  140.7580 C   0  0  0  0  0  2  0  0  0  0  0  0
  193.6340  172.7160  139.3940 C   0  0  2  0  0  3  0  0  0  0  0  0
  194.2530  173.6090  141.5270 C   0  0  0  0  0  2  0  0  0  0  0  0
  193.2100  174.1650  139.5320 C   0  0  0  0  0  2  0  0  0  0  0  0
  1 26  1  0  0  0  0
  3  7  1  6  0  0  0
  3 16  1  0  0  0  0
  4 23  2  0  0  0  0
  5 15  1  0  0  0  0
  6  7  1  0  0  0  0
  8 12  1  0  0  0  0
  9 27  1  0  0  0  0
 10 17  1  0  0  0  0
 11 20  1  0  0  0  0
 11  5  2  0  0  0  0
 13  9  1  0  0  0  0
 13 20  2  0  0  0  0
 14  2  2  0  0  0  0
 15  4  1  0  0  0  0
 15 12  1  0  0  0  0
 16  8  1  0  0  0  0
 17 25  1  0  0  0  0
 18  1  2  0  0  0  0
 18  4  1  0  0  0  0
 19  6  1  6  0  0  0
 19  5  1  0  0  0  0
 19  3  1  0  0  0  0
 20 18  1  0  0  0  0
 22 10  1  0  0  0  0
 22 24  1  0  0  0  0
 23 21  1  0  0  0  0
 24 13  1  0  0  0  0
 25  9  2  0  0  0  0
 25 14  1  0  0  0  0
 26 21  2  0  0  0  0
 27  2  1  0  0  0  0
 27  1  1  0  0  0  0
 28 17  1  0  0  0  0
 29 28  1  0  0  0  0
 30 33  1  0  0  0  0
 31 33  1  0  0  0  0
 32 29  1  1  0  0  0
 32 34  1  0  0  0  0
 32 31  1  0  0  0  0
 34 30  1  0  0  0  0
M  END
>  <MODEL>
9

>  <REMARK>
 VINA RESULT:      -8.1      2.585      4.760
  Name = 
  3 active torsions:
  status: ('A' for Active; 'I' for Inactive)
    1  A    between atoms: N_17  and  C_28
    2  A    between atoms: C_28  and  C_29
    3  A    between atoms: C_29  and  C_32
                            x       y       z     vdW  Elec       q    Type
                         _______ _______ _______ _____ _____    ______ ____

>  <TORSDO>
F 3

$$$$
