=
 OpenBabel11112416483D

 31 35  0  0  1  0  0  0  0  0999 V2000
  194.6250  176.3630  144.7560 C   0  0  0  0  0  0  0  0  0  0  0  0
  191.0350  177.0760  143.7230 C   0  0  2  0  0  3  0  0  0  0  0  0
  190.5910  175.8920  142.8710 C   0  0  0  0  0  0  0  0  0  0  0  0
  191.1680  174.0110  141.4330 C   0  0  0  0  0  0  0  0  0  0  0  0
  192.2360  176.7730  144.5880 C   0  0  0  0  0  0  0  0  0  0  0  0
  194.4900  176.1110  146.1220 C   0  0  0  0  0  3  0  0  0  0  0  0
  191.5500  175.0520  142.2810 C   0  0  0  0  0  3  0  0  0  0  0  0
  189.5870  176.8250  145.7860 C   0  0  2  0  0  3  0  0  0  0  0  0
  195.8730  176.2820  144.1550 O   0  0  0  0  0  1  0  0  0  0  0  0
  188.1420  176.5420  143.1380 C   0  0  0  0  0  2  0  0  0  0  0  0
  192.3830  172.9690  140.7270 Cl  0  0  0  0  0  0  0  0  0  0  0  0
  190.8110  176.7540  146.6990 C   0  0  0  0  0  2  0  0  0  0  0  0
  189.8870  177.6890  144.5480 C   0  0  2  0  0  3  0  0  0  0  0  0
  193.5030  176.6950  143.9930 C   0  0  0  0  0  3  0  0  0  0  0  0
  189.8190  173.8080  141.1440 C   0  0  0  0  0  3  0  0  0  0  0  0
  192.1040  176.5260  145.9710 C   0  0  0  0  0  0  0  0  0  0  0  0
  193.2350  176.2030  146.7290 C   0  0  0  0  0  3  0  0  0  0  0  0
  188.6630  177.8800  143.6540 C   0  0  0  0  0  2  0  0  0  0  0  0
  189.2280  175.7010  142.5410 C   0  0  0  0  0  0  0  0  0  0  0  0
  188.8530  174.6490  141.6980 C   0  0  0  0  0  3  0  0  0  0  0  0
  188.5180  177.3530  146.5290 O   0  0  0  0  0  0  0  0  0  0  0  0
  188.1690  175.2200  147.5710 C   0  0  0  0  0  1  0  0  0  0  0  0
  187.5820  176.3170  146.6830 C   0  0  1  0  0  3  0  0  0  0  0  0
  185.0780  178.9500  145.4220 C   0  0  1  0  0  3  0  0  0  0  0  0
  185.0840  176.6220  146.4060 C   0  0  0  0  0  2  0  0  0  0  0  0
  187.6970  178.8790  148.3760 O   0  0  0  0  0  0  0  0  0  0  0  0
  185.0140  179.7130  144.1170 C   0  0  0  0  0  1  0  0  0  0  0  0
  185.1900  177.4560  145.1260 C   0  0  0  0  0  2  0  0  0  0  0  0
  186.3110  178.5920  147.8160 S   0  0  2  0  0  0  0  0  0  0  0  0
  186.2860  176.8380  147.3320 C   0  0  2  0  0  3  0  0  0  0  0  0
  186.2730  179.4400  146.2290 C   0  0  0  0  0  2  0  0  0  0  0  0
  1  6  1  0  0  0  0
  2  3  1  1  0  0  0
  2 13  1  0  0  0  0
  2  5  1  0  0  0  0
  4  7  1  0  0  0  0
  5 16  2  0  0  0  0
  6 17  2  0  0  0  0
  7  3  2  0  0  0  0
  8 21  1  1  0  0  0
  8 12  1  0  0  0  0
  9  1  1  0  0  0  0
 10 18  1  0  0  0  0
 11  4  1  0  0  0  0
 13 18  1  6  0  0  0
 13  8  1  0  0  0  0
 14  5  1  0  0  0  0
 14  1  2  0  0  0  0
 15  4  2  0  0  0  0
 15 20  1  0  0  0  0
 16 12  1  0  0  0  0
 16 17  1  0  0  0  0
 19  3  1  0  0  0  0
 19 10  1  0  0  0  0
 20 19  2  0  0  0  0
 21 23  1  0  0  0  0
 23 22  1  1  0  0  0
 24 27  1  6  0  0  0
 24 31  1  0  0  0  0
 25 30  1  0  0  0  0
 28 24  1  0  0  0  0
 28 25  1  0  0  0  0
 29 26  2  6  0  0  0
 30 23  1  6  0  0  0
 30 29  1  0  0  0  0
 31 29  1  0  0  0  0
M  END
>  <MODEL>
1

>  <REMARK>
 VINA RESULT:      -8.4      0.000      0.000
  Name = 
  3 active torsions:
  status: ('A' for Active; 'I' for Inactive)
    1  A    between atoms: C_5  and  O_16
    2  A    between atoms: C_5  and  C_30
    3  A    between atoms: C_10  and  O_16
                            x       y       z     vdW  Elec       q    Type
                         _______ _______ _______ _____ _____    ______ ____

>  <TORSDO>
F 3

$$$$
=
 OpenBabel11112416483D

 31 35  0  0  1  0  0  0  0  0999 V2000
  186.0860  178.0800  140.8070 C   0  0  0  0  0  0  0  0  0  0  0  0
  188.6720  177.9190  143.5910 C   0  0  2  0  0  3  0  0  0  0  0  0
  187.9040  177.6170  144.8730 C   0  0  0  0  0  0  0  0  0  0  0  0
  185.8150  177.6660  146.1250 C   0  0  0  0  0  0  0  0  0  0  0  0
  187.9030  177.5720  142.3380 C   0  0  0  0  0  0  0  0  0  0  0  0
  186.3720  176.9250  140.0780 C   0  0  0  0  0  3  0  0  0  0  0  0
  186.5220  177.8600  144.9370 C   0  0  0  0  0  3  0  0  0  0  0  0
  190.0170  175.7990  143.2560 C   0  0  2  0  0  3  0  0  0  0  0  0
  185.0410  178.9060  140.4190 O   0  0  0  0  0  1  0  0  0  0  0  0
  190.0500  176.9330  146.0660 C   0  0  0  0  0  2  0  0  0  0  0  0
  184.0910  177.9590  146.1720 Cl  0  0  0  0  0  0  0  0  0  0  0  0
  189.4080  175.5700  141.8730 C   0  0  0  0  0  2  0  0  0  0  0  0
  190.0840  177.3030  143.5740 C   0  0  2  0  0  3  0  0  0  0  0  0
  186.8500  178.4030  141.9310 C   0  0  0  0  0  3  0  0  0  0  0  0
  186.4840  177.2450  147.2730 C   0  0  0  0  0  3  0  0  0  0  0  0
  188.1960  176.4100  141.5920 C   0  0  0  0  0  0  0  0  0  0  0  0
  187.4300  176.0990  140.4630 C   0  0  0  0  0  3  0  0  0  0  0  0
  190.7830  177.5930  144.9020 C   0  0  0  0  0  2  0  0  0  0  0  0
  188.5800  177.2280  146.0530 C   0  0  0  0  0  0  0  0  0  0  0  0
  187.8620  177.0260  147.2360 C   0  0  0  0  0  3  0  0  0  0  0  0
  191.2940  175.2150  143.2740 O   0  0  0  0  0  0  0  0  0  0  0  0
  190.3720  173.0470  143.7190 C   0  0  0  0  0  1  0  0  0  0  0  0
  191.2560  174.1850  144.2270 C   0  0  1  0  0  3  0  0  0  0  0  0
  194.3610  175.9420  145.6620 C   0  0  1  0  0  3  0  0  0  0  0  0
  193.0520  173.8030  145.9700 C   0  0  0  0  0  2  0  0  0  0  0  0
  193.4280  174.5560  142.0850 O   0  0  0  0  0  0  0  0  0  0  0  0
  194.5450  177.3400  146.2130 C   0  0  0  0  0  1  0  0  0  0  0  0
  193.1780  175.2780  146.3620 C   0  0  0  0  0  2  0  0  0  0  0  0
  193.9940  174.3600  143.4850 S   0  0  2  0  0  0  0  0  0  0  0  0
  192.6690  173.6310  144.4960 C   0  0  2  0  0  3  0  0  0  0  0  0
  194.1350  176.0240  144.1590 C   0  0  0  0  0  2  0  0  0  0  0  0
  1 14  1  0  0  0  0
  2  5  1  6  0  0  0
  2  3  1  0  0  0  0
  3  7  2  0  0  0  0
  3 19  1  0  0  0  0
  4 11  1  0  0  0  0
  4 15  2  0  0  0  0
  6 17  1  0  0  0  0
  6  1  2  0  0  0  0
  7  4  1  0  0  0  0
  8 21  1  6  0  0  0
  8 13  1  0  0  0  0
  9  1  1  0  0  0  0
 12  8  1  0  0  0  0
 13  2  1  0  0  0  0
 13 18  1  1  0  0  0
 14  5  2  0  0  0  0
 16 12  1  0  0  0  0
 16  5  1  0  0  0  0
 17 16  2  0  0  0  0
 18 10  1  0  0  0  0
 19 10  1  0  0  0  0
 19 20  2  0  0  0  0
 20 15  1  0  0  0  0
 21 23  1  0  0  0  0
 23 22  1  6  0  0  0
 24 27  1  1  0  0  0
 24 28  1  0  0  0  0
 25 28  1  0  0  0  0
 29 26  2  6  0  0  0
 29 31  1  0  0  0  0
 29 30  1  0  0  0  0
 30 23  1  1  0  0  0
 30 25  1  0  0  0  0
 31 24  1  0  0  0  0
M  END
>  <MODEL>
2

>  <REMARK>
 VINA RESULT:      -8.3      3.540      7.326
  Name = 
  3 active torsions:
  status: ('A' for Active; 'I' for Inactive)
    1  A    between atoms: C_5  and  O_16
    2  A    between atoms: C_5  and  C_30
    3  A    between atoms: C_10  and  O_16
                            x       y       z     vdW  Elec       q    Type
                         _______ _______ _______ _____ _____    ______ ____

>  <TORSDO>
F 3

$$$$
=
 OpenBabel11112416483D

 31 35  0  0  1  0  0  0  0  0999 V2000
  186.6710  177.7330  140.8580 C   0  0  0  0  0  0  0  0  0  0  0  0
  188.6660  177.7800  144.0950 C   0  0  2  0  0  3  0  0  0  0  0  0
  187.6450  177.7500  145.2270 C   0  0  0  0  0  0  0  0  0  0  0  0
  185.3820  178.1760  146.0210 C   0  0  0  0  0  0  0  0  0  0  0  0
  188.1050  177.3110  142.7730 C   0  0  0  0  0  0  0  0  0  0  0  0
  186.9500  176.4570  140.3630 C   0  0  0  0  0  3  0  0  0  0  0  0
  186.3130  178.1210  144.9830 C   0  0  0  0  0  3  0  0  0  0  0  0
  189.7930  175.5240  144.3260 C   0  0  2  0  0  3  0  0  0  0  0  0
  185.8180  178.5760  140.1600 O   0  0  0  0  0  1  0  0  0  0  0  0
  189.4410  177.0750  146.9050 C   0  0  0  0  0  2  0  0  0  0  0  0
  183.7240  178.6230  145.6850 Cl  0  0  0  0  0  0  0  0  0  0  0  0
  189.4260  175.1370  142.8930 C   0  0  0  0  0  2  0  0  0  0  0  0
  189.9760  177.0480  144.4430 C   0  0  2  0  0  3  0  0  0  0  0  0
  187.2480  178.1580  142.0560 C   0  0  0  0  0  3  0  0  0  0  0  0
  185.7750  177.8820  147.3260 C   0  0  0  0  0  3  0  0  0  0  0  0
  188.3930  176.0260  142.2660 C   0  0  0  0  0  0  0  0  0  0  0  0
  187.8160  175.6120  141.0600 C   0  0  0  0  0  3  0  0  0  0  0  0
  190.4470  177.4780  145.8310 C   0  0  0  0  0  2  0  0  0  0  0  0
  188.0430  177.4910  146.5610 C   0  0  0  0  0  0  0  0  0  0  0  0
  187.1010  177.5390  147.5940 C   0  0  0  0  0  3  0  0  0  0  0  0
  190.9690  174.8410  144.6750 O   0  0  0  0  0  0  0  0  0  0  0  0
  192.7040  175.4460  143.1340 C   0  0  0  0  0  1  0  0  0  0  0  0
  191.5880  174.4590  143.4740 C   0  0  1  0  0  3  0  0  0  0  0  0
  191.1500  171.3880  141.2020 C   0  0  1  0  0  3  0  0  0  0  0  0
  192.9960  172.6900  142.3350 C   0  0  0  0  0  2  0  0  0  0  0  0
  189.9620  172.2540  144.8650 O   0  0  0  0  0  0  0  0  0  0  0  0
  190.4150  171.2210  139.8890 C   0  0  0  0  0  1  0  0  0  0  0  0
  192.1000  172.5790  141.0980 C   0  0  0  0  0  2  0  0  0  0  0  0
  191.0010  171.7100  143.8950 S   0  0  2  0  0  0  0  0  0  0  0  0
  192.1970  173.0480  143.5920 C   0  0  2  0  0  3  0  0  0  0  0  0
  190.1370  171.5890  142.3200 C   0  0  0  0  0  2  0  0  0  0  0  0
  1 14  1  0  0  0  0
  2  5  1  6  0  0  0
  2 13  1  0  0  0  0
  2  3  1  0  0  0  0
  3 19  1  0  0  0  0
  4 15  2  0  0  0  0
  6  1  2  0  0  0  0
  6 17  1  0  0  0  0
  7  3  2  0  0  0  0
  7  4  1  0  0  0  0
  8 13  1  0  0  0  0
  8 21  1  6  0  0  0
  9  1  1  0  0  0  0
 11  4  1  0  0  0  0
 12  8  1  0  0  0  0
 13 18  1  1  0  0  0
 14  5  2  0  0  0  0
 15 20  1  0  0  0  0
 16  5  1  0  0  0  0
 16 12  1  0  0  0  0
 17 16  2  0  0  0  0
 18 10  1  0  0  0  0
 19 10  1  0  0  0  0
 19 20  2  0  0  0  0
 23 22  1  1  0  0  0
 23 21  1  0  0  0  0
 24 27  1  6  0  0  0
 24 31  1  0  0  0  0
 25 30  1  0  0  0  0
 28 24  1  0  0  0  0
 28 25  1  0  0  0  0
 29 26  2  1  0  0  0
 30 23  1  6  0  0  0
 30 29  1  0  0  0  0
 31 29  1  0  0  0  0
M  END
>  <MODEL>
3

>  <REMARK>
 VINA RESULT:      -7.9      3.575      7.418
  Name = 
  3 active torsions:
  status: ('A' for Active; 'I' for Inactive)
    1  A    between atoms: C_5  and  O_16
    2  A    between atoms: C_5  and  C_30
    3  A    between atoms: C_10  and  O_16
                            x       y       z     vdW  Elec       q    Type
                         _______ _______ _______ _____ _____    ______ ____

>  <TORSDO>
F 3

$$$$
=
 OpenBabel11112416483D

 31 35  0  0  1  0  0  0  0  0999 V2000
  189.9660  171.6770  142.3400 C   0  0  0  0  0  0  0  0  0  0  0  0
  190.2820  173.8110  145.4720 C   0  0  2  0  0  3  0  0  0  0  0  0
  191.7350  174.2710  145.5320 C   0  0  0  0  0  0  0  0  0  0  0  0
  194.0660  173.9390  144.9080 C   0  0  0  0  0  0  0  0  0  0  0  0
  189.8580  173.3520  144.0970 C   0  0  0  0  0  0  0  0  0  0  0  0
  189.1880  172.4890  141.5120 C   0  0  0  0  0  3  0  0  0  0  0  0
  192.7200  173.5840  144.8050 C   0  0  0  0  0  3  0  0  0  0  0  0
  189.0470  175.9800  145.0400 C   0  0  2  0  0  3  0  0  0  0  0  0
  190.4140  170.4460  141.8830 O   0  0  0  0  0  1  0  0  0  0  0  0
  191.1490  176.0880  147.2210 C   0  0  0  0  0  2  0  0  0  0  0  0
  195.2710  173.0780  143.9770 Cl  0  0  0  0  0  0  0  0  0  0  0  0
  188.4240  175.4300  143.7580 C   0  0  0  0  0  2  0  0  0  0  0  0
  189.2970  174.8450  146.0500 C   0  0  2  0  0  3  0  0  0  0  0  0
  190.2970  172.1060  143.6270 C   0  0  0  0  0  3  0  0  0  0  0  0
  194.4490  174.9750  145.7590 C   0  0  0  0  0  3  0  0  0  0  0  0
  189.0630  174.1660  143.2610 C   0  0  0  0  0  0  0  0  0  0  0  0
  188.7300  173.7240  141.9760 C   0  0  0  0  0  3  0  0  0  0  0  0
  189.8220  175.3550  147.3910 C   0  0  0  0  0  2  0  0  0  0  0  0
  192.1380  175.2960  146.4210 C   0  0  0  0  0  0  0  0  0  0  0  0
  193.4880  175.6520  146.5110 C   0  0  0  0  0  3  0  0  0  0  0  0
  188.1790  176.9500  145.5680 O   0  0  0  0  0  0  0  0  0  0  0  0
  185.8000  176.6920  145.3950 C   0  0  0  0  0  1  0  0  0  0  0  0
  187.0990  177.0550  144.6760 C   0  0  1  0  0  3  0  0  0  0  0  0
  184.4120  178.5990  142.4000 C   0  0  1  0  0  3  0  0  0  0  0  0
  185.6440  179.1220  144.5440 C   0  0  0  0  0  2  0  0  0  0  0  0
  188.2140  177.6730  141.8800 O   0  0  0  0  0  0  0  0  0  0  0  0
  183.1240  178.0230  141.8530 C   0  0  0  0  0  1  0  0  0  0  0  0
  184.4460  178.4050  143.9140 C   0  0  0  0  0  2  0  0  0  0  0  0
  187.1270  178.6430  142.3200 S   0  0  2  0  0  0  0  0  0  0  0  0
  186.9760  178.4890  144.1260 C   0  0  2  0  0  3  0  0  0  0  0  0
  185.5920  177.9090  141.7310 C   0  0  0  0  0  2  0  0  0  0  0  0
  1 14  1  0  0  0  0
  2  5  1  6  0  0  0
  2  3  1  0  0  0  0
  2 13  1  0  0  0  0
  3 19  1  0  0  0  0
  4 15  2  0  0  0  0
  6 17  1  0  0  0  0
  6  1  2  0  0  0  0
  7  4  1  0  0  0  0
  7  3  2  0  0  0  0
  8 21  1  1  0  0  0
  8 13  1  0  0  0  0
  9  1  1  0  0  0  0
 10 18  1  0  0  0  0
 11  4  1  0  0  0  0
 12  8  1  0  0  0  0
 13 18  1  1  0  0  0
 14  5  2  0  0  0  0
 15 20  1  0  0  0  0
 16 12  1  0  0  0  0
 16  5  1  0  0  0  0
 17 16  2  0  0  0  0
 19 20  2  0  0  0  0
 19 10  1  0  0  0  0
 23 22  1  1  0  0  0
 23 21  1  0  0  0  0
 24 27  1  6  0  0  0
 24 28  1  0  0  0  0
 28 25  1  0  0  0  0
 29 26  2  6  0  0  0
 29 30  1  0  0  0  0
 30 25  1  0  0  0  0
 30 23  1  6  0  0  0
 31 29  1  0  0  0  0
 31 24  1  0  0  0  0
M  END
>  <MODEL>
4

>  <REMARK>
 VINA RESULT:      -7.9      2.858      4.850
  Name = 
  3 active torsions:
  status: ('A' for Active; 'I' for Inactive)
    1  A    between atoms: C_5  and  O_16
    2  A    between atoms: C_5  and  C_30
    3  A    between atoms: C_10  and  O_16
                            x       y       z     vdW  Elec       q    Type
                         _______ _______ _______ _____ _____    ______ ____

>  <TORSDO>
F 3

$$$$
=
 OpenBabel11112416483D

 31 35  0  0  1  0  0  0  0  0999 V2000
  185.0570  177.8070  146.7360 C   0  0  0  0  0  0  0  0  0  0  0  0
  187.3840  175.8360  144.4650 C   0  0  2  0  0  3  0  0  0  0  0  0
  187.1740  176.3830  143.0570 C   0  0  0  0  0  0  0  0  0  0  0  0
  185.7580  177.5410  141.4490 C   0  0  0  0  0  0  0  0  0  0  0  0
  186.9070  176.7750  145.5480 C   0  0  0  0  0  0  0  0  0  0  0  0
  185.9550  178.5790  147.4740 C   0  0  0  0  0  3  0  0  0  0  0  0
  186.0070  177.1000  142.7490 C   0  0  0  0  0  3  0  0  0  0  0  0
  189.7520  176.5730  144.9810 C   0  0  2  0  0  3  0  0  0  0  0  0
  183.6920  177.9360  146.9510 O   0  0  0  0  0  1  0  0  0  0  0  0
  189.3440  175.3130  142.2560 C   0  0  0  0  0  2  0  0  0  0  0  0
  184.3040  178.4490  141.0970 Cl  0  0  0  0  0  0  0  0  0  0  0  0
  189.2980  177.3380  146.2240 C   0  0  0  0  0  2  0  0  0  0  0  0
  188.8300  175.3680  144.7210 C   0  0  2  0  0  3  0  0  0  0  0  0
  185.5310  176.9080  145.7790 C   0  0  0  0  0  3  0  0  0  0  0  0
  186.6650  177.2510  140.4300 C   0  0  0  0  0  3  0  0  0  0  0  0
  187.8140  177.5500  146.3030 C   0  0  0  0  0  0  0  0  0  0  0  0
  187.3290  178.4420  147.2650 C   0  0  0  0  0  3  0  0  0  0  0  0
  189.3020  174.5080  143.5510 C   0  0  0  0  0  2  0  0  0  0  0  0
  188.0690  176.0610  142.0090 C   0  0  0  0  0  0  0  0  0  0  0  0
  187.8170  176.5150  140.7100 C   0  0  0  0  0  3  0  0  0  0  0  0
  191.0810  176.1640  145.1800 O   0  0  0  0  0  0  0  0  0  0  0  0
  191.3540  178.1660  143.8880 C   0  0  0  0  0  1  0  0  0  0  0  0
  191.8410  176.7410  144.1500 C   0  0  1  0  0  3  0  0  0  0  0  0
  194.2600  173.8810  145.0200 C   0  0  1  0  0  3  0  0  0  0  0  0
  194.1710  175.9450  143.5630 C   0  0  0  0  0  2  0  0  0  0  0  0
  192.6170  176.7910  147.1230 O   0  0  0  0  0  0  0  0  0  0  0  0
  194.0680  172.3800  145.0070 C   0  0  0  0  0  1  0  0  0  0  0  0
  193.8360  174.4540  143.6690 C   0  0  0  0  0  2  0  0  0  0  0  0
  193.7230  176.2570  146.2230 S   0  0  2  0  0  0  0  0  0  0  0  0
  193.3340  176.7910  144.5280 C   0  0  2  0  0  3  0  0  0  0  0  0
  193.4380  174.4800  146.1520 C   0  0  0  0  0  2  0  0  0  0  0  0
  1  9  1  0  0  0  0
  1  6  1  0  0  0  0
  2  3  1  6  0  0  0
  2 13  1  0  0  0  0
  2  5  1  0  0  0  0
  4  7  2  0  0  0  0
  5 14  1  0  0  0  0
  5 16  2  0  0  0  0
  7  3  1  0  0  0  0
  8 21  1  1  0  0  0
  8 12  1  0  0  0  0
 10 18  1  0  0  0  0
 11  4  1  0  0  0  0
 12 16  1  0  0  0  0
 13 18  1  6  0  0  0
 13  8  1  0  0  0  0
 14  1  2  0  0  0  0
 15 20  2  0  0  0  0
 15  4  1  0  0  0  0
 16 17  1  0  0  0  0
 17  6  2  0  0  0  0
 19 10  1  0  0  0  0
 19  3  2  0  0  0  0
 20 19  1  0  0  0  0
 23 22  1  1  0  0  0
 23 21  1  0  0  0  0
 24 27  1  6  0  0  0
 24 31  1  0  0  0  0
 25 28  1  0  0  0  0
 25 30  1  0  0  0  0
 28 24  1  0  0  0  0
 29 26  2  1  0  0  0
 30 23  1  6  0  0  0
 30 29  1  0  0  0  0
 31 29  1  0  0  0  0
M  END
>  <MODEL>
5

>  <REMARK>
 VINA RESULT:      -7.8      3.072      6.875
  Name = 
  3 active torsions:
  status: ('A' for Active; 'I' for Inactive)
    1  A    between atoms: C_5  and  O_16
    2  A    between atoms: C_5  and  C_30
    3  A    between atoms: C_10  and  O_16
                            x       y       z     vdW  Elec       q    Type
                         _______ _______ _______ _____ _____    ______ ____

>  <TORSDO>
F 3

$$$$
=
 OpenBabel11112416483D

 31 35  0  0  1  0  0  0  0  0999 V2000
  186.2520  178.2800  147.4550 C   0  0  0  0  0  0  0  0  0  0  0  0
  188.1740  175.6550  145.4860 C   0  0  2  0  0  3  0  0  0  0  0  0
  188.0410  176.0400  144.0160 C   0  0  0  0  0  0  0  0  0  0  0  0
  186.8230  177.2030  142.2560 C   0  0  0  0  0  0  0  0  0  0  0  0
  187.8810  176.7970  146.4310 C   0  0  0  0  0  0  0  0  0  0  0  0
  187.2800  178.9760  148.0940 C   0  0  0  0  0  3  0  0  0  0  0  0
  187.0100  176.9010  143.6060 C   0  0  0  0  0  3  0  0  0  0  0  0
  190.6400  176.0350  145.9210 C   0  0  2  0  0  3  0  0  0  0  0  0
  184.9320  178.6690  147.6390 O   0  0  0  0  0  1  0  0  0  0  0  0
  189.9830  174.5170  143.3820 C   0  0  0  0  0  2  0  0  0  0  0  0
  185.5420  178.2930  141.7740 Cl  0  0  0  0  0  0  0  0  0  0  0  0
  190.3410  177.0230  147.0480 C   0  0  0  0  0  2  0  0  0  0  0  0
  189.5210  174.9840  145.8140 C   0  0  2  0  0  3  0  0  0  0  0  0
  186.5510  177.1940  146.6300 C   0  0  0  0  0  3  0  0  0  0  0  0
  187.6520  176.6290  141.2930 C   0  0  0  0  0  3  0  0  0  0  0  0
  188.9180  177.4960  147.0850 C   0  0  0  0  0  0  0  0  0  0  0  0
  188.6070  178.5780  147.9170 C   0  0  0  0  0  3  0  0  0  0  0  0
  189.8220  173.9080  144.7720 C   0  0  0  0  0  2  0  0  0  0  0  0
  188.8530  175.4340  143.0280 C   0  0  0  0  0  0  0  0  0  0  0  0
  188.6640  175.7500  141.6780 C   0  0  0  0  0  3  0  0  0  0  0  0
  191.8820  175.4340  146.1840 O   0  0  0  0  0  0  0  0  0  0  0  0
  192.4840  177.1660  144.6380 C   0  0  0  0  0  1  0  0  0  0  0  0
  192.7120  175.7230  145.0900 C   0  0  1  0  0  3  0  0  0  0  0  0
  195.7180  174.7770  142.8860 C   0  0  1  0  0  3  0  0  0  0  0  0
  195.0820  176.4880  144.6340 C   0  0  0  0  0  2  0  0  0  0  0  0
  193.7590  172.9140  145.7630 O   0  0  0  0  0  0  0  0  0  0  0  0
  195.8220  174.5510  141.3930 C   0  0  0  0  0  1  0  0  0  0  0  0
  195.0570  176.1290  143.1450 C   0  0  0  0  0  2  0  0  0  0  0  0
  194.8520  173.8640  145.2930 S   0  0  2  0  0  0  0  0  0  0  0  0
  194.1970  175.5530  145.4650 C   0  0  2  0  0  3  0  0  0  0  0  0
  194.9130  173.6440  143.5070 C   0  0  0  0  0  2  0  0  0  0  0  0
  1  9  1  0  0  0  0
  1  6  1  0  0  0  0
  2  3  1  6  0  0  0
  2 13  1  0  0  0  0
  2  5  1  0  0  0  0
  4  7  2  0  0  0  0
  5 14  1  0  0  0  0
  5 16  2  0  0  0  0
  7  3  1  0  0  0  0
  8 21  1  1  0  0  0
  8 12  1  0  0  0  0
 10 18  1  0  0  0  0
 11  4  1  0  0  0  0
 12 16  1  0  0  0  0
 13 18  1  6  0  0  0
 13  8  1  0  0  0  0
 14  1  2  0  0  0  0
 15 20  2  0  0  0  0
 15  4  1  0  0  0  0
 16 17  1  0  0  0  0
 17  6  2  0  0  0  0
 19 10  1  0  0  0  0
 19  3  2  0  0  0  0
 20 19  1  0  0  0  0
 23 22  1  1  0  0  0
 23 21  1  0  0  0  0
 24 27  1  6  0  0  0
 24 28  1  0  0  0  0
 24 31  1  0  0  0  0
 25 30  1  0  0  0  0
 28 25  1  0  0  0  0
 29 30  1  0  0  0  0
 29 26  2  1  0  0  0
 30 23  1  6  0  0  0
 31 29  1  0  0  0  0
M  END
>  <MODEL>
6

>  <REMARK>
 VINA RESULT:      -7.5      3.134      7.047
  Name = 
  3 active torsions:
  status: ('A' for Active; 'I' for Inactive)
    1  A    between atoms: C_5  and  O_16
    2  A    between atoms: C_5  and  C_30
    3  A    between atoms: C_10  and  O_16
                            x       y       z     vdW  Elec       q    Type
                         _______ _______ _______ _____ _____    ______ ____

>  <TORSDO>
F 3

$$$$
=
 OpenBabel11112416483D

 31 35  0  0  1  0  0  0  0  0999 V2000
  191.8620  171.3250  143.3010 C   0  0  0  0  0  0  0  0  0  0  0  0
  192.1440  174.0410  145.9480 C   0  0  2  0  0  3  0  0  0  0  0  0
  193.1820  175.0330  145.4350 C   0  0  0  0  0  0  0  0  0  0  0  0
  195.1020  175.5090  144.0140 C   0  0  0  0  0  0  0  0  0  0  0  0
  191.5680  173.1640  144.8610 C   0  0  0  0  0  0  0  0  0  0  0  0
  190.5930  171.5660  142.7710 C   0  0  0  0  0  3  0  0  0  0  0  0
  194.0940  174.6440  144.4400 C   0  0  0  0  0  3  0  0  0  0  0  0
  190.0110  175.4050  145.8660 C   0  0  2  0  0  3  0  0  0  0  0  0
  192.6430  170.2980  142.7910 O   0  0  0  0  0  1  0  0  0  0  0  0
  192.4030  176.7980  147.0990 C   0  0  0  0  0  2  0  0  0  0  0  0
  196.2140  175.0050  142.7590 Cl  0  0  0  0  0  0  0  0  0  0  0  0
  189.3360  174.3890  144.9450 C   0  0  0  0  0  2  0  0  0  0  0  0
  191.0330  174.7080  146.7820 C   0  0  2  0  0  3  0  0  0  0  0  0
  192.3450  172.1190  144.3430 C   0  0  0  0  0  3  0  0  0  0  0  0
  195.2280  176.7720  144.5920 C   0  0  0  0  0  3  0  0  0  0  0  0
  190.2820  173.4000  144.3290 C   0  0  0  0  0  0  0  0  0  0  0  0
  189.8020  172.5930  143.2910 C   0  0  0  0  0  3  0  0  0  0  0  0
  191.6610  175.6620  147.7960 C   0  0  0  0  0  2  0  0  0  0  0  0
  193.3420  176.3010  146.0430 C   0  0  0  0  0  0  0  0  0  0  0  0
  194.3490  177.1660  145.6020 C   0  0  0  0  0  3  0  0  0  0  0  0
  189.0120  176.0490  146.6150 O   0  0  0  0  0  0  0  0  0  0  0  0
  189.3890  177.3340  144.6250 C   0  0  0  0  0  1  0  0  0  0  0  0
  188.4330  177.0120  145.7730 C   0  0  1  0  0  3  0  0  0  0  0  0
  185.4060  178.9780  144.4460 C   0  0  1  0  0  3  0  0  0  0  0  0
  186.8890  177.0490  143.7670 C   0  0  0  0  0  2  0  0  0  0  0  0
  186.0000  176.7150  147.6260 O   0  0  0  0  0  0  0  0  0  0  0  0
  185.1910  180.4650  144.2620 C   0  0  0  0  0  1  0  0  0  0  0  0
  186.7080  178.5690  143.7620 C   0  0  0  0  0  2  0  0  0  0  0  0
  185.6210  176.8830  146.1620 S   0  0  2  0  0  0  0  0  0  0  0  0
  187.1050  176.5010  145.1810 C   0  0  2  0  0  3  0  0  0  0  0  0
  185.4440  178.6600  145.9350 C   0  0  0  0  0  2  0  0  0  0  0  0
  1 14  1  0  0  0  0
  2  5  1  6  0  0  0
  2 13  1  0  0  0  0
  3  2  1  0  0  0  0
  3 19  1  0  0  0  0
  4  7  1  0  0  0  0
  4 15  2  0  0  0  0
  6 17  1  0  0  0  0
  6  1  2  0  0  0  0
  7  3  2  0  0  0  0
  8 21  1  1  0  0  0
  8 13  1  0  0  0  0
  9  1  1  0  0  0  0
 10 18  1  0  0  0  0
 11  4  1  0  0  0  0
 12  8  1  0  0  0  0
 13 18  1  1  0  0  0
 14  5  2  0  0  0  0
 15 20  1  0  0  0  0
 16  5  1  0  0  0  0
 16 12  1  0  0  0  0
 17 16  2  0  0  0  0
 19 10  1  0  0  0  0
 20 19  2  0  0  0  0
 23 22  1  6  0  0  0
 23 21  1  0  0  0  0
 24 27  1  1  0  0  0
 24 31  1  0  0  0  0
 25 30  1  0  0  0  0
 28 25  1  0  0  0  0
 28 24  1  0  0  0  0
 29 26  2  1  0  0  0
 30 23  1  1  0  0  0
 30 29  1  0  0  0  0
 31 29  1  0  0  0  0
M  END
>  <MODEL>
7

>  <REMARK>
 VINA RESULT:      -7.4      2.483      4.356
  Name = 
  3 active torsions:
  status: ('A' for Active; 'I' for Inactive)
    1  A    between atoms: C_5  and  O_16
    2  A    between atoms: C_5  and  C_30
    3  A    between atoms: C_10  and  O_16
                            x       y       z     vdW  Elec       q    Type
                         _______ _______ _______ _____ _____    ______ ____

>  <TORSDO>
F 3

$$$$
=
 OpenBabel11112416483D

 31 35  0  0  1  0  0  0  0  0999 V2000
  191.7730  171.2090  143.4270 C   0  0  0  0  0  0  0  0  0  0  0  0
  190.6690  174.0100  145.7500 C   0  0  2  0  0  3  0  0  0  0  0  0
  191.8990  174.8800  145.9860 C   0  0  0  0  0  0  0  0  0  0  0  0
  194.3230  175.1170  146.0230 C   0  0  0  0  0  0  0  0  0  0  0  0
  190.7810  173.1380  144.5220 C   0  0  0  0  0  0  0  0  0  0  0  0
  191.1130  171.5370  142.2420 C   0  0  0  0  0  3  0  0  0  0  0  0
  193.1820  174.3650  145.7390 C   0  0  0  0  0  3  0  0  0  0  0  0
  189.1650  175.5530  144.4180 C   0  0  2  0  0  3  0  0  0  0  0  0
  192.5970  170.0930  143.4770 O   0  0  0  0  0  1  0  0  0  0  0  0
  190.4530  176.7840  146.8690 C   0  0  0  0  0  2  0  0  0  0  0  0
  195.9090  174.4580  145.6880 Cl  0  0  0  0  0  0  0  0  0  0  0  0
  189.0860  174.5590  143.2590 C   0  0  0  0  0  2  0  0  0  0  0  0
  189.3530  174.8110  145.7530 C   0  0  2  0  0  3  0  0  0  0  0  0
  191.6050  172.0050  144.5620 C   0  0  0  0  0  3  0  0  0  0  0  0
  194.1980  176.3890  146.5810 C   0  0  0  0  0  3  0  0  0  0  0  0
  190.1080  173.4620  143.3240 C   0  0  0  0  0  0  0  0  0  0  0  0
  190.2750  172.6530  142.1950 C   0  0  0  0  0  3  0  0  0  0  0  0
  189.3330  175.7520  146.9570 C   0  0  0  0  0  2  0  0  0  0  0  0
  191.7840  176.1560  146.5870 C   0  0  0  0  0  0  0  0  0  0  0  0
  192.9330  176.9070  146.8600 C   0  0  0  0  0  3  0  0  0  0  0  0
  187.9870  176.3170  144.4200 O   0  0  0  0  0  0  0  0  0  0  0  0
  189.6390  177.5080  143.1520 C   0  0  0  0  0  1  0  0  0  0  0  0
  188.3300  177.5900  143.9360 C   0  0  1  0  0  3  0  0  0  0  0  0
  184.6940  178.5640  144.7250 C   0  0  1  0  0  3  0  0  0  0  0  0
  186.7100  179.4900  143.5140 C   0  0  0  0  0  2  0  0  0  0  0  0
  186.3390  175.6240  142.6670 O   0  0  0  0  0  0  0  0  0  0  0  0
  183.9420  178.6120  146.0370 C   0  0  0  0  0  1  0  0  0  0  0  0
  185.9920  179.3580  144.8600 C   0  0  0  0  0  2  0  0  0  0  0  0
  185.7990  177.0440  142.7640 S   0  0  2  0  0  0  0  0  0  0  0  0
  187.2310  178.1410  143.0070 C   0  0  2  0  0  3  0  0  0  0  0  0
  184.9730  177.1130  144.3620 C   0  0  0  0  0  2  0  0  0  0  0  0
  1  9  1  0  0  0  0
  1 14  1  0  0  0  0
  2  5  1  6  0  0  0
  2 13  1  0  0  0  0
  2  3  1  0  0  0  0
  3 19  1  0  0  0  0
  4 15  2  0  0  0  0
  5 14  2  0  0  0  0
  6  1  2  0  0  0  0
  7  3  2  0  0  0  0
  7  4  1  0  0  0  0
  8 21  1  1  0  0  0
  8 13  1  0  0  0  0
 10 18  1  0  0  0  0
 11  4  1  0  0  0  0
 12 16  1  0  0  0  0
 12  8  1  0  0  0  0
 13 18  1  1  0  0  0
 15 20  1  0  0  0  0
 16  5  1  0  0  0  0
 17  6  1  0  0  0  0
 17 16  2  0  0  0  0
 19 20  2  0  0  0  0
 19 10  1  0  0  0  0
 23 22  1  6  0  0  0
 23 21  1  0  0  0  0
 24 28  1  0  0  0  0
 24 27  1  1  0  0  0
 25 28  1  0  0  0  0
 29 26  2  1  0  0  0
 29 30  1  0  0  0  0
 29 31  1  0  0  0  0
 30 25  1  0  0  0  0
 30 23  1  1  0  0  0
 31 24  1  0  0  0  0
M  END
>  <MODEL>
8

>  <REMARK>
 VINA RESULT:      -7.3      2.766      4.829
  Name = 
  3 active torsions:
  status: ('A' for Active; 'I' for Inactive)
    1  A    between atoms: C_5  and  O_16
    2  A    between atoms: C_5  and  C_30
    3  A    between atoms: C_10  and  O_16
                            x       y       z     vdW  Elec       q    Type
                         _______ _______ _______ _____ _____    ______ ____

>  <TORSDO>
F 3

$$$$
=
 OpenBabel11112416483D

 31 35  0  0  1  0  0  0  0  0999 V2000
  187.9240  177.4100  141.5570 C   0  0  0  0  0  0  0  0  0  0  0  0
  188.9500  173.9820  142.8440 C   0  0  2  0  0  3  0  0  0  0  0  0
  189.4010  173.1840  141.6260 C   0  0  0  0  0  0  0  0  0  0  0  0
  189.3410  172.8240  139.2180 C   0  0  0  0  0  0  0  0  0  0  0  0
  188.9450  175.4750  142.6130 C   0  0  0  0  0  0  0  0  0  0  0  0
  188.9390  178.2260  142.0600 C   0  0  0  0  0  3  0  0  0  0  0  0
  189.0060  173.5840  140.3390 C   0  0  0  0  0  3  0  0  0  0  0  0
  191.1140  174.2710  144.1300 C   0  0  2  0  0  3  0  0  0  0  0  0
  186.9140  177.9590  140.7790 O   0  0  0  0  0  1  0  0  0  0  0  0
  190.5680  171.4710  143.1080 C   0  0  0  0  0  2  0  0  0  0  0  0
  188.8510  173.3540  137.6240 Cl  0  0  0  0  0  0  0  0  0  0  0  0
  190.9880  175.7940  144.1000 C   0  0  0  0  0  2  0  0  0  0  0  0
  189.7220  173.6140  144.1260 C   0  0  2  0  0  3  0  0  0  0  0  0
  187.9260  176.0410  141.8340 C   0  0  0  0  0  3  0  0  0  0  0  0
  190.0600  171.6380  139.3690 C   0  0  0  0  0  3  0  0  0  0  0  0
  189.9650  176.3040  143.1270 C   0  0  0  0  0  0  0  0  0  0  0  0
  189.9490  177.6750  142.8510 C   0  0  0  0  0  3  0  0  0  0  0  0
  189.7890  172.0940  144.2620 C   0  0  0  0  0  2  0  0  0  0  0  0
  190.0970  171.9600  141.7720 C   0  0  0  0  0  0  0  0  0  0  0  0
  190.4370  171.2100  140.6420 C   0  0  0  0  0  3  0  0  0  0  0  0
  191.8430  173.9140  145.2760 O   0  0  0  0  0  0  0  0  0  0  0  0
  191.4110  175.3770  147.1270 C   0  0  0  0  0  1  0  0  0  0  0  0
  192.2560  175.1120  145.8820 C   0  0  1  0  0  3  0  0  0  0  0  0
  195.4340  175.7710  143.8180 C   0  0  1  0  0  3  0  0  0  0  0  0
  194.4420  176.3770  146.0620 C   0  0  0  0  0  2  0  0  0  0  0  0
  193.8140  172.5160  145.3570 O   0  0  0  0  0  0  0  0  0  0  0  0
  195.6100  176.2650  142.3980 C   0  0  0  0  0  1  0  0  0  0  0  0
  194.5170  176.7310  144.5730 C   0  0  0  0  0  2  0  0  0  0  0  0
  194.7110  173.7400  145.4710 S   0  0  2  0  0  0  0  0  0  0  0  0
  193.7380  175.0360  146.2980 C   0  0  2  0  0  3  0  0  0  0  0  0
  194.8510  174.3650  143.7880 C   0  0  0  0  0  2  0  0  0  0  0  0
  1 14  2  0  0  0  0
  1  6  1  0  0  0  0
  2  3  1  6  0  0  0
  2 13  1  0  0  0  0
  3 19  1  0  0  0  0
  4 15  2  0  0  0  0
  4  7  1  0  0  0  0
  5  2  1  0  0  0  0
  5 16  2  0  0  0  0
  6 17  2  0  0  0  0
  7  3  2  0  0  0  0
  8 21  1  1  0  0  0
  9  1  1  0  0  0  0
 10 18  1  0  0  0  0
 11  4  1  0  0  0  0
 12  8  1  0  0  0  0
 13  8  1  0  0  0  0
 13 18  1  6  0  0  0
 14  5  1  0  0  0  0
 15 20  1  0  0  0  0
 16 12  1  0  0  0  0
 17 16  1  0  0  0  0
 19 10  1  0  0  0  0
 20 19  2  0  0  0  0
 21 23  1  0  0  0  0
 23 22  1  1  0  0  0
 24 27  1  6  0  0  0
 24 28  1  0  0  0  0
 25 30  1  0  0  0  0
 28 25  1  0  0  0  0
 29 26  2  6  0  0  0
 29 30  1  0  0  0  0
 30 23  1  6  0  0  0
 31 24  1  0  0  0  0
 31 29  1  0  0  0  0
M  END
>  <MODEL>
9

>  <REMARK>
 VINA RESULT:      -7.2      3.726      6.575
  Name = 
  3 active torsions:
  status: ('A' for Active; 'I' for Inactive)
    1  A    between atoms: C_5  and  O_16
    2  A    between atoms: C_5  and  C_30
    3  A    between atoms: C_10  and  O_16
                            x       y       z     vdW  Elec       q    Type
                         _______ _______ _______ _____ _____    ______ ____

>  <TORSDO>
F 3

$$$$
