=
 OpenBabel11112417123D

 37 43  0  0  1  0  0  0  0  0999 V2000
  193.4830  174.7120  143.9060 C   0  0  0  0  0  2  0  0  0  0  0  0
  192.2610  170.0090  142.2930 C   0  0  1  0  0  0  0  0  0  0  0  0
  190.1040  173.6420  142.7010 N   0  0  1  0  0  0  0  0  0  0  0  0
  194.9630  175.0390  144.1220 C   0  0  2  0  0  3  0  0  0  0  0  0
  190.7170  175.9200  145.5790 O   0  0  0  0  0  0  0  0  0  0  0  0
  190.3770  171.4990  141.4160 C   0  0  1  0  0  3  0  0  0  0  0  0
  190.3440  174.0380  144.0980 C   0  0  2  0  0  3  0  0  0  0  0  0
  194.3990  176.4090  146.2550 C   0  0  2  0  0  3  0  0  0  0  0  0
  190.4670  172.2440  142.7520 C   0  0  1  0  0  3  0  0  0  0  0  0
  190.5380  175.5670  144.2350 C   0  0  1  0  0  3  0  0  0  0  0  0
  189.8600  172.4240  140.3110 C   0  0  0  0  0  2  0  0  0  0  0  0
  195.3400  175.4090  145.5650 C   0  0  0  0  0  2  0  0  0  0  0  0
  191.8030  172.2380  143.3890 C   0  0  2  0  0  3  0  0  0  0  0  0
  193.7000  169.6430  141.9920 C   0  0  0  0  0  1  0  0  0  0  0  0
  188.0600  175.0320  142.4240 C   0  0  0  0  0  2  0  0  0  0  0  0
  188.6170  173.2130  140.7860 C   0  0  0  0  0  2  0  0  0  0  0  0
  192.2280  170.7990  143.6300 C   0  0  0  0  0  2  0  0  0  0  0  0
  192.9490  175.9150  146.4780 C   0  0  1  0  0  3  0  0  0  0  0  0
  191.9150  176.6370  145.6080 C   0  0  0  0  0  2  0  0  0  0  0  0
  188.7060  173.6650  142.2630 C   0  0  1  0  0  3  0  0  0  0  0  0
  191.5510  173.1400  144.5790 C   0  0  1  0  0  3  0  0  0  0  0  0
  191.6950  170.7880  141.0750 C   0  0  0  0  0  2  0  0  0  0  0  0
  189.4040  176.4280  143.6300 C   0  0  1  0  0  3  0  0  0  0  0  0
  191.5300  168.8320  142.4560 O   0  0  0  0  0  1  0  0  0  0  0  0
  192.8160  174.3830  146.4080 C   0  0  0  0  0  2  0  0  0  0  0  0
  194.4560  177.6630  145.6410 O   0  0  0  0  0  1  0  0  0  0  0  0
  192.8800  173.7980  144.9870 C   0  0  2  0  0  3  0  0  0  0  0  0
  189.0060  176.0650  142.3220 O   0  0  0  0  0  0  0  0  0  0  0  0
  188.1040  176.1880  145.7660 C   0  0  0  0  0  3  0  0  0  0  0  0
  188.2900  176.8640  144.5550 C   0  0  0  0  0  0  0  0  0  0  0  0
  187.4600  177.9470  144.2310 C   0  0  0  0  0  3  0  0  0  0  0  0
  185.4100  179.6910  144.6940 Cl  0  0  0  0  0  0  0  0  0  0  0  0
  186.2600  177.6600  146.3130 C   0  0  0  0  0  3  0  0  0  0  0  0
  186.4460  178.3430  145.1070 C   0  0  0  0  0  0  0  0  0  0  0  0
  187.0890  176.5840  146.6430 C   0  0  0  0  0  3  0  0  0  0  0  0
  196.7440  176.0770  143.3190 C   0  0  0  0  0  1  0  0  0  0  0  0
  195.3500  176.0580  143.2490 O   0  0  0  0  0  0  0  0  0  0  0  0
  1  4  1  0  0  0  0
  1 27  1  0  0  0  0
  2 14  1  6  0  0  0
  2 24  1  0  0  0  0
  2 17  1  0  0  0  0
  3  9  1  0  0  0  0
  3  7  1  0  0  0  0
  4 12  1  0  0  0  0
  5 19  1  0  0  0  0
  6  9  1  0  0  0  0
  7 10  1  0  0  0  0
  7 21  1  0  0  0  0
  8 18  1  0  0  0  0
  9 13  1  0  0  0  0
 10  5  1  0  0  0  0
 11 16  1  0  0  0  0
 11  6  1  0  0  0  0
 12  8  1  0  0  0  0
 13 17  1  0  0  0  0
 13 21  1  0  0  0  0
 16 20  1  0  0  0  0
 19 18  1  0  0  0  0
 20 15  1  0  0  0  0
 20  3  1  0  0  0  0
 21 27  1  0  0  0  0
 22  6  1  0  0  0  0
 22  2  1  0  0  0  0
 23 10  1  0  0  0  0
 23 30  1  0  0  0  0
 25 18  1  0  0  0  0
 26  8  1  0  0  0  0
 27 25  1  0  0  0  0
 28 15  1  0  0  0  0
 28 23  1  0  0  0  0
 29 35  1  0  0  0  0
 30 29  2  0  0  0  0
 31 30  1  0  0  0  0
 31 34  2  0  0  0  0
 32 34  1  0  0  0  0
 33 35  2  0  0  0  0
 34 33  1  0  0  0  0
 37 36  1  0  0  0  0
 37  4  1  0  0  0  0
M  END
>  <MODEL>
1

>  <REMARK>
 VINA RESULT:      -9.4      0.000      0.000
  Name = 
  2 active torsions:
  status: ('A' for Active; 'I' for Inactive)
    1  A    between atoms: C_4  and  O_37
    2  A    between atoms: C_23  and  C_30
                            x       y       z     vdW  Elec       q    Type
                         _______ _______ _______ _____ _____    ______ ____

>  <TORSDO>
F 2

$$$$
=
 OpenBabel11112417123D

 37 43  0  0  1  0  0  0  0  0999 V2000
  190.2410  173.7450  143.0540 C   0  0  0  0  0  2  0  0  0  0  0  0
  194.5750  176.0870  144.4480 C   0  0  1  0  0  0  0  0  0  0  0  0
  190.5570  176.2590  145.8080 N   0  0  1  0  0  0  0  0  0  0  0  0
  190.3390  172.5650  142.0830 C   0  0  2  0  0  3  0  0  0  0  0  0
  187.7150  176.0690  143.4130 O   0  0  0  0  0  0  0  0  0  0  0  0
  192.9880  176.4420  146.4220 C   0  0  1  0  0  3  0  0  0  0  0  0
  189.7850  176.5350  144.5860 C   0  0  2  0  0  3  0  0  0  0  0  0
  188.1950  173.3460  140.8420 C   0  0  2  0  0  3  0  0  0  0  0  0
  191.8830  176.6450  145.3800 C   0  0  1  0  0  3  0  0  0  0  0  0
  188.4500  175.7520  144.5630 C   0  0  1  0  0  3  0  0  0  0  0  0
  192.4070  175.9090  147.7350 C   0  0  0  0  0  2  0  0  0  0  0  0
  189.6160  172.7700  140.7420 C   0  0  0  0  0  2  0  0  0  0  0  0
  192.0790  175.9200  144.1050 C   0  0  2  0  0  3  0  0  0  0  0  0
  195.4540  175.0190  143.8320 C   0  0  0  0  0  1  0  0  0  0  0  0
  188.7940  177.0570  147.3710 C   0  0  0  0  0  2  0  0  0  0  0  0
  191.1550  176.7130  148.1530 C   0  0  0  0  0  2  0  0  0  0  0  0
  193.3920  176.3630  143.4820 C   0  0  0  0  0  2  0  0  0  0  0  0
  188.0960  174.7800  141.4180 C   0  0  1  0  0  3  0  0  0  0  0  0
  187.4490  174.8410  142.8050 C   0  0  0  0  0  2  0  0  0  0  0  0
  190.2570  177.1150  146.9590 C   0  0  1  0  0  3  0  0  0  0  0  0
  190.7810  176.2450  143.3960 C   0  0  1  0  0  3  0  0  0  0  0  0
  194.1470  175.6060  145.8620 C   0  0  0  0  0  2  0  0  0  0  0  0
  187.5550  175.9460  145.8100 C   0  0  1  0  0  3  0  0  0  0  0  0
  195.3240  177.2570  144.5780 O   0  0  0  0  0  1  0  0  0  0  0  0
  189.4280  175.5490  141.3510 C   0  0  0  0  0  2  0  0  0  0  0  0
  187.3280  172.4490  141.4720 O   0  0  0  0  0  1  0  0  0  0  0  0
  190.4710  175.1170  142.3970 C   0  0  2  0  0  3  0  0  0  0  0  0
  188.2170  175.8170  147.0520 O   0  0  0  0  0  0  0  0  0  0  0  0
  185.3570  176.9080  146.5540 C   0  0  0  0  0  3  0  0  0  0  0  0
  186.4920  177.0200  145.7430 C   0  0  0  0  0  0  0  0  0  0  0  0
  186.6360  178.1330  144.9020 C   0  0  0  0  0  3  0  0  0  0  0  0
  185.8320  180.5030  143.8110 Cl  0  0  0  0  0  0  0  0  0  0  0  0
  184.5140  179.0010  145.6740 C   0  0  0  0  0  3  0  0  0  0  0  0
  185.6480  179.1200  144.8660 C   0  0  0  0  0  0  0  0  0  0  0  0
  184.3680  177.8970  146.5190 C   0  0  0  0  0  3  0  0  0  0  0  0
  189.5870  171.7930  144.0150 C   0  0  0  0  0  1  0  0  0  0  0  0
  189.8750  171.4050  142.7060 O   0  0  0  0  0  0  0  0  0  0  0  0
  2 14  1  6  0  0  0
  2 24  1  0  0  0  0
  2 22  1  0  0  0  0
  3 20  1  0  0  0  0
  4 37  1  0  0  0  0
  4  1  1  0  0  0  0
  5 10  1  0  0  0  0
  6 11  1  0  0  0  0
  7  3  1  0  0  0  0
  8 18  1  0  0  0  0
  8 26  1  0  0  0  0
  9  3  1  0  0  0  0
  9  6  1  0  0  0  0
 10  7  1  0  0  0  0
 10 23  1  0  0  0  0
 11 16  1  0  0  0  0
 12  8  1  0  0  0  0
 12  4  1  0  0  0  0
 13  9  1  0  0  0  0
 17 13  1  0  0  0  0
 17  2  1  0  0  0  0
 18 19  1  0  0  0  0
 19  5  1  0  0  0  0
 20 15  1  0  0  0  0
 20 16  1  0  0  0  0
 21 13  1  0  0  0  0
 21  7  1  0  0  0  0
 22  6  1  0  0  0  0
 23 28  1  0  0  0  0
 25 18  1  0  0  0  0
 25 27  1  0  0  0  0
 27  1  1  0  0  0  0
 27 21  1  0  0  0  0
 28 15  1  0  0  0  0
 30 23  1  0  0  0  0
 30 29  2  0  0  0  0
 31 30  1  0  0  0  0
 32 34  1  0  0  0  0
 33 35  2  0  0  0  0
 34 31  2  0  0  0  0
 34 33  1  0  0  0  0
 35 29  1  0  0  0  0
 37 36  1  0  0  0  0
M  END
>  <MODEL>
2

>  <REMARK>
 VINA RESULT:      -9.2      1.869      5.742
  Name = 
  2 active torsions:
  status: ('A' for Active; 'I' for Inactive)
    1  A    between atoms: C_4  and  O_37
    2  A    between atoms: C_23  and  C_30
                            x       y       z     vdW  Elec       q    Type
                         _______ _______ _______ _____ _____    ______ ____

>  <TORSDO>
F 2

$$$$
=
 OpenBabel11112417123D

 37 43  0  0  1  0  0  0  0  0999 V2000
  192.5640  172.6380  142.3550 C   0  0  0  0  0  2  0  0  0  0  0  0
  196.7930  175.4300  143.0910 C   0  0  1  0  0  0  0  0  0  0  0  0
  192.8210  175.6400  144.5760 N   0  0  1  0  0  0  0  0  0  0  0  0
  192.7010  171.3040  141.6170 C   0  0  2  0  0  3  0  0  0  0  0  0
  189.9150  174.8500  142.3900 O   0  0  0  0  0  0  0  0  0  0  0  0
  195.2560  176.0650  145.0350 C   0  0  1  0  0  3  0  0  0  0  0  0
  191.9920  175.6390  143.3600 C   0  0  2  0  0  3  0  0  0  0  0  0
  190.4710  171.7210  140.3520 C   0  0  2  0  0  3  0  0  0  0  0  0
  194.1050  176.0080  144.0240 C   0  0  1  0  0  3  0  0  0  0  0  0
  190.7070  174.7950  143.5440 C   0  0  1  0  0  3  0  0  0  0  0  0
  194.7540  175.7590  146.4480 C   0  0  0  0  0  2  0  0  0  0  0  0
  191.9200  171.2130  140.2970 C   0  0  0  0  0  2  0  0  0  0  0  0
  194.3010  175.0670  142.8990 C   0  0  2  0  0  3  0  0  0  0  0  0
  197.7130  174.3130  142.6460 C   0  0  0  0  0  1  0  0  0  0  0  0
  191.0670  176.6230  146.0410 C   0  0  0  0  0  2  0  0  0  0  0  0
  193.4700  176.5590  146.7660 C   0  0  0  0  0  2  0  0  0  0  0  0
  195.5620  175.4540  142.1450 C   0  0  0  0  0  2  0  0  0  0  0  0
  190.3050  173.2300  140.6540 C   0  0  1  0  0  3  0  0  0  0  0  0
  189.7030  173.5170  142.0330 C   0  0  0  0  0  2  0  0  0  0  0  0
  192.5090  176.6800  145.5600 C   0  0  1  0  0  3  0  0  0  0  0  0
  192.9620  175.1830  142.2010 C   0  0  1  0  0  3  0  0  0  0  0  0
  196.4440  175.2010  144.5880 C   0  0  0  0  0  2  0  0  0  0  0  0
  189.8450  175.1730  144.7720 C   0  0  1  0  0  3  0  0  0  0  0  0
  197.4730  176.6410  142.9670 O   0  0  0  0  0  1  0  0  0  0  0  0
  191.5850  174.0430  140.3850 C   0  0  0  0  0  2  0  0  0  0  0  0
  189.6830  170.9130  141.1760 O   0  0  0  0  0  1  0  0  0  0  0  0
  192.6870  173.8720  141.4440 C   0  0  2  0  0  3  0  0  0  0  0  0
  190.5560  175.3160  145.9850 O   0  0  0  0  0  0  0  0  0  0  0  0
  188.8070  177.0790  143.5070 C   0  0  0  0  0  3  0  0  0  0  0  0
  188.7170  176.1560  144.5540 C   0  0  0  0  0  0  0  0  0  0  0  0
  187.5760  176.1420  145.3690 C   0  0  0  0  0  3  0  0  0  0  0  0
  185.1200  177.0320  146.1650 Cl  0  0  0  0  0  0  0  0  0  0  0  0
  186.6360  177.9740  144.0980 C   0  0  0  0  0  3  0  0  0  0  0  0
  186.5390  177.0510  145.1420 C   0  0  0  0  0  0  0  0  0  0  0  0
  187.7690  177.9880  143.2790 C   0  0  0  0  0  3  0  0  0  0  0  0
  192.2090  170.8460  143.7260 C   0  0  0  0  0  1  0  0  0  0  0  0
  192.3300  170.2590  142.4660 O   0  0  0  0  0  0  0  0  0  0  0  0
  2 14  1  6  0  0  0
  2 22  1  0  0  0  0
  3 20  1  0  0  0  0
  4  1  1  0  0  0  0
  4 37  1  0  0  0  0
  5 10  1  0  0  0  0
  6 11  1  0  0  0  0
  7 10  1  0  0  0  0
  7  3  1  0  0  0  0
  8 18  1  0  0  0  0
  8 26  1  0  0  0  0
  9  3  1  0  0  0  0
  9  6  1  0  0  0  0
 10 23  1  0  0  0  0
 11 16  1  0  0  0  0
 12  8  1  0  0  0  0
 12  4  1  0  0  0  0
 13  9  1  0  0  0  0
 17 13  1  0  0  0  0
 17  2  1  0  0  0  0
 18 19  1  0  0  0  0
 19  5  1  0  0  0  0
 20 15  1  0  0  0  0
 20 16  1  0  0  0  0
 21 13  1  0  0  0  0
 21  7  1  0  0  0  0
 22  6  1  0  0  0  0
 23 28  1  0  0  0  0
 24  2  1  0  0  0  0
 25 18  1  0  0  0  0
 25 27  1  0  0  0  0
 27 21  1  0  0  0  0
 27  1  1  0  0  0  0
 28 15  1  0  0  0  0
 29 30  1  0  0  0  0
 30 23  1  0  0  0  0
 30 31  2  0  0  0  0
 33 34  2  0  0  0  0
 34 31  1  0  0  0  0
 34 32  1  0  0  0  0
 35 29  2  0  0  0  0
 35 33  1  0  0  0  0
 37 36  1  0  0  0  0
M  END
>  <MODEL>
3

>  <REMARK>
 VINA RESULT:      -8.2      1.703      5.582
  Name = 
  2 active torsions:
  status: ('A' for Active; 'I' for Inactive)
    1  A    between atoms: C_4  and  O_37
    2  A    between atoms: C_23  and  C_30
                            x       y       z     vdW  Elec       q    Type
                         _______ _______ _______ _____ _____    ______ ____

>  <TORSDO>
F 2

$$$$
=
 OpenBabel11112417123D

 37 43  0  0  1  0  0  0  0  0999 V2000
  191.4280  173.2920  141.6960 C   0  0  0  0  0  2  0  0  0  0  0  0
  189.4220  176.5780  145.0710 C   0  0  1  0  0  0  0  0  0  0  0  0
  193.0920  174.4570  144.8390 N   0  0  1  0  0  0  0  0  0  0  0  0
  190.7220  173.1220  140.3480 C   0  0  2  0  0  3  0  0  0  0  0  0
  193.2130  170.9760  143.5290 O   0  0  0  0  0  0  0  0  0  0  0  0
  191.9210  176.5410  145.6150 C   0  0  1  0  0  3  0  0  0  0  0  0
  192.6780  173.0580  144.6500 C   0  0  2  0  0  3  0  0  0  0  0  0
  191.1710  170.5640  140.3810 C   0  0  2  0  0  3  0  0  0  0  0  0
  191.8660  175.0350  145.3410 C   0  0  1  0  0  3  0  0  0  0  0  0
  193.6020  172.3160  143.6540 C   0  0  1  0  0  3  0  0  0  0  0  0
  193.3200  177.0950  145.3340 C   0  0  0  0  0  2  0  0  0  0  0  0
  190.1920  171.7070  140.0690 C   0  0  0  0  0  2  0  0  0  0  0  0
  190.8380  174.6090  144.3660 C   0  0  2  0  0  3  0  0  0  0  0  0
  188.4540  177.1590  144.0620 C   0  0  0  0  0  1  0  0  0  0  0  0
  195.3720  173.9040  145.6680 C   0  0  0  0  0  2  0  0  0  0  0  0
  194.4080  176.2020  145.9740 C   0  0  0  0  0  2  0  0  0  0  0  0
  189.4700  175.0390  144.8700 C   0  0  0  0  0  2  0  0  0  0  0  0
  191.5650  170.4110  141.8700 C   0  0  1  0  0  3  0  0  0  0  0  0
  193.0230  170.7810  142.1600 C   0  0  0  0  0  2  0  0  0  0  0  0
  194.0890  174.6910  145.8880 C   0  0  1  0  0  3  0  0  0  0  0  0
  191.1500  173.1310  144.2560 C   0  0  1  0  0  3  0  0  0  0  0  0
  190.7920  177.2900  144.8920 C   0  0  0  0  0  2  0  0  0  0  0  0
  195.1110  172.3790  143.9900 C   0  0  1  0  0  3  0  0  0  0  0  0
  188.9390  176.8440  146.3520 O   0  0  0  0  0  1  0  0  0  0  0  0
  190.5760  171.1000  142.8290 C   0  0  0  0  0  2  0  0  0  0  0  0
  192.2780  170.6000  139.5280 O   0  0  0  0  0  1  0  0  0  0  0  0
  190.6910  172.6330  142.8750 C   0  0  2  0  0  3  0  0  0  0  0  0
  195.6040  173.6670  144.3030 O   0  0  0  0  0  0  0  0  0  0  0  0
  197.0150  170.8450  144.5640 C   0  0  0  0  0  3  0  0  0  0  0  0
  195.6930  171.2410  144.7970 C   0  0  0  0  0  0  0  0  0  0  0  0
  194.9400  170.5940  145.7870 C   0  0  0  0  0  3  0  0  0  0  0  0
  194.5560  168.7460  147.7610 Cl  0  0  0  0  0  0  0  0  0  0  0  0
  196.8220  169.1580  146.2910 C   0  0  0  0  0  3  0  0  0  0  0  0
  195.5020  169.5530  146.5310 C   0  0  0  0  0  0  0  0  0  0  0  0
  197.5790  169.8040  145.3090 C   0  0  0  0  0  3  0  0  0  0  0  0
  192.7190  173.9950  139.9640 C   0  0  0  0  0  1  0  0  0  0  0  0
  191.5750  173.5250  139.3180 O   0  0  0  0  0  0  0  0  0  0  0  0
  1 27  1  0  0  0  0
  2 14  1  6  0  0  0
  2 24  1  0  0  0  0
  3  9  1  0  0  0  0
  3 20  1  0  0  0  0
  4  1  1  0  0  0  0
  5 10  1  0  0  0  0
  7  3  1  0  0  0  0
  8 18  1  0  0  0  0
  9  6  1  0  0  0  0
 10 23  1  0  0  0  0
 10  7  1  0  0  0  0
 11  6  1  0  0  0  0
 11 16  1  0  0  0  0
 12  4  1  0  0  0  0
 12  8  1  0  0  0  0
 13 17  1  0  0  0  0
 13  9  1  0  0  0  0
 15 20  1  0  0  0  0
 17  2  1  0  0  0  0
 18 19  1  0  0  0  0
 18 25  1  0  0  0  0
 19  5  1  0  0  0  0
 20 16  1  0  0  0  0
 21 13  1  0  0  0  0
 21  7  1  0  0  0  0
 22  2  1  0  0  0  0
 22  6  1  0  0  0  0
 23 28  1  0  0  0  0
 23 30  1  0  0  0  0
 25 27  1  0  0  0  0
 26  8  1  0  0  0  0
 27 21  1  0  0  0  0
 28 15  1  0  0  0  0
 29 30  2  0  0  0  0
 29 35  1  0  0  0  0
 30 31  1  0  0  0  0
 31 34  2  0  0  0  0
 33 34  1  0  0  0  0
 34 32  1  0  0  0  0
 35 33  2  0  0  0  0
 37 36  1  0  0  0  0
 37  4  1  0  0  0  0
M  END
>  <MODEL>
4

>  <REMARK>
 VINA RESULT:      -8.0      3.482      7.924
  Name = 
  2 active torsions:
  status: ('A' for Active; 'I' for Inactive)
    1  A    between atoms: C_4  and  O_37
    2  A    between atoms: C_23  and  C_30
                            x       y       z     vdW  Elec       q    Type
                         _______ _______ _______ _____ _____    ______ ____

>  <TORSDO>
F 2

$$$$
=
 OpenBabel11112417123D

 37 43  0  0  1  0  0  0  0  0999 V2000
  191.3070  175.0500  145.0020 C   0  0  0  0  0  2  0  0  0  0  0  0
  191.1440  170.7830  142.1760 C   0  0  1  0  0  0  0  0  0  0  0  0
  189.1560  174.5290  141.9830 N   0  0  1  0  0  0  0  0  0  0  0  0
  192.4210  175.1830  146.0430 C   0  0  2  0  0  3  0  0  0  0  0  0
  188.0880  176.2920  145.0820 O   0  0  0  0  0  0  0  0  0  0  0  0
  190.0770  172.5760  140.6970 C   0  0  1  0  0  3  0  0  0  0  0  0
  188.5830  174.6920  143.3290 C   0  0  2  0  0  3  0  0  0  0  0  0
  190.7810  176.2840  147.7290 C   0  0  2  0  0  3  0  0  0  0  0  0
  189.4170  173.1070  141.9740 C   0  0  1  0  0  3  0  0  0  0  0  0
  188.6820  176.1560  143.8200 C   0  0  1  0  0  3  0  0  0  0  0  0
  190.2680  173.6990  139.6740 C   0  0  0  0  0  2  0  0  0  0  0  0
  191.9370  175.2990  147.4970 C   0  0  0  0  0  2  0  0  0  0  0  0
  190.1750  172.8680  143.2220 C   0  0  2  0  0  3  0  0  0  0  0  0
  192.5050  170.3140  142.6480 C   0  0  0  0  0  1  0  0  0  0  0  0
  187.6210  176.1530  140.8910 C   0  0  0  0  0  2  0  0  0  0  0  0
  188.9780  174.5390  139.5280 C   0  0  0  0  0  2  0  0  0  0  0  0
  190.3820  171.3720  143.3940 C   0  0  0  0  0  2  0  0  0  0  0  0
  189.4460  175.9200  147.0330 C   0  0  1  0  0  3  0  0  0  0  0  0
  189.0750  176.8650  145.8860 C   0  0  0  0  0  2  0  0  0  0  0  0
  188.2360  174.7620  140.8670 C   0  0  1  0  0  3  0  0  0  0  0  0
  189.3120  173.6110  144.2200 C   0  0  1  0  0  3  0  0  0  0  0  0
  191.3560  171.7850  141.0080 C   0  0  0  0  0  2  0  0  0  0  0  0
  188.0830  177.2100  142.8600 C   0  0  1  0  0  3  0  0  0  0  0  0
  190.4360  169.6790  141.7010 O   0  0  0  0  0  1  0  0  0  0  0  0
  189.3610  174.4370  146.6310 C   0  0  0  0  0  2  0  0  0  0  0  0
  191.1800  177.6000  147.4810 O   0  0  0  0  0  1  0  0  0  0  0  0
  190.1980  174.0590  145.3960 C   0  0  2  0  0  3  0  0  0  0  0  0
  188.4740  177.0840  141.5070 O   0  0  0  0  0  0  0  0  0  0  0  0
  185.8010  177.7970  141.9880 C   0  0  0  0  0  3  0  0  0  0  0  0
  186.6470  177.6260  143.0890 C   0  0  0  0  0  0  0  0  0  0  0  0
  186.1450  177.8180  144.3850 C   0  0  0  0  0  3  0  0  0  0  0  0
  184.1930  178.4310  146.1930 Cl  0  0  0  0  0  0  0  0  0  0  0  0
  183.9720  178.3630  143.4710 C   0  0  0  0  0  3  0  0  0  0  0  0
  184.8110  178.1880  144.5750 C   0  0  0  0  0  0  0  0  0  0  0  0
  184.4660  178.1670  142.1780 C   0  0  0  0  0  3  0  0  0  0  0  0
  194.5410  175.7860  145.8390 C   0  0  0  0  0  1  0  0  0  0  0  0
  193.2370  176.2690  145.7210 O   0  0  0  0  0  0  0  0  0  0  0  0
  1 27  1  0  0  0  0
  1  4  1  0  0  0  0
  2 14  1  1  0  0  0
  2 17  1  0  0  0  0
  3  7  1  0  0  0  0
  4 12  1  0  0  0  0
  5 19  1  0  0  0  0
  6 22  1  0  0  0  0
  6  9  1  0  0  0  0
  7 10  1  0  0  0  0
  7 21  1  0  0  0  0
  9  3  1  0  0  0  0
  9 13  1  0  0  0  0
 10  5  1  0  0  0  0
 11  6  1  0  0  0  0
 12  8  1  0  0  0  0
 13 17  1  0  0  0  0
 13 21  1  0  0  0  0
 15 28  1  0  0  0  0
 16 11  1  0  0  0  0
 16 20  1  0  0  0  0
 18  8  1  0  0  0  0
 19 18  1  0  0  0  0
 20 15  1  0  0  0  0
 20  3  1  0  0  0  0
 21 27  1  0  0  0  0
 22  2  1  0  0  0  0
 23 30  1  0  0  0  0
 23 10  1  0  0  0  0
 24  2  1  0  0  0  0
 25 18  1  0  0  0  0
 26  8  1  0  0  0  0
 27 25  1  0  0  0  0
 28 23  1  0  0  0  0
 29 35  2  0  0  0  0
 29 30  1  0  0  0  0
 30 31  2  0  0  0  0
 31 34  1  0  0  0  0
 33 34  2  0  0  0  0
 34 32  1  0  0  0  0
 35 33  1  0  0  0  0
 37 36  1  0  0  0  0
 37  4  1  0  0  0  0
M  END
>  <MODEL>
5

>  <REMARK>
 VINA RESULT:      -7.8      1.736      2.668
  Name = 
  2 active torsions:
  status: ('A' for Active; 'I' for Inactive)
    1  A    between atoms: C_4  and  O_37
    2  A    between atoms: C_23  and  C_30
                            x       y       z     vdW  Elec       q    Type
                         _______ _______ _______ _____ _____    ______ ____

>  <TORSDO>
F 2

$$$$
=
 OpenBabel11112417123D

 37 43  0  0  1  0  0  0  0  0999 V2000
  193.9830  174.7140  142.1410 C   0  0  0  0  0  2  0  0  0  0  0  0
  192.2010  170.7030  139.5040 C   0  0  1  0  0  0  0  0  0  0  0  0
  190.3750  174.0140  141.4350 N   0  0  1  0  0  0  0  0  0  0  0  0
  195.4910  174.9790  142.1180 C   0  0  2  0  0  3  0  0  0  0  0  0
  191.7000  175.3220  144.6570 O   0  0  0  0  0  0  0  0  0  0  0  0
  190.2560  172.3640  139.5420 C   0  0  1  0  0  3  0  0  0  0  0  0
  190.9240  173.9710  142.7990 C   0  0  2  0  0  3  0  0  0  0  0  0
  195.4630  175.6320  144.6320 C   0  0  2  0  0  3  0  0  0  0  0  0
  190.6650  172.6710  140.9870 C   0  0  1  0  0  3  0  0  0  0  0  0
  191.2240  175.3900  143.3410 C   0  0  1  0  0  3  0  0  0  0  0  0
  189.5670  173.5730  138.9030 C   0  0  0  0  0  2  0  0  0  0  0  0
  196.1820  174.9000  143.4880 C   0  0  0  0  0  2  0  0  0  0  0  0
  192.1030  172.4900  141.2860 C   0  0  2  0  0  3  0  0  0  0  0  0
  193.5210  170.4650  138.8030 C   0  0  0  0  0  1  0  0  0  0  0  0
  188.3950  175.3960  142.0350 C   0  0  0  0  0  2  0  0  0  0  0  0
  188.4970  174.1650  139.8490 C   0  0  0  0  0  2  0  0  0  0  0  0
  192.4920  171.0510  140.9890 C   0  0  0  0  0  2  0  0  0  0  0  0
  194.0680  175.0740  145.0060 C   0  0  1  0  0  3  0  0  0  0  0  0
  192.9140  176.0120  144.6370 C   0  0  0  0  0  2  0  0  0  0  0  0
  188.9190  174.1500  141.3370 C   0  0  1  0  0  3  0  0  0  0  0  0
  192.1550  172.9860  142.7170 C   0  0  1  0  0  3  0  0  0  0  0  0
  191.4320  171.8080  138.7270 C   0  0  0  0  0  2  0  0  0  0  0  0
  190.0350  176.3780  143.2810 C   0  0  1  0  0  3  0  0  0  0  0  0
  191.4580  169.5230  139.4630 O   0  0  0  0  0  1  0  0  0  0  0  0
  193.8420  173.6330  144.5130 C   0  0  0  0  0  2  0  0  0  0  0  0
  195.4570  177.0130  144.4230 O   0  0  0  0  0  1  0  0  0  0  0  0
  193.5740  173.5070  143.0040 C   0  0  2  0  0  3  0  0  0  0  0  0
  189.3520  176.4240  142.0430 O   0  0  0  0  0  0  0  0  0  0  0  0
  188.2370  177.5420  144.5930 C   0  0  0  0  0  3  0  0  0  0  0  0
  189.1670  176.5000  144.5120 C   0  0  0  0  0  0  0  0  0  0  0  0
  189.2620  175.5730  145.5610 C   0  0  0  0  0  3  0  0  0  0  0  0
  188.5660  174.5410  147.9920 Cl  0  0  0  0  0  0  0  0  0  0  0  0
  187.5160  176.7430  146.7620 C   0  0  0  0  0  3  0  0  0  0  0  0
  188.4400  175.6960  146.6840 C   0  0  0  0  0  0  0  0  0  0  0  0
  187.4140  177.6650  145.7160 C   0  0  0  0  0  3  0  0  0  0  0  0
  196.9110  176.0360  140.7900 C   0  0  0  0  0  1  0  0  0  0  0  0
  195.7400  176.2190  141.5270 O   0  0  0  0  0  0  0  0  0  0  0  0
  1 27  1  0  0  0  0
  2 14  1  6  0  0  0
  2 17  1  0  0  0  0
  3  7  1  0  0  0  0
  4  1  1  0  0  0  0
  4 12  1  0  0  0  0
  6  9  1  0  0  0  0
  7 10  1  0  0  0  0
  8 18  1  0  0  0  0
  9 13  1  0  0  0  0
  9  3  1  0  0  0  0
 10  5  1  0  0  0  0
 11  6  1  0  0  0  0
 11 16  1  0  0  0  0
 12  8  1  0  0  0  0
 13 21  1  0  0  0  0
 15 28  1  0  0  0  0
 16 20  1  0  0  0  0
 17 13  1  0  0  0  0
 19  5  1  0  0  0  0
 19 18  1  0  0  0  0
 20  3  1  0  0  0  0
 20 15  1  0  0  0  0
 21  7  1  0  0  0  0
 21 27  1  0  0  0  0
 22  2  1  0  0  0  0
 22  6  1  0  0  0  0
 23 10  1  0  0  0  0
 23 30  1  0  0  0  0
 24  2  1  0  0  0  0
 25 18  1  0  0  0  0
 26  8  1  0  0  0  0
 27 25  1  0  0  0  0
 28 23  1  0  0  0  0
 29 35  1  0  0  0  0
 30 29  2  0  0  0  0
 30 31  1  0  0  0  0
 31 34  2  0  0  0  0
 34 33  1  0  0  0  0
 34 32  1  0  0  0  0
 35 33  2  0  0  0  0
 36 37  1  0  0  0  0
 37  4  1  0  0  0  0
M  END
>  <MODEL>
6

>  <REMARK>
 VINA RESULT:      -7.7      1.880      2.322
  Name = 
  2 active torsions:
  status: ('A' for Active; 'I' for Inactive)
    1  A    between atoms: C_4  and  O_37
    2  A    between atoms: C_23  and  C_30
                            x       y       z     vdW  Elec       q    Type
                         _______ _______ _______ _____ _____    ______ ____

>  <TORSDO>
F 2

$$$$
=
 OpenBabel11112417123D

 37 43  0  0  1  0  0  0  0  0999 V2000
  189.9550  173.8620  140.1800 C   0  0  0  0  0  2  0  0  0  0  0  0
  186.9980  176.9150  143.0350 C   0  0  1  0  0  0  0  0  0  0  0  0
  191.0370  175.6350  143.2940 N   0  0  1  0  0  0  0  0  0  0  0  0
  189.4290  173.4240  138.8110 C   0  0  2  0  0  3  0  0  0  0  0  0
  192.0080  172.1620  142.3730 O   0  0  0  0  0  0  0  0  0  0  0  0
  189.3870  177.4730  143.7590 C   0  0  1  0  0  3  0  0  0  0  0  0
  190.9450  174.1670  143.2250 C   0  0  2  0  0  3  0  0  0  0  0  0
  190.4000  171.0380  139.1470 C   0  0  2  0  0  3  0  0  0  0  0  0
  189.6760  175.9720  143.6420 C   0  0  1  0  0  3  0  0  0  0  0  0
  192.0930  173.5600  142.3830 C   0  0  1  0  0  3  0  0  0  0  0  0
  190.6580  178.2920  143.5220 C   0  0  0  0  0  2  0  0  0  0  0  0
  189.2360  171.9080  138.6470 C   0  0  0  0  0  2  0  0  0  0  0  0
  188.8550  175.2480  142.6460 C   0  0  2  0  0  3  0  0  0  0  0  0
  186.0270  177.1800  141.9030 C   0  0  0  0  0  1  0  0  0  0  0  0
  193.2950  175.6670  144.3390 C   0  0  0  0  0  2  0  0  0  0  0  0
  191.8460  177.7170  144.3290 C   0  0  0  0  0  2  0  0  0  0  0  0
  187.3870  175.4120  143.0030 C   0  0  0  0  0  2  0  0  0  0  0  0
  190.6770  171.1070  140.6690 C   0  0  1  0  0  3  0  0  0  0  0  0
  191.9910  171.8110  141.0220 C   0  0  0  0  0  2  0  0  0  0  0  0
  191.8600  176.1710  144.3810 C   0  0  1  0  0  3  0  0  0  0  0  0
  189.4800  173.8700  142.7170 C   0  0  1  0  0  3  0  0  0  0  0  0
  188.1980  177.8900  142.8810 C   0  0  0  0  0  2  0  0  0  0  0  0
  193.5170  173.9810  142.8170 C   0  0  1  0  0  3  0  0  0  0  0  0
  186.3530  177.1810  144.2430 O   0  0  0  0  0  1  0  0  0  0  0  0
  189.4810  171.6450  141.4750 C   0  0  0  0  0  2  0  0  0  0  0  0
  191.5490  171.2400  138.3780 O   0  0  0  0  0  1  0  0  0  0  0  0
  189.2660  173.1650  141.3670 C   0  0  2  0  0  3  0  0  0  0  0  0
  193.6980  175.3670  143.0270 O   0  0  0  0  0  0  0  0  0  0  0  0
  193.5540  172.5300  144.8680 C   0  0  0  0  0  3  0  0  0  0  0  0
  194.2480  173.0720  143.7810 C   0  0  0  0  0  0  0  0  0  0  0  0
  195.5990  172.7480  143.5880 C   0  0  0  0  0  3  0  0  0  0  0  0
  197.9380  171.4990  144.2410 Cl  0  0  0  0  0  0  0  0  0  0  0  0
  195.5550  171.3610  145.5710 C   0  0  0  0  0  3  0  0  0  0  0  0
  196.2510  171.8960  144.4830 C   0  0  0  0  0  0  0  0  0  0  0  0
  194.2070  171.6760  145.7630 C   0  0  0  0  0  3  0  0  0  0  0  0
  189.4990  173.8740  136.6460 C   0  0  0  0  0  1  0  0  0  0  0  0
  190.2700  173.9110  137.8080 O   0  0  0  0  0  0  0  0  0  0  0  0
  1 27  1  0  0  0  0
  2 14  1  6  0  0  0
  2 24  1  0  0  0  0
  3  9  1  0  0  0  0
  3 20  1  0  0  0  0
  4  1  1  0  0  0  0
  5 10  1  0  0  0  0
  7  3  1  0  0  0  0
  8 18  1  0  0  0  0
  9  6  1  0  0  0  0
 10 23  1  0  0  0  0
 10  7  1  0  0  0  0
 11  6  1  0  0  0  0
 11 16  1  0  0  0  0
 12  4  1  0  0  0  0
 12  8  1  0  0  0  0
 13 21  1  0  0  0  0
 13 17  1  0  0  0  0
 13  9  1  0  0  0  0
 15 20  1  0  0  0  0
 16 20  1  0  0  0  0
 17  2  1  0  0  0  0
 18 19  1  0  0  0  0
 18 25  1  0  0  0  0
 19  5  1  0  0  0  0
 21  7  1  0  0  0  0
 22  2  1  0  0  0  0
 22  6  1  0  0  0  0
 23 28  1  0  0  0  0
 23 30  1  0  0  0  0
 26  8  1  0  0  0  0
 27 25  1  0  0  0  0
 27 21  1  0  0  0  0
 28 15  1  0  0  0  0
 29 35  1  0  0  0  0
 30 29  2  0  0  0  0
 31 30  1  0  0  0  0
 31 34  2  0  0  0  0
 32 34  1  0  0  0  0
 33 35  2  0  0  0  0
 34 33  1  0  0  0  0
 36 37  1  0  0  0  0
 37  4  1  0  0  0  0
M  END
>  <MODEL>
7

>  <REMARK>
 VINA RESULT:      -7.6      3.343      7.694
  Name = 
  2 active torsions:
  status: ('A' for Active; 'I' for Inactive)
    1  A    between atoms: C_4  and  O_37
    2  A    between atoms: C_23  and  C_30
                            x       y       z     vdW  Elec       q    Type
                         _______ _______ _______ _____ _____    ______ ____

>  <TORSDO>
F 2

$$$$
=
 OpenBabel11112417123D

 37 43  0  0  1  0  0  0  0  0999 V2000
  191.9510  172.9280  142.5750 C   0  0  0  0  0  2  0  0  0  0  0  0
  195.3180  175.9960  144.9130 C   0  0  1  0  0  0  0  0  0  0  0  0
  191.0990  176.0560  144.4460 N   0  0  1  0  0  0  0  0  0  0  0  0
  192.4410  171.5660  142.0770 C   0  0  2  0  0  3  0  0  0  0  0  0
  189.5100  174.9820  141.2570 O   0  0  0  0  0  0  0  0  0  0  0  0
  193.0540  176.6460  145.9110 C   0  0  1  0  0  3  0  0  0  0  0  0
  190.9050  175.9410  142.9910 C   0  0  2  0  0  3  0  0  0  0  0  0
  191.0090  171.7840  139.9220 C   0  0  2  0  0  3  0  0  0  0  0  0
  192.4830  176.4680  144.5000 C   0  0  1  0  0  3  0  0  0  0  0  0
  189.7000  175.0350  142.6440 C   0  0  1  0  0  3  0  0  0  0  0  0
  191.9790  176.3880  146.9700 C   0  0  0  0  0  2  0  0  0  0  0  0
  192.3410  171.3580  140.5580 C   0  0  0  0  0  2  0  0  0  0  0  0
  193.1900  175.4800  143.6540 C   0  0  2  0  0  3  0  0  0  0  0  0
  196.3710  174.9120  145.0100 C   0  0  0  0  0  1  0  0  0  0  0  0
  188.8470  177.0140  144.8950 C   0  0  0  0  0  2  0  0  0  0  0  0
  190.6680  177.1290  146.6200 C   0  0  0  0  0  2  0  0  0  0  0  0
  194.6440  175.8980  143.5170 C   0  0  0  0  0  2  0  0  0  0  0  0
  190.6830  173.2950  140.0050 C   0  0  1  0  0  3  0  0  0  0  0  0
  189.5180  173.6210  140.9440 C   0  0  0  0  0  2  0  0  0  0  0  0
  190.3490  177.1280  145.1060 C   0  0  1  0  0  3  0  0  0  0  0  0
  192.3050  175.4800  142.4250 C   0  0  1  0  0  3  0  0  0  0  0  0
  194.3400  175.8300  146.1080 C   0  0  0  0  0  2  0  0  0  0  0  0
  188.3670  175.4290  143.3250 C   0  0  1  0  0  3  0  0  0  0  0  0
  195.9480  177.2370  145.0160 O   0  0  0  0  0  1  0  0  0  0  0  0
  191.9240  174.1650  140.2760 C   0  0  0  0  0  2  0  0  0  0  0  0
  189.9570  170.9780  140.3650 O   0  0  0  0  0  1  0  0  0  0  0  0
  192.4370  174.1160  141.7260 C   0  0  2  0  0  3  0  0  0  0  0  0
  188.4520  175.6780  144.7140 O   0  0  0  0  0  0  0  0  0  0  0  0
  187.7570  176.6940  141.2420 C   0  0  0  0  0  3  0  0  0  0  0  0
  187.4310  176.3320  142.5540 C   0  0  0  0  0  0  0  0  0  0  0  0
  186.2340  176.7900  143.1220 C   0  0  0  0  0  3  0  0  0  0  0  0
  183.8860  178.1860  143.1040 Cl  0  0  0  0  0  0  0  0  0  0  0  0
  185.7090  177.9760  141.0790 C   0  0  0  0  0  3  0  0  0  0  0  0
  185.3760  177.6130  142.3870 C   0  0  0  0  0  0  0  0  0  0  0  0
  186.8980  177.5160  140.5060 C   0  0  0  0  0  3  0  0  0  0  0  0
  191.0440  171.2000  143.7530 C   0  0  0  0  0  1  0  0  0  0  0  0
  191.7570  170.5490  142.7460 O   0  0  0  0  0  0  0  0  0  0  0  0
  2 14  1  1  0  0  0
  2 24  1  0  0  0  0
  2 22  1  0  0  0  0
  3  9  1  0  0  0  0
  3 20  1  0  0  0  0
  4  1  1  0  0  0  0
  4 37  1  0  0  0  0
  5 10  1  0  0  0  0
  6 22  1  0  0  0  0
  6 11  1  0  0  0  0
  7  3  1  0  0  0  0
  8 18  1  0  0  0  0
  8 26  1  0  0  0  0
  8 12  1  0  0  0  0
  9  6  1  0  0  0  0
 10  7  1  0  0  0  0
 10 23  1  0  0  0  0
 12  4  1  0  0  0  0
 13  9  1  0  0  0  0
 15 20  1  0  0  0  0
 16 11  1  0  0  0  0
 17 13  1  0  0  0  0
 17  2  1  0  0  0  0
 18 25  1  0  0  0  0
 18 19  1  0  0  0  0
 19  5  1  0  0  0  0
 20 16  1  0  0  0  0
 21  7  1  0  0  0  0
 21 13  1  0  0  0  0
 23 28  1  0  0  0  0
 25 27  1  0  0  0  0
 27 21  1  0  0  0  0
 27  1  1  0  0  0  0
 28 15  1  0  0  0  0
 29 30  1  0  0  0  0
 30 31  2  0  0  0  0
 30 23  1  0  0  0  0
 33 34  2  0  0  0  0
 34 32  1  0  0  0  0
 34 31  1  0  0  0  0
 35 33  1  0  0  0  0
 35 29  2  0  0  0  0
 37 36  1  0  0  0  0
M  END
>  <MODEL>
8

>  <REMARK>
 VINA RESULT:      -7.6      1.901      5.653
  Name = 
  2 active torsions:
  status: ('A' for Active; 'I' for Inactive)
    1  A    between atoms: C_4  and  O_37
    2  A    between atoms: C_23  and  C_30
                            x       y       z     vdW  Elec       q    Type
                         _______ _______ _______ _____ _____    ______ ____

>  <TORSDO>
F 2

$$$$
=
 OpenBabel11112417123D

 37 43  0  0  1  0  0  0  0  0999 V2000
  192.3400  175.2420  142.6900 C   0  0  0  0  0  2  0  0  0  0  0  0
  190.5940  171.2480  140.0040 C   0  0  1  0  0  0  0  0  0  0  0  0
  188.9450  174.9940  141.1330 N   0  0  1  0  0  0  0  0  0  0  0  0
  193.8310  175.2820  143.0360 C   0  0  2  0  0  3  0  0  0  0  0  0
  189.6540  176.4690  144.4760 O   0  0  0  0  0  0  0  0  0  0  0  0
  189.0100  173.1670  139.4090 C   0  0  1  0  0  3  0  0  0  0  0  0
  189.1320  175.0340  142.5920 C   0  0  2  0  0  3  0  0  0  0  0  0
  193.3060  176.2250  145.3990 C   0  0  2  0  0  3  0  0  0  0  0  0
  189.1030  173.5800  140.8810 C   0  0  1  0  0  3  0  0  0  0  0  0
  189.5290  176.4480  143.0800 C   0  0  1  0  0  3  0  0  0  0  0  0
  188.7130  174.3780  138.5210 C   0  0  0  0  0  2  0  0  0  0  0  0
  194.1460  175.2660  144.5400 C   0  0  0  0  0  2  0  0  0  0  0  0
  190.3720  173.2290  141.5550 C   0  0  2  0  0  3  0  0  0  0  0  0
  191.9850  170.7400  139.6880 C   0  0  0  0  0  1  0  0  0  0  0  0
  187.1440  176.7100  141.0920 C   0  0  0  0  0  2  0  0  0  0  0  0
  187.5620  175.2270  139.1100 C   0  0  0  0  0  2  0  0  0  0  0  0
  190.5710  171.7240  141.4820 C   0  0  0  0  0  2  0  0  0  0  0  0
  191.7880  175.9240  145.4430 C   0  0  1  0  0  3  0  0  0  0  0  0
  190.9350  176.9680  144.7160 C   0  0  0  0  0  2  0  0  0  0  0  0
  187.6020  175.3270  140.6530 C   0  0  1  0  0  3  0  0  0  0  0  0
  190.1610  173.8780  142.9070 C   0  0  1  0  0  3  0  0  0  0  0  0
  190.2360  172.3530  138.9710 C   0  0  0  0  0  2  0  0  0  0  0  0
  188.5760  177.5850  142.6380 C   0  0  1  0  0  3  0  0  0  0  0  0
  189.6930  170.1920  139.8650 O   0  0  0  0  0  1  0  0  0  0  0  0
  191.4470  174.4830  145.0220 C   0  0  0  0  0  2  0  0  0  0  0  0
  193.5860  177.5580  145.0880 O   0  0  0  0  0  1  0  0  0  0  0  0
  191.5350  174.2190  143.5090 C   0  0  2  0  0  3  0  0  0  0  0  0
  188.2310  177.5810  141.2670 O   0  0  0  0  0  0  0  0  0  0  0  0
  186.6270  179.0420  143.2580 C   0  0  0  0  0  3  0  0  0  0  0  0
  187.4690  177.9760  143.5910 C   0  0  0  0  0  0  0  0  0  0  0  0
  187.2590  177.2740  144.7870 C   0  0  0  0  0  3  0  0  0  0  0  0
  185.9680  176.7680  147.1390 Cl  0  0  0  0  0  0  0  0  0  0  0  0
  185.3860  178.7130  145.3110 C   0  0  0  0  0  3  0  0  0  0  0  0
  186.2210  177.6440  145.6460 C   0  0  0  0  0  0  0  0  0  0  0  0
  185.5870  179.4120  144.1170 C   0  0  0  0  0  3  0  0  0  0  0  0
  195.7960  176.1660  142.5340 C   0  0  0  0  0  1  0  0  0  0  0  0
  194.4230  176.3940  142.4340 O   0  0  0  0  0  0  0  0  0  0  0  0
  1  4  1  0  0  0  0
  1 27  1  0  0  0  0
  2 14  1  6  0  0  0
  2 17  1  0  0  0  0
  3  7  1  0  0  0  0
  4 12  1  0  0  0  0
  5 19  1  0  0  0  0
  6  9  1  0  0  0  0
  7 21  1  0  0  0  0
  7 10  1  0  0  0  0
  8 18  1  0  0  0  0
  9  3  1  0  0  0  0
  9 13  1  0  0  0  0
 10  5  1  0  0  0  0
 11 16  1  0  0  0  0
 11  6  1  0  0  0  0
 12  8  1  0  0  0  0
 13 21  1  0  0  0  0
 15 28  1  0  0  0  0
 16 20  1  0  0  0  0
 17 13  1  0  0  0  0
 19 18  1  0  0  0  0
 20 15  1  0  0  0  0
 20  3  1  0  0  0  0
 21 27  1  0  0  0  0
 22  6  1  0  0  0  0
 22  2  1  0  0  0  0
 23 10  1  0  0  0  0
 23 30  1  0  0  0  0
 24  2  1  0  0  0  0
 25 18  1  0  0  0  0
 26  8  1  0  0  0  0
 27 25  1  0  0  0  0
 28 23  1  0  0  0  0
 29 30  2  0  0  0  0
 29 35  1  0  0  0  0
 30 31  1  0  0  0  0
 31 34  2  0  0  0  0
 33 34  1  0  0  0  0
 34 32  1  0  0  0  0
 35 33  2  0  0  0  0
 37 36  1  0  0  0  0
 37  4  1  0  0  0  0
M  END
>  <MODEL>
9

>  <REMARK>
 VINA RESULT:      -7.5      1.729      2.377
  Name = 
  2 active torsions:
  status: ('A' for Active; 'I' for Inactive)
    1  A    between atoms: C_4  and  O_37
    2  A    between atoms: C_23  and  C_30
                            x       y       z     vdW  Elec       q    Type
                         _______ _______ _______ _____ _____    ______ ____

>  <TORSDO>
F 2

$$$$
