=
 OpenBabel11112417273D

 37 43  0  0  1  0  0  0  0  0999 V2000
  193.3160  172.2880  143.2870 C   0  0  1  0  0  0  0  0  0  0  0  0
  190.5660  174.1610  141.3370 C   0  0  1  0  0  3  0  0  0  0  0  0
  189.6790  177.2500  142.1960 O   0  0  0  0  0  0  0  0  0  0  0  0
  192.5270  172.4540  141.1350 C   0  0  2  0  0  3  0  0  0  0  0  0
  190.3980  175.0030  142.6010 C   0  0  2  0  0  3  0  0  0  0  0  0
  192.0800  173.9190  141.2910 C   0  0  2  0  0  3  0  0  0  0  0  0
  189.2210  175.9830  142.5870 C   0  0  2  0  0  3  0  0  0  0  0  0
  191.6720  171.7920  140.0650 C   0  0  0  0  0  2  0  0  0  0  0  0
  192.6540  174.6270  142.5200 C   0  0  2  0  0  3  0  0  0  0  0  0
  194.6080  172.3900  142.7890 F   0  0  0  0  0  0  0  0  0  0  0  0
  188.2500  173.1460  141.1160 C   0  0  0  0  0  2  0  0  0  0  0  0
  190.1800  171.7860  140.4220 C   0  0  0  0  0  2  0  0  0  0  0  0
  192.7970  173.6540  143.7150 C   0  0  0  0  0  2  0  0  0  0  0  0
  189.7160  177.5660  144.7330 C   0  0  0  0  0  2  0  0  0  0  0  0
  189.8710  178.1100  143.3140 C   0  0  1  0  0  3  0  0  0  0  0  0
  189.7240  172.8730  141.4120 C   0  0  1  0  0  3  0  0  0  0  0  0
  191.6770  175.6930  142.7950 N   0  0  2  0  0  0  0  0  0  0  0  0
  192.4370  171.7250  142.3390 O   0  0  0  0  0  0  0  0  0  0  0  0
  188.0050  175.5420  141.7650 C   0  0  1  0  0  3  0  0  0  0  0  0
  193.3470  171.3930  144.5080 C   0  0  0  0  0  1  0  0  0  0  0  0
  191.1110  177.7350  144.1570 C   0  0  2  0  0  3  0  0  0  0  0  0
  191.7460  176.3250  144.1310 C   0  0  2  0  0  3  0  0  0  0  0  0
  187.6000  174.1110  142.0980 C   0  0  0  0  0  2  0  0  0  0  0  0
  186.2490  176.5380  143.2380 C   0  0  0  0  0  3  0  0  0  0  0  0
  186.8500  176.4730  141.9770 C   0  0  0  0  0  0  0  0  0  0  0  0
  186.3570  177.2700  140.9310 C   0  0  0  0  0  3  0  0  0  0  0  0
  184.8000  178.8910  140.1400 F   0  0  0  0  0  0  0  0  0  0  0  0
  184.6760  178.1850  142.4140 C   0  0  0  0  0  3  0  0  0  0  0  0
  185.2730  178.1240  141.1510 C   0  0  0  0  0  0  0  0  0  0  0  0
  185.1640  177.3920  143.4570 C   0  0  0  0  0  3  0  0  0  0  0  0
  193.1890  176.4970  144.6100 C   0  0  0  0  0  2  0  0  0  0  0  0
  193.3250  176.0420  145.9890 N   0  0  0  0  0  0  0  0  0  0  0  0
  191.6900  176.4050  147.7360 C   0  0  0  0  0  2  0  0  0  0  0  0
  192.1860  175.6450  146.7660 C   0  0  0  0  0  3  0  0  0  0  0  0
  194.6120  175.8610  146.5170 N   0  0  0  0  0  2  0  0  0  0  0  0
  195.4760  175.4260  145.4310 C   0  0  0  0  0  2  0  0  0  0  0  0
  196.0690  174.0740  145.7690 C   0  0  0  0  0  1  0  0  0  0  0  0
  1 13  1  0  0  0  0
  1 20  1  1  0  0  0
  2 16  1  0  0  0  0
  2  5  1  0  0  0  0
  3  7  1  0  0  0  0
  3 15  1  0  0  0  0
  4  6  1  0  0  0  0
  4 18  1  0  0  0  0
  5 17  1  0  0  0  0
  6  2  1  0  0  0  0
  6  9  1  0  0  0  0
  7  5  1  0  0  0  0
  8 12  1  0  0  0  0
  8  4  1  0  0  0  0
  9 17  1  0  0  0  0
  9 13  1  0  0  0  0
 10  1  1  0  0  0  0
 11 16  1  0  0  0  0
 11 23  1  0  0  0  0
 12 16  1  0  0  0  0
 15 21  1  0  0  0  0
 15 14  1  0  0  0  0
 17 22  1  0  0  0  0
 18  1  1  0  0  0  0
 19 25  1  0  0  0  0
 19 23  1  0  0  0  0
 19  7  1  0  0  0  0
 21 14  1  0  0  0  0
 22 21  1  0  0  0  0
 22 31  1  0  0  0  0
 24 30  1  0  0  0  0
 25 24  2  0  0  0  0
 26 29  2  0  0  0  0
 26 25  1  0  0  0  0
 27 29  1  0  0  0  0
 28 30  2  0  0  0  0
 29 28  1  0  0  0  0
 31 32  1  0  0  0  0
 32 35  1  0  0  0  0
 32 34  1  0  0  0  0
 34 33  2  0  0  0  0
 36 37  1  0  0  0  0
 36 35  1  0  0  0  0
M  END
>  <MODEL>
1

>  <REMARK>
 VINA RESULT:      -7.7      0.000      0.000
  Name = 
  6 active torsions:
  status: ('A' for Active; 'I' for Inactive)
    1  A    between atoms: C_1  and  N_4
    2  A    between atoms: C_1  and  C_27
    3  A    between atoms: N_4  and  N_12
    4  A    between atoms: N_4  and  C_37
    5  A    between atoms: C_8  and  N_12
    6  A    between atoms: C_23  and  C_30
                            x       y       z     vdW  Elec       q    Type
                         _______ _______ _______ _____ _____    ______ ____

>  <TORSDO>
F 6

$$$$
=
 OpenBabel11112417273D

 37 43  0  0  1  0  0  0  0  0999 V2000
  193.2950  172.4370  143.3620 C   0  0  1  0  0  0  0  0  0  0  0  0
  190.5090  174.2240  141.3830 C   0  0  1  0  0  3  0  0  0  0  0  0
  189.6060  177.3320  142.1510 O   0  0  0  0  0  0  0  0  0  0  0  0
  192.4820  172.5260  141.2140 C   0  0  2  0  0  3  0  0  0  0  0  0
  190.3470  175.1050  142.6210 C   0  0  2  0  0  3  0  0  0  0  0  0
  192.0240  173.9920  141.3280 C   0  0  2  0  0  3  0  0  0  0  0  0
  189.1620  176.0740  142.5880 C   0  0  2  0  0  3  0  0  0  0  0  0
  191.6210  171.8230  140.1770 C   0  0  0  0  0  2  0  0  0  0  0  0
  192.6050  174.7430  142.5270 C   0  0  2  0  0  3  0  0  0  0  0  0
  194.5800  172.5320  142.8470 F   0  0  0  0  0  0  0  0  0  0  0  0
  188.1990  173.1840  141.2210 C   0  0  0  0  0  2  0  0  0  0  0  0
  190.1330  171.8170  140.5500 C   0  0  0  0  0  2  0  0  0  0  0  0
  192.7690  173.8120  143.7520 C   0  0  0  0  0  2  0  0  0  0  0  0
  189.6680  177.7300  144.6760 C   0  0  0  0  0  2  0  0  0  0  0  0
  189.8030  178.2290  143.2390 C   0  0  1  0  0  3  0  0  0  0  0  0
  189.6780  172.9320  141.5090 C   0  0  1  0  0  3  0  0  0  0  0  0
  191.6230  175.8110  142.7780 N   0  0  2  0  0  0  0  0  0  0  0  0
  192.4100  171.8360  142.4430 O   0  0  0  0  0  0  0  0  0  0  0  0
  187.9410  175.5980  141.7950 C   0  0  1  0  0  3  0  0  0  0  0  0
  193.3470  171.5820  144.6110 C   0  0  0  0  0  1  0  0  0  0  0  0
  191.0560  177.8910  144.0800 C   0  0  2  0  0  3  0  0  0  0  0  0
  191.7010  176.4860  144.0920 C   0  0  2  0  0  3  0  0  0  0  0  0
  187.5510  174.1750  142.1780 C   0  0  0  0  0  2  0  0  0  0  0  0
  186.1800  176.6120  143.2490 C   0  0  0  0  0  3  0  0  0  0  0  0
  186.7810  176.5260  141.9890 C   0  0  0  0  0  0  0  0  0  0  0  0
  186.2830  177.3000  140.9280 C   0  0  0  0  0  3  0  0  0  0  0  0
  184.7160  178.8950  140.1060 F   0  0  0  0  0  0  0  0  0  0  0  0
  184.5980  178.2340  142.3940 C   0  0  0  0  0  3  0  0  0  0  0  0
  185.1940  178.1520  141.1320 C   0  0  0  0  0  0  0  0  0  0  0  0
  185.0910  177.4650  143.4510 C   0  0  0  0  0  3  0  0  0  0  0  0
  193.1480  176.6850  144.5490 C   0  0  0  0  0  2  0  0  0  0  0  0
  193.2920  176.3220  145.9550 N   0  0  0  0  0  0  0  0  0  0  0  0
  195.3490  175.0540  145.8250 C   0  0  0  0  0  2  0  0  0  0  0  0
  194.5460  175.8760  146.4910 C   0  0  0  0  0  3  0  0  0  0  0  0
  192.2150  176.5480  146.8250 N   0  0  0  0  0  2  0  0  0  0  0  0
  191.8200  175.2630  147.3790 C   0  0  0  0  0  2  0  0  0  0  0  0
  190.3090  175.1660  147.3990 C   0  0  0  0  0  1  0  0  0  0  0  0
  1 13  1  0  0  0  0
  1 20  1  1  0  0  0
  2 16  1  0  0  0  0
  2  5  1  0  0  0  0
  3  7  1  0  0  0  0
  3 15  1  0  0  0  0
  4  6  1  0  0  0  0
  4 18  1  0  0  0  0
  5 17  1  0  0  0  0
  6  2  1  0  0  0  0
  6  9  1  0  0  0  0
  7  5  1  0  0  0  0
  8 12  1  0  0  0  0
  8  4  1  0  0  0  0
  9 17  1  0  0  0  0
  9 13  1  0  0  0  0
 10  1  1  0  0  0  0
 11 16  1  0  0  0  0
 11 23  1  0  0  0  0
 12 16  1  0  0  0  0
 15 21  1  0  0  0  0
 15 14  1  0  0  0  0
 17 22  1  0  0  0  0
 18  1  1  0  0  0  0
 19 25  1  0  0  0  0
 19 23  1  0  0  0  0
 19  7  1  0  0  0  0
 21 22  1  0  0  0  0
 21 14  1  0  0  0  0
 22 31  1  0  0  0  0
 24 30  1  0  0  0  0
 25 24  2  0  0  0  0
 26 29  2  0  0  0  0
 26 25  1  0  0  0  0
 27 29  1  0  0  0  0
 28 30  2  0  0  0  0
 29 28  1  0  0  0  0
 31 32  1  0  0  0  0
 32 34  1  0  0  0  0
 32 35  1  0  0  0  0
 33 34  2  0  0  0  0
 35 36  1  0  0  0  0
 36 37  1  0  0  0  0
M  END
>  <MODEL>
2

>  <REMARK>
 VINA RESULT:      -7.6      0.508      1.522
  Name = 
  6 active torsions:
  status: ('A' for Active; 'I' for Inactive)
    1  A    between atoms: C_1  and  N_4
    2  A    between atoms: C_1  and  C_27
    3  A    between atoms: N_4  and  N_12
    4  A    between atoms: N_4  and  C_37
    5  A    between atoms: C_8  and  N_12
    6  A    between atoms: C_23  and  C_30
                            x       y       z     vdW  Elec       q    Type
                         _______ _______ _______ _____ _____    ______ ____

>  <TORSDO>
F 6

$$$$
=
 OpenBabel11112417273D

 37 43  0  0  1  0  0  0  0  0999 V2000
  193.7480  174.7880  142.8300 C   0  0  1  0  0  0  0  0  0  0  0  0
  190.6400  175.1030  145.0910 C   0  0  1  0  0  3  0  0  0  0  0  0
  187.5860  175.2060  143.7750 O   0  0  0  0  0  0  0  0  0  0  0  0
  193.0390  174.0990  144.9050 C   0  0  2  0  0  3  0  0  0  0  0  0
  189.9350  175.6610  143.8550 C   0  0  2  0  0  3  0  0  0  0  0  0
  191.5560  174.0250  144.4990 C   0  0  2  0  0  3  0  0  0  0  0  0
  188.5220  176.2030  144.0920 C   0  0  2  0  0  3  0  0  0  0  0  0
  193.1260  174.3580  146.4010 C   0  0  0  0  0  2  0  0  0  0  0  0
  191.3130  174.0530  142.9890 C   0  0  2  0  0  3  0  0  0  0  0  0
  194.2180  173.5020  142.5980 F   0  0  0  0  0  0  0  0  0  0  0  0
  190.4300  177.0590  146.6950 C   0  0  0  0  0  2  0  0  0  0  0  0
  192.4660  175.6800  146.8110 C   0  0  0  0  0  2  0  0  0  0  0  0
  192.3430  174.9550  142.2680 C   0  0  0  0  0  2  0  0  0  0  0  0
  187.5550  176.5120  141.5770 C   0  0  0  0  0  2  0  0  0  0  0  0
  187.0210  175.4050  142.4830 C   0  0  1  0  0  3  0  0  0  0  0  0
  191.3860  176.2150  145.8530 C   0  0  1  0  0  3  0  0  0  0  0  0
  189.9440  174.5780  142.8660 N   0  0  2  0  0  0  0  0  0  0  0  0
  193.7470  175.0990  144.2050 O   0  0  0  0  0  0  0  0  0  0  0  0
  188.2670  176.7960  145.4810 C   0  0  1  0  0  3  0  0  0  0  0  0
  194.6600  175.7620  142.1150 C   0  0  0  0  0  1  0  0  0  0  0  0
  188.0060  175.0820  141.3370 C   0  0  2  0  0  3  0  0  0  0  0  0
  189.5400  175.0710  141.5320 C   0  0  2  0  0  3  0  0  0  0  0  0
  189.3660  177.7760  145.8760 C   0  0  0  0  0  2  0  0  0  0  0  0
  185.9340  176.9310  146.3660 C   0  0  0  0  0  3  0  0  0  0  0  0
  186.9280  177.4660  145.5400 C   0  0  0  0  0  0  0  0  0  0  0  0
  186.6520  178.6100  144.7740 C   0  0  0  0  0  3  0  0  0  0  0  0
  185.1300  180.3140  144.0990 F   0  0  0  0  0  0  0  0  0  0  0  0
  184.4030  178.6730  145.6680 C   0  0  0  0  0  3  0  0  0  0  0  0
  185.3920  179.2120  144.8390 C   0  0  0  0  0  0  0  0  0  0  0  0
  184.6740  177.5340  146.4300 C   0  0  0  0  0  3  0  0  0  0  0  0
  190.1070  174.2030  140.4060 C   0  0  0  0  0  2  0  0  0  0  0  0
  189.2260  173.0700  140.1430 N   0  0  0  0  0  0  0  0  0  0  0  0
  188.6040  173.8220  137.9290 C   0  0  0  0  0  2  0  0  0  0  0  0
  188.4200  173.0020  138.9580 C   0  0  0  0  0  3  0  0  0  0  0  0
  189.2740  171.9620  141.0030 N   0  0  0  0  0  2  0  0  0  0  0  0
  190.4890  171.2220  140.6990 C   0  0  0  0  0  2  0  0  0  0  0  0
  190.9240  170.4450  141.9240 C   0  0  0  0  0  1  0  0  0  0  0  0
  1 20  1  6  0  0  0
  1 18  1  0  0  0  0
  2 16  1  0  0  0  0
  3  7  1  0  0  0  0
  4  8  1  0  0  0  0
  5  7  1  0  0  0  0
  5  2  1  0  0  0  0
  6  4  1  0  0  0  0
  6  2  1  0  0  0  0
  7 19  1  0  0  0  0
  8 12  1  0  0  0  0
  9  6  1  0  0  0  0
 10  1  1  0  0  0  0
 13  1  1  0  0  0  0
 13  9  1  0  0  0  0
 14 15  1  0  0  0  0
 15  3  1  0  0  0  0
 16 11  1  0  0  0  0
 16 12  1  0  0  0  0
 17  9  1  0  0  0  0
 17  5  1  0  0  0  0
 18  4  1  0  0  0  0
 19 25  1  0  0  0  0
 19 23  1  0  0  0  0
 21 22  1  0  0  0  0
 21 14  1  0  0  0  0
 21 15  1  0  0  0  0
 22 17  1  0  0  0  0
 23 11  1  0  0  0  0
 24 30  1  0  0  0  0
 25 24  2  0  0  0  0
 26 29  2  0  0  0  0
 26 25  1  0  0  0  0
 27 29  1  0  0  0  0
 28 30  2  0  0  0  0
 29 28  1  0  0  0  0
 31 22  1  0  0  0  0
 32 31  1  0  0  0  0
 32 35  1  0  0  0  0
 33 34  2  0  0  0  0
 34 32  1  0  0  0  0
 36 35  1  0  0  0  0
 36 37  1  0  0  0  0
M  END
>  <MODEL>
3

>  <REMARK>
 VINA RESULT:      -7.5      2.422      5.211
  Name = 
  6 active torsions:
  status: ('A' for Active; 'I' for Inactive)
    1  A    between atoms: C_1  and  N_4
    2  A    between atoms: C_1  and  C_27
    3  A    between atoms: N_4  and  N_12
    4  A    between atoms: N_4  and  C_37
    5  A    between atoms: C_8  and  N_12
    6  A    between atoms: C_23  and  C_30
                            x       y       z     vdW  Elec       q    Type
                         _______ _______ _______ _____ _____    ______ ____

>  <TORSDO>
F 6

$$$$
=
 OpenBabel11112417273D

 37 43  0  0  1  0  0  0  0  0999 V2000
  193.2060  174.0340  145.1810 C   0  0  1  0  0  0  0  0  0  0  0  0
  189.5700  175.3180  145.1170 C   0  0  1  0  0  3  0  0  0  0  0  0
  187.5090  174.4570  142.6510 O   0  0  0  0  0  0  0  0  0  0  0  0
  191.5270  174.5540  146.6620 C   0  0  2  0  0  3  0  0  0  0  0  0
  189.6190  175.0500  143.6130 C   0  0  2  0  0  3  0  0  0  0  0  0
  190.3970  174.1610  145.6930 C   0  0  2  0  0  3  0  0  0  0  0  0
  188.4000  175.5280  142.8190 C   0  0  2  0  0  3  0  0  0  0  0  0
  191.0000  175.5990  147.6330 C   0  0  0  0  0  2  0  0  0  0  0  0
  190.8550  173.3350  144.4910 C   0  0  2  0  0  3  0  0  0  0  0  0
  193.4400  172.8710  145.9020 F   0  0  0  0  0  0  0  0  0  0  0  0
  189.1030  177.8130  145.1520 C   0  0  0  0  0  2  0  0  0  0  0  0
  190.5290  176.8770  146.9260 C   0  0  0  0  0  2  0  0  0  0  0  0
  192.2640  173.7630  144.0160 C   0  0  0  0  0  2  0  0  0  0  0  0
  188.7300  174.3310  140.4090 C   0  0  0  0  0  2  0  0  0  0  0  0
  187.6270  173.8700  141.3600 C   0  0  1  0  0  3  0  0  0  0  0  0
  190.1250  176.7160  145.4500 C   0  0  1  0  0  3  0  0  0  0  0  0
  189.8290  173.6050  143.4710 N   0  0  2  0  0  0  0  0  0  0  0  0
  192.6680  175.0510  145.9970 O   0  0  0  0  0  0  0  0  0  0  0  0
  187.6950  176.7690  143.3770 C   0  0  1  0  0  3  0  0  0  0  0  0
  194.5260  174.5160  144.6170 C   0  0  0  0  0  1  0  0  0  0  0  0
  188.9210  173.0420  141.1900 C   0  0  2  0  0  3  0  0  0  0  0  0
  190.1700  173.2500  142.0760 C   0  0  2  0  0  3  0  0  0  0  0  0
  188.6900  177.8800  143.6890 C   0  0  0  0  0  2  0  0  0  0  0  0
  186.9790  177.4490  141.0820 C   0  0  0  0  0  3  0  0  0  0  0  0
  186.6460  177.2610  142.4270 C   0  0  0  0  0  0  0  0  0  0  0  0
  185.3420  177.5440  142.8660 C   0  0  0  0  0  3  0  0  0  0  0  0
  183.1280  178.2830  142.3890 F   0  0  0  0  0  0  0  0  0  0  0  0
  184.7220  178.1960  140.6180 C   0  0  0  0  0  3  0  0  0  0  0  0
  184.3830  178.0100  141.9620 C   0  0  0  0  0  0  0  0  0  0  0  0
  186.0190  177.9160  140.1790 C   0  0  0  0  0  3  0  0  0  0  0  0
  190.9720  171.9500  141.9970 C   0  0  0  0  0  2  0  0  0  0  0  0
  191.7770  171.9210  140.7800 N   0  0  0  0  0  0  0  0  0  0  0  0
  192.2520  173.5710  139.0750 C   0  0  0  0  0  2  0  0  0  0  0  0
  192.4520  173.0920  140.2980 C   0  0  0  0  0  3  0  0  0  0  0  0
  192.0050  170.6890  140.1480 N   0  0  0  0  0  2  0  0  0  0  0  0
  190.7130  170.0500  139.9540 C   0  0  0  0  0  2  0  0  0  0  0  0
  190.1260  170.4930  138.6300 C   0  0  0  0  0  1  0  0  0  0  0  0
  1 20  1  6  0  0  0
  1 10  1  0  0  0  0
  1 18  1  0  0  0  0
  2 16  1  0  0  0  0
  2  6  1  0  0  0  0
  3  7  1  0  0  0  0
  4  8  1  0  0  0  0
  5  2  1  0  0  0  0
  6  4  1  0  0  0  0
  7 19  1  0  0  0  0
  7  5  1  0  0  0  0
  9  6  1  0  0  0  0
 11 16  1  0  0  0  0
 12  8  1  0  0  0  0
 13  9  1  0  0  0  0
 13  1  1  0  0  0  0
 14 21  1  0  0  0  0
 14 15  1  0  0  0  0
 15  3  1  0  0  0  0
 16 12  1  0  0  0  0
 17  5  1  0  0  0  0
 17  9  1  0  0  0  0
 18  4  1  0  0  0  0
 19 23  1  0  0  0  0
 21 15  1  0  0  0  0
 21 22  1  0  0  0  0
 22 17  1  0  0  0  0
 23 11  1  0  0  0  0
 24 25  1  0  0  0  0
 25 26  2  0  0  0  0
 25 19  1  0  0  0  0
 28 29  2  0  0  0  0
 29 27  1  0  0  0  0
 29 26  1  0  0  0  0
 30 28  1  0  0  0  0
 30 24  2  0  0  0  0
 31 22  1  0  0  0  0
 32 31  1  0  0  0  0
 33 34  2  0  0  0  0
 34 32  1  0  0  0  0
 35 32  1  0  0  0  0
 36 35  1  0  0  0  0
 37 36  1  0  0  0  0
M  END
>  <MODEL>
4

>  <REMARK>
 VINA RESULT:      -7.2      2.241      5.210
  Name = 
  6 active torsions:
  status: ('A' for Active; 'I' for Inactive)
    1  A    between atoms: C_1  and  N_4
    2  A    between atoms: C_1  and  C_27
    3  A    between atoms: N_4  and  N_12
    4  A    between atoms: N_4  and  C_37
    5  A    between atoms: C_8  and  N_12
    6  A    between atoms: C_23  and  C_30
                            x       y       z     vdW  Elec       q    Type
                         _______ _______ _______ _____ _____    ______ ____

>  <TORSDO>
F 6

$$$$
=
 OpenBabel11112417273D

 37 43  0  0  1  0  0  0  0  0999 V2000
  194.1520  174.0390  143.0270 C   0  0  1  0  0  0  0  0  0  0  0  0
  190.9430  175.1000  144.8840 C   0  0  1  0  0  3  0  0  0  0  0  0
  187.9700  174.8630  143.4100 O   0  0  0  0  0  0  0  0  0  0  0  0
  193.3070  174.0350  145.1640 C   0  0  2  0  0  3  0  0  0  0  0  0
  190.3280  175.2690  143.4950 C   0  0  2  0  0  3  0  0  0  0  0  0
  191.8460  173.8730  144.7070 C   0  0  2  0  0  3  0  0  0  0  0  0
  188.9270  175.8880  143.4670 C   0  0  2  0  0  3  0  0  0  0  0  0
  193.3240  174.7370  146.5130 C   0  0  0  0  0  2  0  0  0  0  0  0
  191.6850  173.4420  143.2490 C   0  0  2  0  0  3  0  0  0  0  0  0
  194.5810  172.7340  143.2270 F   0  0  0  0  0  0  0  0  0  0  0  0
  190.7280  177.4580  145.8010 C   0  0  0  0  0  2  0  0  0  0  0  0
  192.6970  176.1360  146.4580 C   0  0  0  0  0  2  0  0  0  0  0  0
  192.7870  174.0580  142.3530 C   0  0  0  0  0  2  0  0  0  0  0  0
  188.1090  175.4340  140.9210 C   0  0  0  0  0  2  0  0  0  0  0  0
  187.4830  174.6690  142.0860 C   0  0  1  0  0  3  0  0  0  0  0  0
  191.6920  176.3760  145.3180 C   0  0  1  0  0  3  0  0  0  0  0  0
  190.3460  173.9350  142.8860 N   0  0  2  0  0  0  0  0  0  0  0  0
  194.0910  174.7560  144.2390 O   0  0  0  0  0  0  0  0  0  0  0  0
  188.6230  176.8840  144.5910 C   0  0  1  0  0  3  0  0  0  0  0  0
  195.1390  174.7270  142.1080 C   0  0  0  0  0  1  0  0  0  0  0  0
  188.5140  173.9890  141.1570 C   0  0  2  0  0  3  0  0  0  0  0  0
  190.0340  174.0040  141.4420 C   0  0  2  0  0  3  0  0  0  0  0  0
  189.7390  177.9120  144.7370 C   0  0  0  0  0  2  0  0  0  0  0  0
  187.1220  178.3000  143.1810 C   0  0  0  0  0  3  0  0  0  0  0  0
  187.3110  177.5680  144.3580 C   0  0  0  0  0  0  0  0  0  0  0  0
  186.2750  177.4950  145.3040 C   0  0  0  0  0  3  0  0  0  0  0  0
  184.0660  178.0780  145.9820 F   0  0  0  0  0  0  0  0  0  0  0  0
  184.8800  178.8800  143.8900 C   0  0  0  0  0  3  0  0  0  0  0  0
  185.0620  178.1500  145.0680 C   0  0  0  0  0  0  0  0  0  0  0  0
  185.9090  178.9550  142.9470 C   0  0  0  0  0  3  0  0  0  0  0  0
  190.6240  172.8210  140.6710 C   0  0  0  0  0  2  0  0  0  0  0  0
  190.7790  173.1580  139.2600 N   0  0  0  0  0  0  0  0  0  0  0  0
  193.1470  173.1820  138.7630 C   0  0  0  0  0  2  0  0  0  0  0  0
  191.9670  173.7910  138.7640 C   0  0  0  0  0  3  0  0  0  0  0  0
  189.8010  172.7270  138.3510 N   0  0  0  0  0  2  0  0  0  0  0  0
  189.6060  173.7910  137.3780 C   0  0  0  0  0  2  0  0  0  0  0  0
  188.1920  174.3220  137.4900 C   0  0  0  0  0  1  0  0  0  0  0  0
  1 20  1  6  0  0  0
  1 10  1  0  0  0  0
  1 18  1  0  0  0  0
  2 16  1  0  0  0  0
  3  7  1  0  0  0  0
  4  8  1  0  0  0  0
  5  2  1  0  0  0  0
  6  2  1  0  0  0  0
  6  4  1  0  0  0  0
  7  5  1  0  0  0  0
  7 19  1  0  0  0  0
  9  6  1  0  0  0  0
 12  8  1  0  0  0  0
 13  1  1  0  0  0  0
 13  9  1  0  0  0  0
 14 21  1  0  0  0  0
 14 15  1  0  0  0  0
 15  3  1  0  0  0  0
 16 11  1  0  0  0  0
 16 12  1  0  0  0  0
 17  9  1  0  0  0  0
 17  5  1  0  0  0  0
 18  4  1  0  0  0  0
 19 23  1  0  0  0  0
 21 22  1  0  0  0  0
 21 15  1  0  0  0  0
 22 17  1  0  0  0  0
 23 11  1  0  0  0  0
 24 25  1  0  0  0  0
 25 19  1  0  0  0  0
 25 26  2  0  0  0  0
 28 29  2  0  0  0  0
 29 26  1  0  0  0  0
 29 27  1  0  0  0  0
 30 24  2  0  0  0  0
 30 28  1  0  0  0  0
 31 22  1  0  0  0  0
 32 31  1  0  0  0  0
 33 34  2  0  0  0  0
 34 32  1  0  0  0  0
 35 32  1  0  0  0  0
 36 37  1  0  0  0  0
 36 35  1  0  0  0  0
M  END
>  <MODEL>
5

>  <REMARK>
 VINA RESULT:      -7.1      2.376      5.443
  Name = 
  6 active torsions:
  status: ('A' for Active; 'I' for Inactive)
    1  A    between atoms: C_1  and  N_4
    2  A    between atoms: C_1  and  C_27
    3  A    between atoms: N_4  and  N_12
    4  A    between atoms: N_4  and  C_37
    5  A    between atoms: C_8  and  N_12
    6  A    between atoms: C_23  and  C_30
                            x       y       z     vdW  Elec       q    Type
                         _______ _______ _______ _____ _____    ______ ____

>  <TORSDO>
F 6

$$$$
=
 OpenBabel11112417273D

 37 43  0  0  1  0  0  0  0  0999 V2000
  194.4170  173.9560  143.3770 C   0  0  1  0  0  0  0  0  0  0  0  0
  190.9520  175.0920  144.6310 C   0  0  1  0  0  3  0  0  0  0  0  0
  188.1960  174.3220  142.9340 O   0  0  0  0  0  0  0  0  0  0  0  0
  193.3250  174.3020  145.3690 C   0  0  2  0  0  3  0  0  0  0  0  0
  190.4970  174.9320  143.1800 C   0  0  2  0  0  3  0  0  0  0  0  0
  191.9410  173.9330  144.8050 C   0  0  2  0  0  3  0  0  0  0  0  0
  189.0760  175.4140  142.8790 C   0  0  2  0  0  3  0  0  0  0  0  0
  193.1390  175.2550  146.5390 C   0  0  0  0  0  2  0  0  0  0  0  0
  191.9810  173.2110  143.4570 C   0  0  2  0  0  3  0  0  0  0  0  0
  194.8970  172.7560  143.8840 F   0  0  0  0  0  0  0  0  0  0  0  0
  190.4870  177.5570  145.0170 C   0  0  0  0  0  2  0  0  0  0  0  0
  192.4400  176.5590  146.1340 C   0  0  0  0  0  2  0  0  0  0  0  0
  193.1430  173.7280  142.5750 C   0  0  0  0  0  2  0  0  0  0  0  0
  188.5950  174.4010  140.4090 C   0  0  0  0  0  2  0  0  0  0  0  0
  187.8820  173.8310  141.6340 C   0  0  1  0  0  3  0  0  0  0  0  0
  191.5660  176.4850  144.8690 C   0  0  1  0  0  3  0  0  0  0  0  0
  190.6680  173.5100  142.8620 N   0  0  2  0  0  0  0  0  0  0  0  0
  194.1690  174.8900  144.4030 O   0  0  0  0  0  0  0  0  0  0  0  0
  188.5800  176.5830  143.7360 C   0  0  1  0  0  3  0  0  0  0  0  0
  195.4640  174.5290  142.4450 C   0  0  0  0  0  1  0  0  0  0  0  0
  189.0560  173.0700  140.9780 C   0  0  2  0  0  3  0  0  0  0  0  0
  190.5270  173.2670  141.4110 C   0  0  2  0  0  3  0  0  0  0  0  0
  189.6060  177.7100  143.7850 C   0  0  0  0  0  2  0  0  0  0  0  0
  186.1940  177.2170  144.1240 C   0  0  0  0  0  3  0  0  0  0  0  0
  187.2660  177.0970  143.2330 C   0  0  0  0  0  0  0  0  0  0  0  0
  187.0910  177.4480  141.8850 C   0  0  0  0  0  3  0  0  0  0  0  0
  185.6870  178.2540  140.1360 F   0  0  0  0  0  0  0  0  0  0  0  0
  184.7850  178.0360  142.3320 C   0  0  0  0  0  3  0  0  0  0  0  0
  185.8520  177.9170  141.4370 C   0  0  0  0  0  0  0  0  0  0  0  0
  184.9560  177.6860  143.6740 C   0  0  0  0  0  3  0  0  0  0  0  0
  191.2760  172.0080  140.9650 C   0  0  0  0  0  2  0  0  0  0  0  0
  191.6800  172.1240  139.5680 N   0  0  0  0  0  0  0  0  0  0  0  0
  191.5510  173.8040  137.8320 C   0  0  0  0  0  2  0  0  0  0  0  0
  192.0440  173.3860  138.9920 C   0  0  0  0  0  3  0  0  0  0  0  0
  191.8470  170.9530  138.8140 N   0  0  0  0  0  2  0  0  0  0  0  0
  190.6890  170.1060  139.0540 C   0  0  0  0  0  2  0  0  0  0  0  0
  189.6800  170.3060  137.9420 C   0  0  0  0  0  1  0  0  0  0  0  0
  1 20  1  6  0  0  0
  1 10  1  0  0  0  0
  1 18  1  0  0  0  0
  2  6  1  0  0  0  0
  2 16  1  0  0  0  0
  4  8  1  0  0  0  0
  5  2  1  0  0  0  0
  6  4  1  0  0  0  0
  7  3  1  0  0  0  0
  7  5  1  0  0  0  0
  7 19  1  0  0  0  0
  9  6  1  0  0  0  0
 12  8  1  0  0  0  0
 13  1  1  0  0  0  0
 13  9  1  0  0  0  0
 14 21  1  0  0  0  0
 14 15  1  0  0  0  0
 15  3  1  0  0  0  0
 16 11  1  0  0  0  0
 16 12  1  0  0  0  0
 17  5  1  0  0  0  0
 17  9  1  0  0  0  0
 18  4  1  0  0  0  0
 19 23  1  0  0  0  0
 21 22  1  0  0  0  0
 21 15  1  0  0  0  0
 22 17  1  0  0  0  0
 23 11  1  0  0  0  0
 25 19  1  0  0  0  0
 25 24  2  0  0  0  0
 26 25  1  0  0  0  0
 27 29  1  0  0  0  0
 28 30  2  0  0  0  0
 29 26  2  0  0  0  0
 29 28  1  0  0  0  0
 30 24  1  0  0  0  0
 31 22  1  0  0  0  0
 32 31  1  0  0  0  0
 33 34  2  0  0  0  0
 34 32  1  0  0  0  0
 35 36  1  0  0  0  0
 35 32  1  0  0  0  0
 37 36  1  0  0  0  0
M  END
>  <MODEL>
6

>  <REMARK>
 VINA RESULT:      -7.1      2.091      5.204
  Name = 
  6 active torsions:
  status: ('A' for Active; 'I' for Inactive)
    1  A    between atoms: C_1  and  N_4
    2  A    between atoms: C_1  and  C_27
    3  A    between atoms: N_4  and  N_12
    4  A    between atoms: N_4  and  C_37
    5  A    between atoms: C_8  and  N_12
    6  A    between atoms: C_23  and  C_30
                            x       y       z     vdW  Elec       q    Type
                         _______ _______ _______ _____ _____    ______ ____

>  <TORSDO>
F 6

$$$$
=
 OpenBabel11112417273D

 37 43  0  0  1  0  0  0  0  0999 V2000
  192.3300  171.6920  142.5080 C   0  0  1  0  0  0  0  0  0  0  0  0
  190.3040  174.9570  142.1810 C   0  0  1  0  0  3  0  0  0  0  0  0
  190.0070  177.0380  144.7600 O   0  0  0  0  0  0  0  0  0  0  0  0
  191.8600  173.2870  140.9210 C   0  0  2  0  0  3  0  0  0  0  0  0
  190.1710  174.8970  143.7020 C   0  0  2  0  0  3  0  0  0  0  0  0
  191.7240  174.4280  141.9450 C   0  0  2  0  0  3  0  0  0  0  0  0
  189.2430  175.9440  144.3240 C   0  0  2  0  0  3  0  0  0  0  0  0
  191.0170  173.6190  139.7000 C   0  0  0  0  0  2  0  0  0  0  0  0
  192.2850  174.1040  143.3300 C   0  0  2  0  0  3  0  0  0  0  0  0
  193.6640  171.7500  142.1260 F   0  0  0  0  0  0  0  0  0  0  0  0
  187.8670  174.8730  141.4760 C   0  0  0  0  0  2  0  0  0  0  0  0
  189.5270  173.7680  140.0340 C   0  0  0  0  0  2  0  0  0  0  0  0
  192.0710  172.6150  143.6920 C   0  0  0  0  0  2  0  0  0  0  0  0
  189.8070  175.7690  146.9710 C   0  0  0  0  0  2  0  0  0  0  0  0
  190.2460  176.9890  146.1630 C   0  0  1  0  0  3  0  0  0  0  0  0
  189.2010  174.1280  141.4940 C   0  0  1  0  0  3  0  0  0  0  0  0
  191.5370  174.9990  144.2270 N   0  0  2  0  0  0  0  0  0  0  0  0
  191.4710  172.0360  141.4440 O   0  0  0  0  0  0  0  0  0  0  0  0
  188.0690  176.3900  143.4470 C   0  0  1  0  0  3  0  0  0  0  0  0
  192.0220  170.2750  142.9400 C   0  0  0  0  0  1  0  0  0  0  0  0
  191.2650  175.8990  146.5640 C   0  0  2  0  0  3  0  0  0  0  0  0
  191.5790  174.6770  145.6700 C   0  0  2  0  0  3  0  0  0  0  0  0
  187.3270  175.1920  142.8630 C   0  0  0  0  0  2  0  0  0  0  0  0
  186.5990  176.7950  145.4270 C   0  0  0  0  0  3  0  0  0  0  0  0
  187.1250  177.2610  144.2180 C   0  0  0  0  0  0  0  0  0  0  0  0
  186.7540  178.5300  143.7430 C   0  0  0  0  0  3  0  0  0  0  0  0
  185.5090  180.5430  144.0150 F   0  0  0  0  0  0  0  0  0  0  0  0
  185.3420  178.8490  145.6840 C   0  0  0  0  0  3  0  0  0  0  0  0
  185.8650  179.3210  144.4760 C   0  0  0  0  0  0  0  0  0  0  0  0
  185.7090  177.5870  146.1590 C   0  0  0  0  0  3  0  0  0  0  0  0
  192.9570  174.1730  146.1040 C   0  0  0  0  0  2  0  0  0  0  0  0
  193.9790  175.1750  145.8200 N   0  0  0  0  0  0  0  0  0  0  0  0
  194.6160  177.5000  146.0310 C   0  0  0  0  0  2  0  0  0  0  0  0
  194.0300  176.4190  146.5330 C   0  0  0  0  0  3  0  0  0  0  0  0
  195.0120  174.8540  144.9280 N   0  0  0  0  0  2  0  0  0  0  0  0
  195.5050  173.5320  145.2830 C   0  0  0  0  0  2  0  0  0  0  0  0
  196.8180  173.6670  146.0250 C   0  0  0  0  0  1  0  0  0  0  0  0
  1 20  1  1  0  0  0
  1 13  1  0  0  0  0
  2  5  1  0  0  0  0
  3 15  1  0  0  0  0
  4 18  1  0  0  0  0
  4  6  1  0  0  0  0
  5 17  1  0  0  0  0
  5  7  1  0  0  0  0
  6  2  1  0  0  0  0
  6  9  1  0  0  0  0
  7  3  1  0  0  0  0
  8 12  1  0  0  0  0
  8  4  1  0  0  0  0
  9 13  1  0  0  0  0
  9 17  1  0  0  0  0
 10  1  1  0  0  0  0
 11 16  1  0  0  0  0
 11 23  1  0  0  0  0
 12 16  1  0  0  0  0
 15 21  1  0  0  0  0
 15 14  1  0  0  0  0
 16  2  1  0  0  0  0
 17 22  1  0  0  0  0
 18  1  1  0  0  0  0
 19 25  1  0  0  0  0
 19  7  1  0  0  0  0
 21 14  1  0  0  0  0
 22 31  1  0  0  0  0
 22 21  1  0  0  0  0
 23 19  1  0  0  0  0
 24 30  1  0  0  0  0
 25 24  2  0  0  0  0
 26 25  1  0  0  0  0
 26 29  2  0  0  0  0
 27 29  1  0  0  0  0
 28 30  2  0  0  0  0
 29 28  1  0  0  0  0
 32 31  1  0  0  0  0
 32 34  1  0  0  0  0
 33 34  2  0  0  0  0
 35 36  1  0  0  0  0
 35 32  1  0  0  0  0
 36 37  1  0  0  0  0
M  END
>  <MODEL>
7

>  <REMARK>
 VINA RESULT:      -7.1      1.818      2.242
  Name = 
  6 active torsions:
  status: ('A' for Active; 'I' for Inactive)
    1  A    between atoms: C_1  and  N_4
    2  A    between atoms: C_1  and  C_27
    3  A    between atoms: N_4  and  N_12
    4  A    between atoms: N_4  and  C_37
    5  A    between atoms: C_8  and  N_12
    6  A    between atoms: C_23  and  C_30
                            x       y       z     vdW  Elec       q    Type
                         _______ _______ _______ _____ _____    ______ ____

>  <TORSDO>
F 6

$$$$
=
 OpenBabel11112417273D

 37 43  0  0  1  0  0  0  0  0999 V2000
  195.6540  173.7430  142.2650 C   0  0  1  0  0  0  0  0  0  0  0  0
  192.9340  174.3440  144.9330 C   0  0  1  0  0  3  0  0  0  0  0  0
  189.7150  173.9410  144.1960 O   0  0  0  0  0  0  0  0  0  0  0  0
  195.3650  173.4900  144.5310 C   0  0  2  0  0  3  0  0  0  0  0  0
  191.9840  174.5620  143.7550 C   0  0  2  0  0  3  0  0  0  0  0  0
  193.8520  173.2260  144.4230 C   0  0  2  0  0  3  0  0  0  0  0  0
  190.5780  175.0450  144.1250 C   0  0  2  0  0  3  0  0  0  0  0  0
  195.6630  174.0820  145.9000 C   0  0  0  0  0  2  0  0  0  0  0  0
  193.3680  172.8980  143.0100 C   0  0  2  0  0  3  0  0  0  0  0  0
  196.2130  172.4730  142.2250 F   0  0  0  0  0  0  0  0  0  0  0  0
  192.7790  176.5900  146.1050 C   0  0  0  0  0  2  0  0  0  0  0  0
  194.9410  175.4140  146.1370 C   0  0  0  0  0  2  0  0  0  0  0  0
  194.1670  173.6850  141.9430 C   0  0  0  0  0  2  0  0  0  0  0  0
  189.1920  174.7170  141.8170 C   0  0  0  0  0  2  0  0  0  0  0  0
  188.9310  173.8070  143.0150 C   0  0  1  0  0  3  0  0  0  0  0  0
  193.6710  175.6470  145.2990 C   0  0  1  0  0  3  0  0  0  0  0  0
  191.9490  173.2880  143.0290 N   0  0  2  0  0  0  0  0  0  0  0  0
  195.8410  174.3540  143.5220 O   0  0  0  0  0  0  0  0  0  0  0  0
  190.4890  175.9150  145.3820 C   0  0  1  0  0  3  0  0  0  0  0  0
  196.3300  174.5930  141.2100 C   0  0  0  0  0  1  0  0  0  0  0  0
  189.7480  173.3040  141.8030 C   0  0  2  0  0  3  0  0  0  0  0  0
  191.2860  173.4410  141.7160 C   0  0  2  0  0  3  0  0  0  0  0  0
  191.5280  177.0310  145.3600 C   0  0  0  0  0  2  0  0  0  0  0  0
  188.6220  177.3620  144.5640 C   0  0  0  0  0  3  0  0  0  0  0  0
  189.1130  176.4880  145.5400 C   0  0  0  0  0  0  0  0  0  0  0  0
  188.3170  176.1700  146.6520 C   0  0  0  0  0  3  0  0  0  0  0  0
  186.2740  176.4160  147.8550 F   0  0  0  0  0  0  0  0  0  0  0  0
  186.5540  177.5970  145.8030 C   0  0  0  0  0  3  0  0  0  0  0  0
  187.0390  176.7240  146.7810 C   0  0  0  0  0  0  0  0  0  0  0  0
  187.3450  177.9150  144.6950 C   0  0  0  0  0  3  0  0  0  0  0  0
  191.7530  172.3840  140.7120 C   0  0  0  0  0  2  0  0  0  0  0  0
  191.5160  172.8390  139.3460 N   0  0  0  0  0  0  0  0  0  0  0  0
  193.5950  173.4750  138.2850 C   0  0  0  0  0  2  0  0  0  0  0  0
  192.3780  173.7930  138.7110 C   0  0  0  0  0  3  0  0  0  0  0  0
  190.5030  172.2240  138.5950 N   0  0  0  0  0  2  0  0  0  0  0  0
  189.8880  173.2470  137.7650 C   0  0  0  0  0  2  0  0  0  0  0  0
  188.5030  173.5590  138.2930 C   0  0  0  0  0  1  0  0  0  0  0  0
  1 20  1  6  0  0  0
  1 18  1  0  0  0  0
  2 16  1  0  0  0  0
  4  8  1  0  0  0  0
  5  7  1  0  0  0  0
  5  2  1  0  0  0  0
  6  4  1  0  0  0  0
  6  2  1  0  0  0  0
  7  3  1  0  0  0  0
  7 19  1  0  0  0  0
  8 12  1  0  0  0  0
  9 17  1  0  0  0  0
  9  6  1  0  0  0  0
 10  1  1  0  0  0  0
 13  1  1  0  0  0  0
 13  9  1  0  0  0  0
 14 15  1  0  0  0  0
 15  3  1  0  0  0  0
 16 11  1  0  0  0  0
 16 12  1  0  0  0  0
 17  5  1  0  0  0  0
 18  4  1  0  0  0  0
 19 25  1  0  0  0  0
 21 14  1  0  0  0  0
 21 15  1  0  0  0  0
 22 21  1  0  0  0  0
 22 17  1  0  0  0  0
 23 19  1  0  0  0  0
 23 11  1  0  0  0  0
 24 30  2  0  0  0  0
 24 25  1  0  0  0  0
 25 26  2  0  0  0  0
 26 29  1  0  0  0  0
 28 29  2  0  0  0  0
 29 27  1  0  0  0  0
 30 28  1  0  0  0  0
 31 22  1  0  0  0  0
 32 31  1  0  0  0  0
 33 34  2  0  0  0  0
 34 32  1  0  0  0  0
 35 32  1  0  0  0  0
 36 37  1  0  0  0  0
 36 35  1  0  0  0  0
M  END
>  <MODEL>
8

>  <REMARK>
 VINA RESULT:      -6.9      2.781      5.828
  Name = 
  6 active torsions:
  status: ('A' for Active; 'I' for Inactive)
    1  A    between atoms: C_1  and  N_4
    2  A    between atoms: C_1  and  C_27
    3  A    between atoms: N_4  and  N_12
    4  A    between atoms: N_4  and  C_37
    5  A    between atoms: C_8  and  N_12
    6  A    between atoms: C_23  and  C_30
                            x       y       z     vdW  Elec       q    Type
                         _______ _______ _______ _____ _____    ______ ____

>  <TORSDO>
F 6

$$$$
=
 OpenBabel11112417273D

 37 43  0  0  1  0  0  0  0  0999 V2000
  191.6860  176.1330  147.5390 C   0  0  1  0  0  0  0  0  0  0  0  0
  192.1180  175.5900  143.7450 C   0  0  1  0  0  3  0  0  0  0  0  0
  189.6240  176.2390  141.6420 O   0  0  0  0  0  0  0  0  0  0  0  0
  193.3310  176.3000  145.9420 C   0  0  2  0  0  3  0  0  0  0  0  0
  190.5940  175.4900  143.6980 C   0  0  2  0  0  3  0  0  0  0  0  0
  192.3530  176.6670  144.8110 C   0  0  2  0  0  3  0  0  0  0  0  0
  190.0030  175.0850  142.3450 C   0  0  2  0  0  3  0  0  0  0  0  0
  194.5520  175.6270  145.3360 C   0  0  0  0  0  2  0  0  0  0  0  0
  190.9640  177.0920  145.2910 C   0  0  2  0  0  3  0  0  0  0  0  0
  192.0890  177.3630  148.0390 F   0  0  0  0  0  0  0  0  0  0  0  0
  192.7840  173.3070  142.8560 C   0  0  0  0  0  2  0  0  0  0  0  0
  194.2030  174.3350  144.5850 C   0  0  0  0  0  2  0  0  0  0  0  0
  190.5380  176.3040  146.5530 C   0  0  0  0  0  2  0  0  0  0  0  0
  187.3590  175.6090  142.6490 C   0  0  0  0  0  2  0  0  0  0  0  0
  188.2240  176.4790  141.7380 C   0  0  1  0  0  3  0  0  0  0  0  0
  192.7540  174.2260  144.0770 C   0  0  1  0  0  3  0  0  0  0  0  0
  190.0940  176.7960  144.1410 N   0  0  2  0  0  0  0  0  0  0  0  0
  192.7500  175.4540  146.9110 O   0  0  0  0  0  0  0  0  0  0  0  0
  190.8810  174.1650  141.4900 C   0  0  1  0  0  3  0  0  0  0  0  0
  191.1910  175.2900  148.6950 C   0  0  0  0  0  1  0  0  0  0  0  0
  187.7920  176.9820  143.1340 C   0  0  2  0  0  3  0  0  0  0  0  0
  188.6400  176.7480  144.4060 C   0  0  2  0  0  3  0  0  0  0  0  0
  191.4040  172.9850  142.3020 C   0  0  0  0  0  2  0  0  0  0  0  0
  188.8730  173.0930  140.4560 C   0  0  0  0  0  3  0  0  0  0  0  0
  190.1330  173.6780  140.2860 C   0  0  0  0  0  0  0  0  0  0  0  0
  190.6780  173.7890  138.9970 C   0  0  0  0  0  3  0  0  0  0  0  0
  190.4940  173.4270  136.6490 F   0  0  0  0  0  0  0  0  0  0  0  0
  188.7060  172.7360  138.0670 C   0  0  0  0  0  3  0  0  0  0  0  0
  189.9650  173.3190  137.8900 C   0  0  0  0  0  0  0  0  0  0  0  0
  188.1610  172.6240  139.3490 C   0  0  0  0  0  3  0  0  0  0  0  0
  188.2050  177.8170  145.4110 C   0  0  0  0  0  2  0  0  0  0  0  0
  186.7590  177.7800  145.6010 N   0  0  0  0  0  0  0  0  0  0  0  0
  186.3060  176.7700  147.7530 C   0  0  0  0  0  2  0  0  0  0  0  0
  186.1350  176.7940  146.4360 C   0  0  0  0  0  3  0  0  0  0  0  0
  185.9800  178.8160  145.0650 N   0  0  0  0  0  2  0  0  0  0  0  0
  184.6800  178.2590  144.7260 C   0  0  0  0  0  2  0  0  0  0  0  0
  184.0860  179.0350  143.5700 C   0  0  0  0  0  1  0  0  0  0  0  0
  1 10  1  0  0  0  0
  1 20  1  1  0  0  0
  2 16  1  0  0  0  0
  2  6  1  0  0  0  0
  3 15  1  0  0  0  0
  3  7  1  0  0  0  0
  4 18  1  0  0  0  0
  5  2  1  0  0  0  0
  5 17  1  0  0  0  0
  6  9  1  0  0  0  0
  6  4  1  0  0  0  0
  7  5  1  0  0  0  0
  8  4  1  0  0  0  0
  9 13  1  0  0  0  0
 11 16  1  0  0  0  0
 12  8  1  0  0  0  0
 13  1  1  0  0  0  0
 14 21  1  0  0  0  0
 15 14  1  0  0  0  0
 15 21  1  0  0  0  0
 16 12  1  0  0  0  0
 17 22  1  0  0  0  0
 17  9  1  0  0  0  0
 18  1  1  0  0  0  0
 19 23  1  0  0  0  0
 19  7  1  0  0  0  0
 21 22  1  0  0  0  0
 22 31  1  0  0  0  0
 23 11  1  0  0  0  0
 25 24  1  0  0  0  0
 25 19  1  0  0  0  0
 26 25  2  0  0  0  0
 27 29  1  0  0  0  0
 28 30  1  0  0  0  0
 29 28  2  0  0  0  0
 29 26  1  0  0  0  0
 30 24  2  0  0  0  0
 31 32  1  0  0  0  0
 32 34  1  0  0  0  0
 34 33  2  0  0  0  0
 35 32  1  0  0  0  0
 36 35  1  0  0  0  0
 37 36  1  0  0  0  0
M  END
>  <MODEL>
9

>  <REMARK>
 VINA RESULT:      -6.6      3.002      6.006
  Name = 
  6 active torsions:
  status: ('A' for Active; 'I' for Inactive)
    1  A    between atoms: C_1  and  N_4
    2  A    between atoms: C_1  and  C_27
    3  A    between atoms: N_4  and  N_12
    4  A    between atoms: N_4  and  C_37
    5  A    between atoms: C_8  and  N_12
    6  A    between atoms: C_23  and  C_30
                            x       y       z     vdW  Elec       q    Type
                         _______ _______ _______ _____ _____    ______ ____

>  <TORSDO>
F 6

$$$$
