=
 OpenBabel11112417533D

 34 41  0  0  1  0  0  0  0  0999 V2000
  189.2850  175.2250  142.8610 C   0  0  0  0  0  0  0  0  0  0  0  0
  191.4970  173.9190  142.7750 C   0  0  0  0  0  3  0  0  0  0  0  0
  185.5620  179.2250  145.6960 C   0  0  0  0  0  0  0  0  0  0  0  0
  187.2080  176.4500  143.1380 C   0  0  0  0  0  0  0  0  0  0  0  0
  186.6100  177.2320  145.3620 C   0  0  0  0  0  0  0  0  0  0  0  0
  184.3520  177.3850  146.6650 C   0  0  0  0  0  1  0  0  0  0  0  0
  186.1280  179.0130  147.0660 O   0  0  0  0  0  0  0  0  0  0  0  0
  184.9240  179.2450  143.3870 C   0  0  0  0  0  2  0  0  0  0  0  0
  190.7360  174.7960  144.8320 C   0  0  0  0  0  0  0  0  0  0  0  0
  192.5480  176.0780  146.7940 C   0  0  0  0  0  2  0  0  0  0  0  0
  187.7530  176.6860  145.8600 N   0  0  0  0  0  0  0  0  0  0  0  0
  185.0000  177.6930  143.4280 C   0  0  0  0  0  2  0  0  0  0  0  0
  189.8820  175.4430  145.6590 C   0  0  0  0  0  0  0  0  0  0  0  0
  192.4810  173.5010  143.8760 C   0  0  0  0  0  3  0  0  0  0  0  0
  186.3030  177.1240  143.9760 C   0  0  0  0  0  0  0  0  0  0  0  0
  185.2450  179.9170  144.6560 N   0  0  0  0  0  0  0  0  0  0  0  0
  193.0640  175.1430  145.6920 C   0  0  2  0  0  3  0  0  0  0  0  0
  188.3800  175.9010  143.6910 C   0  0  0  0  0  0  0  0  0  0  0  0
  185.6880  177.9870  146.2720 C   0  0  2  0  0  0  0  0  0  0  0  0
  188.6410  176.0240  145.0710 C   0  0  0  0  0  0  0  0  0  0  0  0
  187.9060  175.6220  140.9720 C   0  0  0  0  0  3  0  0  0  0  0  0
  191.5220  175.3870  147.6820 C   0  0  0  0  0  2  0  0  0  0  0  0
  186.9760  176.3040  141.7630 C   0  0  0  0  0  3  0  0  0  0  0  0
  190.0960  175.5770  147.1550 C   0  0  0  0  0  2  0  0  0  0  0  0
  192.0150  174.1340  145.1970 C   0  0  1  0  0  3  0  0  0  0  0  0
  189.0320  175.1000  141.5300 N   0  0  0  0  0  0  0  0  0  0  0  0
  190.4650  174.6730  143.4500 N   0  0  0  0  0  0  0  0  0  0  0  0
  194.1890  174.4560  146.1580 O   0  0  0  0  0  0  0  0  0  0  0  0
  195.2720  175.2900  145.8580 C   0  0  0  0  0  2  0  0  0  0  0  0
  197.1740  176.6020  143.2230 N   0  0  0  0  0  2  0  0  0  0  0  0
  197.1590  174.5270  144.4040 C   0  0  0  0  0  2  0  0  0  0  0  0
  195.7540  175.0700  144.4290 C   0  0  2  0  0  3  0  0  0  0  0  0
  197.8460  175.3150  143.3170 C   0  0  0  0  0  2  0  0  0  0  0  0
  195.8000  176.3720  143.6510 C   0  0  0  0  0  2  0  0  0  0  0  0
  1 27  1  0  0  0  0
  1 18  1  0  0  0  0
  2 27  1  0  0  0  0
  2 14  2  0  0  0  0
  3 19  1  0  0  0  0
  3  7  1  0  0  0  0
  4 18  2  0  0  0  0
  4 15  1  0  0  0  0
  5 11  1  0  0  0  0
  5 19  1  0  0  0  0
  8 12  1  0  0  0  0
  8 16  1  0  0  0  0
  9 25  1  0  0  0  0
  9 13  2  0  0  0  0
 10 22  1  0  0  0  0
 12 15  1  0  0  0  0
 13 24  1  0  0  0  0
 15  5  2  0  0  0  0
 16  3  2  0  0  0  0
 17 28  1  1  0  0  0
 17 10  1  0  0  0  0
 18 20  1  0  0  0  0
 19  6  1  1  0  0  0
 19  7  1  0  0  0  0
 20 13  1  0  0  0  0
 20 11  2  0  0  0  0
 21 26  1  0  0  0  0
 21 23  2  0  0  0  0
 23  4  1  0  0  0  0
 24 22  1  0  0  0  0
 25 14  1  6  0  0  0
 25 17  1  0  0  0  0
 26  1  2  0  0  0  0
 27  9  1  0  0  0  0
 29 28  1  0  0  0  0
 30 33  1  0  0  0  0
 30 34  1  0  0  0  0
 31 32  1  0  0  0  0
 32 29  1  1  0  0  0
 33 31  1  0  0  0  0
 34 32  1  0  0  0  0
M  END
>  <MODEL>
1

>  <REMARK>
 VINA RESULT:      -9.3      0.000      0.000
  Name = 
  3 active torsions:
  status: ('A' for Active; 'I' for Inactive)
    1  A    between atoms: C_17  and  O_28
    2  A    between atoms: O_28  and  C_29
    3  A    between atoms: C_29  and  C_32
                            x       y       z     vdW  Elec       q    Type
                         _______ _______ _______ _____ _____    ______ ____

>  <TORSDO>
F 3

$$$$
=
 OpenBabel11112417533D

 34 41  0  0  1  0  0  0  0  0999 V2000
  189.3510  175.1560  142.8300 C   0  0  0  0  0  0  0  0  0  0  0  0
  191.5490  173.8280  142.7140 C   0  0  0  0  0  3  0  0  0  0  0  0
  185.6930  179.1690  145.7300 C   0  0  0  0  0  0  0  0  0  0  0  0
  187.2900  176.4000  143.1350 C   0  0  0  0  0  0  0  0  0  0  0  0
  186.7170  177.1680  145.3700 C   0  0  0  0  0  0  0  0  0  0  0  0
  184.4720  177.3330  146.6930 C   0  0  0  0  0  1  0  0  0  0  0  0
  186.2680  178.9390  147.0930 O   0  0  0  0  0  0  0  0  0  0  0  0
  185.0360  179.2160  143.4270 C   0  0  0  0  0  2  0  0  0  0  0  0
  190.8130  174.6960  144.7850 C   0  0  0  0  0  0  0  0  0  0  0  0
  192.6550  175.9410  146.7430 C   0  0  0  0  0  2  0  0  0  0  0  0
  187.8580  176.6060  145.8540 N   0  0  0  0  0  0  0  0  0  0  0  0
  185.0970  177.6630  143.4530 C   0  0  0  0  0  2  0  0  0  0  0  0
  189.9730  175.3440  145.6250 C   0  0  0  0  0  0  0  0  0  0  0  0
  192.5380  173.3910  143.8040 C   0  0  0  0  0  3  0  0  0  0  0  0
  186.3980  177.0750  143.9850 C   0  0  0  0  0  0  0  0  0  0  0  0
  185.3740  179.8740  144.6990 N   0  0  0  0  0  0  0  0  0  0  0  0
  193.1530  175.0110  145.6290 C   0  0  2  0  0  3  0  0  0  0  0  0
  188.4600  175.8340  143.6730 C   0  0  0  0  0  0  0  0  0  0  0  0
  185.8100  177.9250  146.2940 C   0  0  2  0  0  0  0  0  0  0  0  0
  188.7330  175.9420  145.0520 C   0  0  0  0  0  0  0  0  0  0  0  0
  187.9620  175.5840  140.9560 C   0  0  0  0  0  3  0  0  0  0  0  0
  191.6290  175.2530  147.6340 C   0  0  0  0  0  2  0  0  0  0  0  0
  187.0450  176.2690  141.7610 C   0  0  0  0  0  3  0  0  0  0  0  0
  190.2010  175.4620  147.1200 C   0  0  0  0  0  2  0  0  0  0  0  0
  192.0880  174.0170  145.1340 C   0  0  1  0  0  3  0  0  0  0  0  0
  189.0870  175.0460  141.5000 N   0  0  0  0  0  0  0  0  0  0  0  0
  190.5310  174.5870  143.4040 N   0  0  0  0  0  0  0  0  0  0  0  0
  194.2740  174.3080  146.0800 O   0  0  0  0  0  0  0  0  0  0  0  0
  195.3610  175.1410  145.7930 C   0  0  0  0  0  2  0  0  0  0  0  0
  196.9830  172.0380  145.9300 N   0  0  0  0  0  2  0  0  0  0  0  0
  196.1890  173.4340  144.1630 C   0  0  0  0  0  2  0  0  0  0  0  0
  196.5610  174.3320  145.3150 C   0  0  2  0  0  3  0  0  0  0  0  0
  196.8560  172.1200  144.4830 C   0  0  0  0  0  2  0  0  0  0  0  0
  197.0810  173.4120  146.4040 C   0  0  0  0  0  2  0  0  0  0  0  0
  1 27  1  0  0  0  0
  1 18  1  0  0  0  0
  2 27  1  0  0  0  0
  2 14  2  0  0  0  0
  3 19  1  0  0  0  0
  3  7  1  0  0  0  0
  4 18  2  0  0  0  0
  4 15  1  0  0  0  0
  5 11  1  0  0  0  0
  5 19  1  0  0  0  0
  8 12  1  0  0  0  0
  8 16  1  0  0  0  0
  9 25  1  0  0  0  0
  9 13  2  0  0  0  0
 10 22  1  0  0  0  0
 12 15  1  0  0  0  0
 13 24  1  0  0  0  0
 15  5  2  0  0  0  0
 16  3  2  0  0  0  0
 17 28  1  1  0  0  0
 17 10  1  0  0  0  0
 18 20  1  0  0  0  0
 19  6  1  1  0  0  0
 19  7  1  0  0  0  0
 20 13  1  0  0  0  0
 20 11  2  0  0  0  0
 21 26  1  0  0  0  0
 21 23  2  0  0  0  0
 23  4  1  0  0  0  0
 24 22  1  0  0  0  0
 25 14  1  6  0  0  0
 25 17  1  0  0  0  0
 26  1  2  0  0  0  0
 27  9  1  0  0  0  0
 29 28  1  0  0  0  0
 30 34  1  0  0  0  0
 31 33  1  0  0  0  0
 31 32  1  0  0  0  0
 32 29  1  1  0  0  0
 32 34  1  0  0  0  0
 33 30  1  0  0  0  0
M  END
>  <MODEL>
2

>  <REMARK>
 VINA RESULT:      -9.2      1.148      1.366
  Name = 
  3 active torsions:
  status: ('A' for Active; 'I' for Inactive)
    1  A    between atoms: C_17  and  O_28
    2  A    between atoms: O_28  and  C_29
    3  A    between atoms: C_29  and  C_32
                            x       y       z     vdW  Elec       q    Type
                         _______ _______ _______ _____ _____    ______ ____

>  <TORSDO>
F 3

$$$$
=
 OpenBabel11112417533D

 34 41  0  0  1  0  0  0  0  0999 V2000
  191.8180  176.4810  145.7400 C   0  0  0  0  0  0  0  0  0  0  0  0
  189.4990  176.9290  146.7550 C   0  0  0  0  0  3  0  0  0  0  0  0
  195.4750  175.9760  140.8140 C   0  0  0  0  0  0  0  0  0  0  0  0
  193.9150  175.9860  144.6250 C   0  0  0  0  0  0  0  0  0  0  0  0
  193.8590  175.3340  142.2820 C   0  0  0  0  0  0  0  0  0  0  0  0
  195.1910  173.5880  140.8700 C   0  0  0  0  0  1  0  0  0  0  0  0
  194.3800  175.6510  139.8460 O   0  0  0  0  0  0  0  0  0  0  0  0
  196.9150  176.4780  142.6620 C   0  0  0  0  0  2  0  0  0  0  0  0
  189.6820  176.3100  144.4830 C   0  0  0  0  0  0  0  0  0  0  0  0
  188.0550  177.5620  142.3470 C   0  0  0  0  0  2  0  0  0  0  0  0
  192.5020  175.4510  142.2840 N   0  0  0  0  0  0  0  0  0  0  0  0
  196.1200  175.4180  143.4750 C   0  0  0  0  0  2  0  0  0  0  0  0
  190.3240  175.9370  143.3510 C   0  0  0  0  0  0  0  0  0  0  0  0
  188.0860  176.8130  146.1670 C   0  0  0  0  0  3  0  0  0  0  0  0
  194.6070  175.5970  143.4650 C   0  0  0  0  0  0  0  0  0  0  0  0
  196.4630  176.6650  141.2740 N   0  0  0  0  0  0  0  0  0  0  0  0
  187.6560  177.6320  143.8270 C   0  0  2  0  0  3  0  0  0  0  0  0
  192.5130  176.0970  144.5860 C   0  0  0  0  0  0  0  0  0  0  0  0
  194.5720  174.9650  141.0160 C   0  0  2  0  0  0  0  0  0  0  0  0
  191.8100  175.8190  143.3950 C   0  0  0  0  0  0  0  0  0  0  0  0
  193.8490  176.6430  146.9550 C   0  0  0  0  0  3  0  0  0  0  0  0
  188.1910  176.1210  141.8690 C   0  0  0  0  0  2  0  0  0  0  0  0
  194.5830  176.2630  145.8260 C   0  0  0  0  0  3  0  0  0  0  0  0
  189.6170  175.5950  142.0540 C   0  0  0  0  0  2  0  0  0  0  0  0
  188.2180  176.4770  144.6730 C   0  0  1  0  0  3  0  0  0  0  0  0
  192.4930  176.7440  146.8910 N   0  0  0  0  0  0  0  0  0  0  0  0
  190.3930  176.5820  145.6740 N   0  0  0  0  0  0  0  0  0  0  0  0
  186.2630  177.6510  143.9300 O   0  0  0  0  0  0  0  0  0  0  0  0
  185.9110  179.0010  143.8230 C   0  0  0  0  0  2  0  0  0  0  0  0
  184.0950  177.9850  146.6420 N   0  0  0  0  0  2  0  0  0  0  0  0
  185.9990  179.3840  146.2930 C   0  0  0  0  0  2  0  0  0  0  0  0
  185.1440  179.4680  145.0550 C   0  0  2  0  0  3  0  0  0  0  0  0
  185.0860  178.7920  147.3380 C   0  0  0  0  0  2  0  0  0  0  0  0
  183.9380  178.5870  145.3250 C   0  0  0  0  0  2  0  0  0  0  0  0
  1 26  1  0  0  0  0
  3 19  1  0  0  0  0
  3 16  2  0  0  0  0
  4 23  2  0  0  0  0
  5 11  1  0  0  0  0
  5 15  2  0  0  0  0
  7  3  1  0  0  0  0
  7 19  1  0  0  0  0
  8 12  1  0  0  0  0
  9 25  1  0  0  0  0
  9 27  1  0  0  0  0
 10 17  1  0  0  0  0
 11 20  2  0  0  0  0
 13 20  1  0  0  0  0
 13  9  2  0  0  0  0
 14  2  2  0  0  0  0
 15 12  1  0  0  0  0
 15  4  1  0  0  0  0
 16  8  1  0  0  0  0
 17 28  1  6  0  0  0
 17 25  1  0  0  0  0
 18  4  1  0  0  0  0
 18  1  2  0  0  0  0
 19  6  1  6  0  0  0
 19  5  1  0  0  0  0
 20 18  1  0  0  0  0
 22 24  1  0  0  0  0
 22 10  1  0  0  0  0
 23 21  1  0  0  0  0
 24 13  1  0  0  0  0
 25 14  1  1  0  0  0
 26 21  2  0  0  0  0
 27  1  1  0  0  0  0
 27  2  1  0  0  0  0
 29 28  1  0  0  0  0
 30 33  1  0  0  0  0
 31 33  1  0  0  0  0
 32 29  1  6  0  0  0
 32 34  1  0  0  0  0
 32 31  1  0  0  0  0
 34 30  1  0  0  0  0
M  END
>  <MODEL>
3

>  <REMARK>
 VINA RESULT:      -8.6      2.319      8.877
  Name = 
  3 active torsions:
  status: ('A' for Active; 'I' for Inactive)
    1  A    between atoms: C_17  and  O_28
    2  A    between atoms: O_28  and  C_29
    3  A    between atoms: C_29  and  C_32
                            x       y       z     vdW  Elec       q    Type
                         _______ _______ _______ _____ _____    ______ ____

>  <TORSDO>
F 3

$$$$
=
 OpenBabel11112417533D

 34 41  0  0  1  0  0  0  0  0999 V2000
  188.8150  174.9370  141.8270 C   0  0  0  0  0  0  0  0  0  0  0  0
  187.5780  176.9700  142.7980 C   0  0  0  0  0  3  0  0  0  0  0  0
  192.0040  169.7370  142.6630 C   0  0  0  0  0  0  0  0  0  0  0  0
  190.0990  173.0220  141.0690 C   0  0  0  0  0  0  0  0  0  0  0  0
  191.6650  171.9880  142.6170 C   0  0  0  0  0  0  0  0  0  0  0  0
  194.0500  170.9610  142.3400 C   0  0  0  0  0  1  0  0  0  0  0  0
  192.5120  170.0900  144.0260 O   0  0  0  0  0  0  0  0  0  0  0  0
  191.0240  169.5730  140.4830 C   0  0  0  0  0  2  0  0  0  0  0  0
  189.1280  175.7940  144.1380 C   0  0  0  0  0  0  0  0  0  0  0  0
  188.6410  175.1970  146.9990 C   0  0  0  0  0  2  0  0  0  0  0  0
  191.3220  172.8980  143.5690 N   0  0  0  0  0  0  0  0  0  0  0  0
  191.4790  171.0410  140.2470 C   0  0  0  0  0  2  0  0  0  0  0  0
  190.0530  174.8460  144.4140 C   0  0  0  0  0  0  0  0  0  0  0  0
  187.6830  177.6790  144.1550 C   0  0  0  0  0  3  0  0  0  0  0  0
  191.0590  172.0290  141.3280 C   0  0  0  0  0  0  0  0  0  0  0  0
  191.3700  169.0180  141.8010 N   0  0  0  0  0  0  0  0  0  0  0  0
  187.8780  176.2990  146.2510 C   0  0  2  0  0  3  0  0  0  0  0  0
  189.7700  173.9430  142.0810 C   0  0  0  0  0  0  0  0  0  0  0  0
  192.6570  170.9110  142.9390 C   0  0  2  0  0  0  0  0  0  0  0  0
  190.4000  173.8710  143.3400 C   0  0  0  0  0  0  0  0  0  0  0  0
  188.5110  174.1320  139.6160 C   0  0  0  0  0  3  0  0  0  0  0  0
  190.1460  175.4250  146.9520 C   0  0  0  0  0  2  0  0  0  0  0  0
  189.4580  173.1240  139.8260 C   0  0  0  0  0  3  0  0  0  0  0  0
  190.7850  174.7430  145.7390 C   0  0  0  0  0  2  0  0  0  0  0  0
  188.6410  176.8670  145.0430 C   0  0  1  0  0  3  0  0  0  0  0  0
  188.2100  175.0110  140.6110 N   0  0  0  0  0  0  0  0  0  0  0  0
  188.5030  175.8620  142.8710 N   0  0  0  0  0  0  0  0  0  0  0  0
  187.5720  177.3340  147.1390 O   0  0  0  0  0  0  0  0  0  0  0  0
  186.3470  176.9710  147.7090 C   0  0  0  0  0  2  0  0  0  0  0  0
  185.4010  179.6610  145.6740 N   0  0  0  0  0  2  0  0  0  0  0  0
  184.3610  177.6150  146.3310 C   0  0  0  0  0  2  0  0  0  0  0  0
  185.2840  178.0310  147.4470 C   0  0  2  0  0  3  0  0  0  0  0  0
  184.2000  178.8600  145.4950 C   0  0  0  0  0  2  0  0  0  0  0  0
  185.9060  179.3430  147.0030 C   0  0  0  0  0  2  0  0  0  0  0  0
  1 18  1  0  0  0  0
  1 27  1  0  0  0  0
  2 27  1  0  0  0  0
  2 14  2  0  0  0  0
  3 19  1  0  0  0  0
  3  7  1  0  0  0  0
  4 15  2  0  0  0  0
  4 18  1  0  0  0  0
  5 19  1  0  0  0  0
  5 11  2  0  0  0  0
  8 16  1  0  0  0  0
  9 13  2  0  0  0  0
  9 25  1  0  0  0  0
 12  8  1  0  0  0  0
 12 15  1  0  0  0  0
 13 24  1  0  0  0  0
 15  5  1  0  0  0  0
 16  3  2  0  0  0  0
 17 10  1  0  0  0  0
 17 28  1  1  0  0  0
 18 20  2  0  0  0  0
 19  6  1  6  0  0  0
 19  7  1  0  0  0  0
 20 11  1  0  0  0  0
 20 13  1  0  0  0  0
 21 23  2  0  0  0  0
 21 26  1  0  0  0  0
 22 10  1  0  0  0  0
 23  4  1  0  0  0  0
 24 22  1  0  0  0  0
 25 14  1  6  0  0  0
 25 17  1  0  0  0  0
 26  1  2  0  0  0  0
 27  9  1  0  0  0  0
 28 29  1  0  0  0  0
 30 34  1  0  0  0  0
 31 32  1  0  0  0  0
 32 29  1  6  0  0  0
 33 30  1  0  0  0  0
 33 31  1  0  0  0  0
 34 32  1  0  0  0  0
M  END
>  <MODEL>
4

>  <REMARK>
 VINA RESULT:      -8.2      2.896      8.077
  Name = 
  3 active torsions:
  status: ('A' for Active; 'I' for Inactive)
    1  A    between atoms: C_17  and  O_28
    2  A    between atoms: O_28  and  C_29
    3  A    between atoms: C_29  and  C_32
                            x       y       z     vdW  Elec       q    Type
                         _______ _______ _______ _____ _____    ______ ____

>  <TORSDO>
F 3

$$$$
=
 OpenBabel11112417533D

 34 41  0  0  1  0  0  0  0  0999 V2000
  193.0230  175.7540  142.9230 C   0  0  0  0  0  0  0  0  0  0  0  0
  191.3370  177.6820  143.1320 C   0  0  0  0  0  3  0  0  0  0  0  0
  195.1490  170.3000  144.8300 C   0  0  0  0  0  0  0  0  0  0  0  0
  194.5960  173.9060  142.9200 C   0  0  0  0  0  0  0  0  0  0  0  0
  194.7950  172.5470  144.9270 C   0  0  0  0  0  0  0  0  0  0  0  0
  196.8150  171.4310  146.1480 C   0  0  0  0  0  1  0  0  0  0  0  0
  194.6010  170.4020  146.2200 O   0  0  0  0  0  0  0  0  0  0  0  0
  195.8780  170.5410  142.5610 C   0  0  0  0  0  2  0  0  0  0  0  0
  191.6690  176.2170  144.9540 C   0  0  0  0  0  0  0  0  0  0  0  0
  189.4400  175.2100  146.6260 C   0  0  0  0  0  2  0  0  0  0  0  0
  193.8530  173.3150  145.5390 N   0  0  0  0  0  0  0  0  0  0  0  0
  196.2870  171.9970  142.9230 C   0  0  0  0  0  2  0  0  0  0  0  0
  192.2310  175.1820  145.6210 C   0  0  0  0  0  0  0  0  0  0  0  0
  190.4710  178.1610  144.3050 C   0  0  0  0  0  3  0  0  0  0  0  0
  195.1970  172.8270  143.5900 C   0  0  0  0  0  0  0  0  0  0  0  0
  195.2930  169.7660  143.6660 N   0  0  0  0  0  0  0  0  0  0  0  0
  189.3040  176.4600  145.7470 C   0  0  2  0  0  3  0  0  0  0  0  0
  193.6240  174.6750  143.5860 C   0  0  0  0  0  0  0  0  0  0  0  0
  195.3830  171.3730  145.6510 C   0  0  2  0  0  0  0  0  0  0  0  0
  193.2610  174.3680  144.9130 C   0  0  0  0  0  0  0  0  0  0  0  0
  194.3140  175.3270  140.9790 C   0  0  0  0  0  3  0  0  0  0  0  0
  190.5790  175.3480  147.6280 C   0  0  0  0  0  2  0  0  0  0  0  0
  194.9390  174.2410  141.6020 C   0  0  0  0  0  3  0  0  0  0  0  0
  191.9020  174.8270  147.0580 C   0  0  0  0  0  2  0  0  0  0  0  0
  190.6420  177.1620  145.4610 C   0  0  1  0  0  3  0  0  0  0  0  0
  193.3760  176.0560  141.6440 N   0  0  0  0  0  0  0  0  0  0  0  0
  192.0420  176.5210  143.6250 N   0  0  0  0  0  0  0  0  0  0  0  0
  188.4250  177.3600  146.3560 O   0  0  0  0  0  0  0  0  0  0  0  0
  187.2790  176.6090  146.6410 C   0  0  0  0  0  2  0  0  0  0  0  0
  184.3400  178.4990  146.3840 N   0  0  0  0  0  2  0  0  0  0  0  0
  186.3570  178.3620  145.1140 C   0  0  0  0  0  2  0  0  0  0  0  0
  186.1220  177.0090  145.7340 C   0  0  2  0  0  3  0  0  0  0  0  0
  185.0280  179.0650  145.2330 C   0  0  0  0  0  2  0  0  0  0  0  0
  184.8230  177.1310  146.5110 C   0  0  0  0  0  2  0  0  0  0  0  0
  1 18  1  0  0  0  0
  1 27  1  0  0  0  0
  2 27  1  0  0  0  0
  2 14  2  0  0  0  0
  3 19  1  0  0  0  0
  3  7  1  0  0  0  0
  4 18  2  0  0  0  0
  4 15  1  0  0  0  0
  5 11  1  0  0  0  0
  5 19  1  0  0  0  0
  8 12  1  0  0  0  0
  8 16  1  0  0  0  0
  9 25  1  0  0  0  0
  9 13  2  0  0  0  0
 10 22  1  0  0  0  0
 12 15  1  0  0  0  0
 13 24  1  0  0  0  0
 15  5  2  0  0  0  0
 16  3  2  0  0  0  0
 17 28  1  1  0  0  0
 17 10  1  0  0  0  0
 18 20  1  0  0  0  0
 19  6  1  1  0  0  0
 19  7  1  0  0  0  0
 20 11  2  0  0  0  0
 20 13  1  0  0  0  0
 21 23  2  0  0  0  0
 21 26  1  0  0  0  0
 23  4  1  0  0  0  0
 24 22  1  0  0  0  0
 25 14  1  6  0  0  0
 25 17  1  0  0  0  0
 26  1  2  0  0  0  0
 27  9  1  0  0  0  0
 28 29  1  0  0  0  0
 30 34  1  0  0  0  0
 31 33  1  0  0  0  0
 31 32  1  0  0  0  0
 32 34  1  0  0  0  0
 32 29  1  1  0  0  0
 33 30  1  0  0  0  0
M  END
>  <MODEL>
5

>  <REMARK>
 VINA RESULT:      -8.2      2.838      8.790
  Name = 
  3 active torsions:
  status: ('A' for Active; 'I' for Inactive)
    1  A    between atoms: C_17  and  O_28
    2  A    between atoms: O_28  and  C_29
    3  A    between atoms: C_29  and  C_32
                            x       y       z     vdW  Elec       q    Type
                         _______ _______ _______ _____ _____    ______ ____

>  <TORSDO>
F 3

$$$$
=
 OpenBabel11112417533D

 34 41  0  0  1  0  0  0  0  0999 V2000
  192.1950  175.8080  145.3540 C   0  0  0  0  0  0  0  0  0  0  0  0
  190.0860  177.2580  145.1160 C   0  0  0  0  0  3  0  0  0  0  0  0
  195.5050  170.8960  143.6770 C   0  0  0  0  0  0  0  0  0  0  0  0
  194.0760  174.2840  145.5290 C   0  0  0  0  0  0  0  0  0  0  0  0
  193.8090  172.0110  144.7060 C   0  0  0  0  0  0  0  0  0  0  0  0
  194.6280  169.6840  145.5610 C   0  0  0  0  0  1  0  0  0  0  0  0
  194.3440  170.0970  143.1700 O   0  0  0  0  0  0  0  0  0  0  0  0
  197.0620  172.4590  144.6100 C   0  0  0  0  0  2  0  0  0  0  0  0
  190.0610  175.0220  144.3550 C   0  0  0  0  0  0  0  0  0  0  0  0
  188.7600  174.2090  141.8200 C   0  0  0  0  0  2  0  0  0  0  0  0
  192.5270  172.2940  144.3470 N   0  0  0  0  0  0  0  0  0  0  0  0
  196.0420  172.6770  145.7630 C   0  0  0  0  0  2  0  0  0  0  0  0
  190.5650  173.7850  144.1360 C   0  0  0  0  0  0  0  0  0  0  0  0
  188.6780  176.9370  144.5960 C   0  0  0  0  0  3  0  0  0  0  0  0
  194.6230  173.0080  145.3160 C   0  0  0  0  0  0  0  0  0  0  0  0
  196.6450  171.4920  143.5830 N   0  0  0  0  0  0  0  0  0  0  0  0
  188.4220  175.5280  142.5270 C   0  0  2  0  0  3  0  0  0  0  0  0
  192.7470  174.5370  145.1410 C   0  0  0  0  0  0  0  0  0  0  0  0
  194.3800  170.6540  144.4220 C   0  0  2  0  0  0  0  0  0  0  0  0
  191.9730  173.5190  144.5480 C   0  0  0  0  0  0  0  0  0  0  0  0
  194.2250  176.5700  146.3150 C   0  0  0  0  0  3  0  0  0  0  0  0
  188.5170  173.0080  142.7250 C   0  0  0  0  0  2  0  0  0  0  0  0
  194.8160  175.3170  146.1220 C   0  0  0  0  0  3  0  0  0  0  0  0
  189.7670  172.6450  143.5320 C   0  0  0  0  0  2  0  0  0  0  0  0
  188.6910  175.5040  144.0410 C   0  0  1  0  0  3  0  0  0  0  0  0
  192.9380  176.7900  145.9310 N   0  0  0  0  0  0  0  0  0  0  0  0
  190.8410  176.0360  144.9540 N   0  0  0  0  0  0  0  0  0  0  0  0
  187.0810  175.8460  142.2960 O   0  0  0  0  0  0  0  0  0  0  0  0
  187.1070  176.7910  141.2640 C   0  0  0  0  0  2  0  0  0  0  0  0
  183.8970  178.1870  141.0850 N   0  0  0  0  0  2  0  0  0  0  0  0
  185.4390  177.7600  142.8570 C   0  0  0  0  0  2  0  0  0  0  0  0
  186.2450  178.0010  141.6070 C   0  0  2  0  0  3  0  0  0  0  0  0
  184.0670  178.2910  142.5260 C   0  0  0  0  0  2  0  0  0  0  0  0
  185.2330  178.2910  140.5130 C   0  0  0  0  0  2  0  0  0  0  0  0
  1 26  1  0  0  0  0
  3 19  1  0  0  0  0
  4 23  2  0  0  0  0
  5 15  2  0  0  0  0
  7  3  1  0  0  0  0
  7 19  1  0  0  0  0
  8 12  1  0  0  0  0
  9 27  1  0  0  0  0
 10 17  1  0  0  0  0
 10 22  1  0  0  0  0
 11 20  2  0  0  0  0
 11  5  1  0  0  0  0
 13  9  2  0  0  0  0
 13 20  1  0  0  0  0
 14  2  2  0  0  0  0
 15  4  1  0  0  0  0
 15 12  1  0  0  0  0
 16  3  2  0  0  0  0
 16  8  1  0  0  0  0
 17 28  1  1  0  0  0
 17 25  1  0  0  0  0
 18  1  2  0  0  0  0
 18  4  1  0  0  0  0
 19  5  1  0  0  0  0
 19  6  1  1  0  0  0
 20 18  1  0  0  0  0
 22 24  1  0  0  0  0
 23 21  1  0  0  0  0
 24 13  1  0  0  0  0
 25  9  1  0  0  0  0
 25 14  1  6  0  0  0
 26 21  2  0  0  0  0
 27  2  1  0  0  0  0
 27  1  1  0  0  0  0
 29 28  1  0  0  0  0
 30 33  1  0  0  0  0
 32 29  1  6  0  0  0
 32 31  1  0  0  0  0
 33 31  1  0  0  0  0
 34 30  1  0  0  0  0
 34 32  1  0  0  0  0
M  END
>  <MODEL>
6

>  <REMARK>
 VINA RESULT:      -8.1      2.728      9.114
  Name = 
  3 active torsions:
  status: ('A' for Active; 'I' for Inactive)
    1  A    between atoms: C_17  and  O_28
    2  A    between atoms: O_28  and  C_29
    3  A    between atoms: C_29  and  C_32
                            x       y       z     vdW  Elec       q    Type
                         _______ _______ _______ _____ _____    ______ ____

>  <TORSDO>
F 3

$$$$
=
 OpenBabel11112417533D

 34 41  0  0  1  0  0  0  0  0999 V2000
  190.2110  175.1910  144.8220 C   0  0  0  0  0  0  0  0  0  0  0  0
  191.8530  173.6560  143.5760 C   0  0  0  0  0  3  0  0  0  0  0  0
  184.6930  177.8920  145.2200 C   0  0  0  0  0  0  0  0  0  0  0  0
  188.5850  176.6880  145.8230 C   0  0  0  0  0  0  0  0  0  0  0  0
  186.8010  177.5690  144.4240 C   0  0  0  0  0  0  0  0  0  0  0  0
  185.6240  179.8940  144.2650 C   0  0  0  0  0  1  0  0  0  0  0  0
  184.3960  177.8460  143.7540 O   0  0  0  0  0  0  0  0  0  0  0  0
  185.5550  177.8070  147.4540 C   0  0  0  0  0  2  0  0  0  0  0  0
  190.0250  174.6000  142.4160 C   0  0  0  0  0  0  0  0  0  0  0  0
  188.4240  173.0790  140.4410 C   0  0  0  0  0  2  0  0  0  0  0  0
  187.2990  176.8820  143.3600 N   0  0  0  0  0  0  0  0  0  0  0  0
  186.9100  178.3000  146.8730 C   0  0  0  0  0  2  0  0  0  0  0  0
  188.9190  175.3650  142.2660 C   0  0  0  0  0  0  0  0  0  0  0  0
  191.9420  173.2330  142.1030 C   0  0  0  0  0  3  0  0  0  0  0  0
  187.4400  177.4920  145.6940 C   0  0  0  0  0  0  0  0  0  0  0  0
  184.4780  177.6390  146.4660 N   0  0  0  0  0  0  0  0  0  0  0  0
  189.8320  172.6410  140.8650 C   0  0  2  0  0  3  0  0  0  0  0  0
  189.0680  175.9920  144.7000 C   0  0  0  0  0  0  0  0  0  0  0  0
  185.5490  178.3790  144.2670 C   0  0  2  0  0  0  0  0  0  0  0  0
  188.4090  176.1020  143.4580 C   0  0  0  0  0  0  0  0  0  0  0  0
  190.4040  175.7520  147.1190 C   0  0  0  0  0  3  0  0  0  0  0  0
  188.4240  174.4890  139.8640 C   0  0  0  0  0  2  0  0  0  0  0  0
  189.2660  176.5620  147.0420 C   0  0  0  0  0  3  0  0  0  0  0  0
  188.1910  175.5460  140.9470 C   0  0  0  0  0  2  0  0  0  0  0  0
  190.7110  173.7960  141.3720 C   0  0  1  0  0  3  0  0  0  0  0  0
  190.8510  175.0880  146.0180 N   0  0  0  0  0  0  0  0  0  0  0  0
  190.6820  174.4980  143.6630 N   0  0  0  0  0  0  0  0  0  0  0  0
  190.4640  172.0110  139.7890 O   0  0  0  0  0  0  0  0  0  0  0  0
  190.4410  170.6480  140.1040 C   0  0  0  0  0  2  0  0  0  0  0  0
  190.1690  170.2930  136.6290 N   0  0  0  0  0  2  0  0  0  0  0  0
  191.9970  170.3950  138.1610 C   0  0  0  0  0  2  0  0  0  0  0  0
  190.8240  169.8000  138.8970 C   0  0  2  0  0  3  0  0  0  0  0  0
  191.6220  170.2810  136.7050 C   0  0  0  0  0  2  0  0  0  0  0  0
  189.6940  169.7300  137.8860 C   0  0  0  0  0  2  0  0  0  0  0  0
  1 26  1  0  0  0  0
  2 27  1  0  0  0  0
  3 16  2  0  0  0  0
  4 23  2  0  0  0  0
  5 15  2  0  0  0  0
  7 19  1  0  0  0  0
  7  3  1  0  0  0  0
  9 27  1  0  0  0  0
 10 17  1  0  0  0  0
 11 20  2  0  0  0  0
 11  5  1  0  0  0  0
 12  8  1  0  0  0  0
 13  9  2  0  0  0  0
 13 20  1  0  0  0  0
 14  2  2  0  0  0  0
 15  4  1  0  0  0  0
 15 12  1  0  0  0  0
 16  8  1  0  0  0  0
 17 28  1  6  0  0  0
 17 25  1  0  0  0  0
 18  1  2  0  0  0  0
 18  4  1  0  0  0  0
 19  6  1  6  0  0  0
 19  5  1  0  0  0  0
 19  3  1  0  0  0  0
 20 18  1  0  0  0  0
 22 10  1  0  0  0  0
 22 24  1  0  0  0  0
 23 21  1  0  0  0  0
 24 13  1  0  0  0  0
 25 14  1  1  0  0  0
 25  9  1  0  0  0  0
 26 21  2  0  0  0  0
 27  1  1  0  0  0  0
 28 29  1  0  0  0  0
 30 33  1  0  0  0  0
 30 34  1  0  0  0  0
 31 32  1  0  0  0  0
 32 29  1  1  0  0  0
 33 31  1  0  0  0  0
 34 32  1  0  0  0  0
M  END
>  <MODEL>
7

>  <REMARK>
 VINA RESULT:      -8.0      3.274      5.762
  Name = 
  3 active torsions:
  status: ('A' for Active; 'I' for Inactive)
    1  A    between atoms: C_17  and  O_28
    2  A    between atoms: O_28  and  C_29
    3  A    between atoms: C_29  and  C_32
                            x       y       z     vdW  Elec       q    Type
                         _______ _______ _______ _____ _____    ______ ____

>  <TORSDO>
F 3

$$$$
=
 OpenBabel11112417533D

 34 41  0  0  1  0  0  0  0  0999 V2000
  190.8250  173.9170  141.6230 C   0  0  0  0  0  0  0  0  0  0  0  0
  188.5200  174.8870  141.0270 C   0  0  0  0  0  3  0  0  0  0  0  0
  195.6390  173.5760  145.4450 C   0  0  0  0  0  0  0  0  0  0  0  0
  193.0390  173.1710  142.2780 C   0  0  0  0  0  0  0  0  0  0  0  0
  194.2960  174.5170  143.8670 C   0  0  0  0  0  0  0  0  0  0  0  0
  196.8170  175.1640  144.0740 C   0  0  0  0  0  1  0  0  0  0  0  0
  195.4310  174.9200  146.0700 O   0  0  0  0  0  0  0  0  0  0  0  0
  195.6450  171.5380  144.1840 C   0  0  0  0  0  2  0  0  0  0  0  0
  189.9000  176.0170  142.5760 C   0  0  0  0  0  0  0  0  0  0  0  0
  188.8450  177.2640  145.0480 C   0  0  0  0  0  2  0  0  0  0  0  0
  193.2640  175.4020  143.9300 N   0  0  0  0  0  0  0  0  0  0  0  0
  195.3860  172.4050  142.9200 C   0  0  0  0  0  2  0  0  0  0  0  0
  191.0160  176.2300  143.3110 C   0  0  0  0  0  0  0  0  0  0  0  0
  187.8150  176.1820  141.4520 C   0  0  0  0  0  3  0  0  0  0  0  0
  194.2110  173.3690  143.0280 C   0  0  0  0  0  0  0  0  0  0  0  0
  195.7570  172.2920  145.4430 N   0  0  0  0  0  0  0  0  0  0  0  0
  187.9430  176.9210  143.8550 C   0  0  2  0  0  3  0  0  0  0  0  0
  191.9940  174.1080  142.3720 C   0  0  0  0  0  0  0  0  0  0  0  0
  195.5130  174.7300  144.7160 C   0  0  2  0  0  0  0  0  0  0  0  0
  192.1230  175.2360  143.2090 C   0  0  0  0  0  0  0  0  0  0  0  0
  191.6970  171.9130  140.7020 C   0  0  0  0  0  3  0  0  0  0  0  0
  189.9730  178.2070  144.6470 C   0  0  0  0  0  2  0  0  0  0  0  0
  192.8820  172.0640  141.4310 C   0  0  0  0  0  3  0  0  0  0  0  0
  191.2210  177.4410  144.2020 C   0  0  0  0  0  2  0  0  0  0  0  0
  188.6890  176.8750  142.5100 C   0  0  1  0  0  3  0  0  0  0  0  0
  190.7000  172.8330  140.8110 N   0  0  0  0  0  0  0  0  0  0  0  0
  189.7800  174.8870  141.7350 N   0  0  0  0  0  0  0  0  0  0  0  0
  186.9030  177.8520  143.7790 O   0  0  0  0  0  0  0  0  0  0  0  0
  185.7440  177.1200  144.0640 C   0  0  0  0  0  2  0  0  0  0  0  0
  185.9480  177.6120  147.5270 N   0  0  0  0  0  2  0  0  0  0  0  0
  185.5550  179.0410  145.6560 C   0  0  0  0  0  2  0  0  0  0  0  0
  185.0360  177.6730  145.2950 C   0  0  2  0  0  3  0  0  0  0  0  0
  185.7130  178.9980  147.1550 C   0  0  0  0  0  2  0  0  0  0  0  0
  185.2820  176.8030  146.5150 C   0  0  0  0  0  2  0  0  0  0  0  0
  1 27  1  0  0  0  0
  1 18  1  0  0  0  0
  2 14  2  0  0  0  0
  2 27  1  0  0  0  0
  3  7  1  0  0  0  0
  4 18  2  0  0  0  0
  4 15  1  0  0  0  0
  5 11  1  0  0  0  0
  5 19  1  0  0  0  0
  8 16  1  0  0  0  0
  9 13  2  0  0  0  0
 12 15  1  0  0  0  0
 12  8  1  0  0  0  0
 13 24  1  0  0  0  0
 15  5  2  0  0  0  0
 16  3  2  0  0  0  0
 17 28  1  6  0  0  0
 17 10  1  0  0  0  0
 18 20  1  0  0  0  0
 19  6  1  6  0  0  0
 19  3  1  0  0  0  0
 19  7  1  0  0  0  0
 20 13  1  0  0  0  0
 20 11  2  0  0  0  0
 21 26  1  0  0  0  0
 21 23  2  0  0  0  0
 22 10  1  0  0  0  0
 23  4  1  0  0  0  0
 24 22  1  0  0  0  0
 25 14  1  6  0  0  0
 25  9  1  0  0  0  0
 25 17  1  0  0  0  0
 26  1  2  0  0  0  0
 27  9  1  0  0  0  0
 28 29  1  0  0  0  0
 31 33  1  0  0  0  0
 32 29  1  6  0  0  0
 32 31  1  0  0  0  0
 32 34  1  0  0  0  0
 33 30  1  0  0  0  0
 34 30  1  0  0  0  0
M  END
>  <MODEL>
8

>  <REMARK>
 VINA RESULT:      -8.0      2.102      8.426
  Name = 
  3 active torsions:
  status: ('A' for Active; 'I' for Inactive)
    1  A    between atoms: C_17  and  O_28
    2  A    between atoms: O_28  and  C_29
    3  A    between atoms: C_29  and  C_32
                            x       y       z     vdW  Elec       q    Type
                         _______ _______ _______ _____ _____    ______ ____

>  <TORSDO>
F 3

$$$$
=
 OpenBabel11112417533D

 34 41  0  0  1  0  0  0  0  0999 V2000
  190.9750  173.8640  141.4410 C   0  0  0  0  0  0  0  0  0  0  0  0
  188.4220  174.1610  141.4320 C   0  0  0  0  0  3  0  0  0  0  0  0
  196.4650  174.9890  143.9910 C   0  0  0  0  0  0  0  0  0  0  0  0
  193.3980  173.7610  141.5320 C   0  0  0  0  0  0  0  0  0  0  0  0
  194.5860  175.4650  142.7970 C   0  0  0  0  0  0  0  0  0  0  0  0
  196.8160  176.7650  142.4060 C   0  0  0  0  0  1  0  0  0  0  0  0
  196.0570  176.2580  144.6710 O   0  0  0  0  0  0  0  0  0  0  0  0
  196.7190  172.9680  142.7300 C   0  0  0  0  0  2  0  0  0  0  0  0
  189.7740  175.6880  142.6240 C   0  0  0  0  0  0  0  0  0  0  0  0
  189.0360  176.7290  145.2980 C   0  0  0  0  0  2  0  0  0  0  0  0
  193.4000  176.0490  143.1210 N   0  0  0  0  0  0  0  0  0  0  0  0
  195.9470  173.6730  141.5800 C   0  0  0  0  0  2  0  0  0  0  0  0
  190.9320  176.2230  143.0740 C   0  0  0  0  0  0  0  0  0  0  0  0
  187.5160  175.2430  142.0360 C   0  0  0  0  0  3  0  0  0  0  0  0
  194.6160  174.2970  141.9830 C   0  0  0  0  0  0  0  0  0  0  0  0
  196.9180  173.7830  143.9380 N   0  0  0  0  0  0  0  0  0  0  0  0
  188.0040  176.1030  144.3500 C   0  0  2  0  0  3  0  0  0  0  0  0
  192.1930  174.3920  141.8910 C   0  0  0  0  0  0  0  0  0  0  0  0
  195.8660  176.0330  143.3340 C   0  0  2  0  0  0  0  0  0  0  0  0
  192.2090  175.5520  142.6920 C   0  0  0  0  0  0  0  0  0  0  0  0
  192.1100  172.1200  140.3020 C   0  0  0  0  0  3  0  0  0  0  0  0
  189.7430  177.9160  144.6560 C   0  0  0  0  0  2  0  0  0  0  0  0
  193.3480  172.6130  140.7290 C   0  0  0  0  0  3  0  0  0  0  0  0
  191.0090  177.4860  143.9100 C   0  0  0  0  0  2  0  0  0  0  0  0
  188.3970  176.1910  142.8660 C   0  0  1  0  0  3  0  0  0  0  0  0
  190.9580  172.7480  140.6630 N   0  0  0  0  0  0  0  0  0  0  0  0
  189.7660  174.5280  141.8170 N   0  0  0  0  0  0  0  0  0  0  0  0
  186.7650  176.7210  144.5430 O   0  0  0  0  0  0  0  0  0  0  0  0
  186.6740  176.9240  145.9250 C   0  0  0  0  0  2  0  0  0  0  0  0
  184.5710  179.4160  144.6420 N   0  0  0  0  0  2  0  0  0  0  0  0
  184.4490  177.9150  146.4950 C   0  0  0  0  0  2  0  0  0  0  0  0
  185.9070  178.2020  146.2420 C   0  0  2  0  0  3  0  0  0  0  0  0
  183.7190  179.0010  145.7460 C   0  0  0  0  0  2  0  0  0  0  0  0
  185.9400  179.1740  145.0760 C   0  0  0  0  0  2  0  0  0  0  0  0
  1 27  1  0  0  0  0
  1 18  1  0  0  0  0
  2 27  1  0  0  0  0
  2 14  2  0  0  0  0
  3  7  1  0  0  0  0
  4 18  2  0  0  0  0
  4 15  1  0  0  0  0
  5 11  1  0  0  0  0
  5 19  1  0  0  0  0
  8 16  1  0  0  0  0
  9 25  1  0  0  0  0
  9 13  2  0  0  0  0
 12 15  1  0  0  0  0
 12  8  1  0  0  0  0
 13 24  1  0  0  0  0
 15  5  2  0  0  0  0
 16  3  2  0  0  0  0
 17 28  1  6  0  0  0
 17 10  1  0  0  0  0
 18 20  1  0  0  0  0
 19  6  1  6  0  0  0
 19  3  1  0  0  0  0
 19  7  1  0  0  0  0
 20 13  1  0  0  0  0
 20 11  2  0  0  0  0
 21 26  1  0  0  0  0
 21 23  2  0  0  0  0
 22 10  1  0  0  0  0
 23  4  1  0  0  0  0
 24 22  1  0  0  0  0
 25 14  1  6  0  0  0
 25 17  1  0  0  0  0
 26  1  2  0  0  0  0
 27  9  1  0  0  0  0
 28 29  1  0  0  0  0
 30 34  1  0  0  0  0
 30 33  1  0  0  0  0
 32 29  1  6  0  0  0
 32 31  1  0  0  0  0
 33 31  1  0  0  0  0
 34 32  1  0  0  0  0
M  END
>  <MODEL>
9

>  <REMARK>
 VINA RESULT:      -7.7      2.089      8.575
  Name = 
  3 active torsions:
  status: ('A' for Active; 'I' for Inactive)
    1  A    between atoms: C_17  and  O_28
    2  A    between atoms: O_28  and  C_29
    3  A    between atoms: C_29  and  C_32
                            x       y       z     vdW  Elec       q    Type
                         _______ _______ _______ _____ _____    ______ ____

>  <TORSDO>
F 3

$$$$
