=
 OpenBabel11112417423D

 28 32  0  0  1  0  0  0  0  0999 V2000
  186.5070  178.1960  144.3630 C   0  0  0  0  0  0  0  0  0  0  0  0
  190.1130  177.8310  145.4990 O   0  0  0  0  0  1  0  0  0  0  0  0
  187.9880  173.6070  141.1340 O   0  0  0  0  0  0  0  0  0  0  0  0
  184.8330  177.5980  146.5300 C   0  0  0  0  0  3  0  0  0  0  0  0
  189.6760  174.0290  142.8230 C   0  0  2  0  0  3  0  0  0  0  0  0
  187.3080  178.5080  143.2650 O   0  0  0  0  0  0  0  0  0  0  0  0
  188.6680  177.7690  147.3780 C   0  0  0  0  0  1  0  0  0  0  0  0
  189.6240  176.9860  146.5000 C   0  0  1  0  0  0  0  0  0  0  0  0
  191.6800  175.6480  146.6690 C   0  0  0  0  0  0  0  0  0  0  0  0
  188.9290  175.7310  145.8840 C   0  0  2  0  0  3  0  0  0  0  0  0
  186.5210  177.3780  139.7910 C   0  0  0  0  0  1  0  0  0  0  0  0
  188.5940  176.1430  143.5390 C   0  0  1  0  0  3  0  0  0  0  0  0
  191.1890  174.8540  145.5920 N   0  0  0  0  0  2  0  0  0  0  0  0
  190.7650  176.5520  147.4010 C   0  0  0  0  0  2  0  0  0  0  0  0
  187.1540  177.3190  141.1650 C   0  0  2  0  0  3  0  0  0  0  0  0
  186.7720  177.0570  145.1610 C   0  0  0  0  0  0  0  0  0  0  0  0
  188.4480  174.3340  142.0530 C   0  0  0  0  0  0  0  0  0  0  0  0
  192.8870  175.5600  147.0150 O   0  0  0  0  0  0  0  0  0  0  0  0
  186.7100  176.1110  141.8540 N   0  0  0  0  0  2  0  0  0  0  0  0
  185.9110  176.7640  146.2290 C   0  0  0  0  0  3  0  0  0  0  0  0
  185.4160  179.0210  144.6670 C   0  0  0  0  0  3  0  0  0  0  0  0
  184.5860  178.7280  145.7500 C   0  0  0  0  0  3  0  0  0  0  0  0
  186.7600  178.5650  141.9540 C   0  0  0  0  0  2  0  0  0  0  0  0
  189.8270  175.2490  143.7480 C   0  0  1  0  0  3  0  0  0  0  0  0
  187.8310  175.5310  142.4710 N   0  0  0  0  0  0  0  0  0  0  0  0
  189.8470  174.8260  145.1510 N   0  0  2  0  0  0  0  0  0  0  0  0
  190.7700  173.9660  141.9600 O   0  0  0  0  0  1  0  0  0  0  0  0
  187.8500  176.0420  144.8480 C   0  0  2  0  0  3  0  0  0  0  0  0
  1 21  2  0  0  0  0
  1 16  1  0  0  0  0
  2  8  1  0  0  0  0
  3 17  2  0  0  0  0
  5 27  1  6  0  0  0
  5 24  1  0  0  0  0
  6  1  1  0  0  0  0
  8  7  1  1  0  0  0
  8 14  1  0  0  0  0
  9 18  2  0  0  0  0
  9 14  1  0  0  0  0
 10  8  1  0  0  0  0
 11 15  1  0  0  0  0
 12 24  1  0  0  0  0
 12 28  1  0  0  0  0
 13  9  1  0  0  0  0
 15 19  1  0  0  0  0
 15 23  1  0  0  0  0
 16 20  2  0  0  0  0
 17 25  1  0  0  0  0
 17  5  1  0  0  0  0
 19 25  1  0  0  0  0
 20  4  1  0  0  0  0
 21 22  1  0  0  0  0
 22  4  2  0  0  0  0
 23  6  1  0  0  0  0
 24 26  1  0  0  0  0
 25 12  1  0  0  0  0
 26 13  1  0  0  0  0
 26 10  1  0  0  0  0
 28 16  1  0  0  0  0
 28 10  1  0  0  0  0
M  END
>  <MODEL>
1

>  <REMARK>
 VINA RESULT:      -9.3      0.000      0.000
  Name = 
  0 active torsions:
  status: ('A' for Active; 'I' for Inactive)
                            x       y       z     vdW  Elec       q    Type
                         _______ _______ _______ _____ _____    ______ ____

>  <TORSDO>
F 0

$$$$
=
 OpenBabel11112417423D

 28 32  0  0  1  0  0  0  0  0999 V2000
  189.4190  175.4430  144.0080 C   0  0  0  0  0  0  0  0  0  0  0  0
  186.0610  176.3230  145.5490 O   0  0  0  0  0  1  0  0  0  0  0  0
  186.7900  177.5110  139.2660 O   0  0  0  0  0  0  0  0  0  0  0  0
  191.3640  177.1460  145.0930 C   0  0  0  0  0  3  0  0  0  0  0  0
  185.5040  178.0560  141.2480 C   0  0  2  0  0  3  0  0  0  0  0  0
  188.4820  174.5720  143.4520 O   0  0  0  0  0  0  0  0  0  0  0  0
  187.8000  177.4170  146.7320 C   0  0  0  0  0  1  0  0  0  0  0  0
  186.6070  177.5830  145.8110 C   0  0  1  0  0  0  0  0  0  0  0  0
  184.4570  178.7710  145.7000 C   0  0  0  0  0  0  0  0  0  0  0  0
  187.0090  178.3080  144.4890 C   0  0  2  0  0  3  0  0  0  0  0  0
  188.4740  173.6350  139.8350 C   0  0  0  0  0  1  0  0  0  0  0  0
  186.9660  176.6880  142.7120 C   0  0  1  0  0  3  0  0  0  0  0  0
  184.6370  178.8560  144.2890 N   0  0  0  0  0  2  0  0  0  0  0  0
  185.6000  178.4240  146.5740 C   0  0  0  0  0  2  0  0  0  0  0  0
  188.0970  174.4260  141.0700 C   0  0  2  0  0  3  0  0  0  0  0  0
  189.1550  176.8290  144.1180 C   0  0  0  0  0  0  0  0  0  0  0  0
  186.6020  177.3960  140.5060 C   0  0  0  0  0  0  0  0  0  0  0  0
  183.3320  179.0190  146.2060 O   0  0  0  0  0  0  0  0  0  0  0  0
  188.4950  175.8190  140.8960 N   0  0  0  0  0  2  0  0  0  0  0  0
  190.1480  177.6680  144.6450 C   0  0  0  0  0  3  0  0  0  0  0  0
  190.6460  174.9310  144.4510 C   0  0  0  0  0  3  0  0  0  0  0  0
  191.6120  175.7770  144.9970 C   0  0  0  0  0  3  0  0  0  0  0  0
  188.7870  173.8170  142.2870 C   0  0  0  0  0  2  0  0  0  0  0  0
  185.6840  177.5370  142.6850 C   0  0  1  0  0  3  0  0  0  0  0  0
  187.4370  176.6290  141.3440 N   0  0  0  0  0  0  0  0  0  0  0  0
  185.8620  178.6550  143.6140 N   0  0  2  0  0  0  0  0  0  0  0  0
  184.2740  177.6240  140.7520 O   0  0  0  0  0  1  0  0  0  0  0  0
  187.9140  177.4960  143.5640 C   0  0  2  0  0  3  0  0  0  0  0  0
  1 16  2  0  0  0  0
  1 21  1  0  0  0  0
  2  8  1  0  0  0  0
  3 17  2  0  0  0  0
  5 27  1  6  0  0  0
  5 24  1  0  0  0  0
  6  1  1  0  0  0  0
  8 14  1  0  0  0  0
  8  7  1  1  0  0  0
  9 18  2  0  0  0  0
  9 14  1  0  0  0  0
 10  8  1  0  0  0  0
 11 15  1  0  0  0  0
 12 28  1  0  0  0  0
 13  9  1  0  0  0  0
 15 23  1  0  0  0  0
 16 20  1  0  0  0  0
 17  5  1  0  0  0  0
 17 25  1  0  0  0  0
 19 15  1  0  0  0  0
 19 25  1  0  0  0  0
 20  4  2  0  0  0  0
 21 22  2  0  0  0  0
 22  4  1  0  0  0  0
 23  6  1  0  0  0  0
 24 12  1  0  0  0  0
 24 26  1  0  0  0  0
 25 12  1  0  0  0  0
 26 13  1  0  0  0  0
 26 10  1  0  0  0  0
 28 16  1  0  0  0  0
 28 10  1  0  0  0  0
M  END
>  <MODEL>
2

>  <REMARK>
 VINA RESULT:      -8.6      2.420      5.218
  Name = 
  0 active torsions:
  status: ('A' for Active; 'I' for Inactive)
                            x       y       z     vdW  Elec       q    Type
                         _______ _______ _______ _____ _____    ______ ____

>  <TORSDO>
F 0

$$$$
=
 OpenBabel11112417423D

 28 32  0  0  1  0  0  0  0  0999 V2000
  186.8540  176.9030  146.5810 C   0  0  0  0  0  0  0  0  0  0  0  0
  186.3580  175.9330  142.9420 O   0  0  0  0  0  1  0  0  0  0  0  0
  192.2760  177.7520  144.6960 O   0  0  0  0  0  0  0  0  0  0  0  0
  185.4140  179.2570  147.0720 C   0  0  0  0  0  3  0  0  0  0  0  0
  190.7680  177.4670  142.8200 C   0  0  2  0  0  3  0  0  0  0  0  0
  187.5750  175.7270  146.3760 O   0  0  0  0  0  0  0  0  0  0  0  0
  184.8330  177.6500  143.5310 C   0  0  0  0  0  1  0  0  0  0  0  0
  186.0540  177.2780  142.7120 C   0  0  1  0  0  0  0  0  0  0  0  0
  186.8370  177.2770  140.3810 C   0  0  0  0  0  0  0  0  0  0  0  0
  187.2680  178.1960  143.0580 C   0  0  2  0  0  3  0  0  0  0  0  0
  190.9750  175.1540  147.8170 C   0  0  0  0  0  1  0  0  0  0  0  0
  188.8600  176.8850  144.2950 C   0  0  1  0  0  3  0  0  0  0  0  0
  188.1480  177.5350  140.8770 N   0  0  0  0  0  2  0  0  0  0  0  0
  185.6610  177.4700  141.2590 C   0  0  0  0  0  2  0  0  0  0  0  0
  189.9540  175.5760  146.7820 C   0  0  2  0  0  3  0  0  0  0  0  0
  186.9260  177.9750  145.6590 C   0  0  0  0  0  0  0  0  0  0  0  0
  191.1300  177.4760  144.2560 C   0  0  0  0  0  0  0  0  0  0  0  0
  186.6770  176.9120  139.1880 O   0  0  0  0  0  0  0  0  0  0  0  0
  190.1190  176.9950  146.4850 N   0  0  0  0  0  2  0  0  0  0  0  0
  186.2140  179.1520  145.9330 C   0  0  0  0  0  3  0  0  0  0  0  0
  186.0560  177.0220  147.7260 C   0  0  0  0  0  3  0  0  0  0  0  0
  185.3340  178.1910  147.9680 C   0  0  0  0  0  3  0  0  0  0  0  0
  188.5520  175.2960  147.3150 C   0  0  0  0  0  2  0  0  0  0  0  0
  189.3000  177.0040  142.8270 C   0  0  1  0  0  3  0  0  0  0  0  0
  190.0400  177.1560  145.0900 N   0  0  0  0  0  0  0  0  0  0  0  0
  188.4460  178.0010  142.1780 N   0  0  2  0  0  0  0  0  0  0  0  0
  191.5450  176.5280  142.1440 O   0  0  0  0  0  1  0  0  0  0  0  0
  187.8460  177.9910  144.4580 C   0  0  2  0  0  3  0  0  0  0  0  0
  1 21  1  0  0  0  0
  4 22  1  0  0  0  0
  5 27  1  6  0  0  0
  5 24  1  0  0  0  0
  5 17  1  0  0  0  0
  6  1  1  0  0  0  0
  6 23  1  0  0  0  0
  8  2  1  0  0  0  0
  8 10  1  0  0  0  0
  8  7  1  1  0  0  0
  9 13  1  0  0  0  0
  9 14  1  0  0  0  0
 10 28  1  0  0  0  0
 12 28  1  0  0  0  0
 12 25  1  0  0  0  0
 13 26  1  0  0  0  0
 14  8  1  0  0  0  0
 15 23  1  0  0  0  0
 15 11  1  0  0  0  0
 16 20  1  0  0  0  0
 16  1  2  0  0  0  0
 17  3  2  0  0  0  0
 17 25  1  0  0  0  0
 18  9  2  0  0  0  0
 19 15  1  0  0  0  0
 20  4  2  0  0  0  0
 21 22  2  0  0  0  0
 24 12  1  0  0  0  0
 25 19  1  0  0  0  0
 26 24  1  0  0  0  0
 26 10  1  0  0  0  0
 28 16  1  0  0  0  0
M  END
>  <MODEL>
3

>  <REMARK>
 VINA RESULT:      -8.6      2.063      5.229
  Name = 
  0 active torsions:
  status: ('A' for Active; 'I' for Inactive)
                            x       y       z     vdW  Elec       q    Type
                         _______ _______ _______ _____ _____    ______ ____

>  <TORSDO>
F 0

$$$$
=
 OpenBabel11112417423D

 28 32  0  0  1  0  0  0  0  0999 V2000
  190.3210  175.1850  143.9020 C   0  0  0  0  0  0  0  0  0  0  0  0
  187.4370  176.0080  146.2340 O   0  0  0  0  0  1  0  0  0  0  0  0
  186.6370  177.4010  140.0020 O   0  0  0  0  0  0  0  0  0  0  0  0
  192.4790  176.8570  144.5400 C   0  0  0  0  0  3  0  0  0  0  0  0
  185.8700  177.8790  142.2520 C   0  0  2  0  0  3  0  0  0  0  0  0
  189.2720  174.3320  143.5610 O   0  0  0  0  0  0  0  0  0  0  0  0
  189.4170  177.0670  146.9970 C   0  0  0  0  0  1  0  0  0  0  0  0
  188.0380  177.2600  146.3980 C   0  0  1  0  0  0  0  0  0  0  0  0
  185.9310  178.4470  146.8460 C   0  0  0  0  0  0  0  0  0  0  0  0
  188.1130  178.0280  145.0410 C   0  0  2  0  0  3  0  0  0  0  0  0
  188.3870  173.5130  140.0240 C   0  0  0  0  0  1  0  0  0  0  0  0
  187.6340  176.4670  143.2760 C   0  0  1  0  0  3  0  0  0  0  0  0
  185.7670  178.5780  145.4360 N   0  0  0  0  0  2  0  0  0  0  0  0
  187.2490  178.0740  147.4070 C   0  0  0  0  0  2  0  0  0  0  0  0
  188.3240  174.2620  141.3380 C   0  0  2  0  0  3  0  0  0  0  0  0
  190.0990  176.5670  144.1160 C   0  0  0  0  0  0  0  0  0  0  0  0
  186.7540  177.2460  141.2460 C   0  0  0  0  0  0  0  0  0  0  0  0
  184.9630  178.6760  147.6160 O   0  0  0  0  0  0  0  0  0  0  0  0
  188.6760  175.6610  141.1180 N   0  0  0  0  0  2  0  0  0  0  0  0
  191.1940  177.3900  144.4150 C   0  0  0  0  0  3  0  0  0  0  0  0
  191.6150  174.6620  144.0190 C   0  0  0  0  0  3  0  0  0  0  0  0
  192.6890  175.4920  144.3430 C   0  0  0  0  0  3  0  0  0  0  0  0
  189.2820  173.6150  142.3330 C   0  0  0  0  0  2  0  0  0  0  0  0
  186.3890  177.3140  143.5860 C   0  0  1  0  0  3  0  0  0  0  0  0
  187.7610  176.4530  141.8330 N   0  0  0  0  0  0  0  0  0  0  0  0
  186.7920  178.4020  144.4800 N   0  0  2  0  0  0  0  0  0  0  0  0
  184.5550  177.4610  142.0530 O   0  0  0  0  0  1  0  0  0  0  0  0
  188.7650  177.2490  143.9000 C   0  0  2  0  0  3  0  0  0  0  0  0
  1 21  2  0  0  0  0
  1 16  1  0  0  0  0
  2  8  1  0  0  0  0
  3 17  2  0  0  0  0
  5 27  1  6  0  0  0
  5 24  1  0  0  0  0
  6  1  1  0  0  0  0
  8  7  1  1  0  0  0
  8 14  1  0  0  0  0
  9 14  1  0  0  0  0
  9 18  2  0  0  0  0
 10  8  1  0  0  0  0
 11 15  1  0  0  0  0
 12 24  1  0  0  0  0
 12 28  1  0  0  0  0
 13  9  1  0  0  0  0
 15 23  1  0  0  0  0
 16 20  2  0  0  0  0
 17 25  1  0  0  0  0
 17  5  1  0  0  0  0
 19 15  1  0  0  0  0
 19 25  1  0  0  0  0
 20  4  1  0  0  0  0
 21 22  1  0  0  0  0
 22  4  2  0  0  0  0
 23  6  1  0  0  0  0
 24 26  1  0  0  0  0
 25 12  1  0  0  0  0
 26 10  1  0  0  0  0
 26 13  1  0  0  0  0
 28 16  1  0  0  0  0
 28 10  1  0  0  0  0
M  END
>  <MODEL>
4

>  <REMARK>
 VINA RESULT:      -8.4      2.299      5.001
  Name = 
  0 active torsions:
  status: ('A' for Active; 'I' for Inactive)
                            x       y       z     vdW  Elec       q    Type
                         _______ _______ _______ _____ _____    ______ ____

>  <TORSDO>
F 0

$$$$
=
 OpenBabel11112417423D

 28 32  0  0  1  0  0  0  0  0999 V2000
  189.9520  175.8760  143.5470 C   0  0  0  0  0  0  0  0  0  0  0  0
  187.6330  178.2260  141.6680 O   0  0  0  0  0  1  0  0  0  0  0  0
  186.0750  176.8410  147.7560 O   0  0  0  0  0  0  0  0  0  0  0  0
  189.7800  173.3370  142.3710 C   0  0  0  0  0  3  0  0  0  0  0  0
  185.2330  177.6530  145.6330 C   0  0  2  0  0  3  0  0  0  0  0  0
  190.0700  177.1260  144.1530 O   0  0  0  0  0  0  0  0  0  0  0  0
  187.8660  176.1950  140.4660 C   0  0  0  0  0  1  0  0  0  0  0  0
  186.9350  177.0820  141.2690 C   0  0  1  0  0  0  0  0  0  0  0  0
  184.7650  178.2210  141.0620 C   0  0  0  0  0  0  0  0  0  0  0  0
  186.3520  176.3220  142.5010 C   0  0  2  0  0  3  0  0  0  0  0  0
  190.2740  177.5780  147.8560 C   0  0  0  0  0  1  0  0  0  0  0  0
  187.3850  177.2140  144.4810 C   0  0  1  0  0  3  0  0  0  0  0  0
  184.5740  177.9960  142.4570 N   0  0  0  0  0  2  0  0  0  0  0  0
  185.8120  177.4750  140.3280 C   0  0  0  0  0  2  0  0  0  0  0  0
  189.6090  177.4810  146.4990 C   0  0  2  0  0  3  0  0  0  0  0  0
  188.6830  175.3350  143.2250 C   0  0  0  0  0  0  0  0  0  0  0  0
  186.2600  177.0840  146.5350 C   0  0  0  0  0  0  0  0  0  0  0  0
  184.0260  179.0340  140.4500 O   0  0  0  0  0  0  0  0  0  0  0  0
  188.6520  176.3790  146.5030 N   0  0  0  0  0  2  0  0  0  0  0  0
  188.6170  174.0560  142.6550 C   0  0  0  0  0  3  0  0  0  0  0  0
  191.1120  175.1420  143.2670 C   0  0  0  0  0  3  0  0  0  0  0  0
  191.0280  173.8810  142.6750 C   0  0  0  0  0  3  0  0  0  0  0  0
  190.6770  177.2650  145.4310 C   0  0  0  0  0  2  0  0  0  0  0  0
  185.9820  177.8160  144.2990 C   0  0  1  0  0  3  0  0  0  0  0  0
  187.4780  176.8260  145.8730 N   0  0  0  0  0  0  0  0  0  0  0  0
  185.3040  177.0700  143.2370 N   0  0  2  0  0  0  0  0  0  0  0  0
  184.8390  178.9070  146.0980 O   0  0  0  0  0  1  0  0  0  0  0  0
  187.3710  175.9940  143.5910 C   0  0  2  0  0  3  0  0  0  0  0  0
  1  6  1  0  0  0  0
  4 20  2  0  0  0  0
  4 22  1  0  0  0  0
  5 27  1  1  0  0  0
  5 17  1  0  0  0  0
  6 23  1  0  0  0  0
  8  7  1  6  0  0  0
  8  2  1  0  0  0  0
  8 10  1  0  0  0  0
  9 13  1  0  0  0  0
 10 26  1  0  0  0  0
 10 28  1  0  0  0  0
 12 25  1  0  0  0  0
 13 26  1  0  0  0  0
 14  9  1  0  0  0  0
 14  8  1  0  0  0  0
 15 19  1  0  0  0  0
 15 11  1  0  0  0  0
 16  1  2  0  0  0  0
 16 28  1  0  0  0  0
 17  3  2  0  0  0  0
 18  9  2  0  0  0  0
 20 16  1  0  0  0  0
 21  1  1  0  0  0  0
 22 21  2  0  0  0  0
 23 15  1  0  0  0  0
 24 12  1  0  0  0  0
 24  5  1  0  0  0  0
 25 19  1  0  0  0  0
 25 17  1  0  0  0  0
 26 24  1  0  0  0  0
 28 12  1  0  0  0  0
M  END
>  <MODEL>
5

>  <REMARK>
 VINA RESULT:      -8.3      2.039      6.489
  Name = 
  0 active torsions:
  status: ('A' for Active; 'I' for Inactive)
                            x       y       z     vdW  Elec       q    Type
                         _______ _______ _______ _____ _____    ______ ____

>  <TORSDO>
F 0

$$$$
=
 OpenBabel11112417423D

 28 32  0  0  1  0  0  0  0  0999 V2000
  190.3590  174.8020  141.9720 C   0  0  0  0  0  0  0  0  0  0  0  0
  188.5460  178.1210  142.3290 O   0  0  0  0  0  1  0  0  0  0  0  0
  190.4280  175.2270  147.7600 O   0  0  0  0  0  0  0  0  0  0  0  0
  188.5510  172.9090  140.9690 C   0  0  0  0  0  3  0  0  0  0  0  0
  188.9160  176.8680  146.8130 C   0  0  2  0  0  3  0  0  0  0  0  0
  191.2890  175.7170  142.4640 O   0  0  0  0  0  0  0  0  0  0  0  0
  187.2110  176.6040  141.0870 C   0  0  0  0  0  1  0  0  0  0  0  0
  187.3650  177.3730  142.3850 C   0  0  1  0  0  0  0  0  0  0  0  0
  186.1520  179.0010  143.7720 C   0  0  0  0  0  0  0  0  0  0  0  0
  187.3660  176.4130  143.6150 C   0  0  2  0  0  3  0  0  0  0  0  0
  193.7650  174.8640  145.1300 C   0  0  0  0  0  1  0  0  0  0  0  0
  189.6040  176.3310  144.4910 C   0  0  1  0  0  3  0  0  0  0  0  0
  186.7370  178.3830  144.9150 N   0  0  0  0  0  2  0  0  0  0  0  0
  186.1750  178.3100  142.4630 C   0  0  0  0  0  2  0  0  0  0  0  0
  192.4650  175.3800  144.5500 C   0  0  2  0  0  3  0  0  0  0  0  0
  189.0560  174.7170  142.5200 C   0  0  0  0  0  0  0  0  0  0  0  0
  189.9470  175.8070  146.7510 C   0  0  0  0  0  0  0  0  0  0  0  0
  185.5910  180.1220  143.8820 O   0  0  0  0  0  0  0  0  0  0  0  0
  191.3510  174.6010  145.0800 N   0  0  0  0  0  2  0  0  0  0  0  0
  188.1730  173.7510  142.0180 C   0  0  0  0  0  3  0  0  0  0  0  0
  190.7320  173.9460  140.9280 C   0  0  0  0  0  3  0  0  0  0  0  0
  189.8300  173.0080  140.4240 C   0  0  0  0  0  3  0  0  0  0  0  0
  192.5190  175.2790  143.0280 C   0  0  0  0  0  2  0  0  0  0  0  0
  188.7390  177.2760  145.3400 C   0  0  1  0  0  3  0  0  0  0  0  0
  190.3260  175.4980  145.4300 N   0  0  0  0  0  0  0  0  0  0  0  0
  187.3440  177.1070  144.9260 N   0  0  2  0  0  0  0  0  0  0  0  0
  189.4020  177.9560  147.5380 O   0  0  0  0  0  1  0  0  0  0  0  0
  188.5950  175.5120  143.7220 C   0  0  2  0  0  3  0  0  0  0  0  0
  1  6  1  0  0  0  0
  1 16  1  0  0  0  0
  2  8  1  0  0  0  0
  4 20  1  0  0  0  0
  5 27  1  1  0  0  0
  6 23  1  0  0  0  0
  8  7  1  6  0  0  0
  8 14  1  0  0  0  0
  8 10  1  0  0  0  0
  9 18  2  0  0  0  0
  9 13  1  0  0  0  0
 10 28  1  0  0  0  0
 10 26  1  0  0  0  0
 12 24  1  0  0  0  0
 12 25  1  0  0  0  0
 13 26  1  0  0  0  0
 14  9  1  0  0  0  0
 15 19  1  0  0  0  0
 15 11  1  0  0  0  0
 16 28  1  0  0  0  0
 17  5  1  0  0  0  0
 17  3  2  0  0  0  0
 19 25  1  0  0  0  0
 20 16  2  0  0  0  0
 21  1  2  0  0  0  0
 22 21  1  0  0  0  0
 22  4  2  0  0  0  0
 23 15  1  0  0  0  0
 24  5  1  0  0  0  0
 25 17  1  0  0  0  0
 26 24  1  0  0  0  0
 28 12  1  0  0  0  0
M  END
>  <MODEL>
6

>  <REMARK>
 VINA RESULT:      -8.3      1.939      6.069
  Name = 
  0 active torsions:
  status: ('A' for Active; 'I' for Inactive)
                            x       y       z     vdW  Elec       q    Type
                         _______ _______ _______ _____ _____    ______ ____

>  <TORSDO>
F 0

$$$$
=
 OpenBabel11112417423D

 28 32  0  0  1  0  0  0  0  0999 V2000
  188.0500  177.4110  144.7180 C   0  0  0  0  0  0  0  0  0  0  0  0
  191.8420  177.1990  144.6590 O   0  0  0  0  0  1  0  0  0  0  0  0
  188.6430  173.3790  140.5860 O   0  0  0  0  0  0  0  0  0  0  0  0
  187.1470  176.4240  147.1810 C   0  0  0  0  0  3  0  0  0  0  0  0
  190.7510  173.7260  141.7330 C   0  0  2  0  0  3  0  0  0  0  0  0
  188.4620  177.9160  143.4850 O   0  0  0  0  0  0  0  0  0  0  0  0
  191.0480  176.7950  146.8570 C   0  0  0  0  0  1  0  0  0  0  0  0
  191.7170  176.2020  145.6320 C   0  0  1  0  0  0  0  0  0  0  0  0
  193.7760  175.0210  144.9900 C   0  0  0  0  0  0  0  0  0  0  0  0
  190.9150  174.9800  145.0850 C   0  0  2  0  0  3  0  0  0  0  0  0
  186.6900  177.1570  140.2840 C   0  0  0  0  0  1  0  0  0  0  0  0
  189.8610  175.6450  143.0280 C   0  0  1  0  0  3  0  0  0  0  0  0
  193.0080  174.3260  144.0090 N   0  0  0  0  0  2  0  0  0  0  0  0
  193.0950  175.7540  146.0810 C   0  0  0  0  0  2  0  0  0  0  0  0
  187.7160  176.9830  141.3840 C   0  0  2  0  0  3  0  0  0  0  0  0
  188.5910  176.2080  145.2330 C   0  0  0  0  0  0  0  0  0  0  0  0
  189.3350  174.0240  141.4170 C   0  0  0  0  0  0  0  0  0  0  0  0
  195.0320  174.9870  144.9430 O   0  0  0  0  0  0  0  0  0  0  0  0
  187.5520  175.6690  141.9980 N   0  0  0  0  0  2  0  0  0  0  0  0
  188.1120  175.7200  146.4570 C   0  0  0  0  0  3  0  0  0  0  0  0
  187.0740  178.1040  145.4470 C   0  0  0  0  0  3  0  0  0  0  0  0
  186.6290  177.6170  146.6760 C   0  0  0  0  0  3  0  0  0  0  0  0
  187.5360  178.0880  142.4190 C   0  0  0  0  0  2  0  0  0  0  0  0
  191.1320  174.8330  142.7320 C   0  0  1  0  0  3  0  0  0  0  0  0
  188.8310  175.1080  142.1630 N   0  0  0  0  0  0  0  0  0  0  0  0
  191.5980  174.2460  143.9910 N   0  0  2  0  0  0  0  0  0  0  0  0
  191.5280  173.8560  140.5820 O   0  0  0  0  0  1  0  0  0  0  0  0
  189.5590  175.3270  144.4730 C   0  0  2  0  0  3  0  0  0  0  0  0
  1 16  2  0  0  0  0
  1 21  1  0  0  0  0
  2  8  1  0  0  0  0
  3 17  2  0  0  0  0
  5 27  1  6  0  0  0
  5 24  1  0  0  0  0
  6  1  1  0  0  0  0
  8 14  1  0  0  0  0
  8  7  1  1  0  0  0
  9 14  1  0  0  0  0
 10  8  1  0  0  0  0
 11 15  1  0  0  0  0
 12 28  1  0  0  0  0
 13  9  1  0  0  0  0
 15 19  1  0  0  0  0
 15 23  1  0  0  0  0
 16 20  1  0  0  0  0
 17  5  1  0  0  0  0
 17 25  1  0  0  0  0
 18  9  2  0  0  0  0
 19 25  1  0  0  0  0
 20  4  2  0  0  0  0
 21 22  2  0  0  0  0
 22  4  1  0  0  0  0
 23  6  1  0  0  0  0
 24 12  1  0  0  0  0
 24 26  1  0  0  0  0
 25 12  1  0  0  0  0
 26 13  1  0  0  0  0
 26 10  1  0  0  0  0
 28 10  1  0  0  0  0
 28 16  1  0  0  0  0
M  END
>  <MODEL>
7

>  <REMARK>
 VINA RESULT:      -8.2      1.499      1.977
  Name = 
  0 active torsions:
  status: ('A' for Active; 'I' for Inactive)
                            x       y       z     vdW  Elec       q    Type
                         _______ _______ _______ _____ _____    ______ ____

>  <TORSDO>
F 0

$$$$
=
 OpenBabel11112417423D

 28 32  0  0  1  0  0  0  0  0999 V2000
  189.1080  176.6080  144.6320 C   0  0  0  0  0  0  0  0  0  0  0  0
  192.7470  176.1900  143.6250 O   0  0  0  0  0  1  0  0  0  0  0  0
  188.3410  173.3580  139.8860 O   0  0  0  0  0  0  0  0  0  0  0  0
  188.6970  175.2480  147.0490 C   0  0  0  0  0  3  0  0  0  0  0  0
  190.6780  173.3700  140.5300 C   0  0  2  0  0  3  0  0  0  0  0  0
  189.2760  177.3020  143.4340 O   0  0  0  0  0  0  0  0  0  0  0  0
  192.4390  175.4440  145.8550 C   0  0  0  0  0  1  0  0  0  0  0  0
  192.7490  175.0430  144.4260 C   0  0  1  0  0  0  0  0  0  0  0  0
  194.4790  173.8790  143.1230 C   0  0  0  0  0  0  0  0  0  0  0  0
  191.7260  173.9880  143.8990 C   0  0  2  0  0  3  0  0  0  0  0  0
  186.7550  177.2360  140.6770 C   0  0  0  0  0  1  0  0  0  0  0  0
  190.3020  175.0730  142.2930 C   0  0  1  0  0  3  0  0  0  0  0  0
  193.4430  173.4180  142.2590 N   0  0  0  0  0  2  0  0  0  0  0  0
  194.1420  174.4430  144.4490 C   0  0  0  0  0  2  0  0  0  0  0  0
  187.9820  176.8070  141.4530 C   0  0  2  0  0  3  0  0  0  0  0  0
  189.6300  175.3030  144.8000 C   0  0  0  0  0  0  0  0  0  0  0  0
  189.2650  173.8020  140.6170 C   0  0  0  0  0  0  0  0  0  0  0  0
  195.6830  173.7820  142.7690 O   0  0  0  0  0  0  0  0  0  0  0  0
  187.8330  175.4160  141.8690 N   0  0  0  0  0  2  0  0  0  0  0  0
  189.3970  174.6310  146.0090 C   0  0  0  0  0  3  0  0  0  0  0  0
  188.3980  177.2140  145.6770 C   0  0  0  0  0  3  0  0  0  0  0  0
  188.1990  176.5400  146.8820 C   0  0  0  0  0  3  0  0  0  0  0  0
  188.1540  177.7160  142.6660 C   0  0  0  0  0  2  0  0  0  0  0  0
  191.3850  174.2540  141.5720 C   0  0  1  0  0  3  0  0  0  0  0  0
  189.0540  174.7610  141.6280 N   0  0  0  0  0  0  0  0  0  0  0  0
  192.0650  173.4250  142.5690 N   0  0  2  0  0  0  0  0  0  0  0  0
  191.1810  173.6590  139.2610 O   0  0  0  0  0  1  0  0  0  0  0  0
  190.3070  174.5180  143.6970 C   0  0  2  0  0  3  0  0  0  0  0  0
  1 16  2  0  0  0  0
  1 21  1  0  0  0  0
  2  8  1  0  0  0  0
  3 17  2  0  0  0  0
  5 27  1  6  0  0  0
  5 17  1  0  0  0  0
  5 24  1  0  0  0  0
  6  1  1  0  0  0  0
  8 14  1  0  0  0  0
  8  7  1  1  0  0  0
  9 14  1  0  0  0  0
 10  8  1  0  0  0  0
 11 15  1  0  0  0  0
 12 28  1  0  0  0  0
 13 26  1  0  0  0  0
 13  9  1  0  0  0  0
 15 19  1  0  0  0  0
 15 23  1  0  0  0  0
 16 20  1  0  0  0  0
 17 25  1  0  0  0  0
 18  9  2  0  0  0  0
 20  4  2  0  0  0  0
 21 22  2  0  0  0  0
 22  4  1  0  0  0  0
 23  6  1  0  0  0  0
 24 12  1  0  0  0  0
 24 26  1  0  0  0  0
 25 19  1  0  0  0  0
 25 12  1  0  0  0  0
 26 10  1  0  0  0  0
 28 10  1  0  0  0  0
 28 16  1  0  0  0  0
M  END
>  <MODEL>
8

>  <REMARK>
 VINA RESULT:      -7.5      2.424      3.405
  Name = 
  0 active torsions:
  status: ('A' for Active; 'I' for Inactive)
                            x       y       z     vdW  Elec       q    Type
                         _______ _______ _______ _____ _____    ______ ____

>  <TORSDO>
F 0

$$$$
=
 OpenBabel11112417423D

 28 32  0  0  1  0  0  0  0  0999 V2000
  186.5770  176.8450  143.5380 C   0  0  0  0  0  0  0  0  0  0  0  0
  188.6530  173.6640  143.5110 O   0  0  0  0  0  1  0  0  0  0  0  0
  190.0750  178.0380  148.0130 O   0  0  0  0  0  0  0  0  0  0  0  0
  187.1440  178.2910  141.2040 C   0  0  0  0  0  3  0  0  0  0  0  0
  190.9070  176.1230  146.7800 C   0  0  2  0  0  3  0  0  0  0  0  0
  186.2630  176.1500  144.7060 O   0  0  0  0  0  0  0  0  0  0  0  0
  188.7530  174.7080  141.3850 C   0  0  0  0  0  1  0  0  0  0  0  0
  189.5170  174.3360  142.6400 C   0  0  1  0  0  0  0  0  0  0  0  0
  191.5230  173.0940  143.3340 C   0  0  0  0  0  0  0  0  0  0  0  0
  190.1330  175.5970  143.3230 C   0  0  2  0  0  3  0  0  0  0  0  0
  185.8160  177.8340  148.0120 C   0  0  0  0  0  1  0  0  0  0  0  0
  188.8930  176.0340  145.3360 C   0  0  1  0  0  3  0  0  0  0  0  0
  191.6720  174.0330  144.3960 N   0  0  0  0  0  2  0  0  0  0  0  0
  190.6230  173.3960  142.1980 C   0  0  0  0  0  2  0  0  0  0  0  0
  186.5540  177.1100  146.9060 C   0  0  2  0  0  3  0  0  0  0  0  0
  187.9210  177.0100  143.1240 C   0  0  0  0  0  0  0  0  0  0  0  0
  189.9200  177.1780  147.1060 C   0  0  0  0  0  0  0  0  0  0  0  0
  192.1770  172.0190  143.3490 O   0  0  0  0  0  0  0  0  0  0  0  0
  187.6480  177.9470  146.4230 N   0  0  0  0  0  2  0  0  0  0  0  0
  188.1850  177.7530  141.9640 C   0  0  0  0  0  3  0  0  0  0  0  0
  185.5400  177.3970  142.7750 C   0  0  0  0  0  3  0  0  0  0  0  0
  185.8210  178.1120  141.6090 C   0  0  0  0  0  3  0  0  0  0  0  0
  185.5800  176.7910  145.7760 C   0  0  0  0  0  2  0  0  0  0  0  0
  190.2100  175.3160  145.6710 C   0  0  1  0  0  3  0  0  0  0  0  0
  188.7830  177.1300  146.2750 N   0  0  0  0  0  0  0  0  0  0  0  0
  191.0340  175.2920  144.4610 N   0  0  2  0  0  0  0  0  0  0  0  0
  191.1060  175.3050  147.8920 O   0  0  0  0  0  1  0  0  0  0  0  0
  189.1140  176.5550  143.9360 C   0  0  2  0  0  3  0  0  0  0  0  0
  1  6  1  0  0  0  0
  4 22  2  0  0  0  0
  4 20  1  0  0  0  0
  5 17  1  0  0  0  0
  5 27  1  1  0  0  0
  6 23  1  0  0  0  0
  8  7  1  6  0  0  0
  8 10  1  0  0  0  0
  8  2  1  0  0  0  0
  9 18  2  0  0  0  0
  9 13  1  0  0  0  0
 10 28  1  0  0  0  0
 10 26  1  0  0  0  0
 12 24  1  0  0  0  0
 12 25  1  0  0  0  0
 13 26  1  0  0  0  0
 14  8  1  0  0  0  0
 14  9  1  0  0  0  0
 15 11  1  0  0  0  0
 16  1  1  0  0  0  0
 16 28  1  0  0  0  0
 17  3  2  0  0  0  0
 19 15  1  0  0  0  0
 20 16  2  0  0  0  0
 21  1  2  0  0  0  0
 22 21  1  0  0  0  0
 23 15  1  0  0  0  0
 24  5  1  0  0  0  0
 25 19  1  0  0  0  0
 25 17  1  0  0  0  0
 26 24  1  0  0  0  0
 28 12  1  0  0  0  0
M  END
>  <MODEL>
9

>  <REMARK>
 VINA RESULT:      -7.5      1.934      4.722
  Name = 
  0 active torsions:
  status: ('A' for Active; 'I' for Inactive)
                            x       y       z     vdW  Elec       q    Type
                         _______ _______ _______ _____ _____    ______ ____

>  <TORSDO>
F 0

$$$$
