=
 OpenBabel11112417203D

 37 43  0  0  1  0  0  0  0  0999 V2000
  195.3190  174.6150  143.0800 C   0  0  0  0  0  0  0  0  0  0  0  0
  192.0060  175.9970  145.2200 C   0  0  0  0  0  0  0  0  0  0  0  0
  188.5750  174.8700  143.9190 C   0  0  0  0  0  2  0  0  0  0  0  0
  194.4270  175.7860  145.1650 C   0  0  0  0  0  0  0  0  0  0  0  0
  190.9940  175.8010  144.2630 C   0  0  0  0  0  0  0  0  0  0  0  0
  193.1790  175.7080  144.5840 C   0  0  0  0  0  0  0  0  0  0  0  0
  189.4720  176.0320  144.4370 C   0  0  2  0  0  3  0  0  0  0  0  0
  194.4930  176.2200  146.4960 C   0  0  0  0  0  3  0  0  0  0  0  0
  192.9240  175.3530  143.3070 C   0  0  0  0  0  0  0  0  0  0  0  0
  195.1920  173.1680  143.5250 C   0  0  0  0  0  1  0  0  0  0  0  0
  190.8300  176.8190  147.3370 C   0  0  0  0  0  2  0  0  0  0  0  0
  193.3020  176.5430  147.1870 C   0  0  0  0  0  3  0  0  0  0  0  0
  194.0250  175.0380  142.3360 C   0  0  0  0  0  2  0  0  0  0  0  0
  188.6320  173.8840  141.6390 C   0  0  1  0  0  3  0  0  0  0  0  0
  189.2880  174.0750  142.9380 N   0  0  1  0  0  0  0  0  0  0  0  0
  192.0410  176.4490  146.5540 C   0  0  0  0  0  0  0  0  0  0  0  0
  191.5980  175.4230  143.0720 N   0  0  0  0  0  0  0  0  0  0  0  0
  195.6400  175.5050  144.3140 C   0  0  0  0  0  2  0  0  0  0  0  0
  188.9500  176.5030  145.8060 C   0  0  1  0  0  3  0  0  0  0  0  0
  196.4780  174.7090  142.1120 C   0  0  0  0  0  1  0  0  0  0  0  0
  189.4950  175.0560  141.8590 C   0  0  1  0  0  3  0  0  0  0  0  0
  191.0040  175.1060  141.7570 C   0  0  0  0  0  2  0  0  0  0  0  0
  189.8240  177.5430  146.4760 C   0  0  0  0  0  2  0  0  0  0  0  0
  186.5550  176.4640  146.5300 C   0  0  0  0  0  3  0  0  0  0  0  0
  187.5440  177.0200  145.7110 C   0  0  0  0  0  0  0  0  0  0  0  0
  187.2090  178.0520  144.8210 C   0  0  0  0  0  3  0  0  0  0  0  0
  185.5400  179.6090  143.8060 C   0  0  0  0  0  1  0  0  0  0  0  0
  184.9080  177.9570  145.5690 C   0  0  0  0  0  3  0  0  0  0  0  0
  185.8920  178.5180  144.7510 C   0  0  0  0  0  0  0  0  0  0  0  0
  185.2400  176.9310  146.4600 C   0  0  0  0  0  3  0  0  0  0  0  0
  189.3260  172.8110  140.8620 C   0  0  0  0  0  0  0  0  0  0  0  0
  190.0710  171.8050  141.5520 N   0  0  0  0  0  2  0  0  0  0  0  0
  189.2750  172.8150  139.6020 O   0  0  0  0  0  0  0  0  0  0  0  0
  190.8050  169.4870  141.7870 C   0  0  0  0  0  1  0  0  0  0  0  0
  190.7160  170.6930  140.8670 C   0  0  2  0  0  3  0  0  0  0  0  0
  192.7120  171.9580  141.3130 O   0  0  0  0  0  1  0  0  0  0  0  0
  192.1020  171.1030  140.3910 C   0  0  0  0  0  2  0  0  0  0  0  0
  1 10  1  0  0  0  0
  1 18  1  0  0  0  0
  2 16  1  0  0  0  0
  4  8  2  0  0  0  0
  5  7  1  0  0  0  0
  5  2  2  0  0  0  0
  6  4  1  0  0  0  0
  6  2  1  0  0  0  0
  7  3  1  1  0  0  0
  7 19  1  0  0  0  0
  8 12  1  0  0  0  0
  9  6  2  0  0  0  0
 13  1  1  0  0  0  0
 13  9  1  0  0  0  0
 14 31  1  6  0  0  0
 14 21  1  0  0  0  0
 14 15  1  0  0  0  0
 15  3  1  1  0  0  0
 16 12  2  0  0  0  0
 16 11  1  0  0  0  0
 17  9  1  0  0  0  0
 17  5  1  0  0  0  0
 18  4  1  0  0  0  0
 19 25  1  6  0  0  0
 19 23  1  0  0  0  0
 20  1  1  0  0  0  0
 21 22  1  6  0  0  0
 21 15  1  0  0  0  0
 22 17  1  0  0  0  0
 23 11  1  0  0  0  0
 25 24  2  0  0  0  0
 26 25  1  0  0  0  0
 27 29  1  0  0  0  0
 28 30  2  0  0  0  0
 29 26  2  0  0  0  0
 29 28  1  0  0  0  0
 30 24  1  0  0  0  0
 31 32  1  0  0  0  0
 33 31  2  0  0  0  0
 35 32  1  0  0  0  0
 35 34  1  1  0  0  0
 37 35  1  0  0  0  0
 37 36  1  0  0  0  0
M  END
>  <MODEL>
1

>  <REMARK>
 VINA RESULT:      -8.8      0.000      0.000
  Name = 
  4 active torsions:
  status: ('A' for Active; 'I' for Inactive)
    1  A    between atoms: CA_4  and  N_12
    2  A    between atoms: CA_4  and  C_37
    3  A    between atoms: C_8  and  C_18
    4  A    between atoms: C_23  and  C_30
                            x       y       z     vdW  Elec       q    Type
                         _______ _______ _______ _____ _____    ______ ____

>  <TORSDO>
F 4

$$$$
=
 OpenBabel11112417203D

 37 43  0  0  1  0  0  0  0  0999 V2000
  195.3550  174.4310  143.1410 C   0  0  0  0  0  0  0  0  0  0  0  0
  192.0520  175.9170  145.2270 C   0  0  0  0  0  0  0  0  0  0  0  0
  188.6130  174.7740  143.9630 C   0  0  0  0  0  2  0  0  0  0  0  0
  194.4710  175.6830  145.1820 C   0  0  0  0  0  0  0  0  0  0  0  0
  191.0390  175.6950  144.2760 C   0  0  0  0  0  0  0  0  0  0  0  0
  193.2230  175.5950  144.6030 C   0  0  0  0  0  0  0  0  0  0  0  0
  189.5200  175.9460  144.4410 C   0  0  2  0  0  3  0  0  0  0  0  0
  194.5410  176.1630  146.4970 C   0  0  0  0  0  3  0  0  0  0  0  0
  192.9660  175.1970  143.3390 C   0  0  0  0  0  0  0  0  0  0  0  0
  195.2150  173.0020  143.6360 C   0  0  0  0  0  1  0  0  0  0  0  0
  190.8820  176.8230  147.3120 C   0  0  0  0  0  2  0  0  0  0  0  0
  193.3520  176.5210  147.1740 C   0  0  0  0  0  3  0  0  0  0  0  0
  194.0650  174.8390  142.3800 C   0  0  0  0  0  2  0  0  0  0  0  0
  188.6630  173.7080  141.7190 C   0  0  1  0  0  3  0  0  0  0  0  0
  189.3200  173.9380  143.0110 N   0  0  1  0  0  0  0  0  0  0  0  0
  192.0910  176.4150  146.5440 C   0  0  0  0  0  0  0  0  0  0  0  0
  191.6410  175.2710  143.1000 N   0  0  0  0  0  0  0  0  0  0  0  0
  195.6830  175.3610  144.3430 C   0  0  0  0  0  2  0  0  0  0  0  0
  189.0000  176.4700  145.7910 C   0  0  1  0  0  3  0  0  0  0  0  0
  196.5150  174.4800  142.1710 C   0  0  0  0  0  1  0  0  0  0  0  0
  189.5360  174.8790  141.8980 C   0  0  1  0  0  3  0  0  0  0  0  0
  191.0450  174.9120  141.7970 C   0  0  0  0  0  2  0  0  0  0  0  0
  189.8830  177.5250  146.4250 C   0  0  0  0  0  2  0  0  0  0  0  0
  186.6100  176.4950  146.5310 C   0  0  0  0  0  3  0  0  0  0  0  0
  187.5990  176.9950  145.6770 C   0  0  0  0  0  0  0  0  0  0  0  0
  187.2680  177.9800  144.7340 C   0  0  0  0  0  3  0  0  0  0  0  0
  185.6090  179.4970  143.6450 C   0  0  0  0  0  1  0  0  0  0  0  0
  184.9720  177.9500  145.5000 C   0  0  0  0  0  3  0  0  0  0  0  0
  185.9560  178.4550  144.6460 C   0  0  0  0  0  0  0  0  0  0  0  0
  185.2990  176.9700  146.4430 C   0  0  0  0  0  3  0  0  0  0  0  0
  189.3470  172.6020  140.9810 C   0  0  0  0  0  0  0  0  0  0  0  0
  189.5040  172.6860  139.5630 N   0  0  0  0  0  2  0  0  0  0  0  0
  189.7560  171.5870  141.6100 O   0  0  0  0  0  0  0  0  0  0  0  0
  191.7060  171.9810  138.7760 C   0  0  0  0  0  1  0  0  0  0  0  0
  190.2170  171.6790  138.7880 C   0  0  2  0  0  3  0  0  0  0  0  0
  188.9220  172.7710  137.0810 O   0  0  0  0  0  1  0  0  0  0  0  0
  189.6720  171.6280  137.3680 C   0  0  0  0  0  2  0  0  0  0  0  0
  1 10  1  0  0  0  0
  1 18  1  0  0  0  0
  2 16  1  0  0  0  0
  4  8  2  0  0  0  0
  5  7  1  0  0  0  0
  5  2  2  0  0  0  0
  6  4  1  0  0  0  0
  6  2  1  0  0  0  0
  7  3  1  1  0  0  0
  7 19  1  0  0  0  0
  8 12  1  0  0  0  0
  9  6  2  0  0  0  0
 13  1  1  0  0  0  0
 13  9  1  0  0  0  0
 14 31  1  6  0  0  0
 14 21  1  0  0  0  0
 14 15  1  0  0  0  0
 15  3  1  1  0  0  0
 16 12  2  0  0  0  0
 16 11  1  0  0  0  0
 17  9  1  0  0  0  0
 17  5  1  0  0  0  0
 18  4  1  0  0  0  0
 19 25  1  6  0  0  0
 19 23  1  0  0  0  0
 20  1  1  0  0  0  0
 21 22  1  6  0  0  0
 21 15  1  0  0  0  0
 22 17  1  0  0  0  0
 23 11  1  0  0  0  0
 25 24  2  0  0  0  0
 26 25  1  0  0  0  0
 27 29  1  0  0  0  0
 28 30  2  0  0  0  0
 29 26  2  0  0  0  0
 29 28  1  0  0  0  0
 30 24  1  0  0  0  0
 31 33  2  0  0  0  0
 32 31  1  0  0  0  0
 35 34  1  6  0  0  0
 35 32  1  0  0  0  0
 36 37  1  0  0  0  0
 37 35  1  0  0  0  0
M  END
>  <MODEL>
2

>  <REMARK>
 VINA RESULT:      -8.6      1.065      1.483
  Name = 
  4 active torsions:
  status: ('A' for Active; 'I' for Inactive)
    1  A    between atoms: CA_4  and  N_12
    2  A    between atoms: CA_4  and  C_37
    3  A    between atoms: C_8  and  C_18
    4  A    between atoms: C_23  and  C_30
                            x       y       z     vdW  Elec       q    Type
                         _______ _______ _______ _____ _____    ______ ____

>  <TORSDO>
F 4

$$$$
=
 OpenBabel11112417203D

 37 43  0  0  1  0  0  0  0  0999 V2000
  192.7790  171.5800  141.1890 C   0  0  0  0  0  0  0  0  0  0  0  0
  189.6210  174.2640  141.7270 C   0  0  0  0  0  0  0  0  0  0  0  0
  190.1610  176.9850  144.3810 C   0  0  0  0  0  2  0  0  0  0  0  0
  190.5410  172.4790  140.3570 C   0  0  0  0  0  0  0  0  0  0  0  0
  189.9460  174.7780  142.9960 C   0  0  0  0  0  0  0  0  0  0  0  0
  190.5160  173.2600  141.4930 C   0  0  0  0  0  0  0  0  0  0  0  0
  189.2200  175.9030  143.7730 C   0  0  2  0  0  3  0  0  0  0  0  0
  189.5580  172.7200  139.3870 C   0  0  0  0  0  3  0  0  0  0  0  0
  191.3510  173.1450  142.5470 C   0  0  0  0  0  0  0  0  0  0  0  0
  193.7170  172.5800  140.5340 C   0  0  0  0  0  1  0  0  0  0  0  0
  187.5700  175.5710  140.9370 C   0  0  0  0  0  2  0  0  0  0  0  0
  188.6040  173.7430  139.5970 C   0  0  0  0  0  3  0  0  0  0  0  0
  192.4080  172.0800  142.6100 C   0  0  0  0  0  2  0  0  0  0  0  0
  192.0940  176.5630  145.8830 C   0  0  1  0  0  3  0  0  0  0  0  0
  191.5020  176.4590  144.5450 N   0  0  1  0  0  0  0  0  0  0  0  0
  188.6130  174.5210  140.7770 C   0  0  0  0  0  0  0  0  0  0  0  0
  191.0140  174.0440  143.4940 N   0  0  0  0  0  0  0  0  0  0  0  0
  191.5440  171.3570  140.2710 C   0  0  0  0  0  2  0  0  0  0  0  0
  188.0130  176.5950  143.1130 C   0  0  1  0  0  3  0  0  0  0  0  0
  193.5160  170.2660  141.3240 C   0  0  0  0  0  1  0  0  0  0  0  0
  191.2800  175.3880  145.5320 C   0  0  1  0  0  3  0  0  0  0  0  0
  191.7360  174.1580  144.7780 C   0  0  0  0  0  2  0  0  0  0  0  0
  187.0930  175.6520  142.3670 C   0  0  0  0  0  2  0  0  0  0  0  0
  186.6330  178.5930  143.7180 C   0  0  0  0  0  3  0  0  0  0  0  0
  187.2170  177.3830  144.1110 C   0  0  0  0  0  0  0  0  0  0  0  0
  187.0450  176.9260  145.4270 C   0  0  0  0  0  3  0  0  0  0  0  0
  186.1180  177.1910  147.7310 C   0  0  0  0  0  1  0  0  0  0  0  0
  185.7190  178.8850  145.9400 C   0  0  0  0  0  3  0  0  0  0  0  0
  186.2970  177.6770  146.3390 C   0  0  0  0  0  0  0  0  0  0  0  0
  185.8860  179.3430  144.6290 C   0  0  0  0  0  3  0  0  0  0  0  0
  193.5600  176.2710  145.8250 C   0  0  0  0  0  0  0  0  0  0  0  0
  194.2210  176.2140  144.5600 N   0  0  0  0  0  2  0  0  0  0  0  0
  194.1980  176.0460  146.8890 O   0  0  0  0  0  0  0  0  0  0  0  0
  196.1680  176.6250  143.1420 C   0  0  0  0  0  1  0  0  0  0  0  0
  195.6560  176.0000  144.4300 C   0  0  2  0  0  3  0  0  0  0  0  0
  196.6890  174.1790  145.6120 O   0  0  0  0  0  1  0  0  0  0  0  0
  195.9700  174.5120  144.4610 C   0  0  0  0  0  2  0  0  0  0  0  0
  1 20  1  0  0  0  0
  1 13  1  0  0  0  0
  2  5  2  0  0  0  0
  4  6  1  0  0  0  0
  5 17  1  0  0  0  0
  5  7  1  0  0  0  0
  6  2  1  0  0  0  0
  6  9  2  0  0  0  0
  7  3  1  6  0  0  0
  8 12  1  0  0  0  0
  8  4  2  0  0  0  0
  9 13  1  0  0  0  0
  9 17  1  0  0  0  0
 10  1  1  0  0  0  0
 11 23  1  0  0  0  0
 12 16  2  0  0  0  0
 14 31  1  6  0  0  0
 15  3  1  1  0  0  0
 15 21  1  0  0  0  0
 15 14  1  0  0  0  0
 16 11  1  0  0  0  0
 16  2  1  0  0  0  0
 17 22  1  0  0  0  0
 18  4  1  0  0  0  0
 18  1  1  0  0  0  0
 19  7  1  0  0  0  0
 19 25  1  1  0  0  0
 21 22  1  6  0  0  0
 21 14  1  0  0  0  0
 23 19  1  0  0  0  0
 24 25  2  0  0  0  0
 24 30  1  0  0  0  0
 25 26  1  0  0  0  0
 26 29  2  0  0  0  0
 28 29  1  0  0  0  0
 29 27  1  0  0  0  0
 30 28  2  0  0  0  0
 31 33  2  0  0  0  0
 32 31  1  0  0  0  0
 35 34  1  6  0  0  0
 35 37  1  0  0  0  0
 35 32  1  0  0  0  0
 37 36  1  0  0  0  0
M  END
>  <MODEL>
3

>  <REMARK>
 VINA RESULT:      -8.0      2.395      5.445
  Name = 
  4 active torsions:
  status: ('A' for Active; 'I' for Inactive)
    1  A    between atoms: CA_4  and  N_12
    2  A    between atoms: CA_4  and  C_37
    3  A    between atoms: C_8  and  C_18
    4  A    between atoms: C_23  and  C_30
                            x       y       z     vdW  Elec       q    Type
                         _______ _______ _______ _____ _____    ______ ____

>  <TORSDO>
F 4

$$$$
=
 OpenBabel11112417203D

 37 43  0  0  1  0  0  0  0  0999 V2000
  194.1870  174.5270  145.1460 C   0  0  0  0  0  0  0  0  0  0  0  0
  190.4370  176.3240  145.5610 C   0  0  0  0  0  0  0  0  0  0  0  0
  187.7390  175.1740  143.0850 C   0  0  0  0  0  2  0  0  0  0  0  0
  192.6410  176.0070  146.5360 C   0  0  0  0  0  0  0  0  0  0  0  0
  189.8860  176.0420  144.2980 C   0  0  0  0  0  0  0  0  0  0  0  0
  191.7340  175.9020  145.5020 C   0  0  0  0  0  0  0  0  0  0  0  0
  188.4540  176.3580  143.8010 C   0  0  2  0  0  3  0  0  0  0  0  0
  192.2030  176.6150  147.7200 C   0  0  0  0  0  3  0  0  0  0  0  0
  191.9870  175.3880  144.2810 C   0  0  0  0  0  0  0  0  0  0  0  0
  193.7560  173.1600  145.6500 C   0  0  0  0  0  1  0  0  0  0  0  0
  188.5880  177.4750  146.9000 C   0  0  0  0  0  2  0  0  0  0  0  0
  190.8710  177.0790  147.8170 C   0  0  0  0  0  3  0  0  0  0  0  0
  193.3520  174.8980  143.8920 C   0  0  0  0  0  2  0  0  0  0  0  0
  188.6220  173.8860  141.1530 C   0  0  1  0  0  3  0  0  0  0  0  0
  188.7100  174.2240  142.5780 N   0  0  1  0  0  0  0  0  0  0  0  0
  189.9720  176.9520  146.7330 C   0  0  0  0  0  0  0  0  0  0  0  0
  190.8830  175.4800  143.5120 N   0  0  0  0  0  0  0  0  0  0  0  0
  194.0630  175.5620  146.2990 C   0  0  0  0  0  2  0  0  0  0  0  0
  187.4690  177.0330  144.7710 C   0  0  1  0  0  3  0  0  0  0  0  0
  195.6420  174.4390  144.7410 C   0  0  0  0  0  1  0  0  0  0  0  0
  189.4280  175.0390  141.5840 C   0  0  1  0  0  3  0  0  0  0  0  0
  190.8460  175.0120  142.1110 C   0  0  0  0  0  2  0  0  0  0  0  0
  188.0900  178.1170  145.6270 C   0  0  0  0  0  2  0  0  0  0  0  0
  185.1760  178.0350  144.7880 C   0  0  0  0  0  3  0  0  0  0  0  0
  186.2770  177.5900  144.0480 C   0  0  0  0  0  0  0  0  0  0  0  0
  186.2530  177.6750  142.6480 C   0  0  0  0  0  3  0  0  0  0  0  0
  185.1090  178.2870  140.5130 C   0  0  0  0  0  1  0  0  0  0  0  0
  184.0350  178.6400  142.7400 C   0  0  0  0  0  3  0  0  0  0  0  0
  185.1320  178.1990  141.9960 C   0  0  0  0  0  0  0  0  0  0  0  0
  184.0570  178.5590  144.1360 C   0  0  0  0  0  3  0  0  0  0  0  0
  189.4660  172.6880  140.8530 C   0  0  0  0  0  0  0  0  0  0  0  0
  189.9930  172.5050  139.5370 N   0  0  0  0  0  2  0  0  0  0  0  0
  189.6840  171.8320  141.7530 O   0  0  0  0  0  0  0  0  0  0  0  0
  191.9740  171.8750  138.2520 C   0  0  0  0  0  1  0  0  0  0  0  0
  190.8760  171.3990  139.1890 C   0  0  2  0  0  3  0  0  0  0  0  0
  190.3460  169.0530  139.1750 O   0  0  0  0  0  1  0  0  0  0  0  0
  190.0790  170.2730  138.5470 C   0  0  0  0  0  2  0  0  0  0  0  0
  1 10  1  0  0  0  0
  1 18  1  0  0  0  0
  2 16  1  0  0  0  0
  4  8  2  0  0  0  0
  5  2  2  0  0  0  0
  6  2  1  0  0  0  0
  6  4  1  0  0  0  0
  7  3  1  1  0  0  0
  7  5  1  0  0  0  0
  7 19  1  0  0  0  0
  8 12  1  0  0  0  0
  9  6  2  0  0  0  0
 13  9  1  0  0  0  0
 13  1  1  0  0  0  0
 14 31  1  1  0  0  0
 14 21  1  0  0  0  0
 14 15  1  0  0  0  0
 15  3  1  6  0  0  0
 16 11  1  0  0  0  0
 16 12  2  0  0  0  0
 17  9  1  0  0  0  0
 17  5  1  0  0  0  0
 18  4  1  0  0  0  0
 19 25  1  6  0  0  0
 19 23  1  0  0  0  0
 20  1  1  0  0  0  0
 21 22  1  1  0  0  0
 21 15  1  0  0  0  0
 22 17  1  0  0  0  0
 23 11  1  0  0  0  0
 25 24  2  0  0  0  0
 26 25  1  0  0  0  0
 27 29  1  0  0  0  0
 28 30  2  0  0  0  0
 29 26  2  0  0  0  0
 29 28  1  0  0  0  0
 30 24  1  0  0  0  0
 31 33  2  0  0  0  0
 32 31  1  0  0  0  0
 35 34  1  6  0  0  0
 35 32  1  0  0  0  0
 37 36  1  0  0  0  0
 37 35  1  0  0  0  0
M  END
>  <MODEL>
4

>  <REMARK>
 VINA RESULT:      -8.0      1.638      2.306
  Name = 
  4 active torsions:
  status: ('A' for Active; 'I' for Inactive)
    1  A    between atoms: CA_4  and  N_12
    2  A    between atoms: CA_4  and  C_37
    3  A    between atoms: C_8  and  C_18
    4  A    between atoms: C_23  and  C_30
                            x       y       z     vdW  Elec       q    Type
                         _______ _______ _______ _____ _____    ______ ____

>  <TORSDO>
F 4

$$$$
=
 OpenBabel11112417203D

 37 43  0  0  1  0  0  0  0  0999 V2000
  190.0040  172.5470  138.5170 C   0  0  0  0  0  0  0  0  0  0  0  0
  187.8280  175.5890  140.3810 C   0  0  0  0  0  0  0  0  0  0  0  0
  189.0950  176.6890  143.8340 C   0  0  0  0  0  2  0  0  0  0  0  0
  188.1910  174.3340  138.3320 C   0  0  0  0  0  0  0  0  0  0  0  0
  188.2510  175.4160  141.7120 C   0  0  0  0  0  0  0  0  0  0  0  0
  188.3710  174.5500  139.6820 C   0  0  0  0  0  0  0  0  0  0  0  0
  187.8850  176.2870  142.9390 C   0  0  2  0  0  3  0  0  0  0  0  0
  187.3690  175.2320  137.6370 C   0  0  0  0  0  3  0  0  0  0  0  0
  189.0890  173.7700  140.5160 C   0  0  0  0  0  0  0  0  0  0  0  0
  191.2310  173.3960  138.2270 C   0  0  0  0  0  1  0  0  0  0  0  0
  186.3190  177.6540  140.3790 C   0  0  0  0  0  2  0  0  0  0  0  0
  186.7760  176.3140  138.3280 C   0  0  0  0  0  3  0  0  0  0  0  0
  189.7570  172.5090  140.0480 C   0  0  0  0  0  2  0  0  0  0  0  0
  190.7420  175.1310  144.8500 C   0  0  1  0  0  3  0  0  0  0  0  0
  190.1970  175.7660  143.6440 N   0  0  1  0  0  0  0  0  0  0  0  0
  186.9860  176.5010  139.7140 C   0  0  0  0  0  0  0  0  0  0  0  0
  189.0160  174.2600  141.7710 N   0  0  0  0  0  0  0  0  0  0  0  0
  188.7960  173.1000  137.7100 C   0  0  0  0  0  2  0  0  0  0  0  0
  186.9810  177.5150  142.7290 C   0  0  1  0  0  3  0  0  0  0  0  0
  190.2870  171.1380  138.0450 C   0  0  0  0  0  1  0  0  0  0  0  0
  189.6150  174.5070  144.1400 C   0  0  1  0  0  3  0  0  0  0  0  0
  189.6900  173.6170  142.9180 C   0  0  0  0  0  2  0  0  0  0  0  0
  185.8390  177.2830  141.7620 C   0  0  0  0  0  2  0  0  0  0  0  0
  185.8460  179.2950  144.0730 C   0  0  0  0  0  3  0  0  0  0  0  0
  186.4350  178.0260  144.0310 C   0  0  0  0  0  0  0  0  0  0  0  0
  186.5020  177.2530  145.1990 C   0  0  0  0  0  3  0  0  0  0  0  0
  186.0600  176.9290  147.6370 C   0  0  0  0  0  1  0  0  0  0  0  0
  185.4010  179.0180  146.4370 C   0  0  0  0  0  3  0  0  0  0  0  0
  185.9860  177.7500  146.4000 C   0  0  0  0  0  0  0  0  0  0  0  0
  185.3300  179.7910  145.2730 C   0  0  0  0  0  3  0  0  0  0  0  0
  192.0440  174.4640  144.5390 C   0  0  0  0  0  0  0  0  0  0  0  0
  192.9730  175.0980  143.6570 N   0  0  0  0  0  2  0  0  0  0  0  0
  192.3020  173.3320  145.0320 O   0  0  0  0  0  0  0  0  0  0  0  0
  195.3760  175.5270  143.7390 C   0  0  0  0  0  1  0  0  0  0  0  0
  194.2860  174.5390  143.3610 C   0  0  2  0  0  3  0  0  0  0  0  0
  193.1610  174.3940  141.2400 O   0  0  0  0  0  1  0  0  0  0  0  0
  194.3820  174.1790  141.8860 C   0  0  0  0  0  2  0  0  0  0  0  0
  1 13  1  0  0  0  0
  2  5  2  0  0  0  0
  4  6  1  0  0  0  0
  5 17  1  0  0  0  0
  5  7  1  0  0  0  0
  6  2  1  0  0  0  0
  6  9  2  0  0  0  0
  7  3  1  6  0  0  0
  8 12  1  0  0  0  0
  8  4  2  0  0  0  0
  9 17  1  0  0  0  0
 10  1  1  0  0  0  0
 11 23  1  0  0  0  0
 12 16  2  0  0  0  0
 13  9  1  0  0  0  0
 14 31  1  6  0  0  0
 15  3  1  1  0  0  0
 15 21  1  0  0  0  0
 15 14  1  0  0  0  0
 16 11  1  0  0  0  0
 16  2  1  0  0  0  0
 17 22  1  0  0  0  0
 18  4  1  0  0  0  0
 18  1  1  0  0  0  0
 19  7  1  0  0  0  0
 19 25  1  1  0  0  0
 20  1  1  0  0  0  0
 21 22  1  6  0  0  0
 21 14  1  0  0  0  0
 23 19  1  0  0  0  0
 24 30  1  0  0  0  0
 25 24  2  0  0  0  0
 25 26  1  0  0  0  0
 26 29  2  0  0  0  0
 29 28  1  0  0  0  0
 29 27  1  0  0  0  0
 30 28  2  0  0  0  0
 31 33  2  0  0  0  0
 32 31  1  0  0  0  0
 35 32  1  0  0  0  0
 35 34  1  6  0  0  0
 36 37  1  0  0  0  0
 37 35  1  0  0  0  0
M  END
>  <MODEL>
5

>  <REMARK>
 VINA RESULT:      -7.8      2.294      5.846
  Name = 
  4 active torsions:
  status: ('A' for Active; 'I' for Inactive)
    1  A    between atoms: CA_4  and  N_12
    2  A    between atoms: CA_4  and  C_37
    3  A    between atoms: C_8  and  C_18
    4  A    between atoms: C_23  and  C_30
                            x       y       z     vdW  Elec       q    Type
                         _______ _______ _______ _____ _____    ______ ____

>  <TORSDO>
F 4

$$$$
=
 OpenBabel11112417203D

 37 43  0  0  1  0  0  0  0  0999 V2000
  195.1980  173.9380  144.9010 C   0  0  0  0  0  0  0  0  0  0  0  0
  191.4810  175.8380  144.7120 C   0  0  0  0  0  0  0  0  0  0  0  0
  189.0310  174.4830  142.0850 C   0  0  0  0  0  2  0  0  0  0  0  0
  193.5560  175.5850  145.9510 C   0  0  0  0  0  0  0  0  0  0  0  0
  191.0610  175.4340  143.4310 C   0  0  0  0  0  0  0  0  0  0  0  0
  192.7630  175.3880  144.8400 C   0  0  0  0  0  0  0  0  0  0  0  0
  189.7000  175.7220  142.7490 C   0  0  2  0  0  3  0  0  0  0  0  0
  193.0110  176.3240  147.0110 C   0  0  0  0  0  3  0  0  0  0  0  0
  193.1300  174.7430  143.7140 C   0  0  0  0  0  0  0  0  0  0  0  0
  194.6730  172.6400  145.4930 C   0  0  0  0  0  1  0  0  0  0  0  0
  189.5330  177.1590  145.7130 C   0  0  0  0  0  2  0  0  0  0  0  0
  191.6910  176.8190  146.9120 C   0  0  0  0  0  3  0  0  0  0  0  0
  194.5140  174.1890  143.5310 C   0  0  0  0  0  2  0  0  0  0  0  0
  190.0780  172.9810  140.4060 C   0  0  1  0  0  3  0  0  0  0  0  0
  190.0220  173.4660  141.7900 N   0  0  1  0  0  0  0  0  0  0  0  0
  190.9100  176.5950  145.7540 C   0  0  0  0  0  0  0  0  0  0  0  0
  192.1180  174.7740  142.8220 N   0  0  0  0  0  0  0  0  0  0  0  0
  194.9810  175.0910  145.9200 C   0  0  0  0  0  2  0  0  0  0  0  0
  188.6370  176.5140  143.5310 C   0  0  1  0  0  3  0  0  0  0  0  0
  196.6850  173.7800  144.6700 C   0  0  0  0  0  1  0  0  0  0  0  0
  190.8670  174.1580  140.8010 C   0  0  1  0  0  3  0  0  0  0  0  0
  192.2190  174.1600  141.4820 C   0  0  0  0  0  2  0  0  0  0  0  0
  189.1940  177.6710  144.3330 C   0  0  0  0  0  2  0  0  0  0  0  0
  187.8050  177.1520  141.2580 C   0  0  0  0  0  3  0  0  0  0  0  0
  187.5480  177.0140  142.6270 C   0  0  0  0  0  0  0  0  0  0  0  0
  186.2790  177.3400  143.1310 C   0  0  0  0  0  3  0  0  0  0  0  0
  183.9380  178.1480  142.8060 C   0  0  0  0  0  1  0  0  0  0  0  0
  185.5440  177.9400  140.9040 C   0  0  0  0  0  3  0  0  0  0  0  0
  185.2800  177.8030  142.2690 C   0  0  0  0  0  0  0  0  0  0  0  0
  186.8060  177.6140  140.3980 C   0  0  0  0  0  3  0  0  0  0  0  0
  190.9140  171.7430  140.3260 C   0  0  0  0  0  0  0  0  0  0  0  0
  190.9150  170.8170  141.4150 N   0  0  0  0  0  2  0  0  0  0  0  0
  191.6350  171.5370  139.3130 O   0  0  0  0  0  0  0  0  0  0  0  0
  190.7030  168.3880  141.5710 C   0  0  0  0  0  1  0  0  0  0  0  0
  191.6510  169.5600  141.3800 C   0  0  2  0  0  3  0  0  0  0  0  0
  192.7220  170.7510  143.1740 O   0  0  0  0  0  1  0  0  0  0  0  0
  192.7290  169.5530  142.4540 C   0  0  0  0  0  2  0  0  0  0  0  0
  1 10  1  0  0  0  0
  1 18  1  0  0  0  0
  2  6  1  0  0  0  0
  2 16  1  0  0  0  0
  4  8  2  0  0  0  0
  5  2  2  0  0  0  0
  6  4  1  0  0  0  0
  7  3  1  1  0  0  0
  7  5  1  0  0  0  0
  7 19  1  0  0  0  0
  9  6  2  0  0  0  0
 11 16  1  0  0  0  0
 12  8  1  0  0  0  0
 13  9  1  0  0  0  0
 13  1  1  0  0  0  0
 14 31  1  1  0  0  0
 14 21  1  0  0  0  0
 14 15  1  0  0  0  0
 15  3  1  6  0  0  0
 16 12  2  0  0  0  0
 17  5  1  0  0  0  0
 17  9  1  0  0  0  0
 18  4  1  0  0  0  0
 19 25  1  6  0  0  0
 19 23  1  0  0  0  0
 20  1  1  0  0  0  0
 21 22  1  1  0  0  0
 21 15  1  0  0  0  0
 22 17  1  0  0  0  0
 23 11  1  0  0  0  0
 24 25  1  0  0  0  0
 25 26  2  0  0  0  0
 28 29  2  0  0  0  0
 29 27  1  0  0  0  0
 29 26  1  0  0  0  0
 30 28  1  0  0  0  0
 30 24  2  0  0  0  0
 31 32  1  0  0  0  0
 33 31  2  0  0  0  0
 35 32  1  0  0  0  0
 35 34  1  1  0  0  0
 35 37  1  0  0  0  0
 37 36  1  0  0  0  0
M  END
>  <MODEL>
6

>  <REMARK>
 VINA RESULT:      -7.7      1.728      2.405
  Name = 
  4 active torsions:
  status: ('A' for Active; 'I' for Inactive)
    1  A    between atoms: CA_4  and  N_12
    2  A    between atoms: CA_4  and  C_37
    3  A    between atoms: C_8  and  C_18
    4  A    between atoms: C_23  and  C_30
                            x       y       z     vdW  Elec       q    Type
                         _______ _______ _______ _____ _____    ______ ____

>  <TORSDO>
F 4

$$$$
=
 OpenBabel11112417203D

 37 43  0  0  1  0  0  0  0  0999 V2000
  187.3960  176.8480  142.7550 C   0  0  0  0  0  0  0  0  0  0  0  0
  190.8930  175.7180  144.7450 C   0  0  0  0  0  0  0  0  0  0  0  0
  193.3630  173.5850  142.7240 C   0  0  0  0  0  2  0  0  0  0  0  0
  188.9030  177.1130  144.7970 C   0  0  0  0  0  0  0  0  0  0  0  0
  191.3010  174.6420  143.9360 C   0  0  0  0  0  0  0  0  0  0  0  0
  189.6680  176.0930  144.2720 C   0  0  0  0  0  0  0  0  0  0  0  0
  192.5980  173.8050  144.0630 C   0  0  2  0  0  3  0  0  0  0  0  0
  189.4110  177.7930  145.9120 C   0  0  0  0  0  3  0  0  0  0  0  0
  189.3240  175.3040  143.2330 C   0  0  0  0  0  0  0  0  0  0  0  0
  188.0710  177.8270  141.8090 C   0  0  0  0  0  1  0  0  0  0  0  0
  192.7350  176.0330  146.4900 C   0  0  0  0  0  2  0  0  0  0  0  0
  190.6700  177.4270  146.4410 C   0  0  0  0  0  3  0  0  0  0  0  0
  187.9970  175.4340  142.5420 C   0  0  0  0  0  2  0  0  0  0  0  0
  192.4080  172.6400  140.6340 C   0  0  1  0  0  3  0  0  0  0  0  0
  192.4680  173.7480  141.5940 N   0  0  1  0  0  0  0  0  0  0  0  0
  191.4240  176.3740  145.8730 C   0  0  0  0  0  0  0  0  0  0  0  0
  190.2930  174.3900  143.0170 N   0  0  0  0  0  0  0  0  0  0  0  0
  187.5350  177.3650  144.2140 C   0  0  0  0  0  2  0  0  0  0  0  0
  193.6060  174.1700  145.1670 C   0  0  1  0  0  3  0  0  0  0  0  0
  185.9250  176.7970  142.4050 C   0  0  0  0  0  1  0  0  0  0  0  0
  191.5210  172.6410  141.8070 C   0  0  1  0  0  3  0  0  0  0  0  0
  190.2030  173.3720  141.9510 C   0  0  0  0  0  2  0  0  0  0  0  0
  192.9670  174.5410  146.4890 C   0  0  0  0  0  2  0  0  0  0  0  0
  195.9670  173.3830  145.4290 C   0  0  0  0  0  3  0  0  0  0  0  0
  194.6040  173.0700  145.3880 C   0  0  0  0  0  0  0  0  0  0  0  0
  194.1910  171.7400  145.5570 C   0  0  0  0  0  3  0  0  0  0  0  0
  194.6990  169.3240  145.9390 C   0  0  0  0  0  1  0  0  0  0  0  0
  196.4990  171.0500  145.8000 C   0  0  0  0  0  3  0  0  0  0  0  0
  195.1390  170.7320  145.7620 C   0  0  0  0  0  0  0  0  0  0  0  0
  196.9140  172.3760  145.6350 C   0  0  0  0  0  3  0  0  0  0  0  0
  191.6990  173.0720  139.3900 C   0  0  0  0  0  0  0  0  0  0  0  0
  190.7040  172.2250  138.8110 N   0  0  0  0  0  2  0  0  0  0  0  0
  192.0040  174.1660  138.8420 O   0  0  0  0  0  0  0  0  0  0  0  0
  188.5960  173.2060  138.0630 C   0  0  0  0  0  1  0  0  0  0  0  0
  189.9270  172.6080  137.6400 C   0  0  2  0  0  3  0  0  0  0  0  0
  189.6920  170.2200  137.4840 O   0  0  0  0  0  1  0  0  0  0  0  0
  189.7070  171.4020  136.7380 C   0  0  0  0  0  2  0  0  0  0  0  0
  1 18  1  0  0  0  0
  2 16  1  0  0  0  0
  4  8  2  0  0  0  0
  5  7  1  0  0  0  0
  5  2  2  0  0  0  0
  6  2  1  0  0  0  0
  6  4  1  0  0  0  0
  7  3  1  6  0  0  0
  7 19  1  0  0  0  0
  8 12  1  0  0  0  0
  9  6  2  0  0  0  0
 10  1  1  0  0  0  0
 13  1  1  0  0  0  0
 13  9  1  0  0  0  0
 14 31  1  6  0  0  0
 14 15  1  0  0  0  0
 14 21  1  0  0  0  0
 15 21  1  0  0  0  0
 15  3  1  1  0  0  0
 16 12  2  0  0  0  0
 16 11  1  0  0  0  0
 17  9  1  0  0  0  0
 17  5  1  0  0  0  0
 18  4  1  0  0  0  0
 19 25  1  1  0  0  0
 19 23  1  0  0  0  0
 20  1  1  0  0  0  0
 21 22  1  6  0  0  0
 22 17  1  0  0  0  0
 23 11  1  0  0  0  0
 24 30  1  0  0  0  0
 25 24  2  0  0  0  0
 25 26  1  0  0  0  0
 26 29  2  0  0  0  0
 29 28  1  0  0  0  0
 29 27  1  0  0  0  0
 30 28  2  0  0  0  0
 32 31  1  0  0  0  0
 33 31  2  0  0  0  0
 35 34  1  1  0  0  0
 35 32  1  0  0  0  0
 37 36  1  0  0  0  0
 37 35  1  0  0  0  0
M  END
>  <MODEL>
7

>  <REMARK>
 VINA RESULT:      -7.5      2.342      6.689
  Name = 
  4 active torsions:
  status: ('A' for Active; 'I' for Inactive)
    1  A    between atoms: CA_4  and  N_12
    2  A    between atoms: CA_4  and  C_37
    3  A    between atoms: C_8  and  C_18
    4  A    between atoms: C_23  and  C_30
                            x       y       z     vdW  Elec       q    Type
                         _______ _______ _______ _____ _____    ______ ____

>  <TORSDO>
F 4

$$$$
=
 OpenBabel11112417203D

 37 43  0  0  1  0  0  0  0  0999 V2000
  189.9310  175.2020  146.8160 C   0  0  0  0  0  0  0  0  0  0  0  0
  193.5110  175.5490  144.6880 C   0  0  0  0  0  0  0  0  0  0  0  0
  193.3290  174.7180  140.9440 C   0  0  0  0  0  2  0  0  0  0  0  0
  192.3590  175.9870  146.7830 C   0  0  0  0  0  0  0  0  0  0  0  0
  193.2020  174.7730  143.5550 C   0  0  0  0  0  0  0  0  0  0  0  0
  192.4540  175.3990  145.5390 C   0  0  0  0  0  0  0  0  0  0  0  0
  194.0790  174.5470  142.2990 C   0  0  2  0  0  3  0  0  0  0  0  0
  193.4390  176.7710  147.2100 C   0  0  0  0  0  3  0  0  0  0  0  0
  191.5370  174.5810  144.9810 C   0  0  0  0  0  0  0  0  0  0  0  0
  189.2620  176.4100  146.1820 C   0  0  0  0  0  1  0  0  0  0  0  0
  195.8340  176.5300  144.2630 C   0  0  0  0  0  2  0  0  0  0  0  0
  194.5590  176.9400  146.3640 C   0  0  0  0  0  3  0  0  0  0  0  0
  190.2880  174.1750  145.7090 C   0  0  0  0  0  2  0  0  0  0  0  0
  191.2450  173.5460  140.2690 C   0  0  1  0  0  3  0  0  0  0  0  0
  191.9010  174.5390  141.1260 N   0  0  1  0  0  0  0  0  0  0  0  0
  194.6180  176.3200  145.0950 C   0  0  0  0  0  0  0  0  0  0  0  0
  191.9760  174.1620  143.7760 N   0  0  0  0  0  0  0  0  0  0  0  0
  191.1610  175.6710  147.6430 C   0  0  0  0  0  2  0  0  0  0  0  0
  195.4440  175.2520  142.2140 C   0  0  1  0  0  3  0  0  0  0  0  0
  188.9400  174.5580  147.7600 C   0  0  0  0  0  1  0  0  0  0  0  0
  191.8330  173.1310  141.5520 C   0  0  1  0  0  3  0  0  0  0  0  0
  191.1980  173.2420  142.9220 C   0  0  0  0  0  2  0  0  0  0  0  0
  196.2110  175.2700  143.5200 C   0  0  0  0  0  2  0  0  0  0  0  0
  196.8070  173.3630  141.3020 C   0  0  0  0  0  3  0  0  0  0  0  0
  196.3060  174.6590  141.1380 C   0  0  0  0  0  0  0  0  0  0  0  0
  196.6110  175.3790  139.9740 C   0  0  0  0  0  3  0  0  0  0  0  0
  197.7390  175.5720  137.7530 C   0  0  0  0  0  1  0  0  0  0  0  0
  197.9150  173.5110  139.1550 C   0  0  0  0  0  3  0  0  0  0  0  0
  197.4160  174.8050  138.9840 C   0  0  0  0  0  0  0  0  0  0  0  0
  197.6100  172.7890  140.3130 C   0  0  0  0  0  3  0  0  0  0  0  0
  189.7590  173.6940  140.3510 C   0  0  0  0  0  0  0  0  0  0  0  0
  189.1950  174.8760  140.9210 N   0  0  0  0  0  2  0  0  0  0  0  0
  189.0130  172.7620  139.9450 O   0  0  0  0  0  0  0  0  0  0  0  0
  187.4440  176.5290  140.5050 C   0  0  0  0  0  1  0  0  0  0  0  0
  187.7590  175.1180  140.9730 C   0  0  2  0  0  3  0  0  0  0  0  0
  186.3700  175.9230  142.7630 O   0  0  0  0  0  1  0  0  0  0  0  0
  187.2410  174.8980  142.3870 C   0  0  0  0  0  2  0  0  0  0  0  0
  1 18  1  0  0  0  0
  1 20  1  0  0  0  0
  2 16  1  0  0  0  0
  2  6  1  0  0  0  0
  4  8  2  0  0  0  0
  4 18  1  0  0  0  0
  5 17  1  0  0  0  0
  5  2  2  0  0  0  0
  6  4  1  0  0  0  0
  7  3  1  6  0  0  0
  7  5  1  0  0  0  0
  9  6  2  0  0  0  0
  9 13  1  0  0  0  0
 10  1  1  0  0  0  0
 11 16  1  0  0  0  0
 12  8  1  0  0  0  0
 13  1  1  0  0  0  0
 14 31  1  1  0  0  0
 14 15  1  0  0  0  0
 14 21  1  0  0  0  0
 15  3  1  6  0  0  0
 15 21  1  0  0  0  0
 16 12  2  0  0  0  0
 17  9  1  0  0  0  0
 19 25  1  6  0  0  0
 19  7  1  0  0  0  0
 19 23  1  0  0  0  0
 21 22  1  1  0  0  0
 22 17  1  0  0  0  0
 23 11  1  0  0  0  0
 25 24  1  0  0  0  0
 26 25  2  0  0  0  0
 27 29  1  0  0  0  0
 28 30  1  0  0  0  0
 29 28  2  0  0  0  0
 29 26  1  0  0  0  0
 30 24  2  0  0  0  0
 31 32  1  0  0  0  0
 32 35  1  0  0  0  0
 33 31  2  0  0  0  0
 35 34  1  1  0  0  0
 35 37  1  0  0  0  0
 37 36  1  0  0  0  0
M  END
>  <MODEL>
8

>  <REMARK>
 VINA RESULT:      -7.2      2.311      7.177
  Name = 
  4 active torsions:
  status: ('A' for Active; 'I' for Inactive)
    1  A    between atoms: CA_4  and  N_12
    2  A    between atoms: CA_4  and  C_37
    3  A    between atoms: C_8  and  C_18
    4  A    between atoms: C_23  and  C_30
                            x       y       z     vdW  Elec       q    Type
                         _______ _______ _______ _____ _____    ______ ____

>  <TORSDO>
F 4

$$$$
=
 OpenBabel11112417203D

 37 43  0  0  1  0  0  0  0  0999 V2000
  187.4490  176.4230  142.8700 C   0  0  0  0  0  0  0  0  0  0  0  0
  191.1290  175.3570  144.5400 C   0  0  0  0  0  0  0  0  0  0  0  0
  193.0640  172.5880  142.7160 C   0  0  0  0  0  2  0  0  0  0  0  0
  189.2870  176.9420  144.5630 C   0  0  0  0  0  0  0  0  0  0  0  0
  191.3160  174.0960  143.9430 C   0  0  0  0  0  0  0  0  0  0  0  0
  189.8750  175.7570  144.1760 C   0  0  0  0  0  0  0  0  0  0  0  0
  192.5480  173.1670  144.0670 C   0  0  2  0  0  3  0  0  0  0  0  0
  190.0210  177.7810  145.4130 C   0  0  0  0  0  3  0  0  0  0  0  0
  189.3070  174.8100  143.4000 C   0  0  0  0  0  0  0  0  0  0  0  0
  188.0330  177.1020  141.6420 C   0  0  0  0  0  1  0  0  0  0  0  0
  193.2510  175.8250  145.8880 C   0  0  0  0  0  2  0  0  0  0  0  0
  191.3180  177.3960  145.8240 C   0  0  0  0  0  3  0  0  0  0  0  0
  187.8980  174.9380  142.8960 C   0  0  0  0  0  2  0  0  0  0  0  0
  191.7100  171.3370  141.0510 C   0  0  1  0  0  3  0  0  0  0  0  0
  192.0110  172.6080  141.7190 N   0  0  1  0  0  0  0  0  0  0  0  0
  191.8860  176.1710  145.4050 C   0  0  0  0  0  0  0  0  0  0  0  0
  190.1540  173.7700  143.2580 N   0  0  0  0  0  0  0  0  0  0  0  0
  187.8650  177.2160  144.1410 C   0  0  0  0  0  2  0  0  0  0  0  0
  193.7490  173.6410  144.9050 C   0  0  1  0  0  3  0  0  0  0  0  0
  185.9410  176.4630  142.7560 C   0  0  0  0  0  1  0  0  0  0  0  0
  191.0300  171.6820  142.3090 C   0  0  1  0  0  3  0  0  0  0  0  0
  189.8130  172.5670  142.4720 C   0  0  0  0  0  2  0  0  0  0  0  0
  193.3650  174.3490  146.1880 C   0  0  0  0  0  2  0  0  0  0  0  0
  196.0610  172.6970  145.0700 C   0  0  0  0  0  3  0  0  0  0  0  0
  194.6820  172.5090  145.2210 C   0  0  0  0  0  0  0  0  0  0  0  0
  194.1960  171.2710  145.6690 C   0  0  0  0  0  3  0  0  0  0  0  0
  194.5660  168.9210  146.4300 C   0  0  0  0  0  1  0  0  0  0  0  0
  196.4600  170.4250  145.8020 C   0  0  0  0  0  3  0  0  0  0  0  0
  195.0850  170.2310  145.9580 C   0  0  0  0  0  0  0  0  0  0  0  0
  196.9480  171.6580  145.3590 C   0  0  0  0  0  3  0  0  0  0  0  0
  190.8420  171.5740  139.8560 C   0  0  0  0  0  0  0  0  0  0  0  0
  190.8710  172.8430  139.1990 N   0  0  0  0  0  2  0  0  0  0  0  0
  190.0660  170.6650  139.4540 O   0  0  0  0  0  0  0  0  0  0  0  0
  190.8150  174.1640  137.1450 C   0  0  0  0  0  1  0  0  0  0  0  0
  190.1030  173.1240  137.9930 C   0  0  2  0  0  3  0  0  0  0  0  0
  188.7270  174.3350  139.5490 O   0  0  0  0  0  1  0  0  0  0  0  0
  188.7060  173.6020  138.3600 C   0  0  0  0  0  2  0  0  0  0  0  0
  1 13  1  0  0  0  0
  1 18  1  0  0  0  0
  2 16  1  0  0  0  0
  4  8  2  0  0  0  0
  5  7  1  0  0  0  0
  5  2  2  0  0  0  0
  6  2  1  0  0  0  0
  6  4  1  0  0  0  0
  7  3  1  6  0  0  0
  7 19  1  0  0  0  0
  8 12  1  0  0  0  0
  9  6  2  0  0  0  0
 10  1  1  0  0  0  0
 11 23  1  0  0  0  0
 13  9  1  0  0  0  0
 14 31  1  6  0  0  0
 14 15  1  0  0  0  0
 14 21  1  0  0  0  0
 15 21  1  0  0  0  0
 15  3  1  1  0  0  0
 16 12  2  0  0  0  0
 16 11  1  0  0  0  0
 17  9  1  0  0  0  0
 17  5  1  0  0  0  0
 18  4  1  0  0  0  0
 19 25  1  1  0  0  0
 19 23  1  0  0  0  0
 20  1  1  0  0  0  0
 21 22  1  6  0  0  0
 22 17  1  0  0  0  0
 24 25  2  0  0  0  0
 24 30  1  0  0  0  0
 25 26  1  0  0  0  0
 26 29  2  0  0  0  0
 28 29  1  0  0  0  0
 29 27  1  0  0  0  0
 30 28  2  0  0  0  0
 32 31  1  0  0  0  0
 33 31  2  0  0  0  0
 35 34  1  1  0  0  0
 35 37  1  0  0  0  0
 35 32  1  0  0  0  0
 37 36  1  0  0  0  0
M  END
>  <MODEL>
9

>  <REMARK>
 VINA RESULT:      -7.2      2.302      6.803
  Name = 
  4 active torsions:
  status: ('A' for Active; 'I' for Inactive)
    1  A    between atoms: CA_4  and  N_12
    2  A    between atoms: CA_4  and  C_37
    3  A    between atoms: C_8  and  C_18
    4  A    between atoms: C_23  and  C_30
                            x       y       z     vdW  Elec       q    Type
                         _______ _______ _______ _____ _____    ______ ____

>  <TORSDO>
F 4

$$$$
