=
 OpenBabel11112416373D

 32 37  0  0  1  0  0  0  0  0999 V2000
  195.6500  174.8710  145.9630 C   0  0  0  0  0  2  0  0  0  0  0  0
  190.2500  176.2770  145.0590 C   0  0  0  0  0  0  0  0  0  0  0  0
  188.7200  174.6470  140.6340 C   0  0  0  0  0  2  0  0  0  0  0  0
  187.4000  174.2640  141.2730 C   0  0  0  0  0  2  0  0  0  0  0  0
  188.6030  177.3450  146.5010 C   0  0  0  0  0  0  0  0  0  0  0  0
  187.2660  177.6550  146.7130 C   0  0  0  0  0  0  0  0  0  0  0  0
  192.6910  175.8940  145.6010 C   0  0  2  0  0  3  0  0  0  0  0  0
  191.3240  174.1910  144.2400 C   0  0  0  0  0  2  0  0  0  0  0  0
  184.9680  177.7260  146.2780 C   0  0  1  0  0  3  0  0  0  0  0  0
  193.7440  173.7740  144.6890 C   0  0  0  0  0  2  0  0  0  0  0  0
  189.8230  174.5150  141.6730 C   0  0  0  0  0  2  0  0  0  0  0  0
  190.6310  175.4940  143.8240 C   0  0  1  0  0  3  0  0  0  0  0  0
  189.5150  175.2370  142.9150 N   0  0  0  0  0  0  0  0  0  0  0  0
  187.9090  176.2560  144.4150 C   0  0  0  0  0  0  0  0  0  0  0  0
  185.3320  178.4070  147.5730 C   0  0  0  0  0  3  0  0  0  0  0  0
  194.8580  176.1810  145.9730 C   0  0  0  0  0  2  0  0  0  0  0  0
  192.4710  174.4090  145.2420 C   0  0  1  0  0  3  0  0  0  0  0  0
  186.6450  178.3630  147.8160 C   0  0  0  0  0  3  0  0  0  0  0  0
  193.6330  176.0220  146.6290 O   0  0  0  0  0  0  0  0  0  0  0  0
  194.7860  173.6170  145.7950 C   0  0  1  0  0  3  0  0  0  0  0  0
  187.0310  175.3080  142.3130 C   0  0  0  0  0  2  0  0  0  0  0  0
  188.1610  175.5810  143.2780 C   0  0  0  0  0  0  0  0  0  0  0  0
  186.6140  176.6010  144.7000 N   0  0  0  0  0  0  0  0  0  0  0  0
  191.3780  176.5550  146.0280 C   0  0  0  0  0  2  0  0  0  0  0  0
  189.5110  177.7530  147.4250 F   0  0  0  0  0  0  0  0  0  0  0  0
  184.3970  178.7460  145.3100 C   0  0  0  0  0  1  0  0  0  0  0  0
  188.9620  176.6220  145.3220 C   0  0  0  0  0  0  0  0  0  0  0  0
  186.3100  177.2880  145.8240 C   0  0  0  0  0  0  0  0  0  0  0  0
  195.6900  172.4300  145.5070 C   0  0  0  0  0  2  0  0  0  0  0  0
  194.9120  171.2910  144.8670 C   0  0  1  0  0  3  0  0  0  0  0  0
  195.6590  170.7190  143.8370 O   0  0  0  0  0  1  0  0  0  0  0  0
  194.6190  170.2360  145.9130 C   0  0  0  0  0  1  0  0  0  0  0  0
  1 16  1  0  0  0  0
  2 27  2  0  0  0  0
  2 24  1  0  0  0  0
  3  4  1  0  0  0  0
  3 11  1  0  0  0  0
  4 21  1  0  0  0  0
  5  6  2  0  0  0  0
  5 25  1  0  0  0  0
  6 18  1  0  0  0  0
  7 24  1  1  0  0  0
  7 19  1  0  0  0  0
  9 26  1  6  0  0  0
  9 15  1  0  0  0  0
 10 17  1  0  0  0  0
 10 20  1  0  0  0  0
 11 13  1  0  0  0  0
 12  8  1  1  0  0  0
 12  2  1  0  0  0  0
 13 22  1  0  0  0  0
 13 12  1  0  0  0  0
 14 23  1  0  0  0  0
 14 27  1  0  0  0  0
 15 18  2  0  0  0  0
 16 19  1  0  0  0  0
 17  8  1  6  0  0  0
 17  7  1  0  0  0  0
 20 29  1  6  0  0  0
 20  1  1  0  0  0  0
 21 22  1  0  0  0  0
 22 14  2  0  0  0  0
 23 28  2  0  0  0  0
 27  5  1  0  0  0  0
 28  9  1  0  0  0  0
 28  6  1  0  0  0  0
 30 29  1  0  0  0  0
 30 32  1  1  0  0  0
 31 30  1  0  0  0  0
M  END
>  <MODEL>
1

>  <REMARK>
 VINA RESULT:      -8.6      0.000      0.000
  Name = 
  2 active torsions:
  status: ('A' for Active; 'I' for Inactive)
    1  A    between atoms: C_20  and  C_29
    2  A    between atoms: C_29  and  C_30
                            x       y       z     vdW  Elec       q    Type
                         _______ _______ _______ _____ _____    ______ ____

>  <TORSDO>
F 2

$$$$
=
 OpenBabel11112416373D

 32 37  0  0  1  0  0  0  0  0999 V2000
  185.6110  177.5120  147.1990 C   0  0  0  0  0  2  0  0  0  0  0  0
  190.1960  175.6920  144.4370 C   0  0  0  0  0  0  0  0  0  0  0  0
  188.9230  172.7690  140.6410 C   0  0  0  0  0  2  0  0  0  0  0  0
  190.0000  173.4380  139.8120 C   0  0  0  0  0  2  0  0  0  0  0  0
  192.5550  176.2340  144.7040 C   0  0  0  0  0  0  0  0  0  0  0  0
  193.8340  176.1700  144.1660 C   0  0  0  0  0  0  0  0  0  0  0  0
  188.3000  176.4900  145.9090 C   0  0  2  0  0  3  0  0  0  0  0  0
  188.0070  176.1900  143.3700 C   0  0  0  0  0  2  0  0  0  0  0  0
  195.5020  175.6380  142.6140 C   0  0  1  0  0  3  0  0  0  0  0  0
  186.0750  176.9280  144.7690 C   0  0  0  0  0  2  0  0  0  0  0  0
  188.3830  173.7740  141.6460 C   0  0  0  0  0  2  0  0  0  0  0  0
  189.0450  175.0980  143.6580 C   0  0  1  0  0  3  0  0  0  0  0  0
  189.4480  174.4100  142.4320 N   0  0  0  0  0  0  0  0  0  0  0  0
  191.7730  175.0310  142.7140 C   0  0  0  0  0  0  0  0  0  0  0  0
  196.0420  176.3780  143.8110 C   0  0  0  0  0  3  0  0  0  0  0  0
  186.8900  176.7690  147.5970 C   0  0  0  0  0  2  0  0  0  0  0  0
  187.5940  176.9780  144.6260 C   0  0  1  0  0  3  0  0  0  0  0  0
  195.0850  176.6800  144.6930 C   0  0  0  0  0  3  0  0  0  0  0  0
  188.0120  177.3380  146.9860 O   0  0  0  0  0  0  0  0  0  0  0  0
  185.5970  178.0000  145.7460 C   0  0  1  0  0  3  0  0  0  0  0  0
  191.2000  173.7280  140.6980 C   0  0  0  0  0  2  0  0  0  0  0  0
  190.8140  174.4550  141.9660 C   0  0  0  0  0  0  0  0  0  0  0  0
  193.0640  175.0120  142.2550 N   0  0  0  0  0  0  0  0  0  0  0  0
  189.8150  176.4190  145.7080 C   0  0  0  0  0  2  0  0  0  0  0  0
  192.3960  176.8410  145.9080 F   0  0  0  0  0  0  0  0  0  0  0  0
  196.0970  174.2420  142.5680 C   0  0  0  0  0  1  0  0  0  0  0  0
  191.4720  175.6550  143.9730 C   0  0  0  0  0  0  0  0  0  0  0  0
  194.0650  175.5680  142.9730 C   0  0  0  0  0  0  0  0  0  0  0  0
  184.1890  178.4500  145.3910 C   0  0  0  0  0  2  0  0  0  0  0  0
  184.1930  179.3460  144.1630 C   0  0  1  0  0  3  0  0  0  0  0  0
  185.4180  180.0030  144.0530 O   0  0  0  0  0  1  0  0  0  0  0  0
  183.9700  178.5000  142.9270 C   0  0  0  0  0  1  0  0  0  0  0  0
  1 16  1  0  0  0  0
  2 24  1  0  0  0  0
  3 11  1  0  0  0  0
  4  3  1  0  0  0  0
  4 21  1  0  0  0  0
  5 25  1  0  0  0  0
  6 18  1  0  0  0  0
  6  5  2  0  0  0  0
  7 24  1  6  0  0  0
  7 19  1  0  0  0  0
  9 26  1  1  0  0  0
  9 28  1  0  0  0  0
  9 15  1  0  0  0  0
 10 20  1  0  0  0  0
 11 13  1  0  0  0  0
 12  8  1  6  0  0  0
 12  2  1  0  0  0  0
 13 12  1  0  0  0  0
 14 27  1  0  0  0  0
 15 18  2  0  0  0  0
 17  8  1  6  0  0  0
 17 10  1  0  0  0  0
 17  7  1  0  0  0  0
 19 16  1  0  0  0  0
 20 29  1  6  0  0  0
 20  1  1  0  0  0  0
 21 22  1  0  0  0  0
 22 13  1  0  0  0  0
 22 14  2  0  0  0  0
 23 14  1  0  0  0  0
 23 28  2  0  0  0  0
 27  2  2  0  0  0  0
 27  5  1  0  0  0  0
 28  6  1  0  0  0  0
 30 32  1  6  0  0  0
 30 29  1  0  0  0  0
 31 30  1  0  0  0  0
M  END
>  <MODEL>
2

>  <REMARK>
 VINA RESULT:      -8.6      2.978      7.860
  Name = 
  2 active torsions:
  status: ('A' for Active; 'I' for Inactive)
    1  A    between atoms: C_20  and  C_29
    2  A    between atoms: C_29  and  C_30
                            x       y       z     vdW  Elec       q    Type
                         _______ _______ _______ _____ _____    ______ ____

>  <TORSDO>
F 2

$$$$
=
 OpenBabel11112416373D

 32 37  0  0  1  0  0  0  0  0999 V2000
  191.3300  172.1660  139.3800 C   0  0  0  0  0  2  0  0  0  0  0  0
  188.8080  175.2310  143.4060 C   0  0  0  0  0  0  0  0  0  0  0  0
  191.5350  175.2910  147.5460 C   0  0  0  0  0  2  0  0  0  0  0  0
  191.1910  176.7570  147.7070 C   0  0  0  0  0  2  0  0  0  0  0  0
  186.7890  176.5930  143.3630 C   0  0  0  0  0  0  0  0  0  0  0  0
  186.0190  177.5560  144.0020 C   0  0  0  0  0  0  0  0  0  0  0  0
  189.6770  173.7810  141.5240 C   0  0  2  0  0  3  0  0  0  0  0  0
  191.2670  175.0630  143.0880 C   0  0  0  0  0  2  0  0  0  0  0  0
  185.4200  179.0930  145.6610 C   0  0  1  0  0  3  0  0  0  0  0  0
  192.1970  173.6060  141.2860 C   0  0  0  0  0  2  0  0  0  0  0  0
  191.5680  174.9550  146.0620 C   0  0  0  0  0  2  0  0  0  0  0  0
  190.1030  174.7870  144.0470 C   0  0  1  0  0  3  0  0  0  0  0  0
  190.3460  175.3750  145.3640 N   0  0  0  0  0  0  0  0  0  0  0  0
  188.3590  176.7550  145.2410 C   0  0  0  0  0  0  0  0  0  0  0  0
  184.4200  179.0410  144.5330 C   0  0  0  0  0  3  0  0  0  0  0  0
  189.9540  172.1450  140.0530 C   0  0  0  0  0  2  0  0  0  0  0  0
  191.0290  174.5100  141.6720 C   0  0  1  0  0  3  0  0  0  0  0  0
  184.7690  178.1630  143.5890 C   0  0  0  0  0  3  0  0  0  0  0  0
  189.4410  173.4400  140.1860 O   0  0  0  0  0  0  0  0  0  0  0  0
  192.2040  173.3590  139.7790 C   0  0  1  0  0  3  0  0  0  0  0  0
  189.7560  176.9820  147.2630 C   0  0  0  0  0  2  0  0  0  0  0  0
  189.4800  176.4000  145.8950 C   0  0  0  0  0  0  0  0  0  0  0  0
  187.5420  177.7000  145.8040 N   0  0  0  0  0  0  0  0  0  0  0  0
  188.5260  174.6490  142.0380 C   0  0  0  0  0  2  0  0  0  0  0  0
  186.3450  176.0980  142.1790 F   0  0  0  0  0  0  0  0  0  0  0  0
  184.7620  178.6240  146.9460 C   0  0  0  0  0  1  0  0  0  0  0  0
  188.0030  176.1620  143.9820 C   0  0  0  0  0  0  0  0  0  0  0  0
  186.4000  178.0830  145.1920 C   0  0  0  0  0  0  0  0  0  0  0  0
  193.6230  173.1170  139.2890 C   0  0  0  0  0  2  0  0  0  0  0  0
  194.1280  174.2930  138.4690 C   0  0  1  0  0  3  0  0  0  0  0  0
  193.0640  174.9160  137.8160 O   0  0  0  0  0  1  0  0  0  0  0  0
  194.8000  175.2910  139.3880 C   0  0  0  0  0  1  0  0  0  0  0  0
  1 20  1  0  0  0  0
  1 16  1  0  0  0  0
  2 27  2  0  0  0  0
  2 12  1  0  0  0  0
  3  4  1  0  0  0  0
  5 27  1  0  0  0  0
  5  6  2  0  0  0  0
  6 28  1  0  0  0  0
  7 17  1  0  0  0  0
  7 24  1  6  0  0  0
  9 26  1  1  0  0  0
 11  3  1  0  0  0  0
 12  8  1  6  0  0  0
 12 13  1  0  0  0  0
 13 22  1  0  0  0  0
 13 11  1  0  0  0  0
 14 23  1  0  0  0  0
 14 22  2  0  0  0  0
 15  9  1  0  0  0  0
 16 19  1  0  0  0  0
 17 10  1  1  0  0  0
 17  8  1  0  0  0  0
 18  6  1  0  0  0  0
 18 15  2  0  0  0  0
 19  7  1  0  0  0  0
 20 29  1  1  0  0  0
 20 10  1  0  0  0  0
 21  4  1  0  0  0  0
 22 21  1  0  0  0  0
 24  2  1  0  0  0  0
 25  5  1  0  0  0  0
 27 14  1  0  0  0  0
 28  9  1  0  0  0  0
 28 23  2  0  0  0  0
 30 29  1  0  0  0  0
 30 32  1  1  0  0  0
 31 30  1  0  0  0  0
M  END
>  <MODEL>
3

>  <REMARK>
 VINA RESULT:      -8.3      3.251      5.218
  Name = 
  2 active torsions:
  status: ('A' for Active; 'I' for Inactive)
    1  A    between atoms: C_20  and  C_29
    2  A    between atoms: C_29  and  C_30
                            x       y       z     vdW  Elec       q    Type
                         _______ _______ _______ _____ _____    ______ ____

>  <TORSDO>
F 2

$$$$
=
 OpenBabel11112416373D

 32 37  0  0  1  0  0  0  0  0999 V2000
  185.5890  178.3780  142.9300 C   0  0  0  0  0  2  0  0  0  0  0  0
  189.9270  174.7570  143.1080 C   0  0  0  0  0  0  0  0  0  0  0  0
  193.7910  176.7500  145.4890 C   0  0  0  0  0  2  0  0  0  0  0  0
  194.0290  175.4080  146.1500 C   0  0  0  0  0  2  0  0  0  0  0  0
  190.1160  172.4380  142.3910 C   0  0  0  0  0  0  0  0  0  0  0  0
  190.8540  171.2610  142.4310 C   0  0  0  0  0  0  0  0  0  0  0  0
  187.9270  176.2700  142.7730 C   0  0  2  0  0  3  0  0  0  0  0  0
  189.3740  176.3910  144.8980 C   0  0  0  0  0  2  0  0  0  0  0  0
  192.6090  169.8290  143.0170 C   0  0  1  0  0  3  0  0  0  0  0  0
  187.4490  177.9540  144.6100 C   0  0  0  0  0  2  0  0  0  0  0  0
  192.3020  176.9090  145.2250 C   0  0  0  0  0  2  0  0  0  0  0  0
  190.4290  175.9610  143.8710 C   0  0  1  0  0  3  0  0  0  0  0  0
  191.7350  175.7640  144.5000 N   0  0  0  0  0  0  0  0  0  0  0  0
  191.8420  173.4430  143.8130 C   0  0  0  0  0  0  0  0  0  0  0  0
  191.5790  169.1550  142.1470 C   0  0  0  0  0  3  0  0  0  0  0  0
  186.3870  177.5950  141.8840 C   0  0  0  0  0  2  0  0  0  0  0  0
  187.9700  176.5560  144.2890 C   0  0  1  0  0  3  0  0  0  0  0  0
  190.5790  169.9770  141.8160 C   0  0  0  0  0  3  0  0  0  0  0  0
  186.6080  176.2780  142.3040 O   0  0  0  0  0  0  0  0  0  0  0  0
  185.9400  178.0260  144.3790 C   0  0  1  0  0  3  0  0  0  0  0  0
  193.7290  174.3030  145.1520 C   0  0  0  0  0  2  0  0  0  0  0  0
  192.3770  174.4710  144.4990 C   0  0  0  0  0  0  0  0  0  0  0  0
  192.5080  172.2460  143.8020 N   0  0  0  0  0  0  0  0  0  0  0  0
  188.5740  174.9210  142.4510 C   0  0  0  0  0  2  0  0  0  0  0  0
  188.9640  172.4480  141.6710 F   0  0  0  0  0  0  0  0  0  0  0  0
  193.9350  169.8920  142.2810 C   0  0  0  0  0  1  0  0  0  0  0  0
  190.6040  173.5790  143.0970 C   0  0  0  0  0  0  0  0  0  0  0  0
  192.0190  171.1860  143.1210 C   0  0  0  0  0  0  0  0  0  0  0  0
  185.3120  179.0560  145.3040 C   0  0  0  0  0  2  0  0  0  0  0  0
  184.7850  178.4060  146.5720 C   0  0  1  0  0  3  0  0  0  0  0  0
  184.6660  177.0280  146.3920 O   0  0  0  0  0  1  0  0  0  0  0  0
  185.7470  178.6770  147.7090 C   0  0  0  0  0  1  0  0  0  0  0  0
  1 20  1  0  0  0  0
  2 12  1  0  0  0  0
  3  4  1  0  0  0  0
  5  6  2  0  0  0  0
  5 27  1  0  0  0  0
  6 28  1  0  0  0  0
  7 24  1  1  0  0  0
  7 17  1  0  0  0  0
  9 26  1  6  0  0  0
  9 28  1  0  0  0  0
 11  3  1  0  0  0  0
 12 13  1  0  0  0  0
 12  8  1  1  0  0  0
 13 11  1  0  0  0  0
 14 22  2  0  0  0  0
 15  9  1  0  0  0  0
 16 19  1  0  0  0  0
 16  1  1  0  0  0  0
 17 10  1  6  0  0  0
 17  8  1  0  0  0  0
 18 15  2  0  0  0  0
 18  6  1  0  0  0  0
 19  7  1  0  0  0  0
 20 10  1  0  0  0  0
 20 29  1  1  0  0  0
 21  4  1  0  0  0  0
 22 13  1  0  0  0  0
 22 21  1  0  0  0  0
 23 14  1  0  0  0  0
 24  2  1  0  0  0  0
 25  5  1  0  0  0  0
 27  2  2  0  0  0  0
 27 14  1  0  0  0  0
 28 23  2  0  0  0  0
 29 30  1  0  0  0  0
 30 32  1  1  0  0  0
 31 30  1  0  0  0  0
M  END
>  <MODEL>
4

>  <REMARK>
 VINA RESULT:      -8.3      3.372      8.526
  Name = 
  2 active torsions:
  status: ('A' for Active; 'I' for Inactive)
    1  A    between atoms: C_20  and  C_29
    2  A    between atoms: C_29  and  C_30
                            x       y       z     vdW  Elec       q    Type
                         _______ _______ _______ _____ _____    ______ ____

>  <TORSDO>
F 2

$$$$
=
 OpenBabel11112416373D

 32 37  0  0  1  0  0  0  0  0999 V2000
  186.4690  177.4850  146.3650 C   0  0  0  0  0  2  0  0  0  0  0  0
  191.1110  174.8760  144.4670 C   0  0  0  0  0  0  0  0  0  0  0  0
  190.3750  173.0530  139.9160 C   0  0  0  0  0  2  0  0  0  0  0  0
  191.7730  173.5050  139.5490 C   0  0  0  0  0  2  0  0  0  0  0  0
  193.3450  174.6750  145.4160 C   0  0  0  0  0  0  0  0  0  0  0  0
  194.6740  174.3310  145.2070 C   0  0  0  0  0  0  0  0  0  0  0  0
  189.1040  175.9480  145.5730 C   0  0  2  0  0  3  0  0  0  0  0  0
  189.5130  176.1350  143.0390 C   0  0  0  0  0  2  0  0  0  0  0  0
  196.5550  173.5890  144.0300 C   0  0  1  0  0  3  0  0  0  0  0  0
  187.4810  177.1700  144.0540 C   0  0  0  0  0  2  0  0  0  0  0  0
  189.8100  174.0050  140.9600 C   0  0  0  0  0  2  0  0  0  0  0  0
  190.1370  174.7620  143.3170 C   0  0  1  0  0  3  0  0  0  0  0  0
  190.7130  174.1830  142.1040 N   0  0  0  0  0  0  0  0  0  0  0  0
  192.9290  174.0640  143.0780 C   0  0  0  0  0  0  0  0  0  0  0  0
  196.8740  173.9530  145.4570 C   0  0  0  0  0  3  0  0  0  0  0  0
  187.3630  176.3560  146.8840 C   0  0  0  0  0  2  0  0  0  0  0  0
  188.9420  176.8060  144.3010 C   0  0  1  0  0  3  0  0  0  0  0  0
  195.7960  174.3770  146.1240 C   0  0  0  0  0  3  0  0  0  0  0  0
  188.7160  176.6680  146.7100 O   0  0  0  0  0  0  0  0  0  0  0  0
  186.9970  178.1720  145.1010 C   0  0  1  0  0  3  0  0  0  0  0  0
  192.6900  173.3020  140.7420 C   0  0  0  0  0  2  0  0  0  0  0  0
  192.1270  173.9060  142.0080 C   0  0  0  0  0  0  0  0  0  0  0  0
  194.2560  173.7470  142.9550 N   0  0  0  0  0  0  0  0  0  0  0  0
  190.5520  175.4780  145.7370 C   0  0  0  0  0  2  0  0  0  0  0  0
  192.9820  175.1110  146.6510 F   0  0  0  0  0  0  0  0  0  0  0  0
  196.7960  172.1060  143.8160 C   0  0  0  0  0  1  0  0  0  0  0  0
  192.4230  174.5470  144.3330 C   0  0  0  0  0  0  0  0  0  0  0  0
  195.1010  173.8780  144.0020 C   0  0  0  0  0  0  0  0  0  0  0  0
  185.9020  179.0540  144.5240 C   0  0  0  0  0  2  0  0  0  0  0  0
  184.5820  178.3040  144.4390 C   0  0  1  0  0  3  0  0  0  0  0  0
  183.6310  178.9110  145.2590 O   0  0  0  0  0  1  0  0  0  0  0  0
  184.0890  178.3220  143.0080 C   0  0  0  0  0  1  0  0  0  0  0  0
  1 16  1  0  0  0  0
  2 24  1  0  0  0  0
  3 11  1  0  0  0  0
  4  3  1  0  0  0  0
  4 21  1  0  0  0  0
  5 25  1  0  0  0  0
  6  5  2  0  0  0  0
  6 18  1  0  0  0  0
  7 24  1  1  0  0  0
  7 19  1  0  0  0  0
  9 26  1  1  0  0  0
  9 15  1  0  0  0  0
 10 17  1  0  0  0  0
 10 20  1  0  0  0  0
 11 13  1  0  0  0  0
 12  8  1  6  0  0  0
 12  2  1  0  0  0  0
 13 12  1  0  0  0  0
 14 27  1  0  0  0  0
 15 18  2  0  0  0  0
 17  8  1  6  0  0  0
 17  7  1  0  0  0  0
 19 16  1  0  0  0  0
 20 29  1  6  0  0  0
 20  1  1  0  0  0  0
 21 22  1  0  0  0  0
 22 13  1  0  0  0  0
 22 14  2  0  0  0  0
 23 14  1  0  0  0  0
 23 28  2  0  0  0  0
 27  2  2  0  0  0  0
 27  5  1  0  0  0  0
 28  9  1  0  0  0  0
 28  6  1  0  0  0  0
 30 32  1  6  0  0  0
 30 29  1  0  0  0  0
 30 31  1  0  0  0  0
M  END
>  <MODEL>
5

>  <REMARK>
 VINA RESULT:      -8.2      2.823      8.072
  Name = 
  2 active torsions:
  status: ('A' for Active; 'I' for Inactive)
    1  A    between atoms: C_20  and  C_29
    2  A    between atoms: C_29  and  C_30
                            x       y       z     vdW  Elec       q    Type
                         _______ _______ _______ _____ _____    ______ ____

>  <TORSDO>
F 2

$$$$
=
 OpenBabel11112416373D

 32 37  0  0  1  0  0  0  0  0999 V2000
  187.1610  176.5390  146.4180 C   0  0  0  0  0  2  0  0  0  0  0  0
  191.7630  175.2500  143.3980 C   0  0  0  0  0  0  0  0  0  0  0  0
  190.5460  172.6750  139.3410 C   0  0  0  0  0  2  0  0  0  0  0  0
  191.5700  173.4800  138.5680 C   0  0  0  0  0  2  0  0  0  0  0  0
  194.0980  175.8820  143.6770 C   0  0  0  0  0  0  0  0  0  0  0  0
  195.3660  175.9390  143.1130 C   0  0  0  0  0  0  0  0  0  0  0  0
  189.8650  175.7950  144.9800 C   0  0  2  0  0  3  0  0  0  0  0  0
  189.5280  175.7440  142.4290 C   0  0  0  0  0  2  0  0  0  0  0  0
  197.0210  175.6560  141.4830 C   0  0  1  0  0  3  0  0  0  0  0  0
  187.5960  176.2330  143.9320 C   0  0  0  0  0  2  0  0  0  0  0  0
  189.9820  173.5420  140.4560 C   0  0  0  0  0  2  0  0  0  0  0  0
  190.6240  174.6830  142.5820 C   0  0  1  0  0  3  0  0  0  0  0  0
  191.0320  174.1470  141.2840 N   0  0  0  0  0  0  0  0  0  0  0  0
  193.3300  174.8530  141.5870 C   0  0  0  0  0  0  0  0  0  0  0  0
  197.5520  176.2960  142.7410 C   0  0  0  0  0  3  0  0  0  0  0  0
  188.4830  175.8250  146.7130 C   0  0  0  0  0  2  0  0  0  0  0  0
  189.1070  176.3760  143.7670 C   0  0  1  0  0  3  0  0  0  0  0  0
  196.6020  176.4550  143.6670 C   0  0  0  0  0  3  0  0  0  0  0  0
  189.5610  176.5110  146.1450 O   0  0  0  0  0  0  0  0  0  0  0  0
  187.0880  177.1730  145.0250 C   0  0  1  0  0  3  0  0  0  0  0  0
  192.7740  173.7370  139.4570 C   0  0  0  0  0  2  0  0  0  0  0  0
  192.3830  174.3090  140.8010 C   0  0  0  0  0  0  0  0  0  0  0  0
  194.6090  174.9470  141.1050 N   0  0  0  0  0  0  0  0  0  0  0  0
  191.3770  175.8220  144.7450 C   0  0  0  0  0  2  0  0  0  0  0  0
  193.9380  176.3520  144.9420 F   0  0  0  0  0  0  0  0  0  0  0  0
  197.6820  174.3050  141.2810 C   0  0  0  0  0  1  0  0  0  0  0  0
  193.0290  175.3270  142.9100 C   0  0  0  0  0  0  0  0  0  0  0  0
  195.5980  175.4760  141.8590 C   0  0  0  0  0  0  0  0  0  0  0  0
  185.6520  177.5850  144.7440 C   0  0  0  0  0  2  0  0  0  0  0  0
  185.3450  178.9460  145.3450 C   0  0  1  0  0  3  0  0  0  0  0  0
  185.0320  179.8580  144.3370 O   0  0  0  0  0  1  0  0  0  0  0  0
  184.1640  178.8210  146.2850 C   0  0  0  0  0  1  0  0  0  0  0  0
  1 16  1  0  0  0  0
  2 24  1  0  0  0  0
  3 11  1  0  0  0  0
  4  3  1  0  0  0  0
  4 21  1  0  0  0  0
  5 25  1  0  0  0  0
  6 18  1  0  0  0  0
  6  5  2  0  0  0  0
  7 24  1  6  0  0  0
  7 19  1  0  0  0  0
  9 26  1  1  0  0  0
  9 28  1  0  0  0  0
  9 15  1  0  0  0  0
 10 20  1  0  0  0  0
 11 13  1  0  0  0  0
 12  8  1  6  0  0  0
 12  2  1  0  0  0  0
 13 12  1  0  0  0  0
 14 27  1  0  0  0  0
 15 18  2  0  0  0  0
 17  8  1  6  0  0  0
 17 10  1  0  0  0  0
 17  7  1  0  0  0  0
 19 16  1  0  0  0  0
 20 29  1  6  0  0  0
 20  1  1  0  0  0  0
 21 22  1  0  0  0  0
 22 13  1  0  0  0  0
 22 14  2  0  0  0  0
 23 14  1  0  0  0  0
 23 28  2  0  0  0  0
 27  2  2  0  0  0  0
 27  5  1  0  0  0  0
 28  6  1  0  0  0  0
 29 30  1  0  0  0  0
 30 32  1  1  0  0  0
 31 30  1  0  0  0  0
M  END
>  <MODEL>
6

>  <REMARK>
 VINA RESULT:      -7.9      3.337      8.188
  Name = 
  2 active torsions:
  status: ('A' for Active; 'I' for Inactive)
    1  A    between atoms: C_20  and  C_29
    2  A    between atoms: C_29  and  C_30
                            x       y       z     vdW  Elec       q    Type
                         _______ _______ _______ _____ _____    ______ ____

>  <TORSDO>
F 2

$$$$
=
 OpenBabel11112416373D

 32 37  0  0  1  0  0  0  0  0999 V2000
  185.2160  178.7390  143.2520 C   0  0  0  0  0  2  0  0  0  0  0  0
  189.2290  175.0360  141.7870 C   0  0  0  0  0  0  0  0  0  0  0  0
  193.2170  175.5150  144.6910 C   0  0  0  0  0  2  0  0  0  0  0  0
  193.3320  174.0060  144.7200 C   0  0  0  0  0  2  0  0  0  0  0  0
  189.2300  173.2270  140.1560 C   0  0  0  0  0  0  0  0  0  0  0  0
  189.8640  172.0870  139.6800 C   0  0  0  0  0  0  0  0  0  0  0  0
  187.3690  176.7080  142.1670 C   0  0  2  0  0  3  0  0  0  0  0  0
  188.7930  175.8040  144.1100 C   0  0  0  0  0  2  0  0  0  0  0  0
  191.4840  170.4020  139.5680 C   0  0  1  0  0  3  0  0  0  0  0  0
  187.0120  177.4950  144.5520 C   0  0  0  0  0  2  0  0  0  0  0  0
  191.7500  175.8930  144.5540 C   0  0  0  0  0  2  0  0  0  0  0  0
  189.8210  175.7610  142.9730 C   0  0  1  0  0  3  0  0  0  0  0  0
  191.0970  175.2110  143.4290 N   0  0  0  0  0  0  0  0  0  0  0  0
  191.0170  173.3940  141.8280 C   0  0  0  0  0  0  0  0  0  0  0  0
  190.4120  170.2430  138.5190 C   0  0  0  0  0  3  0  0  0  0  0  0
  185.9590  178.4060  141.9550 C   0  0  0  0  0  2  0  0  0  0  0  0
  187.4170  176.3240  143.6610 C   0  0  1  0  0  3  0  0  0  0  0  0
  189.4900  171.2080  138.5890 C   0  0  0  0  0  3  0  0  0  0  0  0
  186.0610  177.0220  141.7770 O   0  0  0  0  0  0  0  0  0  0  0  0
  185.5180  177.7820  144.4100 C   0  0  1  0  0  3  0  0  0  0  0  0
  192.9530  173.4520  143.3580 C   0  0  0  0  0  2  0  0  0  0  0  0
  191.6280  173.9910  142.8690 C   0  0  0  0  0  0  0  0  0  0  0  0
  191.5790  172.2630  141.2980 N   0  0  0  0  0  0  0  0  0  0  0  0
  187.9040  175.5720  141.2920 C   0  0  0  0  0  2  0  0  0  0  0  0
  188.0920  173.6340  139.5350 F   0  0  0  0  0  0  0  0  0  0  0  0
  192.8200  170.6590  138.8940 C   0  0  0  0  0  1  0  0  0  0  0  0
  189.8040  173.9200  141.2650 C   0  0  0  0  0  0  0  0  0  0  0  0
  191.0100  171.6320  140.2460 C   0  0  0  0  0  0  0  0  0  0  0  0
  184.9680  178.3750  145.6970 C   0  0  0  0  0  2  0  0  0  0  0  0
  186.0290  178.4070  146.7840 C   0  0  1  0  0  3  0  0  0  0  0  0
  185.9060  179.5720  147.5420 O   0  0  0  0  0  1  0  0  0  0  0  0
  185.8540  177.2050  147.6880 C   0  0  0  0  0  1  0  0  0  0  0  0
  1 20  1  0  0  0  0
  2 12  1  0  0  0  0
  3  4  1  0  0  0  0
  5 27  1  0  0  0  0
  6  5  2  0  0  0  0
  6 28  1  0  0  0  0
  7 24  1  6  0  0  0
  7 17  1  0  0  0  0
  9 26  1  6  0  0  0
  9 28  1  0  0  0  0
 11  3  1  0  0  0  0
 12 13  1  0  0  0  0
 12  8  1  1  0  0  0
 13 11  1  0  0  0  0
 14 22  2  0  0  0  0
 15 18  2  0  0  0  0
 15  9  1  0  0  0  0
 16  1  1  0  0  0  0
 17  8  1  1  0  0  0
 17 10  1  0  0  0  0
 18  6  1  0  0  0  0
 19 16  1  0  0  0  0
 19  7  1  0  0  0  0
 20 10  1  0  0  0  0
 20 29  1  1  0  0  0
 21  4  1  0  0  0  0
 22 21  1  0  0  0  0
 22 13  1  0  0  0  0
 23 14  1  0  0  0  0
 24  2  1  0  0  0  0
 25  5  1  0  0  0  0
 27  2  2  0  0  0  0
 27 14  1  0  0  0  0
 28 23  2  0  0  0  0
 29 30  1  0  0  0  0
 30 31  1  0  0  0  0
 30 32  1  1  0  0  0
M  END
>  <MODEL>
7

>  <REMARK>
 VINA RESULT:      -7.9      3.624      8.691
  Name = 
  2 active torsions:
  status: ('A' for Active; 'I' for Inactive)
    1  A    between atoms: C_20  and  C_29
    2  A    between atoms: C_29  and  C_30
                            x       y       z     vdW  Elec       q    Type
                         _______ _______ _______ _____ _____    ______ ____

>  <TORSDO>
F 2

$$$$
=
 OpenBabel11112416373D

 32 37  0  0  1  0  0  0  0  0999 V2000
  193.0290  173.4980  145.1800 C   0  0  0  0  0  2  0  0  0  0  0  0
  188.1360  176.0490  143.9510 C   0  0  0  0  0  0  0  0  0  0  0  0
  186.0330  177.8980  148.0420 C   0  0  0  0  0  2  0  0  0  0  0  0
  185.6460  179.1250  147.2440 C   0  0  0  0  0  2  0  0  0  0  0  0
  187.0520  176.5070  141.8180 C   0  0  0  0  0  0  0  0  0  0  0  0
  186.0590  177.2030  141.1410 C   0  0  0  0  0  0  0  0  0  0  0  0
  190.2620  174.7230  144.2960 C   0  0  2  0  0  3  0  0  0  0  0  0
  189.6990  176.7770  145.7400 C   0  0  0  0  0  2  0  0  0  0  0  0
  184.2590  178.6700  140.8550 C   0  0  1  0  0  3  0  0  0  0  0  0
  191.7890  175.4820  146.1750 C   0  0  0  0  0  2  0  0  0  0  0  0
  187.3300  177.3360  147.4790 C   0  0  0  0  0  2  0  0  0  0  0  0
  188.2880  176.2580  145.4400 C   0  0  1  0  0  3  0  0  0  0  0  0
  187.2660  177.1230  146.0270 N   0  0  0  0  0  0  0  0  0  0  0  0
  186.2650  177.5940  143.8710 C   0  0  0  0  0  0  0  0  0  0  0  0
  184.7000  178.0370  139.5590 C   0  0  0  0  0  3  0  0  0  0  0  0
  191.7390  173.0780  144.4710 C   0  0  0  0  0  2  0  0  0  0  0  0
  190.8070  175.9270  145.0940 C   0  0  1  0  0  3  0  0  0  0  0  0
  185.7280  177.2010  139.7290 C   0  0  0  0  0  3  0  0  0  0  0  0
  191.2950  174.0800  143.6010 O   0  0  0  0  0  0  0  0  0  0  0  0
  193.0880  174.9860  145.5430 C   0  0  1  0  0  3  0  0  0  0  0  0
  185.2630  178.7020  145.8360 C   0  0  0  0  0  2  0  0  0  0  0  0
  186.3110  177.8190  145.1980 C   0  0  0  0  0  0  0  0  0  0  0  0
  185.3140  178.2420  143.1280 N   0  0  0  0  0  0  0  0  0  0  0  0
  189.1810  175.1650  143.3070 C   0  0  0  0  0  2  0  0  0  0  0  0
  187.8520  175.6730  141.1040 F   0  0  0  0  0  0  0  0  0  0  0  0
  182.8440  178.2280  141.1820 C   0  0  0  0  0  1  0  0  0  0  0  0
  187.1800  176.6920  143.2290 C   0  0  0  0  0  0  0  0  0  0  0  0
  185.2190  178.0430  141.7950 C   0  0  0  0  0  0  0  0  0  0  0  0
  194.2580  175.2180  146.4850 C   0  0  0  0  0  2  0  0  0  0  0  0
  195.2870  176.1490  145.8650 C   0  0  1  0  0  3  0  0  0  0  0  0
  195.6360  175.6980  144.5910 O   0  0  0  0  0  1  0  0  0  0  0  0
  194.6990  177.5400  145.7560 C   0  0  0  0  0  1  0  0  0  0  0  0
  1 20  1  0  0  0  0
  2 12  1  0  0  0  0
  4  3  1  0  0  0  0
  5 27  1  0  0  0  0
  6 28  1  0  0  0  0
  6  5  2  0  0  0  0
  7 24  1  6  0  0  0
  7 17  1  0  0  0  0
  9 26  1  1  0  0  0
  9 28  1  0  0  0  0
 11  3  1  0  0  0  0
 12  8  1  6  0  0  0
 12 13  1  0  0  0  0
 13 11  1  0  0  0  0
 14 22  2  0  0  0  0
 15 18  2  0  0  0  0
 15  9  1  0  0  0  0
 16  1  1  0  0  0  0
 17  8  1  1  0  0  0
 17 10  1  0  0  0  0
 18  6  1  0  0  0  0
 19  7  1  0  0  0  0
 19 16  1  0  0  0  0
 20 10  1  0  0  0  0
 20 29  1  1  0  0  0
 21  4  1  0  0  0  0
 22 21  1  0  0  0  0
 22 13  1  0  0  0  0
 23 14  1  0  0  0  0
 24  2  1  0  0  0  0
 25  5  1  0  0  0  0
 27 14  1  0  0  0  0
 27  2  2  0  0  0  0
 28 23  2  0  0  0  0
 30 32  1  6  0  0  0
 30 29  1  0  0  0  0
 31 30  1  0  0  0  0
M  END
>  <MODEL>
8

>  <REMARK>
 VINA RESULT:      -7.8      2.474      4.990
  Name = 
  2 active torsions:
  status: ('A' for Active; 'I' for Inactive)
    1  A    between atoms: C_20  and  C_29
    2  A    between atoms: C_29  and  C_30
                            x       y       z     vdW  Elec       q    Type
                         _______ _______ _______ _____ _____    ______ ____

>  <TORSDO>
F 2

$$$$
=
 OpenBabel11112416373D

 32 37  0  0  1  0  0  0  0  0999 V2000
  191.7910  171.3210  140.2740 C   0  0  0  0  0  2  0  0  0  0  0  0
  189.0590  174.9750  143.6110 C   0  0  0  0  0  0  0  0  0  0  0  0
  191.4030  175.4980  147.9470 C   0  0  0  0  0  2  0  0  0  0  0  0
  191.1130  176.9830  147.8840 C   0  0  0  0  0  2  0  0  0  0  0  0
  187.1150  176.3840  143.2010 C   0  0  0  0  0  0  0  0  0  0  0  0
  186.3350  177.4490  143.6330 C   0  0  0  0  0  0  0  0  0  0  0  0
  190.0270  173.2600  142.0240 C   0  0  2  0  0  3  0  0  0  0  0  0
  191.5260  174.6870  143.5520 C   0  0  0  0  0  2  0  0  0  0  0  0
  185.6580  179.2120  145.0150 C   0  0  1  0  0  3  0  0  0  0  0  0
  192.5470  172.9730  142.0510 C   0  0  0  0  0  2  0  0  0  0  0  0
  191.5550  174.9670  146.5300 C   0  0  0  0  0  2  0  0  0  0  0  0
  190.2700  174.5790  144.4240 C   0  0  1  0  0  3  0  0  0  0  0  0
  190.4200  175.3290  145.6700 N   0  0  0  0  0  0  0  0  0  0  0  0
  188.5150  176.7440  145.1820 C   0  0  0  0  0  0  0  0  0  0  0  0
  184.7620  179.0430  143.8140 C   0  0  0  0  0  3  0  0  0  0  0  0
  190.3620  171.4340  140.8100 C   0  0  0  0  0  2  0  0  0  0  0  0
  191.3910  173.9580  142.2030 C   0  0  1  0  0  3  0  0  0  0  0  0
  185.1540  178.0350  143.0280 C   0  0  0  0  0  3  0  0  0  0  0  0
  189.8970  172.7510  140.7250 O   0  0  0  0  0  0  0  0  0  0  0  0
  192.6790  172.5280  140.5960 C   0  0  1  0  0  3  0  0  0  0  0  0
  189.7350  177.1940  147.2800 C   0  0  0  0  0  2  0  0  0  0  0  0
  189.5570  176.4440  145.9800 C   0  0  0  0  0  0  0  0  0  0  0  0
  187.6940  177.7820  145.5370 N   0  0  0  0  0  0  0  0  0  0  0  0
  188.8750  174.2260  142.3100 C   0  0  0  0  0  2  0  0  0  0  0  0
  186.7570  175.7510  142.0540 F   0  0  0  0  0  0  0  0  0  0  0  0
  184.8670  178.9400  146.2820 C   0  0  0  0  0  1  0  0  0  0  0  0
  188.2480  176.0010  143.9820 C   0  0  0  0  0  0  0  0  0  0  0  0
  186.6300  178.1170  144.7750 C   0  0  0  0  0  0  0  0  0  0  0  0
  194.1230  172.1760  140.2780 C   0  0  0  0  0  2  0  0  0  0  0  0
  194.3550  170.6770  140.3680 C   0  0  1  0  0  3  0  0  0  0  0  0
  194.9990  170.2200  139.2180 O   0  0  0  0  0  1  0  0  0  0  0  0
  195.2210  170.3770  141.5740 C   0  0  0  0  0  1  0  0  0  0  0  0
  1 20  1  0  0  0  0
  1 16  1  0  0  0  0
  2 27  2  0  0  0  0
  2 12  1  0  0  0  0
  4  3  1  0  0  0  0
  5  6  2  0  0  0  0
  5 27  1  0  0  0  0
  6 28  1  0  0  0  0
  7 17  1  0  0  0  0
  7 24  1  6  0  0  0
  9 26  1  1  0  0  0
 11  3  1  0  0  0  0
 12  8  1  6  0  0  0
 12 13  1  0  0  0  0
 13 22  1  0  0  0  0
 13 11  1  0  0  0  0
 14 23  1  0  0  0  0
 14 22  2  0  0  0  0
 15  9  1  0  0  0  0
 17 10  1  1  0  0  0
 17  8  1  0  0  0  0
 18  6  1  0  0  0  0
 18 15  2  0  0  0  0
 19 16  1  0  0  0  0
 19  7  1  0  0  0  0
 20 29  1  1  0  0  0
 20 10  1  0  0  0  0
 21  4  1  0  0  0  0
 22 21  1  0  0  0  0
 24  2  1  0  0  0  0
 25  5  1  0  0  0  0
 27 14  1  0  0  0  0
 28  9  1  0  0  0  0
 28 23  2  0  0  0  0
 29 30  1  0  0  0  0
 30 32  1  1  0  0  0
 31 30  1  0  0  0  0
M  END
>  <MODEL>
9

>  <REMARK>
 VINA RESULT:      -7.7      2.937      4.741
  Name = 
  2 active torsions:
  status: ('A' for Active; 'I' for Inactive)
    1  A    between atoms: C_20  and  C_29
    2  A    between atoms: C_29  and  C_30
                            x       y       z     vdW  Elec       q    Type
                         _______ _______ _______ _____ _____    ______ ____

>  <TORSDO>
F 2

$$$$
