=
 OpenBabel11112416413D

 32 37  0  0  1  0  0  0  0  0999 V2000
  189.3320  172.3540  139.6100 C   0  0  0  0  0  2  0  0  0  0  0  0
  188.7410  175.5150  143.7450 C   0  0  0  0  0  0  0  0  0  0  0  0
  192.2600  175.2210  147.2840 C   0  0  0  0  0  2  0  0  0  0  0  0
  192.0830  176.6140  147.3710 O   0  0  0  0  0  0  0  0  0  0  0  0
  186.6770  176.7710  144.5310 C   0  0  0  0  0  0  0  0  0  0  0  0
  186.1170  177.7250  145.5460 C   0  0  1  0  0  3  0  0  0  0  0  0
  189.2670  174.9030  141.3690 C   0  0  1  0  0  3  0  0  0  0  0  0
  190.9630  174.4000  143.1170 C   0  0  0  0  0  2  0  0  0  0  0  0
  185.8040  178.2400  147.7500 C   0  0  2  0  0  3  0  0  0  0  0  0
  191.1860  173.2590  140.8830 C   0  0  0  0  0  2  0  0  0  0  0  0
  191.6720  174.6860  146.0020 C   0  0  0  0  0  3  0  0  0  0  0  0
  189.9510  174.7090  144.2260 C   0  0  1  0  0  3  0  0  0  0  0  0
  190.6180  175.3060  145.4430 C   0  0  0  0  0  0  0  0  0  0  0  0
  188.5460  176.4400  146.1520 C   0  0  1  0  0  3  0  0  0  0  0  0
  184.4480  178.4210  147.0680 C   0  0  0  0  0  2  0  0  0  0  0  0
  188.1950  173.1660  140.2520 C   0  0  0  0  0  2  0  0  0  0  0  0
  190.2180  173.8240  141.9290 C   0  0  2  0  0  3  0  0  0  0  0  0
  184.6200  177.8760  145.6540 C   0  0  0  0  0  2  0  0  0  0  0  0
  188.4870  174.5460  140.2350 O   0  0  0  0  0  0  0  0  0  0  0  0
  190.5800  173.1250  139.5530 N   0  0  0  0  0  0  0  0  0  0  0  0
  190.6950  176.8270  147.4410 C   0  0  0  0  0  2  0  0  0  0  0  0
  190.0640  176.5740  146.0620 C   0  0  1  0  0  3  0  0  0  0  0  0
  187.9490  177.5510  146.9080 N   0  0  0  0  0  2  0  0  0  0  0  0
  188.4230  175.5360  142.4380 C   0  0  0  0  0  3  0  0  0  0  0  0
  185.9120  176.5620  143.2620 C   0  0  0  0  0  1  0  0  0  0  0  0
  186.4560  179.6120  147.9270 C   0  0  0  0  0  1  0  0  0  0  0  0
  187.9280  176.2750  144.7540 C   0  0  0  0  0  0  0  0  0  0  0  0
  186.5580  177.3460  146.8680 N   0  0  2  0  0  0  0  0  0  0  0  0
  191.5160  172.3650  138.7420 C   0  0  0  0  0  2  0  0  0  0  0  0
  190.8140  171.8110  137.5140 C   0  0  2  0  0  3  0  0  0  0  0  0
  191.4270  170.4780  137.1420 C   0  0  0  0  0  1  0  0  0  0  0  0
  190.9570  172.6980  136.4470 O   0  0  0  0  0  1  0  0  0  0  0  0
  1 16  1  0  0  0  0
  2 12  1  0  0  0  0
  2 27  1  0  0  0  0
  3  4  1  0  0  0  0
  4 21  1  0  0  0  0
  5 27  2  0  0  0  0
  5  6  1  0  0  0  0
  6 18  1  1  0  0  0
  6 28  1  0  0  0  0
  7 17  1  0  0  0  0
  7 24  1  1  0  0  0
  9 26  1  6  0  0  0
 11  3  1  0  0  0  0
 12  8  1  6  0  0  0
 12 13  1  0  0  0  0
 13 11  2  0  0  0  0
 13 22  1  0  0  0  0
 14 27  1  6  0  0  0
 14 23  1  0  0  0  0
 15  9  1  0  0  0  0
 17 10  1  6  0  0  0
 17  8  1  0  0  0  0
 18 15  1  0  0  0  0
 19 16  1  0  0  0  0
 19  7  1  0  0  0  0
 20  1  1  0  0  0  0
 20 10  1  0  0  0  0
 22 14  1  0  0  0  0
 22 21  1  1  0  0  0
 24  2  2  0  0  0  0
 25  5  1  0  0  0  0
 28 23  1  6  0  0  0
 28  9  1  0  0  0  0
 29 20  1  0  0  0  0
 30 31  1  6  0  0  0
 30 29  1  0  0  0  0
 32 30  1  0  0  0  0
M  END
>  <MODEL>
1

>  <REMARK>
 VINA RESULT:      -8.5      0.000      0.000
  Name = 
  2 active torsions:
  status: ('A' for Active; 'I' for Inactive)
    1  A    between atoms: N_20  and  C_29
    2  A    between atoms: C_29  and  C_30
                            x       y       z     vdW  Elec       q    Type
                         _______ _______ _______ _____ _____    ______ ____

>  <TORSDO>
F 2

$$$$
=
 OpenBabel11112416413D

 32 37  0  0  1  0  0  0  0  0999 V2000
  186.5240  176.7860  146.5040 C   0  0  0  0  0  2  0  0  0  0  0  0
  191.0010  175.4220  144.1510 C   0  0  0  0  0  0  0  0  0  0  0  0
  190.5740  173.0710  139.7600 C   0  0  0  0  0  2  0  0  0  0  0  0
  191.7080  173.8270  139.4100 O   0  0  0  0  0  0  0  0  0  0  0  0
  193.3430  175.2480  145.1220 C   0  0  0  0  0  0  0  0  0  0  0  0
  194.7860  174.9540  144.8330 C   0  0  1  0  0  3  0  0  0  0  0  0
  189.1970  176.9720  144.9490 C   0  0  1  0  0  3  0  0  0  0  0  0
  188.7500  175.5850  142.9340 C   0  0  0  0  0  2  0  0  0  0  0  0
  196.3310  173.5120  143.9630 C   0  0  2  0  0  3  0  0  0  0  0  0
  186.7890  176.6530  144.0980 C   0  0  0  0  0  2  0  0  0  0  0  0
  189.9090  173.6410  140.9880 C   0  0  0  0  0  3  0  0  0  0  0  0
  190.0100  174.7520  143.1950 C   0  0  1  0  0  3  0  0  0  0  0  0
  190.6490  174.2820  141.9090 C   0  0  0  0  0  0  0  0  0  0  0  0
  192.8710  174.0920  142.9600 C   0  0  1  0  0  3  0  0  0  0  0  0
  196.8570  173.9320  145.3360 C   0  0  0  0  0  2  0  0  0  0  0  0
  187.9960  176.6010  146.9080 C   0  0  0  0  0  2  0  0  0  0  0  0
  188.1800  176.0320  144.2660 C   0  0  2  0  0  3  0  0  0  0  0  0
  195.7270  174.7210  145.9890 C   0  0  0  0  0  2  0  0  0  0  0  0
  188.8270  177.5050  146.2150 O   0  0  0  0  0  0  0  0  0  0  0  0
  186.3990  177.5030  145.2300 N   0  0  0  0  0  0  0  0  0  0  0  0
  192.6180  173.6790  140.4710 C   0  0  0  0  0  2  0  0  0  0  0  0
  192.1340  174.4900  141.6840 C   0  0  1  0  0  3  0  0  0  0  0  0
  194.3290  174.0900  142.7630 N   0  0  0  0  0  2  0  0  0  0  0  0
  190.5830  176.3950  144.9800 C   0  0  0  0  0  3  0  0  0  0  0  0
  193.0110  175.9780  146.3850 C   0  0  0  0  0  1  0  0  0  0  0  0
  197.0570  174.3200  142.8870 C   0  0  0  0  0  1  0  0  0  0  0  0
  192.4350  174.9730  144.1410 C   0  0  0  0  0  0  0  0  0  0  0  0
  194.8900  173.7700  144.0120 N   0  0  2  0  0  0  0  0  0  0  0  0
  184.9920  177.8170  145.0510 C   0  0  0  0  0  2  0  0  0  0  0  0
  184.8060  178.7170  143.8410 C   0  0  2  0  0  3  0  0  0  0  0  0
  185.4510  180.0600  144.1090 C   0  0  0  0  0  1  0  0  0  0  0  0
  183.4460  178.9010  143.5930 O   0  0  0  0  0  1  0  0  0  0  0  0
  1 16  1  0  0  0  0
  2 24  2  0  0  0  0
  3 11  1  0  0  0  0
  4  3  1  0  0  0  0
  4 21  1  0  0  0  0
  5 25  1  0  0  0  0
  6  5  1  0  0  0  0
  6 18  1  1  0  0  0
  7 24  1  1  0  0  0
  7 19  1  0  0  0  0
  9 26  1  6  0  0  0
  9 28  1  0  0  0  0
  9 15  1  0  0  0  0
 10 17  1  0  0  0  0
 10 20  1  0  0  0  0
 11 13  2  0  0  0  0
 12  8  1  6  0  0  0
 12  2  1  0  0  0  0
 13 12  1  0  0  0  0
 14 23  1  6  0  0  0
 14 27  1  0  0  0  0
 15 18  1  0  0  0  0
 17  8  1  6  0  0  0
 17  7  1  0  0  0  0
 19 16  1  0  0  0  0
 20  1  1  0  0  0  0
 22 21  1  6  0  0  0
 22 13  1  0  0  0  0
 22 14  1  0  0  0  0
 27  2  1  0  0  0  0
 27  5  2  0  0  0  0
 28 23  1  6  0  0  0
 28  6  1  0  0  0  0
 29 20  1  0  0  0  0
 30 31  1  1  0  0  0
 30 29  1  0  0  0  0
 32 30  1  0  0  0  0
M  END
>  <MODEL>
2

>  <REMARK>
 VINA RESULT:      -8.0      3.093      8.292
  Name = 
  2 active torsions:
  status: ('A' for Active; 'I' for Inactive)
    1  A    between atoms: N_20  and  C_29
    2  A    between atoms: C_29  and  C_30
                            x       y       z     vdW  Elec       q    Type
                         _______ _______ _______ _____ _____    ______ ____

>  <TORSDO>
F 2

$$$$
=
 OpenBabel11112416413D

 32 37  0  0  1  0  0  0  0  0999 V2000
  187.2620  176.8700  141.0470 C   0  0  0  0  0  2  0  0  0  0  0  0
  191.0370  174.3970  143.7070 C   0  0  0  0  0  0  0  0  0  0  0  0
  194.5660  177.2870  145.7540 C   0  0  0  0  0  2  0  0  0  0  0  0
  194.5040  176.3610  146.8130 O   0  0  0  0  0  0  0  0  0  0  0  0
  191.6950  171.9440  143.6650 C   0  0  0  0  0  0  0  0  0  0  0  0
  192.6050  170.8940  144.2330 C   0  0  1  0  0  3  0  0  0  0  0  0
  188.7380  175.3050  143.2760 C   0  0  1  0  0  3  0  0  0  0  0  0
  190.5190  176.8960  143.9680 C   0  0  0  0  0  2  0  0  0  0  0  0
  194.7430  170.2270  144.6880 C   0  0  2  0  0  3  0  0  0  0  0  0
  188.4200  177.8370  142.9450 C   0  0  0  0  0  2  0  0  0  0  0  0
  193.3530  177.1660  144.8670 C   0  0  0  0  0  3  0  0  0  0  0  0
  191.5940  175.8220  143.7620 C   0  0  1  0  0  3  0  0  0  0  0  0
  192.7370  175.9780  144.7380 C   0  0  0  0  0  0  0  0  0  0  0  0
  193.3320  173.5900  144.5830 C   0  0  1  0  0  3  0  0  0  0  0  0
  194.0530  169.0380  144.0180 C   0  0  0  0  0  2  0  0  0  0  0  0
  187.8200  175.4410  141.1420 C   0  0  0  0  0  2  0  0  0  0  0  0
  189.4050  176.6620  142.9680 C   0  0  2  0  0  3  0  0  0  0  0  0
  192.7040  169.5610  143.5340 C   0  0  0  0  0  2  0  0  0  0  0  0
  187.6530  174.9180  142.4410 O   0  0  0  0  0  0  0  0  0  0  0  0
  187.1150  177.4820  142.3740 N   0  0  0  0  0  0  0  0  0  0  0  0
  194.5590  175.0870  146.2210 C   0  0  0  0  0  2  0  0  0  0  0  0
  193.2180  174.7800  145.5330 C   0  0  1  0  0  3  0  0  0  0  0  0
  193.9670  172.4360  145.2370 N   0  0  0  0  0  2  0  0  0  0  0  0
  189.7370  174.1940  143.4270 C   0  0  0  0  0  3  0  0  0  0  0  0
  190.4610  171.4950  142.9480 C   0  0  0  0  0  1  0  0  0  0  0  0
  194.7670  169.9970  146.1990 C   0  0  0  0  0  1  0  0  0  0  0  0
  191.9630  173.2450  143.9740 C   0  0  0  0  0  0  0  0  0  0  0  0
  193.9580  171.3970  144.2890 N   0  0  2  0  0  0  0  0  0  0  0  0
  186.3860  178.7250  142.1930 C   0  0  0  0  0  2  0  0  0  0  0  0
  185.2230  178.7950  143.1680 C   0  0  2  0  0  3  0  0  0  0  0  0
  185.5430  179.7910  144.2630 C   0  0  0  0  0  1  0  0  0  0  0  0
  185.0060  177.5390  143.7360 O   0  0  0  0  0  1  0  0  0  0  0  0
  1 16  1  0  0  0  0
  1 20  1  0  0  0  0
  2 12  1  0  0  0  0
  2 27  1  0  0  0  0
  3  4  1  0  0  0  0
  5 27  2  0  0  0  0
  5  6  1  0  0  0  0
  6 18  1  6  0  0  0
  6 28  1  0  0  0  0
  7 24  1  6  0  0  0
  9 26  1  1  0  0  0
 11  3  1  0  0  0  0
 12  8  1  1  0  0  0
 12 13  1  0  0  0  0
 13 11  2  0  0  0  0
 13 22  1  0  0  0  0
 14 27  1  1  0  0  0
 14 23  1  0  0  0  0
 14 22  1  0  0  0  0
 15  9  1  0  0  0  0
 16 19  1  0  0  0  0
 17 10  1  1  0  0  0
 17  7  1  0  0  0  0
 17  8  1  0  0  0  0
 18 15  1  0  0  0  0
 19  7  1  0  0  0  0
 20 10  1  0  0  0  0
 21  4  1  0  0  0  0
 22 21  1  6  0  0  0
 24  2  2  0  0  0  0
 25  5  1  0  0  0  0
 28  9  1  0  0  0  0
 28 23  1  1  0  0  0
 29 20  1  0  0  0  0
 29 30  1  0  0  0  0
 30 32  1  0  0  0  0
 30 31  1  1  0  0  0
M  END
>  <MODEL>
3

>  <REMARK>
 VINA RESULT:      -7.8      3.467      7.379
  Name = 
  2 active torsions:
  status: ('A' for Active; 'I' for Inactive)
    1  A    between atoms: N_20  and  C_29
    2  A    between atoms: C_29  and  C_30
                            x       y       z     vdW  Elec       q    Type
                         _______ _______ _______ _____ _____    ______ ____

>  <TORSDO>
F 2

$$$$
=
 OpenBabel11112416413D

 32 37  0  0  1  0  0  0  0  0999 V2000
  185.4470  178.5850  143.0110 C   0  0  0  0  0  2  0  0  0  0  0  0
  189.5370  175.3500  142.5090 C   0  0  0  0  0  0  0  0  0  0  0  0
  193.7290  176.6890  144.8810 C   0  0  0  0  0  2  0  0  0  0  0  0
  193.8590  175.3090  145.1250 O   0  0  0  0  0  0  0  0  0  0  0  0
  189.9310  173.5030  140.8100 C   0  0  0  0  0  0  0  0  0  0  0  0
  190.8560  172.4100  140.3570 C   0  0  1  0  0  3  0  0  0  0  0  0
  187.2990  176.1230  143.3400 C   0  0  1  0  0  3  0  0  0  0  0  0
  189.3390  177.1120  144.3620 C   0  0  0  0  0  2  0  0  0  0  0  0
  192.9670  171.7970  139.7320 C   0  0  2  0  0  3  0  0  0  0  0  0
  187.1430  178.2910  144.7190 C   0  0  0  0  0  2  0  0  0  0  0  0
  192.3210  177.0270  144.4600 C   0  0  0  0  0  3  0  0  0  0  0  0
  190.2190  176.4880  143.2730 C   0  0  1  0  0  3  0  0  0  0  0  0
  191.5850  176.1160  143.8000 C   0  0  0  0  0  0  0  0  0  0  0  0
  191.8950  174.3830  142.0730 C   0  0  1  0  0  3  0  0  0  0  0  0
  192.0190  171.2090  138.6870 C   0  0  0  0  0  2  0  0  0  0  0  0
  185.8750  177.4510  142.0650 C   0  0  0  0  0  2  0  0  0  0  0  0
  187.9870  177.4400  143.7620 C   0  0  2  0  0  3  0  0  0  0  0  0
  190.6460  171.7970  138.9950 C   0  0  0  0  0  2  0  0  0  0  0  0
  186.0040  176.2320  142.7620 O   0  0  0  0  0  0  0  0  0  0  0  0
  185.7080  178.2440  144.4150 N   0  0  0  0  0  0  0  0  0  0  0  0
  193.6390  174.6720  143.8910 C   0  0  0  0  0  2  0  0  0  0  0  0
  192.1440  174.7310  143.5380 C   0  0  1  0  0  3  0  0  0  0  0  0
  192.5690  173.1320  141.6930 N   0  0  0  0  0  2  0  0  0  0  0  0
  188.1960  175.2460  142.5140 C   0  0  0  0  0  3  0  0  0  0  0  0
  188.5170  173.4770  140.3210 C   0  0  0  0  0  1  0  0  0  0  0  0
  193.3610  170.6970  140.7170 C   0  0  0  0  0  1  0  0  0  0  0  0
  190.3900  174.3630  141.7640 C   0  0  0  0  0  0  0  0  0  0  0  0
  192.2170  172.8930  140.3520 N   0  0  2  0  0  0  0  0  0  0  0  0
  185.0750  179.2680  145.2280 C   0  0  0  0  0  2  0  0  0  0  0  0
  184.5720  178.6660  146.5290 C   0  0  2  0  0  3  0  0  0  0  0  0
  185.5570  178.9660  147.6380 C   0  0  0  0  0  1  0  0  0  0  0  0
  184.4410  177.2830  146.3910 O   0  0  0  0  0  1  0  0  0  0  0  0
  1 20  1  0  0  0  0
  2 24  2  0  0  0  0
  2 12  1  0  0  0  0
  3  4  1  0  0  0  0
  5 27  2  0  0  0  0
  6 18  1  6  0  0  0
  6  5  1  0  0  0  0
  7 24  1  6  0  0  0
  7 17  1  0  0  0  0
  9 28  1  0  0  0  0
  9 26  1  1  0  0  0
 11  3  1  0  0  0  0
 12 13  1  0  0  0  0
 12  8  1  1  0  0  0
 13 11  2  0  0  0  0
 14 23  1  1  0  0  0
 14 22  1  0  0  0  0
 15 18  1  0  0  0  0
 15  9  1  0  0  0  0
 16 19  1  0  0  0  0
 16  1  1  0  0  0  0
 17  8  1  1  0  0  0
 17 10  1  0  0  0  0
 19  7  1  0  0  0  0
 20 10  1  0  0  0  0
 20 29  1  0  0  0  0
 21  4  1  0  0  0  0
 22 13  1  0  0  0  0
 22 21  1  6  0  0  0
 25  5  1  0  0  0  0
 27 14  1  0  0  0  0
 27  2  1  0  0  0  0
 28  6  1  0  0  0  0
 28 23  1  1  0  0  0
 29 30  1  0  0  0  0
 30 31  1  1  0  0  0
 32 30  1  0  0  0  0
M  END
>  <MODEL>
4

>  <REMARK>
 VINA RESULT:      -7.7      2.480      7.947
  Name = 
  2 active torsions:
  status: ('A' for Active; 'I' for Inactive)
    1  A    between atoms: N_20  and  C_29
    2  A    between atoms: C_29  and  C_30
                            x       y       z     vdW  Elec       q    Type
                         _______ _______ _______ _____ _____    ______ ____

>  <TORSDO>
F 2

$$$$
=
 OpenBabel11112416413D

 32 37  0  0  1  0  0  0  0  0999 V2000
  187.3580  177.4380  145.9170 C   0  0  0  0  0  2  0  0  0  0  0  0
  191.4760  174.6550  144.2630 C   0  0  0  0  0  0  0  0  0  0  0  0
  190.4790  170.7930  141.2490 C   0  0  0  0  0  2  0  0  0  0  0  0
  191.6630  171.1840  140.5970 O   0  0  0  0  0  0  0  0  0  0  0  0
  193.8460  174.5870  145.1760 C   0  0  0  0  0  0  0  0  0  0  0  0
  195.2240  174.0140  145.0100 C   0  0  1  0  0  3  0  0  0  0  0  0
  189.9190  176.6190  144.3780 C   0  0  1  0  0  3  0  0  0  0  0  0
  189.1780  174.6020  143.1270 C   0  0  0  0  0  2  0  0  0  0  0  0
  196.5310  172.1530  144.7890 C   0  0  2  0  0  3  0  0  0  0  0  0
  187.4360  176.3000  143.7780 C   0  0  0  0  0  2  0  0  0  0  0  0
  189.9700  171.8980  142.1420 C   0  0  0  0  0  3  0  0  0  0  0  0
  190.3510  173.7900  143.6880 C   0  0  1  0  0  3  0  0  0  0  0  0
  190.8410  172.7560  142.7020 C   0  0  0  0  0  0  0  0  0  0  0  0
  193.0970  172.7210  143.6970 C   0  0  1  0  0  3  0  0  0  0  0  0
  197.1970  173.0240  145.8550 C   0  0  0  0  0  2  0  0  0  0  0  0
  188.8250  177.2430  146.3350 C   0  0  0  0  0  2  0  0  0  0  0  0
  188.7570  175.6240  144.1640 C   0  0  2  0  0  3  0  0  0  0  0  0
  196.2110  174.1530  146.1410 C   0  0  0  0  0  2  0  0  0  0  0  0
  189.7020  177.6670  145.3150 O   0  0  0  0  0  0  0  0  0  0  0  0
  187.2260  177.5820  144.4620 N   0  0  0  0  0  0  0  0  0  0  0  0
  192.6230  171.3640  141.6080 C   0  0  0  0  0  2  0  0  0  0  0  0
  192.3200  172.6560  142.3850 C   0  0  1  0  0  3  0  0  0  0  0  0
  194.5270  172.4470  143.4930 N   0  0  0  0  0  2  0  0  0  0  0  0
  191.2290  175.9280  144.6210 C   0  0  0  0  0  3  0  0  0  0  0  0
  193.6880  175.8070  146.0280 C   0  0  0  0  0  1  0  0  0  0  0  0
  197.2660  172.3470  143.4620 C   0  0  0  0  0  1  0  0  0  0  0  0
  192.8460  174.0580  144.4140 C   0  0  0  0  0  0  0  0  0  0  0  0
  195.1350  172.5950  144.7520 N   0  0  2  0  0  0  0  0  0  0  0  0
  185.8530  177.9770  144.1940 C   0  0  0  0  0  2  0  0  0  0  0  0
  185.4850  179.1880  145.0350 C   0  0  2  0  0  3  0  0  0  0  0  0
  184.0730  179.0280  145.5560 C   0  0  0  0  0  1  0  0  0  0  0  0
  185.5610  180.3440  144.2570 O   0  0  0  0  0  1  0  0  0  0  0  0
  1 16  1  0  0  0  0
  2 27  1  0  0  0  0
  2 24  2  0  0  0  0
  3 11  1  0  0  0  0
  4  3  1  0  0  0  0
  4 21  1  0  0  0  0
  5 25  1  0  0  0  0
  6  5  1  0  0  0  0
  6 18  1  1  0  0  0
  7 24  1  1  0  0  0
  7 19  1  0  0  0  0
  9 26  1  6  0  0  0
  9 15  1  0  0  0  0
 10 17  1  0  0  0  0
 10 20  1  0  0  0  0
 11 13  2  0  0  0  0
 12  8  1  6  0  0  0
 12  2  1  0  0  0  0
 13 12  1  0  0  0  0
 14 23  1  6  0  0  0
 14 27  1  0  0  0  0
 15 18  1  0  0  0  0
 17  8  1  6  0  0  0
 17  7  1  0  0  0  0
 19 16  1  0  0  0  0
 20  1  1  0  0  0  0
 22 21  1  1  0  0  0
 22 13  1  0  0  0  0
 22 14  1  0  0  0  0
 27  5  2  0  0  0  0
 28 23  1  6  0  0  0
 28  9  1  0  0  0  0
 28  6  1  0  0  0  0
 29 20  1  0  0  0  0
 29 30  1  0  0  0  0
 30 31  1  6  0  0  0
 32 30  1  0  0  0  0
M  END
>  <MODEL>
5

>  <REMARK>
 VINA RESULT:      -7.6      3.427      8.509
  Name = 
  2 active torsions:
  status: ('A' for Active; 'I' for Inactive)
    1  A    between atoms: N_20  and  C_29
    2  A    between atoms: C_29  and  C_30
                            x       y       z     vdW  Elec       q    Type
                         _______ _______ _______ _____ _____    ______ ____

>  <TORSDO>
F 2

$$$$
=
 OpenBabel11112416413D

 32 37  0  0  1  0  0  0  0  0999 V2000
  186.3170  179.0420  142.8090 C   0  0  0  0  0  2  0  0  0  0  0  0
  189.2430  174.7820  141.9510 C   0  0  0  0  0  0  0  0  0  0  0  0
  193.0400  174.0250  145.1130 C   0  0  0  0  0  2  0  0  0  0  0  0
  192.6900  172.6680  144.9790 O   0  0  0  0  0  0  0  0  0  0  0  0
  189.4090  173.3350  139.8690 C   0  0  0  0  0  0  0  0  0  0  0  0
  190.0340  172.1170  139.2520 C   0  0  1  0  0  3  0  0  0  0  0  0
  187.2220  176.0830  142.6730 C   0  0  1  0  0  3  0  0  0  0  0  0
  189.2000  176.0500  144.1800 C   0  0  0  0  0  2  0  0  0  0  0  0
  191.9410  170.9620  138.7550 C   0  0  2  0  0  3  0  0  0  0  0  0
  187.4410  177.8100  144.5680 C   0  0  0  0  0  2  0  0  0  0  0  0
  191.9240  174.9150  144.6280 C   0  0  0  0  0  3  0  0  0  0  0  0
  190.0600  175.4150  143.0810 C   0  0  1  0  0  3  0  0  0  0  0  0
  191.1040  174.4850  143.6530 C   0  0  0  0  0  0  0  0  0  0  0  0
  191.2330  173.1770  141.5660 C   0  0  1  0  0  3  0  0  0  0  0  0
  191.1050  170.9850  137.4760 C   0  0  0  0  0  2  0  0  0  0  0  0
  186.5720  178.0680  141.6470 C   0  0  0  0  0  2  0  0  0  0  0  0
  188.1700  176.9510  143.5280 C   0  0  2  0  0  3  0  0  0  0  0  0
  189.9420  171.9310  137.7580 C   0  0  0  0  0  2  0  0  0  0  0  0
  186.1740  176.7590  141.9890 O   0  0  0  0  0  0  0  0  0  0  0  0
  186.1580  178.3320  144.0840 N   0  0  0  0  0  0  0  0  0  0  0  0
  192.5550  172.4350  143.5990 C   0  0  0  0  0  2  0  0  0  0  0  0
  191.2580  173.0860  143.0900 C   0  0  1  0  0  3  0  0  0  0  0  0
  191.5600  171.8860  140.9420 N   0  0  0  0  0  2  0  0  0  0  0  0
  187.9650  175.1530  141.7570 C   0  0  0  0  0  3  0  0  0  0  0  0
  188.1910  173.9100  139.2180 C   0  0  0  0  0  1  0  0  0  0  0  0
  191.7650  169.6050  139.4370 C   0  0  0  0  0  1  0  0  0  0  0  0
  189.8940  173.7500  141.0750 C   0  0  0  0  0  0  0  0  0  0  0  0
  191.4460  172.0850  139.5540 N   0  0  2  0  0  0  0  0  0  0  0  0
  185.7080  179.3070  145.0630 C   0  0  0  0  0  2  0  0  0  0  0  0
  185.5240  178.6430  146.4160 C   0  0  2  0  0  3  0  0  0  0  0  0
  184.0650  178.2910  146.6110 C   0  0  0  0  0  1  0  0  0  0  0  0
  185.9280  179.5130  147.4290 O   0  0  0  0  0  1  0  0  0  0  0  0
  1 20  1  0  0  0  0
  2 12  1  0  0  0  0
  4  3  1  0  0  0  0
  5 27  2  0  0  0  0
  6 18  1  6  0  0  0
  6 28  1  0  0  0  0
  6  5  1  0  0  0  0
  7 24  1  6  0  0  0
  7 17  1  0  0  0  0
  9 26  1  1  0  0  0
  9 28  1  0  0  0  0
 11  3  1  0  0  0  0
 12 13  1  0  0  0  0
 12  8  1  1  0  0  0
 13 11  2  0  0  0  0
 14 23  1  6  0  0  0
 14 22  1  0  0  0  0
 15 18  1  0  0  0  0
 15  9  1  0  0  0  0
 16 19  1  0  0  0  0
 16  1  1  0  0  0  0
 17  8  1  1  0  0  0
 17 10  1  0  0  0  0
 19  7  1  0  0  0  0
 20 10  1  0  0  0  0
 20 29  1  0  0  0  0
 21  4  1  0  0  0  0
 22 21  1  6  0  0  0
 22 13  1  0  0  0  0
 24  2  2  0  0  0  0
 25  5  1  0  0  0  0
 27 14  1  0  0  0  0
 27  2  1  0  0  0  0
 28 23  1  1  0  0  0
 29 30  1  0  0  0  0
 30 31  1  1  0  0  0
 30 32  1  0  0  0  0
M  END
>  <MODEL>
6

>  <REMARK>
 VINA RESULT:      -7.6      2.422      8.140
  Name = 
  2 active torsions:
  status: ('A' for Active; 'I' for Inactive)
    1  A    between atoms: N_20  and  C_29
    2  A    between atoms: C_29  and  C_30
                            x       y       z     vdW  Elec       q    Type
                         _______ _______ _______ _____ _____    ______ ____

>  <TORSDO>
F 2

$$$$
=
 OpenBabel11112416413D

 32 37  0  0  1  0  0  0  0  0999 V2000
  186.8120  177.8960  146.5470 C   0  0  0  0  0  2  0  0  0  0  0  0
  190.2020  174.7740  144.0560 C   0  0  0  0  0  0  0  0  0  0  0  0
  188.5800  172.6660  139.8230 C   0  0  0  0  0  2  0  0  0  0  0  0
  189.8960  172.8900  139.3780 O   0  0  0  0  0  0  0  0  0  0  0  0
  192.3370  173.7010  144.9190 C   0  0  0  0  0  0  0  0  0  0  0  0
  193.5200  172.8420  144.5770 C   0  0  1  0  0  3  0  0  0  0  0  0
  189.2270  176.9430  144.8560 C   0  0  1  0  0  3  0  0  0  0  0  0
  188.1300  175.7950  142.9420 C   0  0  0  0  0  2  0  0  0  0  0  0
  194.2970  170.8750  143.7120 C   0  0  2  0  0  3  0  0  0  0  0  0
  186.8420  177.5960  144.1410 C   0  0  0  0  0  2  0  0  0  0  0  0
  188.2820  173.4920  141.0490 C   0  0  0  0  0  3  0  0  0  0  0  0
  188.9650  174.5330  143.1870 C   0  0  1  0  0  3  0  0  0  0  0  0
  189.2760  173.8080  141.8980 C   0  0  0  0  0  0  0  0  0  0  0  0
  191.3010  172.7690  142.8490 C   0  0  1  0  0  3  0  0  0  0  0  0
  195.0370  171.0880  145.0330 C   0  0  0  0  0  2  0  0  0  0  0  0
  188.1100  177.1460  146.8880 C   0  0  0  0  0  2  0  0  0  0  0  0
  187.8760  176.4720  144.2740 C   0  0  2  0  0  3  0  0  0  0  0  0
  194.3630  172.2850  145.6970 C   0  0  0  0  0  2  0  0  0  0  0  0
  189.1860  177.6180  146.1080 O   0  0  0  0  0  0  0  0  0  0  0  0
  186.9010  178.5650  145.2430 N   0  0  0  0  0  0  0  0  0  0  0  0
  190.7390  172.4190  140.4010 C   0  0  0  0  0  2  0  0  0  0  0  0
  190.7020  173.3920  141.5910 C   0  0  1  0  0  3  0  0  0  0  0  0
  192.6190  172.1740  142.5810 N   0  0  0  0  0  2  0  0  0  0  0  0
  190.2640  175.8580  144.8500 C   0  0  0  0  0  3  0  0  0  0  0  0
  192.4090  174.5400  146.1560 C   0  0  0  0  0  1  0  0  0  0  0  0
  195.2130  171.2900  142.5600 C   0  0  0  0  0  1  0  0  0  0  0  0
  191.3330  173.7860  144.0000 C   0  0  0  0  0  0  0  0  0  0  0  0
  193.0860  171.6930  143.8170 N   0  0  2  0  0  0  0  0  0  0  0  0
  185.7290  179.4130  145.1160 C   0  0  0  0  0  2  0  0  0  0  0  0
  184.4810  178.5610  144.9580 C   0  0  2  0  0  3  0  0  0  0  0  0
  183.6920  179.0410  143.7580 C   0  0  0  0  0  1  0  0  0  0  0  0
  183.6890  178.6650  146.1020 O   0  0  0  0  0  1  0  0  0  0  0  0
  1 16  1  0  0  0  0
  2 24  2  0  0  0  0
  3 11  1  0  0  0  0
  4  3  1  0  0  0  0
  4 21  1  0  0  0  0
  5 25  1  0  0  0  0
  6  5  1  0  0  0  0
  6 18  1  1  0  0  0
  7 24  1  1  0  0  0
  7 19  1  0  0  0  0
  9 26  1  6  0  0  0
  9 28  1  0  0  0  0
  9 15  1  0  0  0  0
 10 17  1  0  0  0  0
 10 20  1  0  0  0  0
 11 13  2  0  0  0  0
 12  8  1  6  0  0  0
 12  2  1  0  0  0  0
 13 12  1  0  0  0  0
 14 23  1  6  0  0  0
 14 27  1  0  0  0  0
 15 18  1  0  0  0  0
 17  8  1  6  0  0  0
 17  7  1  0  0  0  0
 19 16  1  0  0  0  0
 20  1  1  0  0  0  0
 22 21  1  6  0  0  0
 22 13  1  0  0  0  0
 22 14  1  0  0  0  0
 27  2  1  0  0  0  0
 27  5  2  0  0  0  0
 28 23  1  6  0  0  0
 28  6  1  0  0  0  0
 29 20  1  0  0  0  0
 30 31  1  6  0  0  0
 30 29  1  0  0  0  0
 30 32  1  0  0  0  0
M  END
>  <MODEL>
7

>  <REMARK>
 VINA RESULT:      -7.4      2.845      8.478
  Name = 
  2 active torsions:
  status: ('A' for Active; 'I' for Inactive)
    1  A    between atoms: N_20  and  C_29
    2  A    between atoms: C_29  and  C_30
                            x       y       z     vdW  Elec       q    Type
                         _______ _______ _______ _____ _____    ______ ____

>  <TORSDO>
F 2

$$$$
=
 OpenBabel11112416413D

 32 37  0  0  1  0  0  0  0  0999 V2000
  184.7690  177.9810  144.7930 C   0  0  0  0  0  2  0  0  0  0  0  0
  189.4180  175.8930  143.5780 C   0  0  0  0  0  0  0  0  0  0  0  0
  189.4100  172.3760  140.0260 C   0  0  0  0  0  2  0  0  0  0  0  0
  190.6240  172.9720  139.6370 O   0  0  0  0  0  0  0  0  0  0  0  0
  191.6010  175.9580  144.8760 C   0  0  0  0  0  0  0  0  0  0  0  0
  193.0490  175.5610  144.8880 C   0  0  1  0  0  3  0  0  0  0  0  0
  187.6250  177.6480  143.6390 C   0  0  1  0  0  3  0  0  0  0  0  0
  187.3550  175.7450  142.0620 C   0  0  0  0  0  2  0  0  0  0  0  0
  194.6000  173.8950  144.6910 C   0  0  2  0  0  3  0  0  0  0  0  0
  185.3310  177.1480  142.5860 C   0  0  0  0  0  2  0  0  0  0  0  0
  188.6300  173.2930  140.9340 C   0  0  0  0  0  3  0  0  0  0  0  0
  188.5170  174.9960  142.7240 C   0  0  1  0  0  3  0  0  0  0  0  0
  189.2850  174.1580  141.7290 C   0  0  0  0  0  0  0  0  0  0  0  0
  191.3390  174.2330  143.0900 C   0  0  1  0  0  3  0  0  0  0  0  0
  194.9720  174.6850  145.9460 C   0  0  0  0  0  2  0  0  0  0  0  0
  186.1640  177.8900  145.4340 C   0  0  0  0  0  2  0  0  0  0  0  0
  186.6490  176.5720  143.1170 C   0  0  2  0  0  3  0  0  0  0  0  0
  193.8180  175.6550  146.1820 C   0  0  0  0  0  2  0  0  0  0  0  0
  187.1310  178.5350  144.6350 O   0  0  0  0  0  0  0  0  0  0  0  0
  184.8530  178.2990  143.3620 N   0  0  0  0  0  0  0  0  0  0  0  0
  191.3800  173.1190  140.8130 C   0  0  0  0  0  2  0  0  0  0  0  0
  190.7960  174.2590  141.6640 C   0  0  1  0  0  3  0  0  0  0  0  0
  192.8070  174.1420  143.1080 N   0  0  0  0  0  2  0  0  0  0  0  0
  188.9580  177.0740  144.0270 C   0  0  0  0  0  3  0  0  0  0  0  0
  191.1560  177.0320  145.8180 C   0  0  0  0  0  1  0  0  0  0  0  0
  195.5060  174.3380  143.5420 C   0  0  0  0  0  1  0  0  0  0  0  0
  190.8110  175.4300  143.8970 C   0  0  0  0  0  0  0  0  0  0  0  0
  193.1830  174.1880  144.4620 N   0  0  2  0  0  0  0  0  0  0  0  0
  183.5020  178.5780  142.9060 C   0  0  0  0  0  2  0  0  0  0  0  0
  183.2680  177.9440  141.5450 C   0  0  2  0  0  3  0  0  0  0  0  0
  184.0040  178.7380  140.4870 C   0  0  0  0  0  1  0  0  0  0  0  0
  181.9030  177.9410  141.2540 O   0  0  0  0  0  1  0  0  0  0  0  0
  1 16  1  0  0  0  0
  2 27  1  0  0  0  0
  2 24  2  0  0  0  0
  3 11  1  0  0  0  0
  4  3  1  0  0  0  0
  4 21  1  0  0  0  0
  5  6  1  0  0  0  0
  5 25  1  0  0  0  0
  6 18  1  1  0  0  0
  7 24  1  1  0  0  0
  7 19  1  0  0  0  0
  9 26  1  6  0  0  0
  9 15  1  0  0  0  0
 10 17  1  0  0  0  0
 10 20  1  0  0  0  0
 11 13  2  0  0  0  0
 12  8  1  6  0  0  0
 12  2  1  0  0  0  0
 13 12  1  0  0  0  0
 14 23  1  6  0  0  0
 14 27  1  0  0  0  0
 15 18  1  0  0  0  0
 17  8  1  6  0  0  0
 17  7  1  0  0  0  0
 19 16  1  0  0  0  0
 20  1  1  0  0  0  0
 22 21  1  6  0  0  0
 22 13  1  0  0  0  0
 22 14  1  0  0  0  0
 27  5  2  0  0  0  0
 28 23  1  6  0  0  0
 28  9  1  0  0  0  0
 28  6  1  0  0  0  0
 29 20  1  0  0  0  0
 30 31  1  6  0  0  0
 30 29  1  0  0  0  0
 32 30  1  0  0  0  0
M  END
>  <MODEL>
8

>  <REMARK>
 VINA RESULT:      -7.3      2.896      7.588
  Name = 
  2 active torsions:
  status: ('A' for Active; 'I' for Inactive)
    1  A    between atoms: N_20  and  C_29
    2  A    between atoms: C_29  and  C_30
                            x       y       z     vdW  Elec       q    Type
                         _______ _______ _______ _____ _____    ______ ____

>  <TORSDO>
F 2

$$$$
=
 OpenBabel11112416413D

 32 37  0  0  1  0  0  0  0  0999 V2000
  186.9640  178.6540  142.8070 C   0  0  0  0  0  2  0  0  0  0  0  0
  189.2290  174.1260  141.4650 C   0  0  0  0  0  0  0  0  0  0  0  0
  192.6960  172.3630  144.6060 C   0  0  0  0  0  2  0  0  0  0  0  0
  192.1470  171.1090  144.2780 O   0  0  0  0  0  0  0  0  0  0  0  0
  189.2740  172.9520  139.2120 C   0  0  0  0  0  0  0  0  0  0  0  0
  189.7310  171.7400  138.4530 C   0  0  1  0  0  3  0  0  0  0  0  0
  187.4020  175.6300  142.2970 C   0  0  1  0  0  3  0  0  0  0  0  0
  189.2710  175.0840  143.8430 C   0  0  0  0  0  2  0  0  0  0  0  0
  191.4580  170.3670  137.8610 C   0  0  2  0  0  3  0  0  0  0  0  0
  187.7900  177.0390  144.4150 C   0  0  0  0  0  2  0  0  0  0  0  0
  191.7590  173.4770  144.2130 C   0  0  0  0  0  3  0  0  0  0  0  0
  190.0760  174.4670  142.6940 C   0  0  1  0  0  3  0  0  0  0  0  0
  190.9320  173.3150  143.1650 C   0  0  0  0  0  0  0  0  0  0  0  0
  190.9620  172.2840  140.9240 C   0  0  1  0  0  3  0  0  0  0  0  0
  190.7020  170.6900  136.5720 C   0  0  0  0  0  2  0  0  0  0  0  0
  187.1220  177.8110  141.5320 C   0  0  0  0  0  2  0  0  0  0  0  0
  188.4290  176.2160  143.2900 C   0  0  2  0  0  3  0  0  0  0  0  0
  189.6870  171.7660  136.9460 C   0  0  0  0  0  2  0  0  0  0  0  0
  186.5080  176.5490  141.6800 O   0  0  0  0  0  0  0  0  0  0  0  0
  186.6310  177.8200  143.9680 N   0  0  0  0  0  0  0  0  0  0  0  0
  192.0470  171.0820  142.8760 C   0  0  0  0  0  2  0  0  0  0  0  0
  190.8950  171.9930  142.4210 C   0  0  1  0  0  3  0  0  0  0  0  0
  191.1150  171.0490  140.1410 N   0  0  0  0  0  2  0  0  0  0  0  0
  188.0360  174.7190  141.2850 C   0  0  0  0  0  3  0  0  0  0  0  0
  188.1950  173.7960  138.6090 C   0  0  0  0  0  1  0  0  0  0  0  0
  191.0380  168.9800  138.3460 C   0  0  0  0  0  1  0  0  0  0  0  0
  189.7550  173.1240  140.4760 C   0  0  0  0  0  0  0  0  0  0  0  0
  191.1040  171.4420  138.7900 N   0  0  2  0  0  0  0  0  0  0  0  0
  186.2890  178.7200  145.0570 C   0  0  0  0  0  2  0  0  0  0  0  0
  185.4230  178.0010  146.0770 C   0  0  2  0  0  3  0  0  0  0  0  0
  184.0620  178.6620  146.1370 C   0  0  0  0  0  1  0  0  0  0  0  0
  186.0220  178.0650  147.3350 O   0  0  0  0  0  1  0  0  0  0  0  0
  1 20  1  0  0  0  0
  2 12  1  0  0  0  0
  4  3  1  0  0  0  0
  5 27  2  0  0  0  0
  6 18  1  6  0  0  0
  6 28  1  0  0  0  0
  6  5  1  0  0  0  0
  7 24  1  6  0  0  0
  7 17  1  0  0  0  0
  9 26  1  1  0  0  0
  9 28  1  0  0  0  0
 11  3  1  0  0  0  0
 12 13  1  0  0  0  0
 12  8  1  1  0  0  0
 13 11  2  0  0  0  0
 14 23  1  6  0  0  0
 14 22  1  0  0  0  0
 15 18  1  0  0  0  0
 15  9  1  0  0  0  0
 16 19  1  0  0  0  0
 16  1  1  0  0  0  0
 17  8  1  1  0  0  0
 17 10  1  0  0  0  0
 19  7  1  0  0  0  0
 20 10  1  0  0  0  0
 20 29  1  0  0  0  0
 21  4  1  0  0  0  0
 22 21  1  1  0  0  0
 22 13  1  0  0  0  0
 24  2  2  0  0  0  0
 25  5  1  0  0  0  0
 27 14  1  0  0  0  0
 27  2  1  0  0  0  0
 28 23  1  1  0  0  0
 29 30  1  0  0  0  0
 30 31  1  1  0  0  0
 30 32  1  0  0  0  0
M  END
>  <MODEL>
9

>  <REMARK>
 VINA RESULT:      -7.3      2.611      8.383
  Name = 
  2 active torsions:
  status: ('A' for Active; 'I' for Inactive)
    1  A    between atoms: N_20  and  C_29
    2  A    between atoms: C_29  and  C_30
                            x       y       z     vdW  Elec       q    Type
                         _______ _______ _______ _____ _____    ______ ____

>  <TORSDO>
F 2

$$$$
