=
 OpenBabel11112417383D

 28 32  0  0  1  0  0  0  0  0999 V2000
  192.1270  174.6200  142.3260 C   0  0  0  0  0  0  0  0  0  0  0  0
  188.5580  178.0230  141.6410 O   0  0  0  0  0  0  0  0  0  0  0  0
  191.5500  176.0670  147.7520 O   0  0  0  0  0  0  0  0  0  0  0  0
  190.9160  172.1440  142.8330 C   0  0  0  0  0  3  0  0  0  0  0  0
  189.3370  175.8530  146.7480 C   0  0  1  0  0  3  0  0  0  0  0  0
  192.8360  175.9260  142.1270 C   0  0  0  0  0  2  0  0  0  0  0  0
  187.7380  176.0190  140.4770 O   0  0  0  0  0  0  0  0  0  0  0  0
  187.7980  176.7350  141.7940 S   0  0  0  0  0  0  0  0  0  0  0  0
  186.5510  177.7980  144.0090 C   0  0  0  0  0  0  0  0  0  0  0  0
  188.5400  175.6790  143.0250 C   0  0  2  0  0  3  0  0  0  0  0  0
  194.1180  175.0440  145.1950 O   0  0  0  0  0  0  0  0  0  0  0  0
  190.1840  176.3200  144.5920 C   0  0  1  0  0  3  0  0  0  0  0  0
  187.4160  177.1650  144.7260 N   0  0  0  0  0  0  0  0  0  0  0  0
  185.8720  177.1060  142.4960 S   0  0  0  0  0  0  0  0  0  0  0  0
  193.6160  175.9300  144.5210 C   0  0  0  0  0  0  0  0  0  0  0  0
  190.8250  174.5780  142.8630 C   0  0  0  0  0  0  0  0  0  0  0  0
  190.8340  175.9960  146.7170 C   0  0  0  0  0  0  0  0  0  0  0  0
  186.2100  179.2040  144.3640 C   0  0  0  0  0  1  0  0  0  0  0  0
  192.6100  176.8460  145.1330 C   0  0  0  0  0  2  0  0  0  0  0  0
  190.2370  173.3280  143.1260 C   0  0  0  0  0  3  0  0  0  0  0  0
  192.7990  173.4270  142.0270 C   0  0  0  0  0  3  0  0  0  0  0  0
  192.1960  172.1940  142.2770 C   0  0  0  0  0  3  0  0  0  0  0  0
  194.0180  176.0810  143.0850 C   0  0  0  0  0  2  0  0  0  0  0  0
  189.1210  175.5470  145.2840 C   0  0  2  0  0  3  0  0  0  0  0  0
  191.3700  176.1290  145.3960 N   0  0  0  0  0  0  0  0  0  0  0  0
  187.9000  175.8210  144.4450 C   0  0  2  0  0  3  0  0  0  0  0  0
  188.9320  174.6490  147.5790 C   0  0  0  0  0  1  0  0  0  0  0  0
  190.0750  175.8640  143.1530 C   0  0  1  0  0  3  0  0  0  0  0  0
  1 16  1  0  0  0  0
  2  8  2  0  0  0  0
  4 20  1  0  0  0  0
  5 27  1  1  0  0  0
  6  1  1  0  0  0  0
  6 23  1  0  0  0  0
  7  8  2  0  0  0  0
  8 14  1  0  0  0  0
  9 18  1  0  0  0  0
  9 13  2  0  0  0  0
 10  8  1  6  0  0  0
 10 28  1  0  0  0  0
 10 26  1  0  0  0  0
 12 24  1  0  0  0  0
 12 25  1  1  0  0  0
 14  9  1  0  0  0  0
 15 19  1  0  0  0  0
 15 11  2  0  0  0  0
 16 20  2  0  0  0  0
 16 28  1  0  0  0  0
 17  5  1  0  0  0  0
 17  3  2  0  0  0  0
 19 25  1  0  0  0  0
 21 22  1  0  0  0  0
 21  1  2  0  0  0  0
 22  4  2  0  0  0  0
 23 15  1  0  0  0  0
 24  5  1  0  0  0  0
 25 17  1  0  0  0  0
 26 13  1  0  0  0  0
 26 24  1  0  0  0  0
 28 12  1  0  0  0  0
M  END
>  <MODEL>
1

>  <REMARK>
 VINA RESULT:      -7.6      0.000      0.000
  Name = 
  0 active torsions:
  status: ('A' for Active; 'I' for Inactive)
                            x       y       z     vdW  Elec       q    Type
                         _______ _______ _______ _____ _____    ______ ____

>  <TORSDO>
F 0

$$$$
=
 OpenBabel11112417383D

 28 32  0  0  1  0  0  0  0  0999 V2000
  189.3420  176.6990  145.5280 C   0  0  0  0  0  0  0  0  0  0  0  0
  194.1230  176.7110  144.1400 O   0  0  0  0  0  0  0  0  0  0  0  0
  188.7560  173.2180  141.1220 O   0  0  0  0  0  0  0  0  0  0  0  0
  188.9310  174.5650  147.2980 C   0  0  0  0  0  3  0  0  0  0  0  0
  190.7610  172.5960  142.3640 C   0  0  1  0  0  3  0  0  0  0  0  0
  189.4800  177.8150  144.5370 C   0  0  0  0  0  2  0  0  0  0  0  0
  194.1740  176.1780  146.5390 O   0  0  0  0  0  0  0  0  0  0  0  0
  194.0510  175.6070  145.1560 S   0  0  0  0  0  0  0  0  0  0  0  0
  194.8600  173.8340  143.2090 C   0  0  0  0  0  0  0  0  0  0  0  0
  192.5310  174.6860  145.0150 C   0  0  2  0  0  3  0  0  0  0  0  0
  187.0120  175.9830  142.9910 O   0  0  0  0  0  0  0  0  0  0  0  0
  191.0110  174.7860  143.2120 C   0  0  1  0  0  3  0  0  0  0  0  0
  193.6160  173.5310  143.0530 N   0  0  0  0  0  0  0  0  0  0  0  0
  195.5580  174.2090  144.8220 S   0  0  0  0  0  0  0  0  0  0  0  0
  188.0740  176.5720  142.8590 C   0  0  0  0  0  0  0  0  0  0  0  0
  190.1970  175.5790  145.4810 C   0  0  0  0  0  0  0  0  0  0  0  0
  189.6350  173.5140  141.9750 C   0  0  0  0  0  0  0  0  0  0  0  0
  195.7130  174.0230  142.0030 C   0  0  0  0  0  1  0  0  0  0  0  0
  189.1380  175.9920  141.9890 C   0  0  0  0  0  2  0  0  0  0  0  0
  189.9680  174.5100  146.3650 C   0  0  0  0  0  3  0  0  0  0  0  0
  188.3080  176.7500  146.4730 C   0  0  0  0  0  3  0  0  0  0  0  0
  188.1050  175.6890  147.3570 C   0  0  0  0  0  3  0  0  0  0  0  0
  188.2920  177.8700  143.5760 C   0  0  0  0  0  2  0  0  0  0  0  0
  191.2610  173.3660  143.5650 C   0  0  2  0  0  3  0  0  0  0  0  0
  189.6980  174.7980  142.6060 N   0  0  0  0  0  0  0  0  0  0  0  0
  192.6540  173.3970  144.1370 C   0  0  2  0  0  3  0  0  0  0  0  0
  190.2230  171.2510  142.8170 C   0  0  0  0  0  1  0  0  0  0  0  0
  191.3420  175.5320  144.4870 C   0  0  1  0  0  3  0  0  0  0  0  0
  1 21  1  0  0  0  0
  2  8  2  0  0  0  0
  3 17  2  0  0  0  0
  4 22  1  0  0  0  0
  5 27  1  1  0  0  0
  5 24  1  0  0  0  0
  6  1  1  0  0  0  0
  8  7  2  0  0  0  0
  9 14  1  0  0  0  0
 10  8  1  6  0  0  0
 12 25  1  1  0  0  0
 12 24  1  0  0  0  0
 12 28  1  0  0  0  0
 13  9  2  0  0  0  0
 13 26  1  0  0  0  0
 14  8  1  0  0  0  0
 15 11  2  0  0  0  0
 15 23  1  0  0  0  0
 16  1  2  0  0  0  0
 16 20  1  0  0  0  0
 17  5  1  0  0  0  0
 17 25  1  0  0  0  0
 18  9  1  0  0  0  0
 19 25  1  0  0  0  0
 19 15  1  0  0  0  0
 20  4  2  0  0  0  0
 21 22  2  0  0  0  0
 23  6  1  0  0  0  0
 24 26  1  0  0  0  0
 26 10  1  0  0  0  0
 28 10  1  0  0  0  0
 28 16  1  0  0  0  0
M  END
>  <MODEL>
2

>  <REMARK>
 VINA RESULT:      -7.5      2.891      6.344
  Name = 
  0 active torsions:
  status: ('A' for Active; 'I' for Inactive)
                            x       y       z     vdW  Elec       q    Type
                         _______ _______ _______ _____ _____    ______ ____

>  <TORSDO>
F 0

$$$$
=
 OpenBabel11112417383D

 28 32  0  0  1  0  0  0  0  0999 V2000
  189.0690  175.7100  145.5130 C   0  0  0  0  0  0  0  0  0  0  0  0
  189.5650  171.4420  142.9990 O   0  0  0  0  0  0  0  0  0  0  0  0
  194.6690  175.9870  144.8460 O   0  0  0  0  0  0  0  0  0  0  0  0
  188.7240  177.7960  143.6730 C   0  0  0  0  0  3  0  0  0  0  0  0
  193.6550  175.2640  142.7490 C   0  0  1  0  0  3  0  0  0  0  0  0
  189.3160  174.6510  146.5440 C   0  0  0  0  0  2  0  0  0  0  0  0
  187.8000  172.6660  141.8030 O   0  0  0  0  0  0  0  0  0  0  0  0
  189.2820  172.4550  141.9260 S   0  0  0  0  0  0  0  0  0  0  0  0
  191.7270  171.8670  140.8000 C   0  0  0  0  0  0  0  0  0  0  0  0
  190.0880  174.0090  142.2650 C   0  0  2  0  0  3  0  0  0  0  0  0
  191.9120  176.7830  147.2860 O   0  0  0  0  0  0  0  0  0  0  0  0
  191.7770  174.3740  143.8730 C   0  0  1  0  0  3  0  0  0  0  0  0
  192.1900  172.9060  141.4100 N   0  0  0  0  0  0  0  0  0  0  0  0
  190.0700  171.8270  140.1040 S   0  0  0  0  0  0  0  0  0  0  0  0
  191.5730  175.6280  147.0860 C   0  0  0  0  0  0  0  0  0  0  0  0
  189.5640  175.5710  144.2000 C   0  0  0  0  0  0  0  0  0  0  0  0
  193.6710  175.5260  144.2300 C   0  0  0  0  0  0  0  0  0  0  0  0
  192.5310  170.6140  140.7980 C   0  0  0  0  0  1  0  0  0  0  0  0
  192.4570  174.7220  146.2960 C   0  0  0  0  0  2  0  0  0  0  0  0
  189.3970  176.6320  143.2930 C   0  0  0  0  0  3  0  0  0  0  0  0
  188.3890  176.8780  145.8830 C   0  0  0  0  0  3  0  0  0  0  0  0
  188.2140  177.9160  144.9670 C   0  0  0  0  0  3  0  0  0  0  0  0
  190.2690  175.1360  147.6380 C   0  0  0  0  0  2  0  0  0  0  0  0
  192.1720  175.0130  142.5920 C   0  0  2  0  0  3  0  0  0  0  0  0
  192.4690  175.1240  144.8960 N   0  0  0  0  0  0  0  0  0  0  0  0
  191.4760  174.1650  141.5590 C   0  0  2  0  0  3  0  0  0  0  0  0
  194.0370  176.5150  141.9800 C   0  0  0  0  0  1  0  0  0  0  0  0
  190.2680  174.2960  143.7790 C   0  0  1  0  0  3  0  0  0  0  0  0
  1 21  1  0  0  0  0
  1  6  1  0  0  0  0
  4 22  1  0  0  0  0
  5 27  1  6  0  0  0
  5 17  1  0  0  0  0
  6 23  1  0  0  0  0
  7  8  2  0  0  0  0
  8  2  2  0  0  0  0
  9 13  2  0  0  0  0
 10  8  1  1  0  0  0
 10 28  1  0  0  0  0
 12 25  1  1  0  0  0
 13 26  1  0  0  0  0
 14  9  1  0  0  0  0
 14  8  1  0  0  0  0
 15 11  2  0  0  0  0
 15 23  1  0  0  0  0
 16  1  2  0  0  0  0
 17  3  2  0  0  0  0
 17 25  1  0  0  0  0
 18  9  1  0  0  0  0
 19 15  1  0  0  0  0
 20  4  2  0  0  0  0
 20 16  1  0  0  0  0
 22 21  2  0  0  0  0
 24  5  1  0  0  0  0
 24 12  1  0  0  0  0
 25 19  1  0  0  0  0
 26 10  1  0  0  0  0
 26 24  1  0  0  0  0
 28 12  1  0  0  0  0
 28 16  1  0  0  0  0
M  END
>  <MODEL>
3

>  <REMARK>
 VINA RESULT:      -7.3      2.457      5.488
  Name = 
  0 active torsions:
  status: ('A' for Active; 'I' for Inactive)
                            x       y       z     vdW  Elec       q    Type
                         _______ _______ _______ _____ _____    ______ ____

>  <TORSDO>
F 0

$$$$
=
 OpenBabel11112417383D

 28 32  0  0  1  0  0  0  0  0999 V2000
  186.6170  176.9100  143.6350 C   0  0  0  0  0  0  0  0  0  0  0  0
  188.3120  172.2930  142.8650 O   0  0  0  0  0  0  0  0  0  0  0  0
  190.8180  177.1160  147.4010 O   0  0  0  0  0  0  0  0  0  0  0  0
  188.0100  178.6660  141.9510 C   0  0  0  0  0  3  0  0  0  0  0  0
  191.6320  176.0540  145.3620 C   0  0  1  0  0  3  0  0  0  0  0  0
  185.8840  176.0360  144.6070 C   0  0  0  0  0  2  0  0  0  0  0  0
  188.1910  173.2930  140.6220 O   0  0  0  0  0  0  0  0  0  0  0  0
  189.0460  173.1160  141.8440 S   0  0  0  0  0  0  0  0  0  0  0  0
  191.4190  172.3700  143.0290 C   0  0  0  0  0  0  0  0  0  0  0  0
  189.5060  174.7100  142.4970 C   0  0  2  0  0  3  0  0  0  0  0  0
  187.2860  178.2790  146.8060 O   0  0  0  0  0  0  0  0  0  0  0  0
  189.4570  175.3450  144.7690 C   0  0  1  0  0  3  0  0  0  0  0  0
  191.3900  173.4980  143.6560 N   0  0  0  0  0  0  0  0  0  0  0  0
  190.8470  172.2050  141.3330 S   0  0  0  0  0  0  0  0  0  0  0  0
  187.0750  177.1040  146.5510 C   0  0  0  0  0  0  0  0  0  0  0  0
  187.9040  176.5630  143.1760 C   0  0  0  0  0  0  0  0  0  0  0  0
  190.5680  176.5540  146.3010 C   0  0  0  0  0  0  0  0  0  0  0  0
  191.7990  171.1390  143.7760 C   0  0  0  0  0  1  0  0  0  0  0  0
  188.1370  176.0880  146.8090 C   0  0  0  0  0  2  0  0  0  0  0  0
  188.5960  177.4610  142.3440 C   0  0  0  0  0  3  0  0  0  0  0  0
  186.0330  178.1180  143.2290 C   0  0  0  0  0  3  0  0  0  0  0  0
  186.7240  178.9910  142.3880 C   0  0  0  0  0  3  0  0  0  0  0  0
  185.7510  176.6990  145.9780 C   0  0  0  0  0  2  0  0  0  0  0  0
  190.7470  175.7690  144.1690 C   0  0  2  0  0  3  0  0  0  0  0  0
  189.2360  176.2570  145.8690 N   0  0  0  0  0  0  0  0  0  0  0  0
  190.9600  174.7600  143.0710 C   0  0  2  0  0  3  0  0  0  0  0  0
  192.6040  177.1650  145.0130 C   0  0  0  0  0  1  0  0  0  0  0  0
  188.5290  175.2410  143.5790 C   0  0  1  0  0  3  0  0  0  0  0  0
  1  6  1  0  0  0  0
  4 20  2  0  0  0  0
  4 22  1  0  0  0  0
  5 27  1  6  0  0  0
  5 17  1  0  0  0  0
  6 23  1  0  0  0  0
  7  8  2  0  0  0  0
  8  2  2  0  0  0  0
  9 13  2  0  0  0  0
  9 18  1  0  0  0  0
 10  8  1  1  0  0  0
 10 26  1  0  0  0  0
 10 28  1  0  0  0  0
 12 25  1  1  0  0  0
 14  8  1  0  0  0  0
 14  9  1  0  0  0  0
 15 11  2  0  0  0  0
 15 19  1  0  0  0  0
 16 28  1  0  0  0  0
 16  1  2  0  0  0  0
 17  3  2  0  0  0  0
 20 16  1  0  0  0  0
 21  1  1  0  0  0  0
 22 21  2  0  0  0  0
 23 15  1  0  0  0  0
 24 12  1  0  0  0  0
 24  5  1  0  0  0  0
 25 17  1  0  0  0  0
 25 19  1  0  0  0  0
 26 13  1  0  0  0  0
 26 24  1  0  0  0  0
 28 12  1  0  0  0  0
M  END
>  <MODEL>
4

>  <REMARK>
 VINA RESULT:      -7.0      2.372      5.613
  Name = 
  0 active torsions:
  status: ('A' for Active; 'I' for Inactive)
                            x       y       z     vdW  Elec       q    Type
                         _______ _______ _______ _____ _____    ______ ____

>  <TORSDO>
F 0

$$$$
=
 OpenBabel11112417383D

 28 32  0  0  1  0  0  0  0  0999 V2000
  192.0620  174.2870  143.7280 C   0  0  0  0  0  0  0  0  0  0  0  0
  188.5180  175.0790  147.1340 O   0  0  0  0  0  0  0  0  0  0  0  0
  187.7570  174.7430  140.1040 O   0  0  0  0  0  0  0  0  0  0  0  0
  193.0630  176.7670  142.8870 C   0  0  0  0  0  3  0  0  0  0  0  0
  187.5570  176.4880  141.7960 C   0  0  1  0  0  3  0  0  0  0  0  0
  191.5240  172.9350  144.0850 C   0  0  0  0  0  2  0  0  0  0  0  0
  190.2720  176.7160  147.6700 O   0  0  0  0  0  0  0  0  0  0  0  0
  189.0460  176.4560  146.8440 S   0  0  0  0  0  0  0  0  0  0  0  0
  186.5310  177.1800  145.9820 C   0  0  0  0  0  0  0  0  0  0  0  0
  189.4280  176.6590  145.1140 C   0  0  2  0  0  3  0  0  0  0  0  0
  190.9800  172.8840  140.6890 O   0  0  0  0  0  0  0  0  0  0  0  0
  188.7720  175.2100  143.3700 C   0  0  1  0  0  3  0  0  0  0  0  0
  186.9450  176.9610  144.7800 N   0  0  0  0  0  0  0  0  0  0  0  0
  187.5930  177.8930  147.2450 S   0  0  0  0  0  0  0  0  0  0  0  0
  190.5100  172.6720  141.7950 C   0  0  0  0  0  0  0  0  0  0  0  0
  191.2550  175.4380  143.8360 C   0  0  0  0  0  0  0  0  0  0  0  0
  188.0900  175.2000  141.2300 C   0  0  0  0  0  0  0  0  0  0  0  0
  185.1800  176.6950  146.3790 C   0  0  0  0  0  1  0  0  0  0  0  0
  189.0930  173.0430  142.0820 C   0  0  0  0  0  2  0  0  0  0  0  0
  191.7660  176.6720  143.3960 C   0  0  0  0  0  3  0  0  0  0  0  0
  193.3650  174.3920  143.2230 C   0  0  0  0  0  3  0  0  0  0  0  0
  193.8660  175.6270  142.8080 C   0  0  0  0  0  3  0  0  0  0  0  0
  191.3670  172.0430  142.8520 C   0  0  0  0  0  2  0  0  0  0  0  0
  188.5050  176.6150  142.9680 C   0  0  2  0  0  3  0  0  0  0  0  0
  188.9510  174.4920  142.1280 N   0  0  0  0  0  0  0  0  0  0  0  0
  188.2700  177.3070  144.2850 C   0  0  2  0  0  3  0  0  0  0  0  0
  187.7940  177.6350  140.8310 C   0  0  0  0  0  1  0  0  0  0  0  0
  189.8570  175.3410  144.4160 C   0  0  1  0  0  3  0  0  0  0  0  0
  1 16  1  0  0  0  0
  1  6  1  0  0  0  0
  3 17  2  0  0  0  0
  4 20  1  0  0  0  0
  5 27  1  6  0  0  0
  5 24  1  0  0  0  0
  8  2  2  0  0  0  0
  8 14  1  0  0  0  0
  8  7  2  0  0  0  0
  9 18  1  0  0  0  0
  9 14  1  0  0  0  0
 10  8  1  1  0  0  0
 11 15  2  0  0  0  0
 12 25  1  6  0  0  0
 12 28  1  0  0  0  0
 13  9  2  0  0  0  0
 15 19  1  0  0  0  0
 15 23  1  0  0  0  0
 16 28  1  0  0  0  0
 17  5  1  0  0  0  0
 17 25  1  0  0  0  0
 19 25  1  0  0  0  0
 20 16  2  0  0  0  0
 21  1  2  0  0  0  0
 22  4  2  0  0  0  0
 22 21  1  0  0  0  0
 23  6  1  0  0  0  0
 24 12  1  0  0  0  0
 24 26  1  0  0  0  0
 26 13  1  0  0  0  0
 26 10  1  0  0  0  0
 28 10  1  0  0  0  0
M  END
>  <MODEL>
5

>  <REMARK>
 VINA RESULT:      -6.8      2.452      4.638
  Name = 
  0 active torsions:
  status: ('A' for Active; 'I' for Inactive)
                            x       y       z     vdW  Elec       q    Type
                         _______ _______ _______ _____ _____    ______ ____

>  <TORSDO>
F 0

$$$$
=
 OpenBabel11112417383D

 28 32  0  0  1  0  0  0  0  0999 V2000
  189.8870  174.5300  144.7790 C   0  0  0  0  0  0  0  0  0  0  0  0
  193.0960  170.7300  145.0130 O   0  0  0  0  0  0  0  0  0  0  0  0
  194.0880  177.3690  147.2630 O   0  0  0  0  0  0  0  0  0  0  0  0
  190.3280  175.9250  142.3880 C   0  0  0  0  0  3  0  0  0  0  0  0
  195.0140  175.9740  145.4890 C   0  0  1  0  0  3  0  0  0  0  0  0
  189.6470  173.8690  146.1020 C   0  0  0  0  0  2  0  0  0  0  0  0
  192.3660  170.7840  142.6660 O   0  0  0  0  0  0  0  0  0  0  0  0
  193.3520  171.3290  143.6580 S   0  0  0  0  0  0  0  0  0  0  0  0
  195.9450  171.8420  144.4340 C   0  0  0  0  0  0  0  0  0  0  0  0
  193.2480  173.1080  143.6990 C   0  0  2  0  0  3  0  0  0  0  0  0
  190.3350  177.0630  147.1780 O   0  0  0  0  0  0  0  0  0  0  0  0
  193.2130  174.4510  145.6390 C   0  0  1  0  0  3  0  0  0  0  0  0
  195.5640  173.0460  144.6980 N   0  0  0  0  0  0  0  0  0  0  0  0
  195.2960  170.9180  143.0360 S   0  0  0  0  0  0  0  0  0  0  0  0
  190.5550  175.8720  147.3290 C   0  0  0  0  0  0  0  0  0  0  0  0
  191.1520  174.4710  144.1600 C   0  0  0  0  0  0  0  0  0  0  0  0
  193.9490  176.4080  146.4600 C   0  0  0  0  0  0  0  0  0  0  0  0
  196.8380  171.1410  145.3980 C   0  0  0  0  0  1  0  0  0  0  0  0
  191.9410  175.4050  147.6220 C   0  0  0  0  0  2  0  0  0  0  0  0
  191.3620  175.1880  142.9690 C   0  0  0  0  0  3  0  0  0  0  0  0
  188.8520  175.2650  144.1850 C   0  0  0  0  0  3  0  0  0  0  0  0
  189.0700  175.9580  142.9930 C   0  0  0  0  0  3  0  0  0  0  0  0
  189.4250  174.8930  147.2160 C   0  0  0  0  0  2  0  0  0  0  0  0
  194.1760  175.0230  144.6640 C   0  0  2  0  0  3  0  0  0  0  0  0
  192.7870  175.5710  146.4480 N   0  0  0  0  0  0  0  0  0  0  0  0
  194.6310  173.8150  143.8870 C   0  0  2  0  0  3  0  0  0  0  0  0
  195.4530  177.1390  144.6220 C   0  0  0  0  0  1  0  0  0  0  0  0
  192.2680  173.6470  144.7740 C   0  0  1  0  0  3  0  0  0  0  0  0
  1  6  1  0  0  0  0
  4 20  2  0  0  0  0
  4 22  1  0  0  0  0
  5 27  1  6  0  0  0
  5 17  1  0  0  0  0
  6 23  1  0  0  0  0
  7  8  2  0  0  0  0
  8  2  2  0  0  0  0
  9 13  2  0  0  0  0
  9 18  1  0  0  0  0
 10  8  1  1  0  0  0
 10 26  1  0  0  0  0
 10 28  1  0  0  0  0
 11 15  2  0  0  0  0
 12 25  1  6  0  0  0
 14  8  1  0  0  0  0
 14  9  1  0  0  0  0
 15 19  1  0  0  0  0
 16 28  1  0  0  0  0
 16  1  2  0  0  0  0
 17  3  2  0  0  0  0
 20 16  1  0  0  0  0
 21  1  1  0  0  0  0
 22 21  2  0  0  0  0
 23 15  1  0  0  0  0
 24  5  1  0  0  0  0
 24 12  1  0  0  0  0
 25 17  1  0  0  0  0
 25 19  1  0  0  0  0
 26 24  1  0  0  0  0
 26 13  1  0  0  0  0
 28 12  1  0  0  0  0
M  END
>  <MODEL>
6

>  <REMARK>
 VINA RESULT:      -6.8      3.603      6.433
  Name = 
  0 active torsions:
  status: ('A' for Active; 'I' for Inactive)
                            x       y       z     vdW  Elec       q    Type
                         _______ _______ _______ _____ _____    ______ ____

>  <TORSDO>
F 0

$$$$
=
 OpenBabel11112417383D

 28 32  0  0  1  0  0  0  0  0999 V2000
  191.7930  175.3760  145.7410 C   0  0  0  0  0  0  0  0  0  0  0  0
  192.7040  172.1150  142.0920 O   0  0  0  0  0  0  0  0  0  0  0  0
  188.5560  177.8450  141.8290 O   0  0  0  0  0  0  0  0  0  0  0  0
  189.5100  174.5410  147.1360 C   0  0  0  0  0  3  0  0  0  0  0  0
  188.2030  175.4330  141.7450 C   0  0  1  0  0  3  0  0  0  0  0  0
  192.9780  175.9120  144.9960 C   0  0  0  0  0  2  0  0  0  0  0  0
  192.0330  170.7300  144.0100 O   0  0  0  0  0  0  0  0  0  0  0  0
  191.5400  171.5110  142.8260 S   0  0  0  0  0  0  0  0  0  0  0  0
  190.0600  171.6820  140.5080 C   0  0  0  0  0  0  0  0  0  0  0  0
  190.3860  172.7600  143.3630 C   0  0  2  0  0  3  0  0  0  0  0  0
  190.8590  178.6080  144.7100 O   0  0  0  0  0  0  0  0  0  0  0  0
  190.3440  175.0090  142.6470 C   0  0  1  0  0  3  0  0  0  0  0  0
  189.5610  172.7740  140.9790 N   0  0  0  0  0  0  0  0  0  0  0  0
  190.4420  170.2740  141.5600 S   0  0  0  0  0  0  0  0  0  0  0  0
  191.6260  177.8530  144.1330 C   0  0  0  0  0  0  0  0  0  0  0  0
  190.8400  174.5640  145.0950 C   0  0  0  0  0  0  0  0  0  0  0  0
  188.9410  176.6850  142.1350 C   0  0  0  0  0  0  0  0  0  0  0  0
  190.4680  171.6330  139.0770 C   0  0  0  0  0  1  0  0  0  0  0  0
  191.2920  177.3630  142.7630 C   0  0  0  0  0  2  0  0  0  0  0  0
  189.6920  174.1660  145.8040 C   0  0  0  0  0  3  0  0  0  0  0  0
  191.6070  175.7420  147.0810 C   0  0  0  0  0  3  0  0  0  0  0  0
  190.4720  175.3240  147.7780 C   0  0  0  0  0  3  0  0  0  0  0  0
  192.8930  177.4280  144.8110 C   0  0  0  0  0  2  0  0  0  0  0  0
  188.9670  174.4560  142.6090 C   0  0  2  0  0  3  0  0  0  0  0  0
  190.1730  176.4340  142.8200 N   0  0  0  0  0  0  0  0  0  0  0  0
  189.1960  172.9860  142.3720 C   0  0  2  0  0  3  0  0  0  0  0  0
  186.7600  175.4950  142.2110 C   0  0  0  0  0  1  0  0  0  0  0  0
  191.0510  174.1300  143.6570 C   0  0  1  0  0  3  0  0  0  0  0  0
  1 21  1  0  0  0  0
  2  8  2  0  0  0  0
  3 17  2  0  0  0  0
  4 22  1  0  0  0  0
  5 17  1  0  0  0  0
  5 27  1  1  0  0  0
  5 24  1  0  0  0  0
  6  1  1  0  0  0  0
  8  7  2  0  0  0  0
  9 13  2  0  0  0  0
  9 14  1  0  0  0  0
 10  8  1  6  0  0  0
 10 28  1  0  0  0  0
 12 25  1  1  0  0  0
 12 28  1  0  0  0  0
 13 26  1  0  0  0  0
 14  8  1  0  0  0  0
 15 11  2  0  0  0  0
 15 23  1  0  0  0  0
 16  1  2  0  0  0  0
 16 20  1  0  0  0  0
 17 25  1  0  0  0  0
 18  9  1  0  0  0  0
 19 25  1  0  0  0  0
 19 15  1  0  0  0  0
 20  4  2  0  0  0  0
 21 22  2  0  0  0  0
 23  6  1  0  0  0  0
 24 12  1  0  0  0  0
 26 24  1  0  0  0  0
 26 10  1  0  0  0  0
 28 16  1  0  0  0  0
M  END
>  <MODEL>
7

>  <REMARK>
 VINA RESULT:      -6.8      2.961      5.315
  Name = 
  0 active torsions:
  status: ('A' for Active; 'I' for Inactive)
                            x       y       z     vdW  Elec       q    Type
                         _______ _______ _______ _____ _____    ______ ____

>  <TORSDO>
F 0

$$$$
=
 OpenBabel11112417383D

 28 32  0  0  1  0  0  0  0  0999 V2000
  190.5200  175.8240  145.2350 C   0  0  0  0  0  0  0  0  0  0  0  0
  190.2640  171.4190  142.9290 O   0  0  0  0  0  0  0  0  0  0  0  0
  195.9510  175.5630  143.7140 O   0  0  0  0  0  0  0  0  0  0  0  0
  190.0650  177.8480  143.3500 C   0  0  0  0  0  3  0  0  0  0  0  0
  194.5660  174.8410  141.8400 C   0  0  1  0  0  3  0  0  0  0  0  0
  190.8370  174.7950  146.2780 C   0  0  0  0  0  2  0  0  0  0  0  0
  188.4420  172.7430  141.9440 O   0  0  0  0  0  0  0  0  0  0  0  0
  189.9010  172.4050  141.8540 S   0  0  0  0  0  0  0  0  0  0  0  0
  192.0840  171.5490  140.4070 C   0  0  0  0  0  0  0  0  0  0  0  0
  190.8760  173.8930  141.9750 C   0  0  2  0  0  3  0  0  0  0  0  0
  193.6830  176.7140  146.4910 O   0  0  0  0  0  0  0  0  0  0  0  0
  192.8190  174.1760  143.2850 C   0  0  1  0  0  3  0  0  0  0  0  0
  192.7210  172.5670  140.8780 N   0  0  0  0  0  0  0  0  0  0  0  0
  190.3410  171.6270  139.9730 S   0  0  0  0  0  0  0  0  0  0  0  0
  193.2230  175.5860  146.4140 C   0  0  0  0  0  0  0  0  0  0  0  0
  190.7910  175.5820  143.8730 C   0  0  0  0  0  0  0  0  0  0  0  0
  194.8340  175.1670  143.2840 C   0  0  0  0  0  0  0  0  0  0  0  0
  192.7720  170.2290  140.3570 C   0  0  0  0  0  1  0  0  0  0  0  0
  193.8950  174.5700  145.5530 C   0  0  0  0  0  2  0  0  0  0  0  0
  190.5720  176.6120  142.9420 C   0  0  0  0  0  3  0  0  0  0  0  0
  190.0040  177.0640  145.6360 C   0  0  0  0  0  3  0  0  0  0  0  0
  189.7740  178.0710  144.6970 C   0  0  0  0  0  3  0  0  0  0  0  0
  191.9850  175.2400  147.1840 C   0  0  0  0  0  2  0  0  0  0  0  0
  193.0610  174.7180  141.9240 C   0  0  2  0  0  3  0  0  0  0  0  0
  193.7220  174.9060  144.1460 N   0  0  0  0  0  0  0  0  0  0  0  0
  192.1450  173.8920  141.0600 C   0  0  2  0  0  3  0  0  0  0  0  0
  194.9260  176.0170  140.9500 C   0  0  0  0  0  1  0  0  0  0  0  0
  191.3130  174.2300  143.4250 C   0  0  1  0  0  3  0  0  0  0  0  0
  1 21  1  0  0  0  0
  1  6  1  0  0  0  0
  4 22  1  0  0  0  0
  5 27  1  6  0  0  0
  5 24  1  0  0  0  0
  5 17  1  0  0  0  0
  6 23  1  0  0  0  0
  8  7  2  0  0  0  0
  8  2  2  0  0  0  0
  9 13  2  0  0  0  0
 10  8  1  1  0  0  0
 10 28  1  0  0  0  0
 12 28  1  0  0  0  0
 12 25  1  1  0  0  0
 13 26  1  0  0  0  0
 14  9  1  0  0  0  0
 14  8  1  0  0  0  0
 15 11  2  0  0  0  0
 15 23  1  0  0  0  0
 16  1  2  0  0  0  0
 17  3  2  0  0  0  0
 17 25  1  0  0  0  0
 18  9  1  0  0  0  0
 19 15  1  0  0  0  0
 20  4  2  0  0  0  0
 20 16  1  0  0  0  0
 22 21  2  0  0  0  0
 24 12  1  0  0  0  0
 25 19  1  0  0  0  0
 26 24  1  0  0  0  0
 26 10  1  0  0  0  0
 28 16  1  0  0  0  0
M  END
>  <MODEL>
8

>  <REMARK>
 VINA RESULT:      -6.7      2.942      5.737
  Name = 
  0 active torsions:
  status: ('A' for Active; 'I' for Inactive)
                            x       y       z     vdW  Elec       q    Type
                         _______ _______ _______ _____ _____    ______ ____

>  <TORSDO>
F 0

$$$$
=
 OpenBabel11112417383D

 28 32  0  0  1  0  0  0  0  0999 V2000
  190.6770  176.9970  144.9580 C   0  0  0  0  0  0  0  0  0  0  0  0
  194.3030  176.6120  141.5690 O   0  0  0  0  0  0  0  0  0  0  0  0
  188.1570  173.1020  141.7390 O   0  0  0  0  0  0  0  0  0  0  0  0
  191.1200  175.0870  146.9620 C   0  0  0  0  0  3  0  0  0  0  0  0
  190.5090  172.5120  142.0050 C   0  0  1  0  0  3  0  0  0  0  0  0
  190.3460  177.9920  143.8870 C   0  0  0  0  0  2  0  0  0  0  0  0
  195.4410  176.3350  143.7310 O   0  0  0  0  0  0  0  0  0  0  0  0
  194.7030  175.6270  142.6310 S   0  0  0  0  0  0  0  0  0  0  0  0
  194.5410  173.6170  140.7530 C   0  0  0  0  0  0  0  0  0  0  0  0
  193.2860  174.7770  143.3020 C   0  0  2  0  0  3  0  0  0  0  0  0
  187.4490  176.1380  143.8530 O   0  0  0  0  0  0  0  0  0  0  0  0
  191.1130  174.7640  142.3830 C   0  0  1  0  0  3  0  0  0  0  0  0
  193.3630  173.3640  141.2130 N   0  0  0  0  0  0  0  0  0  0  0  0
  195.8960  174.1250  141.8200 S   0  0  0  0  0  0  0  0  0  0  0  0
  188.3330  176.6530  143.1860 C   0  0  0  0  0  0  0  0  0  0  0  0
  191.4180  175.8350  144.6620 C   0  0  0  0  0  0  0  0  0  0  0  0
  189.3270  173.4410  142.0620 C   0  0  0  0  0  0  0  0  0  0  0  0
  194.7520  173.6320  139.2790 C   0  0  0  0  0  1  0  0  0  0  0  0
  188.8870  175.9290  142.0050 C   0  0  0  0  0  2  0  0  0  0  0  0
  191.6190  174.8790  145.6740 C   0  0  0  0  0  3  0  0  0  0  0  0
  190.1860  177.2010  146.2550 C   0  0  0  0  0  3  0  0  0  0  0  0
  190.4090  176.2530  147.2540 C   0  0  0  0  0  3  0  0  0  0  0  0
  188.8510  178.0060  143.5680 C   0  0  0  0  0  2  0  0  0  0  0  0
  191.4990  173.3780  142.7500 C   0  0  2  0  0  3  0  0  0  0  0  0
  189.6680  174.7800  142.4390 N   0  0  0  0  0  0  0  0  0  0  0  0
  193.0000  173.3970  142.6220 C   0  0  2  0  0  3  0  0  0  0  0  0
  190.2380  171.2530  142.8080 C   0  0  0  0  0  1  0  0  0  0  0  0
  191.9860  175.6220  143.2720 C   0  0  1  0  0  3  0  0  0  0  0  0
  1 21  1  0  0  0  0
  2  8  2  0  0  0  0
  3 17  2  0  0  0  0
  4 22  1  0  0  0  0
  5 17  1  0  0  0  0
  5 24  1  0  0  0  0
  5 27  1  1  0  0  0
  6  1  1  0  0  0  0
  8  7  2  0  0  0  0
  9 13  2  0  0  0  0
  9 14  1  0  0  0  0
 10  8  1  6  0  0  0
 12 25  1  1  0  0  0
 12 24  1  0  0  0  0
 12 28  1  0  0  0  0
 13 26  1  0  0  0  0
 14  8  1  0  0  0  0
 15 23  1  0  0  0  0
 15 11  2  0  0  0  0
 16  1  2  0  0  0  0
 16 20  1  0  0  0  0
 17 25  1  0  0  0  0
 18  9  1  0  0  0  0
 19 25  1  0  0  0  0
 19 15  1  0  0  0  0
 20  4  2  0  0  0  0
 21 22  2  0  0  0  0
 23  6  1  0  0  0  0
 26 24  1  0  0  0  0
 26 10  1  0  0  0  0
 28 10  1  0  0  0  0
 28 16  1  0  0  0  0
M  END
>  <MODEL>
9

>  <REMARK>
 VINA RESULT:      -6.6      3.080      6.249
  Name = 
  0 active torsions:
  status: ('A' for Active; 'I' for Inactive)
                            x       y       z     vdW  Elec       q    Type
                         _______ _______ _______ _____ _____    ______ ____

>  <TORSDO>
F 0

$$$$
