=
 OpenBabel11112416253D

 30 35  0  0  1  0  0  0  0  0999 V2000
  190.0480  175.7920  143.8050 C   0  0  0  0  0  0  0  0  0  0  0  0
  192.2260  175.5840  144.9850 C   0  0  0  0  0  0  0  0  0  0  0  0
  188.2680  177.5410  147.1720 N   0  0  0  0  0  2  0  0  0  0  0  0
  188.7080  176.2520  143.7880 C   0  0  0  0  0  0  0  0  0  0  0  0
  190.5520  175.1180  142.6480 N   0  0  0  0  0  2  0  0  0  0  0  0
  187.8160  175.2650  140.3880 O   0  0  0  0  0  0  0  0  0  0  0  0
  185.8060  177.4220  143.0880 C   0  0  1  0  0  3  0  0  0  0  0  0
  188.4440  175.3430  141.4800 C   0  0  0  0  0  0  0  0  0  0  0  0
  186.1930  178.1760  144.3290 C   0  0  1  0  0  3  0  0  0  0  0  0
  186.8940  177.7710  146.7450 C   0  0  2  0  0  3  0  0  0  0  0  0
  189.6630  174.5000  141.6720 C   0  0  2  0  0  3  0  0  0  0  0  0
  187.9660  176.1980  142.5410 N   0  0  0  0  0  0  0  0  0  0  0  0
  192.9910  175.7930  146.1370 C   0  0  0  0  0  3  0  0  0  0  0  0
  184.8880  178.7850  144.8060 C   0  0  0  0  0  2  0  0  0  0  0  0
  184.7010  178.2330  142.4370 C   0  0  0  0  0  2  0  0  0  0  0  0
  192.8260  174.9930  143.9220 F   0  0  0  0  0  0  0  0  0  0  0  0
  188.9740  176.9840  146.0820 C   0  0  0  0  0  0  0  0  0  0  0  0
  192.4300  176.3970  147.2610 C   0  0  0  0  0  3  0  0  0  0  0  0
  190.8710  175.9890  144.9470 C   0  0  0  0  0  0  0  0  0  0  0  0
  188.1860  176.8110  144.9760 C   0  0  0  0  0  0  0  0  0  0  0  0
  185.9410  177.0560  147.6820 C   0  0  0  0  0  1  0  0  0  0  0  0
  186.7740  177.1800  145.3240 C   0  0  2  0  0  3  0  0  0  0  0  0
  184.0630  179.0390  143.5560 C   0  0  0  0  0  2  0  0  0  0  0  0
  187.1630  177.9230  141.1830 O   0  0  0  0  0  0  0  0  0  0  0  0
  191.0950  176.8000  147.2460 C   0  0  0  0  0  3  0  0  0  0  0  0
  190.3150  176.6030  146.1010 C   0  0  0  0  0  0  0  0  0  0  0  0
  186.9960  177.2080  142.2100 C   0  0  0  0  0  0  0  0  0  0  0  0
  189.2530  173.1120  142.1460 C   0  0  0  0  0  2  0  0  0  0  0  0
  189.6910  172.1030  144.2090 C   0  0  0  0  0  1  0  0  0  0  0  0
  190.3040  172.5270  142.9620 N   0  0  0  0  0  2  0  0  0  0  0  0
  1 19  1  0  0  0  0
  2 13  1  0  0  0  0
  4  1  2  0  0  0  0
  4 20  1  0  0  0  0
  5  1  1  0  0  0  0
  6  8  2  0  0  0  0
  7 15  1  6  0  0  0
  7  9  1  0  0  0  0
  8 11  1  0  0  0  0
  8 12  1  0  0  0  0
  9 14  1  1  0  0  0
  9 22  1  0  0  0  0
 10  3  1  0  0  0  0
 10 21  1  1  0  0  0
 11 28  1  1  0  0  0
 11  5  1  0  0  0  0
 12  4  1  0  0  0  0
 13 18  2  0  0  0  0
 15 23  1  0  0  0  0
 16  2  1  0  0  0  0
 17 26  1  0  0  0  0
 17  3  1  0  0  0  0
 19  2  2  0  0  0  0
 19 26  1  0  0  0  0
 20 17  2  0  0  0  0
 22 20  1  6  0  0  0
 22 10  1  0  0  0  0
 23 14  1  0  0  0  0
 24 27  2  0  0  0  0
 25 18  1  0  0  0  0
 26 25  2  0  0  0  0
 27 12  1  0  0  0  0
 27  7  1  0  0  0  0
 28 30  1  0  0  0  0
 30 29  1  0  0  0  0
M  END
>  <MODEL>
1

>  <REMARK>
 VINA RESULT:      -8.7      0.000      0.000
  Name = 
  2 active torsions:
  status: ('A' for Active; 'I' for Inactive)
    1  A    between atoms: C_11  and  C_28
    2  A    between atoms: C_28  and  N_30
                            x       y       z     vdW  Elec       q    Type
                         _______ _______ _______ _____ _____    ______ ____

>  <TORSDO>
F 2

$$$$
=
 OpenBabel11112416253D

 30 35  0  0  1  0  0  0  0  0999 V2000
  190.0360  175.1030  143.6830 C   0  0  0  0  0  0  0  0  0  0  0  0
  190.7470  173.8170  141.6780 C   0  0  0  0  0  0  0  0  0  0  0  0
  186.5680  176.4280  141.7380 N   0  0  0  0  0  2  0  0  0  0  0  0
  189.0660  175.8980  144.3440 C   0  0  0  0  0  0  0  0  0  0  0  0
  191.2380  174.7730  144.3850 N   0  0  0  0  0  2  0  0  0  0  0  0
  190.7270  176.2450  147.5760 O   0  0  0  0  0  0  0  0  0  0  0  0
  187.0710  177.3460  146.3920 C   0  0  1  0  0  3  0  0  0  0  0  0
  190.5410  175.9980  146.3530 C   0  0  0  0  0  0  0  0  0  0  0  0
  186.1720  176.9530  145.2540 C   0  0  1  0  0  3  0  0  0  0  0  0
  185.9220  177.2680  142.7380 C   0  0  2  0  0  3  0  0  0  0  0  0
  191.7030  175.5570  145.5230 C   0  0  2  0  0  3  0  0  0  0  0  0
  189.2380  176.1810  145.7570 N   0  0  0  0  0  0  0  0  0  0  0  0
  190.4930  173.4050  140.3660 C   0  0  0  0  0  3  0  0  0  0  0  0
  184.9140  177.7680  145.4850 C   0  0  0  0  0  2  0  0  0  0  0  0
  186.1560  177.5930  147.5770 C   0  0  0  0  0  2  0  0  0  0  0  0
  191.8900  173.3910  142.2700 F   0  0  0  0  0  0  0  0  0  0  0  0
  187.7420  175.8920  142.3150 C   0  0  0  0  0  0  0  0  0  0  0  0
  189.3340  173.8100  139.7060 C   0  0  0  0  0  3  0  0  0  0  0  0
  189.8220  174.6490  142.3530 C   0  0  0  0  0  0  0  0  0  0  0  0
  187.9370  176.3140  143.6030 C   0  0  0  0  0  0  0  0  0  0  0  0
  185.7280  178.6650  142.1830 C   0  0  0  0  0  1  0  0  0  0  0  0
  186.8750  177.3140  143.9520 C   0  0  2  0  0  3  0  0  0  0  0  0
  184.7990  177.9440  146.9890 C   0  0  0  0  0  2  0  0  0  0  0  0
  187.9780  175.4930  147.6020 O   0  0  0  0  0  0  0  0  0  0  0  0
  188.4130  174.6330  140.3520 C   0  0  0  0  0  3  0  0  0  0  0  0
  188.6460  175.0530  141.6670 C   0  0  0  0  0  0  0  0  0  0  0  0
  188.1030  176.2950  146.6350 C   0  0  0  0  0  0  0  0  0  0  0  0
  192.4720  176.7780  145.0350 C   0  0  0  0  0  2  0  0  0  0  0  0
  194.2590  176.3520  146.4810 C   0  0  0  0  0  1  0  0  0  0  0  0
  193.9030  176.5250  145.0830 N   0  0  0  0  0  2  0  0  0  0  0  0
  1  4  1  0  0  0  0
  1  5  1  0  0  0  0
  2 16  1  0  0  0  0
  2 19  1  0  0  0  0
  3 17  1  0  0  0  0
  3 10  1  0  0  0  0
  4 12  1  0  0  0  0
  5 11  1  0  0  0  0
  7 27  1  0  0  0  0
  7 15  1  1  0  0  0
  8  6  2  0  0  0  0
  9 14  1  1  0  0  0
  9  7  1  0  0  0  0
 10 21  1  6  0  0  0
 10 22  1  0  0  0  0
 11 28  1  6  0  0  0
 11  8  1  0  0  0  0
 12  8  1  0  0  0  0
 12 27  1  0  0  0  0
 13  2  2  0  0  0  0
 14 23  1  0  0  0  0
 17 20  1  0  0  0  0
 18 25  2  0  0  0  0
 18 13  1  0  0  0  0
 19  1  2  0  0  0  0
 20  4  2  0  0  0  0
 22 20  1  6  0  0  0
 22  9  1  0  0  0  0
 23 15  1  0  0  0  0
 25 26  1  0  0  0  0
 26 17  2  0  0  0  0
 26 19  1  0  0  0  0
 27 24  2  0  0  0  0
 28 30  1  0  0  0  0
 30 29  1  0  0  0  0
M  END
>  <MODEL>
2

>  <REMARK>
 VINA RESULT:      -8.6      2.380      4.844
  Name = 
  2 active torsions:
  status: ('A' for Active; 'I' for Inactive)
    1  A    between atoms: C_11  and  C_28
    2  A    between atoms: C_28  and  N_30
                            x       y       z     vdW  Elec       q    Type
                         _______ _______ _______ _____ _____    ______ ____

>  <TORSDO>
F 2

$$$$
=
 OpenBabel11112416253D

 30 35  0  0  1  0  0  0  0  0999 V2000
  187.4000  176.4250  144.2560 C   0  0  0  0  0  0  0  0  0  0  0  0
  185.8160  177.7870  145.6030 C   0  0  0  0  0  0  0  0  0  0  0  0
  190.2950  176.6030  147.2810 N   0  0  0  0  0  2  0  0  0  0  0  0
  188.6360  175.7410  144.1480 C   0  0  0  0  0  0  0  0  0  0  0  0
  186.5060  176.3950  143.1400 N   0  0  0  0  0  2  0  0  0  0  0  0
  188.2070  174.3210  140.8130 O   0  0  0  0  0  0  0  0  0  0  0  0
  191.0660  173.7380  143.5460 C   0  0  1  0  0  3  0  0  0  0  0  0
  188.0290  175.0430  141.8320 C   0  0  0  0  0  0  0  0  0  0  0  0
  191.1650  173.9650  145.0280 C   0  0  1  0  0  3  0  0  0  0  0  0
  191.4110  175.8510  146.7230 C   0  0  2  0  0  3  0  0  0  0  0  0
  186.9720  176.0980  141.7910 C   0  0  2  0  0  3  0  0  0  0  0  0
  188.8630  174.8820  143.0000 N   0  0  0  0  0  0  0  0  0  0  0  0
  185.5330  178.4750  146.7860 C   0  0  0  0  0  3  0  0  0  0  0  0
  192.5500  173.4600  145.3830 C   0  0  0  0  0  2  0  0  0  0  0  0
  191.8470  172.4670  143.2680 C   0  0  0  0  0  2  0  0  0  0  0  0
  184.8680  177.7710  144.6340 F   0  0  0  0  0  0  0  0  0  0  0  0
  189.2370  176.5690  146.3450 C   0  0  0  0  0  0  0  0  0  0  0  0
  186.4680  178.5270  147.8190 C   0  0  0  0  0  3  0  0  0  0  0  0
  187.0590  177.1300  145.4420 C   0  0  0  0  0  0  0  0  0  0  0  0
  189.5590  175.8740  145.2100 C   0  0  0  0  0  0  0  0  0  0  0  0
  192.6470  176.7280  146.6800 C   0  0  0  0  0  1  0  0  0  0  0  0
  190.9980  175.4560  145.2890 C   0  0  2  0  0  3  0  0  0  0  0  0
  192.8510  172.3410  144.4020 C   0  0  0  0  0  2  0  0  0  0  0  0
  189.0970  172.5600  142.8700 O   0  0  0  0  0  0  0  0  0  0  0  0
  187.7000  177.8900  147.6780 C   0  0  0  0  0  3  0  0  0  0  0  0
  188.0010  177.1920  146.5030 C   0  0  0  0  0  0  0  0  0  0  0  0
  189.6370  173.6740  143.1180 C   0  0  0  0  0  0  0  0  0  0  0  0
  187.5350  177.3580  141.1450 C   0  0  0  0  0  2  0  0  0  0  0  0
  185.4630  178.0990  140.3530 C   0  0  0  0  0  1  0  0  0  0  0  0
  186.7910  177.6810  139.9380 N   0  0  0  0  0  2  0  0  0  0  0  0
  1 19  1  0  0  0  0
  2 13  1  0  0  0  0
  4  1  2  0  0  0  0
  4 20  1  0  0  0  0
  5  1  1  0  0  0  0
  6  8  2  0  0  0  0
  7 15  1  1  0  0  0
  7  9  1  0  0  0  0
  8 12  1  0  0  0  0
  9 22  1  0  0  0  0
  9 14  1  6  0  0  0
 10 21  1  6  0  0  0
 10  3  1  0  0  0  0
 11 28  1  1  0  0  0
 11  8  1  0  0  0  0
 11  5  1  0  0  0  0
 12 27  1  0  0  0  0
 12  4  1  0  0  0  0
 13 18  2  0  0  0  0
 15 23  1  0  0  0  0
 16  2  1  0  0  0  0
 17 26  1  0  0  0  0
 17  3  1  0  0  0  0
 19  2  2  0  0  0  0
 19 26  1  0  0  0  0
 20 17  2  0  0  0  0
 22 20  1  1  0  0  0
 22 10  1  0  0  0  0
 23 14  1  0  0  0  0
 24 27  2  0  0  0  0
 25 18  1  0  0  0  0
 26 25  2  0  0  0  0
 27  7  1  0  0  0  0
 30 29  1  0  0  0  0
 30 28  1  0  0  0  0
M  END
>  <MODEL>
3

>  <REMARK>
 VINA RESULT:      -8.0      2.322      5.686
  Name = 
  2 active torsions:
  status: ('A' for Active; 'I' for Inactive)
    1  A    between atoms: C_11  and  C_28
    2  A    between atoms: C_28  and  N_30
                            x       y       z     vdW  Elec       q    Type
                         _______ _______ _______ _____ _____    ______ ____

>  <TORSDO>
F 2

$$$$
=
 OpenBabel11112416253D

 30 35  0  0  1  0  0  0  0  0999 V2000
  187.8570  177.2460  143.9040 C   0  0  0  0  0  0  0  0  0  0  0  0
  186.2890  178.3580  142.3280 C   0  0  0  0  0  0  0  0  0  0  0  0
  189.0090  174.4770  140.9770 N   0  0  0  0  0  2  0  0  0  0  0  0
  188.8610  176.2760  144.1470 C   0  0  0  0  0  0  0  0  0  0  0  0
  187.4510  178.0920  144.9850 N   0  0  0  0  0  2  0  0  0  0  0  0
  189.5830  177.0730  147.6360 O   0  0  0  0  0  0  0  0  0  0  0  0
  191.3970  174.5660  145.1050 C   0  0  1  0  0  3  0  0  0  0  0  0
  188.9970  177.0360  146.5190 C   0  0  0  0  0  0  0  0  0  0  0  0
  191.4290  174.4230  143.6100 C   0  0  1  0  0  3  0  0  0  0  0  0
  189.9750  173.6360  141.6720 C   0  0  2  0  0  3  0  0  0  0  0  0
  187.6760  177.7200  146.3760 C   0  0  2  0  0  3  0  0  0  0  0  0
  189.5720  176.3070  145.4130 N   0  0  0  0  0  0  0  0  0  0  0  0
  185.7270  178.4340  141.0500 C   0  0  0  0  0  3  0  0  0  0  0  0
  192.3770  173.2620  143.3750 C   0  0  0  0  0  2  0  0  0  0  0  0
  192.7910  174.2060  145.5860 C   0  0  0  0  0  2  0  0  0  0  0  0
  185.8760  179.2520  143.2590 F   0  0  0  0  0  0  0  0  0  0  0  0
  188.5830  175.4820  141.8750 C   0  0  0  0  0  0  0  0  0  0  0  0
  186.1130  177.5410  140.0500 C   0  0  0  0  0  3  0  0  0  0  0  0
  187.2620  177.3720  142.6200 C   0  0  0  0  0  0  0  0  0  0  0  0
  189.1710  175.3710  143.1070 C   0  0  0  0  0  0  0  0  0  0  0  0
  189.5180  172.1910  141.6280 C   0  0  0  0  0  1  0  0  0  0  0  0
  190.0130  174.1300  143.1340 C   0  0  2  0  0  3  0  0  0  0  0  0
  193.3800  173.3040  144.5150 C   0  0  0  0  0  2  0  0  0  0  0  0
  191.8100  176.7910  145.8800 O   0  0  0  0  0  0  0  0  0  0  0  0
  187.0660  176.5610  140.3190 C   0  0  0  0  0  3  0  0  0  0  0  0
  187.6440  176.4710  141.5910 C   0  0  0  0  0  0  0  0  0  0  0  0
  190.9610  175.9400  145.4930 C   0  0  0  0  0  0  0  0  0  0  0  0
  186.5670  176.7910  146.8530 C   0  0  0  0  0  2  0  0  0  0  0  0
  184.8200  178.2910  147.2590 C   0  0  0  0  0  1  0  0  0  0  0  0
  185.2780  177.2480  146.3580 N   0  0  0  0  0  2  0  0  0  0  0  0
  1  4  1  0  0  0  0
  1  5  1  0  0  0  0
  2 19  1  0  0  0  0
  2 16  1  0  0  0  0
  3 10  1  0  0  0  0
  3 17  1  0  0  0  0
  4 12  1  0  0  0  0
  5 11  1  0  0  0  0
  7 27  1  0  0  0  0
  7 15  1  6  0  0  0
  8  6  2  0  0  0  0
  9 14  1  1  0  0  0
  9  7  1  0  0  0  0
 10 21  1  1  0  0  0
 10 22  1  0  0  0  0
 11  8  1  0  0  0  0
 11 28  1  6  0  0  0
 12 27  1  0  0  0  0
 12  8  1  0  0  0  0
 13  2  2  0  0  0  0
 14 23  1  0  0  0  0
 17 20  1  0  0  0  0
 18 25  2  0  0  0  0
 18 13  1  0  0  0  0
 19  1  2  0  0  0  0
 20  4  2  0  0  0  0
 22 20  1  6  0  0  0
 22  9  1  0  0  0  0
 23 15  1  0  0  0  0
 25 26  1  0  0  0  0
 26 17  2  0  0  0  0
 26 19  1  0  0  0  0
 27 24  2  0  0  0  0
 30 28  1  0  0  0  0
 30 29  1  0  0  0  0
M  END
>  <MODEL>
4

>  <REMARK>
 VINA RESULT:      -7.7      2.824      6.907
  Name = 
  2 active torsions:
  status: ('A' for Active; 'I' for Inactive)
    1  A    between atoms: C_11  and  C_28
    2  A    between atoms: C_28  and  N_30
                            x       y       z     vdW  Elec       q    Type
                         _______ _______ _______ _____ _____    ______ ____

>  <TORSDO>
F 2

$$$$
=
 OpenBabel11112416253D

 30 35  0  0  1  0  0  0  0  0999 V2000
  192.1990  175.0970  142.5100 C   0  0  0  0  0  0  0  0  0  0  0  0
  194.6530  175.1710  142.1190 C   0  0  0  0  0  0  0  0  0  0  0  0
  192.6750  176.4750  146.4400 N   0  0  0  0  0  2  0  0  0  0  0  0
  191.0880  175.3600  143.3490 C   0  0  0  0  0  0  0  0  0  0  0  0
  191.9580  174.5370  141.2160 N   0  0  0  0  0  2  0  0  0  0  0  0
  188.4140  174.3530  141.0770 O   0  0  0  0  0  0  0  0  0  0  0  0
  188.2630  176.1210  144.6600 C   0  0  1  0  0  3  0  0  0  0  0  0
  189.5650  174.4900  141.5760 C   0  0  0  0  0  0  0  0  0  0  0  0
  189.2490  176.8860  145.4960 C   0  0  1  0  0  3  0  0  0  0  0  0
  191.3100  176.5170  146.9480 C   0  0  2  0  0  3  0  0  0  0  0  0
  190.7240  173.8260  140.9060 C   0  0  2  0  0  3  0  0  0  0  0  0
  189.7510  175.2360  142.7980 N   0  0  0  0  0  0  0  0  0  0  0  0
  195.9360  175.4540  142.5980 C   0  0  0  0  0  3  0  0  0  0  0  0
  188.4530  177.2880  146.7220 C   0  0  0  0  0  2  0  0  0  0  0  0
  186.9180  176.7830  144.8940 C   0  0  0  0  0  2  0  0  0  0  0  0
  194.5370  174.7020  140.8520 F   0  0  0  0  0  0  0  0  0  0  0  0
  192.6220  176.0560  145.0900 C   0  0  0  0  0  0  0  0  0  0  0  0
  196.1190  175.9390  143.8930 C   0  0  0  0  0  3  0  0  0  0  0  0
  193.5230  175.3780  142.9450 C   0  0  0  0  0  0  0  0  0  0  0  0
  191.3450  175.8040  144.6660 C   0  0  0  0  0  0  0  0  0  0  0  0
  191.1990  175.6460  148.1840 C   0  0  0  0  0  1  0  0  0  0  0  0
  190.4080  175.9560  145.8280 C   0  0  2  0  0  3  0  0  0  0  0  0
  187.0180  177.4570  146.2520 C   0  0  0  0  0  2  0  0  0  0  0  0
  188.1260  176.8660  142.3910 O   0  0  0  0  0  0  0  0  0  0  0  0
  195.0190  176.1450  144.7230 C   0  0  0  0  0  3  0  0  0  0  0  0
  193.7270  175.8720  144.2610 C   0  0  0  0  0  0  0  0  0  0  0  0
  188.6880  176.1060  143.2280 C   0  0  0  0  0  0  0  0  0  0  0  0
  190.8230  172.3800  141.3750 C   0  0  0  0  0  2  0  0  0  0  0  0
  190.7170  171.8360  139.1030 C   0  0  0  0  0  1  0  0  0  0  0  0
  190.1900  171.4930  140.4120 N   0  0  0  0  0  2  0  0  0  0  0  0
  1 19  2  0  0  0  0
  1  4  1  0  0  0  0
  2 13  2  0  0  0  0
  2 19  1  0  0  0  0
  3 10  1  0  0  0  0
  4 20  2  0  0  0  0
  5  1  1  0  0  0  0
  6  8  2  0  0  0  0
  7 15  1  6  0  0  0
  7  9  1  0  0  0  0
  8 12  1  0  0  0  0
  9 22  1  0  0  0  0
  9 14  1  1  0  0  0
 10 21  1  1  0  0  0
 11  5  1  0  0  0  0
 11 28  1  1  0  0  0
 11  8  1  0  0  0  0
 12 27  1  0  0  0  0
 12  4  1  0  0  0  0
 13 18  1  0  0  0  0
 15 23  1  0  0  0  0
 16  2  1  0  0  0  0
 17  3  1  0  0  0  0
 18 25  2  0  0  0  0
 19 26  1  0  0  0  0
 20 17  1  0  0  0  0
 22 20  1  6  0  0  0
 22 10  1  0  0  0  0
 23 14  1  0  0  0  0
 24 27  2  0  0  0  0
 26 25  1  0  0  0  0
 26 17  2  0  0  0  0
 27  7  1  0  0  0  0
 29 30  1  0  0  0  0
 30 28  1  0  0  0  0
M  END
>  <MODEL>
5

>  <REMARK>
 VINA RESULT:      -7.2      2.219      3.574
  Name = 
  2 active torsions:
  status: ('A' for Active; 'I' for Inactive)
    1  A    between atoms: C_11  and  C_28
    2  A    between atoms: C_28  and  N_30
                            x       y       z     vdW  Elec       q    Type
                         _______ _______ _______ _____ _____    ______ ____

>  <TORSDO>
F 2

$$$$
=
 OpenBabel11112416253D

 30 35  0  0  1  0  0  0  0  0999 V2000
  189.0760  174.5500  143.0970 C   0  0  0  0  0  0  0  0  0  0  0  0
  187.1610  176.0760  143.5300 C   0  0  0  0  0  0  0  0  0  0  0  0
  191.5340  176.7170  145.7100 N   0  0  0  0  0  2  0  0  0  0  0  0
  190.4020  174.1440  143.3840 C   0  0  0  0  0  0  0  0  0  0  0  0
  188.3340  173.8140  142.1200 N   0  0  0  0  0  2  0  0  0  0  0  0
  190.5840  171.2240  141.2000 O   0  0  0  0  0  0  0  0  0  0  0  0
  193.1520  172.5930  143.9410 C   0  0  1  0  0  3  0  0  0  0  0  0
  190.1830  172.3050  141.7130 C   0  0  0  0  0  0  0  0  0  0  0  0
  193.0400  173.5280  145.1120 C   0  0  1  0  0  3  0  0  0  0  0  0
  192.8060  176.0100  145.6390 C   0  0  2  0  0  3  0  0  0  0  0  0
  188.9950  172.9880  141.1170 C   0  0  2  0  0  3  0  0  0  0  0  0
  190.8860  172.8930  142.8290 N   0  0  0  0  0  0  0  0  0  0  0  0
  186.6420  177.1880  144.2000 C   0  0  0  0  0  3  0  0  0  0  0  0
  194.4320  173.5280  145.7130 C   0  0  0  0  0  2  0  0  0  0  0  0
  194.1370  171.5180  144.3620 C   0  0  0  0  0  2  0  0  0  0  0  0
  186.3470  175.4120  142.6720 F   0  0  0  0  0  0  0  0  0  0  0  0
  190.6110  176.0340  144.8860 C   0  0  0  0  0  0  0  0  0  0  0  0
  187.4310  177.9100  145.0950 C   0  0  0  0  0  3  0  0  0  0  0  0
  188.4970  175.6680  143.7580 C   0  0  0  0  0  0  0  0  0  0  0  0
  191.1630  174.9470  144.2630 C   0  0  0  0  0  0  0  0  0  0  0  0
  193.8960  176.9660  145.1990 C   0  0  0  0  0  1  0  0  0  0  0  0
  192.6280  174.8960  144.5840 C   0  0  2  0  0  3  0  0  0  0  0  0
  195.0070  172.1500  145.4360 C   0  0  0  0  0  2  0  0  0  0  0  0
  191.4700  170.8930  143.8890 O   0  0  0  0  0  0  0  0  0  0  0  0
  188.7500  177.5270  145.3300 C   0  0  0  0  0  3  0  0  0  0  0  0
  189.2870  176.4140  144.6730 C   0  0  0  0  0  0  0  0  0  0  0  0
  191.8090  172.0640  143.5600 C   0  0  0  0  0  0  0  0  0  0  0  0
  189.4410  173.8520  139.9430 C   0  0  0  0  0  2  0  0  0  0  0  0
  188.7570  173.9110  137.7080 C   0  0  0  0  0  1  0  0  0  0  0  0
  188.3130  174.1410  139.0720 N   0  0  0  0  0  2  0  0  0  0  0  0
  1  4  2  0  0  0  0
  1 19  1  0  0  0  0
  2 19  2  0  0  0  0
  2 13  1  0  0  0  0
  4 20  1  0  0  0  0
  5  1  1  0  0  0  0
  6  8  2  0  0  0  0
  7 15  1  1  0  0  0
  7  9  1  0  0  0  0
  8 12  1  0  0  0  0
  9 14  1  6  0  0  0
 10 21  1  6  0  0  0
 10  3  1  0  0  0  0
 11 28  1  6  0  0  0
 11  8  1  0  0  0  0
 11  5  1  0  0  0  0
 12  4  1  0  0  0  0
 12 27  1  0  0  0  0
 13 18  2  0  0  0  0
 15 23  1  0  0  0  0
 16  2  1  0  0  0  0
 17  3  1  0  0  0  0
 18 25  1  0  0  0  0
 19 26  1  0  0  0  0
 20 17  2  0  0  0  0
 22 20  1  1  0  0  0
 22  9  1  0  0  0  0
 22 10  1  0  0  0  0
 23 14  1  0  0  0  0
 26 17  1  0  0  0  0
 26 25  2  0  0  0  0
 27 24  2  0  0  0  0
 27  7  1  0  0  0  0
 29 30  1  0  0  0  0
 30 28  1  0  0  0  0
M  END
>  <MODEL>
6

>  <REMARK>
 VINA RESULT:      -7.0      2.921      6.330
  Name = 
  2 active torsions:
  status: ('A' for Active; 'I' for Inactive)
    1  A    between atoms: C_11  and  C_28
    2  A    between atoms: C_28  and  N_30
                            x       y       z     vdW  Elec       q    Type
                         _______ _______ _______ _____ _____    ______ ____

>  <TORSDO>
F 2

$$$$
=
 OpenBabel11112416253D

 30 35  0  0  1  0  0  0  0  0999 V2000
  188.0520  175.7970  141.1870 C   0  0  0  0  0  0  0  0  0  0  0  0
  187.9360  174.7470  138.9360 C   0  0  0  0  0  0  0  0  0  0  0  0
  190.0570  172.4670  142.7550 N   0  0  0  0  0  2  0  0  0  0  0  0
  188.5100  175.7630  142.5280 C   0  0  0  0  0  0  0  0  0  0  0  0
  187.2910  176.9290  140.7550 N   0  0  0  0  0  2  0  0  0  0  0  0
  187.2620  179.0120  143.6310 O   0  0  0  0  0  0  0  0  0  0  0  0
  189.6220  176.3630  145.4740 C   0  0  1  0  0  3  0  0  0  0  0  0
  187.4250  177.9720  142.9350 C   0  0  0  0  0  0  0  0  0  0  0  0
  190.4700  175.2110  145.0120 C   0  0  1  0  0  3  0  0  0  0  0  0
  190.2540  172.8220  144.1550 C   0  0  2  0  0  3  0  0  0  0  0  0
  186.5990  177.7940  141.7020 C   0  0  2  0  0  3  0  0  0  0  0  0
  188.3590  176.9520  143.3480 N   0  0  0  0  0  0  0  0  0  0  0  0
  188.2340  173.6660  138.1000 C   0  0  0  0  0  3  0  0  0  0  0  0
  191.1150  174.7000  146.2860 C   0  0  0  0  0  2  0  0  0  0  0  0
  190.3810  177.0020  146.6220 C   0  0  0  0  0  2  0  0  0  0  0  0
  187.2640  175.7980  138.4040 F   0  0  0  0  0  0  0  0  0  0  0  0
  189.4170  173.5540  142.1180 C   0  0  0  0  0  0  0  0  0  0  0  0
  188.9230  172.5580  138.5910 C   0  0  0  0  0  3  0  0  0  0  0  0
  188.3370  174.7280  140.2930 C   0  0  0  0  0  0  0  0  0  0  0  0
  189.1590  174.5910  142.9750 C   0  0  0  0  0  0  0  0  0  0  0  0
  189.6140  171.7720  145.0420 C   0  0  0  0  0  1  0  0  0  0  0  0
  189.5540  174.1820  144.3630 C   0  0  2  0  0  3  0  0  0  0  0  0
  191.2710  175.9100  147.1910 C   0  0  0  0  0  2  0  0  0  0  0  0
  189.9740  178.3850  144.2440 O   0  0  0  0  0  0  0  0  0  0  0  0
  189.3230  172.5190  139.9250 C   0  0  0  0  0  3  0  0  0  0  0  0
  189.0390  173.5920  140.7770 C   0  0  0  0  0  0  0  0  0  0  0  0
  189.3410  177.2960  144.3420 C   0  0  0  0  0  0  0  0  0  0  0  0
  185.2520  177.1890  142.0740 C   0  0  0  0  0  2  0  0  0  0  0  0
  183.9250  178.3470  140.5360 C   0  0  0  0  0  1  0  0  0  0  0  0
  184.2000  178.1860  141.9540 N   0  0  0  0  0  2  0  0  0  0  0  0
  1  4  1  0  0  0  0
  2 19  1  0  0  0  0
  3 10  1  0  0  0  0
  4 20  2  0  0  0  0
  4 12  1  0  0  0  0
  5  1  1  0  0  0  0
  5 11  1  0  0  0  0
  7 15  1  1  0  0  0
  8 12  1  0  0  0  0
  8  6  2  0  0  0  0
  9  7  1  0  0  0  0
  9 14  1  1  0  0  0
 10 22  1  0  0  0  0
 10 21  1  1  0  0  0
 11 28  1  1  0  0  0
 11  8  1  0  0  0  0
 12 27  1  0  0  0  0
 13 18  1  0  0  0  0
 13  2  2  0  0  0  0
 14 23  1  0  0  0  0
 15 23  1  0  0  0  0
 16  2  1  0  0  0  0
 17  3  1  0  0  0  0
 17 20  1  0  0  0  0
 18 25  2  0  0  0  0
 19 26  1  0  0  0  0
 19  1  2  0  0  0  0
 22 20  1  6  0  0  0
 22  9  1  0  0  0  0
 24 27  2  0  0  0  0
 25 26  1  0  0  0  0
 26 17  2  0  0  0  0
 27  7  1  0  0  0  0
 29 30  1  0  0  0  0
 30 28  1  0  0  0  0
M  END
>  <MODEL>
7

>  <REMARK>
 VINA RESULT:      -7.0      2.578      6.287
  Name = 
  2 active torsions:
  status: ('A' for Active; 'I' for Inactive)
    1  A    between atoms: C_11  and  C_28
    2  A    between atoms: C_28  and  N_30
                            x       y       z     vdW  Elec       q    Type
                         _______ _______ _______ _____ _____    ______ ____

>  <TORSDO>
F 2

$$$$
=
 OpenBabel11112416253D

 30 35  0  0  1  0  0  0  0  0999 V2000
  187.5080  176.8490  141.8860 C   0  0  0  0  0  0  0  0  0  0  0  0
  186.7110  176.9720  139.5340 C   0  0  0  0  0  0  0  0  0  0  0  0
  189.5830  173.2910  141.1120 N   0  0  0  0  0  2  0  0  0  0  0  0
  188.3020  176.2180  142.8740 C   0  0  0  0  0  0  0  0  0  0  0  0
  186.7530  178.0070  142.2560 N   0  0  0  0  0  2  0  0  0  0  0  0
  187.6600  178.4950  145.6540 O   0  0  0  0  0  0  0  0  0  0  0  0
  190.2050  175.4290  145.3310 C   0  0  1  0  0  3  0  0  0  0  0  0
  187.5470  177.9140  144.5410 C   0  0  0  0  0  0  0  0  0  0  0  0
  190.8030  174.6770  144.1750 C   0  0  1  0  0  3  0  0  0  0  0  0
  190.1740  172.9590  142.4020 C   0  0  2  0  0  3  0  0  0  0  0  0
  186.4110  178.2890  143.6440 C   0  0  2  0  0  3  0  0  0  0  0  0
  188.4720  176.8730  144.1590 N   0  0  0  0  0  0  0  0  0  0  0  0
  186.6870  176.4270  138.2460 C   0  0  0  0  0  3  0  0  0  0  0  0
  191.7210  173.6650  144.8350 C   0  0  0  0  0  2  0  0  0  0  0  0
  191.2910  175.4970  146.3880 C   0  0  0  0  0  2  0  0  0  0  0  0
  186.0090  178.1100  139.7570 F   0  0  0  0  0  0  0  0  0  0  0  0
  188.8860  174.5130  141.2550 C   0  0  0  0  0  0  0  0  0  0  0  0
  187.3910  175.2590  137.9560 C   0  0  0  0  0  3  0  0  0  0  0  0
  187.4570  176.3420  140.5590 C   0  0  0  0  0  0  0  0  0  0  0  0
  188.9510  175.0110  142.5290 C   0  0  0  0  0  0  0  0  0  0  0  0
  189.7110  171.5830  142.8360 C   0  0  0  0  0  1  0  0  0  0  0  0
  189.6670  174.0220  143.4010 C   0  0  2  0  0  3  0  0  0  0  0  0
  192.2100  174.3170  146.1160 C   0  0  0  0  0  2  0  0  0  0  0  0
  190.3780  177.8070  145.1390 O   0  0  0  0  0  0  0  0  0  0  0  0
  188.1270  174.6210  138.9530 C   0  0  0  0  0  3  0  0  0  0  0  0
  188.1680  175.1530  140.2470 C   0  0  0  0  0  0  0  0  0  0  0  0
  189.7090  176.7660  144.8880 C   0  0  0  0  0  0  0  0  0  0  0  0
  185.1680  177.5050  144.0440 C   0  0  0  0  0  2  0  0  0  0  0  0
  184.0860  178.6590  145.7660 C   0  0  0  0  0  1  0  0  0  0  0  0
  184.0700  178.4140  144.3340 N   0  0  0  0  0  2  0  0  0  0  0  0
  1  5  1  0  0  0  0
  1  4  1  0  0  0  0
  2 16  1  0  0  0  0
  2 19  1  0  0  0  0
  3 17  1  0  0  0  0
  3 10  1  0  0  0  0
  4 12  1  0  0  0  0
  5 11  1  0  0  0  0
  7 15  1  1  0  0  0
  8  6  2  0  0  0  0
  9 14  1  1  0  0  0
  9  7  1  0  0  0  0
 10 21  1  1  0  0  0
 10 22  1  0  0  0  0
 11 28  1  1  0  0  0
 11  8  1  0  0  0  0
 12  8  1  0  0  0  0
 12 27  1  0  0  0  0
 13  2  2  0  0  0  0
 14 23  1  0  0  0  0
 17 20  1  0  0  0  0
 18 13  1  0  0  0  0
 18 25  2  0  0  0  0
 19  1  2  0  0  0  0
 20  4  2  0  0  0  0
 22 20  1  6  0  0  0
 22  9  1  0  0  0  0
 23 15  1  0  0  0  0
 25 26  1  0  0  0  0
 26 19  1  0  0  0  0
 26 17  2  0  0  0  0
 27 24  2  0  0  0  0
 27  7  1  0  0  0  0
 28 30  1  0  0  0  0
 30 29  1  0  0  0  0
M  END
>  <MODEL>
8

>  <REMARK>
 VINA RESULT:      -6.9      2.777      6.819
  Name = 
  2 active torsions:
  status: ('A' for Active; 'I' for Inactive)
    1  A    between atoms: C_11  and  C_28
    2  A    between atoms: C_28  and  N_30
                            x       y       z     vdW  Elec       q    Type
                         _______ _______ _______ _____ _____    ______ ____

>  <TORSDO>
F 2

$$$$
=
 OpenBabel11112416253D

 30 35  0  0  1  0  0  0  0  0999 V2000
  191.1480  174.8260  144.3580 C   0  0  0  0  0  0  0  0  0  0  0  0
  189.0580  174.8700  143.0130 C   0  0  0  0  0  0  0  0  0  0  0  0
  192.0050  170.9220  143.0970 N   0  0  0  0  0  2  0  0  0  0  0  0
  192.3390  174.1610  144.7410 C   0  0  0  0  0  0  0  0  0  0  0  0
  190.8820  176.1190  144.9090 N   0  0  0  0  0  2  0  0  0  0  0  0
  193.7620  176.7480  146.8890 O   0  0  0  0  0  0  0  0  0  0  0  0
  195.3020  173.2900  145.6020 C   0  0  1  0  0  3  0  0  0  0  0  0
  192.9300  176.0970  146.1990 C   0  0  0  0  0  0  0  0  0  0  0  0
  194.9800  172.3520  144.4730 C   0  0  1  0  0  3  0  0  0  0  0  0
  193.2510  170.6120  143.7860 C   0  0  2  0  0  3  0  0  0  0  0  0
  191.5140  176.5730  146.1410 C   0  0  2  0  0  3  0  0  0  0  0  0
  193.3290  174.8900  145.5150 N   0  0  0  0  0  0  0  0  0  0  0  0
  188.1870  174.2260  142.1280 C   0  0  0  0  0  3  0  0  0  0  0  0
  196.0320  171.2660  144.5910 C   0  0  0  0  0  2  0  0  0  0  0  0
  196.8130  173.2710  145.7390 C   0  0  0  0  0  2  0  0  0  0  0  0
  188.7380  176.1230  143.4210 F   0  0  0  0  0  0  0  0  0  0  0  0
  191.6450  172.2490  143.4260 C   0  0  0  0  0  0  0  0  0  0  0  0
  188.4630  172.9370  141.6730 C   0  0  0  0  0  3  0  0  0  0  0  0
  190.2350  174.2190  143.4530 C   0  0  0  0  0  0  0  0  0  0  0  0
  192.5350  172.8390  144.2830 C   0  0  0  0  0  0  0  0  0  0  0  0
  193.0680  169.3730  144.6390 C   0  0  0  0  0  1  0  0  0  0  0  0
  193.5670  171.8270  144.6850 C   0  0  2  0  0  3  0  0  0  0  0  0
  197.2660  171.9380  145.1680 C   0  0  0  0  0  2  0  0  0  0  0  0
  195.4870  175.5810  144.9420 O   0  0  0  0  0  0  0  0  0  0  0  0
  189.6150  172.2780  142.0980 C   0  0  0  0  0  3  0  0  0  0  0  0
  190.5010  172.9070  142.9790 C   0  0  0  0  0  0  0  0  0  0  0  0
  194.7360  174.6460  145.3370 C   0  0  0  0  0  0  0  0  0  0  0  0
  190.7490  176.0410  147.3460 C   0  0  0  0  0  2  0  0  0  0  0  0
  188.9420  174.5580  147.3100 C   0  0  0  0  0  1  0  0  0  0  0  0
  189.3330  175.9300  147.0350 N   0  0  0  0  0  2  0  0  0  0  0  0
  1  4  1  0  0  0  0
  1  5  1  0  0  0  0
  2 16  1  0  0  0  0
  2 19  1  0  0  0  0
  3 17  1  0  0  0  0
  3 10  1  0  0  0  0
  4 12  1  0  0  0  0
  5 11  1  0  0  0  0
  7 15  1  6  0  0  0
  8  6  2  0  0  0  0
  9 14  1  1  0  0  0
  9 22  1  0  0  0  0
  9  7  1  0  0  0  0
 10 21  1  1  0  0  0
 10 22  1  0  0  0  0
 11  8  1  0  0  0  0
 11 28  1  1  0  0  0
 12  8  1  0  0  0  0
 13  2  2  0  0  0  0
 14 23  1  0  0  0  0
 17 20  1  0  0  0  0
 18 25  2  0  0  0  0
 18 13  1  0  0  0  0
 19  1  2  0  0  0  0
 20  4  2  0  0  0  0
 22 20  1  6  0  0  0
 23 15  1  0  0  0  0
 24 27  2  0  0  0  0
 25 26  1  0  0  0  0
 26 17  2  0  0  0  0
 26 19  1  0  0  0  0
 27 12  1  0  0  0  0
 27  7  1  0  0  0  0
 30 29  1  0  0  0  0
 30 28  1  0  0  0  0
M  END
>  <MODEL>
9

>  <REMARK>
 VINA RESULT:      -6.9      3.828      8.026
  Name = 
  2 active torsions:
  status: ('A' for Active; 'I' for Inactive)
    1  A    between atoms: C_11  and  C_28
    2  A    between atoms: C_28  and  N_30
                            x       y       z     vdW  Elec       q    Type
                         _______ _______ _______ _____ _____    ______ ____

>  <TORSDO>
F 2

$$$$
