=
 OpenBabel11112416153D

 30 35  0  0  1  0  0  0  0  0999 V2000
  187.7900  176.5050  145.8660 C   0  0  0  0  0  0  0  0  0  0  0  0
  186.0610  177.6990  147.2190 C   0  0  0  0  0  0  0  0  0  0  0  0
  185.6800  177.2430  142.2360 C   0  0  0  0  0  2  0  0  0  0  0  0
  188.2360  176.0360  144.5990 C   0  0  0  0  0  0  0  0  0  0  0  0
  188.6250  176.1910  147.0790 C   0  0  0  0  0  2  0  0  0  0  0  0
  191.7260  175.3920  145.3880 O   0  0  0  0  0  0  0  0  0  0  0  0
  189.0130  173.8290  142.6200 C   0  0  1  0  0  3  0  0  0  0  0  0
  190.5080  175.6910  145.5330 C   0  0  0  0  0  0  0  0  0  0  0  0
  187.9910  174.5240  141.7440 C   0  0  2  0  0  3  0  0  0  0  0  0
  186.7290  176.6430  141.2890 C   0  0  1  0  0  3  0  0  0  0  0  0
  190.0470  176.2380  146.7730 N   0  0  0  0  0  0  0  0  0  0  0  0
  189.5670  175.4810  144.4650 N   0  0  0  0  0  0  0  0  0  0  0  0
  184.8650  178.4200  147.2660 C   0  0  0  0  0  3  0  0  0  0  0  0
  188.6120  174.4430  140.3880 C   0  0  0  0  0  2  0  0  0  0  0  0
  189.7180  172.8950  141.8350 O   0  0  0  0  0  0  0  0  0  0  0  0
  186.7120  177.4900  148.3890 F   0  0  0  0  0  0  0  0  0  0  0  0
  186.2710  177.0130  143.5800 C   0  0  0  0  0  0  0  0  0  0  0  0
  184.1440  178.6790  146.1020 C   0  0  0  0  0  3  0  0  0  0  0  0
  186.5590  177.2170  145.9810 C   0  0  0  0  0  0  0  0  0  0  0  0
  187.4140  176.2710  143.4780 C   0  0  0  0  0  0  0  0  0  0  0  0
  187.4480  177.7640  140.5600 C   0  0  0  0  0  1  0  0  0  0  0  0
  187.6810  175.9060  142.1250 N   0  0  0  0  0  0  0  0  0  0  0  0
  189.4300  173.1780  140.4830 C   0  0  0  0  0  2  0  0  0  0  0  0
  191.1070  174.9800  142.7740 O   0  0  0  0  0  0  0  0  0  0  0  0
  184.6130  178.2140  144.8760 C   0  0  0  0  0  3  0  0  0  0  0  0
  185.8060  177.4860  144.8050 C   0  0  0  0  0  0  0  0  0  0  0  0
  189.9680  174.7810  143.2780 C   0  0  0  0  0  0  0  0  0  0  0  0
  190.9740  176.5680  147.8460 C   0  0  0  0  0  2  0  0  0  0  0  0
  191.4280  178.1500  149.6920 C   0  0  0  0  0  1  0  0  0  0  0  0
  190.6390  177.9320  148.4200 C   0  0  0  0  0  2  0  0  0  0  0  0
  1 19  1  0  0  0  0
  1  5  1  0  0  0  0
  2 13  1  0  0  0  0
  2 16  1  0  0  0  0
  3 17  1  0  0  0  0
  4  1  2  0  0  0  0
  6  8  2  0  0  0  0
  7 15  1  6  0  0  0
  7 27  1  0  0  0  0
  8 11  1  0  0  0  0
  9 14  1  6  0  0  0
  9 22  1  0  0  0  0
  9  7  1  0  0  0  0
 10 21  1  1  0  0  0
 10 22  1  0  0  0  0
 10  3  1  0  0  0  0
 11  5  1  0  0  0  0
 11 28  1  0  0  0  0
 12  4  1  0  0  0  0
 12  8  1  0  0  0  0
 14 23  1  0  0  0  0
 17 26  1  0  0  0  0
 18 13  2  0  0  0  0
 19  2  2  0  0  0  0
 20 17  2  0  0  0  0
 20  4  1  0  0  0  0
 22 20  1  0  0  0  0
 23 15  1  0  0  0  0
 24 27  2  0  0  0  0
 25 18  1  0  0  0  0
 26 25  2  0  0  0  0
 26 19  1  0  0  0  0
 27 12  1  0  0  0  0
 28 30  1  0  0  0  0
 30 29  1  0  0  0  0
M  END
>  <MODEL>
1

>  <REMARK>
 VINA RESULT:      -8.7      0.000      0.000
  Name = 
  2 active torsions:
  status: ('A' for Active; 'I' for Inactive)
    1  A    between atoms: N_11  and  C_28
    2  A    between atoms: C_28  and  C_30
                            x       y       z     vdW  Elec       q    Type
                         _______ _______ _______ _____ _____    ______ ____

>  <TORSDO>
F 2

$$$$
=
 OpenBabel11112416153D

 30 35  0  0  1  0  0  0  0  0999 V2000
  188.6930  176.0300  143.1710 C   0  0  0  0  0  0  0  0  0  0  0  0
  186.3630  176.8800  143.4770 C   0  0  0  0  0  0  0  0  0  0  0  0
  189.8080  177.2180  147.1100 C   0  0  0  0  0  2  0  0  0  0  0  0
  190.0050  175.8570  143.6910 C   0  0  0  0  0  0  0  0  0  0  0  0
  188.4140  175.5620  141.7670 C   0  0  0  0  0  2  0  0  0  0  0  0
  191.2440  173.3350  141.3840 O   0  0  0  0  0  0  0  0  0  0  0  0
  193.0330  176.3290  143.6860 C   0  0  1  0  0  3  0  0  0  0  0  0
  190.4850  174.1940  141.9150 C   0  0  0  0  0  0  0  0  0  0  0  0
  192.7730  176.7610  145.1150 C   0  0  2  0  0  3  0  0  0  0  0  0
  191.2260  176.6280  147.0850 C   0  0  1  0  0  3  0  0  0  0  0  0
  189.1350  174.3350  141.4610 N   0  0  0  0  0  0  0  0  0  0  0  0
  190.9640  175.0450  142.9720 N   0  0  0  0  0  0  0  0  0  0  0  0
  185.4060  177.4840  144.2980 C   0  0  0  0  0  3  0  0  0  0  0  0
  193.9620  176.2230  145.8410 C   0  0  0  0  0  2  0  0  0  0  0  0
  194.4250  176.2190  143.4960 O   0  0  0  0  0  0  0  0  0  0  0  0
  185.9730  176.5050  142.2340 F   0  0  0  0  0  0  0  0  0  0  0  0
  189.2940  176.9130  145.7500 C   0  0  0  0  0  0  0  0  0  0  0  0
  185.7330  177.8890  145.5910 C   0  0  0  0  0  3  0  0  0  0  0  0
  187.6840  176.6710  143.9490 C   0  0  0  0  0  0  0  0  0  0  0  0
  190.2790  176.3620  144.9800 C   0  0  0  0  0  0  0  0  0  0  0  0
  191.2670  175.3790  147.9460 C   0  0  0  0  0  1  0  0  0  0  0  0
  191.5130  176.2770  145.6910 N   0  0  0  0  0  0  0  0  0  0  0  0
  195.0280  176.2410  144.7720 C   0  0  0  0  0  2  0  0  0  0  0  0
  193.0000  173.9570  143.3620 O   0  0  0  0  0  0  0  0  0  0  0  0
  187.0240  177.6970  146.0750 C   0  0  0  0  0  3  0  0  0  0  0  0
  187.9990  177.0970  145.2690 C   0  0  0  0  0  0  0  0  0  0  0  0
  192.3550  175.0400  143.3270 C   0  0  0  0  0  0  0  0  0  0  0  0
  188.5700  173.4300  140.4710 C   0  0  0  0  0  2  0  0  0  0  0  0
  189.5790  173.7090  138.2300 C   0  0  0  0  0  1  0  0  0  0  0  0
  188.4450  174.1370  139.1350 C   0  0  0  0  0  2  0  0  0  0  0  0
  1  4  2  0  0  0  0
  1 19  1  0  0  0  0
  2 19  2  0  0  0  0
  2 13  1  0  0  0  0
  4 20  1  0  0  0  0
  5  1  1  0  0  0  0
  6  8  2  0  0  0  0
  7 27  1  1  0  0  0
  7  9  1  0  0  0  0
  8 12  1  0  0  0  0
  9 22  1  0  0  0  0
  9 14  1  1  0  0  0
 10  3  1  0  0  0  0
 10 21  1  1  0  0  0
 11  5  1  0  0  0  0
 11  8  1  0  0  0  0
 12 27  1  0  0  0  0
 12  4  1  0  0  0  0
 13 18  2  0  0  0  0
 15  7  1  0  0  0  0
 15 23  1  0  0  0  0
 16  2  1  0  0  0  0
 17  3  1  0  0  0  0
 18 25  1  0  0  0  0
 19 26  1  0  0  0  0
 20 22  1  0  0  0  0
 20 17  2  0  0  0  0
 22 10  1  0  0  0  0
 23 14  1  0  0  0  0
 26 17  1  0  0  0  0
 26 25  2  0  0  0  0
 27 24  2  0  0  0  0
 28 11  1  0  0  0  0
 29 30  1  0  0  0  0
 30 28  1  0  0  0  0
M  END
>  <MODEL>
2

>  <REMARK>
 VINA RESULT:      -8.5      2.256      5.719
  Name = 
  2 active torsions:
  status: ('A' for Active; 'I' for Inactive)
    1  A    between atoms: N_11  and  C_28
    2  A    between atoms: C_28  and  C_30
                            x       y       z     vdW  Elec       q    Type
                         _______ _______ _______ _____ _____    ______ ____

>  <TORSDO>
F 2

$$$$
=
 OpenBabel11112416153D

 30 35  0  0  1  0  0  0  0  0999 V2000
  186.6600  177.7130  143.7670 C   0  0  0  0  0  0  0  0  0  0  0  0
  184.8890  178.7440  145.1970 C   0  0  0  0  0  0  0  0  0  0  0  0
  188.5250  175.8780  147.1320 C   0  0  0  0  0  2  0  0  0  0  0  0
  187.8440  176.9310  143.6670 C   0  0  0  0  0  0  0  0  0  0  0  0
  186.0860  178.3040  142.5070 C   0  0  0  0  0  2  0  0  0  0  0  0
  187.7680  176.1700  140.1130 O   0  0  0  0  0  0  0  0  0  0  0  0
  190.7990  176.5220  142.9690 C   0  0  1  0  0  3  0  0  0  0  0  0
  187.4610  176.6720  141.2300 C   0  0  0  0  0  0  0  0  0  0  0  0
  190.8670  176.0240  144.3980 C   0  0  2  0  0  3  0  0  0  0  0  0
  189.5900  175.0970  146.3470 C   0  0  1  0  0  3  0  0  0  0  0  0
  186.2370  177.3990  141.3770 N   0  0  0  0  0  0  0  0  0  0  0  0
  188.3350  176.5300  142.3650 N   0  0  0  0  0  0  0  0  0  0  0  0
  184.3280  178.9270  146.4650 C   0  0  0  0  0  3  0  0  0  0  0  0
  191.8160  174.8750  144.3000 C   0  0  0  0  0  2  0  0  0  0  0  0
  192.0120  176.2060  142.3240 O   0  0  0  0  0  0  0  0  0  0  0  0
  184.2650  179.3330  144.1470 F   0  0  0  0  0  0  0  0  0  0  0  0
  187.8040  176.6220  146.0670 C   0  0  0  0  0  0  0  0  0  0  0  0
  184.9100  178.3450  147.5900 C   0  0  0  0  0  3  0  0  0  0  0  0
  186.0620  177.9630  145.0380 C   0  0  0  0  0  0  0  0  0  0  0  0
  188.4160  176.4400  144.8590 C   0  0  0  0  0  0  0  0  0  0  0  0
  189.2220  173.6240  146.3290 C   0  0  0  0  0  1  0  0  0  0  0  0
  189.5800  175.6260  144.9800 N   0  0  0  0  0  0  0  0  0  0  0  0
  192.6950  175.2800  143.1420 C   0  0  0  0  0  2  0  0  0  0  0  0
  189.8100  174.9660  141.4410 O   0  0  0  0  0  0  0  0  0  0  0  0
  186.0640  177.5770  147.4580 C   0  0  0  0  0  3  0  0  0  0  0  0
  186.6440  177.3840  146.1990 C   0  0  0  0  0  0  0  0  0  0  0  0
  189.6400  175.9560  142.2030 C   0  0  0  0  0  0  0  0  0  0  0  0
  185.2710  177.4810  140.2910 C   0  0  0  0  0  2  0  0  0  0  0  0
  182.8580  177.9840  140.5040 C   0  0  0  0  0  1  0  0  0  0  0  0
  184.2520  178.5670  140.5840 C   0  0  0  0  0  2  0  0  0  0  0  0
  1 19  1  0  0  0  0
  2 13  1  0  0  0  0
  4  1  2  0  0  0  0
  4 20  1  0  0  0  0
  5  1  1  0  0  0  0
  6  8  2  0  0  0  0
  7 27  1  6  0  0  0
  7  9  1  0  0  0  0
  8 11  1  0  0  0  0
  8 12  1  0  0  0  0
  9 14  1  6  0  0  0
  9 22  1  0  0  0  0
 10 21  1  6  0  0  0
 10  3  1  0  0  0  0
 11  5  1  0  0  0  0
 12  4  1  0  0  0  0
 13 18  2  0  0  0  0
 15  7  1  0  0  0  0
 15 23  1  0  0  0  0
 16  2  1  0  0  0  0
 17 26  1  0  0  0  0
 17  3  1  0  0  0  0
 19  2  2  0  0  0  0
 19 26  1  0  0  0  0
 20 22  1  0  0  0  0
 20 17  2  0  0  0  0
 22 10  1  0  0  0  0
 23 14  1  0  0  0  0
 24 27  2  0  0  0  0
 25 18  1  0  0  0  0
 26 25  2  0  0  0  0
 27 12  1  0  0  0  0
 28 30  1  0  0  0  0
 28 11  1  0  0  0  0
 29 30  1  0  0  0  0
M  END
>  <MODEL>
3

>  <REMARK>
 VINA RESULT:      -8.5      2.037      5.209
  Name = 
  2 active torsions:
  status: ('A' for Active; 'I' for Inactive)
    1  A    between atoms: N_11  and  C_28
    2  A    between atoms: C_28  and  C_30
                            x       y       z     vdW  Elec       q    Type
                         _______ _______ _______ _____ _____    ______ ____

>  <TORSDO>
F 2

$$$$
=
 OpenBabel11112416153D

 30 35  0  0  1  0  0  0  0  0999 V2000
  187.3950  176.6140  142.2120 C   0  0  0  0  0  0  0  0  0  0  0  0
  185.3390  177.5910  141.1810 C   0  0  0  0  0  0  0  0  0  0  0  0
  186.2960  178.0040  146.0900 C   0  0  0  0  0  2  0  0  0  0  0  0
  188.2020  176.4140  143.3660 C   0  0  0  0  0  0  0  0  0  0  0  0
  187.8820  176.0690  140.8960 C   0  0  0  0  0  2  0  0  0  0  0  0
  190.2960  173.6910  142.1750 O   0  0  0  0  0  0  0  0  0  0  0  0
  190.7800  176.7430  144.9890 C   0  0  1  0  0  3  0  0  0  0  0  0
  189.4380  174.6170  142.1840 C   0  0  0  0  0  0  0  0  0  0  0  0
  189.8240  177.2790  146.0350 C   0  0  2  0  0  3  0  0  0  0  0  0
  187.4550  177.3480  146.8550 C   0  0  1  0  0  3  0  0  0  0  0  0
  188.5600  174.7920  141.0670 N   0  0  0  0  0  0  0  0  0  0  0  0
  189.3340  175.5130  143.3070 N   0  0  0  0  0  0  0  0  0  0  0  0
  184.1390  178.2910  141.3330 C   0  0  0  0  0  3  0  0  0  0  0  0
  190.3900  176.7350  147.3060 C   0  0  0  0  0  2  0  0  0  0  0  0
  192.0420  176.5550  145.5880 O   0  0  0  0  0  0  0  0  0  0  0  0
  185.6540  177.1540  139.9370 F   0  0  0  0  0  0  0  0  0  0  0  0
  186.5750  177.6350  144.6780 C   0  0  0  0  0  0  0  0  0  0  0  0
  183.7460  178.7640  142.5840 C   0  0  0  0  0  3  0  0  0  0  0  0
  186.1770  177.3510  142.3000 C   0  0  0  0  0  0  0  0  0  0  0  0
  187.7750  176.9900  144.5820 C   0  0  0  0  0  0  0  0  0  0  0  0
  186.9310  176.1570  147.6370 C   0  0  0  0  0  1  0  0  0  0  0  0
  188.4200  176.8930  145.8500 N   0  0  0  0  0  0  0  0  0  0  0  0
  191.8620  176.6320  146.9850 C   0  0  0  0  0  2  0  0  0  0  0  0
  190.7500  174.3590  144.7700 O   0  0  0  0  0  0  0  0  0  0  0  0
  184.5540  178.5440  143.6970 C   0  0  0  0  0  3  0  0  0  0  0  0
  185.7620  177.8480  143.5660 C   0  0  0  0  0  0  0  0  0  0  0  0
  190.3090  175.4660  144.3590 C   0  0  0  0  0  0  0  0  0  0  0  0
  188.5530  173.8520  139.9560 C   0  0  0  0  0  2  0  0  0  0  0  0
  188.8230  173.9500  137.4990 C   0  0  0  0  0  1  0  0  0  0  0  0
  188.1040  174.5510  138.6870 C   0  0  0  0  0  2  0  0  0  0  0  0
  1 19  2  0  0  0  0
  1  4  1  0  0  0  0
  2 13  2  0  0  0  0
  2 19  1  0  0  0  0
  3 10  1  0  0  0  0
  4 20  2  0  0  0  0
  5 11  1  0  0  0  0
  5  1  1  0  0  0  0
  6  8  2  0  0  0  0
  7 27  1  1  0  0  0
  7 15  1  0  0  0  0
  7  9  1  0  0  0  0
  8 12  1  0  0  0  0
  9 14  1  1  0  0  0
 10 21  1  6  0  0  0
 11  8  1  0  0  0  0
 12  4  1  0  0  0  0
 12 27  1  0  0  0  0
 13 18  1  0  0  0  0
 15 23  1  0  0  0  0
 16  2  1  0  0  0  0
 17  3  1  0  0  0  0
 18 25  2  0  0  0  0
 19 26  1  0  0  0  0
 20 17  1  0  0  0  0
 20 22  1  0  0  0  0
 22  9  1  0  0  0  0
 22 10  1  0  0  0  0
 23 14  1  0  0  0  0
 26 25  1  0  0  0  0
 26 17  2  0  0  0  0
 27 24  2  0  0  0  0
 28 11  1  0  0  0  0
 29 30  1  0  0  0  0
 30 28  1  0  0  0  0
M  END
>  <MODEL>
4

>  <REMARK>
 VINA RESULT:      -7.9      2.108      5.712
  Name = 
  2 active torsions:
  status: ('A' for Active; 'I' for Inactive)
    1  A    between atoms: N_11  and  C_28
    2  A    between atoms: C_28  and  C_30
                            x       y       z     vdW  Elec       q    Type
                         _______ _______ _______ _____ _____    ______ ____

>  <TORSDO>
F 2

$$$$
=
 OpenBabel11112416153D

 30 35  0  0  1  0  0  0  0  0999 V2000
  188.1210  175.4730  142.4920 C   0  0  0  0  0  0  0  0  0  0  0  0
  189.6690  173.6990  141.6520 C   0  0  0  0  0  0  0  0  0  0  0  0
  189.7570  175.2550  146.4220 C   0  0  0  0  0  2  0  0  0  0  0  0
  187.6430  176.2590  143.5760 C   0  0  0  0  0  0  0  0  0  0  0  0
  187.4710  175.6430  141.1450 C   0  0  0  0  0  2  0  0  0  0  0  0
  185.9080  178.8590  141.7190 O   0  0  0  0  0  0  0  0  0  0  0  0
  185.4730  177.1940  145.5280 C   0  0  1  0  0  3  0  0  0  0  0  0
  186.5500  177.8010  141.9690 C   0  0  0  0  0  0  0  0  0  0  0  0
  186.5140  176.8170  146.5620 C   0  0  2  0  0  3  0  0  0  0  0  0
  188.9460  176.4130  147.0230 C   0  0  1  0  0  3  0  0  0  0  0  0
  187.1080  177.0310  140.9000 N   0  0  0  0  0  0  0  0  0  0  0  0
  186.7240  177.3490  143.3250 N   0  0  0  0  0  0  0  0  0  0  0  0
  190.7130  172.8040  141.9020 C   0  0  0  0  0  3  0  0  0  0  0  0
  186.3600  177.8900  147.5890 C   0  0  0  0  0  2  0  0  0  0  0  0
  184.4360  177.8990  146.1700 O   0  0  0  0  0  0  0  0  0  0  0  0
  189.1780  173.7510  140.3900 F   0  0  0  0  0  0  0  0  0  0  0  0
  189.2510  175.1790  145.0280 C   0  0  0  0  0  0  0  0  0  0  0  0
  191.2730  172.7020  143.1740 C   0  0  0  0  0  3  0  0  0  0  0  0
  189.1610  174.5180  142.6940 C   0  0  0  0  0  0  0  0  0  0  0  0
  188.2080  176.0440  144.8510 C   0  0  0  0  0  0  0  0  0  0  0  0
  189.8510  177.6170  147.2100 C   0  0  0  0  0  1  0  0  0  0  0  0
  187.8900  176.7330  146.0580 N   0  0  0  0  0  0  0  0  0  0  0  0
  184.9020  178.2600  147.4520 C   0  0  0  0  0  2  0  0  0  0  0  0
  185.9180  179.2620  144.4070 O   0  0  0  0  0  0  0  0  0  0  0  0
  190.7890  173.4930  144.2130 C   0  0  0  0  0  3  0  0  0  0  0  0
  189.7410  174.3930  143.9860 C   0  0  0  0  0  0  0  0  0  0  0  0
  186.0330  178.0070  144.3980 C   0  0  0  0  0  0  0  0  0  0  0  0
  187.0530  177.4980  139.5220 C   0  0  0  0  0  2  0  0  0  0  0  0
  186.7340  176.1200  137.4920 C   0  0  0  0  0  1  0  0  0  0  0  0
  186.0600  176.6660  138.7320 C   0  0  0  0  0  2  0  0  0  0  0  0
  1 19  2  0  0  0  0
  1  4  1  0  0  0  0
  2 13  2  0  0  0  0
  2 19  1  0  0  0  0
  3 10  1  0  0  0  0
  4 20  2  0  0  0  0
  5  1  1  0  0  0  0
  6  8  2  0  0  0  0
  7 27  1  6  0  0  0
  7 15  1  0  0  0  0
  7  9  1  0  0  0  0
  8 12  1  0  0  0  0
  9 14  1  1  0  0  0
 10 21  1  6  0  0  0
 11  5  1  0  0  0  0
 11  8  1  0  0  0  0
 12  4  1  0  0  0  0
 12 27  1  0  0  0  0
 13 18  1  0  0  0  0
 15 23  1  0  0  0  0
 16  2  1  0  0  0  0
 17  3  1  0  0  0  0
 18 25  2  0  0  0  0
 19 26  1  0  0  0  0
 20 17  1  0  0  0  0
 20 22  1  0  0  0  0
 22  9  1  0  0  0  0
 22 10  1  0  0  0  0
 23 14  1  0  0  0  0
 26 25  1  0  0  0  0
 26 17  2  0  0  0  0
 27 24  2  0  0  0  0
 28 11  1  0  0  0  0
 29 30  1  0  0  0  0
 30 28  1  0  0  0  0
M  END
>  <MODEL>
5

>  <REMARK>
 VINA RESULT:      -7.7      3.143      7.198
  Name = 
  2 active torsions:
  status: ('A' for Active; 'I' for Inactive)
    1  A    between atoms: N_11  and  C_28
    2  A    between atoms: C_28  and  C_30
                            x       y       z     vdW  Elec       q    Type
                         _______ _______ _______ _____ _____    ______ ____

>  <TORSDO>
F 2

$$$$
=
 OpenBabel11112416153D

 30 35  0  0  1  0  0  0  0  0999 V2000
  189.0810  176.6910  145.6140 C   0  0  0  0  0  0  0  0  0  0  0  0
  191.0690  176.0320  146.9770 C   0  0  0  0  0  0  0  0  0  0  0  0
  190.3410  174.2790  142.3320 C   0  0  0  0  0  2  0  0  0  0  0  0
  188.3660  176.6140  144.3870 C   0  0  0  0  0  0  0  0  0  0  0  0
  188.5340  177.5700  146.7070 C   0  0  0  0  0  2  0  0  0  0  0  0
  185.1340  177.8590  145.4930 O   0  0  0  0  0  0  0  0  0  0  0  0
  187.1660  177.8280  141.8420 C   0  0  1  0  0  3  0  0  0  0  0  0
  186.3550  177.5370  145.5080 C   0  0  0  0  0  0  0  0  0  0  0  0
  187.9720  176.7320  141.1730 C   0  0  2  0  0  3  0  0  0  0  0  0
  189.1070  174.5130  141.4480 C   0  0  1  0  0  3  0  0  0  0  0  0
  187.0790  177.5310  146.7430 N   0  0  0  0  0  0  0  0  0  0  0  0
  187.0370  177.1810  144.2920 N   0  0  0  0  0  0  0  0  0  0  0  0
  192.2480  175.2910  147.0960 C   0  0  0  0  0  3  0  0  0  0  0  0
  187.0660  176.2850  140.0730 C   0  0  0  0  0  2  0  0  0  0  0  0
  186.3040  178.4000  140.8850 O   0  0  0  0  0  0  0  0  0  0  0  0
  190.6920  176.7810  148.0430 F   0  0  0  0  0  0  0  0  0  0  0  0
  190.0600  175.1150  143.5280 C   0  0  0  0  0  0  0  0  0  0  0  0
  192.6950  174.4930  146.0440 C   0  0  0  0  0  3  0  0  0  0  0  0
  190.3090  175.9840  145.7810 C   0  0  0  0  0  0  0  0  0  0  0  0
  188.9210  175.8460  143.3420 C   0  0  0  0  0  0  0  0  0  0  0  0
  188.2470  173.2620  141.4430 C   0  0  0  0  0  1  0  0  0  0  0  0
  188.3610  175.6230  142.0500 N   0  0  0  0  0  0  0  0  0  0  0  0
  186.2870  177.5410  139.7650 C   0  0  0  0  0  2  0  0  0  0  0  0
  185.1610  177.0560  142.8970 O   0  0  0  0  0  0  0  0  0  0  0  0
  191.9660  174.4310  144.8590 C   0  0  0  0  0  3  0  0  0  0  0  0
  190.7850  175.1690  144.7170 C   0  0  0  0  0  0  0  0  0  0  0  0
  186.3820  177.3430  143.0250 C   0  0  0  0  0  0  0  0  0  0  0  0
  186.4130  177.7800  148.0130 C   0  0  0  0  0  2  0  0  0  0  0  0
  186.3160  180.2520  148.0160 C   0  0  0  0  0  1  0  0  0  0  0  0
  186.9650  179.0410  148.6500 C   0  0  0  0  0  2  0  0  0  0  0  0
  1 19  1  0  0  0  0
  1  5  1  0  0  0  0
  2 13  1  0  0  0  0
  2 16  1  0  0  0  0
  3 17  1  0  0  0  0
  4  1  2  0  0  0  0
  5 11  1  0  0  0  0
  6  8  2  0  0  0  0
  7 15  1  6  0  0  0
  7 27  1  0  0  0  0
  8 11  1  0  0  0  0
  9 14  1  6  0  0  0
  9  7  1  0  0  0  0
  9 22  1  0  0  0  0
 10 21  1  1  0  0  0
 10 22  1  0  0  0  0
 10  3  1  0  0  0  0
 11 28  1  0  0  0  0
 12  4  1  0  0  0  0
 12  8  1  0  0  0  0
 17 26  1  0  0  0  0
 18 13  2  0  0  0  0
 19  2  2  0  0  0  0
 20 17  2  0  0  0  0
 20  4  1  0  0  0  0
 22 20  1  0  0  0  0
 23 14  1  0  0  0  0
 23 15  1  0  0  0  0
 24 27  2  0  0  0  0
 25 18  1  0  0  0  0
 26 25  2  0  0  0  0
 26 19  1  0  0  0  0
 27 12  1  0  0  0  0
 28 30  1  0  0  0  0
 29 30  1  0  0  0  0
M  END
>  <MODEL>
6

>  <REMARK>
 VINA RESULT:      -7.7      2.675      4.913
  Name = 
  2 active torsions:
  status: ('A' for Active; 'I' for Inactive)
    1  A    between atoms: N_11  and  C_28
    2  A    between atoms: C_28  and  C_30
                            x       y       z     vdW  Elec       q    Type
                         _______ _______ _______ _____ _____    ______ ____

>  <TORSDO>
F 2

$$$$
=
 OpenBabel11112416153D

 30 35  0  0  1  0  0  0  0  0999 V2000
  188.8180  173.7350  141.6560 C   0  0  0  0  0  0  0  0  0  0  0  0
  190.3110  171.7580  141.9880 C   0  0  0  0  0  0  0  0  0  0  0  0
  189.8120  175.3220  145.4860 C   0  0  0  0  0  2  0  0  0  0  0  0
  188.2540  174.9350  142.1690 C   0  0  0  0  0  0  0  0  0  0  0  0
  188.3990  173.2770  140.2840 C   0  0  0  0  0  2  0  0  0  0  0  0
  187.0610  176.4160  139.0700 O   0  0  0  0  0  0  0  0  0  0  0  0
  185.9050  176.6810  143.0770 C   0  0  1  0  0  3  0  0  0  0  0  0
  187.5600  175.5830  139.8770 C   0  0  0  0  0  0  0  0  0  0  0  0
  186.7380  176.8080  144.3360 C   0  0  2  0  0  3  0  0  0  0  0  0
  189.0260  176.6340  145.3500 C   0  0  1  0  0  3  0  0  0  0  0  0
  188.2040  174.4040  139.3830 N   0  0  0  0  0  0  0  0  0  0  0  0
  187.4840  175.7990  141.2980 N   0  0  0  0  0  0  0  0  0  0  0  0
  191.2210  171.0660  142.7920 C   0  0  0  0  0  3  0  0  0  0  0  0
  186.5260  178.2340  144.7270 C   0  0  0  0  0  2  0  0  0  0  0  0
  184.8490  177.6130  143.1410 O   0  0  0  0  0  0  0  0  0  0  0  0
  190.0240  171.2320  140.7720 F   0  0  0  0  0  0  0  0  0  0  0  0
  189.5180  174.6220  144.2090 C   0  0  0  0  0  0  0  0  0  0  0  0
  191.5690  171.5510  144.0510 C   0  0  0  0  0  3  0  0  0  0  0  0
  189.7260  172.9680  142.4440 C   0  0  0  0  0  0  0  0  0  0  0  0
  188.5960  175.3210  143.4820 C   0  0  0  0  0  0  0  0  0  0  0  0
  189.9950  177.7820  145.1330 C   0  0  0  0  0  1  0  0  0  0  0  0
  188.1610  176.4890  144.1750 N   0  0  0  0  0  0  0  0  0  0  0  0
  185.1450  178.5150  144.1850 C   0  0  0  0  0  2  0  0  0  0  0  0
  186.6980  178.0040  141.2450 O   0  0  0  0  0  0  0  0  0  0  0  0
  191.0050  172.7340  144.5220 C   0  0  0  0  0  3  0  0  0  0  0  0
  190.0890  173.4420  143.7350 C   0  0  0  0  0  0  0  0  0  0  0  0
  186.7000  176.8820  141.8220 C   0  0  0  0  0  0  0  0  0  0  0  0
  188.4000  174.1900  137.9570 C   0  0  0  0  0  2  0  0  0  0  0  0
  190.8200  173.8270  137.5920 C   0  0  0  0  0  1  0  0  0  0  0  0
  189.4770  173.1450  137.7330 C   0  0  0  0  0  2  0  0  0  0  0  0
  1  4  2  0  0  0  0
  1 19  1  0  0  0  0
  2 19  2  0  0  0  0
  2 13  1  0  0  0  0
  4 20  1  0  0  0  0
  5  1  1  0  0  0  0
  6  8  2  0  0  0  0
  7 27  1  6  0  0  0
  7 15  1  0  0  0  0
  7  9  1  0  0  0  0
  8 12  1  0  0  0  0
  9 14  1  6  0  0  0
 10 21  1  6  0  0  0
 10  3  1  0  0  0  0
 11  8  1  0  0  0  0
 11  5  1  0  0  0  0
 12 27  1  0  0  0  0
 12  4  1  0  0  0  0
 13 18  2  0  0  0  0
 15 23  1  0  0  0  0
 16  2  1  0  0  0  0
 17  3  1  0  0  0  0
 18 25  1  0  0  0  0
 19 26  1  0  0  0  0
 20 22  1  0  0  0  0
 20 17  2  0  0  0  0
 22  9  1  0  0  0  0
 22 10  1  0  0  0  0
 23 14  1  0  0  0  0
 24 27  2  0  0  0  0
 26 17  1  0  0  0  0
 26 25  2  0  0  0  0
 28 11  1  0  0  0  0
 29 30  1  0  0  0  0
 30 28  1  0  0  0  0
M  END
>  <MODEL>
7

>  <REMARK>
 VINA RESULT:      -7.5      3.246      7.239
  Name = 
  2 active torsions:
  status: ('A' for Active; 'I' for Inactive)
    1  A    between atoms: N_11  and  C_28
    2  A    between atoms: C_28  and  C_30
                            x       y       z     vdW  Elec       q    Type
                         _______ _______ _______ _____ _____    ______ ____

>  <TORSDO>
F 2

$$$$
=
 OpenBabel11112416153D

 30 35  0  0  1  0  0  0  0  0999 V2000
  190.1010  176.2820  145.1830 C   0  0  0  0  0  0  0  0  0  0  0  0
  189.0570  177.5430  147.0710 C   0  0  0  0  0  0  0  0  0  0  0  0
  186.5020  176.4130  142.9020 C   0  0  0  0  0  2  0  0  0  0  0  0
  189.9710  175.6770  143.9020 C   0  0  0  0  0  0  0  0  0  0  0  0
  191.4260  176.1790  145.8910 C   0  0  0  0  0  2  0  0  0  0  0  0
  193.4850  175.3430  143.0310 O   0  0  0  0  0  0  0  0  0  0  0  0
  190.0040  173.2760  141.9980 C   0  0  1  0  0  3  0  0  0  0  0  0
  192.4420  175.5890  143.6990 C   0  0  0  0  0  0  0  0  0  0  0  0
  188.6230  173.7890  141.6390 C   0  0  2  0  0  3  0  0  0  0  0  0
  187.0650  175.7540  141.6340 C   0  0  1  0  0  3  0  0  0  0  0  0
  192.5380  176.2670  144.9560 N   0  0  0  0  0  0  0  0  0  0  0  0
  191.1480  175.1860  143.2150 N   0  0  0  0  0  0  0  0  0  0  0  0
  187.9410  178.1950  147.6040 C   0  0  0  0  0  3  0  0  0  0  0  0
  188.5640  173.5670  140.1640 C   0  0  0  0  0  2  0  0  0  0  0  0
  190.3730  172.2880  141.0630 O   0  0  0  0  0  0  0  0  0  0  0  0
  190.1880  177.5280  147.8170 F   0  0  0  0  0  0  0  0  0  0  0  0
  187.6620  176.3970  143.8310 C   0  0  0  0  0  0  0  0  0  0  0  0
  186.7460  178.2560  146.8910 C   0  0  0  0  0  3  0  0  0  0  0  0
  188.9880  176.9320  145.7930 C   0  0  0  0  0  0  0  0  0  0  0  0
  188.7080  175.7140  143.2760 C   0  0  0  0  0  0  0  0  0  0  0  0
  187.2430  176.8080  140.5560 C   0  0  0  0  0  1  0  0  0  0  0  0
  188.3690  175.1900  141.9940 N   0  0  0  0  0  0  0  0  0  0  0  0
  189.4710  172.3730  139.9810 C   0  0  0  0  0  2  0  0  0  0  0  0
  191.7940  174.5560  141.0550 O   0  0  0  0  0  0  0  0  0  0  0  0
  186.6530  177.6610  145.6350 C   0  0  0  0  0  3  0  0  0  0  0  0
  187.7570  177.0000  145.0840 C   0  0  0  0  0  0  0  0  0  0  0  0
  191.0400  174.3590  142.0460 C   0  0  0  0  0  0  0  0  0  0  0  0
  193.8090  176.7880  145.4390 C   0  0  0  0  0  2  0  0  0  0  0  0
  195.3620  174.9170  145.8900 C   0  0  0  0  0  1  0  0  0  0  0  0
  194.3690  175.8740  146.5120 C   0  0  0  0  0  2  0  0  0  0  0  0
  1 19  1  0  0  0  0
  1  5  1  0  0  0  0
  2 13  1  0  0  0  0
  2 16  1  0  0  0  0
  3 17  1  0  0  0  0
  4  1  2  0  0  0  0
  6  8  2  0  0  0  0
  7 15  1  6  0  0  0
  7 27  1  0  0  0  0
  8 11  1  0  0  0  0
  9 14  1  6  0  0  0
  9 22  1  0  0  0  0
  9  7  1  0  0  0  0
 10 21  1  6  0  0  0
 10 22  1  0  0  0  0
 10  3  1  0  0  0  0
 11 28  1  0  0  0  0
 11  5  1  0  0  0  0
 12  8  1  0  0  0  0
 12  4  1  0  0  0  0
 17 26  1  0  0  0  0
 18 13  2  0  0  0  0
 19  2  2  0  0  0  0
 20 17  2  0  0  0  0
 20  4  1  0  0  0  0
 22 20  1  0  0  0  0
 23 14  1  0  0  0  0
 23 15  1  0  0  0  0
 24 27  2  0  0  0  0
 25 18  1  0  0  0  0
 26 25  2  0  0  0  0
 26 19  1  0  0  0  0
 27 12  1  0  0  0  0
 28 30  1  0  0  0  0
 29 30  1  0  0  0  0
M  END
>  <MODEL>
8

>  <REMARK>
 VINA RESULT:      -7.5      1.999      2.578
  Name = 
  2 active torsions:
  status: ('A' for Active; 'I' for Inactive)
    1  A    between atoms: N_11  and  C_28
    2  A    between atoms: C_28  and  C_30
                            x       y       z     vdW  Elec       q    Type
                         _______ _______ _______ _____ _____    ______ ____

>  <TORSDO>
F 2

$$$$
=
 OpenBabel11112416153D

 30 35  0  0  1  0  0  0  0  0999 V2000
  187.9710  176.6980  142.9410 C   0  0  0  0  0  0  0  0  0  0  0  0
  186.9590  178.1550  144.7020 C   0  0  0  0  0  0  0  0  0  0  0  0
  189.6710  174.0940  145.8570 C   0  0  0  0  0  2  0  0  0  0  0  0
  188.7720  175.5720  142.6040 C   0  0  0  0  0  0  0  0  0  0  0  0
  187.4150  177.5400  141.8240 C   0  0  0  0  0  2  0  0  0  0  0  0
  187.7890  175.1500  139.1290 O   0  0  0  0  0  0  0  0  0  0  0  0
  191.2230  174.2440  141.3310 C   0  0  1  0  0  3  0  0  0  0  0  0
  187.8840  175.6410  140.2880 C   0  0  0  0  0  0  0  0  0  0  0  0
  191.3760  173.6460  142.7160 C   0  0  2  0  0  3  0  0  0  0  0  0
  190.2380  173.0610  144.8720 C   0  0  1  0  0  3  0  0  0  0  0  0
  187.0350  176.7250  140.6800 N   0  0  0  0  0  0  0  0  0  0  0  0
  188.8470  175.1280  141.2280 N   0  0  0  0  0  0  0  0  0  0  0  0
  186.7380  178.4200  146.0560 C   0  0  0  0  0  3  0  0  0  0  0  0
  191.8340  172.2560  142.4230 C   0  0  0  0  0  2  0  0  0  0  0  0
  192.1120  173.5870  140.4570 O   0  0  0  0  0  0  0  0  0  0  0  0
  186.3960  178.9960  143.8000 F   0  0  0  0  0  0  0  0  0  0  0  0
  189.0690  175.1150  144.9620 C   0  0  0  0  0  0  0  0  0  0  0  0
  187.2800  177.5940  147.0390 C   0  0  0  0  0  3  0  0  0  0  0  0
  187.7400  177.0380  144.3070 C   0  0  0  0  0  0  0  0  0  0  0  0
  189.3490  174.8290  143.6550 C   0  0  0  0  0  0  0  0  0  0  0  0
  189.3870  171.8040  144.9160 C   0  0  0  0  0  1  0  0  0  0  0  0
  190.1610  173.6630  143.5380 N   0  0  0  0  0  0  0  0  0  0  0  0
  192.5710  172.4270  141.1160 C   0  0  0  0  0  2  0  0  0  0  0  0
  189.4960  173.2320  140.0180 O   0  0  0  0  0  0  0  0  0  0  0  0
  188.0520  176.4930  146.6760 C   0  0  0  0  0  3  0  0  0  0  0  0
  188.2890  176.2110  145.3260 C   0  0  0  0  0  0  0  0  0  0  0  0
  189.8210  174.1610  140.8060 C   0  0  0  0  0  0  0  0  0  0  0  0
  185.9750  177.2090  139.8080 C   0  0  0  0  0  2  0  0  0  0  0  0
  183.8290  177.9980  140.7500 C   0  0  0  0  0  1  0  0  0  0  0  0
  185.2630  178.3800  140.4580 C   0  0  0  0  0  2  0  0  0  0  0  0
  1 19  1  0  0  0  0
  2 13  1  0  0  0  0
  4  1  2  0  0  0  0
  4 20  1  0  0  0  0
  5  1  1  0  0  0  0
  6  8  2  0  0  0  0
  7 15  1  6  0  0  0
  7  9  1  0  0  0  0
  8 11  1  0  0  0  0
  8 12  1  0  0  0  0
  9 14  1  6  0  0  0
  9 22  1  0  0  0  0
 10 21  1  6  0  0  0
 10  3  1  0  0  0  0
 11  5  1  0  0  0  0
 12  4  1  0  0  0  0
 13 18  2  0  0  0  0
 15 23  1  0  0  0  0
 16  2  1  0  0  0  0
 17 26  1  0  0  0  0
 17  3  1  0  0  0  0
 19  2  2  0  0  0  0
 19 26  1  0  0  0  0
 20 17  2  0  0  0  0
 22 20  1  0  0  0  0
 22 10  1  0  0  0  0
 23 14  1  0  0  0  0
 24 27  2  0  0  0  0
 25 18  1  0  0  0  0
 26 25  2  0  0  0  0
 27 12  1  0  0  0  0
 27  7  1  0  0  0  0
 28 30  1  0  0  0  0
 28 11  1  0  0  0  0
 30 29  1  0  0  0  0
M  END
>  <MODEL>
9

>  <REMARK>
 VINA RESULT:      -7.3      2.429      5.274
  Name = 
  2 active torsions:
  status: ('A' for Active; 'I' for Inactive)
    1  A    between atoms: N_11  and  C_28
    2  A    between atoms: C_28  and  C_30
                            x       y       z     vdW  Elec       q    Type
                         _______ _______ _______ _____ _____    ______ ____

>  <TORSDO>
F 2

$$$$
