=
 OpenBabel11112417393D

 28 32  0  0  1  0  0  0  0  0999 V2000
  190.2660  175.5640  144.2690 C   0  0  0  0  0  0  0  0  0  0  0  0
  185.4820  176.2460  145.7670 F   0  0  0  0  0  0  0  0  0  0  0  0
  188.3410  175.3440  140.0930 O   0  0  0  0  0  0  0  0  0  0  0  0
  191.1840  178.0780  143.4510 C   0  0  0  0  0  3  0  0  0  0  0  0
  186.9040  176.7690  141.2860 N   0  0  0  0  0  0  0  0  0  0  0  0
  189.7860  174.3030  144.6250 O   0  0  0  0  0  0  0  0  0  0  0  0
  186.6570  177.7270  147.1760 C   0  0  0  0  0  1  0  0  0  0  0  0
  186.0370  177.5170  145.8090 C   0  0  1  0  0  0  0  0  0  0  0  0
  184.4520  178.4740  144.1750 C   0  0  1  0  0  3  0  0  0  0  0  0
  187.1270  177.6960  144.7270 C   0  0  2  0  0  3  0  0  0  0  0  0
  190.4220  173.8910  141.6560 O   0  0  0  0  0  1  0  0  0  0  0  0
  187.1150  175.6520  143.3790 C   0  0  1  0  0  3  0  0  0  0  0  0
  185.4720  178.9360  143.3230 O   0  0  0  0  0  0  0  0  0  0  0  0
  184.9220  178.5330  145.6200 C   0  0  0  0  0  2  0  0  0  0  0  0
  189.6210  173.1180  142.4980 C   0  0  2  0  0  3  0  0  0  0  0  0
  189.3660  176.6380  144.1900 C   0  0  0  0  0  0  0  0  0  0  0  0
  187.8040  175.6890  141.1790 C   0  0  0  0  0  0  0  0  0  0  0  0
  183.2270  179.3480  144.0100 C   0  0  0  0  0  1  0  0  0  0  0  0
  188.1460  173.5280  142.4050 C   0  0  0  0  0  2  0  0  0  0  0  0
  189.8360  177.8940  143.7650 C   0  0  0  0  0  3  0  0  0  0  0  0
  191.6180  175.7520  143.9490 C   0  0  0  0  0  3  0  0  0  0  0  0
  192.0770  177.0080  143.5460 C   0  0  0  0  0  3  0  0  0  0  0  0
  190.1650  173.1220  143.9290 C   0  0  0  0  0  2  0  0  0  0  0  0
  186.3070  176.7240  142.6100 C   0  0  1  0  0  3  0  0  0  0  0  0
  187.9670  174.9800  142.3930 N   0  0  0  0  0  0  0  0  0  0  0  0
  186.5610  178.0320  143.3420 C   0  0  2  0  0  3  0  0  0  0  0  0
  186.2920  177.3340  140.2190 O   0  0  0  0  0  1  0  0  0  0  0  0
  187.8970  176.3960  144.4900 C   0  0  1  0  0  3  0  0  0  0  0  0
  1  6  1  0  0  0  0
  2  8  1  0  0  0  0
  3 17  2  0  0  0  0
  4 22  2  0  0  0  0
  4 20  1  0  0  0  0
  5 24  1  0  0  0  0
  8  7  1  1  0  0  0
  9 18  1  1  0  0  0
  9 14  1  0  0  0  0
 10  8  1  0  0  0  0
 11 15  1  0  0  0  0
 12 28  1  0  0  0  0
 13 26  1  0  0  0  0
 13  9  1  0  0  0  0
 14  8  1  0  0  0  0
 15 23  1  0  0  0  0
 16  1  1  0  0  0  0
 16 28  1  0  0  0  0
 17  5  1  0  0  0  0
 17 25  1  0  0  0  0
 19 15  1  0  0  0  0
 20 16  2  0  0  0  0
 21  1  2  0  0  0  0
 22 21  1  0  0  0  0
 23  6  1  0  0  0  0
 24 26  1  0  0  0  0
 24 12  1  0  0  0  0
 25 19  1  0  0  0  0
 25 12  1  0  0  0  0
 26 10  1  0  0  0  0
 27  5  1  0  0  0  0
 28 10  1  0  0  0  0
M  END
>  <MODEL>
1

>  <REMARK>
 VINA RESULT:      -8.4      0.000      0.000
  Name = 
  0 active torsions:
  status: ('A' for Active; 'I' for Inactive)
                            x       y       z     vdW  Elec       q    Type
                         _______ _______ _______ _____ _____    ______ ____

>  <TORSDO>
F 0

$$$$
=
 OpenBabel11112417393D

 28 32  0  0  1  0  0  0  0  0999 V2000
  191.1230  174.3180  142.9990 C   0  0  0  0  0  0  0  0  0  0  0  0
  187.9360  178.1520  143.8580 F   0  0  0  0  0  0  0  0  0  0  0  0
  193.1860  175.9140  146.7930 O   0  0  0  0  0  0  0  0  0  0  0  0
  190.2650  172.2190  144.6380 C   0  0  0  0  0  3  0  0  0  0  0  0
  190.9290  176.4780  147.1160 N   0  0  0  0  0  0  0  0  0  0  0  0
  191.5810  175.3860  142.2260 O   0  0  0  0  0  0  0  0  0  0  0  0
  186.4760  176.4480  143.1360 C   0  0  0  0  0  1  0  0  0  0  0  0
  187.2490  177.0320  144.3020 C   0  0  1  0  0  0  0  0  0  0  0  0
  187.0350  177.8430  146.6240 C   0  0  1  0  0  3  0  0  0  0  0  0
  188.2130  175.9580  144.8560 C   0  0  2  0  0  3  0  0  0  0  0  0
  193.9680  174.9240  144.0920 O   0  0  0  0  0  1  0  0  0  0  0  0
  190.4520  176.9490  144.8310 C   0  0  1  0  0  3  0  0  0  0  0  0
  187.6350  176.6950  147.1740 O   0  0  0  0  0  0  0  0  0  0  0  0
  186.2600  177.4680  145.3710 C   0  0  0  0  0  2  0  0  0  0  0  0
  193.6670  176.0410  143.3100 C   0  0  2  0  0  3  0  0  0  0  0  0
  190.1050  174.5440  143.9390 C   0  0  0  0  0  0  0  0  0  0  0  0
  192.0680  176.2460  146.3180 C   0  0  0  0  0  0  0  0  0  0  0  0
  186.0870  178.4480  147.6380 C   0  0  0  0  0  1  0  0  0  0  0  0
  192.8970  177.0990  144.1100 C   0  0  0  0  0  2  0  0  0  0  0  0
  189.6910  173.4860  144.7660 C   0  0  0  0  0  3  0  0  0  0  0  0
  191.6990  173.0450  142.8770 C   0  0  0  0  0  3  0  0  0  0  0  0
  191.2660  171.9970  143.6920 C   0  0  0  0  0  3  0  0  0  0  0  0
  192.9660  175.6300  142.0130 C   0  0  0  0  0  2  0  0  0  0  0  0
  189.9040  177.0690  146.2730 C   0  0  1  0  0  3  0  0  0  0  0  0
  191.8480  176.5160  144.9460 N   0  0  0  0  0  0  0  0  0  0  0  0
  188.6460  176.2180  146.3050 C   0  0  2  0  0  3  0  0  0  0  0  0
  190.9870  176.6730  148.4540 O   0  0  0  0  0  1  0  0  0  0  0  0
  189.5350  175.9440  144.0880 C   0  0  1  0  0  3  0  0  0  0  0  0
  1 16  1  0  0  0  0
  2  8  1  0  0  0  0
  4 20  1  0  0  0  0
  5 27  1  0  0  0  0
  6  1  1  0  0  0  0
  8  7  1  6  0  0  0
  8 10  1  0  0  0  0
  8 14  1  0  0  0  0
  9 13  1  0  0  0  0
  9 18  1  1  0  0  0
 10 26  1  0  0  0  0
 12 25  1  0  0  0  0
 12 24  1  0  0  0  0
 14  9  1  0  0  0  0
 15 11  1  0  0  0  0
 15 19  1  0  0  0  0
 16 28  1  0  0  0  0
 16 20  2  0  0  0  0
 17  3  2  0  0  0  0
 17  5  1  0  0  0  0
 19 25  1  0  0  0  0
 21  1  2  0  0  0  0
 21 22  1  0  0  0  0
 22  4  2  0  0  0  0
 23  6  1  0  0  0  0
 23 15  1  0  0  0  0
 24 26  1  0  0  0  0
 24  5  1  0  0  0  0
 25 17  1  0  0  0  0
 26 13  1  0  0  0  0
 28 12  1  0  0  0  0
 28 10  1  0  0  0  0
M  END
>  <MODEL>
2

>  <REMARK>
 VINA RESULT:      -8.2      2.825      4.828
  Name = 
  0 active torsions:
  status: ('A' for Active; 'I' for Inactive)
                            x       y       z     vdW  Elec       q    Type
                         _______ _______ _______ _____ _____    ______ ____

>  <TORSDO>
F 0

$$$$
=
 OpenBabel11112417393D

 28 32  0  0  1  0  0  0  0  0999 V2000
  189.3540  176.7920  145.1670 C   0  0  0  0  0  0  0  0  0  0  0  0
  194.3160  176.3220  144.3040 F   0  0  0  0  0  0  0  0  0  0  0  0
  189.1320  172.8540  142.7930 O   0  0  0  0  0  0  0  0  0  0  0  0
  188.8040  175.1990  147.4010 C   0  0  0  0  0  3  0  0  0  0  0  0
  191.2430  172.7590  143.8200 N   0  0  0  0  0  0  0  0  0  0  0  0
  189.6220  177.5410  144.0200 O   0  0  0  0  0  0  0  0  0  0  0  0
  194.2750  177.1440  146.5130 C   0  0  0  0  0  1  0  0  0  0  0  0
  194.1600  175.9220  145.6230 C   0  0  1  0  0  0  0  0  0  0  0  0
  195.0440  173.6480  145.2420 C   0  0  1  0  0  3  0  0  0  0  0  0
  192.7850  175.2560  145.8550 C   0  0  2  0  0  3  0  0  0  0  0  0
  187.6670  175.4470  142.9310 O   0  0  0  0  0  1  0  0  0  0  0  0
  191.7110  175.0890  143.6600 C   0  0  1  0  0  3  0  0  0  0  0  0
  193.8990  173.0200  145.7630 O   0  0  0  0  0  0  0  0  0  0  0  0
  195.2870  174.9620  145.9690 C   0  0  0  0  0  2  0  0  0  0  0  0
  188.5450  176.2770  142.2320 C   0  0  2  0  0  3  0  0  0  0  0  0
  190.3560  175.9590  145.6870 C   0  0  0  0  0  0  0  0  0  0  0  0
  190.1570  173.4400  143.2330 C   0  0  0  0  0  0  0  0  0  0  0  0
  196.2430  172.7430  145.4300 C   0  0  0  0  0  1  0  0  0  0  0  0
  189.8790  175.5770  141.9490 C   0  0  0  0  0  2  0  0  0  0  0  0
  190.0650  175.1520  146.8010 C   0  0  0  0  0  3  0  0  0  0  0  0
  188.0880  176.8330  145.7700 C   0  0  0  0  0  3  0  0  0  0  0  0
  187.8160  176.0410  146.8880 C   0  0  0  0  0  3  0  0  0  0  0  0
  188.7040  177.6270  142.9380 C   0  0  0  0  0  2  0  0  0  0  0  0
  192.3300  173.7090  143.9840 C   0  0  1  0  0  3  0  0  0  0  0  0
  190.3780  174.8320  143.1050 N   0  0  0  0  0  0  0  0  0  0  0  0
  192.7470  173.7780  145.4440 C   0  0  2  0  0  3  0  0  0  0  0  0
  191.4390  171.4260  143.6920 O   0  0  0  0  0  1  0  0  0  0  0  0
  191.7010  175.8940  144.9850 C   0  0  1  0  0  3  0  0  0  0  0  0
  1 16  2  0  0  0  0
  1 21  1  0  0  0  0
  2  8  1  0  0  0  0
  3 17  2  0  0  0  0
  5 24  1  0  0  0  0
  6  1  1  0  0  0  0
  8 10  1  0  0  0  0
  8 14  1  0  0  0  0
  8  7  1  1  0  0  0
  9 18  1  1  0  0  0
  9 13  1  0  0  0  0
  9 14  1  0  0  0  0
 12 24  1  0  0  0  0
 12 28  1  0  0  0  0
 15 11  1  0  0  0  0
 15 23  1  0  0  0  0
 16 20  1  0  0  0  0
 17  5  1  0  0  0  0
 19 15  1  0  0  0  0
 19 25  1  0  0  0  0
 20  4  2  0  0  0  0
 21 22  2  0  0  0  0
 22  4  1  0  0  0  0
 23  6  1  0  0  0  0
 24 26  1  0  0  0  0
 25 17  1  0  0  0  0
 25 12  1  0  0  0  0
 26 13  1  0  0  0  0
 26 10  1  0  0  0  0
 27  5  1  0  0  0  0
 28 16  1  0  0  0  0
 28 10  1  0  0  0  0
M  END
>  <MODEL>
3

>  <REMARK>
 VINA RESULT:      -8.1      3.303      6.788
  Name = 
  0 active torsions:
  status: ('A' for Active; 'I' for Inactive)
                            x       y       z     vdW  Elec       q    Type
                         _______ _______ _______ _____ _____    ______ ____

>  <TORSDO>
F 0

$$$$
=
 OpenBabel11112417393D

 28 32  0  0  1  0  0  0  0  0999 V2000
  190.4640  174.5360  142.1380 C   0  0  0  0  0  0  0  0  0  0  0  0
  187.7210  178.7840  142.0070 F   0  0  0  0  0  0  0  0  0  0  0  0
  190.1170  175.1120  146.6930 O   0  0  0  0  0  0  0  0  0  0  0  0
  188.6380  172.4480  142.5030 C   0  0  0  0  0  3  0  0  0  0  0  0
  188.1430  176.0790  145.8640 N   0  0  0  0  0  0  0  0  0  0  0  0
  191.3770  175.5850  142.0130 O   0  0  0  0  0  0  0  0  0  0  0  0
  186.7910  177.5410  140.2330 C   0  0  0  0  0  1  0  0  0  0  0  0
  186.8060  177.7790  141.7300 C   0  0  1  0  0  0  0  0  0  0  0  0
  185.3740  178.2760  143.6790 C   0  0  1  0  0  3  0  0  0  0  0  0
  187.1770  176.4600  142.4470 C   0  0  2  0  0  3  0  0  0  0  0  0
  192.2110  174.3770  144.7020 O   0  0  0  0  0  1  0  0  0  0  0  0
  189.1050  176.9600  143.8710 C   0  0  1  0  0  3  0  0  0  0  0  0
  185.4460  176.9630  144.1780 O   0  0  0  0  0  0  0  0  0  0  0  0
  185.4270  178.2530  142.1590 C   0  0  0  0  0  2  0  0  0  0  0  0
  192.5140  175.6320  144.1710 C   0  0  2  0  0  3  0  0  0  0  0  0
  189.1180  174.8320  142.3980 C   0  0  0  0  0  0  0  0  0  0  0  0
  189.5070  175.7330  145.7820 C   0  0  0  0  0  0  0  0  0  0  0  0
  184.0760  178.9130  144.1270 C   0  0  0  0  0  1  0  0  0  0  0  0
  191.5240  176.7010  144.6480 C   0  0  0  0  0  2  0  0  0  0  0  0
  188.2110  173.7750  142.5940 C   0  0  0  0  0  3  0  0  0  0  0  0
  190.8900  173.2020  142.0520 C   0  0  0  0  0  3  0  0  0  0  0  0
  189.9760  172.1610  142.2290 C   0  0  0  0  0  3  0  0  0  0  0  0
  192.6490  175.5640  142.6470 C   0  0  0  0  0  2  0  0  0  0  0  0
  187.8440  176.9840  144.7670 C   0  0  1  0  0  3  0  0  0  0  0  0
  190.1380  176.2350  144.6180 N   0  0  0  0  0  0  0  0  0  0  0  0
  186.7230  176.4150  143.9120 C   0  0  2  0  0  3  0  0  0  0  0  0
  187.4420  176.0650  147.0210 O   0  0  0  0  0  1  0  0  0  0  0  0
  188.6930  176.2830  142.5400 C   0  0  1  0  0  3  0  0  0  0  0  0
  1 16  1  0  0  0  0
  4 20  1  0  0  0  0
  5 27  1  0  0  0  0
  6  1  1  0  0  0  0
  6 23  1  0  0  0  0
  8  7  1  6  0  0  0
  8  2  1  0  0  0  0
  8 14  1  0  0  0  0
  8 10  1  0  0  0  0
  9 18  1  6  0  0  0
  9 13  1  0  0  0  0
 10 28  1  0  0  0  0
 10 26  1  0  0  0  0
 12 25  1  0  0  0  0
 12 24  1  0  0  0  0
 14  9  1  0  0  0  0
 15 19  1  0  0  0  0
 15 11  1  0  0  0  0
 16 28  1  0  0  0  0
 16 20  2  0  0  0  0
 17  5  1  0  0  0  0
 17  3  2  0  0  0  0
 21  1  2  0  0  0  0
 21 22  1  0  0  0  0
 22  4  2  0  0  0  0
 23 15  1  0  0  0  0
 24  5  1  0  0  0  0
 25 19  1  0  0  0  0
 25 17  1  0  0  0  0
 26 13  1  0  0  0  0
 26 24  1  0  0  0  0
 28 12  1  0  0  0  0
M  END
>  <MODEL>
4

>  <REMARK>
 VINA RESULT:      -8.0      2.249      4.164
  Name = 
  0 active torsions:
  status: ('A' for Active; 'I' for Inactive)
                            x       y       z     vdW  Elec       q    Type
                         _______ _______ _______ _____ _____    ______ ____

>  <TORSDO>
F 0

$$$$
=
 OpenBabel11112417393D

 28 32  0  0  1  0  0  0  0  0999 V2000
  191.5550  174.1790  143.1630 C   0  0  0  0  0  0  0  0  0  0  0  0
  188.6960  178.1950  142.0290 F   0  0  0  0  0  0  0  0  0  0  0  0
  192.1370  176.4150  147.1450 O   0  0  0  0  0  0  0  0  0  0  0  0
  189.9180  172.4590  144.6430 C   0  0  0  0  0  3  0  0  0  0  0  0
  190.0010  177.0940  146.4400 N   0  0  0  0  0  0  0  0  0  0  0  0
  192.3840  175.0650  142.4730 O   0  0  0  0  0  0  0  0  0  0  0  0
  187.4630  176.4270  141.0750 C   0  0  0  0  0  1  0  0  0  0  0  0
  187.7790  177.2020  142.3390 C   0  0  1  0  0  0  0  0  0  0  0  0
  186.7650  178.4490  144.2130 C   0  0  1  0  0  3  0  0  0  0  0  0
  188.3370  176.2270  143.4020 C   0  0  2  0  0  3  0  0  0  0  0  0
  193.7990  174.9020  145.1860 O   0  0  0  0  0  1  0  0  0  0  0  0
  190.5000  177.1310  144.1110 C   0  0  1  0  0  3  0  0  0  0  0  0
  186.9850  177.4120  145.1380 O   0  0  0  0  0  0  0  0  0  0  0  0
  186.5030  177.8630  142.8350 C   0  0  0  0  0  2  0  0  0  0  0  0
  193.9410  175.8560  144.1770 C   0  0  2  0  0  3  0  0  0  0  0  0
  190.2820  174.6100  143.5650 C   0  0  0  0  0  0  0  0  0  0  0  0
  191.3310  176.6810  146.2150 C   0  0  0  0  0  0  0  0  0  0  0  0
  185.5660  179.2640  144.6480 C   0  0  0  0  0  1  0  0  0  0  0  0
  193.0350  177.0690  144.4150 C   0  0  0  0  0  2  0  0  0  0  0  0
  189.4730  173.7430  144.3200 C   0  0  0  0  0  3  0  0  0  0  0  0
  192.0000  172.8900  143.4930 C   0  0  0  0  0  3  0  0  0  0  0  0
  191.1800  172.0310  144.2270 C   0  0  0  0  0  3  0  0  0  0  0  0
  193.7600  175.2240  142.7950 C   0  0  0  0  0  2  0  0  0  0  0  0
  189.4510  177.5410  145.1720 C   0  0  1  0  0  3  0  0  0  0  0  0
  191.6890  176.6880  144.8450 N   0  0  0  0  0  0  0  0  0  0  0  0
  188.1980  176.7480  144.8380 C   0  0  2  0  0  3  0  0  0  0  0  0
  189.5560  177.5410  147.6370 O   0  0  0  0  0  1  0  0  0  0  0  0
  189.8450  176.0280  143.2410 C   0  0  1  0  0  3  0  0  0  0  0  0
  1 21  2  0  0  0  0
  1 16  1  0  0  0  0
  2  8  1  0  0  0  0
  5 27  1  0  0  0  0
  6 23  1  0  0  0  0
  6  1  1  0  0  0  0
  8  7  1  6  0  0  0
  8 14  1  0  0  0  0
  8 10  1  0  0  0  0
  9 18  1  1  0  0  0
  9 13  1  0  0  0  0
 10 26  1  0  0  0  0
 12 25  1  0  0  0  0
 12 24  1  0  0  0  0
 14  9  1  0  0  0  0
 15 19  1  0  0  0  0
 15 11  1  0  0  0  0
 16 20  2  0  0  0  0
 17  5  1  0  0  0  0
 17  3  2  0  0  0  0
 19 25  1  0  0  0  0
 20  4  1  0  0  0  0
 21 22  1  0  0  0  0
 22  4  2  0  0  0  0
 23 15  1  0  0  0  0
 24  5  1  0  0  0  0
 25 17  1  0  0  0  0
 26 13  1  0  0  0  0
 26 24  1  0  0  0  0
 28 10  1  0  0  0  0
 28 16  1  0  0  0  0
 28 12  1  0  0  0  0
M  END
>  <MODEL>
5

>  <REMARK>
 VINA RESULT:      -7.9      2.725      4.676
  Name = 
  0 active torsions:
  status: ('A' for Active; 'I' for Inactive)
                            x       y       z     vdW  Elec       q    Type
                         _______ _______ _______ _____ _____    ______ ____

>  <TORSDO>
F 0

$$$$
=
 OpenBabel11112417393D

 28 32  0  0  1  0  0  0  0  0999 V2000
  190.2850  176.3510  145.0130 C   0  0  0  0  0  0  0  0  0  0  0  0
  185.3110  176.8740  144.2520 F   0  0  0  0  0  0  0  0  0  0  0  0
  190.0370  173.7940  141.1920 O   0  0  0  0  0  0  0  0  0  0  0  0
  191.5210  178.2530  143.3730 C   0  0  0  0  0  3  0  0  0  0  0  0
  188.3070  175.3600  140.9190 N   0  0  0  0  0  0  0  0  0  0  0  0
  189.6680  175.3670  145.7860 O   0  0  0  0  0  0  0  0  0  0  0  0
  185.9270  179.0270  144.9890 C   0  0  0  0  0  1  0  0  0  0  0  0
  185.8510  178.0740  143.8120 C   0  0  1  0  0  0  0  0  0  0  0  0
  185.0150  177.8280  141.5020 C   0  0  1  0  0  3  0  0  0  0  0  0
  187.2700  177.8780  143.2290 C   0  0  2  0  0  3  0  0  0  0  0  0
  191.3440  173.6640  143.8680 O   0  0  0  0  0  1  0  0  0  0  0  0
  187.6920  175.4660  143.2180 C   0  0  1  0  0  3  0  0  0  0  0  0
  186.2930  177.9750  140.9300 O   0  0  0  0  0  0  0  0  0  0  0  0
  184.9190  178.6660  142.7670 C   0  0  0  0  0  2  0  0  0  0  0  0
  190.2640  173.2830  144.6650 C   0  0  2  0  0  3  0  0  0  0  0  0
  189.5140  177.0820  144.0960 C   0  0  0  0  0  0  0  0  0  0  0  0
  189.1480  174.5330  141.6920 C   0  0  0  0  0  0  0  0  0  0  0  0
  183.9670  178.2910  140.5130 C   0  0  0  0  0  1  0  0  0  0  0  0
  188.9420  173.3430  143.8910 C   0  0  0  0  0  2  0  0  0  0  0  0
  190.1470  178.0250  143.2680 C   0  0  0  0  0  3  0  0  0  0  0  0
  191.6650  176.5800  145.1130 C   0  0  0  0  0  3  0  0  0  0  0  0
  192.2800  177.5330  144.2970 C   0  0  0  0  0  3  0  0  0  0  0  0
  190.2390  174.0780  145.9730 C   0  0  0  0  0  2  0  0  0  0  0  0
  187.2610  175.8710  141.7890 C   0  0  1  0  0  3  0  0  0  0  0  0
  188.8270  174.5490  143.0710 N   0  0  0  0  0  0  0  0  0  0  0  0
  187.2680  177.3910  141.7740 C   0  0  2  0  0  3  0  0  0  0  0  0
  188.1520  175.2180  139.5820 O   0  0  0  0  0  1  0  0  0  0  0  0
  188.0310  176.7780  143.9700 C   0  0  1  0  0  3  0  0  0  0  0  0
  1 21  1  0  0  0  0
  1  6  1  0  0  0  0
  3 17  2  0  0  0  0
  4 22  1  0  0  0  0
  5 17  1  0  0  0  0
  5 24  1  0  0  0  0
  6 23  1  0  0  0  0
  8  2  1  0  0  0  0
  8  7  1  1  0  0  0
  9 18  1  6  0  0  0
  9 14  1  0  0  0  0
 10  8  1  0  0  0  0
 10 28  1  0  0  0  0
 11 15  1  0  0  0  0
 12 28  1  0  0  0  0
 13  9  1  0  0  0  0
 13 26  1  0  0  0  0
 14  8  1  0  0  0  0
 15 23  1  0  0  0  0
 16  1  2  0  0  0  0
 17 25  1  0  0  0  0
 19 15  1  0  0  0  0
 20  4  2  0  0  0  0
 20 16  1  0  0  0  0
 22 21  2  0  0  0  0
 24 12  1  0  0  0  0
 25 12  1  0  0  0  0
 25 19  1  0  0  0  0
 26 24  1  0  0  0  0
 26 10  1  0  0  0  0
 27  5  1  0  0  0  0
 28 16  1  0  0  0  0
M  END
>  <MODEL>
6

>  <REMARK>
 VINA RESULT:      -7.8      1.403      1.983
  Name = 
  0 active torsions:
  status: ('A' for Active; 'I' for Inactive)
                            x       y       z     vdW  Elec       q    Type
                         _______ _______ _______ _____ _____    ______ ____

>  <TORSDO>
F 0

$$$$
=
 OpenBabel11112417393D

 28 32  0  0  1  0  0  0  0  0999 V2000
  191.2030  175.5050  144.9640 C   0  0  0  0  0  0  0  0  0  0  0  0
  186.3090  176.1980  146.0400 F   0  0  0  0  0  0  0  0  0  0  0  0
  189.5730  174.5690  140.7610 O   0  0  0  0  0  0  0  0  0  0  0  0
  192.0910  177.9020  143.8250 C   0  0  0  0  0  3  0  0  0  0  0  0
  188.0120  176.0950  141.6290 N   0  0  0  0  0  0  0  0  0  0  0  0
  190.7430  174.2920  145.4800 O   0  0  0  0  0  0  0  0  0  0  0  0
  187.3350  177.9250  147.2740 C   0  0  0  0  0  1  0  0  0  0  0  0
  186.8170  177.4830  145.9200 C   0  0  1  0  0  0  0  0  0  0  0  0
  185.3150  178.1120  144.0630 C   0  0  1  0  0  3  0  0  0  0  0  0
  187.9710  177.5430  144.8930 C   0  0  2  0  0  3  0  0  0  0  0  0
  191.5920  173.4620  142.6560 O   0  0  0  0  0  1  0  0  0  0  0  0
  188.1180  175.3190  143.8780 C   0  0  1  0  0  3  0  0  0  0  0  0
  186.3750  178.4820  143.2140 O   0  0  0  0  0  0  0  0  0  0  0  0
  185.6840  178.4100  145.5070 C   0  0  0  0  0  2  0  0  0  0  0  0
  190.7620  172.7920  143.5560 C   0  0  2  0  0  3  0  0  0  0  0  0
  190.2760  176.5140  144.6650 C   0  0  0  0  0  0  0  0  0  0  0  0
  188.9530  175.0510  141.7450 C   0  0  0  0  0  0  0  0  0  0  0  0
  184.0750  178.8960  143.6890 C   0  0  0  0  0  1  0  0  0  0  0  0
  189.2840  173.1190  143.3100 C   0  0  0  0  0  2  0  0  0  0  0  0
  190.7310  177.7090  144.0800 C   0  0  0  0  0  3  0  0  0  0  0  0
  192.5670  175.7000  144.7030 C   0  0  0  0  0  3  0  0  0  0  0  0
  193.0090  176.8990  144.1390 C   0  0  0  0  0  3  0  0  0  0  0  0
  191.2070  173.0370  145.0000 C   0  0  0  0  0  2  0  0  0  0  0  0
  187.3290  176.2260  142.9050 C   0  0  1  0  0  3  0  0  0  0  0  0
  189.0570  174.5430  143.0620 N   0  0  0  0  0  0  0  0  0  0  0  0
  187.4890  177.6390  143.4390 C   0  0  2  0  0  3  0  0  0  0  0  0
  187.4560  176.4640  140.4520 O   0  0  0  0  0  1  0  0  0  0  0  0
  188.7990  176.2570  144.9080 C   0  0  1  0  0  3  0  0  0  0  0  0
  1  6  1  0  0  0  0
  3 17  2  0  0  0  0
  4 20  2  0  0  0  0
  4 22  1  0  0  0  0
  5 17  1  0  0  0  0
  5 24  1  0  0  0  0
  8  2  1  0  0  0  0
  8  7  1  1  0  0  0
  9 18  1  6  0  0  0
  9 14  1  0  0  0  0
 10 28  1  0  0  0  0
 10  8  1  0  0  0  0
 11 15  1  0  0  0  0
 12 28  1  0  0  0  0
 13 26  1  0  0  0  0
 13  9  1  0  0  0  0
 14  8  1  0  0  0  0
 15 23  1  0  0  0  0
 16 28  1  0  0  0  0
 16  1  2  0  0  0  0
 17 25  1  0  0  0  0
 19 15  1  0  0  0  0
 20 16  1  0  0  0  0
 21  1  1  0  0  0  0
 22 21  2  0  0  0  0
 23  6  1  0  0  0  0
 24 26  1  0  0  0  0
 24 12  1  0  0  0  0
 25 19  1  0  0  0  0
 25 12  1  0  0  0  0
 26 10  1  0  0  0  0
 27  5  1  0  0  0  0
M  END
>  <MODEL>
7

>  <REMARK>
 VINA RESULT:      -7.8      1.102      1.191
  Name = 
  0 active torsions:
  status: ('A' for Active; 'I' for Inactive)
                            x       y       z     vdW  Elec       q    Type
                         _______ _______ _______ _____ _____    ______ ____

>  <TORSDO>
F 0

$$$$
=
 OpenBabel11112417393D

 28 32  0  0  1  0  0  0  0  0999 V2000
  188.5010  177.1970  144.5660 C   0  0  0  0  0  0  0  0  0  0  0  0
  193.1570  176.2110  142.8530 F   0  0  0  0  0  0  0  0  0  0  0  0
  187.4570  173.3080  142.3340 O   0  0  0  0  0  0  0  0  0  0  0  0
  188.1910  175.6660  146.8880 C   0  0  0  0  0  3  0  0  0  0  0  0
  189.6950  172.9910  142.9750 N   0  0  0  0  0  0  0  0  0  0  0  0
  188.6380  177.9160  143.3780 O   0  0  0  0  0  0  0  0  0  0  0  0
  193.5920  177.0280  145.0210 C   0  0  0  0  0  1  0  0  0  0  0  0
  193.1960  175.8270  144.1850 C   0  0  1  0  0  0  0  0  0  0  0  0
  193.7590  173.4740  143.6930 C   0  0  1  0  0  3  0  0  0  0  0  0
  191.8210  175.3080  144.6660 C   0  0  2  0  0  3  0  0  0  0  0  0
  186.3160  176.0410  142.6840 O   0  0  0  0  0  1  0  0  0  0  0  0
  190.3660  175.2590  142.6970 C   0  0  1  0  0  3  0  0  0  0  0  0
  192.6640  172.9680  144.4170 O   0  0  0  0  0  0  0  0  0  0  0  0
  194.2600  174.7530  144.3440 C   0  0  0  0  0  2  0  0  0  0  0  0
  187.1380  176.7750  141.8280 C   0  0  2  0  0  3  0  0  0  0  0  0
  189.4870  176.2630  144.9160 C   0  0  0  0  0  0  0  0  0  0  0  0
  188.5980  173.7830  142.5770 C   0  0  0  0  0  0  0  0  0  0  0  0
  194.8710  172.4470  143.6820 C   0  0  0  0  0  1  0  0  0  0  0  0
  188.3220  175.9400  141.3260 C   0  0  0  0  0  2  0  0  0  0  0  0
  189.3150  175.4890  146.0770 C   0  0  0  0  0  3  0  0  0  0  0  0
  187.3720  177.3690  145.3810 C   0  0  0  0  0  3  0  0  0  0  0  0
  187.2210  176.6080  146.5420 C   0  0  0  0  0  3  0  0  0  0  0  0
  187.5570  178.0990  142.4720 C   0  0  0  0  0  2  0  0  0  0  0  0
  190.8860  173.8210  142.9300 C   0  0  1  0  0  3  0  0  0  0  0  0
  188.9370  175.1440  142.3890 N   0  0  0  0  0  0  0  0  0  0  0  0
  191.5590  173.8430  144.2930 C   0  0  2  0  0  3  0  0  0  0  0  0
  189.7270  171.6450  142.8380 O   0  0  0  0  0  1  0  0  0  0  0  0
  190.6730  176.0580  143.9890 C   0  0  1  0  0  3  0  0  0  0  0  0
  1 16  2  0  0  0  0
  1 21  1  0  0  0  0
  2  8  1  0  0  0  0
  3 17  2  0  0  0  0
  6  1  1  0  0  0  0
  8 14  1  0  0  0  0
  8 10  1  0  0  0  0
  8  7  1  1  0  0  0
  9 18  1  1  0  0  0
  9 14  1  0  0  0  0
  9 13  1  0  0  0  0
 12 24  1  0  0  0  0
 12 28  1  0  0  0  0
 15 23  1  0  0  0  0
 15 11  1  0  0  0  0
 16 20  1  0  0  0  0
 17  5  1  0  0  0  0
 19 15  1  0  0  0  0
 19 25  1  0  0  0  0
 20  4  2  0  0  0  0
 21 22  2  0  0  0  0
 22  4  1  0  0  0  0
 23  6  1  0  0  0  0
 24  5  1  0  0  0  0
 24 26  1  0  0  0  0
 25 17  1  0  0  0  0
 25 12  1  0  0  0  0
 26 13  1  0  0  0  0
 26 10  1  0  0  0  0
 27  5  1  0  0  0  0
 28 10  1  0  0  0  0
 28 16  1  0  0  0  0
M  END
>  <MODEL>
8

>  <REMARK>
 VINA RESULT:      -7.7      2.636      6.200
  Name = 
  0 active torsions:
  status: ('A' for Active; 'I' for Inactive)
                            x       y       z     vdW  Elec       q    Type
                         _______ _______ _______ _____ _____    ______ ____

>  <TORSDO>
F 0

$$$$
=
 OpenBabel11112417393D

 28 32  0  0  1  0  0  0  0  0999 V2000
  187.2620  176.6350  143.7420 C   0  0  0  0  0  0  0  0  0  0  0  0
  189.3630  172.1370  144.7130 F   0  0  0  0  0  0  0  0  0  0  0  0
  189.8600  177.9920  147.2920 O   0  0  0  0  0  0  0  0  0  0  0  0
  189.1090  178.0260  142.1660 C   0  0  0  0  0  3  0  0  0  0  0  0
  191.0890  176.2230  146.3560 N   0  0  0  0  0  0  0  0  0  0  0  0
  186.3680  175.9590  144.5740 O   0  0  0  0  0  0  0  0  0  0  0  0
  189.3110  172.1590  142.3560 C   0  0  0  0  0  1  0  0  0  0  0  0
  190.0520  172.6020  143.6020 C   0  0  1  0  0  0  0  0  0  0  0  0
  192.2540  172.5860  144.7180 C   0  0  1  0  0  3  0  0  0  0  0  0
  190.1570  174.1450  143.6050 C   0  0  2  0  0  3  0  0  0  0  0  0
  187.0770  178.3910  146.2980 O   0  0  0  0  0  1  0  0  0  0  0  0
  189.2070  174.9050  145.7300 C   0  0  1  0  0  3  0  0  0  0  0  0
  192.5060  173.9410  144.4360 O   0  0  0  0  0  0  0  0  0  0  0  0
  191.4350  171.9700  143.5950 C   0  0  0  0  0  2  0  0  0  0  0  0
  186.4910  177.1840  146.6810 C   0  0  2  0  0  3  0  0  0  0  0  0
  188.5380  176.0920  143.5290 C   0  0  0  0  0  0  0  0  0  0  0  0
  189.8910  176.8900  146.6820 C   0  0  0  0  0  0  0  0  0  0  0  0
  193.5690  171.8460  144.8430 C   0  0  0  0  0  1  0  0  0  0  0  0
  187.5370  176.1810  147.1810 C   0  0  0  0  0  2  0  0  0  0  0  0
  189.4630  176.8070  142.7470 C   0  0  0  0  0  3  0  0  0  0  0  0
  186.9110  177.8620  143.1600 C   0  0  0  0  0  3  0  0  0  0  0  0
  187.8330  178.5530  142.3700 C   0  0  0  0  0  3  0  0  0  0  0  0
  185.6000  176.6290  145.5670 C   0  0  0  0  0  2  0  0  0  0  0  0
  190.7460  174.8920  145.8850 C   0  0  1  0  0  3  0  0  0  0  0  0
  188.7330  176.1520  146.3390 N   0  0  0  0  0  0  0  0  0  0  0  0
  191.2970  174.6750  144.4850 C   0  0  2  0  0  3  0  0  0  0  0  0
  192.2830  176.5210  146.9190 O   0  0  0  0  0  1  0  0  0  0  0  0
  188.9110  174.7880  144.2130 C   0  0  1  0  0  3  0  0  0  0  0  0
  1  6  1  0  0  0  0
  4 22  2  0  0  0  0
  4 20  1  0  0  0  0
  5 17  1  0  0  0  0
  5 27  1  0  0  0  0
  6 23  1  0  0  0  0
  8  7  1  6  0  0  0
  8 10  1  0  0  0  0
  8  2  1  0  0  0  0
  9 18  1  6  0  0  0
 10 28  1  0  0  0  0
 10 26  1  0  0  0  0
 11 15  1  0  0  0  0
 12 24  1  0  0  0  0
 12 25  1  0  0  0  0
 13 26  1  0  0  0  0
 13  9  1  0  0  0  0
 14  8  1  0  0  0  0
 14  9  1  0  0  0  0
 15 19  1  0  0  0  0
 16  1  1  0  0  0  0
 16 28  1  0  0  0  0
 17  3  2  0  0  0  0
 20 16  2  0  0  0  0
 21  1  2  0  0  0  0
 22 21  1  0  0  0  0
 23 15  1  0  0  0  0
 24  5  1  0  0  0  0
 25 17  1  0  0  0  0
 25 19  1  0  0  0  0
 26 24  1  0  0  0  0
 28 12  1  0  0  0  0
M  END
>  <MODEL>
9

>  <REMARK>
 VINA RESULT:      -7.3      2.805      6.427
  Name = 
  0 active torsions:
  status: ('A' for Active; 'I' for Inactive)
                            x       y       z     vdW  Elec       q    Type
                         _______ _______ _______ _____ _____    ______ ____

>  <TORSDO>
F 0

$$$$
