=
 OpenBabel11112418063D

 34 40  0  0  1  0  0  0  0  0999 V2000
  189.6810  174.5900  142.9930 C   0  0  1  0  0  3  0  0  0  0  0  0
  191.9230  173.6740  143.2160 C   0  0  0  0  0  2  0  0  0  0  0  0
  185.5130  179.1380  144.7520 C   0  0  0  0  0  0  0  0  0  0  0  0
  187.4420  175.7130  142.8230 C   0  0  2  0  0  3  0  0  0  0  0  0
  186.5090  176.7850  144.9110 C   0  0  2  0  0  3  0  0  0  0  0  0
  185.7740  178.0530  147.0300 C   0  0  0  0  0  1  0  0  0  0  0  0
  186.0600  180.1880  145.1820 O   0  0  0  0  0  0  0  0  0  0  0  0
  184.4550  177.9890  142.7630 C   0  0  0  0  0  3  0  0  0  0  0  0
  190.8240  174.4900  145.0140 C   0  0  2  0  0  3  0  0  0  0  0  0
  192.3180  176.1030  147.3060 C   0  0  0  0  0  2  0  0  0  0  0  0
  187.9370  176.8250  145.4580 C   0  0  0  0  0  2  0  0  0  0  0  0
  185.2310  176.9000  142.7200 C   0  0  0  0  0  3  0  0  0  0  0  0
  189.9900  175.6160  145.6490 C   0  0  1  0  0  3  0  0  0  0  0  0
  192.9090  173.5450  144.3750 C   0  0  0  0  0  2  0  0  0  0  0  0
  186.5810  176.8520  143.3750 C   0  0  2  0  0  3  0  0  0  0  0  0
  184.8030  179.1680  143.5080 N   0  0  0  0  0  2  0  0  0  0  0  0
  192.9630  175.4270  146.0800 C   0  0  1  0  0  3  0  0  0  0  0  0
  188.8060  175.7310  143.5400 C   0  0  1  0  0  3  0  0  0  0  0  0
  185.5900  177.8550  145.5310 C   0  0  1  0  0  3  0  0  0  0  0  0
  188.6590  175.6330  145.0080 N   0  0  2  0  0  0  0  0  0  0  0  0
  188.2940  174.7520  140.9460 C   0  0  0  0  0  2  0  0  0  0  0  0
  191.1800  175.2950  147.9350 C   0  0  0  0  0  2  0  0  0  0  0  0
  187.6440  175.9000  141.4390 O   0  0  0  0  0  0  0  0  0  0  0  0
  189.8530  175.4280  147.1720 C   0  0  0  0  0  2  0  0  0  0  0  0
  192.2050  174.1820  145.5660 C   0  0  1  0  0  3  0  0  0  0  0  0
  189.7300  174.6930  141.4690 C   0  0  0  0  0  2  0  0  0  0  0  0
  191.0010  174.7340  143.5960 N   0  0  2  0  0  0  0  0  0  0  0  0
  193.1300  176.3730  145.0630 O   0  0  0  0  0  0  0  0  0  0  0  0
  194.5050  176.6190  145.0180 C   0  0  0  0  0  2  0  0  0  0  0  0
  196.9950  176.8570  143.0830 O   0  0  0  0  0  0  0  0  0  0  0  0
  196.3100  175.0620  144.4080 C   0  0  0  0  0  2  0  0  0  0  0  0
  195.1330  175.8200  143.8890 C   0  0  2  0  0  3  0  0  0  0  0  0
  197.4280  175.6210  143.5790 C   0  0  0  0  0  2  0  0  0  0  0  0
  195.6540  176.7200  142.8700 N   0  0  0  0  0  2  0  0  0  0  0  0
  1 26  1  6  0  0  0
  1 18  1  0  0  0  0
  1 27  1  0  0  0  0
  2 27  1  0  0  0  0
  2 14  1  0  0  0  0
  3  7  2  0  0  0  0
  3 19  1  0  0  0  0
  4 23  1  6  0  0  0
  4 15  1  0  0  0  0
  4 18  1  0  0  0  0
  5 11  1  1  0  0  0
  5 19  1  0  0  0  0
  8 16  1  0  0  0  0
  9 25  1  0  0  0  0
  9 13  1  0  0  0  0
 10 22  1  0  0  0  0
 12  8  2  0  0  0  0
 12 15  1  0  0  0  0
 13 24  1  0  0  0  0
 14 25  1  0  0  0  0
 15  5  1  0  0  0  0
 16  3  1  0  0  0  0
 17 10  1  0  0  0  0
 18 20  1  0  0  0  0
 19  6  1  0  0  0  0
 20 11  1  0  0  0  0
 20 13  1  0  0  0  0
 21 23  1  0  0  0  0
 21 26  1  0  0  0  0
 24 22  1  0  0  0  0
 25 17  1  0  0  0  0
 27  9  1  0  0  0  0
 28 17  1  0  0  0  0
 29 28  1  0  0  0  0
 30 33  1  0  0  0  0
 32 31  1  0  0  0  0
 32 29  1  0  0  0  0
 33 31  1  0  0  0  0
 34 30  1  0  0  0  0
 34 32  1  0  0  0  0
M  END
>  <MODEL>
1

>  <REMARK>
 VINA RESULT:      -8.4      0.000      0.000
  Name = 
  3 active torsions:
  status: ('A' for Active; 'I' for Inactive)
    1  A    between atoms: C_17  and  O_28
    2  A    between atoms: O_28  and  C_29
    3  A    between atoms: C_29  and  C_32
                            x       y       z     vdW  Elec       q    Type
                         _______ _______ _______ _____ _____    ______ ____

>  <TORSDO>
F 3

$$$$
=
 OpenBabel11112418063D

 34 40  0  0  1  0  0  0  0  0999 V2000
  189.2010  174.4730  141.2330 C   0  0  1  0  0  3  0  0  0  0  0  0
  187.4130  176.1130  141.4120 C   0  0  0  0  0  2  0  0  0  0  0  0
  194.0560  171.4510  144.1390 C   0  0  0  0  0  0  0  0  0  0  0  0
  191.0370  172.7610  141.2520 C   0  0  2  0  0  3  0  0  0  0  0  0
  193.1000  173.2720  142.6150 C   0  0  2  0  0  3  0  0  0  0  0  0
  195.0410  173.7880  144.2300 C   0  0  0  0  0  1  0  0  0  0  0  0
  193.9630  171.4340  145.3950 O   0  0  0  0  0  0  0  0  0  0  0  0
  193.6600  170.1780  141.9910 C   0  0  0  0  0  3  0  0  0  0  0  0
  189.4190  176.4810  142.3830 C   0  0  2  0  0  3  0  0  0  0  0  0
  189.6810  177.9130  145.2050 C   0  0  0  0  0  2  0  0  0  0  0  0
  192.2570  174.2710  143.4090 C   0  0  0  0  0  2  0  0  0  0  0  0
  192.8950  171.0750  141.3590 C   0  0  0  0  0  3  0  0  0  0  0  0
  190.5760  175.9630  143.2570 C   0  0  1  0  0  3  0  0  0  0  0  0
  187.2620  177.4480  142.1370 C   0  0  0  0  0  2  0  0  0  0  0  0
  192.1680  172.1650  142.0920 C   0  0  2  0  0  3  0  0  0  0  0  0
  193.9240  170.2300  143.4030 N   0  0  0  0  0  2  0  0  0  0  0  0
  188.3860  177.6810  144.4030 C   0  0  1  0  0  3  0  0  0  0  0  0
  190.3400  173.8660  142.0700 C   0  0  1  0  0  3  0  0  0  0  0  0
  194.3110  172.7370  143.4030 C   0  0  1  0  0  3  0  0  0  0  0  0
  191.2920  174.9090  142.5110 N   0  0  2  0  0  0  0  0  0  0  0  0
  189.1710  172.3060  140.0320 C   0  0  0  0  0  2  0  0  0  0  0  0
  190.8860  178.3010  144.3440 C   0  0  0  0  0  2  0  0  0  0  0  0
  190.0980  171.7550  140.9390 O   0  0  0  0  0  0  0  0  0  0  0  0
  191.5410  177.0980  143.6480 C   0  0  0  0  0  2  0  0  0  0  0  0
  188.5820  177.6510  142.8700 C   0  0  1  0  0  3  0  0  0  0  0  0
  188.2970  173.3450  140.7370 C   0  0  0  0  0  2  0  0  0  0  0  0
  188.4870  175.4090  142.0950 N   0  0  2  0  0  0  0  0  0  0  0  0
  187.7620  176.5140  144.8570 O   0  0  0  0  0  0  0  0  0  0  0  0
  187.9360  176.5240  146.2430 C   0  0  0  0  0  2  0  0  0  0  0  0
  185.9030  178.9060  146.6760 O   0  0  0  0  0  0  0  0  0  0  0  0
  185.5070  176.7360  145.9110 C   0  0  0  0  0  2  0  0  0  0  0  0
  186.6000  176.7530  146.9280 C   0  0  2  0  0  3  0  0  0  0  0  0
  184.9270  178.1110  146.0600 C   0  0  0  0  0  2  0  0  0  0  0  0
  186.5680  178.0780  147.5310 N   0  0  0  0  0  2  0  0  0  0  0  0
  1 26  1  1  0  0  0
  1 18  1  0  0  0  0
  1 27  1  0  0  0  0
  2 27  1  0  0  0  0
  2 14  1  0  0  0  0
  3  7  2  0  0  0  0
  4 23  1  1  0  0  0
  4 18  1  0  0  0  0
  4 15  1  0  0  0  0
  5 19  1  0  0  0  0
  5 11  1  1  0  0  0
  8 16  1  0  0  0  0
  9 25  1  0  0  0  0
  9 13  1  0  0  0  0
 12  8  2  0  0  0  0
 12 15  1  0  0  0  0
 13 24  1  0  0  0  0
 14 25  1  0  0  0  0
 15  5  1  0  0  0  0
 16  3  1  0  0  0  0
 17 28  1  0  0  0  0
 17 10  1  0  0  0  0
 18 20  1  0  0  0  0
 19  3  1  0  0  0  0
 19  6  1  0  0  0  0
 20 13  1  0  0  0  0
 20 11  1  0  0  0  0
 21 26  1  0  0  0  0
 21 23  1  0  0  0  0
 22 10  1  0  0  0  0
 24 22  1  0  0  0  0
 25 17  1  0  0  0  0
 27  9  1  0  0  0  0
 28 29  1  0  0  0  0
 29 32  1  0  0  0  0
 30 34  1  0  0  0  0
 31 33  1  0  0  0  0
 31 32  1  0  0  0  0
 32 34  1  0  0  0  0
 33 30  1  0  0  0  0
M  END
>  <MODEL>
2

>  <REMARK>
 VINA RESULT:      -7.8      2.748      7.751
  Name = 
  3 active torsions:
  status: ('A' for Active; 'I' for Inactive)
    1  A    between atoms: C_17  and  O_28
    2  A    between atoms: O_28  and  C_29
    3  A    between atoms: C_29  and  C_32
                            x       y       z     vdW  Elec       q    Type
                         _______ _______ _______ _____ _____    ______ ____

>  <TORSDO>
F 3

$$$$
=
 OpenBabel11112418063D

 34 40  0  0  1  0  0  0  0  0999 V2000
  192.6180  176.2760  146.2690 C   0  0  1  0  0  3  0  0  0  0  0  0
  194.8470  175.3020  146.2460 C   0  0  0  0  0  2  0  0  0  0  0  0
  186.8600  176.6300  143.4650 C   0  0  0  0  0  0  0  0  0  0  0  0
  190.2560  177.1200  146.1840 C   0  0  2  0  0  3  0  0  0  0  0  0
  189.2270  177.4960  143.9090 C   0  0  2  0  0  3  0  0  0  0  0  0
  188.2030  177.6050  141.5460 C   0  0  0  0  0  1  0  0  0  0  0  0
  186.5750  175.6230  142.7630 O   0  0  0  0  0  0  0  0  0  0  0  0
  186.5870  177.7650  145.7080 C   0  0  0  0  0  3  0  0  0  0  0  0
  193.8330  175.9100  144.3210 C   0  0  2  0  0  3  0  0  0  0  0  0
  194.1340  174.2110  141.6550 C   0  0  0  0  0  2  0  0  0  0  0  0
  190.2800  176.5430  143.3400 C   0  0  0  0  0  2  0  0  0  0  0  0
  187.8800  177.9160  146.0190 C   0  0  0  0  0  3  0  0  0  0  0  0
  192.5790  175.8940  143.4300 C   0  0  1  0  0  3  0  0  0  0  0  0
  195.8220  174.9010  145.1420 C   0  0  0  0  0  2  0  0  0  0  0  0
  188.9590  177.0990  145.3710 C   0  0  2  0  0  3  0  0  0  0  0  0
  186.1300  176.8800  144.6720 N   0  0  0  0  0  2  0  0  0  0  0  0
  194.8380  173.9510  143.0020 C   0  0  1  0  0  3  0  0  0  0  0  0
  191.3100  176.2610  145.4590 C   0  0  1  0  0  3  0  0  0  0  0  0
  187.9520  177.5750  143.0490 C   0  0  1  0  0  3  0  0  0  0  0  0
  191.5360  176.7200  144.0720 N   0  0  2  0  0  0  0  0  0  0  0  0
  191.1880  176.7720  148.2300 C   0  0  0  0  0  2  0  0  0  0  0  0
  194.0270  175.6930  141.2840 C   0  0  0  0  0  2  0  0  0  0  0  0
  190.0200  176.5790  147.4660 O   0  0  0  0  0  0  0  0  0  0  0  0
  192.8850  176.4160  142.0130 C   0  0  0  0  0  2  0  0  0  0  0  0
  195.1000  175.2230  143.8400 C   0  0  1  0  0  3  0  0  0  0  0  0
  192.3120  175.8730  147.7100 C   0  0  0  0  0  2  0  0  0  0  0  0
  193.5340  175.3430  145.6210 N   0  0  2  0  0  0  0  0  0  0  0  0
  194.1090  173.0050  143.7300 O   0  0  0  0  0  0  0  0  0  0  0  0
  193.2790  172.3840  142.7930 C   0  0  0  0  0  2  0  0  0  0  0  0
  190.4930  173.0910  144.1110 O   0  0  0  0  0  0  0  0  0  0  0  0
  191.0230  171.4310  142.5570 C   0  0  0  0  0  2  0  0  0  0  0  0
  192.1540  171.6540  143.5060 C   0  0  2  0  0  3  0  0  0  0  0  0
  189.9070  172.1750  143.2280 C   0  0  0  0  0  2  0  0  0  0  0  0
  191.6220  172.4830  144.5780 N   0  0  0  0  0  2  0  0  0  0  0  0
  1 26  1  1  0  0  0
  3 16  1  0  0  0  0
  4 23  1  1  0  0  0
  5 11  1  6  0  0  0
  5 15  1  0  0  0  0
  6 19  1  0  0  0  0
  7  3  2  0  0  0  0
  8 12  2  0  0  0  0
  9 27  1  0  0  0  0
 10 17  1  0  0  0  0
 11 20  1  0  0  0  0
 13 20  1  0  0  0  0
 13  9  1  0  0  0  0
 14  2  1  0  0  0  0
 15 12  1  0  0  0  0
 15  4  1  0  0  0  0
 16  8  1  0  0  0  0
 17 28  1  0  0  0  0
 17 25  1  0  0  0  0
 18  4  1  0  0  0  0
 18  1  1  0  0  0  0
 19  3  1  0  0  0  0
 19  5  1  0  0  0  0
 20 18  1  0  0  0  0
 22 10  1  0  0  0  0
 22 24  1  0  0  0  0
 23 21  1  0  0  0  0
 24 13  1  0  0  0  0
 25  9  1  0  0  0  0
 25 14  1  0  0  0  0
 26 21  1  0  0  0  0
 27  2  1  0  0  0  0
 27  1  1  0  0  0  0
 29 32  1  0  0  0  0
 29 28  1  0  0  0  0
 30 34  1  0  0  0  0
 31 33  1  0  0  0  0
 31 32  1  0  0  0  0
 32 34  1  0  0  0  0
 33 30  1  0  0  0  0
M  END
>  <MODEL>
3

>  <REMARK>
 VINA RESULT:      -7.8      2.314      5.048
  Name = 
  3 active torsions:
  status: ('A' for Active; 'I' for Inactive)
    1  A    between atoms: C_17  and  O_28
    2  A    between atoms: O_28  and  C_29
    3  A    between atoms: C_29  and  C_32
                            x       y       z     vdW  Elec       q    Type
                         _______ _______ _______ _____ _____    ______ ____

>  <TORSDO>
F 3

$$$$
=
 OpenBabel11112418063D

 34 40  0  0  1  0  0  0  0  0999 V2000
  192.4610  176.4150  146.3930 C   0  0  1  0  0  3  0  0  0  0  0  0
  194.7130  175.5000  146.4710 C   0  0  0  0  0  2  0  0  0  0  0  0
  186.7830  176.5190  143.4100 C   0  0  0  0  0  0  0  0  0  0  0  0
  190.0810  177.1930  146.2090 C   0  0  2  0  0  3  0  0  0  0  0  0
  189.1130  177.4630  143.8920 C   0  0  2  0  0  3  0  0  0  0  0  0
  188.1590  177.4620  141.4980 C   0  0  0  0  0  1  0  0  0  0  0  0
  186.5450  175.4810  142.7360 O   0  0  0  0  0  0  0  0  0  0  0  0
  186.4140  177.7240  145.6020 C   0  0  0  0  0  3  0  0  0  0  0  0
  193.7430  176.0140  144.4960 C   0  0  2  0  0  3  0  0  0  0  0  0
  194.1680  174.2330  141.9020 C   0  0  0  0  0  2  0  0  0  0  0  0
  190.2070  176.5180  143.3890 C   0  0  0  0  0  2  0  0  0  0  0  0
  187.6920  177.9190  145.9460 C   0  0  0  0  0  3  0  0  0  0  0  0
  192.5170  175.9340  143.5700 C   0  0  1  0  0  3  0  0  0  0  0  0
  195.7310  175.0860  145.4100 C   0  0  0  0  0  2  0  0  0  0  0  0
  188.8110  177.1090  145.3590 C   0  0  2  0  0  3  0  0  0  0  0  0
  186.0110  176.7920  144.5850 N   0  0  0  0  0  2  0  0  0  0  0  0
  194.8370  174.0380  143.2770 C   0  0  1  0  0  3  0  0  0  0  0  0
  191.1790  176.3370  145.5470 C   0  0  1  0  0  3  0  0  0  0  0  0
  187.8630  177.4780  142.9930 C   0  0  1  0  0  3  0  0  0  0  0  0
  191.4350  176.7540  144.1510 N   0  0  2  0  0  0  0  0  0  0  0  0
  190.9590  176.9400  148.2920 C   0  0  0  0  0  2  0  0  0  0  0  0
  194.0350  175.6970  141.4760 C   0  0  0  0  0  2  0  0  0  0  0  0
  189.8210  176.6900  147.5020 O   0  0  0  0  0  0  0  0  0  0  0  0
  192.8530  176.4140  142.1450 C   0  0  0  0  0  2  0  0  0  0  0  0
  195.0410  175.3440  144.0770 C   0  0  1  0  0  3  0  0  0  0  0  0
  192.1210  176.0540  147.8380 C   0  0  0  0  0  2  0  0  0  0  0  0
  193.4190  175.4850  145.8060 N   0  0  2  0  0  0  0  0  0  0  0  0
  194.1110  173.0980  144.0170 O   0  0  0  0  0  0  0  0  0  0  0  0
  194.9190  171.9590  144.0510 C   0  0  0  0  0  2  0  0  0  0  0  0
  195.6890  169.3250  145.6210 O   0  0  0  0  0  0  0  0  0  0  0  0
  196.6150  171.4630  145.7630 C   0  0  0  0  0  2  0  0  0  0  0  0
  195.1490  171.5340  145.4900 C   0  0  2  0  0  3  0  0  0  0  0  0
  196.7900  170.0210  146.1370 C   0  0  0  0  0  2  0  0  0  0  0  0
  194.6360  170.1880  145.7020 N   0  0  0  0  0  2  0  0  0  0  0  0
  1 26  1  1  0  0  0
  3 16  1  0  0  0  0
  4 23  1  1  0  0  0
  5 11  1  6  0  0  0
  5 15  1  0  0  0  0
  6 19  1  0  0  0  0
  7  3  2  0  0  0  0
  8 12  2  0  0  0  0
  9 27  1  0  0  0  0
 10 17  1  0  0  0  0
 11 20  1  0  0  0  0
 13 20  1  0  0  0  0
 13  9  1  0  0  0  0
 14  2  1  0  0  0  0
 15 12  1  0  0  0  0
 15  4  1  0  0  0  0
 16  8  1  0  0  0  0
 17 28  1  0  0  0  0
 17 25  1  0  0  0  0
 18  4  1  0  0  0  0
 18  1  1  0  0  0  0
 19  3  1  0  0  0  0
 19  5  1  0  0  0  0
 20 18  1  0  0  0  0
 22 10  1  0  0  0  0
 22 24  1  0  0  0  0
 23 21  1  0  0  0  0
 24 13  1  0  0  0  0
 25  9  1  0  0  0  0
 25 14  1  0  0  0  0
 26 21  1  0  0  0  0
 27  1  1  0  0  0  0
 27  2  1  0  0  0  0
 28 29  1  0  0  0  0
 29 32  1  0  0  0  0
 30 34  1  0  0  0  0
 30 33  1  0  0  0  0
 31 33  1  0  0  0  0
 32 34  1  0  0  0  0
 32 31  1  0  0  0  0
M  END
>  <MODEL>
4

>  <REMARK>
 VINA RESULT:      -7.6      2.848      4.880
  Name = 
  3 active torsions:
  status: ('A' for Active; 'I' for Inactive)
    1  A    between atoms: C_17  and  O_28
    2  A    between atoms: O_28  and  C_29
    3  A    between atoms: C_29  and  C_32
                            x       y       z     vdW  Elec       q    Type
                         _______ _______ _______ _____ _____    ______ ____

>  <TORSDO>
F 3

$$$$
=
 OpenBabel11112418063D

 34 40  0  0  1  0  0  0  0  0999 V2000
  190.4360  174.8360  142.2320 C   0  0  1  0  0  3  0  0  0  0  0  0
  189.2460  176.8340  142.9450 C   0  0  0  0  0  2  0  0  0  0  0  0
  193.1250  169.2660  143.9330 C   0  0  0  0  0  0  0  0  0  0  0  0
  191.5930  172.6820  141.6630 C   0  0  2  0  0  3  0  0  0  0  0  0
  193.2340  171.7550  143.3440 C   0  0  2  0  0  3  0  0  0  0  0  0
  194.6910  170.7810  145.2330 C   0  0  0  0  0  1  0  0  0  0  0  0
  192.6750  168.7950  145.0120 O   0  0  0  0  0  0  0  0  0  0  0  0
  193.0000  169.2100  141.4080 C   0  0  0  0  0  3  0  0  0  0  0  0
  190.9040  175.9650  144.2100 C   0  0  2  0  0  3  0  0  0  0  0  0
  190.7610  175.9420  147.3820 C   0  0  0  0  0  2  0  0  0  0  0  0
  192.5350  172.6060  144.4070 C   0  0  0  0  0  2  0  0  0  0  0  0
  192.7510  170.5060  141.1870 C   0  0  0  0  0  3  0  0  0  0  0  0
  191.5520  174.7350  144.8680 C   0  0  1  0  0  3  0  0  0  0  0  0
  189.2990  177.7180  144.1900 C   0  0  0  0  0  2  0  0  0  0  0  0
  192.2040  171.4100  142.2530 C   0  0  2  0  0  3  0  0  0  0  0  0
  192.8510  168.5940  142.6980 N   0  0  0  0  0  2  0  0  0  0  0  0
  189.7420  176.5760  146.4150 C   0  0  1  0  0  3  0  0  0  0  0  0
  191.0530  173.5530  142.8140 C   0  0  1  0  0  3  0  0  0  0  0  0
  193.9500  170.5220  143.9270 C   0  0  1  0  0  3  0  0  0  0  0  0
  192.1040  173.8690  143.8060 N   0  0  2  0  0  0  0  0  0  0  0  0
  190.1080  173.5210  140.1580 C   0  0  0  0  0  2  0  0  0  0  0  0
  192.2200  176.1250  146.9570 C   0  0  0  0  0  2  0  0  0  0  0  0
  190.5270  172.3410  140.8030 O   0  0  0  0  0  0  0  0  0  0  0  0
  192.6580  175.1410  145.8620 C   0  0  0  0  0  2  0  0  0  0  0  0
  190.3510  177.0760  145.0850 C   0  0  1  0  0  3  0  0  0  0  0  0
  189.4190  174.4520  141.1590 C   0  0  0  0  0  2  0  0  0  0  0  0
  189.8190  175.5570  143.3400 N   0  0  2  0  0  0  0  0  0  0  0  0
  188.6960  175.6760  146.1870 O   0  0  0  0  0  0  0  0  0  0  0  0
  187.6640  176.0960  147.0290 C   0  0  0  0  0  2  0  0  0  0  0  0
  184.7070  177.0850  146.5050 O   0  0  0  0  0  0  0  0  0  0  0  0
  186.4860  178.1990  147.5260 C   0  0  0  0  0  2  0  0  0  0  0  0
  186.9720  177.3080  146.4300 C   0  0  2  0  0  3  0  0  0  0  0  0
  185.0080  178.2150  147.2770 C   0  0  0  0  0  2  0  0  0  0  0  0
  185.7870  176.8940  145.6940 N   0  0  0  0  0  2  0  0  0  0  0  0
  1 26  1  6  0  0  0
  1 18  1  0  0  0  0
  1 27  1  0  0  0  0
  2 27  1  0  0  0  0
  2 14  1  0  0  0  0
  3  7  2  0  0  0  0
  4 23  1  6  0  0  0
  4 15  1  0  0  0  0
  4 18  1  0  0  0  0
  5 19  1  0  0  0  0
  5 11  1  1  0  0  0
  8 16  1  0  0  0  0
  9 13  1  0  0  0  0
  9 25  1  0  0  0  0
 12  8  2  0  0  0  0
 12 15  1  0  0  0  0
 13 24  1  0  0  0  0
 14 25  1  0  0  0  0
 15  5  1  0  0  0  0
 16  3  1  0  0  0  0
 17 10  1  0  0  0  0
 18 20  1  0  0  0  0
 19  3  1  0  0  0  0
 19  6  1  0  0  0  0
 20 11  1  0  0  0  0
 20 13  1  0  0  0  0
 21 23  1  0  0  0  0
 21 26  1  0  0  0  0
 22 10  1  0  0  0  0
 24 22  1  0  0  0  0
 25 17  1  0  0  0  0
 27  9  1  0  0  0  0
 28 17  1  0  0  0  0
 28 29  1  0  0  0  0
 30 33  1  0  0  0  0
 32 29  1  0  0  0  0
 32 31  1  0  0  0  0
 33 31  1  0  0  0  0
 34 32  1  0  0  0  0
 34 30  1  0  0  0  0
M  END
>  <MODEL>
5

>  <REMARK>
 VINA RESULT:      -7.5      2.967      7.823
  Name = 
  3 active torsions:
  status: ('A' for Active; 'I' for Inactive)
    1  A    between atoms: C_17  and  O_28
    2  A    between atoms: O_28  and  C_29
    3  A    between atoms: C_29  and  C_32
                            x       y       z     vdW  Elec       q    Type
                         _______ _______ _______ _____ _____    ______ ____

>  <TORSDO>
F 3

$$$$
=
 OpenBabel11112418063D

 34 40  0  0  1  0  0  0  0  0999 V2000
  190.4450  173.1110  142.2350 C   0  0  1  0  0  3  0  0  0  0  0  0
  188.1650  173.9550  142.1840 C   0  0  0  0  0  2  0  0  0  0  0  0
  196.2770  173.4890  144.8790 C   0  0  0  0  0  0  0  0  0  0  0  0
  192.8120  172.3090  142.4780 C   0  0  2  0  0  3  0  0  0  0  0  0
  194.5770  174.0250  143.0420 C   0  0  2  0  0  3  0  0  0  0  0  0
  196.2440  175.8120  143.8590 C   0  0  0  0  0  1  0  0  0  0  0  0
  196.2780  173.9900  146.0360 O   0  0  0  0  0  0  0  0  0  0  0  0
  196.2920  171.3580  143.5180 C   0  0  0  0  0  3  0  0  0  0  0  0
  189.9100  175.3620  142.4630 C   0  0  2  0  0  3  0  0  0  0  0  0
  189.7510  177.8730  144.3990 C   0  0  0  0  0  2  0  0  0  0  0  0
  193.4550  174.9190  143.5710 C   0  0  0  0  0  2  0  0  0  0  0  0
  195.1930  171.5750  142.7870 C   0  0  0  0  0  3  0  0  0  0  0  0
  191.2300  175.6990  143.1800 C   0  0  1  0  0  3  0  0  0  0  0  0
  187.5360  175.3350  142.3670 C   0  0  0  0  0  2  0  0  0  0  0  0
  194.1370  172.5580  143.2010 C   0  0  2  0  0  3  0  0  0  0  0  0
  196.6000  172.1040  144.7070 N   0  0  0  0  0  2  0  0  0  0  0  0
  188.6100  176.8930  144.0600 C   0  0  1  0  0  3  0  0  0  0  0  0
  191.7830  173.3520  142.9560 C   0  0  1  0  0  3  0  0  0  0  0  0
  195.9470  174.3290  143.6770 C   0  0  1  0  0  3  0  0  0  0  0  0
  192.2610  174.7360  142.7440 N   0  0  2  0  0  0  0  0  0  0  0  0
  191.2130  170.7700  141.9770 C   0  0  0  0  0  2  0  0  0  0  0  0
  190.6420  178.2280  143.2070 C   0  0  0  0  0  2  0  0  0  0  0  0
  192.3380  171.0170  142.7890 O   0  0  0  0  0  0  0  0  0  0  0  0
  191.6800  177.1430  142.8850 C   0  0  0  0  0  2  0  0  0  0  0  0
  188.7060  176.2680  142.6500 C   0  0  1  0  0  3  0  0  0  0  0  0
  190.0420  171.6490  142.4190 C   0  0  0  0  0  2  0  0  0  0  0  0
  189.4720  174.0270  142.8190 N   0  0  2  0  0  0  0  0  0  0  0  0
  188.5380  175.9060  145.0490 O   0  0  0  0  0  0  0  0  0  0  0  0
  188.8140  176.5700  146.2470 C   0  0  0  0  0  2  0  0  0  0  0  0
  191.2260  174.5260  146.1760 O   0  0  0  0  0  0  0  0  0  0  0  0
  190.7860  176.2530  147.6840 C   0  0  0  0  0  2  0  0  0  0  0  0
  189.5180  175.6270  147.2070 C   0  0  2  0  0  3  0  0  0  0  0  0
  191.8140  175.2710  147.2060 C   0  0  0  0  0  2  0  0  0  0  0  0
  189.9090  174.4080  146.5130 N   0  0  0  0  0  2  0  0  0  0  0  0
  1 26  1  1  0  0  0
  1 27  1  0  0  0  0
  1 18  1  0  0  0  0
  2 14  1  0  0  0  0
  2 27  1  0  0  0  0
  3  7  2  0  0  0  0
  4 23  1  1  0  0  0
  4 18  1  0  0  0  0
  4 15  1  0  0  0  0
  5 15  1  0  0  0  0
  5 11  1  1  0  0  0
  5 19  1  0  0  0  0
  8 16  1  0  0  0  0
  9 25  1  0  0  0  0
  9 27  1  0  0  0  0
  9 13  1  0  0  0  0
 12 15  1  0  0  0  0
 12  8  2  0  0  0  0
 14 25  1  0  0  0  0
 16  3  1  0  0  0  0
 17 10  1  0  0  0  0
 17 28  1  0  0  0  0
 19  6  1  0  0  0  0
 19  3  1  0  0  0  0
 20 18  1  0  0  0  0
 20 13  1  0  0  0  0
 20 11  1  0  0  0  0
 21 26  1  0  0  0  0
 21 23  1  0  0  0  0
 22 10  1  0  0  0  0
 24 13  1  0  0  0  0
 24 22  1  0  0  0  0
 25 17  1  0  0  0  0
 28 29  1  0  0  0  0
 29 32  1  0  0  0  0
 30 34  1  0  0  0  0
 30 33  1  0  0  0  0
 32 31  1  0  0  0  0
 33 31  1  0  0  0  0
 34 32  1  0  0  0  0
M  END
>  <MODEL>
6

>  <REMARK>
 VINA RESULT:      -7.5      2.683      7.421
  Name = 
  3 active torsions:
  status: ('A' for Active; 'I' for Inactive)
    1  A    between atoms: C_17  and  O_28
    2  A    between atoms: O_28  and  C_29
    3  A    between atoms: C_29  and  C_32
                            x       y       z     vdW  Elec       q    Type
                         _______ _______ _______ _____ _____    ______ ____

>  <TORSDO>
F 3

$$$$
=
 OpenBabel11112418063D

 34 40  0  0  1  0  0  0  0  0999 V2000
  192.3940  175.8950  145.6260 C   0  0  1  0  0  3  0  0  0  0  0  0
  190.1640  176.3290  146.4960 C   0  0  0  0  0  2  0  0  0  0  0  0
  196.1080  175.1290  140.4520 C   0  0  0  0  0  0  0  0  0  0  0  0
  194.6360  175.5380  144.5550 C   0  0  2  0  0  3  0  0  0  0  0  0
  194.7080  174.2290  142.3970 C   0  0  2  0  0  3  0  0  0  0  0  0
  194.6310  173.1000  140.0820 C   0  0  0  0  0  1  0  0  0  0  0  0
  195.6430  175.6660  139.4110 O   0  0  0  0  0  0  0  0  0  0  0  0
  197.7050  175.3680  142.3980 C   0  0  0  0  0  3  0  0  0  0  0  0
  190.4610  175.0010  144.6930 C   0  0  2  0  0  3  0  0  0  0  0  0
  188.4390  175.0160  142.2450 C   0  0  0  0  0  2  0  0  0  0  0  0
  193.2260  174.5640  142.2130 C   0  0  0  0  0  2  0  0  0  0  0  0
  196.8370  175.1830  143.3990 C   0  0  0  0  0  3  0  0  0  0  0  0
  191.1190  174.7690  143.3210 C   0  0  1  0  0  3  0  0  0  0  0  0
  188.7550  175.9380  146.0570 C   0  0  0  0  0  2  0  0  0  0  0  0
  195.3570  175.3580  143.2180 C   0  0  2  0  0  3  0  0  0  0  0  0
  197.2960  175.6600  141.0510 N   0  0  0  0  0  2  0  0  0  0  0  0
  188.3030  175.8060  143.5610 C   0  0  1  0  0  3  0  0  0  0  0  0
  193.1290  175.7130  144.2870 C   0  0  1  0  0  3  0  0  0  0  0  0
  195.4340  173.9360  141.0700 C   0  0  1  0  0  3  0  0  0  0  0  0
  192.5690  174.5780  143.5220 N   0  0  2  0  0  0  0  0  0  0  0  0
  194.5610  176.7230  146.4960 C   0  0  0  0  0  2  0  0  0  0  0  0
  188.9830  173.5960  142.4250 C   0  0  0  0  0  2  0  0  0  0  0  0
  195.1260  176.6900  145.2060 O   0  0  0  0  0  0  0  0  0  0  0  0
  190.5080  173.5530  142.5990 C   0  0  0  0  0  2  0  0  0  0  0  0
  188.9500  175.1210  144.7860 C   0  0  1  0  0  3  0  0  0  0  0  0
  193.0640  177.0240  146.4070 C   0  0  0  0  0  2  0  0  0  0  0  0
  191.0010  176.1950  145.3130 N   0  0  2  0  0  0  0  0  0  0  0  0
  188.8060  177.0990  143.3800 O   0  0  0  0  0  0  0  0  0  0  0  0
  187.7430  177.8310  142.8430 C   0  0  0  0  0  2  0  0  0  0  0  0
  185.3720  179.6460  143.8840 O   0  0  0  0  0  0  0  0  0  0  0  0
  185.3000  177.5410  142.8780 C   0  0  0  0  0  2  0  0  0  0  0  0
  186.5180  177.6830  143.7290 C   0  0  2  0  0  3  0  0  0  0  0  0
  184.4880  178.7290  143.2990 C   0  0  0  0  0  2  0  0  0  0  0  0
  186.3200  178.8940  144.5130 N   0  0  0  0  0  2  0  0  0  0  0  0
  1 26  1  6  0  0  0
  3 16  1  0  0  0  0
  3 19  1  0  0  0  0
  4 23  1  6  0  0  0
  5 11  1  6  0  0  0
  5 15  1  0  0  0  0
  6 19  1  0  0  0  0
  7  3  2  0  0  0  0
  8 12  2  0  0  0  0
  9 25  1  0  0  0  0
  9 27  1  0  0  0  0
 10 22  1  0  0  0  0
 10 17  1  0  0  0  0
 11 20  1  0  0  0  0
 13 20  1  0  0  0  0
 13  9  1  0  0  0  0
 14  2  1  0  0  0  0
 15 12  1  0  0  0  0
 15  4  1  0  0  0  0
 16  8  1  0  0  0  0
 17 25  1  0  0  0  0
 18  4  1  0  0  0  0
 18  1  1  0  0  0  0
 19  5  1  0  0  0  0
 20 18  1  0  0  0  0
 22 24  1  0  0  0  0
 23 21  1  0  0  0  0
 24 13  1  0  0  0  0
 25 14  1  0  0  0  0
 26 21  1  0  0  0  0
 27  1  1  0  0  0  0
 27  2  1  0  0  0  0
 28 17  1  0  0  0  0
 29 28  1  0  0  0  0
 29 32  1  0  0  0  0
 30 34  1  0  0  0  0
 31 33  1  0  0  0  0
 31 32  1  0  0  0  0
 32 34  1  0  0  0  0
 33 30  1  0  0  0  0
M  END
>  <MODEL>
7

>  <REMARK>
 VINA RESULT:      -7.4      1.933      8.523
  Name = 
  3 active torsions:
  status: ('A' for Active; 'I' for Inactive)
    1  A    between atoms: C_17  and  O_28
    2  A    between atoms: O_28  and  C_29
    3  A    between atoms: C_29  and  C_32
                            x       y       z     vdW  Elec       q    Type
                         _______ _______ _______ _____ _____    ______ ____

>  <TORSDO>
F 3

$$$$
=
 OpenBabel11112418063D

 34 40  0  0  1  0  0  0  0  0999 V2000
  192.1550  171.9720  143.4090 C   0  0  1  0  0  3  0  0  0  0  0  0
  194.3420  171.0030  143.8530 C   0  0  0  0  0  2  0  0  0  0  0  0
  188.7120  177.2980  142.4470 C   0  0  0  0  0  0  0  0  0  0  0  0
  189.9950  173.1340  142.8740 C   0  0  2  0  0  3  0  0  0  0  0  0
  189.5940  175.3980  143.9190 C   0  0  2  0  0  3  0  0  0  0  0  0
  189.4040  177.7990  144.8360 C   0  0  0  0  0  1  0  0  0  0  0  0
  189.3940  178.2760  142.0380 O   0  0  0  0  0  0  0  0  0  0  0  0
  187.1900  175.3860  141.7970 C   0  0  0  0  0  3  0  0  0  0  0  0
  193.7030  172.9220  144.8600 C   0  0  2  0  0  3  0  0  0  0  0  0
  195.7400  175.2990  145.3890 C   0  0  0  0  0  2  0  0  0  0  0  0
  191.1070  175.5090  144.1170 C   0  0  0  0  0  2  0  0  0  0  0  0
  187.8800  174.3800  142.3470 C   0  0  0  0  0  3  0  0  0  0  0  0
  193.0860  174.3270  144.7470 C   0  0  1  0  0  3  0  0  0  0  0  0
  195.5480  171.4330  144.6850 C   0  0  0  0  0  2  0  0  0  0  0  0
  189.3350  174.5030  142.6940 C   0  0  2  0  0  3  0  0  0  0  0  0
  187.7520  176.6900  141.5750 N   0  0  0  0  0  2  0  0  0  0  0  0
  196.0680  173.9160  144.7920 C   0  0  1  0  0  3  0  0  0  0  0  0
  191.4810  173.3420  143.2250 C   0  0  1  0  0  3  0  0  0  0  0  0
  188.8890  176.7660  143.8420 C   0  0  1  0  0  3  0  0  0  0  0  0
  191.6510  174.1860  144.4280 N   0  0  2  0  0  0  0  0  0  0  0  0
  190.3680  171.0970  141.9330 C   0  0  0  0  0  2  0  0  0  0  0  0
  194.7250  175.2580  146.5330 C   0  0  0  0  0  2  0  0  0  0  0  0
  189.9020  172.4010  141.6720 O   0  0  0  0  0  0  0  0  0  0  0  0
  193.2730  175.1330  146.0470 C   0  0  0  0  0  2  0  0  0  0  0  0
  195.1530  172.7750  145.2890 C   0  0  1  0  0  3  0  0  0  0  0  0
  191.8790  171.1160  142.1740 C   0  0  0  0  0  2  0  0  0  0  0  0
  193.5810  172.2170  143.5990 N   0  0  2  0  0  0  0  0  0  0  0  0
  196.0610  174.0010  143.3950 O   0  0  0  0  0  0  0  0  0  0  0  0
  196.2280  175.3580  143.1120 C   0  0  0  0  0  2  0  0  0  0  0  0
  196.3480  175.7600  139.9770 O   0  0  0  0  0  0  0  0  0  0  0  0
  194.8160  174.5560  141.2630 C   0  0  0  0  0  2  0  0  0  0  0  0
  195.2870  175.7700  141.9930 C   0  0  2  0  0  3  0  0  0  0  0  0
  195.3150  174.8180  139.8740 C   0  0  0  0  0  2  0  0  0  0  0  0
  195.9990  176.5770  141.0130 N   0  0  0  0  0  2  0  0  0  0  0  0
  1 26  1  6  0  0  0
  1 27  1  0  0  0  0
  2 14  1  0  0  0  0
  3 19  1  0  0  0  0
  4 23  1  6  0  0  0
  4 18  1  0  0  0  0
  5 11  1  6  0  0  0
  7  3  2  0  0  0  0
  8 12  2  0  0  0  0
  9 25  1  0  0  0  0
 10 22  1  0  0  0  0
 11 20  1  0  0  0  0
 12 15  1  0  0  0  0
 13  9  1  0  0  0  0
 13 24  1  0  0  0  0
 14 25  1  0  0  0  0
 15  4  1  0  0  0  0
 15  5  1  0  0  0  0
 16  8  1  0  0  0  0
 16  3  1  0  0  0  0
 17 25  1  0  0  0  0
 17 10  1  0  0  0  0
 18  1  1  0  0  0  0
 18 20  1  0  0  0  0
 19  5  1  0  0  0  0
 19  6  1  0  0  0  0
 20 13  1  0  0  0  0
 21 26  1  0  0  0  0
 23 21  1  0  0  0  0
 24 22  1  0  0  0  0
 27  2  1  0  0  0  0
 27  9  1  0  0  0  0
 28 17  1  0  0  0  0
 29 28  1  0  0  0  0
 30 34  1  0  0  0  0
 31 32  1  0  0  0  0
 32 29  1  0  0  0  0
 33 30  1  0  0  0  0
 33 31  1  0  0  0  0
 34 32  1  0  0  0  0
M  END
>  <MODEL>
8

>  <REMARK>
 VINA RESULT:      -7.3      2.583      3.724
  Name = 
  3 active torsions:
  status: ('A' for Active; 'I' for Inactive)
    1  A    between atoms: C_17  and  O_28
    2  A    between atoms: O_28  and  C_29
    3  A    between atoms: C_29  and  C_32
                            x       y       z     vdW  Elec       q    Type
                         _______ _______ _______ _____ _____    ______ ____

>  <TORSDO>
F 3

$$$$
=
 OpenBabel11112418063D

 34 40  0  0  1  0  0  0  0  0999 V2000
  190.0120  172.2320  142.7650 C   0  0  1  0  0  3  0  0  0  0  0  0
  190.3090  173.0880  145.0220 C   0  0  0  0  0  2  0  0  0  0  0  0
  189.8120  173.5350  136.4870 C   0  0  0  0  0  0  0  0  0  0  0  0
  189.8100  171.5110  140.3690 C   0  0  2  0  0  3  0  0  0  0  0  0
  188.7040  173.1070  138.7550 C   0  0  2  0  0  3  0  0  0  0  0  0
  187.7880  174.9100  137.1580 C   0  0  0  0  0  1  0  0  0  0  0  0
  190.4290  174.5870  136.1680 O   0  0  0  0  0  0  0  0  0  0  0  0
  189.9130  171.0140  136.6480 C   0  0  0  0  0  3  0  0  0  0  0  0
  189.1580  174.2720  143.4810 C   0  0  2  0  0  3  0  0  0  0  0  0
  189.3440  177.4380  143.3130 C   0  0  0  0  0  2  0  0  0  0  0  0
  189.0170  174.2310  139.7440 C   0  0  0  0  0  2  0  0  0  0  0  0
  189.6170  170.8800  137.9460 C   0  0  0  0  0  3  0  0  0  0  0  0
  189.0680  174.8420  142.0540 C   0  0  1  0  0  3  0  0  0  0  0  0
  189.9240  174.3860  145.7280 C   0  0  0  0  0  2  0  0  0  0  0  0
  189.7700  172.0090  138.9230 C   0  0  2  0  0  3  0  0  0  0  0  0
  190.3150  172.2630  136.0630 N   0  0  0  0  0  2  0  0  0  0  0  0
  190.0080  176.5270  144.3640 C   0  0  1  0  0  3  0  0  0  0  0  0
  189.9700  172.7220  141.3070 C   0  0  1  0  0  3  0  0  0  0  0  0
  188.5520  173.5990  137.3030 C   0  0  1  0  0  3  0  0  0  0  0  0
  188.8960  173.7190  141.1100 N   0  0  2  0  0  0  0  0  0  0  0  0
  190.8110  170.0820  141.8290 C   0  0  0  0  0  2  0  0  0  0  0  0
  187.9280  177.0070  142.9220 C   0  0  0  0  0  2  0  0  0  0  0  0
  190.9100  170.6430  140.5410 O   0  0  0  0  0  0  0  0  0  0  0  0
  187.9070  175.8450  141.9180 C   0  0  0  0  0  2  0  0  0  0  0  0
  189.2310  175.2250  144.6620 C   0  0  1  0  0  3  0  0  0  0  0  0
  191.0820  171.1490  142.8920 C   0  0  0  0  0  2  0  0  0  0  0  0
  190.3040  173.3920  143.6000 N   0  0  2  0  0  0  0  0  0  0  0  0
  191.3250  176.2540  143.9770 O   0  0  0  0  0  0  0  0  0  0  0  0
  192.0930  177.2640  144.5610 C   0  0  0  0  0  2  0  0  0  0  0  0
  193.0830  175.2520  146.7910 O   0  0  0  0  0  0  0  0  0  0  0  0
  193.5870  175.3090  144.5120 C   0  0  0  0  0  2  0  0  0  0  0  0
  193.4100  176.6890  145.0530 C   0  0  2  0  0  3  0  0  0  0  0  0
  193.6660  174.4930  145.7670 C   0  0  0  0  0  2  0  0  0  0  0  0
  193.3840  176.5510  146.5020 N   0  0  0  0  0  2  0  0  0  0  0  0
  1 26  1  6  0  0  0
  1 27  1  0  0  0  0
  2 14  1  0  0  0  0
  3 19  1  0  0  0  0
  4 23  1  6  0  0  0
  4 18  1  0  0  0  0
  5 15  1  0  0  0  0
  5 11  1  1  0  0  0
  6 19  1  0  0  0  0
  7  3  2  0  0  0  0
  8 12  2  0  0  0  0
  9 27  1  0  0  0  0
  9 25  1  0  0  0  0
 10 17  1  0  0  0  0
 11 20  1  0  0  0  0
 12 15  1  0  0  0  0
 13  9  1  0  0  0  0
 15  4  1  0  0  0  0
 16  3  1  0  0  0  0
 16  8  1  0  0  0  0
 17 25  1  0  0  0  0
 18  1  1  0  0  0  0
 19  5  1  0  0  0  0
 20 18  1  0  0  0  0
 20 13  1  0  0  0  0
 21 26  1  0  0  0  0
 22 10  1  0  0  0  0
 23 21  1  0  0  0  0
 24 13  1  0  0  0  0
 24 22  1  0  0  0  0
 25 14  1  0  0  0  0
 27  2  1  0  0  0  0
 28 17  1  0  0  0  0
 28 29  1  0  0  0  0
 29 32  1  0  0  0  0
 31 32  1  0  0  0  0
 31 33  1  0  0  0  0
 32 34  1  0  0  0  0
 33 30  1  0  0  0  0
 34 30  1  0  0  0  0
M  END
>  <MODEL>
9

>  <REMARK>
 VINA RESULT:      -7.2      3.381      6.280
  Name = 
  3 active torsions:
  status: ('A' for Active; 'I' for Inactive)
    1  A    between atoms: C_17  and  O_28
    2  A    between atoms: O_28  and  C_29
    3  A    between atoms: C_29  and  C_32
                            x       y       z     vdW  Elec       q    Type
                         _______ _______ _______ _____ _____    ______ ____

>  <TORSDO>
F 3

$$$$
