=
 OpenBabel11112416333D

 32 37  0  0  1  0  0  0  0  0999 V2000
  191.8070  174.3780  145.4420 C   0  0  0  0  0  2  0  0  0  0  0  0
  187.9130  177.3040  143.5850 C   0  0  1  0  0  3  0  0  0  0  0  0
  185.9410  177.8550  148.1610 C   0  0  0  0  0  2  0  0  0  0  0  0
  184.9630  178.6600  147.5550 O   0  0  0  0  0  0  0  0  0  0  0  0
  186.3080  177.6370  141.6840 C   0  0  0  0  0  0  0  0  0  0  0  0
  185.0220  177.8890  141.2420 C   0  0  0  0  0  0  0  0  0  0  0  0
  189.6370  175.5240  143.9310 C   0  0  1  0  0  3  0  0  0  0  0  0
  189.4560  177.5090  145.5060 C   0  0  0  0  0  2  0  0  0  0  0  0
  182.8470  178.3330  141.4140 C   0  0  0  0  0  0  0  0  0  0  0  0
  191.2880  175.7670  145.8530 C   0  0  2  0  0  3  0  0  0  0  0  0
  187.2440  177.9610  147.3690 C   0  0  0  0  0  2  0  0  0  0  0  0
  188.1080  177.6950  144.9810 N   0  0  0  0  0  0  0  0  0  0  0  0
  186.9950  177.8280  145.8820 C   0  0  0  0  0  0  0  0  0  0  0  0
  185.4960  177.8760  143.9730 N   0  0  0  0  0  0  0  0  0  0  0  0
  183.1440  178.2380  140.0950 N   0  0  0  0  0  0  0  0  0  0  0  0
  190.6860  173.4400  145.0000 C   0  0  0  0  0  2  0  0  0  0  0  0
  189.8490  176.0350  145.3710 C   0  0  2  0  0  3  0  0  0  0  0  0
  184.4720  177.9660  139.9790 C   0  0  0  0  0  3  0  0  0  0  0  0
  189.9280  174.0230  143.8030 C   0  0  0  0  0  2  0  0  0  0  0  0
  184.5880  177.9950  146.3740 C   0  0  0  0  0  2  0  0  0  0  0  0
  185.7430  177.9180  145.3950 C   0  0  0  0  0  0  0  0  0  0  0  0
  184.2190  178.1210  143.5290 C   0  0  0  0  0  3  0  0  0  0  0  0
  188.2180  175.8140  143.4410 C   0  0  0  0  0  2  0  0  0  0  0  0
  187.3370  177.3990  140.7780 O   0  0  0  0  0  1  0  0  0  0  0  0
  181.4840  178.6230  141.9360 C   0  0  0  0  0  1  0  0  0  0  0  0
  186.5320  177.6270  143.0830 C   0  0  0  0  0  0  0  0  0  0  0  0
  183.9730  178.1260  142.1680 C   0  0  0  0  0  0  0  0  0  0  0  0
  192.1690  176.7400  145.3690 O   0  0  0  0  0  0  0  0  0  0  0  0
  193.2930  176.0290  144.9430 C   0  0  0  0  0  2  0  0  0  0  0  0
  194.5230  176.7870  145.2960 C   0  0  0  0  0  0  0  0  0  0  0  0
  194.5680  177.5300  146.4680 O   0  0  0  0  0  1  0  0  0  0  0  0
  195.5090  176.7870  144.5140 O   0  0  0  0  0  0  0  0  0  0  0  0
  1 10  1  0  0  0  0
  2 23  1  1  0  0  0
  2 12  1  0  0  0  0
  4  3  1  0  0  0  0
  5 26  2  0  0  0  0
  6  5  1  0  0  0  0
  6 27  1  0  0  0  0
  7 23  1  1  0  0  0
  7 17  1  0  0  0  0
  9 25  1  0  0  0  0
  9 27  1  0  0  0  0
 10 28  1  6  0  0  0
 11  3  1  0  0  0  0
 12  8  1  0  0  0  0
 12 13  1  0  0  0  0
 13 11  1  0  0  0  0
 14 21  1  0  0  0  0
 15  9  2  0  0  0  0
 16  1  1  0  0  0  0
 17  8  1  6  0  0  0
 17 10  1  0  0  0  0
 18 15  1  0  0  0  0
 18  6  2  0  0  0  0
 19  7  1  0  0  0  0
 19 16  1  0  0  0  0
 20  4  1  0  0  0  0
 21 13  2  0  0  0  0
 21 20  1  0  0  0  0
 22 14  1  0  0  0  0
 24  5  1  0  0  0  0
 26  2  1  0  0  0  0
 26 14  1  0  0  0  0
 27 22  2  0  0  0  0
 29 30  1  0  0  0  0
 29 28  1  0  0  0  0
 30 31  1  0  0  0  0
 32 30  2  0  0  0  0
M  END
>  <MODEL>
1

>  <REMARK>
 VINA RESULT:      -8.9      0.000      0.000
  Name = 
  3 active torsions:
  status: ('A' for Active; 'I' for Inactive)
    1  A    between atoms: C_10  and  O_20
    2  A    between atoms: O_20  and  C_29
    3  A    between atoms: C_29  and  C_30
                            x       y       z     vdW  Elec       q    Type
                         _______ _______ _______ _____ _____    ______ ____

>  <TORSDO>
F 3

$$$$
=
 OpenBabel11112416333D

 32 37  0  0  1  0  0  0  0  0999 V2000
  185.3970  177.8410  145.9980 C   0  0  0  0  0  2  0  0  0  0  0  0
  190.1060  176.1220  144.5670 C   0  0  1  0  0  3  0  0  0  0  0  0
  188.0940  172.5350  141.7010 C   0  0  0  0  0  2  0  0  0  0  0  0
  189.4090  172.1840  141.3560 O   0  0  0  0  0  0  0  0  0  0  0  0
  192.4610  175.6910  145.3210 C   0  0  0  0  0  0  0  0  0  0  0  0
  193.5640  174.8570  145.3620 C   0  0  0  0  0  0  0  0  0  0  0  0
  188.1400  176.9680  145.8630 C   0  0  1  0  0  3  0  0  0  0  0  0
  188.0160  176.6340  143.3480 C   0  0  0  0  0  2  0  0  0  0  0  0
  194.7750  173.0410  144.9290 C   0  0  0  0  0  0  0  0  0  0  0  0
  186.0110  177.5820  144.6110 C   0  0  2  0  0  3  0  0  0  0  0  0
  188.0340  174.0300  142.0110 C   0  0  0  0  0  2  0  0  0  0  0  0
  189.1800  175.7670  143.4910 N   0  0  0  0  0  0  0  0  0  0  0  0
  189.1720  174.4490  142.9170 C   0  0  0  0  0  0  0  0  0  0  0  0
  191.3470  174.0350  143.9150 N   0  0  0  0  0  0  0  0  0  0  0  0
  195.5260  173.8600  145.7060 N   0  0  0  0  0  0  0  0  0  0  0  0
  185.8650  176.8330  147.0450 C   0  0  0  0  0  2  0  0  0  0  0  0
  187.2300  176.6400  144.6630 C   0  0  2  0  0  3  0  0  0  0  0  0
  194.7930  174.9730  145.9770 C   0  0  0  0  0  3  0  0  0  0  0  0
  187.3890  176.8760  147.1990 C   0  0  0  0  0  2  0  0  0  0  0  0
  190.1470  172.2170  142.5530 C   0  0  0  0  0  2  0  0  0  0  0  0
  190.2150  173.6210  143.1190 C   0  0  0  0  0  0  0  0  0  0  0  0
  192.4430  173.2090  143.9630 C   0  0  0  0  0  3  0  0  0  0  0  0
  189.3640  176.0530  145.9010 C   0  0  0  0  0  2  0  0  0  0  0  0
  192.4670  176.9120  145.9870 O   0  0  0  0  0  1  0  0  0  0  0  0
  195.2420  171.7190  144.4270 C   0  0  0  0  0  1  0  0  0  0  0  0
  191.3340  175.2530  144.5820 C   0  0  0  0  0  0  0  0  0  0  0  0
  193.5520  173.6090  144.6860 C   0  0  0  0  0  0  0  0  0  0  0  0
  186.3500  178.8090  144.0300 O   0  0  0  0  0  0  0  0  0  0  0  0
  185.1600  179.2870  143.4780 C   0  0  0  0  0  2  0  0  0  0  0  0
  184.8450  178.5260  142.2400 C   0  0  0  0  0  0  0  0  0  0  0  0
  185.7900  178.4270  141.2270 O   0  0  0  0  0  0  0  0  0  0  0  0
  183.7100  178.0030  142.0930 O   0  0  0  0  0  1  0  0  0  0  0  0
  1 16  1  0  0  0  0
  2 26  1  0  0  0  0
  2 23  1  1  0  0  0
  3 11  1  0  0  0  0
  4  3  1  0  0  0  0
  4 20  1  0  0  0  0
  5  6  1  0  0  0  0
  5 24  1  0  0  0  0
  6 18  2  0  0  0  0
  7 23  1  1  0  0  0
  7 19  1  0  0  0  0
  8 12  1  0  0  0  0
  9 15  2  0  0  0  0
 10 28  1  1  0  0  0
 10 17  1  0  0  0  0
 10  1  1  0  0  0  0
 11 13  1  0  0  0  0
 12  2  1  0  0  0  0
 13 21  2  0  0  0  0
 13 12  1  0  0  0  0
 14 22  1  0  0  0  0
 14 26  1  0  0  0  0
 15 18  1  0  0  0  0
 16 19  1  0  0  0  0
 17  8  1  6  0  0  0
 17  7  1  0  0  0  0
 20 21  1  0  0  0  0
 21 14  1  0  0  0  0
 22 27  2  0  0  0  0
 25  9  1  0  0  0  0
 26  5  2  0  0  0  0
 27  9  1  0  0  0  0
 27  6  1  0  0  0  0
 29 28  1  0  0  0  0
 30 29  1  0  0  0  0
 31 30  2  0  0  0  0
 32 30  1  0  0  0  0
M  END
>  <MODEL>
2

>  <REMARK>
 VINA RESULT:      -8.1      2.797      8.513
  Name = 
  3 active torsions:
  status: ('A' for Active; 'I' for Inactive)
    1  A    between atoms: C_10  and  O_20
    2  A    between atoms: O_20  and  C_29
    3  A    between atoms: C_29  and  C_30
                            x       y       z     vdW  Elec       q    Type
                         _______ _______ _______ _____ _____    ______ ____

>  <TORSDO>
F 3

$$$$
=
 OpenBabel11112416333D

 32 37  0  0  1  0  0  0  0  0999 V2000
  193.0670  172.6220  141.4830 C   0  0  0  0  0  2  0  0  0  0  0  0
  189.5730  176.3220  142.6140 C   0  0  1  0  0  3  0  0  0  0  0  0
  191.0900  176.5100  147.3880 C   0  0  0  0  0  2  0  0  0  0  0  0
  190.1390  177.5270  147.5660 O   0  0  0  0  0  0  0  0  0  0  0  0
  187.2410  177.1510  142.2010 C   0  0  0  0  0  0  0  0  0  0  0  0
  186.0490  177.6500  142.6970 C   0  0  0  0  0  0  0  0  0  0  0  0
  190.7230  174.2770  141.7440 C   0  0  1  0  0  3  0  0  0  0  0  0
  191.9820  176.0250  143.0880 C   0  0  0  0  0  2  0  0  0  0  0  0
  184.6180  178.3810  144.2370 C   0  0  0  0  0  0  0  0  0  0  0  0
  193.2200  174.0010  142.1490 C   0  0  2  0  0  3  0  0  0  0  0  0
  191.5900  176.5320  145.9440 C   0  0  0  0  0  2  0  0  0  0  0  0
  190.6790  176.4800  143.5590 N   0  0  0  0  0  0  0  0  0  0  0  0
  190.4390  176.6480  144.9670 C   0  0  0  0  0  0  0  0  0  0  0  0
  188.1220  177.1840  144.4770 N   0  0  0  0  0  0  0  0  0  0  0  0
  183.9900  178.4290  143.0360 N   0  0  0  0  0  0  0  0  0  0  0  0
  191.7580  171.9310  141.8580 C   0  0  0  0  0  2  0  0  0  0  0  0
  191.8920  174.5430  142.7130 C   0  0  2  0  0  3  0  0  0  0  0  0
  184.8570  177.9830  142.0880 C   0  0  0  0  0  3  0  0  0  0  0  0
  190.5540  172.7810  141.4400 C   0  0  0  0  0  2  0  0  0  0  0  0
  188.9780  177.0970  146.8980 C   0  0  0  0  0  2  0  0  0  0  0  0
  189.2130  176.9890  145.4040 C   0  0  0  0  0  0  0  0  0  0  0  0
  186.9360  177.6750  144.9650 C   0  0  0  0  0  3  0  0  0  0  0  0
  189.4090  174.8380  142.2890 C   0  0  0  0  0  2  0  0  0  0  0  0
  187.3930  176.8930  140.8420 O   0  0  0  0  0  1  0  0  0  0  0  0
  183.9840  178.7930  145.5190 C   0  0  0  0  0  1  0  0  0  0  0  0
  188.2880  176.9120  143.1260 C   0  0  0  0  0  0  0  0  0  0  0  0
  185.8950  177.9060  144.0840 C   0  0  0  0  0  0  0  0  0  0  0  0
  193.7730  174.8920  141.2230 O   0  0  0  0  0  0  0  0  0  0  0  0
  195.1510  174.8190  141.4310 C   0  0  0  0  0  2  0  0  0  0  0  0
  195.6310  176.0940  142.0280 C   0  0  0  0  0  0  0  0  0  0  0  0
  196.0870  177.1170  141.2060 O   0  0  0  0  0  0  0  0  0  0  0  0
  195.6610  176.2340  143.2780 O   0  0  0  0  0  1  0  0  0  0  0  0
  1 16  1  0  0  0  0
  1 10  1  0  0  0  0
  2 23  1  1  0  0  0
  2 26  1  0  0  0  0
  2 12  1  0  0  0  0
  3  4  1  0  0  0  0
  5  6  1  0  0  0  0
  5 26  2  0  0  0  0
  6 27  1  0  0  0  0
  7 19  1  1  0  0  0
  7 23  1  0  0  0  0
  7 17  1  0  0  0  0
  8 12  1  0  0  0  0
  9 25  1  0  0  0  0
 10 28  1  6  0  0  0
 10 17  1  0  0  0  0
 11  3  1  0  0  0  0
 12 13  1  0  0  0  0
 13 21  2  0  0  0  0
 13 11  1  0  0  0  0
 14 22  1  0  0  0  0
 14 21  1  0  0  0  0
 15  9  2  0  0  0  0
 17  8  1  6  0  0  0
 18  6  2  0  0  0  0
 18 15  1  0  0  0  0
 19 16  1  0  0  0  0
 20  4  1  0  0  0  0
 21 20  1  0  0  0  0
 24  5  1  0  0  0  0
 26 14  1  0  0  0  0
 27  9  1  0  0  0  0
 27 22  2  0  0  0  0
 28 29  1  0  0  0  0
 29 30  1  0  0  0  0
 30 32  1  0  0  0  0
 31 30  2  0  0  0  0
M  END
>  <MODEL>
3

>  <REMARK>
 VINA RESULT:      -7.8      2.294      3.558
  Name = 
  3 active torsions:
  status: ('A' for Active; 'I' for Inactive)
    1  A    between atoms: C_10  and  O_20
    2  A    between atoms: O_20  and  C_29
    3  A    between atoms: C_29  and  C_30
                            x       y       z     vdW  Elec       q    Type
                         _______ _______ _______ _____ _____    ______ ____

>  <TORSDO>
F 3

$$$$
=
 OpenBabel11112416333D

 32 37  0  0  1  0  0  0  0  0999 V2000
  195.1230  174.8690  145.1330 C   0  0  0  0  0  2  0  0  0  0  0  0
  189.9440  175.4210  144.9240 C   0  0  1  0  0  3  0  0  0  0  0  0
  189.8100  173.8080  140.1790 C   0  0  0  0  0  2  0  0  0  0  0  0
  188.4170  173.9590  140.2510 O   0  0  0  0  0  0  0  0  0  0  0  0
  187.9900  176.8300  145.6280 C   0  0  0  0  0  0  0  0  0  0  0  0
  186.8020  177.4630  145.3080 C   0  0  0  0  0  0  0  0  0  0  0  0
  192.3900  175.7590  145.3290 C   0  0  1  0  0  3  0  0  0  0  0  0
  191.5140  173.6320  144.2520 C   0  0  0  0  0  2  0  0  0  0  0  0
  185.0970  178.0900  144.0220 C   0  0  0  0  0  0  0  0  0  0  0  0
  194.0090  173.8910  144.7240 C   0  0  2  0  0  3  0  0  0  0  0  0
  190.3560  173.4780  141.5690 C   0  0  0  0  0  2  0  0  0  0  0  0
  190.2990  174.3830  143.9560 N   0  0  0  0  0  0  0  0  0  0  0  0
  189.7650  174.3920  142.6210 C   0  0  0  0  0  0  0  0  0  0  0  0
  188.0650  175.9670  143.3460 N   0  0  0  0  0  0  0  0  0  0  0  0
  184.9100  178.6370  145.2480 N   0  0  0  0  0  0  0  0  0  0  0  0
  194.8230  176.3080  144.7210 C   0  0  0  0  0  2  0  0  0  0  0  0
  192.6930  174.6040  144.3540 C   0  0  2  0  0  3  0  0  0  0  0  0
  185.9480  178.2600  146.0420 C   0  0  0  0  0  3  0  0  0  0  0  0
  193.5200  176.7970  145.3640 C   0  0  0  0  0  2  0  0  0  0  0  0
  188.1910  175.1870  140.9010 C   0  0  0  0  0  2  0  0  0  0  0  0
  188.6910  175.1510  142.3320 C   0  0  0  0  0  0  0  0  0  0  0  0
  186.8880  176.6010  143.0320 C   0  0  0  0  0  3  0  0  0  0  0  0
  191.0710  176.4500  144.9810 C   0  0  0  0  0  2  0  0  0  0  0  0
  188.5330  176.9400  146.9040 O   0  0  0  0  0  1  0  0  0  0  0  0
  184.1620  178.2790  142.8790 C   0  0  0  0  0  1  0  0  0  0  0  0
  188.6260  176.0750  144.6110 C   0  0  0  0  0  0  0  0  0  0  0  0
  186.2530  177.3530  144.0040 C   0  0  0  0  0  0  0  0  0  0  0  0
  193.8070  172.9740  145.7610 O   0  0  0  0  0  0  0  0  0  0  0  0
  194.8180  172.0240  145.6040 C   0  0  0  0  0  2  0  0  0  0  0  0
  194.2110  170.6810  145.4060 C   0  0  0  0  0  0  0  0  0  0  0  0
  193.2270  170.4990  144.4430 O   0  0  0  0  0  0  0  0  0  0  0  0
  194.5590  169.7170  146.1370 O   0  0  0  0  0  1  0  0  0  0  0  0
  2 23  1  6  0  0  0
  3  4  1  0  0  0  0
  3 11  1  0  0  0  0
  4 20  1  0  0  0  0
  5 24  1  0  0  0  0
  6  5  1  0  0  0  0
  6 18  2  0  0  0  0
  7 23  1  6  0  0  0
  7 19  1  0  0  0  0
  9 15  2  0  0  0  0
 10  1  1  0  0  0  0
 10 28  1  1  0  0  0
 11 13  1  0  0  0  0
 12  8  1  0  0  0  0
 12  2  1  0  0  0  0
 13 12  1  0  0  0  0
 14 26  1  0  0  0  0
 15 18  1  0  0  0  0
 16  1  1  0  0  0  0
 16 19  1  0  0  0  0
 17  8  1  1  0  0  0
 17 10  1  0  0  0  0
 17  7  1  0  0  0  0
 20 21  1  0  0  0  0
 21 13  2  0  0  0  0
 21 14  1  0  0  0  0
 22 14  1  0  0  0  0
 22 27  2  0  0  0  0
 25  9  1  0  0  0  0
 26  2  1  0  0  0  0
 26  5  2  0  0  0  0
 27  9  1  0  0  0  0
 27  6  1  0  0  0  0
 29 28  1  0  0  0  0
 30 29  1  0  0  0  0
 30 32  1  0  0  0  0
 31 30  2  0  0  0  0
M  END
>  <MODEL>
4

>  <REMARK>
 VINA RESULT:      -7.8      2.816      5.277
  Name = 
  3 active torsions:
  status: ('A' for Active; 'I' for Inactive)
    1  A    between atoms: C_10  and  O_20
    2  A    between atoms: O_20  and  C_29
    3  A    between atoms: C_29  and  C_30
                            x       y       z     vdW  Elec       q    Type
                         _______ _______ _______ _____ _____    ______ ____

>  <TORSDO>
F 3

$$$$
=
 OpenBabel11112416333D

 32 37  0  0  1  0  0  0  0  0999 V2000
  195.6740  173.4500  145.5060 C   0  0  0  0  0  2  0  0  0  0  0  0
  190.5650  174.4790  145.4090 C   0  0  1  0  0  3  0  0  0  0  0  0
  190.3640  173.7900  140.4470 C   0  0  0  0  0  2  0  0  0  0  0  0
  188.9880  174.0460  140.5480 O   0  0  0  0  0  0  0  0  0  0  0  0
  188.7280  175.8980  146.3640 C   0  0  0  0  0  0  0  0  0  0  0  0
  187.6040  176.6800  146.1690 C   0  0  0  0  0  0  0  0  0  0  0  0
  193.0240  174.5230  145.8670 C   0  0  1  0  0  3  0  0  0  0  0  0
  191.9860  172.7160  144.4140 C   0  0  0  0  0  2  0  0  0  0  0  0
  185.9780  177.6800  145.0240 C   0  0  0  0  0  0  0  0  0  0  0  0
  194.4860  172.6650  144.9230 C   0  0  2  0  0  3  0  0  0  0  0  0
  190.8590  173.1630  141.7510 C   0  0  0  0  0  2  0  0  0  0  0  0
  190.8440  173.6110  144.2640 N   0  0  0  0  0  0  0  0  0  0  0  0
  190.3330  173.9140  142.9550 C   0  0  0  0  0  0  0  0  0  0  0  0
  188.7630  175.4700  143.9620 N   0  0  0  0  0  0  0  0  0  0  0  0
  185.8200  178.0050  146.3300 N   0  0  0  0  0  0  0  0  0  0  0  0
  195.5040  174.9610  145.3680 C   0  0  0  0  0  2  0  0  0  0  0  0
  193.2420  173.5460  144.6940 C   0  0  2  0  0  3  0  0  0  0  0  0
  186.8100  177.3990  147.0390 C   0  0  0  0  0  3  0  0  0  0  0  0
  194.2380  175.4350  146.0920 C   0  0  0  0  0  2  0  0  0  0  0  0
  188.8590  175.1470  141.4140 C   0  0  0  0  0  2  0  0  0  0  0  0
  189.3320  174.8040  142.8130 C   0  0  0  0  0  0  0  0  0  0  0  0
  187.6500  176.2500  143.7720 C   0  0  0  0  0  3  0  0  0  0  0  0
  191.7750  175.3790  145.6540 C   0  0  0  0  0  2  0  0  0  0  0  0
  189.2600  175.7230  147.6380 O   0  0  0  0  0  1  0  0  0  0  0  0
  185.0800  178.1580  143.9370 C   0  0  0  0  0  1  0  0  0  0  0  0
  189.3120  175.2920  145.2240 C   0  0  0  0  0  0  0  0  0  0  0  0
  187.0670  176.8620  144.8680 C   0  0  0  0  0  0  0  0  0  0  0  0
  194.1910  171.5930  145.7720 O   0  0  0  0  0  0  0  0  0  0  0  0
  194.8950  170.5100  145.2430 C   0  0  0  0  0  2  0  0  0  0  0  0
  195.5920  169.7870  146.3400 C   0  0  0  0  0  0  0  0  0  0  0  0
  194.8830  168.9190  147.1590 O   0  0  0  0  0  1  0  0  0  0  0  0
  196.8160  169.9900  146.5510 O   0  0  0  0  0  0  0  0  0  0  0  0
  2 23  1  6  0  0  0
  3  4  1  0  0  0  0
  3 11  1  0  0  0  0
  4 20  1  0  0  0  0
  5 24  1  0  0  0  0
  6  5  1  0  0  0  0
  6 18  2  0  0  0  0
  7 23  1  6  0  0  0
  7 19  1  0  0  0  0
  9 15  2  0  0  0  0
 10  1  1  0  0  0  0
 10 28  1  1  0  0  0
 11 13  1  0  0  0  0
 12  8  1  0  0  0  0
 12  2  1  0  0  0  0
 13 12  1  0  0  0  0
 14 26  1  0  0  0  0
 15 18  1  0  0  0  0
 16  1  1  0  0  0  0
 16 19  1  0  0  0  0
 17  8  1  1  0  0  0
 17 10  1  0  0  0  0
 17  7  1  0  0  0  0
 20 21  1  0  0  0  0
 21 13  2  0  0  0  0
 21 14  1  0  0  0  0
 22 14  1  0  0  0  0
 22 27  2  0  0  0  0
 25  9  1  0  0  0  0
 26  2  1  0  0  0  0
 26  5  2  0  0  0  0
 27  9  1  0  0  0  0
 27  6  1  0  0  0  0
 29 28  1  0  0  0  0
 29 30  1  0  0  0  0
 30 32  2  0  0  0  0
 30 31  1  0  0  0  0
M  END
>  <MODEL>
5

>  <REMARK>
 VINA RESULT:      -7.7      3.313      5.989
  Name = 
  3 active torsions:
  status: ('A' for Active; 'I' for Inactive)
    1  A    between atoms: C_10  and  O_20
    2  A    between atoms: O_20  and  C_29
    3  A    between atoms: C_29  and  C_30
                            x       y       z     vdW  Elec       q    Type
                         _______ _______ _______ _____ _____    ______ ____

>  <TORSDO>
F 3

$$$$
=
 OpenBabel11112416333D

 32 37  0  0  1  0  0  0  0  0999 V2000
  185.2590  178.5860  143.6650 C   0  0  0  0  0  2  0  0  0  0  0  0
  188.6010  174.8110  142.3400 C   0  0  1  0  0  3  0  0  0  0  0  0
  192.4350  177.2520  144.4550 C   0  0  0  0  0  2  0  0  0  0  0  0
  193.2330  176.1600  144.0800 O   0  0  0  0  0  0  0  0  0  0  0  0
  189.2390  173.1490  140.5710 C   0  0  0  0  0  0  0  0  0  0  0  0
  190.2190  172.5460  139.8020 C   0  0  0  0  0  0  0  0  0  0  0  0
  186.7790  176.5260  142.3430 C   0  0  1  0  0  3  0  0  0  0  0  0
  188.1750  176.0830  144.4180 C   0  0  0  0  0  2  0  0  0  0  0  0
  192.2780  172.1230  139.0710 C   0  0  0  0  0  0  0  0  0  0  0  0
  186.2710  177.7790  144.4990 C   0  0  2  0  0  3  0  0  0  0  0  0
  191.0050  176.7730  144.7010 C   0  0  0  0  0  2  0  0  0  0  0  0
  189.1510  175.4670  143.5270 N   0  0  0  0  0  0  0  0  0  0  0  0
  190.5330  175.8600  143.5890 C   0  0  0  0  0  0  0  0  0  0  0  0
  190.9980  174.4140  141.6950 N   0  0  0  0  0  0  0  0  0  0  0  0
  191.4230  171.3460  138.3620 N   0  0  0  0  0  0  0  0  0  0  0  0
  185.7640  178.8820  142.2550 C   0  0  0  0  0  2  0  0  0  0  0  0
  187.3670  177.1230  143.6370 C   0  0  2  0  0  3  0  0  0  0  0  0
  190.1610  171.5980  138.8010 C   0  0  0  0  0  3  0  0  0  0  0  0
  186.0540  177.5820  141.4960 C   0  0  0  0  0  2  0  0  0  0  0  0
  192.8540  175.8330  142.7650 C   0  0  0  0  0  2  0  0  0  0  0  0
  191.4180  175.3510  142.7120 C   0  0  0  0  0  0  0  0  0  0  0  0
  191.9660  173.8160  140.9260 C   0  0  0  0  0  3  0  0  0  0  0  0
  187.8610  175.8500  141.4990 C   0  0  0  0  0  2  0  0  0  0  0  0
  187.8980  172.8220  140.3990 O   0  0  0  0  0  1  0  0  0  0  0  0
  193.7530  172.1250  138.8730 C   0  0  0  0  0  1  0  0  0  0  0  0
  189.6550  174.1070  141.5290 C   0  0  0  0  0  0  0  0  0  0  0  0
  191.5860  172.8850  139.9760 C   0  0  0  0  0  0  0  0  0  0  0  0
  185.5780  176.8200  145.2450 O   0  0  0  0  0  0  0  0  0  0  0  0
  184.8030  177.5540  146.1450 C   0  0  0  0  0  2  0  0  0  0  0  0
  185.6410  177.9610  147.3050 C   0  0  0  0  0  0  0  0  0  0  0  0
  185.7760  179.3050  147.6260 O   0  0  0  0  0  0  0  0  0  0  0  0
  186.2580  177.0910  147.9730 O   0  0  0  0  0  1  0  0  0  0  0  0
  1 10  1  0  0  0  0
  2 23  1  6  0  0  0
  2 12  1  0  0  0  0
  3 11  1  0  0  0  0
  4  3  1  0  0  0  0
  5 26  2  0  0  0  0
  6 27  1  0  0  0  0
  6  5  1  0  0  0  0
  7 19  1  6  0  0  0
  7 17  1  0  0  0  0
  9 27  1  0  0  0  0
 10 28  1  6  0  0  0
 12 13  1  0  0  0  0
 12  8  1  0  0  0  0
 13 11  1  0  0  0  0
 14 21  1  0  0  0  0
 15 18  1  0  0  0  0
 15  9  2  0  0  0  0
 16  1  1  0  0  0  0
 17  8  1  1  0  0  0
 17 10  1  0  0  0  0
 18  6  2  0  0  0  0
 19 16  1  0  0  0  0
 20  4  1  0  0  0  0
 21 20  1  0  0  0  0
 21 13  2  0  0  0  0
 22 14  1  0  0  0  0
 23  7  1  0  0  0  0
 24  5  1  0  0  0  0
 25  9  1  0  0  0  0
 26 14  1  0  0  0  0
 26  2  1  0  0  0  0
 27 22  2  0  0  0  0
 28 29  1  0  0  0  0
 29 30  1  0  0  0  0
 30 31  2  0  0  0  0
 30 32  1  0  0  0  0
M  END
>  <MODEL>
6

>  <REMARK>
 VINA RESULT:      -7.5      3.420      7.549
  Name = 
  3 active torsions:
  status: ('A' for Active; 'I' for Inactive)
    1  A    between atoms: C_10  and  O_20
    2  A    between atoms: O_20  and  C_29
    3  A    between atoms: C_29  and  C_30
                            x       y       z     vdW  Elec       q    Type
                         _______ _______ _______ _____ _____    ______ ____

>  <TORSDO>
F 3

$$$$
=
 OpenBabel11112416333D

 32 37  0  0  1  0  0  0  0  0999 V2000
  187.6530  176.1370  146.8950 C   0  0  0  0  0  2  0  0  0  0  0  0
  191.8640  176.2480  143.8230 C   0  0  1  0  0  3  0  0  0  0  0  0
  189.6770  173.2430  140.4590 C   0  0  0  0  0  2  0  0  0  0  0  0
  190.8480  173.3770  139.6970 O   0  0  0  0  0  0  0  0  0  0  0  0
  194.3720  176.2710  143.7630 C   0  0  0  0  0  0  0  0  0  0  0  0
  195.5550  175.7910  143.2280 C   0  0  0  0  0  0  0  0  0  0  0  0
  190.3100  176.1170  145.7810 C   0  0  1  0  0  3  0  0  0  0  0  0
  189.4360  176.5060  143.4280 C   0  0  0  0  0  2  0  0  0  0  0  0
  196.8520  174.5770  141.8880 C   0  0  0  0  0  0  0  0  0  0  0  0
  187.8180  176.4680  145.4020 C   0  0  2  0  0  3  0  0  0  0  0  0
  189.4650  174.5100  141.2880 C   0  0  0  0  0  2  0  0  0  0  0  0
  190.7140  175.9850  142.9580 N   0  0  0  0  0  0  0  0  0  0  0  0
  190.7460  174.9380  141.9710 C   0  0  0  0  0  0  0  0  0  0  0  0
  193.1640  174.8580  142.1820 N   0  0  0  0  0  0  0  0  0  0  0  0
  197.6620  175.3070  142.6940 N   0  0  0  0  0  0  0  0  0  0  0  0
  188.6010  175.0350  147.3610 C   0  0  0  0  0  2  0  0  0  0  0  0
  189.1300  175.9180  144.8090 C   0  0  2  0  0  3  0  0  0  0  0  0
  196.8780  176.0520  143.5180 C   0  0  0  0  0  3  0  0  0  0  0  0
  190.0620  175.4410  147.1370 C   0  0  0  0  0  2  0  0  0  0  0  0
  191.9180  173.2590  140.6030 C   0  0  0  0  0  2  0  0  0  0  0  0
  191.9230  174.4020  141.5980 C   0  0  0  0  0  0  0  0  0  0  0  0
  194.3400  174.3820  141.6570 C   0  0  0  0  0  3  0  0  0  0  0  0
  191.6180  175.5970  145.1830 C   0  0  0  0  0  2  0  0  0  0  0  0
  194.3850  177.2000  144.7980 O   0  0  0  0  0  1  0  0  0  0  0  0
  197.3500  173.6360  140.8470 C   0  0  0  0  0  1  0  0  0  0  0  0
  193.1590  175.7780  143.2210 C   0  0  0  0  0  0  0  0  0  0  0  0
  195.5380  174.8390  142.1760 C   0  0  0  0  0  0  0  0  0  0  0  0
  187.7350  177.8540  145.2330 O   0  0  0  0  0  0  0  0  0  0  0  0
  186.3670  178.1290  145.1790 C   0  0  0  0  0  2  0  0  0  0  0  0
  186.0900  179.0480  144.0430 C   0  0  0  0  0  0  0  0  0  0  0  0
  186.4620  178.6910  142.7540 O   0  0  0  0  0  0  0  0  0  0  0  0
  185.5530  180.1670  144.2540 O   0  0  0  0  0  1  0  0  0  0  0  0
  1 16  1  0  0  0  0
  2 23  1  1  0  0  0
  3 11  1  0  0  0  0
  4  3  1  0  0  0  0
  4 20  1  0  0  0  0
  5 24  1  0  0  0  0
  6 18  2  0  0  0  0
  6  5  1  0  0  0  0
  7 23  1  6  0  0  0
  7 19  1  0  0  0  0
  9 27  1  0  0  0  0
  9 15  2  0  0  0  0
 10 28  1  1  0  0  0
 10  1  1  0  0  0  0
 11 13  1  0  0  0  0
 12  8  1  0  0  0  0
 12  2  1  0  0  0  0
 13 12  1  0  0  0  0
 14 26  1  0  0  0  0
 15 18  1  0  0  0  0
 17  8  1  6  0  0  0
 17 10  1  0  0  0  0
 17  7  1  0  0  0  0
 19 16  1  0  0  0  0
 20 21  1  0  0  0  0
 21 13  2  0  0  0  0
 21 14  1  0  0  0  0
 22 27  2  0  0  0  0
 22 14  1  0  0  0  0
 25  9  1  0  0  0  0
 26  5  2  0  0  0  0
 26  2  1  0  0  0  0
 27  6  1  0  0  0  0
 29 28  1  0  0  0  0
 30 32  1  0  0  0  0
 30 29  1  0  0  0  0
 31 30  2  0  0  0  0
M  END
>  <MODEL>
7

>  <REMARK>
 VINA RESULT:      -7.4      3.559      8.782
  Name = 
  3 active torsions:
  status: ('A' for Active; 'I' for Inactive)
    1  A    between atoms: C_10  and  O_20
    2  A    between atoms: O_20  and  C_29
    3  A    between atoms: C_29  and  C_30
                            x       y       z     vdW  Elec       q    Type
                         _______ _______ _______ _____ _____    ______ ____

>  <TORSDO>
F 3

$$$$
=
 OpenBabel11112416333D

 32 37  0  0  1  0  0  0  0  0999 V2000
  191.7590  172.0860  140.2950 C   0  0  0  0  0  2  0  0  0  0  0  0
  188.9340  175.9810  142.3010 C   0  0  1  0  0  3  0  0  0  0  0  0
  190.9190  175.2810  146.8510 C   0  0  0  0  0  2  0  0  0  0  0  0
  190.1400  176.3700  147.2700 O   0  0  0  0  0  0  0  0  0  0  0  0
  186.7090  177.1410  142.2740 C   0  0  0  0  0  0  0  0  0  0  0  0
  185.6520  177.7040  142.9660 C   0  0  0  0  0  0  0  0  0  0  0  0
  189.7010  173.9590  141.0410 C   0  0  1  0  0  3  0  0  0  0  0  0
  191.3140  175.3240  142.4500 C   0  0  0  0  0  2  0  0  0  0  0  0
  184.4910  178.3720  144.7440 C   0  0  0  0  0  0  0  0  0  0  0  0
  192.1650  173.3230  141.1150 C   0  0  2  0  0  3  0  0  0  0  0  0
  191.2750  175.4530  145.3740 C   0  0  0  0  0  2  0  0  0  0  0  0
  190.1380  175.8620  143.1240 N   0  0  0  0  0  0  0  0  0  0  0  0
  190.0620  175.8500  144.5610 C   0  0  0  0  0  0  0  0  0  0  0  0
  187.8040  176.7320  144.4170 N   0  0  0  0  0  0  0  0  0  0  0  0
  183.7620  178.6710  143.6410 N   0  0  0  0  0  0  0  0  0  0  0  0
  190.4110  171.5130  140.7230 C   0  0  0  0  0  2  0  0  0  0  0  0
  190.9850  173.9360  141.8950 C   0  0  2  0  0  3  0  0  0  0  0  0
  184.4630  178.2660  142.5480 C   0  0  0  0  0  3  0  0  0  0  0  0
  189.3000  172.5570  140.5630 C   0  0  0  0  0  2  0  0  0  0  0  0
  188.8710  176.1880  146.6900 C   0  0  0  0  0  2  0  0  0  0  0  0
  188.9420  176.2720  145.1780 C   0  0  0  0  0  0  0  0  0  0  0  0
  186.7500  177.2870  145.0990 C   0  0  0  0  0  3  0  0  0  0  0  0
  188.5360  174.5920  141.8030 C   0  0  0  0  0  2  0  0  0  0  0  0
  186.6920  177.0680  140.8850 O   0  0  0  0  0  1  0  0  0  0  0  0
  184.0480  178.6660  146.1340 C   0  0  0  0  0  1  0  0  0  0  0  0
  187.7980  176.6420  143.0310 C   0  0  0  0  0  0  0  0  0  0  0  0
  185.6690  177.7720  144.3830 C   0  0  0  0  0  0  0  0  0  0  0  0
  192.7420  174.2650  140.2570 O   0  0  0  0  0  0  0  0  0  0  0  0
  193.4600  173.5130  139.3260 C   0  0  0  0  0  2  0  0  0  0  0  0
  193.7650  174.3530  138.1370 C   0  0  0  0  0  0  0  0  0  0  0  0
  195.0840  174.5760  137.7650 O   0  0  0  0  0  1  0  0  0  0  0  0
  192.8300  174.8940  137.4910 O   0  0  0  0  0  0  0  0  0  0  0  0
  1 16  1  0  0  0  0
  1 10  1  0  0  0  0
  2 23  1  1  0  0  0
  2 26  1  0  0  0  0
  2 12  1  0  0  0  0
  3  4  1  0  0  0  0
  5  6  1  0  0  0  0
  5 26  2  0  0  0  0
  6 27  1  0  0  0  0
  7 19  1  1  0  0  0
  7 23  1  0  0  0  0
  7 17  1  0  0  0  0
  8 12  1  0  0  0  0
  9 25  1  0  0  0  0
 10 28  1  6  0  0  0
 10 17  1  0  0  0  0
 11  3  1  0  0  0  0
 12 13  1  0  0  0  0
 13 21  2  0  0  0  0
 13 11  1  0  0  0  0
 14 22  1  0  0  0  0
 14 21  1  0  0  0  0
 15  9  2  0  0  0  0
 17  8  1  6  0  0  0
 18  6  2  0  0  0  0
 18 15  1  0  0  0  0
 19 16  1  0  0  0  0
 20  4  1  0  0  0  0
 21 20  1  0  0  0  0
 24  5  1  0  0  0  0
 26 14  1  0  0  0  0
 27  9  1  0  0  0  0
 27 22  2  0  0  0  0
 29 28  1  0  0  0  0
 30 29  1  0  0  0  0
 31 30  1  0  0  0  0
 32 30  2  0  0  0  0
M  END
>  <MODEL>
8

>  <REMARK>
 VINA RESULT:      -7.3      3.222      4.561
  Name = 
  3 active torsions:
  status: ('A' for Active; 'I' for Inactive)
    1  A    between atoms: C_10  and  O_20
    2  A    between atoms: O_20  and  C_29
    3  A    between atoms: C_29  and  C_30
                            x       y       z     vdW  Elec       q    Type
                         _______ _______ _______ _____ _____    ______ ____

>  <TORSDO>
F 3

$$$$
=
 OpenBabel11112416333D

 32 37  0  0  1  0  0  0  0  0999 V2000
  186.1300  178.6780  143.4870 C   0  0  0  0  0  2  0  0  0  0  0  0
  188.9410  174.3230  144.0420 C   0  0  1  0  0  3  0  0  0  0  0  0
  192.3950  176.7200  146.7730 C   0  0  0  0  0  2  0  0  0  0  0  0
  193.0480  175.4820  146.8880 O   0  0  0  0  0  0  0  0  0  0  0  0
  189.7360  172.2250  142.9190 C   0  0  0  0  0  0  0  0  0  0  0  0
  190.7640  171.3430  142.6340 C   0  0  0  0  0  0  0  0  0  0  0  0
  187.5500  176.1950  143.1360 C   0  0  1  0  0  3  0  0  0  0  0  0
  188.1840  176.0940  145.5940 C   0  0  0  0  0  2  0  0  0  0  0  0
  192.8290  170.5150  142.6960 C   0  0  0  0  0  0  0  0  0  0  0  0
  186.6900  177.9770  144.7370 C   0  0  2  0  0  3  0  0  0  0  0  0
  190.8910  176.4880  146.6340 C   0  0  0  0  0  2  0  0  0  0  0  0
  189.2410  175.1720  145.1960 N   0  0  0  0  0  0  0  0  0  0  0  0
  190.5950  175.4000  145.6230 C   0  0  0  0  0  0  0  0  0  0  0  0
  191.3040  173.5000  144.2870 N   0  0  0  0  0  0  0  0  0  0  0  0
  192.0830  169.7000  141.9100 N   0  0  0  0  0  0  0  0  0  0  0  0
  187.0630  178.5670  142.2840 C   0  0  0  0  0  2  0  0  0  0  0  0
  187.8440  177.0080  144.4130 C   0  0  2  0  0  3  0  0  0  0  0  0
  190.8180  170.1980  141.8650 C   0  0  0  0  0  3  0  0  0  0  0  0
  187.3100  177.0990  141.9190 C   0  0  0  0  0  2  0  0  0  0  0  0
  193.0070  174.9000  145.6080 C   0  0  0  0  0  2  0  0  0  0  0  0
  191.5820  174.5940  145.1890 C   0  0  0  0  0  0  0  0  0  0  0  0
  192.3210  172.6250  143.9970 C   0  0  0  0  0  3  0  0  0  0  0  0
  188.6810  175.2140  142.8280 C   0  0  0  0  0  2  0  0  0  0  0  0
  188.4640  172.0300  142.3910 O   0  0  0  0  0  1  0  0  0  0  0  0
  194.2720  170.2930  142.9840 C   0  0  0  0  0  1  0  0  0  0  0  0
  190.0320  173.3260  143.7610 C   0  0  0  0  0  0  0  0  0  0  0  0
  192.0620  171.5470  143.1690 C   0  0  0  0  0  0  0  0  0  0  0  0
  185.6460  177.3130  145.3890 O   0  0  0  0  0  0  0  0  0  0  0  0
  184.9570  178.3130  146.0790 C   0  0  0  0  0  2  0  0  0  0  0  0
  185.6510  178.6000  147.3620 C   0  0  0  0  0  0  0  0  0  0  0  0
  185.9410  177.5640  148.2400 O   0  0  0  0  0  1  0  0  0  0  0  0
  185.9420  179.7840  147.6710 O   0  0  0  0  0  0  0  0  0  0  0  0
  1 10  1  0  0  0  0
  2 23  1  6  0  0  0
  2 12  1  0  0  0  0
  3  4  1  0  0  0  0
  5 26  2  0  0  0  0
  6  5  1  0  0  0  0
  6 27  1  0  0  0  0
  7 19  1  6  0  0  0
  7 17  1  0  0  0  0
  9 25  1  0  0  0  0
  9 27  1  0  0  0  0
 10 28  1  6  0  0  0
 11  3  1  0  0  0  0
 12  8  1  0  0  0  0
 12 13  1  0  0  0  0
 13 11  1  0  0  0  0
 14 21  1  0  0  0  0
 15  9  2  0  0  0  0
 16  1  1  0  0  0  0
 17 10  1  0  0  0  0
 17  8  1  1  0  0  0
 18 15  1  0  0  0  0
 18  6  2  0  0  0  0
 19 16  1  0  0  0  0
 20  4  1  0  0  0  0
 21 20  1  0  0  0  0
 21 13  2  0  0  0  0
 22 14  1  0  0  0  0
 23  7  1  0  0  0  0
 24  5  1  0  0  0  0
 26  2  1  0  0  0  0
 26 14  1  0  0  0  0
 27 22  2  0  0  0  0
 28 29  1  0  0  0  0
 29 30  1  0  0  0  0
 30 32  2  0  0  0  0
 30 31  1  0  0  0  0
M  END
>  <MODEL>
9

>  <REMARK>
 VINA RESULT:      -7.3      2.992      7.820
  Name = 
  3 active torsions:
  status: ('A' for Active; 'I' for Inactive)
    1  A    between atoms: C_10  and  O_20
    2  A    between atoms: O_20  and  C_29
    3  A    between atoms: C_29  and  C_30
                            x       y       z     vdW  Elec       q    Type
                         _______ _______ _______ _____ _____    ______ ____

>  <TORSDO>
F 3

$$$$
