=
 OpenBabel11112416413D

 32 37  0  0  1  0  0  0  0  0999 V2000
  184.1940  178.0830  143.1220 C   0  0  0  0  0  2  0  0  0  0  0  0
  188.9990  175.6570  142.8350 C   0  0  0  0  0  0  0  0  0  0  0  0
  192.0260  176.1870  146.6950 C   0  0  0  0  0  2  0  0  0  0  0  0
  192.2890  174.8200  146.5010 O   0  0  0  0  0  0  0  0  0  0  0  0
  189.7320  174.0540  141.0090 C   0  0  0  0  0  0  0  0  0  0  0  0
  190.9190  173.3910  140.3700 C   0  0  2  0  0  3  0  0  0  0  0  0
  186.8400  176.8610  142.6050 C   0  0  1  0  0  3  0  0  0  0  0  0
  188.2350  177.2460  144.6360 C   0  0  0  0  0  2  0  0  0  0  0  0
  192.6760  171.7200  140.9330 C   0  0  2  0  0  3  0  0  0  0  0  0
  186.4000  178.8620  144.1810 C   0  0  0  0  0  2  0  0  0  0  0  0
  190.6180  176.5170  146.1940 C   0  0  0  0  0  2  0  0  0  0  0  0
  189.2390  176.2700  144.0810 C   0  0  0  0  0  0  0  0  0  0  0  0
  190.3810  175.9260  144.8250 C   0  0  0  0  0  0  0  0  0  0  0  0
  191.0600  174.3760  143.0730 C   0  0  0  0  0  0  0  0  0  0  0  0
  192.0210  171.3110  139.2830 S   0  0  0  0  0  0  0  0  0  0  0  0
  184.9450  178.4380  141.8340 C   0  0  0  0  0  2  0  0  0  0  0  0
  187.4400  177.9360  143.5330 C   0  0  2  0  0  3  0  0  0  0  0  0
  190.5410  172.2660  139.5300 N   0  0  0  0  0  2  0  0  0  0  0  0
  186.0090  177.4090  141.4410 C   0  0  0  0  0  2  0  0  0  0  0  0
  185.0460  178.1800  144.4040 C   0  0  1  0  0  3  0  0  0  0  0  0
  192.5190  174.6500  145.1230 C   0  0  0  0  0  2  0  0  0  0  0  0
  191.2780  174.9640  144.3260 C   0  0  0  0  0  0  0  0  0  0  0  0
  191.9610  173.3650  142.5870 N   0  0  0  0  0  0  0  0  0  0  0  0
  187.8680  176.0190  142.0880 O   0  0  0  0  0  0  0  0  0  0  0  0
  188.6340  174.1120  140.3920 O   0  0  0  0  0  0  0  0  0  0  0  0
  192.4600  170.5330  141.8540 C   0  0  0  0  0  1  0  0  0  0  0  0
  189.9140  174.7130  142.3250 C   0  0  0  0  0  0  0  0  0  0  0  0
  191.8730  172.8740  141.3860 C   0  0  0  0  0  0  0  0  0  0  0  0
  184.2770  178.9250  145.4830 C   0  0  0  0  0  2  0  0  0  0  0  0
  184.4360  178.2630  146.7680 N   0  0  0  0  0  0  0  0  0  0  0  0
  185.4910  178.9690  147.4700 C   0  0  0  0  0  1  0  0  0  0  0  0
  184.9390  176.9270  146.5000 C   0  0  0  0  0  1  0  0  0  0  0  0
  1 20  1  0  0  0  0
  2 12  1  0  0  0  0
  4  3  1  0  0  0  0
  5 27  1  0  0  0  0
  6 18  1  1  0  0  0
  6  5  1  0  0  0  0
  6 28  1  0  0  0  0
  7 19  1  6  0  0  0
  7 17  1  0  0  0  0
  9 28  1  0  0  0  0
  9 26  1  1  0  0  0
 10 20  1  0  0  0  0
 11  3  1  0  0  0  0
 12  8  1  0  0  0  0
 12 13  2  0  0  0  0
 13 11  1  0  0  0  0
 14 22  2  0  0  0  0
 15 18  1  0  0  0  0
 15  9  1  0  0  0  0
 16  1  1  0  0  0  0
 17 10  1  1  0  0  0
 17  8  1  0  0  0  0
 19 16  1  0  0  0  0
 20 29  1  1  0  0  0
 21  4  1  0  0  0  0
 22 13  1  0  0  0  0
 22 21  1  0  0  0  0
 23 14  1  0  0  0  0
 24  7  1  0  0  0  0
 24  2  1  0  0  0  0
 25  5  2  0  0  0  0
 27  2  2  0  0  0  0
 27 14  1  0  0  0  0
 28 23  2  0  0  0  0
 29 30  1  0  0  0  0
 30 31  1  0  0  0  0
 32 30  1  0  0  0  0
M  END
>  <MODEL>
1

>  <REMARK>
 VINA RESULT:      -8.5      0.000      0.000
  Name = 
  2 active torsions:
  status: ('A' for Active; 'I' for Inactive)
    1  A    between atoms: C_20  and  C_29
    2  A    between atoms: C_29  and  N_30
                            x       y       z     vdW  Elec       q    Type
                         _______ _______ _______ _____ _____    ______ ____

>  <TORSDO>
F 2

$$$$
=
 OpenBabel11112416413D

 32 37  0  0  1  0  0  0  0  0999 V2000
  185.7180  179.0440  145.2480 C   0  0  0  0  0  2  0  0  0  0  0  0
  189.8020  175.7820  143.9300 C   0  0  0  0  0  0  0  0  0  0  0  0
  189.3960  173.2540  139.7110 C   0  0  0  0  0  2  0  0  0  0  0  0
  190.7480  173.5960  139.5370 O   0  0  0  0  0  0  0  0  0  0  0  0
  192.0220  175.6340  145.1500 C   0  0  0  0  0  0  0  0  0  0  0  0
  193.2520  174.7970  145.3510 C   0  0  2  0  0  3  0  0  0  0  0  0
  187.9730  177.1590  144.8880 C   0  0  1  0  0  3  0  0  0  0  0  0
  187.5890  175.9590  142.7350 C   0  0  0  0  0  2  0  0  0  0  0  0
  195.2340  174.0160  144.0610 C   0  0  2  0  0  3  0  0  0  0  0  0
  185.5940  176.8440  143.9270 C   0  0  0  0  0  2  0  0  0  0  0  0
  188.7030  174.3150  140.5700 C   0  0  0  0  0  2  0  0  0  0  0  0
  188.9970  175.4310  142.8270 C   0  0  0  0  0  0  0  0  0  0  0  0
  189.5270  174.6400  141.7930 C   0  0  0  0  0  0  0  0  0  0  0  0
  191.6580  174.5250  142.9680 C   0  0  0  0  0  0  0  0  0  0  0  0
  195.8160  174.6060  145.6830 S   0  0  0  0  0  0  0  0  0  0  0  0
  186.0800  178.0820  146.3840 C   0  0  0  0  0  2  0  0  0  0  0  0
  186.9980  176.2520  144.1110 C   0  0  2  0  0  3  0  0  0  0  0  0
  194.3310  175.5360  145.9850 N   0  0  0  0  0  2  0  0  0  0  0  0
  187.5090  177.5390  146.2980 C   0  0  0  0  0  2  0  0  0  0  0  0
  185.5920  178.3760  143.8630 C   0  0  1  0  0  3  0  0  0  0  0  0
  191.3900  173.3190  140.7590 C   0  0  0  0  0  2  0  0  0  0  0  0
  190.8630  174.2060  141.8580 C   0  0  0  0  0  0  0  0  0  0  0  0
  193.0340  174.1110  143.0090 N   0  0  0  0  0  0  0  0  0  0  0  0
  189.2620  176.5540  144.9680 O   0  0  0  0  0  0  0  0  0  0  0  0
  191.7210  176.5250  145.9910 O   0  0  0  0  0  0  0  0  0  0  0  0
  195.9150  174.8260  142.9720 C   0  0  0  0  0  1  0  0  0  0  0  0
  191.1330  175.3230  144.0050 C   0  0  0  0  0  0  0  0  0  0  0  0
  193.7800  174.2770  144.0620 C   0  0  0  0  0  0  0  0  0  0  0  0
  184.3250  178.8510  143.1720 C   0  0  0  0  0  2  0  0  0  0  0  0
  184.0080  177.9880  142.0450 N   0  0  0  0  0  0  0  0  0  0  0  0
  184.8720  178.3960  140.9530 C   0  0  0  0  0  1  0  0  0  0  0  0
  182.6500  178.3030  141.6370 C   0  0  0  0  0  1  0  0  0  0  0  0
  1 16  1  0  0  0  0
  2 27  1  0  0  0  0
  2 24  1  0  0  0  0
  3 11  1  0  0  0  0
  4  3  1  0  0  0  0
  4 21  1  0  0  0  0
  5  6  1  0  0  0  0
  5 25  2  0  0  0  0
  6 28  1  6  0  0  0
  6 18  1  0  0  0  0
  7 24  1  0  0  0  0
  7 19  1  1  0  0  0
  8 12  1  0  0  0  0
  9 26  1  6  0  0  0
  9 28  1  0  0  0  0
  9 15  1  0  0  0  0
 10 17  1  0  0  0  0
 11 13  1  0  0  0  0
 12  2  2  0  0  0  0
 13 22  2  0  0  0  0
 13 12  1  0  0  0  0
 14 23  1  0  0  0  0
 14 27  2  0  0  0  0
 15 18  1  0  0  0  0
 17  8  1  6  0  0  0
 17  7  1  0  0  0  0
 19 16  1  0  0  0  0
 20 29  1  1  0  0  0
 20 10  1  0  0  0  0
 20  1  1  0  0  0  0
 21 22  1  0  0  0  0
 22 14  1  0  0  0  0
 23 28  2  0  0  0  0
 27  5  1  0  0  0  0
 30 29  1  0  0  0  0
 31 30  1  0  0  0  0
 32 30  1  0  0  0  0
M  END
>  <MODEL>
2

>  <REMARK>
 VINA RESULT:      -8.5      2.434      4.678
  Name = 
  2 active torsions:
  status: ('A' for Active; 'I' for Inactive)
    1  A    between atoms: C_20  and  C_29
    2  A    between atoms: C_29  and  N_30
                            x       y       z     vdW  Elec       q    Type
                         _______ _______ _______ _____ _____    ______ ____

>  <TORSDO>
F 2

$$$$
=
 OpenBabel11112416413D

 32 37  0  0  1  0  0  0  0  0999 V2000
  185.9950  178.7780  144.1460 C   0  0  0  0  0  2  0  0  0  0  0  0
  190.2380  175.7280  142.8260 C   0  0  0  0  0  0  0  0  0  0  0  0
  189.5450  172.2780  139.3660 C   0  0  0  0  0  2  0  0  0  0  0  0
  190.7950  172.7050  138.8860 O   0  0  0  0  0  0  0  0  0  0  0  0
  192.6180  176.0850  143.6330 C   0  0  0  0  0  0  0  0  0  0  0  0
  193.9670  175.4430  143.7790 C   0  0  2  0  0  3  0  0  0  0  0  0
  188.4060  177.0970  143.7880 C   0  0  1  0  0  3  0  0  0  0  0  0
  187.8660  175.4060  142.0360 C   0  0  0  0  0  2  0  0  0  0  0  0
  195.8170  174.5920  142.3470 C   0  0  2  0  0  3  0  0  0  0  0  0
  185.9740  176.3350  143.3550 C   0  0  0  0  0  2  0  0  0  0  0  0
  188.8520  173.4320  140.0960 C   0  0  0  0  0  2  0  0  0  0  0  0
  189.3300  175.0560  141.9820 C   0  0  0  0  0  0  0  0  0  0  0  0
  189.8000  174.1080  141.0570 C   0  0  0  0  0  0  0  0  0  0  0  0
  192.0810  174.4780  141.8290 C   0  0  0  0  0  0  0  0  0  0  0  0
  196.5530  175.5910  143.6800 S   0  0  0  0  0  0  0  0  0  0  0  0
  186.6550  178.1420  145.3740 C   0  0  0  0  0  2  0  0  0  0  0  0
  187.4580  175.9430  143.4040 C   0  0  2  0  0  3  0  0  0  0  0  0
  195.0180  176.4120  144.0430 N   0  0  0  0  0  2  0  0  0  0  0  0
  188.1150  177.7400  145.1480 C   0  0  0  0  0  2  0  0  0  0  0  0
  185.7530  177.8040  142.9760 C   0  0  1  0  0  3  0  0  0  0  0  0
  191.6480  172.7800  140.0040 C   0  0  0  0  0  2  0  0  0  0  0  0
  191.1770  173.8360  140.9710 C   0  0  0  0  0  0  0  0  0  0  0  0
  193.4910  174.2240  141.7080 N   0  0  0  0  0  0  0  0  0  0  0  0
  189.7620  176.6590  143.7600 O   0  0  0  0  0  0  0  0  0  0  0  0
  192.3290  177.1090  144.3100 O   0  0  0  0  0  0  0  0  0  0  0  0
  196.2070  175.1960  141.0100 C   0  0  0  0  0  1  0  0  0  0  0  0
  191.6150  175.4340  142.7550 C   0  0  0  0  0  0  0  0  0  0  0  0
  194.3590  174.6990  142.5540 C   0  0  0  0  0  0  0  0  0  0  0  0
  184.3420  177.9790  142.4380 C   0  0  0  0  0  2  0  0  0  0  0  0
  184.3760  178.5590  141.1050 N   0  0  0  0  0  0  0  0  0  0  0  0
  183.1530  178.1460  140.4410 C   0  0  0  0  0  1  0  0  0  0  0  0
  185.4690  177.9220  140.3910 C   0  0  0  0  0  1  0  0  0  0  0  0
  1 16  1  0  0  0  0
  2 24  1  0  0  0  0
  3 11  1  0  0  0  0
  4  3  1  0  0  0  0
  4 21  1  0  0  0  0
  5  6  1  0  0  0  0
  5 25  2  0  0  0  0
  6 28  1  6  0  0  0
  6 18  1  0  0  0  0
  7 19  1  1  0  0  0
  9 26  1  6  0  0  0
  9 28  1  0  0  0  0
  9 15  1  0  0  0  0
 10 17  1  0  0  0  0
 11 13  1  0  0  0  0
 12  8  1  0  0  0  0
 12  2  2  0  0  0  0
 13 12  1  0  0  0  0
 14 27  2  0  0  0  0
 15 18  1  0  0  0  0
 17  8  1  6  0  0  0
 17  7  1  0  0  0  0
 19 16  1  0  0  0  0
 20 29  1  1  0  0  0
 20 10  1  0  0  0  0
 20  1  1  0  0  0  0
 21 22  1  0  0  0  0
 22 13  2  0  0  0  0
 22 14  1  0  0  0  0
 23 14  1  0  0  0  0
 23 28  2  0  0  0  0
 24  7  1  0  0  0  0
 27  2  1  0  0  0  0
 27  5  1  0  0  0  0
 30 29  1  0  0  0  0
 31 30  1  0  0  0  0
 32 30  1  0  0  0  0
M  END
>  <MODEL>
3

>  <REMARK>
 VINA RESULT:      -8.3      2.705      4.821
  Name = 
  2 active torsions:
  status: ('A' for Active; 'I' for Inactive)
    1  A    between atoms: C_20  and  C_29
    2  A    between atoms: C_29  and  N_30
                            x       y       z     vdW  Elec       q    Type
                         _______ _______ _______ _____ _____    ______ ____

>  <TORSDO>
F 2

$$$$
=
 OpenBabel11112416413D

 32 37  0  0  1  0  0  0  0  0999 V2000
  186.3210  178.8390  146.3080 C   0  0  0  0  0  2  0  0  0  0  0  0
  190.2120  175.9030  144.0070 C   0  0  0  0  0  0  0  0  0  0  0  0
  189.0050  173.3240  139.9770 C   0  0  0  0  0  2  0  0  0  0  0  0
  190.2440  173.7710  139.4880 O   0  0  0  0  0  0  0  0  0  0  0  0
  192.6650  175.9400  144.6570 C   0  0  0  0  0  0  0  0  0  0  0  0
  193.9700  175.2050  144.5460 C   0  0  2  0  0  3  0  0  0  0  0  0
  188.5650  177.1370  145.3940 C   0  0  1  0  0  3  0  0  0  0  0  0
  187.7710  175.8970  143.3810 C   0  0  0  0  0  2  0  0  0  0  0  0
  195.6380  174.5760  142.8080 C   0  0  2  0  0  3  0  0  0  0  0  0
  186.0570  176.6280  145.0280 C   0  0  0  0  0  2  0  0  0  0  0  0
  188.4570  174.3320  140.9910 C   0  0  0  0  0  2  0  0  0  0  0  0
  189.1960  175.4830  143.1260 C   0  0  0  0  0  0  0  0  0  0  0  0
  189.5220  174.7300  141.9840 C   0  0  0  0  0  0  0  0  0  0  0  0
  191.8760  174.7920  142.6120 C   0  0  0  0  0  0  0  0  0  0  0  0
  196.5450  175.2210  144.2510 S   0  0  0  0  0  0  0  0  0  0  0  0
  187.0200  177.9160  147.3130 C   0  0  0  0  0  2  0  0  0  0  0  0
  187.5070  176.1500  144.8620 C   0  0  2  0  0  3  0  0  0  0  0  0
  195.1080  176.0320  144.9120 N   0  0  0  0  0  2  0  0  0  0  0  0
  188.4250  177.4880  146.8790 C   0  0  0  0  0  2  0  0  0  0  0  0
  185.9200  178.1540  144.9860 C   0  0  1  0  0  3  0  0  0  0  0  0
  191.1810  173.5540  140.5170 C   0  0  0  0  0  2  0  0  0  0  0  0
  190.8650  174.4040  141.7210 C   0  0  0  0  0  0  0  0  0  0  0  0
  193.2500  174.4890  142.3160 N   0  0  0  0  0  0  0  0  0  0  0  0
  189.8780  176.6370  145.1540 O   0  0  0  0  0  0  0  0  0  0  0  0
  192.5060  176.8100  145.5570 O   0  0  0  0  0  0  0  0  0  0  0  0
  195.9720  175.4290  141.5980 C   0  0  0  0  0  1  0  0  0  0  0  0
  191.5540  175.5520  143.7550 C   0  0  0  0  0  0  0  0  0  0  0  0
  194.2110  174.7200  143.1610 C   0  0  0  0  0  0  0  0  0  0  0  0
  184.4900  178.5230  144.6250 C   0  0  0  0  0  2  0  0  0  0  0  0
  184.4410  179.1330  143.3050 N   0  0  0  0  0  0  0  0  0  0  0  0
  183.5910  178.2870  142.4880 C   0  0  0  0  0  1  0  0  0  0  0  0
  185.7790  179.0410  142.7450 C   0  0  0  0  0  1  0  0  0  0  0  0
  1 16  1  0  0  0  0
  2 24  1  0  0  0  0
  3 11  1  0  0  0  0
  4  3  1  0  0  0  0
  4 21  1  0  0  0  0
  5 25  2  0  0  0  0
  6 28  1  6  0  0  0
  6  5  1  0  0  0  0
  6 18  1  0  0  0  0
  7 19  1  1  0  0  0
  9 26  1  6  0  0  0
  9 28  1  0  0  0  0
  9 15  1  0  0  0  0
 11 13  1  0  0  0  0
 12  8  1  0  0  0  0
 12  2  2  0  0  0  0
 13 12  1  0  0  0  0
 14 27  2  0  0  0  0
 15 18  1  0  0  0  0
 17  8  1  6  0  0  0
 17 10  1  0  0  0  0
 17  7  1  0  0  0  0
 19 16  1  0  0  0  0
 20 29  1  1  0  0  0
 20 10  1  0  0  0  0
 20  1  1  0  0  0  0
 21 22  1  0  0  0  0
 22 13  2  0  0  0  0
 22 14  1  0  0  0  0
 23 14  1  0  0  0  0
 23 28  2  0  0  0  0
 24  7  1  0  0  0  0
 27  2  1  0  0  0  0
 27  5  1  0  0  0  0
 30 29  1  0  0  0  0
 31 30  1  0  0  0  0
 32 30  1  0  0  0  0
M  END
>  <MODEL>
4

>  <REMARK>
 VINA RESULT:      -8.1      2.492      4.657
  Name = 
  2 active torsions:
  status: ('A' for Active; 'I' for Inactive)
    1  A    between atoms: C_20  and  C_29
    2  A    between atoms: C_29  and  N_30
                            x       y       z     vdW  Elec       q    Type
                         _______ _______ _______ _____ _____    ______ ____

>  <TORSDO>
F 2

$$$$
=
 OpenBabel11112416413D

 32 37  0  0  1  0  0  0  0  0999 V2000
  184.8020  178.0300  143.1650 C   0  0  0  0  0  2  0  0  0  0  0  0
  188.8430  174.8390  141.5730 C   0  0  0  0  0  0  0  0  0  0  0  0
  192.0850  173.4210  145.0130 C   0  0  0  0  0  2  0  0  0  0  0  0
  191.9940  172.1670  144.3850 O   0  0  0  0  0  0  0  0  0  0  0  0
  189.0750  173.7910  139.2740 C   0  0  0  0  0  0  0  0  0  0  0  0
  190.0300  173.1270  138.3240 C   0  0  2  0  0  3  0  0  0  0  0  0
  187.0390  176.4930  141.9840 C   0  0  1  0  0  3  0  0  0  0  0  0
  188.5790  175.8880  143.8500 C   0  0  0  0  0  2  0  0  0  0  0  0
  191.3480  171.0230  138.1370 C   0  0  2  0  0  3  0  0  0  0  0  0
  187.1790  177.9230  144.1320 C   0  0  0  0  0  2  0  0  0  0  0  0
  190.7790  174.1940  144.8110 C   0  0  0  0  0  2  0  0  0  0  0  0
  189.2850  174.9490  142.9080 C   0  0  0  0  0  0  0  0  0  0  0  0
  190.3400  174.1420  143.3680 C   0  0  0  0  0  0  0  0  0  0  0  0
  190.5360  173.1320  141.1590 C   0  0  0  0  0  0  0  0  0  0  0  0
  190.5360  171.3220  136.5340 S   0  0  0  0  0  0  0  0  0  0  0  0
  185.5560  178.6080  141.9630 C   0  0  0  0  0  2  0  0  0  0  0  0
  187.9270  177.0540  143.1120 C   0  0  2  0  0  3  0  0  0  0  0  0
  189.3500  172.4450  137.2360 N   0  0  0  0  0  2  0  0  0  0  0  0
  186.3150  177.5550  141.1500 C   0  0  0  0  0  2  0  0  0  0  0  0
  185.7100  177.5200  144.3020 C   0  0  1  0  0  3  0  0  0  0  0  0
  192.1110  172.4050  143.0020 C   0  0  0  0  0  2  0  0  0  0  0  0
  190.9490  173.2220  142.4960 C   0  0  0  0  0  0  0  0  0  0  0  0
  191.1360  172.1610  140.2850 N   0  0  0  0  0  0  0  0  0  0  0  0
  187.8030  175.6600  141.1150 O   0  0  0  0  0  0  0  0  0  0  0  0
  187.9970  174.2830  138.8420 O   0  0  0  0  0  0  0  0  0  0  0  0
  190.8890  169.6800  138.6760 C   0  0  0  0  0  1  0  0  0  0  0  0
  189.4740  173.9340  140.6950 C   0  0  0  0  0  0  0  0  0  0  0  0
  190.8750  172.1150  139.0110 C   0  0  0  0  0  0  0  0  0  0  0  0
  185.1990  178.0260  145.6410 C   0  0  0  0  0  2  0  0  0  0  0  0
  186.2770  178.0570  146.6170 N   0  0  0  0  0  0  0  0  0  0  0  0
  186.2330  176.7900  147.3240 C   0  0  0  0  0  1  0  0  0  0  0  0
  185.9420  179.0850  147.5880 C   0  0  0  0  0  1  0  0  0  0  0  0
  1 20  1  0  0  0  0
  2 12  1  0  0  0  0
  4  3  1  0  0  0  0
  5 27  1  0  0  0  0
  6 18  1  6  0  0  0
  6 28  1  0  0  0  0
  6  5  1  0  0  0  0
  7 19  1  6  0  0  0
  7 17  1  0  0  0  0
  9 26  1  1  0  0  0
  9 28  1  0  0  0  0
 10 20  1  0  0  0  0
 11  3  1  0  0  0  0
 12 13  2  0  0  0  0
 12  8  1  0  0  0  0
 13 11  1  0  0  0  0
 14 22  2  0  0  0  0
 15 18  1  0  0  0  0
 15  9  1  0  0  0  0
 16  1  1  0  0  0  0
 17  8  1  1  0  0  0
 17 10  1  0  0  0  0
 19 16  1  0  0  0  0
 20 29  1  1  0  0  0
 21  4  1  0  0  0  0
 22 21  1  0  0  0  0
 22 13  1  0  0  0  0
 23 14  1  0  0  0  0
 24  2  1  0  0  0  0
 24  7  1  0  0  0  0
 25  5  2  0  0  0  0
 27 14  1  0  0  0  0
 27  2  2  0  0  0  0
 28 23  2  0  0  0  0
 29 30  1  0  0  0  0
 30 31  1  0  0  0  0
 30 32  1  0  0  0  0
M  END
>  <MODEL>
5

>  <REMARK>
 VINA RESULT:      -8.0      1.688      2.217
  Name = 
  2 active torsions:
  status: ('A' for Active; 'I' for Inactive)
    1  A    between atoms: C_20  and  C_29
    2  A    between atoms: C_29  and  N_30
                            x       y       z     vdW  Elec       q    Type
                         _______ _______ _______ _____ _____    ______ ____

>  <TORSDO>
F 2

$$$$
=
 OpenBabel11112416413D

 32 37  0  0  1  0  0  0  0  0999 V2000
  194.5240  174.1650  140.4930 C   0  0  0  0  0  2  0  0  0  0  0  0
  190.3050  175.8590  143.3890 C   0  0  0  0  0  0  0  0  0  0  0  0
  191.0890  176.8140  148.1670 C   0  0  0  0  0  2  0  0  0  0  0  0
  190.2810  177.9400  147.9320 O   0  0  0  0  0  0  0  0  0  0  0  0
  188.0230  176.4610  142.4550 C   0  0  0  0  0  0  0  0  0  0  0  0
  186.5820  176.6920  142.8070 C   0  0  2  0  0  3  0  0  0  0  0  0
  192.0050  174.8420  141.8940 C   0  0  1  0  0  3  0  0  0  0  0  0
  192.5850  175.2630  144.2830 C   0  0  0  0  0  2  0  0  0  0  0  0
  185.1900  178.3040  144.0970 C   0  0  2  0  0  3  0  0  0  0  0  0
  194.0790  173.7530  142.9890 C   0  0  0  0  0  2  0  0  0  0  0  0
  191.7960  176.4080  146.8710 C   0  0  0  0  0  2  0  0  0  0  0  0
  191.2020  175.8260  144.4760 C   0  0  0  0  0  0  0  0  0  0  0  0
  190.8240  176.3690  145.7160 C   0  0  0  0  0  0  0  0  0  0  0  0
  188.6450  176.9580  144.7990 C   0  0  0  0  0  0  0  0  0  0  0  0
  184.3720  178.0120  142.4950 S   0  0  0  0  0  0  0  0  0  0  0  0
  193.3140  173.2350  140.3520 C   0  0  0  0  0  2  0  0  0  0  0  0
  192.6290  174.2270  143.1630 C   0  0  2  0  0  3  0  0  0  0  0  0
  185.8530  177.3710  141.7480 N   0  0  0  0  0  2  0  0  0  0  0  0
  191.9790  173.9100  140.6780 C   0  0  0  0  0  2  0  0  0  0  0  0
  194.8540  174.5650  141.9450 C   0  0  1  0  0  3  0  0  0  0  0  0
  189.1550  177.4830  147.2210 C   0  0  0  0  0  2  0  0  0  0  0  0
  189.5520  176.9520  145.8670 C   0  0  0  0  0  0  0  0  0  0  0  0
  187.3630  177.5900  144.9490 N   0  0  0  0  0  0  0  0  0  0  0  0
  190.6810  175.2990  142.1600 O   0  0  0  0  0  0  0  0  0  0  0  0
  188.3520  176.2260  141.2600 O   0  0  0  0  0  0  0  0  0  0  0  0
  185.5000  179.7850  144.2260 C   0  0  0  0  0  1  0  0  0  0  0  0
  189.0220  176.4200  143.5510 C   0  0  0  0  0  0  0  0  0  0  0  0
  186.4410  177.5210  144.0330 C   0  0  0  0  0  0  0  0  0  0  0  0
  196.3460  174.4170  142.1970 C   0  0  0  0  0  2  0  0  0  0  0  0
  196.7250  175.1100  143.4180 N   0  0  0  0  0  0  0  0  0  0  0  0
  197.1260  176.4490  143.0290 C   0  0  0  0  0  1  0  0  0  0  0  0
  197.9170  174.4520  143.9270 C   0  0  0  0  0  1  0  0  0  0  0  0
  1 20  1  0  0  0  0
  2 27  2  0  0  0  0
  2 12  1  0  0  0  0
  4  3  1  0  0  0  0
  5  6  1  0  0  0  0
  5 27  1  0  0  0  0
  6 18  1  6  0  0  0
  6 28  1  0  0  0  0
  7 19  1  6  0  0  0
  7 24  1  0  0  0  0
  7 17  1  0  0  0  0
  8 12  1  0  0  0  0
  9 26  1  6  0  0  0
 11  3  1  0  0  0  0
 12 13  2  0  0  0  0
 13 22  1  0  0  0  0
 13 11  1  0  0  0  0
 14 23  1  0  0  0  0
 14 22  2  0  0  0  0
 15  9  1  0  0  0  0
 16  1  1  0  0  0  0
 16 19  1  0  0  0  0
 17 10  1  6  0  0  0
 17  8  1  0  0  0  0
 18 15  1  0  0  0  0
 20 29  1  1  0  0  0
 20 10  1  0  0  0  0
 21  4  1  0  0  0  0
 22 21  1  0  0  0  0
 24  2  1  0  0  0  0
 25  5  2  0  0  0  0
 27 14  1  0  0  0  0
 28  9  1  0  0  0  0
 28 23  2  0  0  0  0
 29 30  1  0  0  0  0
 30 32  1  0  0  0  0
 31 30  1  0  0  0  0
M  END
>  <MODEL>
6

>  <REMARK>
 VINA RESULT:      -8.0      3.283      7.758
  Name = 
  2 active torsions:
  status: ('A' for Active; 'I' for Inactive)
    1  A    between atoms: C_20  and  C_29
    2  A    between atoms: C_29  and  N_30
                            x       y       z     vdW  Elec       q    Type
                         _______ _______ _______ _____ _____    ______ ____

>  <TORSDO>
F 2

$$$$
=
 OpenBabel11112416413D

 32 37  0  0  1  0  0  0  0  0999 V2000
  185.9410  176.4020  143.6980 C   0  0  0  0  0  2  0  0  0  0  0  0
  191.2340  175.6180  143.0500 C   0  0  0  0  0  0  0  0  0  0  0  0
  194.1750  176.8700  146.8090 C   0  0  0  0  0  2  0  0  0  0  0  0
  194.8360  175.6660  146.5130 O   0  0  0  0  0  0  0  0  0  0  0  0
  192.3170  174.4200  141.0920 C   0  0  0  0  0  0  0  0  0  0  0  0
  193.6090  174.1950  140.3610 C   0  0  2  0  0  3  0  0  0  0  0  0
  188.8000  176.0970  142.9910 C   0  0  1  0  0  3  0  0  0  0  0  0
  190.1260  176.7940  144.9840 C   0  0  0  0  0  2  0  0  0  0  0  0
  195.8290  173.1310  140.7370 C   0  0  2  0  0  3  0  0  0  0  0  0
  187.8570  177.7760  144.7160 C   0  0  0  0  0  2  0  0  0  0  0  0
  192.7060  176.7680  146.3900 C   0  0  0  0  0  2  0  0  0  0  0  0
  191.3470  176.2110  144.3240 C   0  0  0  0  0  0  0  0  0  0  0  0
  192.5820  176.2030  144.9950 C   0  0  0  0  0  0  0  0  0  0  0  0
  193.6020  175.0350  143.1160 C   0  0  0  0  0  0  0  0  0  0  0  0
  195.2340  172.6230  139.0920 S   0  0  0  0  0  0  0  0  0  0  0  0
  186.4660  177.0390  142.4070 C   0  0  0  0  0  2  0  0  0  0  0  0
  189.0910  177.2570  143.9640 C   0  0  2  0  0  3  0  0  0  0  0  0
  193.5490  173.0540  139.4630 N   0  0  0  0  0  2  0  0  0  0  0  0
  187.7710  176.4170  141.9020 C   0  0  0  0  0  2  0  0  0  0  0  0
  186.7970  176.6950  144.9470 C   0  0  1  0  0  3  0  0  0  0  0  0
  195.0240  175.6470  145.1170 C   0  0  0  0  0  2  0  0  0  0  0  0
  193.7020  175.5970  144.3960 C   0  0  0  0  0  0  0  0  0  0  0  0
  194.7400  174.3830  142.5270 N   0  0  0  0  0  0  0  0  0  0  0  0
  190.0050  175.6460  142.3760 O   0  0  0  0  0  0  0  0  0  0  0  0
  191.2190  174.1640  140.5260 O   0  0  0  0  0  0  0  0  0  0  0  0
  196.0470  171.8910  141.5840 C   0  0  0  0  0  1  0  0  0  0  0  0
  192.3640  175.0350  142.4400 C   0  0  0  0  0  0  0  0  0  0  0  0
  194.7370  173.9520  141.2990 C   0  0  0  0  0  0  0  0  0  0  0  0
  185.9010  177.1050  146.1040 C   0  0  0  0  0  2  0  0  0  0  0  0
  185.6180  178.5310  146.0460 N   0  0  0  0  0  0  0  0  0  0  0  0
  185.8580  179.0570  147.3770 C   0  0  0  0  0  1  0  0  0  0  0  0
  184.1940  178.6720  145.7960 C   0  0  0  0  0  1  0  0  0  0  0  0
  1 20  1  0  0  0  0
  2 12  1  0  0  0  0
  4  3  1  0  0  0  0
  5 27  1  0  0  0  0
  6 18  1  6  0  0  0
  6  5  1  0  0  0  0
  6 28  1  0  0  0  0
  7 19  1  6  0  0  0
  7 17  1  0  0  0  0
  9 28  1  0  0  0  0
  9 26  1  1  0  0  0
 10 20  1  0  0  0  0
 11  3  1  0  0  0  0
 12  8  1  0  0  0  0
 12 13  2  0  0  0  0
 13 11  1  0  0  0  0
 14 22  2  0  0  0  0
 15 18  1  0  0  0  0
 15  9  1  0  0  0  0
 16  1  1  0  0  0  0
 17 10  1  1  0  0  0
 17  8  1  0  0  0  0
 19 16  1  0  0  0  0
 20 29  1  1  0  0  0
 21  4  1  0  0  0  0
 22 13  1  0  0  0  0
 22 21  1  0  0  0  0
 23 14  1  0  0  0  0
 24  7  1  0  0  0  0
 24  2  1  0  0  0  0
 25  5  2  0  0  0  0
 27  2  2  0  0  0  0
 27 14  1  0  0  0  0
 28 23  2  0  0  0  0
 30 29  1  0  0  0  0
 30 31  1  0  0  0  0
 32 30  1  0  0  0  0
M  END
>  <MODEL>
7

>  <REMARK>
 VINA RESULT:      -7.8      2.035      2.496
  Name = 
  2 active torsions:
  status: ('A' for Active; 'I' for Inactive)
    1  A    between atoms: C_20  and  C_29
    2  A    between atoms: C_29  and  N_30
                            x       y       z     vdW  Elec       q    Type
                         _______ _______ _______ _____ _____    ______ ____

>  <TORSDO>
F 2

$$$$
=
 OpenBabel11112416413D

 32 37  0  0  1  0  0  0  0  0999 V2000
  191.3690  170.7250  142.7630 C   0  0  0  0  0  2  0  0  0  0  0  0
  188.5960  175.3090  143.3510 C   0  0  0  0  0  0  0  0  0  0  0  0
  186.6750  177.3210  139.2740 C   0  0  0  0  0  2  0  0  0  0  0  0
  185.5480  177.5460  140.0830 O   0  0  0  0  0  0  0  0  0  0  0  0
  187.9690  176.3780  145.5650 C   0  0  0  0  0  0  0  0  0  0  0  0
  187.5020  177.6460  146.2210 C   0  0  2  0  0  3  0  0  0  0  0  0
  190.1120  173.3440  143.3300 C   0  0  1  0  0  3  0  0  0  0  0  0
  189.2260  174.2170  141.1680 C   0  0  0  0  0  2  0  0  0  0  0  0
  185.4930  179.1150  146.2710 C   0  0  2  0  0  3  0  0  0  0  0  0
  191.1490  172.6430  141.0690 C   0  0  0  0  0  2  0  0  0  0  0  0
  187.4410  176.0990  139.7880 C   0  0  0  0  0  2  0  0  0  0  0  0
  188.4820  175.2700  141.9460 C   0  0  0  0  0  0  0  0  0  0  0  0
  187.6320  176.1730  141.2840 C   0  0  0  0  0  0  0  0  0  0  0  0
  187.0250  177.1740  143.4200 C   0  0  0  0  0  0  0  0  0  0  0  0
  186.0480  178.8630  147.9880 S   0  0  0  0  0  0  0  0  0  0  0  0
  192.1640  171.7880  143.5280 C   0  0  0  0  0  2  0  0  0  0  0  0
  190.4870  173.7570  141.8930 C   0  0  2  0  0  3  0  0  0  0  0  0
  187.0040  177.4240  147.5690 N   0  0  0  0  0  2  0  0  0  0  0  0
  191.2860  172.8570  144.1850 C   0  0  0  0  0  2  0  0  0  0  0  0
  190.6890  171.2400  141.4780 C   0  0  1  0  0  3  0  0  0  0  0  0
  186.0250  178.0980  141.2870 C   0  0  0  0  0  2  0  0  0  0  0  0
  186.8910  177.1100  142.0270 C   0  0  0  0  0  0  0  0  0  0  0  0
  186.2350  178.1080  144.1760 N   0  0  0  0  0  0  0  0  0  0  0  0
  189.4600  174.4190  144.0040 O   0  0  0  0  0  0  0  0  0  0  0  0
  188.5040  175.4700  146.2570 O   0  0  0  0  0  0  0  0  0  0  0  0
  184.0660  178.6130  146.1380 C   0  0  0  0  0  1  0  0  0  0  0  0
  187.8720  176.2670  144.0900 C   0  0  0  0  0  0  0  0  0  0  0  0
  186.4060  178.2920  145.4530 C   0  0  0  0  0  0  0  0  0  0  0  0
  190.9430  170.2720  140.3330 C   0  0  0  0  0  2  0  0  0  0  0  0
  190.9040  170.9720  139.0590 N   0  0  0  0  0  0  0  0  0  0  0  0
  189.6910  170.5450  138.3870 C   0  0  0  0  0  1  0  0  0  0  0  0
  192.0150  170.4730  138.2660 C   0  0  0  0  0  1  0  0  0  0  0  0
  1 16  1  0  0  0  0
  2 24  1  0  0  0  0
  2 27  1  0  0  0  0
  3 11  1  0  0  0  0
  3  4  1  0  0  0  0
  4 21  1  0  0  0  0
  5  6  1  0  0  0  0
  5 25  2  0  0  0  0
  6 28  1  6  0  0  0
  6 18  1  0  0  0  0
  7 24  1  0  0  0  0
  7 19  1  1  0  0  0
  8 17  1  0  0  0  0
  8 12  1  0  0  0  0
  9 26  1  1  0  0  0
  9 15  1  0  0  0  0
 10 20  1  0  0  0  0
 11 13  1  0  0  0  0
 12  2  2  0  0  0  0
 13 12  1  0  0  0  0
 13 22  2  0  0  0  0
 14 27  2  0  0  0  0
 14 23  1  0  0  0  0
 16 19  1  0  0  0  0
 17 10  1  6  0  0  0
 17  7  1  0  0  0  0
 18 15  1  0  0  0  0
 20 29  1  6  0  0  0
 20  1  1  0  0  0  0
 21 22  1  0  0  0  0
 22 14  1  0  0  0  0
 23 28  2  0  0  0  0
 27  5  1  0  0  0  0
 28  9  1  0  0  0  0
 30 29  1  0  0  0  0
 31 30  1  0  0  0  0
 32 30  1  0  0  0  0
M  END
>  <MODEL>
8

>  <REMARK>
 VINA RESULT:      -7.7      3.117      8.567
  Name = 
  2 active torsions:
  status: ('A' for Active; 'I' for Inactive)
    1  A    between atoms: C_20  and  C_29
    2  A    between atoms: C_29  and  N_30
                            x       y       z     vdW  Elec       q    Type
                         _______ _______ _______ _____ _____    ______ ____

>  <TORSDO>
F 2

$$$$
=
 OpenBabel11112416413D

 32 37  0  0  1  0  0  0  0  0999 V2000
  186.6260  178.6440  144.6100 C   0  0  0  0  0  2  0  0  0  0  0  0
  189.9050  174.5540  143.3580 C   0  0  0  0  0  0  0  0  0  0  0  0
  189.1900  172.3420  139.0060 C   0  0  0  0  0  2  0  0  0  0  0  0
  190.5930  172.3590  138.9220 O   0  0  0  0  0  0  0  0  0  0  0  0
  191.9460  173.8420  144.6890 C   0  0  0  0  0  0  0  0  0  0  0  0
  192.9290  172.7300  144.9150 C   0  0  2  0  0  3  0  0  0  0  0  0
  188.3930  176.2920  144.2810 C   0  0  1  0  0  3  0  0  0  0  0  0
  187.8780  175.2930  142.0550 C   0  0  0  0  0  2  0  0  0  0  0  0
  194.7510  171.5460  143.6980 C   0  0  2  0  0  3  0  0  0  0  0  0
  186.0740  176.5850  143.1780 C   0  0  0  0  0  2  0  0  0  0  0  0
  188.7120  173.5070  139.8760 C   0  0  0  0  0  2  0  0  0  0  0  0
  189.1130  174.4430  142.1970 C   0  0  0  0  0  0  0  0  0  0  0  0
  189.5080  173.5850  141.1560 C   0  0  0  0  0  0  0  0  0  0  0  0
  191.4720  172.9270  142.4380 C   0  0  0  0  0  0  0  0  0  0  0  0
  195.3500  171.9240  145.3770 S   0  0  0  0  0  0  0  0  0  0  0  0
  186.6780  177.5850  145.7160 C   0  0  0  0  0  2  0  0  0  0  0  0
  187.2850  175.6690  143.4090 C   0  0  2  0  0  3  0  0  0  0  0  0
  194.1080  173.1700  145.6420 N   0  0  0  0  0  2  0  0  0  0  0  0
  187.9420  176.7220  145.6810 C   0  0  0  0  0  2  0  0  0  0  0  0
  186.4360  178.0740  143.1900 C   0  0  1  0  0  3  0  0  0  0  0  0
  191.0720  171.8960  140.1620 C   0  0  0  0  0  2  0  0  0  0  0  0
  190.6980  172.8440  141.2730 C   0  0  0  0  0  0  0  0  0  0  0  0
  192.7080  172.1970  142.5340 N   0  0  0  0  0  0  0  0  0  0  0  0
  189.4960  175.3960  144.4020 O   0  0  0  0  0  0  0  0  0  0  0  0
  191.8080  174.7480  145.5550 O   0  0  0  0  0  0  0  0  0  0  0  0
  195.6720  172.2080  142.6890 C   0  0  0  0  0  1  0  0  0  0  0  0
  191.0840  173.7900  143.4830 C   0  0  0  0  0  0  0  0  0  0  0  0
  193.4020  172.1440  143.6330 C   0  0  0  0  0  0  0  0  0  0  0  0
  185.3640  178.8600  142.4540 C   0  0  0  0  0  2  0  0  0  0  0  0
  184.4030  177.9560  141.8410 N   0  0  0  0  0  0  0  0  0  0  0  0
  184.3590  178.2910  140.4300 C   0  0  0  0  0  1  0  0  0  0  0  0
  183.0980  178.2910  142.3860 C   0  0  0  0  0  1  0  0  0  0  0  0
  1 16  1  0  0  0  0
  2 27  1  0  0  0  0
  2 24  1  0  0  0  0
  3 11  1  0  0  0  0
  4  3  1  0  0  0  0
  4 21  1  0  0  0  0
  5  6  1  0  0  0  0
  5 25  2  0  0  0  0
  6 28  1  6  0  0  0
  6 18  1  0  0  0  0
  7 24  1  0  0  0  0
  7 19  1  1  0  0  0
  8 12  1  0  0  0  0
  9 26  1  6  0  0  0
  9 15  1  0  0  0  0
 10 20  1  0  0  0  0
 10 17  1  0  0  0  0
 11 13  1  0  0  0  0
 12  2  2  0  0  0  0
 13 22  2  0  0  0  0
 13 12  1  0  0  0  0
 14 23  1  0  0  0  0
 14 27  2  0  0  0  0
 15 18  1  0  0  0  0
 17  8  1  6  0  0  0
 17  7  1  0  0  0  0
 19 16  1  0  0  0  0
 20 29  1  1  0  0  0
 20  1  1  0  0  0  0
 21 22  1  0  0  0  0
 22 14  1  0  0  0  0
 23 28  2  0  0  0  0
 27  5  1  0  0  0  0
 28  9  1  0  0  0  0
 30 32  1  0  0  0  0
 30 29  1  0  0  0  0
 31 30  1  0  0  0  0
M  END
>  <MODEL>
9

>  <REMARK>
 VINA RESULT:      -7.5      2.352      4.669
  Name = 
  2 active torsions:
  status: ('A' for Active; 'I' for Inactive)
    1  A    between atoms: C_20  and  C_29
    2  A    between atoms: C_29  and  N_30
                            x       y       z     vdW  Elec       q    Type
                         _______ _______ _______ _____ _____    ______ ____

>  <TORSDO>
F 2

$$$$
