=
 OpenBabel11112418073D

 34 40  0  0  1  0  0  0  0  0999 V2000
  192.6600  175.8910  146.2540 C   0  0  1  0  0  3  0  0  0  0  0  0
  194.8490  174.9050  146.2510 C   0  0  0  0  0  2  0  0  0  0  0  0
  187.0390  176.7920  143.3960 C   0  0  0  0  0  0  0  0  0  0  0  0
  190.3470  176.8440  146.2120 C   0  0  2  0  0  3  0  0  0  0  0  0
  189.4090  177.5670  143.9720 C   0  0  2  0  0  3  0  0  0  0  0  0
  188.4610  177.9140  141.5930 C   0  0  0  0  0  1  0  0  0  0  0  0
  186.7200  175.6540  142.4810 C   0  0  0  0  0  1  0  0  0  0  0  0
  186.6570  177.9620  145.4610 C   0  0  0  0  0  2  0  0  0  0  0  0
  193.9360  175.6800  144.2930 C   0  0  2  0  0  3  0  0  0  0  0  0
  194.0620  174.2710  141.4080 C   0  0  0  0  0  2  0  0  0  0  0  0
  190.4420  176.6370  143.3310 C   0  0  0  0  0  2  0  0  0  0  0  0
  188.0350  177.8530  146.1400 C   0  0  0  0  0  2  0  0  0  0  0  0
  192.6920  175.8630  143.3970 C   0  0  1  0  0  3  0  0  0  0  0  0
  196.1080  174.3090  145.0750 S   0  0  0  0  0  0  0  0  0  0  0  0
  189.0760  177.0200  145.3780 C   0  0  2  0  0  3  0  0  0  0  0  0
  186.3990  176.8930  144.5120 N   0  0  0  0  0  0  0  0  0  0  0  0
  194.7140  173.7860  142.7150 C   0  0  1  0  0  3  0  0  0  0  0  0
  191.3820  176.0300  145.4120 C   0  0  1  0  0  3  0  0  0  0  0  0
  188.1620  177.7560  143.0810 C   0  0  1  0  0  3  0  0  0  0  0  0
  191.6790  176.6600  144.1140 N   0  0  2  0  0  0  0  0  0  0  0  0
  191.1830  176.2020  148.2240 C   0  0  0  0  0  2  0  0  0  0  0  0
  194.1040  175.7900  141.2180 C   0  0  0  0  0  2  0  0  0  0  0  0
  190.0380  176.1580  147.4060 O   0  0  0  0  0  0  0  0  0  0  0  0
  193.0510  176.5310  142.0560 C   0  0  0  0  0  2  0  0  0  0  0  0
  195.1120  174.9220  143.6830 C   0  0  1  0  0  3  0  0  0  0  0  0
  192.2880  175.3280  147.6270 C   0  0  0  0  0  2  0  0  0  0  0  0
  193.5840  175.0140  145.5380 N   0  0  2  0  0  0  0  0  0  0  0  0
  193.8350  172.8190  143.3580 N   0  0  0  0  0  2  0  0  0  0  0  0
  192.8760  172.4890  142.4590 O   0  0  0  0  0  0  0  0  0  0  0  0
  190.1150  172.9390  143.8340 O   0  0  0  0  0  0  0  0  0  0  0  0
  190.8380  171.3040  142.2880 C   0  0  0  0  0  2  0  0  0  0  0  0
  191.9960  171.6710  143.1690 C   0  0  2  0  0  3  0  0  0  0  0  0
  189.6470  171.9540  142.9540 C   0  0  0  0  0  2  0  0  0  0  0  0
  191.3570  172.4690  144.2820 C   0  0  0  0  0  2  0  0  0  0  0  0
  1 26  1  1  0  0  0
  3 16  2  0  0  0  0
  4 23  1  1  0  0  0
  5 11  1  6  0  0  0
  5 15  1  0  0  0  0
  6 19  1  0  0  0  0
  7  3  1  0  0  0  0
  8 12  1  0  0  0  0
  9 27  1  0  0  0  0
 10 17  1  0  0  0  0
 11 20  1  0  0  0  0
 13 20  1  0  0  0  0
 13  9  1  0  0  0  0
 14  2  1  0  0  0  0
 15 12  1  0  0  0  0
 15  4  1  0  0  0  0
 16  8  1  0  0  0  0
 17 28  1  0  0  0  0
 17 25  1  0  0  0  0
 18  4  1  0  0  0  0
 18  1  1  0  0  0  0
 19  3  1  0  0  0  0
 19  5  1  0  0  0  0
 20 18  1  0  0  0  0
 22 10  1  0  0  0  0
 22 24  1  0  0  0  0
 23 21  1  0  0  0  0
 24 13  1  0  0  0  0
 25  9  1  0  0  0  0
 25 14  1  0  0  0  0
 26 21  1  0  0  0  0
 27  2  1  0  0  0  0
 27  1  1  0  0  0  0
 29 32  1  0  0  0  0
 29 28  1  0  0  0  0
 30 34  1  0  0  0  0
 31 33  1  0  0  0  0
 31 32  1  0  0  0  0
 32 34  1  0  0  0  0
 33 30  1  0  0  0  0
M  END
>  <MODEL>
1

>  <REMARK>
 VINA RESULT:      -6.8      0.000      0.000
  Name = 
  3 active torsions:
  status: ('A' for Active; 'I' for Inactive)
    1  A    between atoms: C_17  and  N_28
    2  A    between atoms: N_28  and  O_29
    3  A    between atoms: O_29  and  C_32
                            x       y       z     vdW  Elec       q    Type
                         _______ _______ _______ _____ _____    ______ ____

>  <TORSDO>
F 3

$$$$
=
 OpenBabel11112418073D

 34 40  0  0  1  0  0  0  0  0999 V2000
  190.4460  173.6740  141.8160 C   0  0  1  0  0  3  0  0  0  0  0  0
  188.1550  174.3850  141.9290 C   0  0  0  0  0  2  0  0  0  0  0  0
  196.3640  173.8210  144.1670 C   0  0  0  0  0  0  0  0  0  0  0  0
  192.8370  172.9370  141.7900 C   0  0  2  0  0  3  0  0  0  0  0  0
  194.5980  174.6180  142.4950 C   0  0  2  0  0  3  0  0  0  0  0  0
  196.2260  176.3050  143.5800 C   0  0  0  0  0  1  0  0  0  0  0  0
  196.3470  174.1330  145.6280 C   0  0  0  0  0  1  0  0  0  0  0  0
  196.6530  172.2280  142.3910 C   0  0  0  0  0  2  0  0  0  0  0  0
  189.8390  175.8510  142.4570 C   0  0  2  0  0  3  0  0  0  0  0  0
  189.8830  177.9570  144.8840 C   0  0  0  0  0  2  0  0  0  0  0  0
  193.4770  175.3630  143.2230 C   0  0  0  0  0  2  0  0  0  0  0  0
  195.2620  172.2420  141.7300 C   0  0  0  0  0  2  0  0  0  0  0  0
  191.2160  176.1020  143.1100 C   0  0  1  0  0  3  0  0  0  0  0  0
  187.1570  175.7800  142.5450 S   0  0  0  0  0  0  0  0  0  0  0  0
  194.2150  173.1220  142.4280 C   0  0  2  0  0  3  0  0  0  0  0  0
  196.6280  172.6160  143.7900 N   0  0  0  0  0  0  0  0  0  0  0  0
  188.7380  177.0060  144.4910 C   0  0  1  0  0  3  0  0  0  0  0  0
  191.8140  173.8520  142.4910 C   0  0  1  0  0  3  0  0  0  0  0  0
  195.9780  174.8650  143.1410 C   0  0  1  0  0  3  0  0  0  0  0  0
  192.2360  175.2630  142.4520 N   0  0  2  0  0  0  0  0  0  0  0  0
  191.2640  171.4280  141.1510 C   0  0  0  0  0  2  0  0  0  0  0  0
  190.6250  178.5630  143.6900 C   0  0  0  0  0  2  0  0  0  0  0  0
  192.4290  171.5930  141.9260 O   0  0  0  0  0  0  0  0  0  0  0  0
  191.6160  177.5890  143.0380 C   0  0  0  0  0  2  0  0  0  0  0  0
  188.6730  176.6840  142.9810 C   0  0  1  0  0  3  0  0  0  0  0  0
  190.0980  172.1840  141.7890 C   0  0  0  0  0  2  0  0  0  0  0  0
  189.4620  174.4500  142.5680 N   0  0  2  0  0  0  0  0  0  0  0  0
  188.8270  175.7930  145.2930 N   0  0  0  0  0  2  0  0  0  0  0  0
  188.9900  176.1760  146.5820 O   0  0  0  0  0  0  0  0  0  0  0  0
  191.5690  174.5650  145.8920 O   0  0  0  0  0  0  0  0  0  0  0  0
  190.8820  175.6280  147.8890 C   0  0  0  0  0  2  0  0  0  0  0  0
  189.6640  175.1110  147.1820 C   0  0  2  0  0  3  0  0  0  0  0  0
  192.0360  175.0070  147.1380 C   0  0  0  0  0  2  0  0  0  0  0  0
  190.2300  174.2100  146.1100 C   0  0  0  0  0  2  0  0  0  0  0  0
  1 26  1  1  0  0  0
  1 18  1  0  0  0  0
  1 27  1  0  0  0  0
  2 14  1  0  0  0  0
  2 27  1  0  0  0  0
  3  7  1  0  0  0  0
  4 23  1  1  0  0  0
  4 15  1  0  0  0  0
  4 18  1  0  0  0  0
  5 19  1  0  0  0  0
  5 11  1  1  0  0  0
  8 16  1  0  0  0  0
  9 27  1  0  0  0  0
  9 25  1  0  0  0  0
  9 13  1  0  0  0  0
 12  8  1  0  0  0  0
 12 15  1  0  0  0  0
 14 25  1  0  0  0  0
 15  5  1  0  0  0  0
 16  3  2  0  0  0  0
 17 10  1  0  0  0  0
 17 28  1  0  0  0  0
 19  6  1  0  0  0  0
 19  3  1  0  0  0  0
 20 18  1  0  0  0  0
 20 13  1  0  0  0  0
 20 11  1  0  0  0  0
 21 26  1  0  0  0  0
 21 23  1  0  0  0  0
 22 10  1  0  0  0  0
 24 13  1  0  0  0  0
 24 22  1  0  0  0  0
 25 17  1  0  0  0  0
 28 29  1  0  0  0  0
 29 32  1  0  0  0  0
 30 34  1  0  0  0  0
 30 33  1  0  0  0  0
 32 31  1  0  0  0  0
 33 31  1  0  0  0  0
 34 32  1  0  0  0  0
M  END
>  <MODEL>
2

>  <REMARK>
 VINA RESULT:      -6.7      2.407      6.981
  Name = 
  3 active torsions:
  status: ('A' for Active; 'I' for Inactive)
    1  A    between atoms: C_17  and  N_28
    2  A    between atoms: N_28  and  O_29
    3  A    between atoms: O_29  and  C_32
                            x       y       z     vdW  Elec       q    Type
                         _______ _______ _______ _____ _____    ______ ____

>  <TORSDO>
F 3

$$$$
=
 OpenBabel11112418073D

 34 40  0  0  1  0  0  0  0  0999 V2000
  189.1810  174.5010  141.0100 C   0  0  1  0  0  3  0  0  0  0  0  0
  187.4360  176.1460  141.1270 C   0  0  0  0  0  2  0  0  0  0  0  0
  194.1140  171.5250  143.7260 C   0  0  0  0  0  0  0  0  0  0  0  0
  190.9890  172.7710  140.9780 C   0  0  2  0  0  3  0  0  0  0  0  0
  193.1620  173.3140  142.1640 C   0  0  2  0  0  3  0  0  0  0  0  0
  195.1580  173.8570  143.7110 C   0  0  0  0  0  1  0  0  0  0  0  0
  193.9960  171.5530  145.2150 C   0  0  0  0  0  1  0  0  0  0  0  0
  193.9720  170.3080  141.6580 C   0  0  0  0  0  2  0  0  0  0  0  0
  189.4770  176.5670  142.0860 C   0  0  2  0  0  3  0  0  0  0  0  0
  190.0300  177.9670  144.9260 C   0  0  0  0  0  2  0  0  0  0  0  0
  192.3710  174.3500  142.9640 C   0  0  0  0  0  2  0  0  0  0  0  0
  192.8510  171.0690  140.9260 C   0  0  0  0  0  2  0  0  0  0  0  0
  190.7020  176.0460  142.8700 C   0  0  1  0  0  3  0  0  0  0  0  0
  187.0520  177.7130  141.9750 S   0  0  0  0  0  0  0  0  0  0  0  0
  192.1880  172.1940  141.7330 C   0  0  2  0  0  3  0  0  0  0  0  0
  193.8900  170.4170  143.1040 N   0  0  0  0  0  0  0  0  0  0  0  0
  188.6680  177.7270  144.2500 C   0  0  1  0  0  3  0  0  0  0  0  0
  190.3620  173.9150  141.7980 C   0  0  1  0  0  3  0  0  0  0  0  0
  194.3880  172.7890  142.9410 C   0  0  1  0  0  3  0  0  0  0  0  0
  191.3510  174.9620  142.1100 N   0  0  2  0  0  0  0  0  0  0  0  0
  189.0460  172.2810  139.9090 C   0  0  0  0  0  2  0  0  0  0  0  0
  191.1450  178.3650  143.9530 C   0  0  0  0  0  2  0  0  0  0  0  0
  190.0250  171.7610  140.7780 O   0  0  0  0  0  0  0  0  0  0  0  0
  191.7100  177.1740  143.1650 C   0  0  0  0  0  2  0  0  0  0  0  0
  188.7170  177.7360  142.7060 C   0  0  1  0  0  3  0  0  0  0  0  0
  188.2330  173.3630  140.6220 C   0  0  0  0  0  2  0  0  0  0  0  0
  188.5200  175.4970  141.8500 N   0  0  2  0  0  0  0  0  0  0  0  0
  188.0930  176.4890  144.7600 N   0  0  0  0  0  2  0  0  0  0  0  0
  187.5470  176.7690  145.9670 O   0  0  0  0  0  0  0  0  0  0  0  0
  184.5080  177.1550  146.5470 O   0  0  0  0  0  0  0  0  0  0  0  0
  186.3660  178.5540  146.9720 C   0  0  0  0  0  2  0  0  0  0  0  0
  186.6270  177.7860  145.7090 C   0  0  2  0  0  3  0  0  0  0  0  0
  184.9100  178.2850  147.2720 C   0  0  0  0  0  2  0  0  0  0  0  0
  185.2850  177.1750  145.3800 C   0  0  0  0  0  2  0  0  0  0  0  0
  1 26  1  1  0  0  0
  1 18  1  0  0  0  0
  1 27  1  0  0  0  0
  2 27  1  0  0  0  0
  2 14  1  0  0  0  0
  3  7  1  0  0  0  0
  4 23  1  1  0  0  0
  4 15  1  0  0  0  0
  4 18  1  0  0  0  0
  5 19  1  0  0  0  0
  5 11  1  1  0  0  0
  8 16  1  0  0  0  0
  9 25  1  0  0  0  0
  9 13  1  0  0  0  0
 12  8  1  0  0  0  0
 12 15  1  0  0  0  0
 13 24  1  0  0  0  0
 14 25  1  0  0  0  0
 15  5  1  0  0  0  0
 16  3  2  0  0  0  0
 17 28  1  0  0  0  0
 17 10  1  0  0  0  0
 18 20  1  0  0  0  0
 19  6  1  0  0  0  0
 19  3  1  0  0  0  0
 20 13  1  0  0  0  0
 20 11  1  0  0  0  0
 21 26  1  0  0  0  0
 21 23  1  0  0  0  0
 22 10  1  0  0  0  0
 24 22  1  0  0  0  0
 25 17  1  0  0  0  0
 27  9  1  0  0  0  0
 28 29  1  0  0  0  0
 30 33  1  0  0  0  0
 31 33  1  0  0  0  0
 32 29  1  0  0  0  0
 32 31  1  0  0  0  0
 34 32  1  0  0  0  0
 34 30  1  0  0  0  0
M  END
>  <MODEL>
3

>  <REMARK>
 VINA RESULT:      -6.6      2.895      7.538
  Name = 
  3 active torsions:
  status: ('A' for Active; 'I' for Inactive)
    1  A    between atoms: C_17  and  N_28
    2  A    between atoms: N_28  and  O_29
    3  A    between atoms: O_29  and  C_32
                            x       y       z     vdW  Elec       q    Type
                         _______ _______ _______ _____ _____    ______ ____

>  <TORSDO>
F 3

$$$$
=
 OpenBabel11112418073D

 34 40  0  0  1  0  0  0  0  0999 V2000
  192.6970  175.9360  146.2530 C   0  0  1  0  0  3  0  0  0  0  0  0
  194.9220  175.0330  146.2330 C   0  0  0  0  0  2  0  0  0  0  0  0
  187.0810  176.7660  143.3660 C   0  0  0  0  0  0  0  0  0  0  0  0
  190.3510  176.8050  146.2260 C   0  0  2  0  0  3  0  0  0  0  0  0
  189.4130  177.6000  144.0100 C   0  0  2  0  0  3  0  0  0  0  0  0
  188.4810  178.0240  141.6380 C   0  0  0  0  0  1  0  0  0  0  0  0
  186.8150  175.6630  142.3940 C   0  0  0  0  0  1  0  0  0  0  0  0
  186.6310  177.8210  145.4790 C   0  0  0  0  0  2  0  0  0  0  0  0
  194.0040  175.8660  144.3030 C   0  0  2  0  0  3  0  0  0  0  0  0
  194.2150  174.6020  141.3560 C   0  0  0  0  0  2  0  0  0  0  0  0
  190.4870  176.7400  143.3400 C   0  0  0  0  0  2  0  0  0  0  0  0
  188.0040  177.7310  146.1700 C   0  0  0  0  0  2  0  0  0  0  0  0
  192.7640  176.0460  143.4000 C   0  0  1  0  0  3  0  0  0  0  0  0
  196.2160  174.5400  145.0480 S   0  0  0  0  0  0  0  0  0  0  0  0
  189.0850  176.9740  145.3840 C   0  0  2  0  0  3  0  0  0  0  0  0
  186.4240  176.7910  144.4770 N   0  0  0  0  0  0  0  0  0  0  0  0
  194.8700  174.0800  142.6470 C   0  0  1  0  0  3  0  0  0  0  0  0
  191.4260  176.0680  145.4020 C   0  0  1  0  0  3  0  0  0  0  0  0
  188.1710  177.7850  143.1120 C   0  0  1  0  0  3  0  0  0  0  0  0
  191.7140  176.7700  144.1390 N   0  0  2  0  0  0  0  0  0  0  0  0
  191.1870  176.0990  148.2160 C   0  0  0  0  0  2  0  0  0  0  0  0
  194.2030  176.1290  141.2390 C   0  0  0  0  0  2  0  0  0  0  0  0
  190.0540  176.0520  147.3810 O   0  0  0  0  0  0  0  0  0  0  0  0
  193.1140  176.7900  142.0960 C   0  0  0  0  0  2  0  0  0  0  0  0
  195.2140  175.1820  143.6730 C   0  0  1  0  0  3  0  0  0  0  0  0
  192.3310  175.2950  147.5940 C   0  0  0  0  0  2  0  0  0  0  0  0
  193.6620  175.1290  145.5100 N   0  0  2  0  0  0  0  0  0  0  0  0
  194.0200  173.0510  143.2320 N   0  0  0  0  0  2  0  0  0  0  0  0
  194.6850  171.8760  143.1300 O   0  0  0  0  0  0  0  0  0  0  0  0
  195.4790  169.4530  144.9250 O   0  0  0  0  0  0  0  0  0  0  0  0
  194.1910  171.3810  145.3880 C   0  0  0  0  0  2  0  0  0  0  0  0
  193.9770  170.9990  143.9530 C   0  0  2  0  0  3  0  0  0  0  0  0
  194.9350  170.2040  145.9760 C   0  0  0  0  0  2  0  0  0  0  0  0
  194.5860  169.6200  143.8570 C   0  0  0  0  0  2  0  0  0  0  0  0
  1 26  1  1  0  0  0
  3 16  2  0  0  0  0
  4 23  1  1  0  0  0
  5 11  1  6  0  0  0
  5 15  1  0  0  0  0
  6 19  1  0  0  0  0
  7  3  1  0  0  0  0
  8 12  1  0  0  0  0
  9 27  1  0  0  0  0
 10 17  1  0  0  0  0
 11 20  1  0  0  0  0
 13 20  1  0  0  0  0
 13  9  1  0  0  0  0
 14  2  1  0  0  0  0
 15 12  1  0  0  0  0
 15  4  1  0  0  0  0
 16  8  1  0  0  0  0
 17 28  1  0  0  0  0
 17 25  1  0  0  0  0
 18  4  1  0  0  0  0
 18  1  1  0  0  0  0
 19  3  1  0  0  0  0
 19  5  1  0  0  0  0
 20 18  1  0  0  0  0
 22 10  1  0  0  0  0
 22 24  1  0  0  0  0
 23 21  1  0  0  0  0
 24 13  1  0  0  0  0
 25  9  1  0  0  0  0
 25 14  1  0  0  0  0
 26 21  1  0  0  0  0
 27  2  1  0  0  0  0
 27  1  1  0  0  0  0
 29 28  1  0  0  0  0
 29 32  1  0  0  0  0
 30 33  1  0  0  0  0
 31 33  1  0  0  0  0
 32 31  1  0  0  0  0
 34 32  1  0  0  0  0
 34 30  1  0  0  0  0
M  END
>  <MODEL>
4

>  <REMARK>
 VINA RESULT:      -6.4      1.484      1.970
  Name = 
  3 active torsions:
  status: ('A' for Active; 'I' for Inactive)
    1  A    between atoms: C_17  and  N_28
    2  A    between atoms: N_28  and  O_29
    3  A    between atoms: O_29  and  C_32
                            x       y       z     vdW  Elec       q    Type
                         _______ _______ _______ _____ _____    ______ ____

>  <TORSDO>
F 3

$$$$
=
 OpenBabel11112418073D

 34 40  0  0  1  0  0  0  0  0999 V2000
  189.8830  172.4080  142.7270 C   0  0  1  0  0  3  0  0  0  0  0  0
  189.9050  173.3130  144.9510 C   0  0  0  0  0  2  0  0  0  0  0  0
  190.3030  173.2950  136.4340 C   0  0  0  0  0  0  0  0  0  0  0  0
  189.9220  171.5290  140.3850 C   0  0  2  0  0  3  0  0  0  0  0  0
  188.9200  172.9800  138.5640 C   0  0  2  0  0  3  0  0  0  0  0  0
  188.2040  174.7100  136.7840 C   0  0  0  0  0  1  0  0  0  0  0  0
  191.1100  174.5130  136.1220 C   0  0  0  0  0  1  0  0  0  0  0  0
  190.1090  170.9010  136.5120 C   0  0  0  0  0  2  0  0  0  0  0  0
  188.9410  174.4980  143.2390 C   0  0  2  0  0  3  0  0  0  0  0  0
  189.1730  177.6590  142.7030 C   0  0  0  0  0  2  0  0  0  0  0  0
  189.1250  174.1660  139.5090 C   0  0  0  0  0  2  0  0  0  0  0  0
  189.9010  170.6540  138.0180 C   0  0  0  0  0  2  0  0  0  0  0  0
  188.9630  174.9330  141.7570 C   0  0  1  0  0  3  0  0  0  0  0  0
  189.5590  174.8750  145.8250 S   0  0  0  0  0  0  0  0  0  0  0  0
  189.9790  171.9070  138.9030 C   0  0  2  0  0  3  0  0  0  0  0  0
  190.8220  172.1330  136.2250 N   0  0  0  0  0  0  0  0  0  0  0  0
  189.7710  176.8630  143.8770 C   0  0  1  0  0  3  0  0  0  0  0  0
  189.9730  172.8070  141.2460 C   0  0  1  0  0  3  0  0  0  0  0  0
  188.9390  173.4070  137.0800 C   0  0  1  0  0  3  0  0  0  0  0  0
  188.8910  173.7420  140.8910 N   0  0  2  0  0  0  0  0  0  0  0  0
  190.8160  170.2230  142.0130 C   0  0  0  0  0  2  0  0  0  0  0  0
  187.7800  177.1860  142.2780 C   0  0  0  0  0  2  0  0  0  0  0  0
  191.0220  170.7080  140.7060 O   0  0  0  0  0  0  0  0  0  0  0  0
  187.8100  175.9030  141.4330 C   0  0  0  0  0  2  0  0  0  0  0  0
  188.9520  175.6160  144.2780 C   0  0  1  0  0  3  0  0  0  0  0  0
  190.9590  171.3620  143.0240 C   0  0  0  0  0  2  0  0  0  0  0  0
  190.0580  173.6130  143.5350 N   0  0  2  0  0  0  0  0  0  0  0  0
  191.1520  176.5180  143.5650 N   0  0  0  0  0  2  0  0  0  0  0  0
  191.9380  177.1760  144.4510 O   0  0  0  0  0  0  0  0  0  0  0  0
  194.9530  177.1560  145.2460 O   0  0  0  0  0  0  0  0  0  0  0  0
  193.0300  176.4160  146.4050 C   0  0  0  0  0  2  0  0  0  0  0  0
  192.8120  176.2010  144.9360 C   0  0  2  0  0  3  0  0  0  0  0  0
  194.4950  176.7680  146.5130 C   0  0  0  0  0  2  0  0  0  0  0  0
  194.1830  176.4160  144.3380 C   0  0  0  0  0  2  0  0  0  0  0  0
  1 26  1  1  0  0  0
  1 27  1  0  0  0  0
  2 14  1  0  0  0  0
  3 19  1  0  0  0  0
  4 23  1  1  0  0  0
  4 18  1  0  0  0  0
  5 15  1  0  0  0  0
  5 11  1  1  0  0  0
  6 19  1  0  0  0  0
  7  3  1  0  0  0  0
  8 12  1  0  0  0  0
  9 27  1  0  0  0  0
  9 25  1  0  0  0  0
 10 17  1  0  0  0  0
 11 20  1  0  0  0  0
 12 15  1  0  0  0  0
 13  9  1  0  0  0  0
 15  4  1  0  0  0  0
 16  3  2  0  0  0  0
 16  8  1  0  0  0  0
 17 25  1  0  0  0  0
 18  1  1  0  0  0  0
 19  5  1  0  0  0  0
 20 18  1  0  0  0  0
 20 13  1  0  0  0  0
 21 26  1  0  0  0  0
 22 10  1  0  0  0  0
 23 21  1  0  0  0  0
 24 13  1  0  0  0  0
 24 22  1  0  0  0  0
 25 14  1  0  0  0  0
 27  2  1  0  0  0  0
 28 17  1  0  0  0  0
 28 29  1  0  0  0  0
 29 32  1  0  0  0  0
 30 33  1  0  0  0  0
 31 33  1  0  0  0  0
 32 31  1  0  0  0  0
 34 32  1  0  0  0  0
 34 30  1  0  0  0  0
M  END
>  <MODEL>
5

>  <REMARK>
 VINA RESULT:      -6.4      3.778      6.948
  Name = 
  3 active torsions:
  status: ('A' for Active; 'I' for Inactive)
    1  A    between atoms: C_17  and  N_28
    2  A    between atoms: N_28  and  O_29
    3  A    between atoms: O_29  and  C_32
                            x       y       z     vdW  Elec       q    Type
                         _______ _______ _______ _____ _____    ______ ____

>  <TORSDO>
F 3

$$$$
=
 OpenBabel11112418073D

 34 40  0  0  1  0  0  0  0  0999 V2000
  192.9790  175.6560  144.5020 C   0  0  1  0  0  3  0  0  0  0  0  0
  191.2250  176.1010  146.0810 C   0  0  0  0  0  2  0  0  0  0  0  0
  194.8560  174.8010  138.4760 C   0  0  0  0  0  0  0  0  0  0  0  0
  194.7630  175.2460  142.7970 C   0  0  2  0  0  3  0  0  0  0  0  0
  194.1500  173.8750  140.7550 C   0  0  2  0  0  3  0  0  0  0  0  0
  193.2870  172.7860  138.5770 C   0  0  0  0  0  1  0  0  0  0  0  0
  193.9400  175.5070  137.5300 C   0  0  0  0  0  1  0  0  0  0  0  0
  196.9760  174.6730  139.6030 C   0  0  0  0  0  2  0  0  0  0  0  0
  190.8090  174.7950  144.2410 C   0  0  2  0  0  3  0  0  0  0  0  0
  188.1920  174.8540  142.3770 C   0  0  0  0  0  2  0  0  0  0  0  0
  192.6940  174.2400  141.0480 C   0  0  0  0  0  2  0  0  0  0  0  0
  196.5500  174.7730  141.0790 C   0  0  0  0  0  2  0  0  0  0  0  0
  191.0420  174.5130  142.7410 C   0  0  1  0  0  3  0  0  0  0  0  0
  189.4210  175.9060  146.2530 S   0  0  0  0  0  0  0  0  0  0  0  0
  195.0500  175.0010  141.3140 C   0  0  2  0  0  3  0  0  0  0  0  0
  196.0300  175.2910  138.6900 N   0  0  0  0  0  0  0  0  0  0  0  0
  188.4580  175.6880  143.6420 C   0  0  1  0  0  3  0  0  0  0  0  0
  193.2480  175.4420  143.0060 C   0  0  1  0  0  3  0  0  0  0  0  0
  194.3910  173.5910  139.2570 C   0  0  1  0  0  3  0  0  0  0  0  0
  192.4790  174.2940  142.4950 N   0  0  2  0  0  0  0  0  0  0  0  0
  195.3190  176.4710  144.6270 C   0  0  0  0  0  2  0  0  0  0  0  0
  188.7050  173.4140  142.4630 C   0  0  0  0  0  2  0  0  0  0  0  0
  195.4450  176.4040  143.2250 O   0  0  0  0  0  0  0  0  0  0  0  0
  190.2230  173.3010  142.2570 C   0  0  0  0  0  2  0  0  0  0  0  0
  189.3620  174.9900  144.6830 C   0  0  1  0  0  3  0  0  0  0  0  0
  193.8730  176.7900  145.0090 C   0  0  0  0  0  2  0  0  0  0  0  0
  191.5600  175.9650  144.6710 N   0  0  2  0  0  0  0  0  0  0  0  0
  188.9940  176.9870  143.2540 N   0  0  0  0  0  2  0  0  0  0  0  0
  188.4130  177.9140  144.0520 O   0  0  0  0  0  0  0  0  0  0  0  0
  185.8570  179.4200  145.0120 O   0  0  0  0  0  0  0  0  0  0  0  0
  186.5200  178.6860  142.8650 C   0  0  0  0  0  2  0  0  0  0  0  0
  187.0420  177.7140  143.8820 C   0  0  2  0  0  3  0  0  0  0  0  0
  185.5730  179.5660  143.6470 C   0  0  0  0  0  2  0  0  0  0  0  0
  186.3180  178.1030  145.1500 C   0  0  0  0  0  2  0  0  0  0  0  0
  1 27  1  0  0  0  0
  1 26  1  6  0  0  0
  2 14  1  0  0  0  0
  3 16  2  0  0  0  0
  3 19  1  0  0  0  0
  4 18  1  0  0  0  0
  4 23  1  6  0  0  0
  5 11  1  6  0  0  0
  5 15  1  0  0  0  0
  6 19  1  0  0  0  0
  7  3  1  0  0  0  0
  8 12  1  0  0  0  0
  9 27  1  0  0  0  0
  9 25  1  0  0  0  0
 10 22  1  0  0  0  0
 10 17  1  0  0  0  0
 11 20  1  0  0  0  0
 12 15  1  0  0  0  0
 13  9  1  0  0  0  0
 15  4  1  0  0  0  0
 16  8  1  0  0  0  0
 17 25  1  0  0  0  0
 18  1  1  0  0  0  0
 19  5  1  0  0  0  0
 20 13  1  0  0  0  0
 20 18  1  0  0  0  0
 21 26  1  0  0  0  0
 23 21  1  0  0  0  0
 24 22  1  0  0  0  0
 24 13  1  0  0  0  0
 25 14  1  0  0  0  0
 27  2  1  0  0  0  0
 28 17  1  0  0  0  0
 28 29  1  0  0  0  0
 30 34  1  0  0  0  0
 31 33  1  0  0  0  0
 31 32  1  0  0  0  0
 32 29  1  0  0  0  0
 32 34  1  0  0  0  0
 33 30  1  0  0  0  0
M  END
>  <MODEL>
6

>  <REMARK>
 VINA RESULT:      -6.2      2.839      6.906
  Name = 
  3 active torsions:
  status: ('A' for Active; 'I' for Inactive)
    1  A    between atoms: C_17  and  N_28
    2  A    between atoms: N_28  and  O_29
    3  A    between atoms: O_29  and  C_32
                            x       y       z     vdW  Elec       q    Type
                         _______ _______ _______ _____ _____    ______ ____

>  <TORSDO>
F 3

$$$$
=
 OpenBabel11112418073D

 34 40  0  0  1  0  0  0  0  0999 V2000
  187.8090  175.3720  141.2660 C   0  0  1  0  0  3  0  0  0  0  0  0
  188.3610  174.2270  139.2290 C   0  0  0  0  0  2  0  0  0  0  0  0
  189.3550  177.0620  147.2090 C   0  0  0  0  0  0  0  0  0  0  0  0
  187.3220  176.5850  143.3990 C   0  0  2  0  0  3  0  0  0  0  0  0
  188.1260  175.5360  145.5620 C   0  0  2  0  0  3  0  0  0  0  0  0
  189.3160  174.5410  147.6280 C   0  0  0  0  0  1  0  0  0  0  0  0
  190.8380  177.1000  147.3820 C   0  0  0  0  0  1  0  0  0  0  0  0
  187.2650  178.2250  146.9680 C   0  0  0  0  0  2  0  0  0  0  0  0
  188.9590  173.3240  141.2520 C   0  0  2  0  0  3  0  0  0  0  0  0
  191.7420  171.8970  141.9890 C   0  0  0  0  0  2  0  0  0  0  0  0
  189.1310  174.7540  144.7140 C   0  0  0  0  0  2  0  0  0  0  0  0
  186.8070  177.7570  145.5740 C   0  0  0  0  0  2  0  0  0  0  0  0
  189.4650  173.5360  142.6950 C   0  0  1  0  0  3  0  0  0  0  0  0
  189.3760  172.8290  138.6460 S   0  0  0  0  0  0  0  0  0  0  0  0
  187.8010  176.8560  144.8270 C   0  0  2  0  0  3  0  0  0  0  0  0
  188.7060  178.1750  147.1460 N   0  0  0  0  0  0  0  0  0  0  0  0
  191.3120  172.4590  140.6220 C   0  0  1  0  0  3  0  0  0  0  0  0
  188.3240  175.6570  142.6840 C   0  0  1  0  0  3  0  0  0  0  0  0
  188.6250  175.7510  147.0070 C   0  0  1  0  0  3  0  0  0  0  0  0
  188.5230  174.4010  143.4290 N   0  0  2  0  0  0  0  0  0  0  0  0
  186.5950  177.5270  141.4650 C   0  0  0  0  0  2  0  0  0  0  0  0
  190.6130  171.2070  142.7600 C   0  0  0  0  0  2  0  0  0  0  0  0
  187.2300  177.8020  142.6920 O   0  0  0  0  0  0  0  0  0  0  0  0
  189.6510  172.1960  143.4340 C   0  0  0  0  0  2  0  0  0  0  0  0
  189.7900  172.4020  140.3650 C   0  0  1  0  0  3  0  0  0  0  0  0
  187.5200  176.7030  140.5680 C   0  0  0  0  0  2  0  0  0  0  0  0
  188.8250  174.5970  140.5590 N   0  0  2  0  0  0  0  0  0  0  0  0
  191.8280  173.8140  140.4790 N   0  0  0  0  0  2  0  0  0  0  0  0
  192.9230  173.9110  141.2690 O   0  0  0  0  0  0  0  0  0  0  0  0
  193.6590  175.4250  143.8940 O   0  0  0  0  0  0  0  0  0  0  0  0
  194.4010  175.7130  141.6680 C   0  0  0  0  0  2  0  0  0  0  0  0
  192.9720  175.2570  141.6370 C   0  0  2  0  0  3  0  0  0  0  0  0
  194.6530  176.0410  143.1210 C   0  0  0  0  0  2  0  0  0  0  0  0
  192.5230  175.4000  143.0730 C   0  0  0  0  0  2  0  0  0  0  0  0
  1 26  1  6  0  0  0
  1 18  1  0  0  0  0
  2 27  1  0  0  0  0
  3  7  1  0  0  0  0
  4 23  1  6  0  0  0
  4 15  1  0  0  0  0
  5 11  1  6  0  0  0
  5 19  1  0  0  0  0
  8 16  1  0  0  0  0
  9 13  1  0  0  0  0
 10 22  1  0  0  0  0
 12  8  1  0  0  0  0
 13 20  1  0  0  0  0
 13 24  1  0  0  0  0
 14  2  1  0  0  0  0
 14 25  1  0  0  0  0
 15  5  1  0  0  0  0
 15 12  1  0  0  0  0
 16  3  2  0  0  0  0
 17 10  1  0  0  0  0
 18  4  1  0  0  0  0
 18 20  1  0  0  0  0
 19  3  1  0  0  0  0
 19  6  1  0  0  0  0
 20 11  1  0  0  0  0
 21 23  1  0  0  0  0
 22 24  1  0  0  0  0
 25 17  1  0  0  0  0
 25  9  1  0  0  0  0
 26 21  1  0  0  0  0
 27  9  1  0  0  0  0
 27  1  1  0  0  0  0
 28 17  1  0  0  0  0
 28 29  1  0  0  0  0
 29 32  1  0  0  0  0
 31 33  1  0  0  0  0
 32 31  1  0  0  0  0
 32 34  1  0  0  0  0
 33 30  1  0  0  0  0
 34 30  1  0  0  0  0
M  END
>  <MODEL>
7

>  <REMARK>
 VINA RESULT:      -6.2      2.867      5.437
  Name = 
  3 active torsions:
  status: ('A' for Active; 'I' for Inactive)
    1  A    between atoms: C_17  and  N_28
    2  A    between atoms: N_28  and  O_29
    3  A    between atoms: O_29  and  C_32
                            x       y       z     vdW  Elec       q    Type
                         _______ _______ _______ _____ _____    ______ ____

>  <TORSDO>
F 3

$$$$
=
 OpenBabel11112418073D

 34 40  0  0  1  0  0  0  0  0999 V2000
  192.1550  171.9620  143.4500 C   0  0  1  0  0  3  0  0  0  0  0  0
  194.3000  171.0020  143.9420 C   0  0  0  0  0  2  0  0  0  0  0  0
  188.5170  177.1160  142.5690 C   0  0  0  0  0  0  0  0  0  0  0  0
  189.9620  173.0320  142.8940 C   0  0  2  0  0  3  0  0  0  0  0  0
  189.3900  175.2160  144.0450 C   0  0  2  0  0  3  0  0  0  0  0  0
  189.1120  177.5970  145.0070 C   0  0  0  0  0  1  0  0  0  0  0  0
  189.3400  178.2740  142.1070 C   0  0  0  0  0  1  0  0  0  0  0  0
  186.9210  175.3840  142.0890 C   0  0  0  0  0  2  0  0  0  0  0  0
  193.6370  172.9300  144.9940 C   0  0  2  0  0  3  0  0  0  0  0  0
  195.4370  175.5210  145.6010 C   0  0  0  0  0  2  0  0  0  0  0  0
  190.8900  175.3840  144.2930 C   0  0  0  0  0  2  0  0  0  0  0  0
  187.7390  174.1140  142.3920 C   0  0  0  0  0  2  0  0  0  0  0  0
  192.9090  174.2900  144.9240 C   0  0  1  0  0  3  0  0  0  0  0  0
  195.8470  171.4170  144.8120 S   0  0  0  0  0  0  0  0  0  0  0  0
  189.2060  174.3560  142.7730 C   0  0  2  0  0  3  0  0  0  0  0  0
  187.7440  176.5230  141.7230 N   0  0  0  0  0  0  0  0  0  0  0  0
  195.8850  174.2040  144.9430 C   0  0  1  0  0  3  0  0  0  0  0  0
  191.4230  173.3040  143.3040 C   0  0  1  0  0  3  0  0  0  0  0  0
  188.6550  176.5720  143.9750 C   0  0  1  0  0  3  0  0  0  0  0  0
  191.4970  174.0770  144.5570 N   0  0  2  0  0  0  0  0  0  0  0  0
  190.4680  171.0720  141.8630 C   0  0  0  0  0  2  0  0  0  0  0  0
  194.4370  175.3360  146.7460 C   0  0  0  0  0  2  0  0  0  0  0  0
  189.9460  172.3630  141.6520 O   0  0  0  0  0  0  0  0  0  0  0  0
  193.0080  175.0560  146.2580 C   0  0  0  0  0  2  0  0  0  0  0  0
  195.1020  172.9600  145.4190 C   0  0  1  0  0  3  0  0  0  0  0  0
  191.9650  171.1540  142.1640 C   0  0  0  0  0  2  0  0  0  0  0  0
  193.5650  172.2380  143.7160 N   0  0  2  0  0  0  0  0  0  0  0  0
  195.8290  174.3500  143.4950 N   0  0  0  0  0  2  0  0  0  0  0  0
  195.6460  175.6660  143.2310 O   0  0  0  0  0  0  0  0  0  0  0  0
  196.7360  175.9810  140.3270 O   0  0  0  0  0  0  0  0  0  0  0  0
  195.2870  174.3770  141.2830 C   0  0  0  0  0  2  0  0  0  0  0  0
  195.0570  175.6920  141.9670 C   0  0  2  0  0  3  0  0  0  0  0  0
  196.1610  174.7230  140.1000 C   0  0  0  0  0  2  0  0  0  0  0  0
  195.7920  176.6810  141.0920 C   0  0  0  0  0  2  0  0  0  0  0  0
  1 26  1  6  0  0  0
  1 27  1  0  0  0  0
  2 14  1  0  0  0  0
  3 19  1  0  0  0  0
  4 23  1  6  0  0  0
  4 18  1  0  0  0  0
  5 11  1  6  0  0  0
  7  3  1  0  0  0  0
  8 12  1  0  0  0  0
  9 25  1  0  0  0  0
 10 22  1  0  0  0  0
 11 20  1  0  0  0  0
 12 15  1  0  0  0  0
 13  9  1  0  0  0  0
 13 24  1  0  0  0  0
 14 25  1  0  0  0  0
 15  4  1  0  0  0  0
 15  5  1  0  0  0  0
 16  8  1  0  0  0  0
 16  3  2  0  0  0  0
 17 25  1  0  0  0  0
 17 10  1  0  0  0  0
 18  1  1  0  0  0  0
 18 20  1  0  0  0  0
 19  5  1  0  0  0  0
 19  6  1  0  0  0  0
 20 13  1  0  0  0  0
 21 26  1  0  0  0  0
 23 21  1  0  0  0  0
 24 22  1  0  0  0  0
 27  2  1  0  0  0  0
 27  9  1  0  0  0  0
 28 17  1  0  0  0  0
 29 28  1  0  0  0  0
 30 34  1  0  0  0  0
 31 32  1  0  0  0  0
 32 29  1  0  0  0  0
 33 30  1  0  0  0  0
 33 31  1  0  0  0  0
 34 32  1  0  0  0  0
M  END
>  <MODEL>
8

>  <REMARK>
 VINA RESULT:      -6.1      2.130      4.638
  Name = 
  3 active torsions:
  status: ('A' for Active; 'I' for Inactive)
    1  A    between atoms: C_17  and  N_28
    2  A    between atoms: N_28  and  O_29
    3  A    between atoms: O_29  and  C_32
                            x       y       z     vdW  Elec       q    Type
                         _______ _______ _______ _____ _____    ______ ____

>  <TORSDO>
F 3

$$$$
=
 OpenBabel11112418073D

 34 40  0  0  1  0  0  0  0  0999 V2000
  190.2790  172.5210  140.4430 C   0  0  1  0  0  3  0  0  0  0  0  0
  191.8710  170.9920  139.4970 C   0  0  0  0  0  2  0  0  0  0  0  0
  188.9050  177.1360  144.6110 C   0  0  0  0  0  0  0  0  0  0  0  0
  188.6880  174.1740  141.4400 C   0  0  2  0  0  3  0  0  0  0  0  0
  188.9050  174.6730  143.9160 C   0  0  2  0  0  3  0  0  0  0  0  0
  189.4800  175.3460  146.3430 C   0  0  0  0  0  1  0  0  0  0  0  0
  190.1300  177.9150  144.9640 C   0  0  0  0  0  1  0  0  0  0  0  0
  186.8100  176.9840  143.4430 C   0  0  0  0  0  2  0  0  0  0  0  0
  191.9130  171.4480  141.7450 C   0  0  2  0  0  3  0  0  0  0  0  0
  194.5120  171.9290  143.5740 C   0  0  0  0  0  2  0  0  0  0  0  0
  190.3390  174.1510  143.8120 C   0  0  0  0  0  2  0  0  0  0  0  0
  187.0710  175.8020  142.4900 C   0  0  0  0  0  2  0  0  0  0  0  0
  191.7550  172.4750  142.8880 C   0  0  1  0  0  3  0  0  0  0  0  0
  193.4010  170.1130  139.9530 S   0  0  0  0  0  0  0  0  0  0  0  0
  188.4940  175.2280  142.5330 C   0  0  2  0  0  3  0  0  0  0  0  0
  188.0220  177.6770  143.8420 N   0  0  0  0  0  0  0  0  0  0  0  0
  194.4740  171.5710  142.0780 C   0  0  1  0  0  3  0  0  0  0  0  0
  190.1150  173.5970  141.5260 C   0  0  1  0  0  3  0  0  0  0  0  0
  188.7380  175.7000  145.0570 C   0  0  1  0  0  3  0  0  0  0  0  0
  190.3930  173.0390  142.8610 N   0  0  2  0  0  0  0  0  0  0  0  0
  188.4870  173.7280  139.2230 C   0  0  0  0  0  2  0  0  0  0  0  0
  193.4440  171.2190  144.4100 C   0  0  0  0  0  2  0  0  0  0  0  0
  188.5030  174.7670  140.1740 O   0  0  0  0  0  0  0  0  0  0  0  0
  192.0480  171.8440  144.2630 C   0  0  0  0  0  2  0  0  0  0  0  0
  193.2520  170.7220  141.6600 C   0  0  1  0  0  3  0  0  0  0  0  0
  189.8830  173.1170  139.0900 C   0  0  0  0  0  2  0  0  0  0  0  0
  191.6690  172.0710  140.4530 N   0  0  2  0  0  0  0  0  0  0  0  0
  194.5700  172.7940  141.2910 N   0  0  0  0  0  2  0  0  0  0  0  0
  195.1580  173.7290  142.0740 O   0  0  0  0  0  0  0  0  0  0  0  0
  195.8340  176.7210  142.6330 O   0  0  0  0  0  0  0  0  0  0  0  0
  195.6270  175.5220  140.6070 C   0  0  0  0  0  2  0  0  0  0  0  0
  194.6630  174.9450  141.6010 C   0  0  2  0  0  3  0  0  0  0  0  0
  196.1190  176.7910  141.2630 C   0  0  0  0  0  2  0  0  0  0  0  0
  194.6620  175.9560  142.7230 C   0  0  0  0  0  2  0  0  0  0  0  0
  1 26  1  6  0  0  0
  1 27  1  0  0  0  0
  1 18  1  0  0  0  0
  2 14  1  0  0  0  0
  2 27  1  0  0  0  0
  3  7  1  0  0  0  0
  3 19  1  0  0  0  0
  4 23  1  6  0  0  0
  4 18  1  0  0  0  0
  4 15  1  0  0  0  0
  5 11  1  6  0  0  0
  5 19  1  0  0  0  0
  8 16  1  0  0  0  0
  9 13  1  0  0  0  0
 10 22  1  0  0  0  0
 12 15  1  0  0  0  0
 12  8  1  0  0  0  0
 13 24  1  0  0  0  0
 14 25  1  0  0  0  0
 15  5  1  0  0  0  0
 16  3  2  0  0  0  0
 17 10  1  0  0  0  0
 18 20  1  0  0  0  0
 19  6  1  0  0  0  0
 20 13  1  0  0  0  0
 20 11  1  0  0  0  0
 21 23  1  0  0  0  0
 24 22  1  0  0  0  0
 25  9  1  0  0  0  0
 25 17  1  0  0  0  0
 26 21  1  0  0  0  0
 27  9  1  0  0  0  0
 28 29  1  0  0  0  0
 28 17  1  0  0  0  0
 30 34  1  0  0  0  0
 31 33  1  0  0  0  0
 31 32  1  0  0  0  0
 32 29  1  0  0  0  0
 32 34  1  0  0  0  0
 33 30  1  0  0  0  0
M  END
>  <MODEL>
9

>  <REMARK>
 VINA RESULT:      -6.1      2.851      5.412
  Name = 
  3 active torsions:
  status: ('A' for Active; 'I' for Inactive)
    1  A    between atoms: C_17  and  N_28
    2  A    between atoms: N_28  and  O_29
    3  A    between atoms: O_29  and  C_32
                            x       y       z     vdW  Elec       q    Type
                         _______ _______ _______ _____ _____    ______ ____

>  <TORSDO>
F 3

$$$$
