=
 OpenBabel11112417113D

 37 43  0  0  1  0  0  0  0  0999 V2000
  193.2910  174.8590  144.0750 C   0  0  0  0  0  2  0  0  0  0  0  0
  192.1170  170.4610  141.8080 C   0  0  1  0  0  0  0  0  0  0  0  0
  190.0200  174.1090  142.4140 N   0  0  1  0  0  0  0  0  0  0  0  0
  194.7560  175.0640  144.4870 C   0  0  2  0  0  3  0  0  0  0  0  0
  190.3630  175.9930  145.6050 O   0  0  0  0  0  0  0  0  0  0  0  0
  190.3650  172.1170  140.9180 C   0  0  1  0  0  3  0  0  0  0  0  0
  190.1120  174.3230  143.8680 C   0  0  2  0  0  3  0  0  0  0  0  0
  193.9180  176.2800  146.5500 C   0  0  0  0  0  0  0  0  0  0  0  0
  190.3310  172.6990  142.3360 C   0  0  1  0  0  3  0  0  0  0  0  0
  190.3320  175.8160  144.2160 C   0  0  1  0  0  3  0  0  0  0  0  0
  190.0040  173.1840  139.8830 C   0  0  0  0  0  2  0  0  0  0  0  0
  194.9680  175.3690  145.9770 C   0  0  0  0  0  2  0  0  0  0  0  0
  191.5840  172.5560  143.1070 C   0  0  2  0  0  3  0  0  0  0  0  0
  193.4640  170.1450  141.6460 O   0  0  0  0  0  1  0  0  0  0  0  0
  188.0640  175.6100  142.0890 C   0  0  0  0  0  2  0  0  0  0  0  0
  188.7430  173.9700  140.3140 C   0  0  0  0  0  2  0  0  0  0  0  0
  191.9220  171.0800  143.2180 C   0  0  0  0  0  2  0  0  0  0  0  0
  192.4920  175.8190  146.7140 C   0  0  1  0  0  3  0  0  0  0  0  0
  191.5590  176.6700  145.8540 C   0  0  0  0  0  2  0  0  0  0  0  0
  188.6820  174.2440  141.8360 C   0  0  1  0  0  3  0  0  0  0  0  0
  191.2300  173.3260  144.3630 C   0  0  1  0  0  3  0  0  0  0  0  0
  191.6890  171.3900  140.6360 C   0  0  0  0  0  2  0  0  0  0  0  0
  189.3000  176.7900  143.6000 C   0  0  1  0  0  3  0  0  0  0  0  0
  191.3120  169.1780  141.7360 C   0  0  0  0  0  1  0  0  0  0  0  0
  192.3320  174.3100  146.4450 C   0  0  0  0  0  2  0  0  0  0  0  0
  194.2320  177.4080  146.8950 O   0  0  0  0  0  0  0  0  0  0  0  0
  192.5270  173.8790  144.9810 C   0  0  2  0  0  3  0  0  0  0  0  0
  189.0460  176.6050  142.2220 O   0  0  0  0  0  0  0  0  0  0  0  0
  187.8210  176.4190  145.5960 C   0  0  0  0  0  3  0  0  0  0  0  0
  188.1020  177.1610  144.4430 C   0  0  0  0  0  0  0  0  0  0  0  0
  187.2840  178.2480  144.1020 C   0  0  0  0  0  3  0  0  0  0  0  0
  185.1690  179.9370  144.4720 Cl  0  0  0  0  0  0  0  0  0  0  0  0
  185.9100  177.8350  146.0530 C   0  0  0  0  0  3  0  0  0  0  0  0
  186.1890  178.5820  144.9040 C   0  0  0  0  0  0  0  0  0  0  0  0
  186.7270  176.7540  146.3990 C   0  0  0  0  0  3  0  0  0  0  0  0
  196.6770  175.7780  143.6510 C   0  0  0  0  0  1  0  0  0  0  0  0
  195.3150  176.0810  143.7120 O   0  0  0  0  0  0  0  0  0  0  0  0
  1  4  1  0  0  0  0
  1 27  1  0  0  0  0
  2 24  1  6  0  0  0
  2 17  1  0  0  0  0
  3  7  1  0  0  0  0
  4 12  1  0  0  0  0
  5 19  1  0  0  0  0
  6  9  1  0  0  0  0
  7 10  1  0  0  0  0
  7 21  1  0  0  0  0
  8 18  1  0  0  0  0
  8 26  2  0  0  0  0
  9  3  1  0  0  0  0
  9 13  1  0  0  0  0
 10  5  1  0  0  0  0
 11 16  1  0  0  0  0
 11  6  1  0  0  0  0
 12  8  1  0  0  0  0
 13 17  1  0  0  0  0
 13 21  1  0  0  0  0
 14  2  1  0  0  0  0
 15 28  1  0  0  0  0
 16 20  1  0  0  0  0
 19 18  1  0  0  0  0
 20 15  1  0  0  0  0
 20  3  1  0  0  0  0
 21 27  1  0  0  0  0
 22  6  1  0  0  0  0
 22  2  1  0  0  0  0
 23 10  1  0  0  0  0
 23 30  1  0  0  0  0
 25 18  1  0  0  0  0
 27 25  1  0  0  0  0
 28 23  1  0  0  0  0
 29 35  1  0  0  0  0
 30 29  2  0  0  0  0
 31 30  1  0  0  0  0
 31 34  2  0  0  0  0
 32 34  1  0  0  0  0
 33 35  2  0  0  0  0
 34 33  1  0  0  0  0
 36 37  1  0  0  0  0
 37  4  1  0  0  0  0
M  END
>  <MODEL>
1

>  <REMARK>
 VINA RESULT:      -9.4      0.000      0.000
  Name = 
  2 active torsions:
  status: ('A' for Active; 'I' for Inactive)
    1  A    between atoms: C_4  and  O_37
    2  A    between atoms: C_23  and  C_30
                            x       y       z     vdW  Elec       q    Type
                         _______ _______ _______ _____ _____    ______ ____

>  <TORSDO>
F 2

$$$$
=
 OpenBabel11112417113D

 37 43  0  0  1  0  0  0  0  0999 V2000
  190.3690  173.5780  142.9850 C   0  0  0  0  0  2  0  0  0  0  0  0
  194.6760  175.9230  144.3310 C   0  0  1  0  0  0  0  0  0  0  0  0
  190.6610  176.1240  145.7150 N   0  0  1  0  0  0  0  0  0  0  0  0
  190.4920  172.3980  142.0120 C   0  0  2  0  0  3  0  0  0  0  0  0
  187.8140  175.9350  143.3260 O   0  0  0  0  0  0  0  0  0  0  0  0
  193.0950  176.3180  146.3180 C   0  0  1  0  0  3  0  0  0  0  0  0
  189.8870  176.3940  144.4920 C   0  0  2  0  0  3  0  0  0  0  0  0
  188.3110  173.1510  140.9550 C   0  0  0  0  0  0  0  0  0  0  0  0
  191.9850  176.5080  145.2780 C   0  0  1  0  0  3  0  0  0  0  0  0
  188.5490  175.6160  144.4760 C   0  0  1  0  0  3  0  0  0  0  0  0
  192.5220  175.7950  147.6370 C   0  0  0  0  0  2  0  0  0  0  0  0
  189.6640  172.5370  140.7250 C   0  0  0  0  0  2  0  0  0  0  0  0
  192.1790  175.7760  144.0080 C   0  0  2  0  0  3  0  0  0  0  0  0
  195.4460  174.9090  143.7660 O   0  0  0  0  0  1  0  0  0  0  0  0
  188.9030  176.9340  147.2770 C   0  0  0  0  0  2  0  0  0  0  0  0
  191.2670  176.5990  148.0540 C   0  0  0  0  0  2  0  0  0  0  0  0
  193.4860  176.2270  143.3810 C   0  0  0  0  0  2  0  0  0  0  0  0
  188.1710  174.5980  141.3570 C   0  0  1  0  0  3  0  0  0  0  0  0
  187.5210  174.7030  142.7350 C   0  0  0  0  0  2  0  0  0  0  0  0
  190.3640  176.9890  146.8580 C   0  0  1  0  0  3  0  0  0  0  0  0
  190.8760  176.0930  143.3010 C   0  0  1  0  0  3  0  0  0  0  0  0
  194.2560  175.4790  145.7620 C   0  0  0  0  0  2  0  0  0  0  0  0
  187.6580  175.8200  145.7240 C   0  0  1  0  0  3  0  0  0  0  0  0
  195.5310  177.1720  144.4370 C   0  0  0  0  0  1  0  0  0  0  0  0
  189.5090  175.3580  141.2740 C   0  0  0  0  0  2  0  0  0  0  0  0
  187.3120  172.4660  140.8050 O   0  0  0  0  0  0  0  0  0  0  0  0
  190.5630  174.9500  142.3190 C   0  0  2  0  0  3  0  0  0  0  0  0
  188.3230  175.6950  146.9650 O   0  0  0  0  0  0  0  0  0  0  0  0
  185.4680  176.7960  146.4740 C   0  0  0  0  0  3  0  0  0  0  0  0
  186.5980  176.8960  145.6550 C   0  0  0  0  0  0  0  0  0  0  0  0
  186.7410  178.0010  144.8020 C   0  0  0  0  0  3  0  0  0  0  0  0
  185.9370  180.3650  143.6970 Cl  0  0  0  0  0  0  0  0  0  0  0  0
  184.6260  178.8840  145.5820 C   0  0  0  0  0  3  0  0  0  0  0  0
  185.7560  178.9910  144.7650 C   0  0  0  0  0  0  0  0  0  0  0  0
  184.4830  177.7870  146.4370 C   0  0  0  0  0  3  0  0  0  0  0  0
  190.7360  170.2000  141.9200 C   0  0  0  0  0  1  0  0  0  0  0  0
  190.1450  171.2180  142.6710 O   0  0  0  0  0  0  0  0  0  0  0  0
  2 24  1  1  0  0  0
  2 22  1  0  0  0  0
  3 20  1  0  0  0  0
  4 37  1  0  0  0  0
  4  1  1  0  0  0  0
  5 10  1  0  0  0  0
  6 11  1  0  0  0  0
  7  3  1  0  0  0  0
  8 18  1  0  0  0  0
  9  3  1  0  0  0  0
  9  6  1  0  0  0  0
 10  7  1  0  0  0  0
 10 23  1  0  0  0  0
 11 16  1  0  0  0  0
 12  8  1  0  0  0  0
 12  4  1  0  0  0  0
 13  9  1  0  0  0  0
 14  2  1  0  0  0  0
 17 13  1  0  0  0  0
 17  2  1  0  0  0  0
 18 19  1  0  0  0  0
 19  5  1  0  0  0  0
 20 15  1  0  0  0  0
 20 16  1  0  0  0  0
 21 13  1  0  0  0  0
 21  7  1  0  0  0  0
 22  6  1  0  0  0  0
 23 28  1  0  0  0  0
 25 18  1  0  0  0  0
 25 27  1  0  0  0  0
 26  8  2  0  0  0  0
 27  1  1  0  0  0  0
 27 21  1  0  0  0  0
 28 15  1  0  0  0  0
 30 23  1  0  0  0  0
 30 29  2  0  0  0  0
 31 30  1  0  0  0  0
 32 34  1  0  0  0  0
 33 35  2  0  0  0  0
 34 31  2  0  0  0  0
 34 33  1  0  0  0  0
 35 29  1  0  0  0  0
 36 37  1  0  0  0  0
M  END
>  <MODEL>
2

>  <REMARK>
 VINA RESULT:      -8.8      1.727      5.644
  Name = 
  2 active torsions:
  status: ('A' for Active; 'I' for Inactive)
    1  A    between atoms: C_4  and  O_37
    2  A    between atoms: C_23  and  C_30
                            x       y       z     vdW  Elec       q    Type
                         _______ _______ _______ _____ _____    ______ ____

>  <TORSDO>
F 2

$$$$
=
 OpenBabel11112417113D

 37 43  0  0  1  0  0  0  0  0999 V2000
  191.3650  175.1320  145.0990 C   0  0  0  0  0  2  0  0  0  0  0  0
  191.3320  170.8590  142.3420 C   0  0  1  0  0  0  0  0  0  0  0  0
  189.2610  174.5600  142.0560 N   0  0  1  0  0  0  0  0  0  0  0  0
  192.4630  175.2680  146.1630 C   0  0  2  0  0  3  0  0  0  0  0  0
  188.0820  176.3220  145.1140 O   0  0  0  0  0  0  0  0  0  0  0  0
  190.2390  172.6070  140.8090 C   0  0  1  0  0  3  0  0  0  0  0  0
  188.6560  174.7220  143.3880 C   0  0  2  0  0  3  0  0  0  0  0  0
  190.7690  176.4450  147.6400 C   0  0  0  0  0  0  0  0  0  0  0  0
  189.5470  173.1430  142.0670 C   0  0  1  0  0  3  0  0  0  0  0  0
  188.7100  176.1930  143.8680 C   0  0  1  0  0  3  0  0  0  0  0  0
  190.4310  173.7210  139.7770 C   0  0  0  0  0  2  0  0  0  0  0  0
  191.9490  175.5150  147.5890 C   0  0  0  0  0  2  0  0  0  0  0  0
  190.2820  172.9280  143.3320 C   0  0  2  0  0  3  0  0  0  0  0  0
  192.5890  170.4980  142.8220 O   0  0  0  0  0  1  0  0  0  0  0  0
  187.7180  176.1430  140.9150 C   0  0  0  0  0  2  0  0  0  0  0  0
  189.1300  174.5390  139.5970 C   0  0  0  0  0  2  0  0  0  0  0  0
  190.5020  171.4370  143.5200 C   0  0  0  0  0  2  0  0  0  0  0  0
  189.4270  176.0330  147.0880 C   0  0  1  0  0  3  0  0  0  0  0  0
  189.0290  176.9460  145.9300 C   0  0  0  0  0  2  0  0  0  0  0  0
  188.3590  174.7640  140.9200 C   0  0  1  0  0  3  0  0  0  0  0  0
  189.3880  173.6680  144.3060 C   0  0  1  0  0  3  0  0  0  0  0  0
  191.5260  171.8420  141.1520 C   0  0  0  0  0  2  0  0  0  0  0  0
  188.1110  177.2250  142.8840 C   0  0  1  0  0  3  0  0  0  0  0  0
  190.6350  169.6090  141.8380 C   0  0  0  0  0  1  0  0  0  0  0  0
  189.3890  174.5410  146.7050 C   0  0  0  0  0  2  0  0  0  0  0  0
  190.9010  177.5490  148.1450 O   0  0  0  0  0  0  0  0  0  0  0  0
  190.2470  174.1510  145.4880 C   0  0  2  0  0  3  0  0  0  0  0  0
  188.5360  177.0950  141.5430 O   0  0  0  0  0  0  0  0  0  0  0  0
  185.8060  177.6310  141.9710 C   0  0  0  0  0  3  0  0  0  0  0  0
  186.6620  177.6120  143.0770 C   0  0  0  0  0  0  0  0  0  0  0  0
  186.1590  177.9270  144.3490 C   0  0  0  0  0  3  0  0  0  0  0  0
  184.1920  178.6660  146.0940 Cl  0  0  0  0  0  0  0  0  0  0  0  0
  183.9630  178.2910  143.3970 C   0  0  0  0  0  3  0  0  0  0  0  0
  184.8130  178.2680  144.5070 C   0  0  0  0  0  0  0  0  0  0  0  0
  184.4590  177.9710  142.1300 C   0  0  0  0  0  3  0  0  0  0  0  0
  194.6080  175.8150  146.1380 C   0  0  0  0  0  1  0  0  0  0  0  0
  193.3400  176.2890  145.7940 O   0  0  0  0  0  0  0  0  0  0  0  0
  1 27  1  0  0  0  0
  1  4  1  0  0  0  0
  2 24  1  6  0  0  0
  2 14  1  0  0  0  0
  2 17  1  0  0  0  0
  3  9  1  0  0  0  0
  3  7  1  0  0  0  0
  4 12  1  0  0  0  0
  5 19  1  0  0  0  0
  6 22  1  0  0  0  0
  6  9  1  0  0  0  0
  7 10  1  0  0  0  0
  7 21  1  0  0  0  0
  8 26  2  0  0  0  0
  9 13  1  0  0  0  0
 10  5  1  0  0  0  0
 11  6  1  0  0  0  0
 12  8  1  0  0  0  0
 13 17  1  0  0  0  0
 13 21  1  0  0  0  0
 15 20  1  0  0  0  0
 15 28  1  0  0  0  0
 16 11  1  0  0  0  0
 16 20  1  0  0  0  0
 18  8  1  0  0  0  0
 19 18  1  0  0  0  0
 20  3  1  0  0  0  0
 21 27  1  0  0  0  0
 22  2  1  0  0  0  0
 23 30  1  0  0  0  0
 23 10  1  0  0  0  0
 25 18  1  0  0  0  0
 27 25  1  0  0  0  0
 28 23  1  0  0  0  0
 29 35  2  0  0  0  0
 29 30  1  0  0  0  0
 30 31  2  0  0  0  0
 31 34  1  0  0  0  0
 33 34  2  0  0  0  0
 34 32  1  0  0  0  0
 35 33  1  0  0  0  0
 37 36  1  0  0  0  0
 37  4  1  0  0  0  0
M  END
>  <MODEL>
3

>  <REMARK>
 VINA RESULT:      -8.2      1.645      2.312
  Name = 
  2 active torsions:
  status: ('A' for Active; 'I' for Inactive)
    1  A    between atoms: C_4  and  O_37
    2  A    between atoms: C_23  and  C_30
                            x       y       z     vdW  Elec       q    Type
                         _______ _______ _______ _____ _____    ______ ____

>  <TORSDO>
F 2

$$$$
=
 OpenBabel11112417113D

 37 43  0  0  1  0  0  0  0  0999 V2000
  192.7240  172.4530  142.0810 C   0  0  0  0  0  2  0  0  0  0  0  0
  197.0090  174.9300  143.2490 C   0  0  1  0  0  0  0  0  0  0  0  0
  192.9030  175.5740  144.1420 N   0  0  1  0  0  0  0  0  0  0  0  0
  192.8720  171.0690  141.4330 C   0  0  2  0  0  3  0  0  0  0  0  0
  190.2730  174.8940  141.5990 O   0  0  0  0  0  0  0  0  0  0  0  0
  195.2800  175.8380  144.9190 C   0  0  1  0  0  3  0  0  0  0  0  0
  192.2550  175.5630  142.8200 C   0  0  2  0  0  3  0  0  0  0  0  0
  190.8350  171.6070  140.0180 C   0  0  0  0  0  0  0  0  0  0  0  0
  194.2780  175.8030  143.7600 C   0  0  1  0  0  3  0  0  0  0  0  0
  190.8850  174.8420  142.8580 C   0  0  1  0  0  3  0  0  0  0  0  0
  194.5660  175.6660  146.2610 C   0  0  0  0  0  2  0  0  0  0  0  0
  192.1690  170.9170  140.0760 C   0  0  0  0  0  2  0  0  0  0  0  0
  194.5460  174.7810  142.7250 C   0  0  2  0  0  3  0  0  0  0  0  0
  197.7730  173.7880  143.0200 O   0  0  0  0  0  1  0  0  0  0  0  0
  191.0570  176.7870  145.2860 C   0  0  0  0  0  2  0  0  0  0  0  0
  193.3220  176.5820  146.3490 C   0  0  0  0  0  2  0  0  0  0  0  0
  195.9250  175.0290  142.1410 C   0  0  0  0  0  2  0  0  0  0  0  0
  190.7340  173.1120  140.0490 C   0  0  1  0  0  3  0  0  0  0  0  0
  189.9700  173.5650  141.2920 C   0  0  0  0  0  2  0  0  0  0  0  0
  192.5500  176.6980  145.0120 C   0  0  1  0  0  3  0  0  0  0  0  0
  193.3290  174.9540  141.8380 C   0  0  1  0  0  3  0  0  0  0  0  0
  196.4410  174.8570  144.6950 C   0  0  0  0  0  2  0  0  0  0  0  0
  189.8990  175.3670  143.9270 C   0  0  1  0  0  3  0  0  0  0  0  0
  197.9140  176.1420  143.1380 C   0  0  0  0  0  1  0  0  0  0  0  0
  192.1110  173.7910  139.9200 C   0  0  0  0  0  2  0  0  0  0  0  0
  189.8190  170.9350  139.9380 O   0  0  0  0  0  0  0  0  0  0  0  0
  193.0460  173.6170  141.1300 C   0  0  2  0  0  3  0  0  0  0  0  0
  190.4440  175.5260  145.2220 O   0  0  0  0  0  0  0  0  0  0  0  0
  189.2520  177.3150  142.4780 C   0  0  0  0  0  3  0  0  0  0  0  0
  188.9060  176.4240  143.5000 C   0  0  0  0  0  0  0  0  0  0  0  0
  187.6380  176.5100  144.0950 C   0  0  0  0  0  3  0  0  0  0  0  0
  185.1510  177.5900  144.4230 Cl  0  0  0  0  0  0  0  0  0  0  0  0
  187.0820  178.3760  142.6560 C   0  0  0  0  0  3  0  0  0  0  0  0
  186.7300  177.4850  143.6750 C   0  0  0  0  0  0  0  0  0  0  0  0
  188.3430  178.2900  142.0570 C   0  0  0  0  0  3  0  0  0  0  0  0
  192.0330  170.7970  143.4640 C   0  0  0  0  0  1  0  0  0  0  0  0
  192.4070  170.0940  142.3170 O   0  0  0  0  0  0  0  0  0  0  0  0
  2 24  1  6  0  0  0
  2 22  1  0  0  0  0
  3 20  1  0  0  0  0
  4  1  1  0  0  0  0
  4 37  1  0  0  0  0
  5 10  1  0  0  0  0
  6 11  1  0  0  0  0
  7 10  1  0  0  0  0
  7  3  1  0  0  0  0
  8 18  1  0  0  0  0
  8 12  1  0  0  0  0
  9  3  1  0  0  0  0
  9  6  1  0  0  0  0
 10 23  1  0  0  0  0
 11 16  1  0  0  0  0
 12  4  1  0  0  0  0
 13  9  1  0  0  0  0
 14  2  1  0  0  0  0
 17 13  1  0  0  0  0
 17  2  1  0  0  0  0
 18 19  1  0  0  0  0
 19  5  1  0  0  0  0
 20 15  1  0  0  0  0
 20 16  1  0  0  0  0
 21 13  1  0  0  0  0
 21  7  1  0  0  0  0
 22  6  1  0  0  0  0
 23 28  1  0  0  0  0
 25 18  1  0  0  0  0
 25 27  1  0  0  0  0
 26  8  2  0  0  0  0
 27 21  1  0  0  0  0
 27  1  1  0  0  0  0
 28 15  1  0  0  0  0
 29 30  1  0  0  0  0
 30 23  1  0  0  0  0
 30 31  2  0  0  0  0
 33 34  2  0  0  0  0
 34 31  1  0  0  0  0
 34 32  1  0  0  0  0
 35 29  2  0  0  0  0
 35 33  1  0  0  0  0
 37 36  1  0  0  0  0
M  END
>  <MODEL>
4

>  <REMARK>
 VINA RESULT:      -8.2      1.859      5.677
  Name = 
  2 active torsions:
  status: ('A' for Active; 'I' for Inactive)
    1  A    between atoms: C_4  and  O_37
    2  A    between atoms: C_23  and  C_30
                            x       y       z     vdW  Elec       q    Type
                         _______ _______ _______ _____ _____    ______ ____

>  <TORSDO>
F 2

$$$$
=
 OpenBabel11112417113D

 37 43  0  0  1  0  0  0  0  0999 V2000
  191.3380  173.3970  141.6910 C   0  0  0  0  0  2  0  0  0  0  0  0
  189.2130  176.5440  145.0720 C   0  0  1  0  0  0  0  0  0  0  0  0
  192.9510  174.5300  144.8740 N   0  0  1  0  0  0  0  0  0  0  0  0
  190.6260  173.2390  140.3400 C   0  0  2  0  0  3  0  0  0  0  0  0
  193.1770  171.0670  143.5320 O   0  0  0  0  0  0  0  0  0  0  0  0
  191.7110  176.5670  145.6730 C   0  0  1  0  0  3  0  0  0  0  0  0
  192.5750  173.1230  144.6630 C   0  0  2  0  0  3  0  0  0  0  0  0
  191.3010  170.7920  140.3660 C   0  0  0  0  0  0  0  0  0  0  0  0
  191.7030  175.0640  145.3700 C   0  0  1  0  0  3  0  0  0  0  0  0
  193.5310  172.4150  143.6710 C   0  0  1  0  0  3  0  0  0  0  0  0
  193.0950  177.1660  145.4180 C   0  0  0  0  0  2  0  0  0  0  0  0
  190.2500  171.7940  139.9780 C   0  0  0  0  0  2  0  0  0  0  0  0
  190.6960  174.6260  144.3800 C   0  0  2  0  0  3  0  0  0  0  0  0
  188.3430  177.0490  144.1080 O   0  0  0  0  0  1  0  0  0  0  0  0
  195.2340  174.0270  145.7230 C   0  0  0  0  0  2  0  0  0  0  0  0
  194.2030  176.2910  146.0540 C   0  0  0  0  0  2  0  0  0  0  0  0
  189.3160  175.0060  144.8860 C   0  0  0  0  0  2  0  0  0  0  0  0
  191.5920  170.4900  141.8150 C   0  0  1  0  0  3  0  0  0  0  0  0
  193.0310  170.8740  142.1550 C   0  0  0  0  0  2  0  0  0  0  0  0
  193.9270  174.7730  145.9390 C   0  0  1  0  0  3  0  0  0  0  0  0
  191.0530  173.1590  144.2490 C   0  0  1  0  0  3  0  0  0  0  0  0
  190.5690  177.2970  144.9500 C   0  0  0  0  0  2  0  0  0  0  0  0
  195.0330  172.5150  144.0260 C   0  0  1  0  0  3  0  0  0  0  0  0
  188.6210  176.8190  146.4410 C   0  0  0  0  0  1  0  0  0  0  0  0
  190.5660  171.1400  142.7630 C   0  0  0  0  0  2  0  0  0  0  0  0
  191.9220  170.2100  139.4910 O   0  0  0  0  0  0  0  0  0  0  0  0
  190.6300  172.6760  142.8500 C   0  0  2  0  0  3  0  0  0  0  0  0
  195.4870  173.8120  144.3590 O   0  0  0  0  0  0  0  0  0  0  0  0
  196.9860  171.0620  144.6470 C   0  0  0  0  0  3  0  0  0  0  0  0
  195.6360  171.3840  144.8270 C   0  0  0  0  0  0  0  0  0  0  0  0
  194.8720  170.6700  145.7630 C   0  0  0  0  0  3  0  0  0  0  0  0
  194.4950  168.7470  147.6650 Cl  0  0  0  0  0  0  0  0  0  0  0  0
  196.8020  169.3160  146.3150 C   0  0  0  0  0  3  0  0  0  0  0  0
  195.4540  169.6370  146.5030 C   0  0  0  0  0  0  0  0  0  0  0  0
  197.5680  170.0290  145.3880 C   0  0  0  0  0  3  0  0  0  0  0  0
  192.6260  174.1080  139.9600 C   0  0  0  0  0  1  0  0  0  0  0  0
  191.4210  173.7860  139.3320 O   0  0  0  0  0  0  0  0  0  0  0  0
  1 27  1  0  0  0  0
  2 24  1  1  0  0  0
  3  9  1  0  0  0  0
  3 20  1  0  0  0  0
  4  1  1  0  0  0  0
  5 10  1  0  0  0  0
  7  3  1  0  0  0  0
  8 18  1  0  0  0  0
  9  6  1  0  0  0  0
 10 23  1  0  0  0  0
 10  7  1  0  0  0  0
 11  6  1  0  0  0  0
 11 16  1  0  0  0  0
 12  4  1  0  0  0  0
 12  8  1  0  0  0  0
 13 17  1  0  0  0  0
 13  9  1  0  0  0  0
 14  2  1  0  0  0  0
 15 20  1  0  0  0  0
 17  2  1  0  0  0  0
 18 19  1  0  0  0  0
 18 25  1  0  0  0  0
 19  5  1  0  0  0  0
 20 16  1  0  0  0  0
 21 13  1  0  0  0  0
 21  7  1  0  0  0  0
 22  2  1  0  0  0  0
 22  6  1  0  0  0  0
 23 28  1  0  0  0  0
 23 30  1  0  0  0  0
 25 27  1  0  0  0  0
 26  8  2  0  0  0  0
 27 21  1  0  0  0  0
 28 15  1  0  0  0  0
 29 30  2  0  0  0  0
 29 35  1  0  0  0  0
 30 31  1  0  0  0  0
 31 34  2  0  0  0  0
 33 34  1  0  0  0  0
 34 32  1  0  0  0  0
 35 33  2  0  0  0  0
 37 36  1  0  0  0  0
 37  4  1  0  0  0  0
M  END
>  <MODEL>
5

>  <REMARK>
 VINA RESULT:      -8.0      3.570      8.021
  Name = 
  2 active torsions:
  status: ('A' for Active; 'I' for Inactive)
    1  A    between atoms: C_4  and  O_37
    2  A    between atoms: C_23  and  C_30
                            x       y       z     vdW  Elec       q    Type
                         _______ _______ _______ _____ _____    ______ ____

>  <TORSDO>
F 2

$$$$
=
 OpenBabel11112417113D

 37 43  0  0  1  0  0  0  0  0999 V2000
  193.9220  174.7680  141.7280 C   0  0  0  0  0  2  0  0  0  0  0  0
  192.0780  170.7580  139.2020 C   0  0  1  0  0  0  0  0  0  0  0  0
  190.2860  174.0630  141.1850 N   0  0  1  0  0  0  0  0  0  0  0  0
  195.4350  175.0120  141.6410 C   0  0  2  0  0  3  0  0  0  0  0  0
  191.7100  175.3770  144.3610 O   0  0  0  0  0  0  0  0  0  0  0  0
  190.1040  172.3990  139.3070 C   0  0  1  0  0  3  0  0  0  0  0  0
  190.8820  174.0250  142.5300 C   0  0  2  0  0  3  0  0  0  0  0  0
  195.3660  175.7760  144.0600 C   0  0  0  0  0  0  0  0  0  0  0  0
  190.5660  172.7180  140.7340 C   0  0  1  0  0  3  0  0  0  0  0  0
  191.1920  175.4460  143.0610 C   0  0  1  0  0  3  0  0  0  0  0  0
  189.3880  173.5990  138.6860 C   0  0  0  0  0  2  0  0  0  0  0  0
  196.1560  175.0670  142.9960 C   0  0  0  0  0  2  0  0  0  0  0  0
  192.0130  172.5420  140.9830 C   0  0  2  0  0  3  0  0  0  0  0  0
  193.2860  170.5830  138.5280 O   0  0  0  0  0  1  0  0  0  0  0  0
  188.3210  175.4370  141.8490 C   0  0  0  0  0  2  0  0  0  0  0  0
  188.3500  174.1950  139.6680 C   0  0  0  0  0  2  0  0  0  0  0  0
  192.3860  171.1010  140.6850 C   0  0  0  0  0  2  0  0  0  0  0  0
  194.0950  175.1810  144.6140 C   0  0  1  0  0  3  0  0  0  0  0  0
  192.9080  176.0940  144.3080 C   0  0  0  0  0  2  0  0  0  0  0  0
  188.8270  174.1900  141.1400 C   0  0  1  0  0  3  0  0  0  0  0  0
  192.1150  173.0490  142.4080 C   0  0  1  0  0  3  0  0  0  0  0  0
  191.2520  171.8410  138.4520 C   0  0  0  0  0  2  0  0  0  0  0  0
  189.9970  176.4270  143.0380 C   0  0  1  0  0  3  0  0  0  0  0  0
  191.3170  169.4470  139.1660 C   0  0  0  0  0  1  0  0  0  0  0  0
  193.8700  173.7360  144.1300 C   0  0  0  0  0  2  0  0  0  0  0  0
  195.7670  176.8480  144.4860 O   0  0  0  0  0  0  0  0  0  0  0  0
  193.5400  173.5860  142.6350 C   0  0  2  0  0  3  0  0  0  0  0  0
  189.2740  176.4680  141.8240 O   0  0  0  0  0  0  0  0  0  0  0  0
  188.2520  177.5970  144.4170 C   0  0  0  0  0  3  0  0  0  0  0  0
  189.1700  176.5470  144.2980 C   0  0  0  0  0  0  0  0  0  0  0  0
  189.2900  175.6110  145.3360 C   0  0  0  0  0  3  0  0  0  0  0  0
  188.6620  174.5640  147.7790 Cl  0  0  0  0  0  0  0  0  0  0  0  0
  187.5930  176.7860  146.6010 C   0  0  0  0  0  3  0  0  0  0  0  0
  188.5050  175.7320  146.4860 C   0  0  0  0  0  0  0  0  0  0  0  0
  187.4660  177.7180  145.5660 C   0  0  0  0  0  3  0  0  0  0  0  0
  196.9290  176.0150  140.3520 C   0  0  0  0  0  1  0  0  0  0  0  0
  195.6720  176.1910  140.9330 O   0  0  0  0  0  0  0  0  0  0  0  0
  1 27  1  0  0  0  0
  2 24  1  6  0  0  0
  2 17  1  0  0  0  0
  3  7  1  0  0  0  0
  4  1  1  0  0  0  0
  4 12  1  0  0  0  0
  6  9  1  0  0  0  0
  7 10  1  0  0  0  0
  8 26  2  0  0  0  0
  8 18  1  0  0  0  0
  9 13  1  0  0  0  0
  9  3  1  0  0  0  0
 10  5  1  0  0  0  0
 11  6  1  0  0  0  0
 11 16  1  0  0  0  0
 12  8  1  0  0  0  0
 13 21  1  0  0  0  0
 14  2  1  0  0  0  0
 16 20  1  0  0  0  0
 17 13  1  0  0  0  0
 19  5  1  0  0  0  0
 19 18  1  0  0  0  0
 20  3  1  0  0  0  0
 20 15  1  0  0  0  0
 21  7  1  0  0  0  0
 21 27  1  0  0  0  0
 22  2  1  0  0  0  0
 22  6  1  0  0  0  0
 23 10  1  0  0  0  0
 23 30  1  0  0  0  0
 25 18  1  0  0  0  0
 27 25  1  0  0  0  0
 28 15  1  0  0  0  0
 28 23  1  0  0  0  0
 29 35  1  0  0  0  0
 30 29  2  0  0  0  0
 30 31  1  0  0  0  0
 31 34  2  0  0  0  0
 34 33  1  0  0  0  0
 34 32  1  0  0  0  0
 35 33  2  0  0  0  0
 36 37  1  0  0  0  0
 37  4  1  0  0  0  0
M  END
>  <MODEL>
6

>  <REMARK>
 VINA RESULT:      -7.9      1.978      2.564
  Name = 
  2 active torsions:
  status: ('A' for Active; 'I' for Inactive)
    1  A    between atoms: C_4  and  O_37
    2  A    between atoms: C_23  and  C_30
                            x       y       z     vdW  Elec       q    Type
                         _______ _______ _______ _____ _____    ______ ____

>  <TORSDO>
F 2

$$$$
=
 OpenBabel11112417113D

 37 43  0  0  1  0  0  0  0  0999 V2000
  189.9940  173.8040  140.0060 C   0  0  0  0  0  2  0  0  0  0  0  0
  186.9230  176.8110  142.7240 C   0  0  1  0  0  0  0  0  0  0  0  0
  190.9890  175.6360  143.1160 N   0  0  1  0  0  0  0  0  0  0  0  0
  189.4790  173.3340  138.6390 C   0  0  2  0  0  3  0  0  0  0  0  0
  192.0530  172.1640  142.3020 O   0  0  0  0  0  0  0  0  0  0  0  0
  189.2850  177.4420  143.5150 C   0  0  1  0  0  3  0  0  0  0  0  0
  190.9300  174.1660  143.0770 C   0  0  2  0  0  3  0  0  0  0  0  0
  190.6260  171.1110  139.0660 C   0  0  0  0  0  0  0  0  0  0  0  0
  189.6130  175.9470  143.4290 C   0  0  1  0  0  3  0  0  0  0  0  0
  192.1110  173.5640  142.2760 C   0  0  1  0  0  3  0  0  0  0  0  0
  190.5400  178.2880  143.2900 C   0  0  0  0  0  2  0  0  0  0  0  0
  189.4430  171.8090  138.4550 C   0  0  0  0  0  2  0  0  0  0  0  0
  188.8290  175.1850  142.4330 C   0  0  2  0  0  3  0  0  0  0  0  0
  186.0790  176.9970  141.6300 O   0  0  0  0  0  1  0  0  0  0  0  0
  193.2210  175.7410  144.2090 C   0  0  0  0  0  2  0  0  0  0  0  0
  191.7250  177.7550  144.1310 C   0  0  0  0  0  2  0  0  0  0  0  0
  187.3540  175.3200  142.7670 C   0  0  0  0  0  2  0  0  0  0  0  0
  190.8130  171.0570  140.5610 C   0  0  1  0  0  3  0  0  0  0  0  0
  192.0990  171.7790  140.9590 C   0  0  0  0  0  2  0  0  0  0  0  0
  191.7750  176.2100  144.2100 C   0  0  1  0  0  3  0  0  0  0  0  0
  189.4860  173.8240  142.5400 C   0  0  1  0  0  3  0  0  0  0  0  0
  188.1040  177.8160  142.6060 C   0  0  0  0  0  2  0  0  0  0  0  0
  193.5140  174.0260  142.7340 C   0  0  1  0  0  3  0  0  0  0  0  0
  186.1430  177.1170  143.9870 C   0  0  0  0  0  1  0  0  0  0  0  0
  189.5800  171.5830  141.3210 C   0  0  0  0  0  2  0  0  0  0  0  0
  191.4430  170.5730  138.3350 O   0  0  0  0  0  0  0  0  0  0  0  0
  189.3240  173.0950  141.1950 C   0  0  2  0  0  3  0  0  0  0  0  0
  193.6590  175.4200  142.9140 O   0  0  0  0  0  0  0  0  0  0  0  0
  193.5430  172.6420  144.8300 C   0  0  0  0  0  3  0  0  0  0  0  0
  194.2420  173.1570  143.7330 C   0  0  0  0  0  0  0  0  0  0  0  0
  195.5980  172.8380  143.5640 C   0  0  0  0  0  3  0  0  0  0  0  0
  197.9410  171.6310  144.2800 Cl  0  0  0  0  0  0  0  0  0  0  0  0
  195.5460  171.5140  145.5900 C   0  0  0  0  0  3  0  0  0  0  0  0
  196.2490  172.0210  144.4930 C   0  0  0  0  0  0  0  0  0  0  0  0
  194.1930  171.8240  145.7580 C   0  0  0  0  0  3  0  0  0  0  0  0
  189.3530  174.1800  136.5970 C   0  0  0  0  0  1  0  0  0  0  0  0
  190.2520  173.9120  137.6310 O   0  0  0  0  0  0  0  0  0  0  0  0
  1 27  1  0  0  0  0
  2 17  1  0  0  0  0
  2 24  1  1  0  0  0
  3  9  1  0  0  0  0
  3 20  1  0  0  0  0
  4  1  1  0  0  0  0
  7  3  1  0  0  0  0
  8 18  1  0  0  0  0
  9  6  1  0  0  0  0
 10  5  1  0  0  0  0
 10 23  1  0  0  0  0
 10  7  1  0  0  0  0
 11  6  1  0  0  0  0
 11 16  1  0  0  0  0
 12  4  1  0  0  0  0
 12  8  1  0  0  0  0
 13 21  1  0  0  0  0
 13 17  1  0  0  0  0
 13  9  1  0  0  0  0
 14  2  1  0  0  0  0
 15 20  1  0  0  0  0
 16 20  1  0  0  0  0
 18 19  1  0  0  0  0
 18 25  1  0  0  0  0
 19  5  1  0  0  0  0
 21  7  1  0  0  0  0
 22  2  1  0  0  0  0
 22  6  1  0  0  0  0
 23 28  1  0  0  0  0
 23 30  1  0  0  0  0
 26  8  2  0  0  0  0
 27 25  1  0  0  0  0
 27 21  1  0  0  0  0
 28 15  1  0  0  0  0
 29 35  1  0  0  0  0
 30 29  2  0  0  0  0
 31 30  1  0  0  0  0
 31 34  2  0  0  0  0
 32 34  1  0  0  0  0
 33 35  2  0  0  0  0
 34 33  1  0  0  0  0
 36 37  1  0  0  0  0
 37  4  1  0  0  0  0
M  END
>  <MODEL>
7

>  <REMARK>
 VINA RESULT:      -7.8      3.304      7.727
  Name = 
  2 active torsions:
  status: ('A' for Active; 'I' for Inactive)
    1  A    between atoms: C_4  and  O_37
    2  A    between atoms: C_23  and  C_30
                            x       y       z     vdW  Elec       q    Type
                         _______ _______ _______ _____ _____    ______ ____

>  <TORSDO>
F 2

$$$$
=
 OpenBabel11112417113D

 37 43  0  0  1  0  0  0  0  0999 V2000
  194.6400  175.0440  143.5230 C   0  0  0  0  0  2  0  0  0  0  0  0
  190.4290  176.3350  146.0650 C   0  0  1  0  0  0  0  0  0  0  0  0
  191.2290  173.6440  142.8730 N   0  0  1  0  0  0  0  0  0  0  0  0
  195.9770  175.5430  144.0880 C   0  0  2  0  0  3  0  0  0  0  0  0
  193.6700  174.5260  140.2070 O   0  0  0  0  0  0  0  0  0  0  0  0
  189.8060  174.1380  144.8880 C   0  0  1  0  0  3  0  0  0  0  0  0
  191.9170  174.4820  141.8780 C   0  0  2  0  0  3  0  0  0  0  0  0
  196.7760  175.8470  141.6990 C   0  0  0  0  0  0  0  0  0  0  0  0
  190.6050  174.6620  143.6890 C   0  0  1  0  0  3  0  0  0  0  0  0
  193.0710  173.7190  141.1830 C   0  0  1  0  0  3  0  0  0  0  0  0
  189.8120  172.6090  144.9200 C   0  0  0  0  0  2  0  0  0  0  0  0
  196.8200  176.3710  143.1070 C   0  0  0  0  0  2  0  0  0  0  0  0
  191.7060  175.5910  144.0220 C   0  0  2  0  0  3  0  0  0  0  0  0
  191.1800  176.7900  147.1480 O   0  0  0  0  0  1  0  0  0  0  0  0
  190.5570  171.8790  141.2540 C   0  0  0  0  0  2  0  0  0  0  0  0
  189.4920  172.0240  143.5230 C   0  0  0  0  0  2  0  0  0  0  0  0
  191.1280  176.7880  144.7550 C   0  0  0  0  0  2  0  0  0  0  0  0
  195.5130  175.9210  140.8780 C   0  0  1  0  0  3  0  0  0  0  0  0
  195.0320  174.5160  140.5210 C   0  0  0  0  0  2  0  0  0  0  0  0
  190.1250  172.8280  142.3620 C   0  0  1  0  0  3  0  0  0  0  0  0
  192.3240  175.7950  142.6530 C   0  0  1  0  0  3  0  0  0  0  0  0
  190.2590  174.7950  146.2010 C   0  0  0  0  0  2  0  0  0  0  0  0
  192.6720  172.3650  140.5520 C   0  0  1  0  0  3  0  0  0  0  0  0
  189.0620  176.9880  146.1240 C   0  0  0  0  0  1  0  0  0  0  0  0
  194.4210  176.7640  141.5650 C   0  0  0  0  0  2  0  0  0  0  0  0
  197.7850  175.3620  141.2120 O   0  0  0  0  0  0  0  0  0  0  0  0
  193.8120  176.1430  142.8350 C   0  0  2  0  0  3  0  0  0  0  0  0
  191.9060  171.5150  141.3830 O   0  0  0  0  0  0  0  0  0  0  0  0
  192.9260  171.4660  138.2200 C   0  0  0  0  0  3  0  0  0  0  0  0
  192.2950  172.3630  139.0880 C   0  0  0  0  0  0  0  0  0  0  0  0
  191.3060  173.2270  138.5930 C   0  0  0  0  0  3  0  0  0  0  0  0
  189.7330  174.2820  136.6250 Cl  0  0  0  0  0  0  0  0  0  0  0  0
  191.6010  172.3040  136.3740 C   0  0  0  0  0  3  0  0  0  0  0  0
  190.9630  173.1990  137.2380 C   0  0  0  0  0  0  0  0  0  0  0  0
  192.5820  171.4370  136.8650 C   0  0  0  0  0  3  0  0  0  0  0  0
  196.2050  174.1730  145.8110 C   0  0  0  0  0  1  0  0  0  0  0  0
  196.7200  174.4530  144.5440 O   0  0  0  0  0  0  0  0  0  0  0  0
  1  4  1  0  0  0  0
  2 24  1  1  0  0  0
  2 22  1  0  0  0  0
  2 14  1  0  0  0  0
  3  9  1  0  0  0  0
  4 37  1  0  0  0  0
  5 19  1  0  0  0  0
  5 10  1  0  0  0  0
  6 11  1  0  0  0  0
  6 22  1  0  0  0  0
  7 21  1  0  0  0  0
  7  3  1  0  0  0  0
  8 12  1  0  0  0  0
  9 13  1  0  0  0  0
  9  6  1  0  0  0  0
 10  7  1  0  0  0  0
 12  4  1  0  0  0  0
 13 17  1  0  0  0  0
 15 28  1  0  0  0  0
 15 20  1  0  0  0  0
 16 11  1  0  0  0  0
 17  2  1  0  0  0  0
 18 25  1  0  0  0  0
 18  8  1  0  0  0  0
 19 18  1  0  0  0  0
 20  3  1  0  0  0  0
 20 16  1  0  0  0  0
 21 27  1  0  0  0  0
 21 13  1  0  0  0  0
 23 10  1  0  0  0  0
 23 28  1  0  0  0  0
 25 27  1  0  0  0  0
 26  8  2  0  0  0  0
 27  1  1  0  0  0  0
 29 30  1  0  0  0  0
 30 23  1  0  0  0  0
 31 30  2  0  0  0  0
 32 34  1  0  0  0  0
 33 35  1  0  0  0  0
 33 34  2  0  0  0  0
 34 31  1  0  0  0  0
 35 29  2  0  0  0  0
 37 36  1  0  0  0  0
M  END
>  <MODEL>
8

>  <REMARK>
 VINA RESULT:      -7.6      2.859      6.546
  Name = 
  2 active torsions:
  status: ('A' for Active; 'I' for Inactive)
    1  A    between atoms: C_4  and  O_37
    2  A    between atoms: C_23  and  C_30
                            x       y       z     vdW  Elec       q    Type
                         _______ _______ _______ _____ _____    ______ ____

>  <TORSDO>
F 2

$$$$
=
 OpenBabel11112417113D

 37 43  0  0  1  0  0  0  0  0999 V2000
  191.9810  175.3960  145.0270 C   0  0  0  0  0  2  0  0  0  0  0  0
  187.8290  177.5570  143.0400 C   0  0  1  0  0  0  0  0  0  0  0  0
  190.1020  174.1010  142.0590 N   0  0  1  0  0  0  0  0  0  0  0  0
  192.4680  175.9330  146.3800 C   0  0  2  0  0  3  0  0  0  0  0  0
  193.8120  174.1220  142.3400 O   0  0  0  0  0  0  0  0  0  0  0  0
  187.8290  175.1790  142.0670 C   0  0  1  0  0  3  0  0  0  0  0  0
  191.4750  174.6150  141.9340 C   0  0  2  0  0  3  0  0  0  0  0  0
  194.8460  175.5730  145.5710 C   0  0  0  0  0  0  0  0  0  0  0  0
  189.3490  175.3300  141.9410 C   0  0  1  0  0  3  0  0  0  0  0  0
  192.5140  173.6280  142.5210 C   0  0  1  0  0  3  0  0  0  0  0  0
  187.4410  173.7100  142.2460 C   0  0  0  0  0  2  0  0  0  0  0  0
  193.9210  176.4310  146.3880 C   0  0  0  0  0  2  0  0  0  0  0  0
  189.9760  176.2400  142.9240 C   0  0  2  0  0  3  0  0  0  0  0  0
  187.5590  178.2210  144.2350 O   0  0  0  0  0  1  0  0  0  0  0  0
  190.5140  172.0320  140.7410 C   0  0  0  0  0  2  0  0  0  0  0  0
  188.1770  172.8140  141.2210 C   0  0  0  0  0  2  0  0  0  0  0  0
  189.3570  177.6190  142.7760 C   0  0  0  0  0  2  0  0  0  0  0  0
  194.7360  175.5190  144.0680 C   0  0  1  0  0  3  0  0  0  0  0  0
  194.3840  174.1030  143.6150 C   0  0  0  0  0  2  0  0  0  0  0  0
  189.6370  173.2560  140.9570 C   0  0  1  0  0  3  0  0  0  0  0  0
  191.4410  176.0510  142.5850 C   0  0  1  0  0  3  0  0  0  0  0  0
  187.2530  176.1160  143.1400 C   0  0  0  0  0  2  0  0  0  0  0  0
  192.4330  172.1870  141.9650 C   0  0  1  0  0  3  0  0  0  0  0  0
  187.1220  178.2910  141.9160 C   0  0  0  0  0  1  0  0  0  0  0  0
  193.7600  176.5760  143.5180 C   0  0  0  0  0  2  0  0  0  0  0  0
  195.7050  174.9160  146.1380 O   0  0  0  0  0  0  0  0  0  0  0  0
  192.2750  176.3370  143.8470 C   0  0  2  0  0  3  0  0  0  0  0  0
  191.1360  171.6260  141.9320 O   0  0  0  0  0  0  0  0  0  0  0  0
  194.1020  170.6760  140.8490 C   0  0  0  0  0  3  0  0  0  0  0  0
  193.3260  171.8400  140.7960 C   0  0  0  0  0  0  0  0  0  0  0  0
  193.3720  172.6520  139.6530 C   0  0  0  0  0  3  0  0  0  0  0  0
  194.2500  173.3230  137.1550 Cl  0  0  0  0  0  0  0  0  0  0  0  0
  194.9710  171.1430  138.6380 C   0  0  0  0  0  3  0  0  0  0  0  0
  194.1940  172.3050  138.5770 C   0  0  0  0  0  0  0  0  0  0  0  0
  194.9240  170.3290  139.7730 C   0  0  0  0  0  3  0  0  0  0  0  0
  191.1190  175.2910  148.0130 C   0  0  0  0  0  1  0  0  0  0  0  0
  192.3020  174.9490  147.3550 O   0  0  0  0  0  0  0  0  0  0  0  0
  1  4  1  0  0  0  0
  2 24  1  6  0  0  0
  2 22  1  0  0  0  0
  2 14  1  0  0  0  0
  4 12  1  0  0  0  0
  4 37  1  0  0  0  0
  5 10  1  0  0  0  0
  5 19  1  0  0  0  0
  6 11  1  0  0  0  0
  6 22  1  0  0  0  0
  7  3  1  0  0  0  0
  7 10  1  0  0  0  0
  7 21  1  0  0  0  0
  8 26  2  0  0  0  0
  8 12  1  0  0  0  0
  9  3  1  0  0  0  0
  9  6  1  0  0  0  0
  9 13  1  0  0  0  0
 15 20  1  0  0  0  0
 15 28  1  0  0  0  0
 16 11  1  0  0  0  0
 17 13  1  0  0  0  0
 17  2  1  0  0  0  0
 18  8  1  0  0  0  0
 19 18  1  0  0  0  0
 20 16  1  0  0  0  0
 20  3  1  0  0  0  0
 21 13  1  0  0  0  0
 21 27  1  0  0  0  0
 23 10  1  0  0  0  0
 25 27  1  0  0  0  0
 25 18  1  0  0  0  0
 27  1  1  0  0  0  0
 28 23  1  0  0  0  0
 30 29  1  0  0  0  0
 30 23  1  0  0  0  0
 31 30  2  0  0  0  0
 32 34  1  0  0  0  0
 33 35  1  0  0  0  0
 34 33  2  0  0  0  0
 34 31  1  0  0  0  0
 35 29  2  0  0  0  0
 37 36  1  0  0  0  0
M  END
>  <MODEL>
9

>  <REMARK>
 VINA RESULT:      -7.5      2.938      6.652
  Name = 
  2 active torsions:
  status: ('A' for Active; 'I' for Inactive)
    1  A    between atoms: C_4  and  O_37
    2  A    between atoms: C_23  and  C_30
                            x       y       z     vdW  Elec       q    Type
                         _______ _______ _______ _____ _____    ______ ____

>  <TORSDO>
F 2

$$$$
