=
 OpenBabel11112417163D

 37 43  0  0  1  0  0  0  0  0999 V2000
  189.9280  174.0730  140.8490 C   0  0  0  0  0  2  0  0  0  0  0  0
  186.9620  177.0190  143.5420 C   0  0  0  0  0  0  0  0  0  0  0  0
  190.5560  175.5490  145.2720 C   0  0  0  0  0  0  0  0  0  0  0  0
  189.5570  173.0980  139.7180 C   0  0  2  0  0  3  0  0  0  0  0  0
  192.3240  172.6400  143.6030 O   0  0  0  0  0  0  0  0  0  0  0  0
  188.5610  176.9410  145.5520 C   0  0  0  0  0  0  0  0  0  0  0  0
  190.9510  174.6280  144.3700 C   0  0  0  0  0  0  0  0  0  0  0  0
  191.6960  171.7540  140.0560 C   0  0  0  0  0  0  0  0  0  0  0  0
  189.3060  176.1000  144.8500 C   0  0  0  0  0  0  0  0  0  0  0  0
  192.1910  173.7550  144.4450 C   0  0  0  0  0  0  0  0  0  0  0  0
  189.0610  177.4280  146.8950 C   0  0  0  0  0  2  0  0  0  0  0  0
  190.2110  171.7070  139.8180 C   0  0  0  0  0  2  0  0  0  0  0  0
  188.9170  175.4650  143.6400 C   0  0  0  0  0  0  0  0  0  0  0  0
  187.5910  178.1600  142.7600 C   0  0  0  0  0  1  0  0  0  0  0  0
  192.3630  175.3980  147.1200 C   0  0  0  0  0  2  0  0  0  0  0  0
  190.3880  176.8130  147.3340 C   0  0  0  0  0  3  0  0  0  0  0  0
  187.5530  175.6730  143.0560 C   0  0  0  0  0  2  0  0  0  0  0  0
  192.2430  171.5120  141.4330 C   0  0  0  0  0  2  0  0  0  0  0  0
  191.6590  172.5560  142.3640 C   0  0  1  0  0  3  0  0  0  0  0  0
  191.0960  175.9520  146.5840 C   0  0  0  0  0  0  0  0  0  0  0  0
  189.8420  174.5570  143.3430 C   0  0  0  0  0  0  0  0  0  0  0  0
  187.1660  177.2600  145.0630 C   0  0  0  0  0  2  0  0  0  0  0  0
  193.2370  174.0150  145.2730 C   0  0  0  0  0  0  0  0  0  0  0  0
  185.4760  177.0170  143.2550 C   0  0  0  0  0  1  0  0  0  0  0  0
  190.2950  172.3250  142.5680 O   0  0  0  0  0  0  0  0  0  0  0  0
  192.4570  172.0030  139.1350 O   0  0  0  0  0  0  0  0  0  0  0  0
  189.6350  173.5270  142.2640 C   0  0  2  0  0  3  0  0  0  0  0  0
  193.3730  175.3170  146.0020 C   0  0  0  0  0  2  0  0  0  0  0  0
  195.6940  173.5230  145.3300 C   0  0  0  0  0  3  0  0  0  0  0  0
  194.3690  173.0620  145.4190 C   0  0  0  0  0  0  0  0  0  0  0  0
  194.1440  171.7040  145.7000 C   0  0  0  0  0  3  0  0  0  0  0  0
  194.9720  169.4500  146.1410 N   0  0  0  0  0  1  0  0  0  0  0  0
  196.5280  171.2920  145.7600 C   0  0  0  0  0  3  0  0  0  0  0  0
  195.2170  170.8230  145.8640 C   0  0  0  0  0  0  0  0  0  0  0  0
  196.7670  172.6420  145.4950 C   0  0  0  0  0  3  0  0  0  0  0  0
  188.6280  173.8050  137.8370 C   0  0  0  0  0  1  0  0  0  0  0  0
  189.8590  173.6780  138.4840 O   0  0  0  0  0  0  0  0  0  0  0  0
  2 22  1  0  0  0  0
  3 20  1  0  0  0  0
  4 37  1  6  0  0  0
  4 12  1  0  0  0  0
  4  1  1  0  0  0  0
  5 10  1  0  0  0  0
  6 11  1  0  0  0  0
  7 10  1  0  0  0  0
  7  3  2  0  0  0  0
  8 18  1  0  0  0  0
  9  3  1  0  0  0  0
  9  6  2  0  0  0  0
 10 23  2  0  0  0  0
 11 16  1  0  0  0  0
 12  8  1  0  0  0  0
 13  9  1  0  0  0  0
 14  2  1  0  0  0  0
 17  2  1  0  0  0  0
 17 13  1  0  0  0  0
 19 18  1  6  0  0  0
 19 25  1  0  0  0  0
 19  5  1  0  0  0  0
 20 15  1  0  0  0  0
 20 16  2  0  0  0  0
 21 13  2  0  0  0  0
 21  7  1  0  0  0  0
 22  6  1  0  0  0  0
 23 30  1  0  0  0  0
 23 28  1  0  0  0  0
 24  2  1  0  0  0  0
 26  8  2  0  0  0  0
 27  1  1  6  0  0  0
 27 25  1  0  0  0  0
 27 21  1  0  0  0  0
 28 15  1  0  0  0  0
 29 30  2  0  0  0  0
 29 35  1  0  0  0  0
 30 31  1  0  0  0  0
 31 34  2  0  0  0  0
 33 34  1  0  0  0  0
 34 32  1  0  0  0  0
 35 33  2  0  0  0  0
 36 37  1  0  0  0  0
M  END
>  <MODEL>
1

>  <REMARK>
 VINA RESULT:      -9.3      0.000      0.000
  Name = 
  2 active torsions:
  status: ('A' for Active; 'I' for Inactive)
    1  A    between atoms: C_4  and  O_37
    2  A    between atoms: C_23  and  C_30
                            x       y       z     vdW  Elec       q    Type
                         _______ _______ _______ _____ _____    ______ ____

>  <TORSDO>
F 2

$$$$
=
 OpenBabel11112417163D

 37 43  0  0  1  0  0  0  0  0999 V2000
  189.6440  174.1790  140.8090 C   0  0  0  0  0  2  0  0  0  0  0  0
  186.8390  177.1540  143.6400 C   0  0  0  0  0  0  0  0  0  0  0  0
  190.4980  175.6500  145.1960 C   0  0  0  0  0  0  0  0  0  0  0  0
  189.2100  173.2070  139.6970 C   0  0  2  0  0  3  0  0  0  0  0  0
  192.1560  172.7240  143.4460 O   0  0  0  0  0  0  0  0  0  0  0  0
  188.5320  177.0610  145.5700 C   0  0  0  0  0  0  0  0  0  0  0  0
  190.8400  174.7250  144.2760 C   0  0  0  0  0  0  0  0  0  0  0  0
  191.3500  171.8430  139.9330 C   0  0  0  0  0  0  0  0  0  0  0  0
  189.2350  176.2120  144.8340 C   0  0  0  0  0  0  0  0  0  0  0  0
  192.0740  173.8400  144.2920 C   0  0  0  0  0  0  0  0  0  0  0  0
  189.1000  177.5430  146.8880 C   0  0  0  0  0  2  0  0  0  0  0  0
  189.8550  171.8100  139.7670 C   0  0  0  0  0  2  0  0  0  0  0  0
  188.7820  175.5810  143.6450 C   0  0  0  0  0  0  0  0  0  0  0  0
  187.4410  178.2890  142.8280 C   0  0  0  0  0  1  0  0  0  0  0  0
  192.3900  175.4810  146.9550 C   0  0  0  0  0  2  0  0  0  0  0  0
  190.4410  176.9160  147.2630 C   0  0  0  0  0  3  0  0  0  0  0  0
  187.3930  175.8020  143.1270 C   0  0  0  0  0  2  0  0  0  0  0  0
  191.9600  171.5960  141.2830 C   0  0  0  0  0  2  0  0  0  0  0  0
  191.4310  172.6460  142.2400 C   0  0  1  0  0  3  0  0  0  0  0  0
  191.1040  176.0480  146.4800 C   0  0  0  0  0  0  0  0  0  0  0  0
  189.6830  174.6640  143.3040 C   0  0  0  0  0  0  0  0  0  0  0  0
  187.1190  177.3930  145.1490 C   0  0  0  0  0  2  0  0  0  0  0  0
  193.1610  174.0900  145.0690 C   0  0  0  0  0  0  0  0  0  0  0  0
  185.3410  177.1660  143.4250 C   0  0  0  0  0  1  0  0  0  0  0  0
  190.0770  172.4280  142.5090 O   0  0  0  0  0  0  0  0  0  0  0  0
  192.0670  172.0840  138.9770 O   0  0  0  0  0  0  0  0  0  0  0  0
  189.4140  173.6360  142.2370 C   0  0  2  0  0  3  0  0  0  0  0  0
  193.3450  175.3910  145.7900 C   0  0  0  0  0  2  0  0  0  0  0  0
  194.0800  171.8450  145.6980 C   0  0  0  0  0  3  0  0  0  0  0  0
  194.2900  173.1260  145.1610 C   0  0  0  0  0  0  0  0  0  0  0  0
  195.5660  173.4530  144.6710 C   0  0  0  0  0  3  0  0  0  0  0  0
  197.8990  172.8770  144.2440 N   0  0  0  0  0  1  0  0  0  0  0  0
  196.3920  171.2630  145.2840 C   0  0  0  0  0  3  0  0  0  0  0  0
  196.6120  172.5290  144.7380 C   0  0  0  0  0  0  0  0  0  0  0  0
  195.1260  170.9200  145.7630 C   0  0  0  0  0  3  0  0  0  0  0  0
  188.2010  174.1660  137.9760 C   0  0  0  0  0  1  0  0  0  0  0  0
  189.4570  173.7840  138.4500 O   0  0  0  0  0  0  0  0  0  0  0  0
  2 22  1  0  0  0  0
  3 20  1  0  0  0  0
  4 37  1  6  0  0  0
  4 12  1  0  0  0  0
  4  1  1  0  0  0  0
  5 10  1  0  0  0  0
  6 11  1  0  0  0  0
  7 10  1  0  0  0  0
  7  3  2  0  0  0  0
  8 18  1  0  0  0  0
  9  3  1  0  0  0  0
  9  6  2  0  0  0  0
 10 23  2  0  0  0  0
 11 16  1  0  0  0  0
 12  8  1  0  0  0  0
 13  9  1  0  0  0  0
 14  2  1  0  0  0  0
 17  2  1  0  0  0  0
 17 13  1  0  0  0  0
 19 18  1  6  0  0  0
 19 25  1  0  0  0  0
 19  5  1  0  0  0  0
 20 15  1  0  0  0  0
 20 16  2  0  0  0  0
 21 13  2  0  0  0  0
 21  7  1  0  0  0  0
 22  6  1  0  0  0  0
 23 30  1  0  0  0  0
 23 28  1  0  0  0  0
 24  2  1  0  0  0  0
 26  8  2  0  0  0  0
 27  1  1  6  0  0  0
 27 25  1  0  0  0  0
 27 21  1  0  0  0  0
 28 15  1  0  0  0  0
 29 35  1  0  0  0  0
 30 29  2  0  0  0  0
 31 34  2  0  0  0  0
 31 30  1  0  0  0  0
 32 34  1  0  0  0  0
 33 35  2  0  0  0  0
 34 33  1  0  0  0  0
 36 37  1  0  0  0  0
M  END
>  <MODEL>
2

>  <REMARK>
 VINA RESULT:      -9.1      0.863      1.162
  Name = 
  2 active torsions:
  status: ('A' for Active; 'I' for Inactive)
    1  A    between atoms: C_4  and  O_37
    2  A    between atoms: C_23  and  C_30
                            x       y       z     vdW  Elec       q    Type
                         _______ _______ _______ _____ _____    ______ ____

>  <TORSDO>
F 2

$$$$
=
 OpenBabel11112417163D

 37 43  0  0  1  0  0  0  0  0999 V2000
  190.9290  172.9420  141.8060 C   0  0  0  0  0  2  0  0  0  0  0  0
  195.3760  173.8270  143.8490 C   0  0  0  0  0  0  0  0  0  0  0  0
  191.9370  175.7530  145.4430 C   0  0  0  0  0  0  0  0  0  0  0  0
  190.5860  172.5700  140.3520 C   0  0  2  0  0  3  0  0  0  0  0  0
  188.7580  175.8050  143.3770 O   0  0  0  0  0  0  0  0  0  0  0  0
  194.3540  175.3980  145.6070 C   0  0  0  0  0  0  0  0  0  0  0  0
  190.9990  175.4730  144.5150 C   0  0  0  0  0  0  0  0  0  0  0  0
  188.1900  173.3990  140.6110 C   0  0  0  0  0  0  0  0  0  0  0  0
  193.1870  175.2110  145.0090 C   0  0  0  0  0  0  0  0  0  0  0  0
  189.5430  175.9050  144.5360 C   0  0  0  0  0  0  0  0  0  0  0  0
  194.4090  176.2040  146.8870 C   0  0  0  0  0  2  0  0  0  0  0  0
  189.4150  173.3590  139.7380 C   0  0  0  0  0  2  0  0  0  0  0  0
  192.9970  174.5880  143.7460 C   0  0  0  0  0  0  0  0  0  0  0  0
  195.1800  172.4950  144.5540 C   0  0  0  0  0  1  0  0  0  0  0  0
  190.6690  177.2120  147.1650 C   0  0  0  0  0  2  0  0  0  0  0  0
  193.0660  176.7880  147.3220 C   0  0  0  0  0  3  0  0  0  0  0  0
  194.1600  174.1100  142.9320 C   0  0  0  0  0  2  0  0  0  0  0  0
  187.8850  174.6280  141.4180 C   0  0  0  0  0  2  0  0  0  0  0  0
  189.0490  174.8800  142.3550 C   0  0  1  0  0  3  0  0  0  0  0  0
  191.9120  176.5740  146.6670 C   0  0  0  0  0  0  0  0  0  0  0  0
  191.7250  174.7580  143.3980 C   0  0  0  0  0  0  0  0  0  0  0  0
  195.6130  174.9410  144.9050 C   0  0  0  0  0  2  0  0  0  0  0  0
  188.9160  176.3580  145.6540 C   0  0  0  0  0  0  0  0  0  0  0  0
  196.6110  173.7220  142.9810 C   0  0  0  0  0  1  0  0  0  0  0  0
  190.1750  175.2980  141.6390 O   0  0  0  0  0  0  0  0  0  0  0  0
  187.4530  172.4290  140.6780 O   0  0  0  0  0  0  0  0  0  0  0  0
  191.2260  174.4440  142.0120 C   0  0  2  0  0  3  0  0  0  0  0  0
  189.5270  176.2370  147.0170 C   0  0  0  0  0  2  0  0  0  0  0  0
  186.5510  176.4150  146.4840 C   0  0  0  0  0  3  0  0  0  0  0  0
  187.5320  176.9020  145.6030 C   0  0  0  0  0  0  0  0  0  0  0  0
  187.1920  177.9410  144.7200 C   0  0  0  0  0  3  0  0  0  0  0  0
  185.5660  179.5100  143.7970 N   0  0  0  0  0  1  0  0  0  0  0  0
  184.9280  177.9620  145.5740 C   0  0  0  0  0  3  0  0  0  0  0  0
  185.8960  178.4640  144.7020 C   0  0  0  0  0  0  0  0  0  0  0  0
  185.2560  176.9390  146.4670 C   0  0  0  0  0  3  0  0  0  0  0  0
  190.5770  170.7110  141.5540 C   0  0  0  0  0  1  0  0  0  0  0  0
  190.3340  171.1990  140.2690 O   0  0  0  0  0  0  0  0  0  0  0  0
  2 14  1  0  0  0  0
  2 22  1  0  0  0  0
  3 20  1  0  0  0  0
  4 37  1  1  0  0  0
  4  1  1  0  0  0  0
  5 10  1  0  0  0  0
  6 11  1  0  0  0  0
  7 10  1  0  0  0  0
  7  3  2  0  0  0  0
  8 26  2  0  0  0  0
  8 18  1  0  0  0  0
  9  3  1  0  0  0  0
  9  6  2  0  0  0  0
 10 23  2  0  0  0  0
 11 16  1  0  0  0  0
 12  4  1  0  0  0  0
 12  8  1  0  0  0  0
 13  9  1  0  0  0  0
 17 13  1  0  0  0  0
 17  2  1  0  0  0  0
 19 18  1  6  0  0  0
 19  5  1  0  0  0  0
 20 15  1  0  0  0  0
 20 16  2  0  0  0  0
 21 13  2  0  0  0  0
 21  7  1  0  0  0  0
 22  6  1  0  0  0  0
 23 28  1  0  0  0  0
 24  2  1  0  0  0  0
 25 27  1  0  0  0  0
 25 19  1  0  0  0  0
 27  1  1  1  0  0  0
 27 21  1  0  0  0  0
 28 15  1  0  0  0  0
 30 23  1  0  0  0  0
 30 29  2  0  0  0  0
 31 30  1  0  0  0  0
 32 34  1  0  0  0  0
 33 35  2  0  0  0  0
 34 31  2  0  0  0  0
 34 33  1  0  0  0  0
 35 29  1  0  0  0  0
 37 36  1  0  0  0  0
M  END
>  <MODEL>
3

>  <REMARK>
 VINA RESULT:      -8.9      2.894      6.748
  Name = 
  2 active torsions:
  status: ('A' for Active; 'I' for Inactive)
    1  A    between atoms: C_4  and  O_37
    2  A    between atoms: C_23  and  C_30
                            x       y       z     vdW  Elec       q    Type
                         _______ _______ _______ _____ _____    ______ ____

>  <TORSDO>
F 2

$$$$
=
 OpenBabel11112417163D

 37 43  0  0  1  0  0  0  0  0999 V2000
  188.2740  174.9840  140.3340 C   0  0  0  0  0  2  0  0  0  0  0  0
  185.6210  177.8880  143.3770 C   0  0  0  0  0  0  0  0  0  0  0  0
  188.9720  175.7760  144.9190 C   0  0  0  0  0  0  0  0  0  0  0  0
  187.8160  174.2190  139.0800 C   0  0  2  0  0  3  0  0  0  0  0  0
  190.4170  172.9190  142.8880 O   0  0  0  0  0  0  0  0  0  0  0  0
  187.1520  177.3510  145.3690 C   0  0  0  0  0  0  0  0  0  0  0  0
  189.2740  174.9410  143.9050 C   0  0  0  0  0  0  0  0  0  0  0  0
  189.7700  172.5920  139.2500 C   0  0  0  0  0  0  0  0  0  0  0  0
  187.8070  176.5250  144.5660 C   0  0  0  0  0  0  0  0  0  0  0  0
  190.3980  173.9210  143.8710 C   0  0  0  0  0  0  0  0  0  0  0  0
  187.6750  177.5920  146.7690 C   0  0  0  0  0  2  0  0  0  0  0  0
  188.2960  172.7580  138.9970 C   0  0  0  0  0  2  0  0  0  0  0  0
  187.3730  176.1080  143.2790 C   0  0  0  0  0  0  0  0  0  0  0  0
  186.4010  179.0370  142.7590 C   0  0  0  0  0  1  0  0  0  0  0  0
  190.7040  175.1620  146.7430 C   0  0  0  0  0  2  0  0  0  0  0  0
  188.9080  176.7670  147.1310 C   0  0  0  0  0  3  0  0  0  0  0  0
  186.0580  176.5560  142.7190 C   0  0  0  0  0  2  0  0  0  0  0  0
  190.2510  172.1050  140.5860 C   0  0  0  0  0  2  0  0  0  0  0  0
  189.7750  173.0810  141.6440 C   0  0  1  0  0  3  0  0  0  0  0  0
  189.5260  175.9330  146.2770 C   0  0  0  0  0  0  0  0  0  0  0  0
  188.1890  175.1410  142.8700 C   0  0  0  0  0  0  0  0  0  0  0  0
  185.8170  177.9000  144.9180 C   0  0  0  0  0  2  0  0  0  0  0  0
  191.4490  173.9390  144.7340 C   0  0  0  0  0  0  0  0  0  0  0  0
  184.1520  178.1050  143.0810 C   0  0  0  0  0  1  0  0  0  0  0  0
  188.3890  172.9930  141.8060 O   0  0  0  0  0  0  0  0  0  0  0  0
  190.5760  172.8660  138.3760 O   0  0  0  0  0  0  0  0  0  0  0  0
  187.8850  174.2960  141.6610 C   0  0  2  0  0  3  0  0  0  0  0  0
  191.7230  175.1080  145.6310 C   0  0  0  0  0  2  0  0  0  0  0  0
  193.7200  173.0640  145.3290 C   0  0  0  0  0  3  0  0  0  0  0  0
  192.4550  172.8450  144.7590 C   0  0  0  0  0  0  0  0  0  0  0  0
  192.1480  171.5650  144.2670 C   0  0  0  0  0  3  0  0  0  0  0  0
  192.7690  169.2480  143.8130 N   0  0  0  0  0  1  0  0  0  0  0  0
  194.3500  170.7710  144.8800 C   0  0  0  0  0  3  0  0  0  0  0  0
  193.0920  170.5360  144.3220 C   0  0  0  0  0  0  0  0  0  0  0  0
  194.6640  172.0350  145.3860 C   0  0  0  0  0  3  0  0  0  0  0  0
  187.0910  175.6570  137.5600 C   0  0  0  0  0  1  0  0  0  0  0  0
  188.2130  174.9160  137.9370 O   0  0  0  0  0  0  0  0  0  0  0  0
  2 22  1  0  0  0  0
  3 20  1  0  0  0  0
  4 37  1  6  0  0  0
  4  1  1  0  0  0  0
  5 10  1  0  0  0  0
  6 11  1  0  0  0  0
  7  3  2  0  0  0  0
  8 18  1  0  0  0  0
  9  3  1  0  0  0  0
  9  6  2  0  0  0  0
 10  7  1  0  0  0  0
 10 23  2  0  0  0  0
 11 16  1  0  0  0  0
 12  4  1  0  0  0  0
 12  8  1  0  0  0  0
 13  9  1  0  0  0  0
 14  2  1  0  0  0  0
 17 13  1  0  0  0  0
 17  2  1  0  0  0  0
 19 18  1  6  0  0  0
 19 25  1  0  0  0  0
 19  5  1  0  0  0  0
 20 15  1  0  0  0  0
 20 16  2  0  0  0  0
 21 13  2  0  0  0  0
 21  7  1  0  0  0  0
 22  6  1  0  0  0  0
 23 30  1  0  0  0  0
 23 28  1  0  0  0  0
 24  2  1  0  0  0  0
 26  8  2  0  0  0  0
 27  1  1  6  0  0  0
 27 25  1  0  0  0  0
 27 21  1  0  0  0  0
 28 15  1  0  0  0  0
 29 35  1  0  0  0  0
 30 29  2  0  0  0  0
 31 34  2  0  0  0  0
 31 30  1  0  0  0  0
 32 34  1  0  0  0  0
 33 35  2  0  0  0  0
 34 33  1  0  0  0  0
 36 37  1  0  0  0  0
M  END
>  <MODEL>
4

>  <REMARK>
 VINA RESULT:      -8.9      1.422      2.002
  Name = 
  2 active torsions:
  status: ('A' for Active; 'I' for Inactive)
    1  A    between atoms: C_4  and  O_37
    2  A    between atoms: C_23  and  C_30
                            x       y       z     vdW  Elec       q    Type
                         _______ _______ _______ _____ _____    ______ ____

>  <TORSDO>
F 2

$$$$
=
 OpenBabel11112417163D

 37 43  0  0  1  0  0  0  0  0999 V2000
  192.3340  175.1740  145.0980 C   0  0  0  0  0  2  0  0  0  0  0  0
  192.6550  172.4560  140.9460 C   0  0  0  0  0  0  0  0  0  0  0  0
  189.2520  174.9320  141.5500 C   0  0  0  0  0  0  0  0  0  0  0  0
  192.9170  174.8870  146.4920 C   0  0  2  0  0  3  0  0  0  0  0  0
  188.5690  176.2700  145.0310 O   0  0  0  0  0  0  0  0  0  0  0  0
  190.4180  173.3680  140.0690 C   0  0  0  0  0  0  0  0  0  0  0  0
  189.3960  175.3040  142.8380 C   0  0  1  0  0  3  0  0  0  0  0  0
  191.2260  176.4270  147.6150 C   0  0  0  0  0  0  0  0  0  0  0  0
  190.3100  174.0320  141.2110 C   0  0  0  0  0  0  0  0  0  0  0  0
  188.4680  176.2060  143.6320 C   0  0  0  0  0  0  0  0  0  0  0  0
  189.3860  173.5900  138.9840 C   0  0  0  0  0  3  0  0  0  0  0  0
  191.9410  175.1040  147.6630 C   0  0  0  0  0  2  0  0  0  0  0  0
  191.1240  173.8370  142.3590 C   0  0  0  0  0  0  0  0  0  0  0  0
  193.5870  173.5490  140.4490 C   0  0  0  0  0  1  0  0  0  0  0  0
  187.0340  176.0610  140.8380 C   0  0  0  0  0  2  0  0  0  0  0  0
  188.2560  174.5410  139.3740 C   0  0  0  0  0  3  0  0  0  0  0  0
  192.1920  172.7870  142.3850 C   0  0  0  0  0  2  0  0  0  0  0  0
  189.8060  176.4940  147.1300 C   0  0  0  0  0  2  0  0  0  0  0  0
  189.7670  175.9700  145.7080 C   0  0  1  0  0  3  0  0  0  0  0  0
  188.1910  175.1780  140.5560 C   0  0  0  0  0  0  0  0  0  0  0  0
  190.5940  174.5390  143.3560 C   0  0  0  0  0  0  0  0  0  0  0  0
  191.4740  172.2920  139.9490 C   0  0  0  0  0  2  0  0  0  0  0  0
  187.5410  177.0160  143.0560 C   0  0  0  0  0  0  0  0  0  0  0  0
  193.4310  171.1570  140.9820 C   0  0  0  0  0  1  0  0  0  0  0  0
  189.9970  174.5910  145.6860 O   0  0  0  0  0  0  0  0  0  0  0  0
  191.8010  177.4470  147.9550 O   0  0  0  0  0  0  0  0  0  0  0  0
  191.0500  174.3750  144.7810 C   0  0  2  0  0  3  0  0  0  0  0  0
  187.5200  177.2820  141.5810 C   0  0  0  0  0  2  0  0  0  0  0  0
  186.1810  179.0760  143.4890 C   0  0  0  0  0  3  0  0  0  0  0  0
  186.5580  177.7780  143.8720 C   0  0  0  0  0  0  0  0  0  0  0  0
  185.9510  177.2030  145.0010 C   0  0  0  0  0  3  0  0  0  0  0  0
  184.4070  177.3240  146.8880 N   0  0  0  0  0  1  0  0  0  0  0  0
  184.6510  179.2120  145.3580 C   0  0  0  0  0  3  0  0  0  0  0  0
  185.0070  177.9180  145.7430 C   0  0  0  0  0  0  0  0  0  0  0  0
  185.2360  179.7910  144.2300 C   0  0  0  0  0  3  0  0  0  0  0  0
  194.2600  176.3220  145.4720 C   0  0  0  0  0  1  0  0  0  0  0  0
  194.0690  175.6540  146.6830 O   0  0  0  0  0  0  0  0  0  0  0  0
  1  4  1  0  0  0  0
  2 24  1  0  0  0  0
  2 17  1  0  0  0  0
  4 37  1  1  0  0  0
  4 12  1  0  0  0  0
  5 19  1  0  0  0  0
  6  9  1  0  0  0  0
  7  3  1  1  0  0  0
  7 21  1  0  0  0  0
  7 10  1  0  0  0  0
  8 12  1  0  0  0  0
  8 26  2  0  0  0  0
  9  3  2  0  0  0  0
  9 13  1  0  0  0  0
 10  5  1  0  0  0  0
 11 16  1  0  0  0  0
 11  6  2  0  0  0  0
 13 17  1  0  0  0  0
 13 21  2  0  0  0  0
 14  2  1  0  0  0  0
 15 28  1  0  0  0  0
 16 20  2  0  0  0  0
 18  8  1  0  0  0  0
 19 18  1  1  0  0  0
 20 15  1  0  0  0  0
 20  3  1  0  0  0  0
 21 27  1  0  0  0  0
 22  6  1  0  0  0  0
 22  2  1  0  0  0  0
 23 10  2  0  0  0  0
 23 30  1  0  0  0  0
 25 19  1  0  0  0  0
 27  1  1  1  0  0  0
 27 25  1  0  0  0  0
 28 23  1  0  0  0  0
 29 30  2  0  0  0  0
 29 35  1  0  0  0  0
 30 31  1  0  0  0  0
 31 34  2  0  0  0  0
 33 34  1  0  0  0  0
 34 32  1  0  0  0  0
 35 33  2  0  0  0  0
 36 37  1  0  0  0  0
M  END
>  <MODEL>
5

>  <REMARK>
 VINA RESULT:      -8.6      3.437      8.241
  Name = 
  2 active torsions:
  status: ('A' for Active; 'I' for Inactive)
    1  A    between atoms: C_4  and  O_37
    2  A    between atoms: C_23  and  C_30
                            x       y       z     vdW  Elec       q    Type
                         _______ _______ _______ _____ _____    ______ ____

>  <TORSDO>
F 2

$$$$
=
 OpenBabel11112417163D

 37 43  0  0  1  0  0  0  0  0999 V2000
  194.3290  174.9370  143.6330 C   0  0  0  0  0  2  0  0  0  0  0  0
  193.6090  171.6390  139.9800 C   0  0  0  0  0  0  0  0  0  0  0  0
  190.2610  173.6700  141.6370 C   0  0  0  0  0  0  0  0  0  0  0  0
  195.4340  174.9720  144.7030 C   0  0  2  0  0  3  0  0  0  0  0  0
  190.6730  175.4570  144.9550 O   0  0  0  0  0  0  0  0  0  0  0  0
  191.0750  172.0640  139.9760 C   0  0  0  0  0  0  0  0  0  0  0  0
  190.7980  174.2680  142.7190 C   0  0  1  0  0  3  0  0  0  0  0  0
  194.0150  176.4190  146.2480 C   0  0  0  0  0  0  0  0  0  0  0  0
  191.2710  172.8860  140.9970 C   0  0  0  0  0  0  0  0  0  0  0  0
  190.0750  175.1470  143.7240 C   0  0  0  0  0  0  0  0  0  0  0  0
  189.6910  171.9530  139.3720 C   0  0  0  0  0  3  0  0  0  0  0  0
  194.9410  175.2390  146.1380 C   0  0  0  0  0  2  0  0  0  0  0  0
  192.4750  173.0030  141.7420 C   0  0  0  0  0  0  0  0  0  0  0  0
  194.0550  172.7560  139.0510 C   0  0  0  0  0  1  0  0  0  0  0  0
  187.7620  174.3360  141.7540 C   0  0  0  0  0  2  0  0  0  0  0  0
  188.6250  172.7840  140.0820 C   0  0  0  0  0  3  0  0  0  0  0  0
  193.6600  172.1360  141.4460 C   0  0  0  0  0  2  0  0  0  0  0  0
  192.5330  176.2020  146.3600 C   0  0  0  0  0  2  0  0  0  0  0  0
  192.0720  175.4480  145.1280 C   0  0  1  0  0  3  0  0  0  0  0  0
  188.8800  173.5930  141.1240 C   0  0  0  0  0  0  0  0  0  0  0  0
  192.2270  173.7790  142.7930 C   0  0  0  0  0  0  0  0  0  0  0  0
  192.1990  171.1450  139.5540 C   0  0  0  0  0  2  0  0  0  0  0  0
  188.8600  175.7090  143.4850 C   0  0  0  0  0  0  0  0  0  0  0  0
  194.5810  170.4890  139.8330 C   0  0  0  0  0  1  0  0  0  0  0  0
  192.5430  174.1320  145.1520 O   0  0  0  0  0  0  0  0  0  0  0  0
  194.4630  177.5540  146.2310 O   0  0  0  0  0  0  0  0  0  0  0  0
  193.2040  173.9210  143.9300 C   0  0  2  0  0  3  0  0  0  0  0  0
  188.2400  175.7200  142.1200 C   0  0  0  0  0  2  0  0  0  0  0  0
  188.2210  176.0410  145.8860 C   0  0  0  0  0  3  0  0  0  0  0  0
  188.1220  176.4480  144.5440 C   0  0  0  0  0  0  0  0  0  0  0  0
  187.3600  177.5880  144.2380 C   0  0  0  0  0  3  0  0  0  0  0  0
  185.9210  179.4390  144.9190 N   0  0  0  0  0  1  0  0  0  0  0  0
  186.7910  177.8680  146.5740 C   0  0  0  0  0  3  0  0  0  0  0  0
  186.6940  178.2910  145.2460 C   0  0  0  0  0  0  0  0  0  0  0  0
  187.5560  176.7440  146.8940 C   0  0  0  0  0  3  0  0  0  0  0  0
  195.9900  176.3940  143.1010 C   0  0  0  0  0  1  0  0  0  0  0  0
  196.3990  175.9160  144.3470 O   0  0  0  0  0  0  0  0  0  0  0  0
  1  4  1  0  0  0  0
  2 17  1  0  0  0  0
  4 37  1  6  0  0  0
  4 12  1  0  0  0  0
  5 19  1  0  0  0  0
  6  9  1  0  0  0  0
  7  3  1  1  0  0  0
  7 21  1  0  0  0  0
  7 10  1  0  0  0  0
  8 18  1  0  0  0  0
  9  3  2  0  0  0  0
  9 13  1  0  0  0  0
 10  5  1  0  0  0  0
 11  6  2  0  0  0  0
 11 16  1  0  0  0  0
 12  8  1  0  0  0  0
 13 21  2  0  0  0  0
 14  2  1  0  0  0  0
 15 28  1  0  0  0  0
 16 20  2  0  0  0  0
 17 13  1  0  0  0  0
 19 25  1  0  0  0  0
 19 18  1  1  0  0  0
 20  3  1  0  0  0  0
 20 15  1  0  0  0  0
 21 27  1  0  0  0  0
 22  6  1  0  0  0  0
 22  2  1  0  0  0  0
 23 10  2  0  0  0  0
 23 30  1  0  0  0  0
 24  2  1  0  0  0  0
 26  8  2  0  0  0  0
 27  1  1  6  0  0  0
 27 25  1  0  0  0  0
 28 23  1  0  0  0  0
 29 35  1  0  0  0  0
 30 29  2  0  0  0  0
 31 30  1  0  0  0  0
 31 34  2  0  0  0  0
 32 34  1  0  0  0  0
 33 35  2  0  0  0  0
 34 33  1  0  0  0  0
 36 37  1  0  0  0  0
M  END
>  <MODEL>
6

>  <REMARK>
 VINA RESULT:      -8.4      3.264      7.815
  Name = 
  2 active torsions:
  status: ('A' for Active; 'I' for Inactive)
    1  A    between atoms: C_4  and  O_37
    2  A    between atoms: C_23  and  C_30
                            x       y       z     vdW  Elec       q    Type
                         _______ _______ _______ _____ _____    ______ ____

>  <TORSDO>
F 2

$$$$
=
 OpenBabel11112417163D

 37 43  0  0  1  0  0  0  0  0999 V2000
  190.8960  172.3080  141.3360 C   0  0  0  0  0  2  0  0  0  0  0  0
  194.6480  172.7620  144.5680 C   0  0  0  0  0  0  0  0  0  0  0  0
  191.2710  175.3190  144.9330 C   0  0  0  0  0  0  0  0  0  0  0  0
  190.9290  171.8360  139.8720 C   0  0  2  0  0  3  0  0  0  0  0  0
  188.8780  175.6040  142.0070 O   0  0  0  0  0  0  0  0  0  0  0  0
  193.4430  174.6420  145.8390 C   0  0  0  0  0  0  0  0  0  0  0  0
  190.6070  175.0790  143.7850 C   0  0  0  0  0  0  0  0  0  0  0  0
  188.7360  173.0220  139.3470 C   0  0  0  0  0  0  0  0  0  0  0  0
  192.4830  174.5610  144.9300 C   0  0  0  0  0  0  0  0  0  0  0  0
  189.3020  175.7140  143.3400 C   0  0  0  0  0  0  0  0  0  0  0  0
  193.2610  175.5640  147.0260 C   0  0  0  0  0  2  0  0  0  0  0  0
  190.1350  172.7130  138.8870 C   0  0  0  0  0  2  0  0  0  0  0  0
  192.5640  173.8400  143.7080 C   0  0  0  0  0  0  0  0  0  0  0  0
  194.0360  171.5550  145.2600 C   0  0  0  0  0  1  0  0  0  0  0  0
  189.8250  177.1200  146.1030 C   0  0  0  0  0  2  0  0  0  0  0  0
  191.9690  176.3770  147.0000 C   0  0  0  0  0  3  0  0  0  0  0  0
  193.8140  173.1160  143.3130 C   0  0  0  0  0  2  0  0  0  0  0  0
  188.4220  174.3610  139.9480 C   0  0  0  0  0  2  0  0  0  0  0  0
  189.2920  174.5430  141.1770 C   0  0  1  0  0  3  0  0  0  0  0  0
  191.0340  176.2610  146.0420 C   0  0  0  0  0  0  0  0  0  0  0  0
  191.4930  174.1510  142.9830 C   0  0  0  0  0  0  0  0  0  0  0  0
  194.7550  173.9370  145.5790 C   0  0  0  0  0  2  0  0  0  0  0  0
  188.4640  176.3690  144.1870 C   0  0  0  0  0  0  0  0  0  0  0  0
  196.0450  172.3890  144.1220 C   0  0  0  0  0  1  0  0  0  0  0  0
  190.6290  174.7160  140.8100 O   0  0  0  0  0  0  0  0  0  0  0  0
  187.8580  172.1800  139.2450 O   0  0  0  0  0  0  0  0  0  0  0  0
  191.3700  173.7660  141.5330 C   0  0  2  0  0  3  0  0  0  0  0  0
  188.6270  176.3080  145.6760 C   0  0  0  0  0  2  0  0  0  0  0  0
  186.4170  176.4930  142.7470 C   0  0  0  0  0  3  0  0  0  0  0  0
  187.2660  177.0970  143.6900 C   0  0  0  0  0  0  0  0  0  0  0  0
  186.9320  178.3680  144.1850 C   0  0  0  0  0  3  0  0  0  0  0  0
  185.4660  180.3200  144.2370 N   0  0  0  0  0  1  0  0  0  0  0  0
  184.9590  178.4240  142.7850 C   0  0  0  0  0  3  0  0  0  0  0  0
  185.7880  179.0300  143.7310 C   0  0  0  0  0  0  0  0  0  0  0  0
  185.2720  177.1550  142.2940 C   0  0  0  0  0  3  0  0  0  0  0  0
  191.6420  169.7560  139.6150 C   0  0  0  0  0  1  0  0  0  0  0  0
  190.4840  170.5140  139.7980 O   0  0  0  0  0  0  0  0  0  0  0  0
  2 14  1  0  0  0  0
  2 22  1  0  0  0  0
  3 20  1  0  0  0  0
  4 37  1  1  0  0  0
  4  1  1  0  0  0  0
  5 10  1  0  0  0  0
  6 11  1  0  0  0  0
  7  3  2  0  0  0  0
  8 18  1  0  0  0  0
  9  3  1  0  0  0  0
  9  6  2  0  0  0  0
 10  7  1  0  0  0  0
 10 23  2  0  0  0  0
 12  8  1  0  0  0  0
 12  4  1  0  0  0  0
 13  9  1  0  0  0  0
 16 11  1  0  0  0  0
 17 13  1  0  0  0  0
 17  2  1  0  0  0  0
 19 18  1  6  0  0  0
 19  5  1  0  0  0  0
 20 15  1  0  0  0  0
 20 16  2  0  0  0  0
 21 13  2  0  0  0  0
 21  7  1  0  0  0  0
 22  6  1  0  0  0  0
 23 28  1  0  0  0  0
 24  2  1  0  0  0  0
 25 19  1  0  0  0  0
 25 27  1  0  0  0  0
 26  8  2  0  0  0  0
 27  1  1  1  0  0  0
 27 21  1  0  0  0  0
 28 15  1  0  0  0  0
 29 30  1  0  0  0  0
 30 31  2  0  0  0  0
 30 23  1  0  0  0  0
 33 34  2  0  0  0  0
 34 31  1  0  0  0  0
 34 32  1  0  0  0  0
 35 29  2  0  0  0  0
 35 33  1  0  0  0  0
 36 37  1  0  0  0  0
M  END
>  <MODEL>
7

>  <REMARK>
 VINA RESULT:      -8.3      2.807      6.848
  Name = 
  2 active torsions:
  status: ('A' for Active; 'I' for Inactive)
    1  A    between atoms: C_4  and  O_37
    2  A    between atoms: C_23  and  C_30
                            x       y       z     vdW  Elec       q    Type
                         _______ _______ _______ _____ _____    ______ ____

>  <TORSDO>
F 2

$$$$
=
 OpenBabel11112417163D

 37 43  0  0  1  0  0  0  0  0999 V2000
  189.7950  174.2070  141.6360 C   0  0  0  0  0  2  0  0  0  0  0  0
  189.9470  175.5050  146.4340 C   0  0  0  0  0  0  0  0  0  0  0  0
  193.5410  175.5230  144.1620 C   0  0  0  0  0  0  0  0  0  0  0  0
  188.8330  173.2410  140.9230 C   0  0  2  0  0  3  0  0  0  0  0  0
  193.6010  173.7030  140.8360 O   0  0  0  0  0  0  0  0  0  0  0  0
  192.4740  175.9580  146.3230 C   0  0  0  0  0  0  0  0  0  0  0  0
  193.1620  174.9030  143.0250 C   0  0  0  0  0  0  0  0  0  0  0  0
  190.4790  172.8690  139.0140 C   0  0  0  0  0  0  0  0  0  0  0  0
  192.4330  175.5410  145.0660 C   0  0  0  0  0  0  0  0  0  0  0  0
  194.0330  174.6100  141.8170 C   0  0  0  0  0  0  0  0  0  0  0  0
  193.7680  176.5180  146.8740 C   0  0  0  0  0  2  0  0  0  0  0  0
  189.5070  172.2350  139.9720 C   0  0  0  0  0  2  0  0  0  0  0  0
  191.3350  174.8820  144.4500 C   0  0  0  0  0  0  0  0  0  0  0  0
  189.4270  176.8520  145.9590 C   0  0  0  0  0  1  0  0  0  0  0  0
  196.0560  176.0030  143.7790 C   0  0  0  0  0  2  0  0  0  0  0  0
  194.9410  176.4720  145.8980 C   0  0  0  0  0  3  0  0  0  0  0  0
  190.0940  174.5530  145.2230 C   0  0  0  0  0  2  0  0  0  0  0  0
  191.9550  172.7820  139.2770 C   0  0  0  0  0  2  0  0  0  0  0  0
  192.2350  173.4350  140.6160 C   0  0  1  0  0  3  0  0  0  0  0  0
  194.8440  176.0250  144.6340 C   0  0  0  0  0  0  0  0  0  0  0  0
  191.7370  174.4520  143.2580 C   0  0  0  0  0  0  0  0  0  0  0  0
  191.2770  175.7100  147.2120 C   0  0  0  0  0  2  0  0  0  0  0  0
  195.2260  175.2200  141.5920 C   0  0  0  0  0  0  0  0  0  0  0  0
  188.9260  174.9150  147.3820 C   0  0  0  0  0  1  0  0  0  0  0  0
  191.7270  172.6550  141.6590 O   0  0  0  0  0  0  0  0  0  0  0  0
  190.0710  173.4650  138.0310 O   0  0  0  0  0  0  0  0  0  0  0  0
  190.9140  173.5000  142.4320 C   0  0  2  0  0  3  0  0  0  0  0  0
  195.6730  176.4150  142.3790 C   0  0  0  0  0  2  0  0  0  0  0  0
  197.1200  173.8480  140.6890 C   0  0  0  0  0  3  0  0  0  0  0  0
  196.1140  174.8050  140.4730 C   0  0  0  0  0  0  0  0  0  0  0  0
  195.9340  175.3150  139.1760 C   0  0  0  0  0  3  0  0  0  0  0  0
  196.5660  175.4270  136.8200 N   0  0  0  0  0  1  0  0  0  0  0  0
  197.7600  173.9540  138.3580 C   0  0  0  0  0  3  0  0  0  0  0  0
  196.7560  174.8960  138.1260 C   0  0  0  0  0  0  0  0  0  0  0  0
  197.9410  173.4290  139.6390 C   0  0  0  0  0  3  0  0  0  0  0  0
  188.0610  175.2960  140.6310 C   0  0  0  0  0  1  0  0  0  0  0  0
  187.8630  173.9720  140.2330 O   0  0  0  0  0  0  0  0  0  0  0  0
  2 22  1  0  0  0  0
  2 24  1  0  0  0  0
  3 20  1  0  0  0  0
  3  9  1  0  0  0  0
  4 37  1  6  0  0  0
  4  1  1  0  0  0  0
  5 10  1  0  0  0  0
  6 11  1  0  0  0  0
  6 22  1  0  0  0  0
  7 21  1  0  0  0  0
  7  3  2  0  0  0  0
  8 18  1  0  0  0  0
  8 12  1  0  0  0  0
  9  6  2  0  0  0  0
 10  7  1  0  0  0  0
 12  4  1  0  0  0  0
 13  9  1  0  0  0  0
 13 17  1  0  0  0  0
 14  2  1  0  0  0  0
 15 20  1  0  0  0  0
 16 11  1  0  0  0  0
 17  2  1  0  0  0  0
 19 18  1  6  0  0  0
 19  5  1  0  0  0  0
 19 25  1  0  0  0  0
 20 16  2  0  0  0  0
 21 13  2  0  0  0  0
 23 10  2  0  0  0  0
 23 28  1  0  0  0  0
 25 27  1  0  0  0  0
 26  8  2  0  0  0  0
 27  1  1  6  0  0  0
 27 21  1  0  0  0  0
 28 15  1  0  0  0  0
 30 29  1  0  0  0  0
 30 23  1  0  0  0  0
 31 30  2  0  0  0  0
 32 34  1  0  0  0  0
 33 35  1  0  0  0  0
 34 33  2  0  0  0  0
 34 31  1  0  0  0  0
 35 29  2  0  0  0  0
 37 36  1  0  0  0  0
M  END
>  <MODEL>
8

>  <REMARK>
 VINA RESULT:      -8.1      3.471      4.572
  Name = 
  2 active torsions:
  status: ('A' for Active; 'I' for Inactive)
    1  A    between atoms: C_4  and  O_37
    2  A    between atoms: C_23  and  C_30
                            x       y       z     vdW  Elec       q    Type
                         _______ _______ _______ _____ _____    ______ ____

>  <TORSDO>
F 2

$$$$
=
 OpenBabel11112417163D

 37 43  0  0  1  0  0  0  0  0999 V2000
  193.6320  173.4510  144.4790 C   0  0  0  0  0  2  0  0  0  0  0  0
  191.1580  176.5410  147.4900 C   0  0  0  0  0  0  0  0  0  0  0  0
  189.3790  175.3530  143.8160 C   0  0  0  0  0  0  0  0  0  0  0  0
  195.1510  173.2770  144.3050 C   0  0  2  0  0  3  0  0  0  0  0  0
  191.5730  173.7750  141.1570 O   0  0  0  0  0  0  0  0  0  0  0  0
  189.1490  176.6330  145.8910 C   0  0  0  0  0  0  0  0  0  0  0  0
  190.4040  174.7430  143.1880 C   0  0  0  0  0  0  0  0  0  0  0  0
  194.8580  172.2630  141.9860 C   0  0  0  0  0  0  0  0  0  0  0  0
  189.8470  175.8680  145.0650 C   0  0  0  0  0  0  0  0  0  0  0  0
  190.3750  174.1050  141.8110 C   0  0  0  0  0  0  0  0  0  0  0  0
  187.7140  176.9730  145.5490 C   0  0  0  0  0  2  0  0  0  0  0  0
  195.6360  173.2220  142.8450 C   0  0  0  0  0  2  0  0  0  0  0  0
  191.2310  175.5690  145.1890 C   0  0  0  0  0  0  0  0  0  0  0  0
  190.8000  175.2910  148.2760 C   0  0  0  0  0  1  0  0  0  0  0  0
  187.4470  175.2110  142.0990 C   0  0  0  0  0  2  0  0  0  0  0  0
  187.2410  176.4290  144.2030 C   0  0  0  0  0  3  0  0  0  0  0  0
  192.0580  176.1560  146.2910 C   0  0  0  0  0  2  0  0  0  0  0  0
  193.8060  172.7810  141.0470 C   0  0  0  0  0  2  0  0  0  0  0  0
  192.7630  173.5160  141.8650 C   0  0  1  0  0  3  0  0  0  0  0  0
  188.0000  175.6660  143.3980 C   0  0  0  0  0  0  0  0  0  0  0  0
  191.6100  174.9400  144.0800 C   0  0  0  0  0  0  0  0  0  0  0  0
  189.8560  177.2740  147.0640 C   0  0  0  0  0  2  0  0  0  0  0  0
  189.2250  173.7800  141.1630 C   0  0  0  0  0  0  0  0  0  0  0  0
  191.9450  177.4590  148.4010 C   0  0  0  0  0  1  0  0  0  0  0  0
  193.2880  174.7090  142.3710 O   0  0  0  0  0  0  0  0  0  0  0  0
  195.0690  171.0640  142.0600 O   0  0  0  0  0  0  0  0  0  0  0  0
  193.0590  174.6910  143.7570 C   0  0  2  0  0  3  0  0  0  0  0  0
  187.8920  173.7920  141.8480 C   0  0  0  0  0  2  0  0  0  0  0  0
  188.9390  174.1640  138.7020 C   0  0  0  0  0  3  0  0  0  0  0  0
  189.2340  173.2870  139.7600 C   0  0  0  0  0  0  0  0  0  0  0  0
  189.5860  171.9600  139.4590 C   0  0  0  0  0  3  0  0  0  0  0  0
  189.9690  170.1670  137.8470 N   0  0  0  0  0  1  0  0  0  0  0  0
  189.3120  172.3950  137.0940 C   0  0  0  0  0  3  0  0  0  0  0  0
  189.6190  171.5150  138.1350 C   0  0  0  0  0  0  0  0  0  0  0  0
  188.9740  173.7200  137.3780 C   0  0  0  0  0  3  0  0  0  0  0  0
  194.4200  171.6480  145.6150 C   0  0  0  0  0  1  0  0  0  0  0  0
  195.5700  172.1340  144.9900 O   0  0  0  0  0  0  0  0  0  0  0  0
  2 14  1  0  0  0  0
  2 24  1  0  0  0  0
  3  9  1  0  0  0  0
  4  1  1  0  0  0  0
  4 37  1  6  0  0  0
  5 10  1  0  0  0  0
  5 19  1  0  0  0  0
  6 22  1  0  0  0  0
  7  3  2  0  0  0  0
  7 21  1  0  0  0  0
  8 26  2  0  0  0  0
  8 12  1  0  0  0  0
  9 13  1  0  0  0  0
  9  6  2  0  0  0  0
 10  7  1  0  0  0  0
 11  6  1  0  0  0  0
 12  4  1  0  0  0  0
 13 17  1  0  0  0  0
 15 20  1  0  0  0  0
 16 11  1  0  0  0  0
 17  2  1  0  0  0  0
 18  8  1  0  0  0  0
 19 18  1  6  0  0  0
 19 25  1  0  0  0  0
 20  3  1  0  0  0  0
 20 16  2  0  0  0  0
 21 13  2  0  0  0  0
 22  2  1  0  0  0  0
 23 10  2  0  0  0  0
 23 28  1  0  0  0  0
 25 27  1  0  0  0  0
 27 21  1  0  0  0  0
 27  1  1  6  0  0  0
 28 15  1  0  0  0  0
 29 30  1  0  0  0  0
 30 23  1  0  0  0  0
 31 30  2  0  0  0  0
 32 34  1  0  0  0  0
 33 35  1  0  0  0  0
 33 34  2  0  0  0  0
 34 31  1  0  0  0  0
 35 29  2  0  0  0  0
 37 36  1  0  0  0  0
M  END
>  <MODEL>
9

>  <REMARK>
 VINA RESULT:      -7.8      2.240      6.191
  Name = 
  2 active torsions:
  status: ('A' for Active; 'I' for Inactive)
    1  A    between atoms: C_4  and  O_37
    2  A    between atoms: C_23  and  C_30
                            x       y       z     vdW  Elec       q    Type
                         _______ _______ _______ _____ _____    ______ ____

>  <TORSDO>
F 2

$$$$
