=
 OpenBabel11112418023D

 34 40  0  0  1  0  0  0  0  0999 V2000
  189.5720  174.4860  142.5850 C   0  0  1  0  0  3  0  0  0  0  0  0
  191.7560  173.5230  142.9330 C   0  0  0  0  0  2  0  0  0  0  0  0
  185.2650  179.2150  144.3630 C   0  0  0  0  0  0  0  0  0  0  0  0
  187.4690  175.8940  142.4060 C   0  0  0  0  0  0  0  0  0  0  0  0
  186.6180  177.1080  144.3380 C   0  0  0  0  0  0  0  0  0  0  0  0
  185.8920  178.1550  146.5490 C   0  0  0  0  0  1  0  0  0  0  0  0
  185.7040  180.3220  144.7770 O   0  0  0  0  0  0  0  0  0  0  0  0
  184.1660  177.8700  142.5940 C   0  0  0  0  0  2  0  0  0  0  0  0
  190.5490  174.2770  144.7000 C   0  0  2  0  0  3  0  0  0  0  0  0
  191.9570  175.1490  147.4560 C   0  0  0  0  0  3  0  0  0  0  0  0
  187.6870  176.6530  145.0510 N   0  0  0  0  0  0  0  0  0  0  0  0
  185.4290  177.2560  142.0050 C   0  0  0  0  0  2  0  0  0  0  0  0
  189.8500  175.4670  145.3540 C   0  0  1  0  0  3  0  0  0  0  0  0
  192.6270  173.2550  144.1520 C   0  0  0  0  0  2  0  0  0  0  0  0
  186.4830  176.7300  142.9660 C   0  0  0  0  0  0  0  0  0  0  0  0
  184.4830  179.1620  143.1760 N   0  0  0  0  0  2  0  0  0  0  0  0
  192.5660  174.8780  146.1010 C   0  0  2  0  0  3  0  0  0  0  0  0
  188.5430  175.4380  143.1840 C   0  0  0  0  0  0  0  0  0  0  0  0
  185.5830  177.9340  145.0700 C   0  0  1  0  0  3  0  0  0  0  0  0
  188.6340  175.8320  144.5320 C   0  0  0  0  0  0  0  0  0  0  0  0
  188.4060  174.6540  140.4000 C   0  0  0  0  0  2  0  0  0  0  0  0
  190.6460  175.2860  147.7380 C   0  0  0  0  0  3  0  0  0  0  0  0
  187.4370  175.5650  141.0070 N   0  0  0  0  0  2  0  0  0  0  0  0
  189.4910  175.1080  146.7870 C   0  0  0  0  0  2  0  0  0  0  0  0
  191.8280  173.7630  145.3460 C   0  0  1  0  0  3  0  0  0  0  0  0
  189.7560  174.7820  141.0950 C   0  0  0  0  0  2  0  0  0  0  0  0
  190.8420  174.5890  143.3120 N   0  0  2  0  0  0  0  0  0  0  0  0
  193.9160  174.5540  146.2730 O   0  0  0  0  0  0  0  0  0  0  0  0
  194.5970  175.7620  146.1090 C   0  0  0  0  0  2  0  0  0  0  0  0
  196.2710  173.8570  143.5060 N   0  0  0  0  0  2  0  0  0  0  0  0
  195.0970  175.9470  143.6820 C   0  0  0  0  0  2  0  0  0  0  0  0
  195.6590  175.6140  145.0340 C   0  0  2  0  0  3  0  0  0  0  0  0
  195.8400  175.0250  142.7470 C   0  0  0  0  0  2  0  0  0  0  0  0
  196.0820  174.1690  144.9200 C   0  0  0  0  0  2  0  0  0  0  0  0
  1 26  1  6  0  0  0
  1 18  1  0  0  0  0
  1 27  1  0  0  0  0
  2 27  1  0  0  0  0
  2 14  1  0  0  0  0
  3  7  2  0  0  0  0
  3 19  1  0  0  0  0
  4 15  2  0  0  0  0
  4 18  1  0  0  0  0
  5 11  2  0  0  0  0
  5 19  1  0  0  0  0
  8 16  1  0  0  0  0
  9 25  1  0  0  0  0
  9 13  1  0  0  0  0
 10 22  2  0  0  0  0
 12  8  1  0  0  0  0
 12 15  1  0  0  0  0
 13 24  1  0  0  0  0
 14 25  1  0  0  0  0
 15  5  1  0  0  0  0
 16  3  1  0  0  0  0
 17 28  1  0  0  0  0
 17 10  1  0  0  0  0
 18 20  2  0  0  0  0
 19  6  1  0  0  0  0
 20 11  1  0  0  0  0
 20 13  1  0  0  0  0
 21 23  1  0  0  0  0
 21 26  1  0  0  0  0
 23  4  1  0  0  0  0
 24 22  1  0  0  0  0
 25 17  1  0  0  0  0
 27  9  1  0  0  0  0
 29 28  1  0  0  0  0
 30 34  1  0  0  0  0
 31 32  1  0  0  0  0
 32 29  1  0  0  0  0
 33 30  1  0  0  0  0
 33 31  1  0  0  0  0
 34 32  1  0  0  0  0
M  END
>  <MODEL>
1

>  <REMARK>
 VINA RESULT:      -8.1      0.000      0.000
  Name = 
  3 active torsions:
  status: ('A' for Active; 'I' for Inactive)
    1  A    between atoms: C_17  and  O_28
    2  A    between atoms: O_28  and  C_29
    3  A    between atoms: C_29  and  C_32
                            x       y       z     vdW  Elec       q    Type
                         _______ _______ _______ _____ _____    ______ ____

>  <TORSDO>
F 3

$$$$
=
 OpenBabel11112418023D

 34 40  0  0  1  0  0  0  0  0999 V2000
  189.5010  174.8610  142.0950 C   0  0  1  0  0  3  0  0  0  0  0  0
  187.2450  175.5710  142.5670 C   0  0  0  0  0  2  0  0  0  0  0  0
  195.3460  172.9690  144.6100 C   0  0  0  0  0  0  0  0  0  0  0  0
  191.8560  173.9200  142.0340 C   0  0  0  0  0  0  0  0  0  0  0  0
  193.4240  174.3770  143.8420 C   0  0  0  0  0  0  0  0  0  0  0  0
  194.8800  175.1290  145.7970 C   0  0  0  0  0  1  0  0  0  0  0  0
  195.3730  172.3680  145.7180 O   0  0  0  0  0  0  0  0  0  0  0  0
  195.5780  172.9270  142.1420 C   0  0  0  0  0  2  0  0  0  0  0  0
  188.9630  176.3020  143.8570 C   0  0  2  0  0  3  0  0  0  0  0  0
  188.4980  177.3110  146.8730 C   0  0  0  0  0  3  0  0  0  0  0  0
  192.4350  175.0700  144.4760 N   0  0  0  0  0  0  0  0  0  0  0  0
  194.0940  172.8610  141.8090 C   0  0  0  0  0  2  0  0  0  0  0  0
  190.1200  175.9190  144.7780 C   0  0  1  0  0  3  0  0  0  0  0  0
  186.6030  176.4790  143.6080 C   0  0  0  0  0  2  0  0  0  0  0  0
  193.1480  173.7710  142.5770 C   0  0  0  0  0  0  0  0  0  0  0  0
  195.8110  172.3130  143.4370 N   0  0  0  0  0  2  0  0  0  0  0  0
  187.5710  176.5570  145.9520 C   0  0  2  0  0  3  0  0  0  0  0  0
  190.8770  174.6560  142.7170 C   0  0  0  0  0  0  0  0  0  0  0  0
  194.7930  174.3540  144.4850 C   0  0  1  0  0  3  0  0  0  0  0  0
  191.1930  175.2380  143.9590 C   0  0  0  0  0  0  0  0  0  0  0  0
  190.1860  173.4240  140.1890 C   0  0  0  0  0  2  0  0  0  0  0  0
  189.8140  177.5370  146.6870 C   0  0  0  0  0  3  0  0  0  0  0  0
  191.4960  173.2480  140.8160 N   0  0  0  0  0  2  0  0  0  0  0  0
  190.6330  177.1690  145.4770 C   0  0  0  0  0  2  0  0  0  0  0  0
  187.7480  176.9710  144.4830 C   0  0  1  0  0  3  0  0  0  0  0  0
  189.1180  173.6400  141.2550 C   0  0  0  0  0  2  0  0  0  0  0  0
  188.5050  175.1250  143.1390 N   0  0  2  0  0  0  0  0  0  0  0  0
  186.2530  176.7660  146.3720 O   0  0  0  0  0  0  0  0  0  0  0  0
  186.2890  177.9770  147.0670 C   0  0  0  0  0  2  0  0  0  0  0  0
  184.8560  179.7910  144.2630 N   0  0  0  0  0  2  0  0  0  0  0  0
  184.1060  178.1990  145.9000 C   0  0  0  0  0  2  0  0  0  0  0  0
  185.2770  178.9420  146.4770 C   0  0  2  0  0  3  0  0  0  0  0  0
  183.6910  179.0410  144.7180 C   0  0  0  0  0  2  0  0  0  0  0  0
  185.8790  179.6660  145.2960 C   0  0  0  0  0  2  0  0  0  0  0  0
  1 26  1  1  0  0  0
  1 18  1  0  0  0  0
  1 27  1  0  0  0  0
  2 27  1  0  0  0  0
  2 14  1  0  0  0  0
  3  7  2  0  0  0  0
  4 15  2  0  0  0  0
  4 18  1  0  0  0  0
  5 11  2  0  0  0  0
  5 19  1  0  0  0  0
  8 16  1  0  0  0  0
  9 25  1  0  0  0  0
  9 13  1  0  0  0  0
 12  8  1  0  0  0  0
 12 15  1  0  0  0  0
 13 24  1  0  0  0  0
 14 25  1  0  0  0  0
 15  5  1  0  0  0  0
 16  3  1  0  0  0  0
 17 28  1  0  0  0  0
 17 10  1  0  0  0  0
 18 20  2  0  0  0  0
 19  3  1  0  0  0  0
 19  6  1  0  0  0  0
 20 11  1  0  0  0  0
 20 13  1  0  0  0  0
 21 23  1  0  0  0  0
 21 26  1  0  0  0  0
 22 10  2  0  0  0  0
 23  4  1  0  0  0  0
 24 22  1  0  0  0  0
 25 17  1  0  0  0  0
 27  9  1  0  0  0  0
 28 29  1  0  0  0  0
 30 33  1  0  0  0  0
 30 34  1  0  0  0  0
 31 32  1  0  0  0  0
 32 29  1  0  0  0  0
 33 31  1  0  0  0  0
 34 32  1  0  0  0  0
M  END
>  <MODEL>
2

>  <REMARK>
 VINA RESULT:      -8.1      1.844      7.933
  Name = 
  3 active torsions:
  status: ('A' for Active; 'I' for Inactive)
    1  A    between atoms: C_17  and  O_28
    2  A    between atoms: O_28  and  C_29
    3  A    between atoms: C_29  and  C_32
                            x       y       z     vdW  Elec       q    Type
                         _______ _______ _______ _____ _____    ______ ____

>  <TORSDO>
F 3

$$$$
=
 OpenBabel11112418023D

 34 40  0  0  1  0  0  0  0  0999 V2000
  189.6990  176.7870  146.3290 C   0  0  1  0  0  3  0  0  0  0  0  0
  187.4570  177.6740  146.2750 C   0  0  0  0  0  2  0  0  0  0  0  0
  195.3690  175.8750  143.0000 C   0  0  0  0  0  0  0  0  0  0  0  0
  192.1400  176.1660  146.0340 C   0  0  0  0  0  0  0  0  0  0  0  0
  193.0240  175.6060  143.8340 C   0  0  0  0  0  0  0  0  0  0  0  0
  193.6330  174.9410  141.4480 C   0  0  0  0  0  1  0  0  0  0  0  0
  195.7050  176.7100  142.1170 O   0  0  0  0  0  0  0  0  0  0  0  0
  195.6900  174.8870  145.2510 C   0  0  0  0  0  2  0  0  0  0  0  0
  188.3170  176.6390  144.4480 C   0  0  2  0  0  3  0  0  0  0  0  0
  187.1970  177.2270  141.4920 C   0  0  0  0  0  3  0  0  0  0  0  0
  191.7900  175.8630  143.3130 N   0  0  0  0  0  0  0  0  0  0  0  0
  194.5690  175.6390  145.9540 C   0  0  0  0  0  2  0  0  0  0  0  0
  189.4250  176.6170  143.3960 C   0  0  1  0  0  3  0  0  0  0  0  0
  186.3490  177.7240  145.2310 C   0  0  0  0  0  2  0  0  0  0  0  0
  193.2310  175.7570  145.2400 C   0  0  0  0  0  0  0  0  0  0  0  0
  196.1900  175.6860  144.1450 N   0  0  0  0  0  2  0  0  0  0  0  0
  186.9620  177.9750  142.7820 C   0  0  2  0  0  3  0  0  0  0  0  0
  190.8860  176.4020  145.4540 C   0  0  0  0  0  0  0  0  0  0  0  0
  194.0940  175.0960  142.8940 C   0  0  1  0  0  3  0  0  0  0  0  0
  190.7260  176.2380  144.0660 C   0  0  0  0  0  0  0  0  0  0  0  0
  191.2020  176.7980  148.3050 C   0  0  0  0  0  2  0  0  0  0  0  0
  188.1120  176.2620  141.2740 C   0  0  0  0  0  3  0  0  0  0  0  0
  192.3180  176.4300  147.4360 N   0  0  0  0  0  2  0  0  0  0  0  0
  189.0410  175.6480  142.2900 C   0  0  0  0  0  2  0  0  0  0  0  0
  186.9180  177.0360  143.9970 C   0  0  1  0  0  3  0  0  0  0  0  0
  190.1750  177.6120  147.5270 C   0  0  0  0  0  2  0  0  0  0  0  0
  188.7010  177.5170  145.5390 N   0  0  2  0  0  0  0  0  0  0  0  0
  185.7710  178.6990  142.6700 O   0  0  0  0  0  0  0  0  0  0  0  0
  185.2020  178.2660  141.4700 C   0  0  0  0  0  2  0  0  0  0  0  0
  181.7990  179.0350  142.4880 N   0  0  0  0  0  2  0  0  0  0  0  0
  182.9100  178.2380  140.5110 C   0  0  0  0  0  2  0  0  0  0  0  0
  183.7540  177.8720  141.6980 C   0  0  2  0  0  3  0  0  0  0  0  0
  181.5740  178.5960  141.1160 C   0  0  0  0  0  2  0  0  0  0  0  0
  183.1710  178.6770  142.8350 C   0  0  0  0  0  2  0  0  0  0  0  0
  1 26  1  1  0  0  0
  3 16  1  0  0  0  0
  4 23  1  0  0  0  0
  5 15  1  0  0  0  0
  6 19  1  0  0  0  0
  7  3  2  0  0  0  0
  8 12  1  0  0  0  0
  9 27  1  0  0  0  0
 10 17  1  0  0  0  0
 11  5  2  0  0  0  0
 11 20  1  0  0  0  0
 13 20  1  0  0  0  0
 13  9  1  0  0  0  0
 14  2  1  0  0  0  0
 15 12  1  0  0  0  0
 15  4  2  0  0  0  0
 16  8  1  0  0  0  0
 17 25  1  0  0  0  0
 18  4  1  0  0  0  0
 18  1  1  0  0  0  0
 19  3  1  0  0  0  0
 19  5  1  0  0  0  0
 20 18  2  0  0  0  0
 22 10  2  0  0  0  0
 22 24  1  0  0  0  0
 23 21  1  0  0  0  0
 24 13  1  0  0  0  0
 25  9  1  0  0  0  0
 25 14  1  0  0  0  0
 26 21  1  0  0  0  0
 27  2  1  0  0  0  0
 27  1  1  0  0  0  0
 28 17  1  0  0  0  0
 29 32  1  0  0  0  0
 29 28  1  0  0  0  0
 30 34  1  0  0  0  0
 31 33  1  0  0  0  0
 31 32  1  0  0  0  0
 32 34  1  0  0  0  0
 33 30  1  0  0  0  0
M  END
>  <MODEL>
3

>  <REMARK>
 VINA RESULT:      -8.0      2.021      8.975
  Name = 
  3 active torsions:
  status: ('A' for Active; 'I' for Inactive)
    1  A    between atoms: C_17  and  O_28
    2  A    between atoms: O_28  and  C_29
    3  A    between atoms: C_29  and  C_32
                            x       y       z     vdW  Elec       q    Type
                         _______ _______ _______ _____ _____    ______ ____

>  <TORSDO>
F 3

$$$$
=
 OpenBabel11112418023D

 34 40  0  0  1  0  0  0  0  0999 V2000
  192.2920  176.0060  145.2360 C   0  0  1  0  0  3  0  0  0  0  0  0
  190.3980  177.1170  146.2340 C   0  0  0  0  0  2  0  0  0  0  0  0
  195.4940  174.5000  139.6190 C   0  0  0  0  0  0  0  0  0  0  0  0
  194.2110  175.1380  143.8220 C   0  0  0  0  0  0  0  0  0  0  0  0
  193.8480  174.4770  141.5050 C   0  0  0  0  0  0  0  0  0  0  0  0
  193.1470  173.7370  139.1670 C   0  0  0  0  0  1  0  0  0  0  0  0
  195.4230  175.2910  138.6400 O   0  0  0  0  0  0  0  0  0  0  0  0
  196.7940  173.5000  141.4780 C   0  0  0  0  0  2  0  0  0  0  0  0
  190.1570  175.9870  144.2800 C   0  0  2  0  0  3  0  0  0  0  0  0
  187.7850  176.6670  142.2190 C   0  0  0  0  0  3  0  0  0  0  0  0
  192.5450  174.8540  141.6390 N   0  0  0  0  0  0  0  0  0  0  0  0
  196.2310  174.3660  142.5960 C   0  0  0  0  0  2  0  0  0  0  0  0
  190.6000  175.8460  142.8250 C   0  0  1  0  0  3  0  0  0  0  0  0
  188.9290  177.2720  145.8630 C   0  0  0  0  0  2  0  0  0  0  0  0
  194.7310  174.6150  142.6210 C   0  0  0  0  0  0  0  0  0  0  0  0
  196.7520  174.2360  140.2270 N   0  0  0  0  0  2  0  0  0  0  0  0
  188.2800  177.4430  143.4160 C   0  0  2  0  0  3  0  0  0  0  0  0
  192.8590  175.4970  143.9160 C   0  0  0  0  0  0  0  0  0  0  0  0
  194.2710  173.8550  140.1930 C   0  0  1  0  0  3  0  0  0  0  0  0
  192.0240  175.3410  142.7930 C   0  0  0  0  0  0  0  0  0  0  0  0
  194.5670  175.8770  146.2230 C   0  0  0  0  0  2  0  0  0  0  0  0
  188.3890  175.6130  141.6370 C   0  0  0  0  0  3  0  0  0  0  0  0
  195.0760  175.3920  144.9420 N   0  0  0  0  0  2  0  0  0  0  0  0
  189.6400  174.9130  142.1020 C   0  0  0  0  0  2  0  0  0  0  0  0
  188.7570  176.5220  144.5480 C   0  0  1  0  0  3  0  0  0  0  0  0
  193.3640  176.7860  146.0010 C   0  0  0  0  0  2  0  0  0  0  0  0
  191.1020  176.8290  144.9940 N   0  0  2  0  0  0  0  0  0  0  0  0
  187.2540  178.2850  143.8590 O   0  0  0  0  0  0  0  0  0  0  0  0
  186.0960  177.5050  143.7860 C   0  0  0  0  0  2  0  0  0  0  0  0
  185.3440  177.4780  147.3420 N   0  0  0  0  0  2  0  0  0  0  0  0
  185.5740  179.1200  145.6020 C   0  0  0  0  0  2  0  0  0  0  0  0
  185.1890  177.8160  144.9630 C   0  0  2  0  0  3  0  0  0  0  0  0
  185.2700  178.9070  147.0640 C   0  0  0  0  0  2  0  0  0  0  0  0
  185.3860  176.7910  146.0540 C   0  0  0  0  0  2  0  0  0  0  0  0
  1 26  1  6  0  0  0
  3 19  1  0  0  0  0
  3 16  1  0  0  0  0
  4 18  1  0  0  0  0
  4 23  1  0  0  0  0
  5 11  2  0  0  0  0
  5 15  1  0  0  0  0
  6 19  1  0  0  0  0
  7  3  2  0  0  0  0
  8 12  1  0  0  0  0
  9 25  1  0  0  0  0
  9 27  1  0  0  0  0
 10 17  1  0  0  0  0
 11 20  1  0  0  0  0
 12 15  1  0  0  0  0
 13  9  1  0  0  0  0
 14  2  1  0  0  0  0
 15  4  2  0  0  0  0
 16  8  1  0  0  0  0
 17 28  1  0  0  0  0
 17 25  1  0  0  0  0
 18  1  1  0  0  0  0
 19  5  1  0  0  0  0
 20 13  1  0  0  0  0
 20 18  2  0  0  0  0
 22 24  1  0  0  0  0
 22 10  2  0  0  0  0
 23 21  1  0  0  0  0
 24 13  1  0  0  0  0
 25 14  1  0  0  0  0
 26 21  1  0  0  0  0
 27  1  1  0  0  0  0
 27  2  1  0  0  0  0
 29 28  1  0  0  0  0
 29 32  1  0  0  0  0
 31 33  1  0  0  0  0
 32 31  1  0  0  0  0
 32 34  1  0  0  0  0
 33 30  1  0  0  0  0
 34 30  1  0  0  0  0
M  END
>  <MODEL>
4

>  <REMARK>
 VINA RESULT:      -7.8      2.477      8.610
  Name = 
  3 active torsions:
  status: ('A' for Active; 'I' for Inactive)
    1  A    between atoms: C_17  and  O_28
    2  A    between atoms: O_28  and  C_29
    3  A    between atoms: C_29  and  C_32
                            x       y       z     vdW  Elec       q    Type
                         _______ _______ _______ _____ _____    ______ ____

>  <TORSDO>
F 3

$$$$
=
 OpenBabel11112418023D

 34 40  0  0  1  0  0  0  0  0999 V2000
  190.8660  173.8160  141.1700 C   0  0  1  0  0  3  0  0  0  0  0  0
  188.5310  174.1000  141.7040 C   0  0  0  0  0  2  0  0  0  0  0  0
  197.1350  174.4980  143.2440 C   0  0  0  0  0  0  0  0  0  0  0  0
  193.3830  173.5130  141.0840 C   0  0  0  0  0  0  0  0  0  0  0  0
  194.8580  174.9960  142.3330 C   0  0  0  0  0  0  0  0  0  0  0  0
  196.1510  176.7740  143.6270 C   0  0  0  0  0  1  0  0  0  0  0  0
  197.3900  174.4030  144.4750 O   0  0  0  0  0  0  0  0  0  0  0  0
  197.2340  173.5510  140.9550 C   0  0  0  0  0  2  0  0  0  0  0  0
  190.0460  175.6600  142.3530 C   0  0  2  0  0  3  0  0  0  0  0  0
  189.4830  177.6270  144.8330 C   0  0  0  0  0  3  0  0  0  0  0  0
  193.7520  175.6270  142.8200 N   0  0  0  0  0  0  0  0  0  0  0  0
  195.8120  173.0120  140.9070 C   0  0  0  0  0  2  0  0  0  0  0  0
  191.3120  175.9530  143.1550 C   0  0  1  0  0  3  0  0  0  0  0  0
  187.7200  175.1620  142.4320 C   0  0  0  0  0  2  0  0  0  0  0  0
  194.6930  173.8980  141.4330 C   0  0  0  0  0  0  0  0  0  0  0  0
  197.7000  173.5660  142.3310 N   0  0  0  0  0  2  0  0  0  0  0  0
  188.7540  176.3760  144.4050 C   0  0  2  0  0  3  0  0  0  0  0  0
  192.2770  174.2030  141.5990 C   0  0  0  0  0  0  0  0  0  0  0  0
  196.2120  175.5510  142.7150 C   0  0  1  0  0  3  0  0  0  0  0  0
  192.4850  175.2810  142.4800 C   0  0  0  0  0  0  0  0  0  0  0  0
  191.8200  171.9560  139.8310 C   0  0  0  0  0  2  0  0  0  0  0  0
  190.6710  178.0660  144.3720 C   0  0  0  0  0  3  0  0  0  0  0  0
  193.1580  172.3540  140.2640 N   0  0  0  0  0  2  0  0  0  0  0  0
  191.4930  177.4590  143.2640 C   0  0  0  0  0  2  0  0  0  0  0  0
  188.7280  176.2130  142.8780 C   0  0  1  0  0  3  0  0  0  0  0  0
  190.7940  172.3120  140.9010 C   0  0  0  0  0  2  0  0  0  0  0  0
  189.8950  174.2240  142.1910 N   0  0  2  0  0  0  0  0  0  0  0  0
  187.4550  176.4160  144.9230 O   0  0  0  0  0  0  0  0  0  0  0  0
  187.6240  176.4110  146.3100 C   0  0  0  0  0  2  0  0  0  0  0  0
  185.2930  179.0000  147.3440 N   0  0  0  0  0  2  0  0  0  0  0  0
  185.2370  177.0190  145.9840 C   0  0  0  0  0  2  0  0  0  0  0  0
  186.3430  176.8630  146.9870 C   0  0  2  0  0  3  0  0  0  0  0  0
  184.4200  178.1680  146.5240 C   0  0  0  0  0  2  0  0  0  0  0  0
  186.5230  178.2460  147.5660 C   0  0  0  0  0  2  0  0  0  0  0  0
  1 26  1  1  0  0  0
  1 18  1  0  0  0  0
  1 27  1  0  0  0  0
  2 27  1  0  0  0  0
  2 14  1  0  0  0  0
  3  7  2  0  0  0  0
  4 15  2  0  0  0  0
  4 18  1  0  0  0  0
  5 19  1  0  0  0  0
  5 11  2  0  0  0  0
  8 16  1  0  0  0  0
  9 25  1  0  0  0  0
  9 13  1  0  0  0  0
 12  8  1  0  0  0  0
 12 15  1  0  0  0  0
 13 24  1  0  0  0  0
 14 25  1  0  0  0  0
 15  5  1  0  0  0  0
 16  3  1  0  0  0  0
 17 10  1  0  0  0  0
 17 28  1  0  0  0  0
 18 20  2  0  0  0  0
 19  3  1  0  0  0  0
 19  6  1  0  0  0  0
 20 11  1  0  0  0  0
 20 13  1  0  0  0  0
 21 23  1  0  0  0  0
 21 26  1  0  0  0  0
 22 10  2  0  0  0  0
 23  4  1  0  0  0  0
 24 22  1  0  0  0  0
 25 17  1  0  0  0  0
 27  9  1  0  0  0  0
 28 29  1  0  0  0  0
 29 32  1  0  0  0  0
 30 34  1  0  0  0  0
 31 33  1  0  0  0  0
 31 32  1  0  0  0  0
 32 34  1  0  0  0  0
 33 30  1  0  0  0  0
M  END
>  <MODEL>
5

>  <REMARK>
 VINA RESULT:      -7.7      2.592      8.292
  Name = 
  3 active torsions:
  status: ('A' for Active; 'I' for Inactive)
    1  A    between atoms: C_17  and  O_28
    2  A    between atoms: O_28  and  C_29
    3  A    between atoms: C_29  and  C_32
                            x       y       z     vdW  Elec       q    Type
                         _______ _______ _______ _____ _____    ______ ____

>  <TORSDO>
F 3

$$$$
=
 OpenBabel11112418023D

 34 40  0  0  1  0  0  0  0  0999 V2000
  192.3980  175.9790  145.4520 C   0  0  1  0  0  3  0  0  0  0  0  0
  190.6450  177.5400  144.8970 C   0  0  0  0  0  2  0  0  0  0  0  0
  195.6450  170.4580  143.7070 C   0  0  0  0  0  0  0  0  0  0  0  0
  194.2360  174.2360  145.5680 C   0  0  0  0  0  0  0  0  0  0  0  0
  193.9090  172.0180  144.6130 C   0  0  0  0  0  0  0  0  0  0  0  0
  193.2370  169.7530  143.6530 C   0  0  0  0  0  1  0  0  0  0  0  0
  195.7540  170.1690  142.4850 O   0  0  0  0  0  0  0  0  0  0  0  0
  196.6640  171.2540  145.8220 C   0  0  0  0  0  2  0  0  0  0  0  0
  190.3450  175.3180  144.5470 C   0  0  2  0  0  3  0  0  0  0  0  0
  188.2300  174.2210  142.3880 C   0  0  0  0  0  3  0  0  0  0  0  0
  192.6750  172.4190  144.1960 N   0  0  0  0  0  0  0  0  0  0  0  0
  196.1790  172.6940  145.7410 C   0  0  0  0  0  2  0  0  0  0  0  0
  190.8430  174.0590  143.8400 C   0  0  1  0  0  3  0  0  0  0  0  0
  189.2420  177.4150  144.3180 C   0  0  0  0  0  2  0  0  0  0  0  0
  194.7370  172.9410  145.3250 C   0  0  0  0  0  0  0  0  0  0  0  0
  196.8090  170.7160  144.4810 N   0  0  0  0  0  2  0  0  0  0  0  0
  188.7690  175.6170  142.5920 C   0  0  2  0  0  3  0  0  0  0  0  0
  192.9540  174.5960  145.1330 C   0  0  0  0  0  0  0  0  0  0  0  0
  194.3050  170.5800  144.3650 C   0  0  1  0  0  3  0  0  0  0  0  0
  192.1710  173.6550  144.4380 C   0  0  0  0  0  0  0  0  0  0  0  0
  194.5640  176.5680  146.5130 C   0  0  0  0  0  2  0  0  0  0  0  0
  188.6950  173.0870  142.9490 C   0  0  0  0  0  3  0  0  0  0  0  0
  195.0650  175.2330  146.1900 N   0  0  0  0  0  2  0  0  0  0  0  0
  189.7930  172.9670  143.9730 C   0  0  0  0  0  2  0  0  0  0  0  0
  189.0320  175.9260  144.0740 C   0  0  1  0  0  3  0  0  0  0  0  0
  193.5320  177.0060  145.4800 C   0  0  0  0  0  2  0  0  0  0  0  0
  191.3660  176.3490  144.4770 N   0  0  2  0  0  0  0  0  0  0  0  0
  187.8620  176.5310  142.0460 O   0  0  0  0  0  0  0  0  0  0  0  0
  186.6030  176.0370  142.3940 C   0  0  0  0  0  2  0  0  0  0  0  0
  185.5610  178.6400  144.7060 N   0  0  0  0  0  2  0  0  0  0  0  0
  186.3000  178.5030  142.4230 C   0  0  0  0  0  2  0  0  0  0  0  0
  185.6900  177.1820  142.7940 C   0  0  2  0  0  3  0  0  0  0  0  0
  185.8320  179.4350  143.5130 C   0  0  0  0  0  2  0  0  0  0  0  0
  185.5590  177.2390  144.2970 C   0  0  0  0  0  2  0  0  0  0  0  0
  1 26  1  6  0  0  0
  3 19  1  0  0  0  0
  3 16  1  0  0  0  0
  4 23  1  0  0  0  0
  5 15  2  0  0  0  0
  6 19  1  0  0  0  0
  7  3  2  0  0  0  0
 10 17  1  0  0  0  0
 10 22  2  0  0  0  0
 11 20  2  0  0  0  0
 11  5  1  0  0  0  0
 12  8  1  0  0  0  0
 13 24  1  0  0  0  0
 13 20  1  0  0  0  0
 13  9  1  0  0  0  0
 14  2  1  0  0  0  0
 15  4  1  0  0  0  0
 15 12  1  0  0  0  0
 16  8  1  0  0  0  0
 17 25  1  0  0  0  0
 18  1  1  0  0  0  0
 18  4  2  0  0  0  0
 19  5  1  0  0  0  0
 20 18  1  0  0  0  0
 22 24  1  0  0  0  0
 23 21  1  0  0  0  0
 25 14  1  0  0  0  0
 25  9  1  0  0  0  0
 26 21  1  0  0  0  0
 27  9  1  0  0  0  0
 27  2  1  0  0  0  0
 27  1  1  0  0  0  0
 28 29  1  0  0  0  0
 28 17  1  0  0  0  0
 29 32  1  0  0  0  0
 31 32  1  0  0  0  0
 31 33  1  0  0  0  0
 32 34  1  0  0  0  0
 33 30  1  0  0  0  0
 34 30  1  0  0  0  0
M  END
>  <MODEL>
6

>  <REMARK>
 VINA RESULT:      -7.6      2.392      8.862
  Name = 
  3 active torsions:
  status: ('A' for Active; 'I' for Inactive)
    1  A    between atoms: C_17  and  O_28
    2  A    between atoms: O_28  and  C_29
    3  A    between atoms: C_29  and  C_32
                            x       y       z     vdW  Elec       q    Type
                         _______ _______ _______ _____ _____    ______ ____

>  <TORSDO>
F 3

$$$$
=
 OpenBabel11112418023D

 34 40  0  0  1  0  0  0  0  0999 V2000
  189.6200  175.0790  145.1010 C   0  0  1  0  0  3  0  0  0  0  0  0
  190.8860  173.0300  144.9700 C   0  0  0  0  0  2  0  0  0  0  0  0
  184.4390  178.5350  142.8040 C   0  0  0  0  0  0  0  0  0  0  0  0
  187.9320  176.9710  145.0550 C   0  0  0  0  0  0  0  0  0  0  0  0
  186.7060  177.4950  143.0160 C   0  0  0  0  0  0  0  0  0  0  0  0
  185.6770  177.8970  140.7170 C   0  0  0  0  0  1  0  0  0  0  0  0
  183.4230  177.9160  142.3880 O   0  0  0  0  0  0  0  0  0  0  0  0
  185.5360  179.9430  144.5250 C   0  0  0  0  0  2  0  0  0  0  0  0
  190.0600  173.9810  143.0820 C   0  0  2  0  0  3  0  0  0  0  0  0
  189.5190  172.2590  140.4220 C   0  0  0  0  0  3  0  0  0  0  0  0
  187.3360  176.4480  142.4110 N   0  0  0  0  0  0  0  0  0  0  0  0
  186.2880  178.8270  145.2370 C   0  0  0  0  0  2  0  0  0  0  0  0
  188.8180  174.4560  142.3310 C   0  0  1  0  0  3  0  0  0  0  0  0
  191.3280  172.1140  143.8370 C   0  0  0  0  0  2  0  0  0  0  0  0
  186.9970  177.7860  144.3860 C   0  0  0  0  0  0  0  0  0  0  0  0
  184.3280  179.4060  143.9230 N   0  0  0  0  0  2  0  0  0  0  0  0
  189.8060  171.7990  141.8320 C   0  0  2  0  0  3  0  0  0  0  0  0
  188.5660  175.9160  144.3850 C   0  0  0  0  0  0  0  0  0  0  0  0
  185.7830  178.3460  142.1730 C   0  0  1  0  0  3  0  0  0  0  0  0
  188.2520  175.6670  143.0360 C   0  0  0  0  0  0  0  0  0  0  0  0
  189.1910  176.3730  147.1750 C   0  0  0  0  0  2  0  0  0  0  0  0
  189.2190  173.5120  140.0280 C   0  0  0  0  0  3  0  0  0  0  0  0
  188.1870  177.1560  146.4580 N   0  0  0  0  0  2  0  0  0  0  0  0
  189.1930  174.7500  140.8870 C   0  0  0  0  0  2  0  0  0  0  0  0
  190.7740  172.7410  142.5640 C   0  0  1  0  0  3  0  0  0  0  0  0
  189.2810  174.9690  146.5890 C   0  0  0  0  0  2  0  0  0  0  0  0
  189.7260  173.7550  144.4780 N   0  0  2  0  0  0  0  0  0  0  0  0
  190.3190  170.4990  141.7830 O   0  0  0  0  0  0  0  0  0  0  0  0
  190.9820  170.4220  140.5560 C   0  0  0  0  0  2  0  0  0  0  0  0
  194.3670  170.3460  141.8750 N   0  0  0  0  0  2  0  0  0  0  0  0
  192.3810  169.0030  142.0400 C   0  0  0  0  0  2  0  0  0  0  0  0
  192.3300  169.7490  140.7380 C   0  0  2  0  0  3  0  0  0  0  0  0
  193.8200  169.1350  142.4750 C   0  0  0  0  0  2  0  0  0  0  0  0
  193.4170  170.7910  140.8600 C   0  0  0  0  0  2  0  0  0  0  0  0
  1 26  1  1  0  0  0
  3 16  1  0  0  0  0
  4 23  1  0  0  0  0
  5 15  2  0  0  0  0
  6 19  1  0  0  0  0
  7  3  2  0  0  0  0
  8 12  1  0  0  0  0
  9 27  1  0  0  0  0
 10 17  1  0  0  0  0
 11  5  1  0  0  0  0
 11 20  2  0  0  0  0
 13 20  1  0  0  0  0
 13  9  1  0  0  0  0
 14  2  1  0  0  0  0
 15  4  1  0  0  0  0
 15 12  1  0  0  0  0
 16  8  1  0  0  0  0
 17 25  1  0  0  0  0
 18  4  2  0  0  0  0
 18  1  1  0  0  0  0
 19  3  1  0  0  0  0
 19  5  1  0  0  0  0
 20 18  1  0  0  0  0
 22 10  2  0  0  0  0
 22 24  1  0  0  0  0
 23 21  1  0  0  0  0
 24 13  1  0  0  0  0
 25  9  1  0  0  0  0
 25 14  1  0  0  0  0
 26 21  1  0  0  0  0
 27  2  1  0  0  0  0
 27  1  1  0  0  0  0
 28 17  1  0  0  0  0
 29 32  1  0  0  0  0
 29 28  1  0  0  0  0
 30 33  1  0  0  0  0
 31 33  1  0  0  0  0
 32 34  1  0  0  0  0
 32 31  1  0  0  0  0
 34 30  1  0  0  0  0
M  END
>  <MODEL>
7

>  <REMARK>
 VINA RESULT:      -7.6      2.802      4.858
  Name = 
  3 active torsions:
  status: ('A' for Active; 'I' for Inactive)
    1  A    between atoms: C_17  and  O_28
    2  A    between atoms: O_28  and  C_29
    3  A    between atoms: C_29  and  C_32
                            x       y       z     vdW  Elec       q    Type
                         _______ _______ _______ _____ _____    ______ ____

>  <TORSDO>
F 3

$$$$
=
 OpenBabel11112418023D

 34 40  0  0  1  0  0  0  0  0999 V2000
  189.6230  174.9980  142.1120 C   0  0  1  0  0  3  0  0  0  0  0  0
  188.2120  176.7800  142.9200 C   0  0  0  0  0  2  0  0  0  0  0  0
  193.2710  169.6820  143.6940 C   0  0  0  0  0  0  0  0  0  0  0  0
  190.9810  172.9020  141.6680 C   0  0  0  0  0  0  0  0  0  0  0  0
  192.5320  172.0480  143.3420 C   0  0  0  0  0  0  0  0  0  0  0  0
  194.1650  171.4680  145.2130 C   0  0  0  0  0  1  0  0  0  0  0  0
  192.9490  168.9920  144.6990 O   0  0  0  0  0  0  0  0  0  0  0  0
  193.4190  169.9490  141.2340 C   0  0  0  0  0  2  0  0  0  0  0  0
  190.0420  176.1490  144.1050 C   0  0  2  0  0  3  0  0  0  0  0  0
  190.2760  176.6930  147.2650 C   0  0  0  0  0  3  0  0  0  0  0  0
  192.1400  173.0590  144.1690 N   0  0  0  0  0  0  0  0  0  0  0  0
  192.1750  170.8090  141.0580 C   0  0  0  0  0  2  0  0  0  0  0  0
  190.7620  175.0160  144.8340 C   0  0  1  0  0  3  0  0  0  0  0  0
  188.2300  177.6920  144.1390 C   0  0  0  0  0  2  0  0  0  0  0  0
  191.9460  171.9450  142.0420 C   0  0  0  0  0  0  0  0  0  0  0  0
  193.2570  169.0970  142.3990 N   0  0  0  0  0  2  0  0  0  0  0  0
  189.0760  176.7860  146.3530 C   0  0  2  0  0  3  0  0  0  0  0  0
  190.6230  173.9330  142.5480 C   0  0  0  0  0  0  0  0  0  0  0  0
  193.6330  171.1300  143.8230 C   0  0  1  0  0  3  0  0  0  0  0  0
  191.2280  173.9990  143.8170 C   0  0  0  0  0  0  0  0  0  0  0  0
  189.3250  173.7900  139.9630 C   0  0  0  0  0  2  0  0  0  0  0  0
  191.4730  176.1490  146.9700 C   0  0  0  0  0  3  0  0  0  0  0  0
  190.2880  172.7870  140.4140 N   0  0  0  0  0  2  0  0  0  0  0  0
  191.9140  175.5960  145.6390 C   0  0  0  0  0  2  0  0  0  0  0  0
  189.4530  177.2730  144.9460 C   0  0  1  0  0  3  0  0  0  0  0  0
  188.5930  174.3900  141.1580 C   0  0  0  0  0  2  0  0  0  0  0  0
  188.9770  175.5980  143.2850 N   0  0  2  0  0  0  0  0  0  0  0  0
  188.1330  177.6370  146.9380 O   0  0  0  0  0  0  0  0  0  0  0  0
  187.0950  176.7950  147.3440 C   0  0  0  0  0  2  0  0  0  0  0  0
  185.0630  179.4170  145.8580 N   0  0  0  0  0  2  0  0  0  0  0  0
  185.1920  177.0190  145.7610 C   0  0  0  0  0  2  0  0  0  0  0  0
  185.7560  177.4610  147.0800 C   0  0  2  0  0  3  0  0  0  0  0  0
  184.4540  178.2350  145.2590 C   0  0  0  0  0  2  0  0  0  0  0  0
  185.9410  178.9520  146.9280 C   0  0  0  0  0  2  0  0  0  0  0  0
  1 26  1  6  0  0  0
  1 18  1  0  0  0  0
  1 27  1  0  0  0  0
  2 27  1  0  0  0  0
  2 14  1  0  0  0  0
  3 19  1  0  0  0  0
  3  7  2  0  0  0  0
  4 15  2  0  0  0  0
  4 18  1  0  0  0  0
  5 19  1  0  0  0  0
  5 11  2  0  0  0  0
  8 16  1  0  0  0  0
  9 13  1  0  0  0  0
  9 25  1  0  0  0  0
 12  8  1  0  0  0  0
 12 15  1  0  0  0  0
 13 24  1  0  0  0  0
 14 25  1  0  0  0  0
 15  5  1  0  0  0  0
 16  3  1  0  0  0  0
 17 28  1  0  0  0  0
 17 10  1  0  0  0  0
 18 20  2  0  0  0  0
 19  6  1  0  0  0  0
 20 11  1  0  0  0  0
 20 13  1  0  0  0  0
 21 23  1  0  0  0  0
 21 26  1  0  0  0  0
 22 10  2  0  0  0  0
 23  4  1  0  0  0  0
 24 22  1  0  0  0  0
 25 17  1  0  0  0  0
 27  9  1  0  0  0  0
 28 29  1  0  0  0  0
 30 34  1  0  0  0  0
 31 32  1  0  0  0  0
 32 29  1  0  0  0  0
 33 31  1  0  0  0  0
 33 30  1  0  0  0  0
 34 32  1  0  0  0  0
M  END
>  <MODEL>
8

>  <REMARK>
 VINA RESULT:      -7.5      2.507      7.783
  Name = 
  3 active torsions:
  status: ('A' for Active; 'I' for Inactive)
    1  A    between atoms: C_17  and  O_28
    2  A    between atoms: O_28  and  C_29
    3  A    between atoms: C_29  and  C_32
                            x       y       z     vdW  Elec       q    Type
                         _______ _______ _______ _____ _____    ______ ____

>  <TORSDO>
F 3

$$$$
=
 OpenBabel11112418023D

 34 40  0  0  1  0  0  0  0  0999 V2000
  191.8710  174.7470  142.2450 C   0  0  1  0  0  3  0  0  0  0  0  0
  189.6210  175.5240  142.6290 C   0  0  0  0  0  2  0  0  0  0  0  0
  197.2620  171.8960  144.8700 C   0  0  0  0  0  0  0  0  0  0  0  0
  194.1590  173.6500  142.2220 C   0  0  0  0  0  0  0  0  0  0  0  0
  195.5280  173.5870  144.2360 C   0  0  0  0  0  0  0  0  0  0  0  0
  196.7860  173.7900  146.4460 C   0  0  0  0  0  1  0  0  0  0  0  0
  197.1240  171.0760  145.8170 O   0  0  0  0  0  0  0  0  0  0  0  0
  197.7780  172.3550  142.4890 C   0  0  0  0  0  2  0  0  0  0  0  0
  191.2160  175.8240  144.2150 C   0  0  2  0  0  3  0  0  0  0  0  0
  190.4600  176.2130  147.3160 C   0  0  0  0  0  3  0  0  0  0  0  0
  194.5140  174.2100  144.9010 N   0  0  0  0  0  0  0  0  0  0  0  0
  196.3420  172.4830  142.0000 C   0  0  0  0  0  2  0  0  0  0  0  0
  192.2330  175.1640  145.1440 C   0  0  1  0  0  3  0  0  0  0  0  0
  188.9150  176.2430  143.7710 C   0  0  0  0  0  2  0  0  0  0  0  0
  195.3680  173.2860  142.8480 C   0  0  0  0  0  0  0  0  0  0  0  0
  197.8220  171.4650  143.6360 N   0  0  0  0  0  2  0  0  0  0  0  0
  189.6050  175.7470  146.1620 C   0  0  2  0  0  3  0  0  0  0  0  0
  193.1510  174.3040  142.9450 C   0  0  0  0  0  0  0  0  0  0  0  0
  196.8090  173.3180  144.9940 C   0  0  1  0  0  3  0  0  0  0  0  0
  193.3530  174.5840  144.3090 C   0  0  0  0  0  0  0  0  0  0  0  0
  192.6910  173.6910  140.1530 C   0  0  0  0  0  2  0  0  0  0  0  0
  191.7990  176.3630  147.3170 C   0  0  0  0  0  3  0  0  0  0  0  0
  193.9050  173.2810  140.8560 N   0  0  0  0  0  2  0  0  0  0  0  0
  192.7320  176.1920  146.1460 C   0  0  0  0  0  2  0  0  0  0  0  0
  189.9770  176.4450  144.8450 C   0  0  1  0  0  3  0  0  0  0  0  0
  191.5190  173.7650  141.1250 C   0  0  0  0  0  2  0  0  0  0  0  0
  190.7770  174.8660  143.2150 N   0  0  2  0  0  0  0  0  0  0  0  0
  188.2610  175.9710  146.4810 O   0  0  0  0  0  0  0  0  0  0  0  0
  188.2110  177.3030  146.8990 C   0  0  0  0  0  2  0  0  0  0  0  0
  184.6020  177.1540  146.5030 N   0  0  0  0  0  2  0  0  0  0  0  0
  186.1900  178.5150  147.6880 C   0  0  0  0  0  2  0  0  0  0  0  0
  186.8840  177.9210  146.4960 C   0  0  2  0  0  3  0  0  0  0  0  0
  184.7250  178.3020  147.3940 C   0  0  0  0  0  2  0  0  0  0  0  0
  185.9400  176.8480  146.0090 C   0  0  0  0  0  2  0  0  0  0  0  0
  1 26  1  6  0  0  0
  1 18  1  0  0  0  0
  1 27  1  0  0  0  0
  2 27  1  0  0  0  0
  2 14  1  0  0  0  0
  3 19  1  0  0  0  0
  3  7  2  0  0  0  0
  4 15  2  0  0  0  0
  4 18  1  0  0  0  0
  5 11  2  0  0  0  0
  5 19  1  0  0  0  0
  8 16  1  0  0  0  0
  9 25  1  0  0  0  0
  9 13  1  0  0  0  0
 10 22  2  0  0  0  0
 12  8  1  0  0  0  0
 12 15  1  0  0  0  0
 13 24  1  0  0  0  0
 14 25  1  0  0  0  0
 15  5  1  0  0  0  0
 16  3  1  0  0  0  0
 17 28  1  0  0  0  0
 17 10  1  0  0  0  0
 18 20  2  0  0  0  0
 19  6  1  0  0  0  0
 20 11  1  0  0  0  0
 20 13  1  0  0  0  0
 21 23  1  0  0  0  0
 21 26  1  0  0  0  0
 23  4  1  0  0  0  0
 24 22  1  0  0  0  0
 25 17  1  0  0  0  0
 27  9  1  0  0  0  0
 28 29  1  0  0  0  0
 30 33  1  0  0  0  0
 32 29  1  0  0  0  0
 32 31  1  0  0  0  0
 33 31  1  0  0  0  0
 34 32  1  0  0  0  0
 34 30  1  0  0  0  0
M  END
>  <MODEL>
9

>  <REMARK>
 VINA RESULT:      -7.4      2.451      8.521
  Name = 
  3 active torsions:
  status: ('A' for Active; 'I' for Inactive)
    1  A    between atoms: C_17  and  O_28
    2  A    between atoms: O_28  and  C_29
    3  A    between atoms: C_29  and  C_32
                            x       y       z     vdW  Elec       q    Type
                         _______ _______ _______ _____ _____    ______ ____

>  <TORSDO>
F 3

$$$$
