=
 OpenBabel11112416383D

 32 37  0  0  1  0  0  0  0  0999 V2000
  184.4350  178.1620  144.5730 C   0  0  0  0  0  2  0  0  0  0  0  0
  189.3600  176.3230  144.2400 C   0  0  1  0  0  3  0  0  0  0  0  0
  189.1000  172.5760  141.0610 C   0  0  0  0  0  2  0  0  0  0  0  0
  190.3450  172.1340  141.8330 C   0  0  0  0  0  2  0  0  0  0  0  0
  190.9230  176.2350  146.1930 C   0  0  2  0  0  3  0  0  0  0  0  0
  192.1280  175.3920  146.6390 C   0  0  2  0  0  3  0  0  0  0  0  0
  187.2740  177.6950  144.3630 N   0  0  2  0  0  0  0  0  0  0  0  0
  187.9420  176.5070  142.2430 C   0  0  0  0  0  2  0  0  0  0  0  0
  193.9710  174.9080  145.1360 N   0  0  0  0  0  0  0  0  0  0  0  0
  185.6000  177.2140  142.5960 C   0  0  0  0  0  2  0  0  0  0  0  0
  188.3320  173.6910  141.7830 C   0  0  0  0  0  2  0  0  0  0  0  0
  188.4550  175.5280  143.2970 C   0  0  1  0  0  3  0  0  0  0  0  0
  189.2050  174.4090  142.7180 N   0  0  1  0  0  0  0  0  0  0  0  0
  190.4170  174.1220  144.8830 C   0  0  1  0  0  3  0  0  0  0  0  0
  194.4780  175.6900  146.2530 C   0  0  0  0  0  2  0  0  0  0  0  0
  185.4390  179.0140  145.3510 C   0  0  0  0  0  2  0  0  0  0  0  0
  187.0540  177.5780  142.9020 C   0  0  1  0  0  3  0  0  0  0  0  0
  193.2900  176.2970  146.9650 C   0  0  0  0  0  2  0  0  0  0  0  0
  186.8450  179.0310  144.7510 C   0  0  0  0  0  2  0  0  0  0  0  0
  184.6110  178.2760  143.0620 C   0  0  1  0  0  3  0  0  0  0  0  0
  190.0900  172.1340  143.3390 C   0  0  0  0  0  2  0  0  0  0  0  0
  189.5120  173.4780  143.8230 C   0  0  2  0  0  3  0  0  0  0  0  0
  191.7740  174.3280  144.3890 N   0  0  0  0  0  2  0  0  0  0  0  0
  188.7030  177.6390  144.6900 C   0  0  0  0  0  2  0  0  0  0  0  0
  190.3400  176.8530  147.3000 O   0  0  0  0  0  1  0  0  0  0  0  0
  194.8270  173.7410  145.0160 C   0  0  0  0  0  1  0  0  0  0  0  0
  189.8500  175.4560  145.4080 C   0  0  2  0  0  3  0  0  0  0  0  0
  192.6580  174.4370  145.5530 C   0  0  2  0  0  3  0  0  0  0  0  0
  183.3330  178.0500  142.4040 N   0  0  0  0  0  2  0  0  0  0  0  0
  183.1300  178.2970  141.0110 C   0  0  0  0  0  0  0  0  0  0  0  0
  184.0760  178.7040  140.2870 O   0  0  0  0  0  0  0  0  0  0  0  0
  181.7910  178.0640  140.4130 C   0  0  0  0  0  1  0  0  0  0  0  0
  1 16  1  0  0  0  0
  2 24  1  1  0  0  0
  2 27  1  0  0  0  0
  3 11  1  0  0  0  0
  3  4  1  0  0  0  0
  4 21  1  0  0  0  0
  5  6  1  0  0  0  0
  5 25  1  1  0  0  0
  6 18  1  6  0  0  0
  7 24  1  6  0  0  0
  7 19  1  0  0  0  0
  9 28  1  0  0  0  0
  9 15  1  0  0  0  0
 10 17  1  0  0  0  0
 10 20  1  0  0  0  0
 12  8  1  6  0  0  0
 12  2  1  0  0  0  0
 13 11  1  6  0  0  0
 13 12  1  0  0  0  0
 13 22  1  0  0  0  0
 14 23  1  6  0  0  0
 14 27  1  0  0  0  0
 15 18  1  0  0  0  0
 17  8  1  1  0  0  0
 17  7  1  0  0  0  0
 19 16  1  0  0  0  0
 20 29  1  6  0  0  0
 20  1  1  0  0  0  0
 22 21  1  6  0  0  0
 22 14  1  0  0  0  0
 23 28  1  0  0  0  0
 26  9  1  0  0  0  0
 27  5  1  0  0  0  0
 28  6  1  0  0  0  0
 30 29  1  0  0  0  0
 31 30  2  0  0  0  0
 32 30  1  0  0  0  0
M  END
>  <MODEL>
1

>  <REMARK>
 VINA RESULT:      -9.0      0.000      0.000
  Name = 
  1 active torsions:
  status: ('A' for Active; 'I' for Inactive)
    1  A    between atoms: C_20  and  N_29
                            x       y       z     vdW  Elec       q    Type
                         _______ _______ _______ _____ _____    ______ ____

>  <TORSDO>
F 1

$$$$
=
 OpenBabel11112416383D

 32 37  0  0  1  0  0  0  0  0999 V2000
  184.9650  177.6520  144.5570 C   0  0  0  0  0  2  0  0  0  0  0  0
  189.7550  175.6390  143.6930 C   0  0  1  0  0  3  0  0  0  0  0  0
  189.1180  172.3630  140.0790 C   0  0  0  0  0  2  0  0  0  0  0  0
  190.3770  171.7630  140.7100 C   0  0  0  0  0  2  0  0  0  0  0  0
  191.4140  175.2200  145.5200 C   0  0  2  0  0  3  0  0  0  0  0  0
  192.5920  174.2690  145.7800 C   0  0  2  0  0  3  0  0  0  0  0  0
  187.7580  177.0810  144.1170 N   0  0  2  0  0  0  0  0  0  0  0  0
  188.2450  176.1530  141.8250 C   0  0  0  0  0  2  0  0  0  0  0  0
  194.3220  173.9000  144.1190 N   0  0  0  0  0  0  0  0  0  0  0  0
  185.9680  176.9180  142.4080 C   0  0  0  0  0  2  0  0  0  0  0  0
  188.4540  173.4070  140.9830 C   0  0  0  0  0  2  0  0  0  0  0  0
  188.7580  175.0210  142.7120 C   0  0  1  0  0  3  0  0  0  0  0  0
  189.4140  173.9530  141.9480 N   0  0  1  0  0  0  0  0  0  0  0  0
  190.7210  173.3250  143.9810 C   0  0  1  0  0  3  0  0  0  0  0  0
  194.9310  174.5030  145.2950 C   0  0  0  0  0  2  0  0  0  0  0  0
  186.0550  178.3450  145.3770 C   0  0  0  0  0  2  0  0  0  0  0  0
  187.4540  177.1700  142.6690 C   0  0  1  0  0  3  0  0  0  0  0  0
  193.8180  175.0660  146.1500 C   0  0  0  0  0  2  0  0  0  0  0  0
  187.4250  178.3740  144.7010 C   0  0  0  0  0  2  0  0  0  0  0  0
  185.0660  177.9560  143.0650 C   0  0  1  0  0  3  0  0  0  0  0  0
  190.2040  171.5760  142.2150 C   0  0  0  0  0  2  0  0  0  0  0  0
  189.7270  172.8710  142.9030 C   0  0  2  0  0  3  0  0  0  0  0  0
  192.0590  173.5290  143.4370 N   0  0  0  0  0  2  0  0  0  0  0  0
  189.1970  176.9140  144.3490 C   0  0  0  0  0  2  0  0  0  0  0  0
  190.9250  175.7130  146.7310 O   0  0  0  0  0  1  0  0  0  0  0  0
  195.1050  172.7190  143.7980 C   0  0  0  0  0  1  0  0  0  0  0  0
  190.2590  174.6030  144.7070 C   0  0  2  0  0  3  0  0  0  0  0  0
  193.0090  173.4410  144.5500 C   0  0  2  0  0  3  0  0  0  0  0  0
  183.7440  177.8800  142.4620 N   0  0  0  0  0  2  0  0  0  0  0  0
  183.4890  178.2770  141.1130 C   0  0  0  0  0  0  0  0  0  0  0  0
  184.4240  178.6920  140.3790 O   0  0  0  0  0  0  0  0  0  0  0  0
  182.1090  178.1920  140.5720 C   0  0  0  0  0  1  0  0  0  0  0  0
  1 16  1  0  0  0  0
  2 24  1  1  0  0  0
  2 27  1  0  0  0  0
  3  4  1  0  0  0  0
  3 11  1  0  0  0  0
  4 21  1  0  0  0  0
  5  6  1  0  0  0  0
  5 25  1  1  0  0  0
  6 18  1  6  0  0  0
  7 24  1  6  0  0  0
  7 19  1  0  0  0  0
  9 28  1  0  0  0  0
  9 15  1  0  0  0  0
 10 17  1  0  0  0  0
 10 20  1  0  0  0  0
 12  8  1  6  0  0  0
 12  2  1  0  0  0  0
 13 11  1  6  0  0  0
 13 12  1  0  0  0  0
 13 22  1  0  0  0  0
 14 23  1  6  0  0  0
 14 27  1  0  0  0  0
 15 18  1  0  0  0  0
 17  8  1  6  0  0  0
 17  7  1  0  0  0  0
 19 16  1  0  0  0  0
 20 29  1  6  0  0  0
 20  1  1  0  0  0  0
 22 21  1  6  0  0  0
 22 14  1  0  0  0  0
 23 28  1  0  0  0  0
 26  9  1  0  0  0  0
 27  5  1  0  0  0  0
 28  6  1  0  0  0  0
 30 29  1  0  0  0  0
 31 30  2  0  0  0  0
 32 30  1  0  0  0  0
M  END
>  <MODEL>
2

>  <REMARK>
 VINA RESULT:      -8.3      0.930      1.067
  Name = 
  1 active torsions:
  status: ('A' for Active; 'I' for Inactive)
    1  A    between atoms: C_20  and  N_29
                            x       y       z     vdW  Elec       q    Type
                         _______ _______ _______ _____ _____    ______ ____

>  <TORSDO>
F 1

$$$$
=
 OpenBabel11112416383D

 32 37  0  0  1  0  0  0  0  0999 V2000
  186.8530  177.0480  146.2290 C   0  0  0  0  0  2  0  0  0  0  0  0
  191.4570  175.5380  144.1630 C   0  0  1  0  0  3  0  0  0  0  0  0
  190.2910  173.4570  139.8600 C   0  0  0  0  0  2  0  0  0  0  0  0
  191.6200  172.7390  140.1070 C   0  0  0  0  0  2  0  0  0  0  0  0
  193.3500  174.6510  145.5400 C   0  0  2  0  0  3  0  0  0  0  0  0
  194.5440  173.7040  145.3430 C   0  0  2  0  0  3  0  0  0  0  0  0
  189.5520  176.7240  145.2640 N   0  0  2  0  0  0  0  0  0  0  0  0
  189.7060  176.5310  142.7560 C   0  0  0  0  0  2  0  0  0  0  0  0
  196.0220  173.8990  143.4280 N   0  0  0  0  0  0  0  0  0  0  0  0
  187.5400  177.0160  143.8440 C   0  0  0  0  0  2  0  0  0  0  0  0
  189.7690  174.1660  141.1160 C   0  0  0  0  0  2  0  0  0  0  0  0
  190.3270  175.2050  143.1870 C   0  0  1  0  0  3  0  0  0  0  0  0
  190.8600  174.4320  142.0590 N   0  0  1  0  0  0  0  0  0  0  0  0
  192.4320  173.2740  143.6160 C   0  0  1  0  0  3  0  0  0  0  0  0
  196.7950  174.1470  144.6360 C   0  0  0  0  0  2  0  0  0  0  0  0
  188.0530  177.5030  147.0620 C   0  0  0  0  0  2  0  0  0  0  0  0
  189.0510  177.2270  143.9640 C   0  0  1  0  0  3  0  0  0  0  0  0
  195.8180  174.3950  145.7630 C   0  0  0  0  0  2  0  0  0  0  0  0
  189.3160  177.7750  146.2450 C   0  0  0  0  0  2  0  0  0  0  0  0
  186.7480  177.7820  144.8960 C   0  0  1  0  0  3  0  0  0  0  0  0
  191.6570  172.1100  141.4980 C   0  0  0  0  0  2  0  0  0  0  0  0
  191.2930  173.1270  142.5980 C   0  0  2  0  0  3  0  0  0  0  0  0
  193.6830  173.6730  142.9810 N   0  0  0  0  0  2  0  0  0  0  0  0
  191.0080  176.5430  145.2380 C   0  0  0  0  0  2  0  0  0  0  0  0
  193.0400  174.7480  146.8980 O   0  0  0  0  0  1  0  0  0  0  0  0
  196.7410  172.8930  142.6670 C   0  0  0  0  0  1  0  0  0  0  0  0
  192.0880  174.2650  144.7450 C   0  0  2  0  0  3  0  0  0  0  0  0
  194.7780  173.2920  143.8770 C   0  0  2  0  0  3  0  0  0  0  0  0
  185.3550  177.8450  144.4840 N   0  0  0  0  0  2  0  0  0  0  0  0
  184.7490  179.0450  143.9990 C   0  0  0  0  0  0  0  0  0  0  0  0
  185.4210  180.1050  143.8890 O   0  0  0  0  0  0  0  0  0  0  0  0
  183.3140  179.0400  143.6160 C   0  0  0  0  0  1  0  0  0  0  0  0
  1 16  1  0  0  0  0
  2 27  1  0  0  0  0
  2 24  1  1  0  0  0
  3  4  1  0  0  0  0
  3 11  1  0  0  0  0
  4 21  1  0  0  0  0
  5 25  1  1  0  0  0
  6  5  1  0  0  0  0
  6 18  1  6  0  0  0
  7 24  1  6  0  0  0
  7 19  1  0  0  0  0
  9 28  1  0  0  0  0
  9 15  1  0  0  0  0
 10 17  1  0  0  0  0
 10 20  1  0  0  0  0
 12  8  1  6  0  0  0
 12  2  1  0  0  0  0
 13 11  1  6  0  0  0
 13 22  1  0  0  0  0
 13 12  1  0  0  0  0
 14 23  1  6  0  0  0
 14 27  1  0  0  0  0
 15 18  1  0  0  0  0
 17  8  1  6  0  0  0
 17  7  1  0  0  0  0
 19 16  1  0  0  0  0
 20 29  1  6  0  0  0
 20  1  1  0  0  0  0
 22 21  1  6  0  0  0
 22 14  1  0  0  0  0
 23 28  1  0  0  0  0
 26  9  1  0  0  0  0
 27  5  1  0  0  0  0
 28  6  1  0  0  0  0
 30 29  1  0  0  0  0
 31 30  2  0  0  0  0
 32 30  1  0  0  0  0
M  END
>  <MODEL>
3

>  <REMARK>
 VINA RESULT:      -7.8      2.022      2.802
  Name = 
  1 active torsions:
  status: ('A' for Active; 'I' for Inactive)
    1  A    between atoms: C_20  and  N_29
                            x       y       z     vdW  Elec       q    Type
                         _______ _______ _______ _____ _____    ______ ____

>  <TORSDO>
F 1

$$$$
=
 OpenBabel11112416383D

 32 37  0  0  1  0  0  0  0  0999 V2000
  183.6400  178.1460  142.8480 C   0  0  0  0  0  2  0  0  0  0  0  0
  188.7140  176.7410  142.6930 C   0  0  1  0  0  3  0  0  0  0  0  0
  189.0270  173.5370  138.9730 C   0  0  0  0  0  2  0  0  0  0  0  0
  190.2410  173.0680  139.7800 C   0  0  0  0  0  2  0  0  0  0  0  0
  190.1190  176.4580  144.7460 C   0  0  2  0  0  3  0  0  0  0  0  0
  191.3520  175.6440  145.1670 C   0  0  2  0  0  3  0  0  0  0  0  0
  186.5160  177.9230  142.8310 N   0  0  2  0  0  0  0  0  0  0  0  0
  187.4490  177.1370  140.6250 C   0  0  0  0  0  2  0  0  0  0  0  0
  193.3430  175.5370  143.7840 N   0  0  0  0  0  0  0  0  0  0  0  0
  185.0340  177.6090  140.8660 C   0  0  0  0  0  2  0  0  0  0  0  0
  188.1130  174.4650  139.7820 C   0  0  0  0  0  2  0  0  0  0  0  0
  187.9580  176.0440  141.5620 C   0  0  1  0  0  3  0  0  0  0  0  0
  188.8440  175.0870  140.8910 N   0  0  1  0  0  0  0  0  0  0  0  0
  189.9000  174.5480  143.0890 C   0  0  1  0  0  3  0  0  0  0  0  0
  193.6910  176.1670  145.0480 C   0  0  0  0  0  2  0  0  0  0  0  0
  184.5030  178.9350  143.8350 C   0  0  0  0  0  2  0  0  0  0  0  0
  186.4240  178.0250  141.3550 C   0  0  1  0  0  3  0  0  0  0  0  0
  192.4030  176.5660  145.7330 C   0  0  0  0  0  2  0  0  0  0  0  0
  185.9450  179.1470  143.3770 C   0  0  0  0  0  2  0  0  0  0  0  0
  183.9250  178.5110  141.3940 C   0  0  1  0  0  3  0  0  0  0  0  0
  189.8680  172.8110  141.2380 C   0  0  0  0  0  2  0  0  0  0  0  0
  189.1400  174.0170  141.8650 C   0  0  2  0  0  3  0  0  0  0  0  0
  191.2690  174.9260  142.7590 N   0  0  0  0  0  2  0  0  0  0  0  0
  187.9140  177.9190  143.2760 C   0  0  0  0  0  2  0  0  0  0  0  0
  189.3990  176.8490  145.8760 O   0  0  0  0  0  1  0  0  0  0  0  0
  194.3020  174.4690  143.5680 C   0  0  0  0  0  1  0  0  0  0  0  0
  189.1820  175.7380  143.7560 C   0  0  2  0  0  3  0  0  0  0  0  0
  192.0460  174.9130  144.0020 C   0  0  2  0  0  3  0  0  0  0  0  0
  182.7280  178.3000  140.5960 N   0  0  0  0  0  2  0  0  0  0  0  0
  181.4230  178.6610  141.0550 C   0  0  0  0  0  0  0  0  0  0  0  0
  181.2660  179.2060  142.1790 O   0  0  0  0  0  0  0  0  0  0  0  0
  180.2430  178.3960  140.1930 C   0  0  0  0  0  1  0  0  0  0  0  0
  1 16  1  0  0  0  0
  2 24  1  1  0  0  0
  2 27  1  0  0  0  0
  3  4  1  0  0  0  0
  3 11  1  0  0  0  0
  4 21  1  0  0  0  0
  5  6  1  0  0  0  0
  5 25  1  1  0  0  0
  6 18  1  6  0  0  0
  7 24  1  6  0  0  0
  7 19  1  0  0  0  0
  9 28  1  0  0  0  0
  9 15  1  0  0  0  0
 10 17  1  0  0  0  0
 10 20  1  0  0  0  0
 12  8  1  6  0  0  0
 12  2  1  0  0  0  0
 13 11  1  6  0  0  0
 13 12  1  0  0  0  0
 13 22  1  0  0  0  0
 14 23  1  6  0  0  0
 14 27  1  0  0  0  0
 15 18  1  0  0  0  0
 17  8  1  6  0  0  0
 17  7  1  0  0  0  0
 19 16  1  0  0  0  0
 20 29  1  6  0  0  0
 20  1  1  0  0  0  0
 22 21  1  6  0  0  0
 22 14  1  0  0  0  0
 23 28  1  0  0  0  0
 26  9  1  0  0  0  0
 27  5  1  0  0  0  0
 28  6  1  0  0  0  0
 29 30  1  0  0  0  0
 30 31  2  0  0  0  0
 32 30  1  0  0  0  0
M  END
>  <MODEL>
4

>  <REMARK>
 VINA RESULT:      -7.6      1.602      1.902
  Name = 
  1 active torsions:
  status: ('A' for Active; 'I' for Inactive)
    1  A    between atoms: C_20  and  N_29
                            x       y       z     vdW  Elec       q    Type
                         _______ _______ _______ _____ _____    ______ ____

>  <TORSDO>
F 1

$$$$
=
 OpenBabel11112416383D

 32 37  0  0  1  0  0  0  0  0999 V2000
  187.2810  177.6970  142.1620 C   0  0  0  0  0  2  0  0  0  0  0  0
  191.5490  174.6460  142.6410 C   0  0  1  0  0  3  0  0  0  0  0  0
  193.7950  176.2430  146.7160 C   0  0  0  0  0  2  0  0  0  0  0  0
  195.0100  175.6380  146.0090 C   0  0  0  0  0  2  0  0  0  0  0  0
  192.8800  173.8370  140.6810 C   0  0  2  0  0  3  0  0  0  0  0  0
  194.3300  173.4170  140.3970 C   0  0  2  0  0  3  0  0  0  0  0  0
  189.2680  175.6100  142.2970 N   0  0  2  0  0  0  0  0  0  0  0  0
  190.2170  175.2750  144.6070 C   0  0  0  0  0  2  0  0  0  0  0  0
  195.5170  171.8740  141.8460 N   0  0  0  0  0  0  0  0  0  0  0  0
  188.3560  176.8590  144.2360 C   0  0  0  0  0  2  0  0  0  0  0  0
  192.5940  176.4050  145.7760 C   0  0  0  0  0  2  0  0  0  0  0  0
  191.4810  175.6170  143.8210 C   0  0  1  0  0  3  0  0  0  0  0  0
  192.7010  175.5010  144.6270 N   0  0  1  0  0  0  0  0  0  0  0  0
  194.0240  175.1310  142.5410 C   0  0  1  0  0  3  0  0  0  0  0  0
  195.3930  171.2690  140.5290 C   0  0  0  0  0  2  0  0  0  0  0  0
  187.3300  176.5800  141.1180 C   0  0  0  0  0  2  0  0  0  0  0  0
  188.9690  175.5450  143.7470 C   0  0  1  0  0  3  0  0  0  0  0  0
  194.3490  172.0480  139.7620 C   0  0  0  0  0  2  0  0  0  0  0  0
  188.0280  175.3070  141.5940 C   0  0  0  0  0  2  0  0  0  0  0  0
  187.0220  177.1750  143.5720 C   0  0  1  0  0  3  0  0  0  0  0  0
  195.1320  176.1600  144.5790 C   0  0  0  0  0  2  0  0  0  0  0  0
  193.8170  175.9940  143.7930 C   0  0  2  0  0  3  0  0  0  0  0  0
  194.5630  173.8150  142.8680 N   0  0  0  0  0  2  0  0  0  0  0  0
  190.2030  174.5520  141.9000 C   0  0  0  0  0  2  0  0  0  0  0  0
  192.2490  174.2040  139.4910 O   0  0  0  0  0  1  0  0  0  0  0  0
  196.9190  171.7950  142.2160 C   0  0  0  0  0  1  0  0  0  0  0  0
  192.7310  174.9680  141.7170 C   0  0  2  0  0  3  0  0  0  0  0  0
  195.2000  173.2830  141.6610 C   0  0  2  0  0  3  0  0  0  0  0  0
  186.3390  178.1960  144.3510 N   0  0  0  0  0  2  0  0  0  0  0  0
  185.4710  177.8800  145.4410 C   0  0  0  0  0  0  0  0  0  0  0  0
  185.2830  176.6840  145.7870 O   0  0  0  0  0  0  0  0  0  0  0  0
  184.7890  178.9750  146.1780 C   0  0  0  0  0  1  0  0  0  0  0  0
  1 20  1  0  0  0  0
  2 24  1  6  0  0  0
  2 12  1  0  0  0  0
  4  3  1  0  0  0  0
  5 25  1  6  0  0  0
  5 27  1  0  0  0  0
  6 18  1  1  0  0  0
  6  5  1  0  0  0  0
  6 28  1  0  0  0  0
  7 19  1  6  0  0  0
  7 17  1  0  0  0  0
  9 26  1  0  0  0  0
 11  3  1  0  0  0  0
 12  8  1  1  0  0  0
 12 13  1  0  0  0  0
 13 11  1  1  0  0  0
 14 23  1  1  0  0  0
 14 22  1  0  0  0  0
 15  9  1  0  0  0  0
 16 19  1  0  0  0  0
 16  1  1  0  0  0  0
 17 10  1  1  0  0  0
 17  8  1  0  0  0  0
 18 15  1  0  0  0  0
 20 10  1  0  0  0  0
 20 29  1  1  0  0  0
 21  4  1  0  0  0  0
 22 21  1  1  0  0  0
 22 13  1  0  0  0  0
 24  7  1  0  0  0  0
 27 14  1  0  0  0  0
 27  2  1  0  0  0  0
 28  9  1  0  0  0  0
 28 23  1  0  0  0  0
 29 30  1  0  0  0  0
 30 31  2  0  0  0  0
 30 32  1  0  0  0  0
M  END
>  <MODEL>
5

>  <REMARK>
 VINA RESULT:      -7.6      3.052      5.351
  Name = 
  1 active torsions:
  status: ('A' for Active; 'I' for Inactive)
    1  A    between atoms: C_20  and  N_29
                            x       y       z     vdW  Elec       q    Type
                         _______ _______ _______ _____ _____    ______ ____

>  <TORSDO>
F 1

$$$$
=
 OpenBabel11112416383D

 32 37  0  0  1  0  0  0  0  0999 V2000
  193.8200  169.5190  144.9220 C   0  0  0  0  0  2  0  0  0  0  0  0
  191.1920  173.9390  143.7780 C   0  0  1  0  0  3  0  0  0  0  0  0
  191.3230  176.5960  147.9170 C   0  0  0  0  0  2  0  0  0  0  0  0
  190.0580  177.1990  147.3000 C   0  0  0  0  0  2  0  0  0  0  0  0
  189.1800  173.9890  142.2910 C   0  0  2  0  0  3  0  0  0  0  0  0
  187.9240  174.8570  142.1180 C   0  0  2  0  0  3  0  0  0  0  0  0
  192.6730  171.9260  143.8190 N   0  0  2  0  0  0  0  0  0  0  0  0
  193.2420  174.0010  145.1300 C   0  0  0  0  0  2  0  0  0  0  0  0
  188.0510  177.2790  142.0350 N   0  0  0  0  0  0  0  0  0  0  0  0
  194.2510  171.8260  145.7300 C   0  0  0  0  0  2  0  0  0  0  0  0
  191.7470  175.2960  147.2230 C   0  0  0  0  0  2  0  0  0  0  0  0
  191.7180  174.0150  145.2130 C   0  0  1  0  0  3  0  0  0  0  0  0
  191.1940  175.2200  145.8670 N   0  0  1  0  0  0  0  0  0  0  0  0
  189.0370  174.9260  144.6440 C   0  0  1  0  0  3  0  0  0  0  0  0
  187.5360  176.7990  140.7620 C   0  0  0  0  0  2  0  0  0  0  0  0
  193.4120  169.6010  143.4500 C   0  0  0  0  0  2  0  0  0  0  0  0
  193.7290  172.6580  144.5570 C   0  0  1  0  0  3  0  0  0  0  0  0
  187.8140  175.3150  140.6840 C   0  0  0  0  0  2  0  0  0  0  0  0
  193.3480  171.0240  142.8950 C   0  0  0  0  0  2  0  0  0  0  0  0
  194.9080  170.5240  145.2890 C   0  0  1  0  0  3  0  0  0  0  0  0
  189.0710  176.1080  146.8910 C   0  0  0  0  0  2  0  0  0  0  0  0
  189.7350  175.0340  146.0070 C   0  0  2  0  0  3  0  0  0  0  0  0
  189.0270  176.2000  143.9340 N   0  0  0  0  0  2  0  0  0  0  0  0
  191.8920  172.8320  142.9710 C   0  0  0  0  0  2  0  0  0  0  0  0
  188.9650  172.7260  141.7350 O   0  0  0  0  0  1  0  0  0  0  0  0
  187.1310  178.3020  142.5020 C   0  0  0  0  0  1  0  0  0  0  0  0
  189.6610  173.8400  143.7470 C   0  0  2  0  0  3  0  0  0  0  0  0
  187.9410  176.1520  142.9510 C   0  0  2  0  0  3  0  0  0  0  0  0
  195.7020  170.0010  146.3900 N   0  0  0  0  0  2  0  0  0  0  0  0
  196.7470  169.0440  146.1990 C   0  0  0  0  0  0  0  0  0  0  0  0
  197.0370  168.6320  145.0450 O   0  0  0  0  0  0  0  0  0  0  0  0
  197.5020  168.5380  147.3740 C   0  0  0  0  0  1  0  0  0  0  0  0
  1 20  1  0  0  0  0
  2 24  1  1  0  0  0
  2 12  1  0  0  0  0
  4  3  1  0  0  0  0
  5 25  1  1  0  0  0
  5 27  1  0  0  0  0
  6 18  1  6  0  0  0
  6  5  1  0  0  0  0
  6 28  1  0  0  0  0
  7 19  1  6  0  0  0
  7 17  1  0  0  0  0
  9 26  1  0  0  0  0
  9 28  1  0  0  0  0
 11  3  1  0  0  0  0
 12  8  1  6  0  0  0
 12 13  1  0  0  0  0
 13 22  1  0  0  0  0
 13 11  1  1  0  0  0
 14 23  1  6  0  0  0
 14 22  1  0  0  0  0
 15  9  1  0  0  0  0
 16  1  1  0  0  0  0
 17  8  1  1  0  0  0
 17 10  1  0  0  0  0
 18 15  1  0  0  0  0
 19 16  1  0  0  0  0
 20 10  1  0  0  0  0
 20 29  1  1  0  0  0
 21  4  1  0  0  0  0
 22 21  1  6  0  0  0
 24  7  1  0  0  0  0
 27  2  1  0  0  0  0
 27 14  1  0  0  0  0
 28 23  1  0  0  0  0
 30 29  1  0  0  0  0
 30 32  1  0  0  0  0
 31 30  2  0  0  0  0
M  END
>  <MODEL>
6

>  <REMARK>
 VINA RESULT:      -7.5      3.443      9.404
  Name = 
  1 active torsions:
  status: ('A' for Active; 'I' for Inactive)
    1  A    between atoms: C_20  and  N_29
                            x       y       z     vdW  Elec       q    Type
                         _______ _______ _______ _____ _____    ______ ____

>  <TORSDO>
F 1

$$$$
=
 OpenBabel11112416383D

 32 37  0  0  1  0  0  0  0  0999 V2000
  188.2750  177.1730  144.8630 C   0  0  0  0  0  2  0  0  0  0  0  0
  192.5520  174.2960  143.7800 C   0  0  1  0  0  3  0  0  0  0  0  0
  190.8180  170.1680  141.7410 C   0  0  0  0  0  2  0  0  0  0  0  0
  192.1480  169.6210  142.2660 C   0  0  0  0  0  2  0  0  0  0  0  0
  194.5740  174.2410  145.2550 C   0  0  2  0  0  3  0  0  0  0  0  0
  195.7100  173.2580  145.5790 C   0  0  2  0  0  3  0  0  0  0  0  0
  190.8270  176.0800  144.0810 N   0  0  2  0  0  0  0  0  0  0  0  0
  190.6700  174.4040  142.2050 C   0  0  0  0  0  2  0  0  0  0  0  0
  196.9490  172.1220  143.8290 N   0  0  0  0  0  0  0  0  0  0  0  0
  188.6660  175.6470  142.9440 C   0  0  0  0  0  2  0  0  0  0  0  0
  190.4710  171.5350  142.3430 C   0  0  0  0  0  2  0  0  0  0  0  0
  191.3040  173.5520  143.3030 C   0  0  1  0  0  3  0  0  0  0  0  0
  191.6750  172.2100  142.8390 N   0  0  1  0  0  0  0  0  0  0  0  0
  193.3930  172.0790  144.6460 C   0  0  1  0  0  3  0  0  0  0  0  0
  197.8690  172.9710  144.5700 C   0  0  0  0  0  2  0  0  0  0  0  0
  189.5780  177.9200  145.1470 C   0  0  0  0  0  2  0  0  0  0  0  0
  190.1850  175.7440  142.7890 C   0  0  1  0  0  3  0  0  0  0  0  0
  197.0430  173.9390  145.3880 C   0  0  0  0  0  2  0  0  0  0  0  0
  190.7400  177.5250  144.2350 C   0  0  0  0  0  2  0  0  0  0  0  0
  188.0280  176.9630  143.3720 C   0  0  1  0  0  3  0  0  0  0  0  0
  192.3360  169.9550  143.7440 C   0  0  0  0  0  2  0  0  0  0  0  0
  192.1350  171.4570  144.0230 C   0  0  2  0  0  3  0  0  0  0  0  0
  194.5680  171.8950  143.8020 N   0  0  0  0  0  2  0  0  0  0  0  0
  192.2640  175.7820  144.0530 C   0  0  0  0  0  2  0  0  0  0  0  0
  194.4340  175.1640  146.2930 O   0  0  0  0  0  1  0  0  0  0  0  0
  197.5440  170.7980  143.7830 C   0  0  0  0  0  1  0  0  0  0  0  0
  193.2150  173.5770  144.9630 C   0  0  2  0  0  3  0  0  0  0  0  0
  195.7530  172.0280  144.6540 C   0  0  2  0  0  3  0  0  0  0  0  0
  186.5970  176.8970  143.1200 N   0  0  0  0  0  2  0  0  0  0  0  0
  185.8110  178.0560  142.8330 C   0  0  0  0  0  0  0  0  0  0  0  0
  186.3460  179.1940  142.7650 O   0  0  0  0  0  0  0  0  0  0  0  0
  184.3500  177.9150  142.6080 C   0  0  0  0  0  1  0  0  0  0  0  0
  1 16  1  0  0  0  0
  2 24  1  1  0  0  0
  2 27  1  0  0  0  0
  3  4  1  0  0  0  0
  3 11  1  0  0  0  0
  4 21  1  0  0  0  0
  5  6  1  0  0  0  0
  5 25  1  1  0  0  0
  6 18  1  6  0  0  0
  7 24  1  6  0  0  0
  7 19  1  0  0  0  0
  9 15  1  0  0  0  0
  9 28  1  0  0  0  0
 10 20  1  0  0  0  0
 12  8  1  6  0  0  0
 12  2  1  0  0  0  0
 13 11  1  1  0  0  0
 13 12  1  0  0  0  0
 13 22  1  0  0  0  0
 14 23  1  6  0  0  0
 14 27  1  0  0  0  0
 15 18  1  0  0  0  0
 17  8  1  1  0  0  0
 17 10  1  0  0  0  0
 17  7  1  0  0  0  0
 19 16  1  0  0  0  0
 20 29  1  1  0  0  0
 20  1  1  0  0  0  0
 22 21  1  6  0  0  0
 22 14  1  0  0  0  0
 23 28  1  0  0  0  0
 26  9  1  0  0  0  0
 27  5  1  0  0  0  0
 28  6  1  0  0  0  0
 30 29  1  0  0  0  0
 31 30  2  0  0  0  0
 32 30  1  0  0  0  0
M  END
>  <MODEL>
7

>  <REMARK>
 VINA RESULT:      -7.5      2.346      3.802
  Name = 
  1 active torsions:
  status: ('A' for Active; 'I' for Inactive)
    1  A    between atoms: C_20  and  N_29
                            x       y       z     vdW  Elec       q    Type
                         _______ _______ _______ _____ _____    ______ ____

>  <TORSDO>
F 1

$$$$
=
 OpenBabel11112416383D

 32 37  0  0  1  0  0  0  0  0999 V2000
  188.2970  174.5580  140.8710 C   0  0  0  0  0  2  0  0  0  0  0  0
  191.7220  172.4180  144.2540 C   0  0  1  0  0  3  0  0  0  0  0  0
  194.1280  176.2390  146.2050 C   0  0  0  0  0  2  0  0  0  0  0  0
  195.1950  175.1640  146.4230 C   0  0  0  0  0  2  0  0  0  0  0  0
  192.8990  170.2510  143.8230 C   0  0  2  0  0  3  0  0  0  0  0  0
  194.2220  169.5840  144.2300 C   0  0  2  0  0  3  0  0  0  0  0  0
  189.7400  173.0660  142.8750 N   0  0  2  0  0  0  0  0  0  0  0  0
  190.5030  174.4740  144.8200 C   0  0  0  0  0  2  0  0  0  0  0  0
  194.9660  169.5350  146.5390 N   0  0  0  0  0  0  0  0  0  0  0  0
  189.0730  175.4480  143.0550 C   0  0  0  0  0  2  0  0  0  0  0  0
  193.0330  175.7850  145.2330 C   0  0  0  0  0  2  0  0  0  0  0  0
  191.8380  173.9420  144.3060 C   0  0  1  0  0  3  0  0  0  0  0  0
  192.9690  174.3220  145.1610 N   0  0  1  0  0  0  0  0  0  0  0  0
  194.2440  172.3440  144.3250 C   0  0  1  0  0  3  0  0  0  0  0  0
  194.7530  168.1660  146.0920 C   0  0  0  0  0  2  0  0  0  0  0  0
  188.1240  173.0440  141.0110 C   0  0  0  0  0  2  0  0  0  0  0  0
  189.3830  174.1550  143.8130 C   0  0  1  0  0  3  0  0  0  0  0  0
  193.9460  168.2210  144.8150 C   0  0  0  0  0  2  0  0  0  0  0  0
  188.4900  172.4960  142.3900 C   0  0  0  0  0  2  0  0  0  0  0  0
  187.8740  175.3180  142.1250 C   0  0  1  0  0  3  0  0  0  0  0  0
  195.4870  174.4060  145.1300 C   0  0  0  0  0  2  0  0  0  0  0  0
  194.1970  173.8710  144.4750 C   0  0  2  0  0  3  0  0  0  0  0  0
  194.4510  171.6760  145.6050 N   0  0  0  0  0  2  0  0  0  0  0  0
  190.4190  171.9670  143.5710 C   0  0  0  0  0  2  0  0  0  0  0  0
  192.4140  169.6690  142.6510 O   0  0  0  0  0  1  0  0  0  0  0  0
  196.2980  169.5860  147.1160 C   0  0  0  0  0  1  0  0  0  0  0  0
  192.9790  171.7800  143.6480 C   0  0  2  0  0  3  0  0  0  0  0  0
  194.9910  170.3420  145.3270 C   0  0  2  0  0  3  0  0  0  0  0  0
  187.4170  176.6490  141.7560 N   0  0  0  0  0  2  0  0  0  0  0  0
  186.3430  177.3090  142.4290 C   0  0  0  0  0  0  0  0  0  0  0  0
  185.7590  176.7590  143.3990 O   0  0  0  0  0  0  0  0  0  0  0  0
  185.9170  178.6600  141.9820 C   0  0  0  0  0  1  0  0  0  0  0  0
  1 16  1  0  0  0  0
  1 20  1  0  0  0  0
  2 24  1  6  0  0  0
  2 12  1  0  0  0  0
  3  4  1  0  0  0  0
  5 25  1  6  0  0  0
  5  6  1  0  0  0  0
  6 18  1  1  0  0  0
  6 28  1  0  0  0  0
  7 19  1  1  0  0  0
  7 24  1  0  0  0  0
  7 17  1  0  0  0  0
  9 26  1  0  0  0  0
 11  3  1  0  0  0  0
 12  8  1  1  0  0  0
 12 13  1  0  0  0  0
 13 11  1  6  0  0  0
 14 22  1  0  0  0  0
 14 23  1  1  0  0  0
 15  9  1  0  0  0  0
 16 19  1  0  0  0  0
 17 10  1  6  0  0  0
 17  8  1  0  0  0  0
 18 15  1  0  0  0  0
 20 29  1  6  0  0  0
 20 10  1  0  0  0  0
 21  4  1  0  0  0  0
 22 21  1  1  0  0  0
 22 13  1  0  0  0  0
 27  5  1  0  0  0  0
 27  2  1  0  0  0  0
 27 14  1  0  0  0  0
 28 23  1  0  0  0  0
 28  9  1  0  0  0  0
 29 30  1  0  0  0  0
 30 31  2  0  0  0  0
 32 30  1  0  0  0  0
M  END
>  <MODEL>
8

>  <REMARK>
 VINA RESULT:      -7.5      3.110      5.769
  Name = 
  1 active torsions:
  status: ('A' for Active; 'I' for Inactive)
    1  A    between atoms: C_20  and  N_29
                            x       y       z     vdW  Elec       q    Type
                         _______ _______ _______ _____ _____    ______ ____

>  <TORSDO>
F 1

$$$$
=
 OpenBabel11112416383D

 32 37  0  0  1  0  0  0  0  0999 V2000
  188.0620  176.8260  146.6430 C   0  0  0  0  0  2  0  0  0  0  0  0
  191.3290  175.1610  142.8610 C   0  0  1  0  0  3  0  0  0  0  0  0
  188.4450  172.8050  139.6450 C   0  0  0  0  0  2  0  0  0  0  0  0
  189.7650  172.0990  139.3270 C   0  0  0  0  0  2  0  0  0  0  0  0
  193.6550  174.3580  143.3180 C   0  0  2  0  0  3  0  0  0  0  0  0
  194.6650  173.3950  142.6750 C   0  0  2  0  0  3  0  0  0  0  0  0
  190.0710  176.4260  144.6120 N   0  0  2  0  0  0  0  0  0  0  0  0
  189.1130  176.0670  142.3090 C   0  0  0  0  0  2  0  0  0  0  0  0
  195.1470  173.4560  140.2970 N   0  0  0  0  0  0  0  0  0  0  0  0
  187.6330  176.6330  144.2060 C   0  0  0  0  0  2  0  0  0  0  0  0
  188.5090  173.5980  140.9560 C   0  0  0  0  0  2  0  0  0  0  0  0
  189.8940  174.7690  142.5040 C   0  0  1  0  0  3  0  0  0  0  0  0
  189.8960  173.9210  141.3070 N   0  0  1  0  0  0  0  0  0  0  0  0
  192.0210  172.8620  142.0820 C   0  0  1  0  0  3  0  0  0  0  0  0
  196.3650  173.7790  141.0250 C   0  0  0  0  0  2  0  0  0  0  0  0
  189.4940  177.3290  146.8340 C   0  0  0  0  0  2  0  0  0  0  0  0
  189.0370  176.8440  143.6360 C   0  0  1  0  0  3  0  0  0  0  0  0
  195.9760  174.1070  142.4490 C   0  0  0  0  0  2  0  0  0  0  0  0
  190.2630  177.5410  145.5300 C   0  0  0  0  0  2  0  0  0  0  0  0
  187.3640  177.4710  145.4500 C   0  0  1  0  0  3  0  0  0  0  0  0
  190.4240  171.5630  140.5960 C   0  0  0  0  0  2  0  0  0  0  0  0
  190.5540  172.6520  141.6790 C   0  0  2  0  0  3  0  0  0  0  0  0
  192.8560  173.2120  140.9390 N   0  0  0  0  0  2  0  0  0  0  0  0
  191.3710  176.2370  143.9600 C   0  0  0  0  0  2  0  0  0  0  0  0
  193.9700  174.5460  144.6650 O   0  0  0  0  0  1  0  0  0  0  0  0
  195.4840  172.3980  139.3620 C   0  0  0  0  0  1  0  0  0  0  0  0
  192.1820  173.9270  143.1840 C   0  0  2  0  0  3  0  0  0  0  0  0
  194.2420  172.8850  141.2840 C   0  0  2  0  0  3  0  0  0  0  0  0
  185.9300  177.5130  145.6890 N   0  0  0  0  0  2  0  0  0  0  0  0
  185.1480  178.6900  145.4770 C   0  0  0  0  0  0  0  0  0  0  0  0
  185.6820  179.7460  145.0450 O   0  0  0  0  0  0  0  0  0  0  0  0
  183.6910  178.6660  145.7630 C   0  0  0  0  0  1  0  0  0  0  0  0
  1 16  1  0  0  0  0
  2 27  1  0  0  0  0
  2 24  1  1  0  0  0
  3 11  1  0  0  0  0
  4  3  1  0  0  0  0
  4 21  1  0  0  0  0
  5 25  1  1  0  0  0
  6 18  1  6  0  0  0
  6  5  1  0  0  0  0
  7 24  1  6  0  0  0
  7 19  1  0  0  0  0
  9 15  1  0  0  0  0
  9 28  1  0  0  0  0
 10 20  1  0  0  0  0
 12  8  1  6  0  0  0
 12  2  1  0  0  0  0
 13 11  1  1  0  0  0
 13 22  1  0  0  0  0
 13 12  1  0  0  0  0
 14 23  1  6  0  0  0
 14 27  1  0  0  0  0
 15 18  1  0  0  0  0
 17  8  1  6  0  0  0
 17 10  1  0  0  0  0
 17  7  1  0  0  0  0
 19 16  1  0  0  0  0
 20 29  1  1  0  0  0
 20  1  1  0  0  0  0
 22 21  1  6  0  0  0
 22 14  1  0  0  0  0
 23 28  1  0  0  0  0
 26  9  1  0  0  0  0
 27  5  1  0  0  0  0
 28  6  1  0  0  0  0
 30 29  1  0  0  0  0
 30 32  1  0  0  0  0
 31 30  2  0  0  0  0
M  END
>  <MODEL>
9

>  <REMARK>
 VINA RESULT:      -7.4      2.790      3.957
  Name = 
  1 active torsions:
  status: ('A' for Active; 'I' for Inactive)
    1  A    between atoms: C_20  and  N_29
                            x       y       z     vdW  Elec       q    Type
                         _______ _______ _______ _____ _____    ______ ____

>  <TORSDO>
F 1

$$$$
