=
 OpenBabel11112416193D

 30 35  0  0  1  0  0  0  0  0999 V2000
  186.5860  177.7470  143.8650 C   0  0  0  0  0  0  0  0  0  0  0  0
  185.0910  178.6210  145.7740 C   0  0  0  0  0  0  0  0  0  0  0  0
  189.0850  176.1610  146.7990 N   0  0  0  0  0  2  0  0  0  0  0  0
  187.6710  176.9250  143.4900 C   0  0  0  0  0  0  0  0  0  0  0  0
  185.7550  178.2490  142.8560 C   0  0  0  0  0  3  0  0  0  0  0  0
  187.0850  176.6320  139.8300 O   0  0  0  0  0  1  0  0  0  0  0  0
  190.1570  175.3470  142.3290 C   0  0  1  0  0  3  0  0  0  0  0  0
  186.9490  177.0200  141.1610 C   0  0  0  0  0  0  0  0  0  0  0  0
  190.2440  174.8040  143.7580 C   0  0  2  0  0  3  0  0  0  0  0  0
  189.3010  174.9730  146.0620 C   0  0  0  0  0  0  0  0  0  0  0  0
  185.9390  177.9170  141.5140 C   0  0  0  0  0  0  0  0  0  0  0  0
  187.8160  176.5010  142.1390 C   0  0  0  0  0  0  0  0  0  0  0  0
  184.9110  178.9020  147.1300 C   0  0  0  0  0  3  0  0  0  0  0  0
  190.4940  173.3740  143.6640 N   0  0  0  0  0  2  0  0  0  0  0  0
  191.0440  174.4090  141.5440 C   0  0  0  0  0  2  0  0  0  0  0  0
  183.9220  178.9080  144.8940 C   0  0  0  0  0  1  0  0  0  0  0  0
  188.6680  177.2170  145.8910 C   0  0  0  0  0  0  0  0  0  0  0  0
  185.9170  178.6400  148.0510 C   0  0  0  0  0  3  0  0  0  0  0  0
  186.3220  178.0640  145.3100 C   0  0  0  0  0  0  0  0  0  0  0  0
  188.7400  176.5960  144.4900 C   0  0  0  0  0  0  0  0  0  0  0  0
  189.6540  173.8960  146.6100 O   0  0  0  0  0  0  0  0  0  0  0  0
  189.0180  175.1080  144.6160 C   0  0  1  0  0  3  0  0  0  0  0  0
  191.2820  173.2080  142.4470 C   0  0  0  0  0  2  0  0  0  0  0  0
  188.0130  174.0260  141.7760 C   0  0  0  0  0  1  0  0  0  0  0  0
  187.1130  178.0770  147.6230 C   0  0  0  0  0  3  0  0  0  0  0  0
  187.3180  177.7610  146.2740 C   0  0  0  0  0  0  0  0  0  0  0  0
  188.7370  175.3690  141.7140 C   0  0  2  0  0  3  0  0  0  0  0  0
  185.0760  178.4480  140.5030 N   0  0  0  0  0  2  0  0  0  0  0  0
  182.7450  178.2480  141.1360 C   0  0  0  0  0  1  0  0  0  0  0  0
  183.8080  177.8340  140.1420 C   0  0  0  0  0  2  0  0  0  0  0  0
  1 19  1  0  0  0  0
  2 13  1  0  0  0  0
  4  1  1  0  0  0  0
  4 20  1  0  0  0  0
  5  1  2  0  0  0  0
  6  8  1  0  0  0  0
  7 15  1  6  0  0  0
  7  9  1  0  0  0  0
  8 11  2  0  0  0  0
  8 12  1  0  0  0  0
  9 14  1  6  0  0  0
  9 22  1  0  0  0  0
 10 21  2  0  0  0  0
 10  3  1  0  0  0  0
 11  5  1  0  0  0  0
 12  4  2  0  0  0  0
 13 18  2  0  0  0  0
 15 23  1  0  0  0  0
 16  2  1  0  0  0  0
 17 26  1  0  0  0  0
 17  3  1  0  0  0  0
 19  2  2  0  0  0  0
 19 26  1  0  0  0  0
 20 17  2  0  0  0  0
 22 20  1  1  0  0  0
 22 10  1  0  0  0  0
 23 14  1  0  0  0  0
 25 18  1  0  0  0  0
 26 25  2  0  0  0  0
 27 24  1  1  0  0  0
 27 12  1  0  0  0  0
 27  7  1  0  0  0  0
 28 11  1  0  0  0  0
 30 28  1  0  0  0  0
 30 29  1  0  0  0  0
M  END
>  <MODEL>
1

>  <REMARK>
 VINA RESULT:      -8.9      0.000      0.000
  Name = 
  2 active torsions:
  status: ('A' for Active; 'I' for Inactive)
    1  A    between atoms: C_11  and  N_28
    2  A    between atoms: N_28  and  C_30
                            x       y       z     vdW  Elec       q    Type
                         _______ _______ _______ _____ _____    ______ ____

>  <TORSDO>
F 2

$$$$
=
 OpenBabel11112416193D

 30 35  0  0  1  0  0  0  0  0999 V2000
  190.1650  175.4970  143.8170 C   0  0  0  0  0  0  0  0  0  0  0  0
  192.7220  175.2670  143.5840 C   0  0  0  0  0  0  0  0  0  0  0  0
  190.8170  176.6500  147.7690 N   0  0  0  0  0  2  0  0  0  0  0  0
  189.0820  175.9510  144.6010 C   0  0  0  0  0  0  0  0  0  0  0  0
  189.9150  175.1350  142.4880 C   0  0  0  0  0  3  0  0  0  0  0  0
  186.3640  176.0030  142.0640 O   0  0  0  0  0  1  0  0  0  0  0  0
  186.4290  176.6660  146.1730 C   0  0  1  0  0  3  0  0  0  0  0  0
  187.6070  175.8090  142.6620 C   0  0  0  0  0  0  0  0  0  0  0  0
  187.4080  177.3140  147.1570 C   0  0  2  0  0  3  0  0  0  0  0  0
  189.8190  177.6510  147.7070 C   0  0  0  0  0  0  0  0  0  0  0  0
  188.6500  175.2600  141.9130 C   0  0  0  0  0  0  0  0  0  0  0  0
  187.8090  176.1740  144.0050 C   0  0  0  0  0  0  0  0  0  0  0  0
  193.9830  175.1900  144.1780 C   0  0  0  0  0  3  0  0  0  0  0  0
  186.8540  178.6040  147.5330 N   0  0  0  0  0  2  0  0  0  0  0  0
  185.0930  177.2420  146.5810 C   0  0  0  0  0  2  0  0  0  0  0  0
  192.7050  175.2150  142.0930 C   0  0  0  0  0  1  0  0  0  0  0  0
  190.5600  175.6560  146.7390 C   0  0  0  0  0  0  0  0  0  0  0  0
  194.1250  175.2670  145.5570 C   0  0  0  0  0  3  0  0  0  0  0  0
  191.5520  175.4180  144.3900 C   0  0  0  0  0  0  0  0  0  0  0  0
  189.2380  176.0820  146.0870 C   0  0  0  0  0  0  0  0  0  0  0  0
  189.8130  178.6440  148.4810 O   0  0  0  0  0  0  0  0  0  0  0  0
  188.8330  177.4440  146.6240 C   0  0  1  0  0  3  0  0  0  0  0  0
  185.4070  178.4220  147.4880 C   0  0  0  0  0  2  0  0  0  0  0  0
  186.8130  178.4520  144.3530 C   0  0  0  0  0  1  0  0  0  0  0  0
  193.0030  175.4370  146.3580 C   0  0  0  0  0  3  0  0  0  0  0  0
  191.7250  175.5410  145.7930 C   0  0  0  0  0  0  0  0  0  0  0  0
  186.6980  176.9640  144.6790 C   0  0  2  0  0  3  0  0  0  0  0  0
  188.4230  174.8790  140.5530 N   0  0  0  0  0  2  0  0  0  0  0  0
  188.2390  172.7440  139.4190 C   0  0  0  0  0  1  0  0  0  0  0  0
  189.1820  173.8320  139.8860 C   0  0  0  0  0  2  0  0  0  0  0  0
  1 19  2  0  0  0  0
  1  4  1  0  0  0  0
  2 13  2  0  0  0  0
  2 19  1  0  0  0  0
  4 20  2  0  0  0  0
  5  1  1  0  0  0  0
  6  8  1  0  0  0  0
  7 15  1  1  0  0  0
  7  9  1  0  0  0  0
  8 12  2  0  0  0  0
  9 14  1  6  0  0  0
 10  3  1  0  0  0  0
 10 21  2  0  0  0  0
 11  5  2  0  0  0  0
 11  8  1  0  0  0  0
 12  4  1  0  0  0  0
 12 27  1  0  0  0  0
 13 18  1  0  0  0  0
 15 23  1  0  0  0  0
 16  2  1  0  0  0  0
 17  3  1  0  0  0  0
 18 25  2  0  0  0  0
 19 26  1  0  0  0  0
 20 17  1  0  0  0  0
 22 20  1  1  0  0  0
 22  9  1  0  0  0  0
 22 10  1  0  0  0  0
 23 14  1  0  0  0  0
 26 25  1  0  0  0  0
 26 17  2  0  0  0  0
 27 24  1  1  0  0  0
 27  7  1  0  0  0  0
 28 11  1  0  0  0  0
 29 30  1  0  0  0  0
 30 28  1  0  0  0  0
M  END
>  <MODEL>
2

>  <REMARK>
 VINA RESULT:      -8.4      2.413      5.905
  Name = 
  2 active torsions:
  status: ('A' for Active; 'I' for Inactive)
    1  A    between atoms: C_11  and  N_28
    2  A    between atoms: N_28  and  C_30
                            x       y       z     vdW  Elec       q    Type
                         _______ _______ _______ _____ _____    ______ ____

>  <TORSDO>
F 2

$$$$
=
 OpenBabel11112416193D

 30 35  0  0  1  0  0  0  0  0999 V2000
  188.3000  175.7100  141.8360 C   0  0  0  0  0  0  0  0  0  0  0  0
  188.3890  174.5270  139.5480 C   0  0  0  0  0  0  0  0  0  0  0  0
  185.1520  177.9880  140.3270 N   0  0  0  0  0  2  0  0  0  0  0  0
  187.5950  176.5850  142.6920 C   0  0  0  0  0  0  0  0  0  0  0  0
  189.3400  174.9460  142.3790 C   0  0  0  0  0  3  0  0  0  0  0  0
  189.1590  175.7590  145.9630 O   0  0  0  0  0  1  0  0  0  0  0  0
  186.3900  178.6340  144.7820 C   0  0  1  0  0  3  0  0  0  0  0  0
  188.8880  175.7750  144.5970 C   0  0  0  0  0  0  0  0  0  0  0  0
  185.2300  178.6850  143.7830 C   0  0  2  0  0  3  0  0  0  0  0  0
  184.4360  177.9180  141.5440 C   0  0  0  0  0  0  0  0  0  0  0  0
  189.6570  174.9880  143.7370 C   0  0  0  0  0  0  0  0  0  0  0  0
  187.8430  176.5690  144.0940 C   0  0  0  0  0  0  0  0  0  0  0  0
  188.0200  174.4790  138.2020 C   0  0  0  0  0  3  0  0  0  0  0  0
  183.9950  178.6330  144.5490 N   0  0  0  0  0  2  0  0  0  0  0  0
  185.8080  179.2690  146.0230 C   0  0  0  0  0  2  0  0  0  0  0  0
  189.2340  173.3960  140.0280 C   0  0  0  0  0  1  0  0  0  0  0  0
  186.5620  177.7460  140.5880 C   0  0  0  0  0  0  0  0  0  0  0  0
  187.2030  175.4580  137.6530 C   0  0  0  0  0  3  0  0  0  0  0  0
  187.9340  175.5930  140.3840 C   0  0  0  0  0  0  0  0  0  0  0  0
  186.6730  177.6160  142.1130 C   0  0  0  0  0  0  0  0  0  0  0  0
  183.1880  178.0740  141.6000 O   0  0  0  0  0  0  0  0  0  0  0  0
  185.2790  177.5930  142.7150 C   0  0  1  0  0  3  0  0  0  0  0  0
  184.3030  179.3070  145.8060 C   0  0  0  0  0  2  0  0  0  0  0  0
  185.8350  176.2410  145.5630 C   0  0  0  0  0  1  0  0  0  0  0  0
  186.7310  176.4910  138.4530 C   0  0  0  0  0  3  0  0  0  0  0  0
  187.0620  176.5570  139.8130 C   0  0  0  0  0  0  0  0  0  0  0  0
  186.9180  177.2180  145.1120 C   0  0  2  0  0  3  0  0  0  0  0  0
  190.7280  174.1990  144.2630 N   0  0  0  0  0  2  0  0  0  0  0  0
  189.6460  172.1390  144.9440 C   0  0  0  0  0  1  0  0  0  0  0  0
  190.7770  172.7500  144.1440 C   0  0  0  0  0  2  0  0  0  0  0  0
  1  5  2  0  0  0  0
  1  4  1  0  0  0  0
  2 16  1  0  0  0  0
  2 19  1  0  0  0  0
  3 17  1  0  0  0  0
  3 10  1  0  0  0  0
  4 12  2  0  0  0  0
  5 11  1  0  0  0  0
  7 27  1  0  0  0  0
  7 15  1  1  0  0  0
  8  6  1  0  0  0  0
  9 14  1  1  0  0  0
  9  7  1  0  0  0  0
 10 21  2  0  0  0  0
 11 28  1  0  0  0  0
 11  8  2  0  0  0  0
 12  8  1  0  0  0  0
 12 27  1  0  0  0  0
 13  2  2  0  0  0  0
 14 23  1  0  0  0  0
 17 20  2  0  0  0  0
 18 13  1  0  0  0  0
 18 25  2  0  0  0  0
 19  1  1  0  0  0  0
 20  4  1  0  0  0  0
 20 22  1  0  0  0  0
 22 10  1  6  0  0  0
 22  9  1  0  0  0  0
 23 15  1  0  0  0  0
 25 26  1  0  0  0  0
 26 19  2  0  0  0  0
 26 17  1  0  0  0  0
 27 24  1  6  0  0  0
 30 28  1  0  0  0  0
 30 29  1  0  0  0  0
M  END
>  <MODEL>
3

>  <REMARK>
 VINA RESULT:      -8.1      2.021      7.163
  Name = 
  2 active torsions:
  status: ('A' for Active; 'I' for Inactive)
    1  A    between atoms: C_11  and  N_28
    2  A    between atoms: N_28  and  C_30
                            x       y       z     vdW  Elec       q    Type
                         _______ _______ _______ _____ _____    ______ ____

>  <TORSDO>
F 2

$$$$
=
 OpenBabel11112416193D

 30 35  0  0  1  0  0  0  0  0999 V2000
  187.1750  176.5810  143.1870 C   0  0  0  0  0  0  0  0  0  0  0  0
  185.8970  177.3090  145.3040 C   0  0  0  0  0  0  0  0  0  0  0  0
  189.6400  174.3240  145.6780 N   0  0  0  0  0  2  0  0  0  0  0  0
  188.1390  175.7170  142.6220 C   0  0  0  0  0  0  0  0  0  0  0  0
  186.3520  177.3110  142.3230 C   0  0  0  0  0  3  0  0  0  0  0  0
  187.3210  176.0370  139.0090 O   0  0  0  0  0  1  0  0  0  0  0  0
  190.3630  174.0830  141.0720 C   0  0  1  0  0  3  0  0  0  0  0  0
  187.3040  176.2330  140.3880 C   0  0  0  0  0  0  0  0  0  0  0  0
  190.4680  173.3260  142.3990 C   0  0  2  0  0  3  0  0  0  0  0  0
  189.6790  173.2440  144.7650 C   0  0  0  0  0  0  0  0  0  0  0  0
  186.4230  177.1670  140.9360 C   0  0  0  0  0  0  0  0  0  0  0  0
  188.1600  175.4870  141.2170 C   0  0  0  0  0  0  0  0  0  0  0  0
  185.8250  177.4000  146.6950 C   0  0  0  0  0  3  0  0  0  0  0  0
  190.5490  171.9080  142.0840 N   0  0  0  0  0  2  0  0  0  0  0  0
  191.0940  173.1860  140.1000 C   0  0  0  0  0  2  0  0  0  0  0  0
  184.7210  177.8430  144.5590 C   0  0  0  0  0  1  0  0  0  0  0  0
  189.2940  175.5420  144.9620 C   0  0  0  0  0  0  0  0  0  0  0  0
  186.8450  176.9010  147.4950 C   0  0  0  0  0  3  0  0  0  0  0  0
  187.0300  176.7030  144.6780 C   0  0  0  0  0  0  0  0  0  0  0  0
  189.2180  175.1340  143.4850 C   0  0  0  0  0  0  0  0  0  0  0  0
  189.9390  172.0670  145.1270 O   0  0  0  0  0  0  0  0  0  0  0  0
  189.3340  173.6230  143.3780 C   0  0  1  0  0  3  0  0  0  0  0  0
  191.2460  171.8460  140.8030 C   0  0  0  0  0  2  0  0  0  0  0  0
  188.0570  173.0870  140.4910 C   0  0  0  0  0  1  0  0  0  0  0  0
  187.9440  176.2880  146.9070 C   0  0  0  0  0  3  0  0  0  0  0  0
  188.0380  176.1580  145.5150 C   0  0  0  0  0  0  0  0  0  0  0  0
  188.9230  174.3430  140.5700 C   0  0  2  0  0  3  0  0  0  0  0  0
  185.5700  177.9290  140.0770 N   0  0  0  0  0  2  0  0  0  0  0  0
  183.1560  177.8940  140.2970 C   0  0  0  0  0  1  0  0  0  0  0  0
  184.4230  178.6800  140.5620 C   0  0  0  0  0  2  0  0  0  0  0  0
  1 19  1  0  0  0  0
  2 13  1  0  0  0  0
  4  1  1  0  0  0  0
  4 20  1  0  0  0  0
  5  1  2  0  0  0  0
  6  8  1  0  0  0  0
  7 15  1  6  0  0  0
  7  9  1  0  0  0  0
  8 11  2  0  0  0  0
  8 12  1  0  0  0  0
  9 14  1  6  0  0  0
  9 22  1  0  0  0  0
 10 21  2  0  0  0  0
 10  3  1  0  0  0  0
 11  5  1  0  0  0  0
 12  4  2  0  0  0  0
 13 18  2  0  0  0  0
 15 23  1  0  0  0  0
 16  2  1  0  0  0  0
 17 26  1  0  0  0  0
 17  3  1  0  0  0  0
 19  2  2  0  0  0  0
 19 26  1  0  0  0  0
 20 17  2  0  0  0  0
 22 20  1  1  0  0  0
 22 10  1  0  0  0  0
 23 14  1  0  0  0  0
 25 18  1  0  0  0  0
 26 25  2  0  0  0  0
 27 24  1  1  0  0  0
 27  7  1  0  0  0  0
 27 12  1  0  0  0  0
 28 30  1  0  0  0  0
 28 11  1  0  0  0  0
 29 30  1  0  0  0  0
M  END
>  <MODEL>
4

>  <REMARK>
 VINA RESULT:      -8.1      1.396      1.723
  Name = 
  2 active torsions:
  status: ('A' for Active; 'I' for Inactive)
    1  A    between atoms: C_11  and  N_28
    2  A    between atoms: N_28  and  C_30
                            x       y       z     vdW  Elec       q    Type
                         _______ _______ _______ _____ _____    ______ ____

>  <TORSDO>
F 2

$$$$
=
 OpenBabel11112416193D

 30 35  0  0  1  0  0  0  0  0999 V2000
  187.7640  176.3880  145.3200 C   0  0  0  0  0  0  0  0  0  0  0  0
  186.5960  178.4300  146.3730 C   0  0  0  0  0  0  0  0  0  0  0  0
  185.5870  177.1660  141.8510 N   0  0  0  0  0  2  0  0  0  0  0  0
  188.0270  175.6470  144.1460 C   0  0  0  0  0  0  0  0  0  0  0  0
  188.5260  176.1140  146.4610 C   0  0  0  0  0  3  0  0  0  0  0  0
  190.9650  173.6450  145.2390 O   0  0  0  0  0  1  0  0  0  0  0  0
  188.6620  173.6530  141.7710 C   0  0  1  0  0  3  0  0  0  0  0  0
  189.8850  174.5250  145.2630 C   0  0  0  0  0  0  0  0  0  0  0  0
  187.9600  174.7250  140.9310 C   0  0  2  0  0  3  0  0  0  0  0  0
  186.6910  176.8720  141.0170 C   0  0  0  0  0  0  0  0  0  0  0  0
  189.5600  175.1770  146.4540 C   0  0  0  0  0  0  0  0  0  0  0  0
  189.1390  174.7580  144.0950 C   0  0  0  0  0  0  0  0  0  0  0  0
  185.5800  179.3880  146.3360 C   0  0  0  0  0  3  0  0  0  0  0  0
  188.7490  174.9160  139.7250 N   0  0  0  0  0  2  0  0  0  0  0  0
  189.3610  172.8020  140.7370 C   0  0  0  0  0  2  0  0  0  0  0  0
  187.5420  178.5340  147.5210 C   0  0  0  0  0  1  0  0  0  0  0  0
  185.7760  176.5180  143.1400 C   0  0  0  0  0  0  0  0  0  0  0  0
  184.6630  179.4130  145.2930 C   0  0  0  0  0  3  0  0  0  0  0  0
  186.7030  177.4520  145.3370 C   0  0  0  0  0  0  0  0  0  0  0  0
  187.0680  175.7030  142.9950 C   0  0  0  0  0  0  0  0  0  0  0  0
  186.7900  177.3250  139.8470 O   0  0  0  0  0  0  0  0  0  0  0  0
  187.7270  176.0420  141.6690 C   0  0  1  0  0  3  0  0  0  0  0  0
  189.3370  173.6090  139.4470 C   0  0  0  0  0  2  0  0  0  0  0  0
  190.7450  175.1110  142.1990 C   0  0  0  0  0  1  0  0  0  0  0  0
  184.7640  178.4850  144.2640 C   0  0  0  0  0  3  0  0  0  0  0  0
  185.7840  177.5250  144.2570 C   0  0  0  0  0  0  0  0  0  0  0  0
  189.6890  174.1850  142.7990 C   0  0  2  0  0  3  0  0  0  0  0  0
  190.3190  174.9160  147.6380 N   0  0  0  0  0  2  0  0  0  0  0  0
  192.2340  176.3520  147.2530 C   0  0  0  0  0  1  0  0  0  0  0  0
  191.1910  175.9030  148.2540 C   0  0  0  0  0  2  0  0  0  0  0  0
  1 19  1  0  0  0  0
  1  5  1  0  0  0  0
  2 16  1  0  0  0  0
  3 17  1  0  0  0  0
  4  1  2  0  0  0  0
  6  8  1  0  0  0  0
  7 15  1  6  0  0  0
  7 27  1  0  0  0  0
  8 11  1  0  0  0  0
  9 14  1  6  0  0  0
  9 22  1  0  0  0  0
  9  7  1  0  0  0  0
 10  3  1  0  0  0  0
 11  5  2  0  0  0  0
 11 28  1  0  0  0  0
 12  4  1  0  0  0  0
 12  8  2  0  0  0  0
 13  2  1  0  0  0  0
 17 26  1  0  0  0  0
 18 13  2  0  0  0  0
 19  2  2  0  0  0  0
 20 17  2  0  0  0  0
 20  4  1  0  0  0  0
 21 10  2  0  0  0  0
 22 10  1  6  0  0  0
 22 20  1  0  0  0  0
 23 14  1  0  0  0  0
 23 15  1  0  0  0  0
 25 18  1  0  0  0  0
 26 25  2  0  0  0  0
 26 19  1  0  0  0  0
 27 24  1  6  0  0  0
 27 12  1  0  0  0  0
 28 30  1  0  0  0  0
 29 30  1  0  0  0  0
M  END
>  <MODEL>
5

>  <REMARK>
 VINA RESULT:      -7.8      1.705      5.224
  Name = 
  2 active torsions:
  status: ('A' for Active; 'I' for Inactive)
    1  A    between atoms: C_11  and  N_28
    2  A    between atoms: N_28  and  C_30
                            x       y       z     vdW  Elec       q    Type
                         _______ _______ _______ _____ _____    ______ ____

>  <TORSDO>
F 2

$$$$
=
 OpenBabel11112416193D

 30 35  0  0  1  0  0  0  0  0999 V2000
  190.2470  176.0670  144.4030 C   0  0  0  0  0  0  0  0  0  0  0  0
  191.8730  176.3650  146.3810 C   0  0  0  0  0  0  0  0  0  0  0  0
  193.2800  173.9620  142.4680 N   0  0  0  0  0  2  0  0  0  0  0  0
  189.9790  175.4240  143.1740 C   0  0  0  0  0  0  0  0  0  0  0  0
  189.2010  176.7500  145.0350 C   0  0  0  0  0  3  0  0  0  0  0  0
  186.3160  175.9950  142.8790 O   0  0  0  0  0  1  0  0  0  0  0  0
  189.1470  174.3210  140.3270 C   0  0  1  0  0  3  0  0  0  0  0  0
  187.6250  176.0400  143.3560 C   0  0  0  0  0  0  0  0  0  0  0  0
  190.3960  173.4530  140.5040 C   0  0  2  0  0  3  0  0  0  0  0  0
  192.3740  173.0030  141.9570 C   0  0  0  0  0  0  0  0  0  0  0  0
  187.9070  176.7650  144.5150 C   0  0  0  0  0  0  0  0  0  0  0  0
  188.6460  175.3500  142.6800 C   0  0  0  0  0  0  0  0  0  0  0  0
  193.1700  176.2970  146.8940 C   0  0  0  0  0  3  0  0  0  0  0  0
  190.0520  172.1060  140.0790 N   0  0  0  0  0  2  0  0  0  0  0  0
  188.4170  173.6530  139.1840 C   0  0  0  0  0  2  0  0  0  0  0  0
  190.8170  176.7900  147.3450 C   0  0  0  0  0  1  0  0  0  0  0  0
  192.5540  175.1820  142.7870 C   0  0  0  0  0  0  0  0  0  0  0  0
  194.2280  175.8780  146.0990 C   0  0  0  0  0  3  0  0  0  0  0  0
  191.6150  176.0080  145.0210 C   0  0  0  0  0  0  0  0  0  0  0  0
  191.1130  174.9250  142.3290 C   0  0  0  0  0  0  0  0  0  0  0  0
  192.7390  171.8480  141.6170 O   0  0  0  0  0  0  0  0  0  0  0  0
  190.9710  173.4690  141.9190 C   0  0  1  0  0  3  0  0  0  0  0  0
  189.0620  172.2850  139.0210 C   0  0  0  0  0  2  0  0  0  0  0  0
  187.8030  173.0520  142.1250 C   0  0  0  0  0  1  0  0  0  0  0  0
  193.9950  175.5050  144.7810 C   0  0  0  0  0  3  0  0  0  0  0  0
  192.7030  175.5380  144.2410 C   0  0  0  0  0  0  0  0  0  0  0  0
  188.2210  174.4100  141.5640 C   0  0  2  0  0  3  0  0  0  0  0  0
  186.8580  177.4750  145.1820 N   0  0  0  0  0  2  0  0  0  0  0  0
  184.8560  177.1660  146.5120 C   0  0  0  0  0  1  0  0  0  0  0  0
  186.3680  177.1090  146.5020 C   0  0  0  0  0  2  0  0  0  0  0  0
  1 19  1  0  0  0  0
  1  5  1  0  0  0  0
  2 13  1  0  0  0  0
  2 16  1  0  0  0  0
  3 17  1  0  0  0  0
  4  1  2  0  0  0  0
  6  8  1  0  0  0  0
  7 15  1  6  0  0  0
  7  9  1  0  0  0  0
  7 27  1  0  0  0  0
  8 11  1  0  0  0  0
  9 14  1  1  0  0  0
  9 22  1  0  0  0  0
 10  3  1  0  0  0  0
 11  5  2  0  0  0  0
 11 28  1  0  0  0  0
 12  4  1  0  0  0  0
 12  8  2  0  0  0  0
 17 26  1  0  0  0  0
 18 13  2  0  0  0  0
 19  2  2  0  0  0  0
 20 17  2  0  0  0  0
 20  4  1  0  0  0  0
 21 10  2  0  0  0  0
 22 10  1  6  0  0  0
 22 20  1  0  0  0  0
 23 15  1  0  0  0  0
 23 14  1  0  0  0  0
 25 18  1  0  0  0  0
 26 25  2  0  0  0  0
 26 19  1  0  0  0  0
 27 24  1  1  0  0  0
 27 12  1  0  0  0  0
 28 30  1  0  0  0  0
 30 29  1  0  0  0  0
M  END
>  <MODEL>
6

>  <REMARK>
 VINA RESULT:      -7.7      2.666      5.207
  Name = 
  2 active torsions:
  status: ('A' for Active; 'I' for Inactive)
    1  A    between atoms: C_11  and  N_28
    2  A    between atoms: N_28  and  C_30
                            x       y       z     vdW  Elec       q    Type
                         _______ _______ _______ _____ _____    ______ ____

>  <TORSDO>
F 2

$$$$
=
 OpenBabel11112416193D

 30 35  0  0  1  0  0  0  0  0999 V2000
  189.4100  176.4470  144.2600 C   0  0  0  0  0  0  0  0  0  0  0  0
  189.6840  177.1030  146.7370 C   0  0  0  0  0  0  0  0  0  0  0  0
  192.3010  173.5150  144.9110 N   0  0  0  0  0  2  0  0  0  0  0  0
  189.7020  175.5130  143.2410 C   0  0  0  0  0  0  0  0  0  0  0  0
  188.4220  177.4070  144.0150 C   0  0  0  0  0  3  0  0  0  0  0  0
  187.1280  176.4180  140.7150 O   0  0  0  0  0  1  0  0  0  0  0  0
  190.3160  173.7410  140.6910 C   0  0  1  0  0  3  0  0  0  0  0  0
  187.9100  176.4390  141.8680 C   0  0  0  0  0  0  0  0  0  0  0  0
  190.9690  172.8160  141.7210 C   0  0  2  0  0  3  0  0  0  0  0  0
  191.6080  172.5680  144.1210 C   0  0  0  0  0  0  0  0  0  0  0  0
  187.6900  177.4290  142.8270 C   0  0  0  0  0  0  0  0  0  0  0  0
  188.9020  175.4630  142.0650 C   0  0  0  0  0  0  0  0  0  0  0  0
  190.4070  177.0290  147.9300 C   0  0  0  0  0  3  0  0  0  0  0  0
  190.5680  171.4560  141.3990 N   0  0  0  0  0  2  0  0  0  0  0  0
  190.1890  172.8660  139.4660 C   0  0  0  0  0  2  0  0  0  0  0  0
  188.4340  177.9160  146.7880 C   0  0  0  0  0  1  0  0  0  0  0  0
  191.8830  174.8540  144.5260 C   0  0  0  0  0  0  0  0  0  0  0  0
  191.5670  176.2700  148.0130 C   0  0  0  0  0  3  0  0  0  0  0  0
  190.1330  176.4020  145.5760 C   0  0  0  0  0  0  0  0  0  0  0  0
  190.9270  174.6540  143.3430 C   0  0  0  0  0  0  0  0  0  0  0  0
  191.7710  171.3280  144.2610 O   0  0  0  0  0  0  0  0  0  0  0  0
  190.6480  173.1710  143.1720 C   0  0  1  0  0  3  0  0  0  0  0  0
  190.4180  171.4410  139.9470 C   0  0  0  0  0  2  0  0  0  0  0  0
  187.9210  173.2240  141.4940 C   0  0  0  0  0  1  0  0  0  0  0  0
  192.0080  175.5630  146.9020 C   0  0  0  0  0  3  0  0  0  0  0  0
  191.2950  175.5960  145.6970 C   0  0  0  0  0  0  0  0  0  0  0  0
  188.9280  174.2980  141.0880 C   0  0  2  0  0  3  0  0  0  0  0  0
  186.6880  178.4250  142.6040 N   0  0  0  0  0  2  0  0  0  0  0  0
  185.5660  179.7910  144.2630 C   0  0  0  0  0  1  0  0  0  0  0  0
  185.4870  178.5370  143.4170 C   0  0  0  0  0  2  0  0  0  0  0  0
  1 19  1  0  0  0  0
  2 16  1  0  0  0  0
  2 13  1  0  0  0  0
  4 20  1  0  0  0  0
  4  1  2  0  0  0  0
  5  1  1  0  0  0  0
  6  8  1  0  0  0  0
  7 15  1  6  0  0  0
  7 27  1  0  0  0  0
  7  9  1  0  0  0  0
  8 12  2  0  0  0  0
  8 11  1  0  0  0  0
  9 14  1  6  0  0  0
  9 22  1  0  0  0  0
 10 21  2  0  0  0  0
 10  3  1  0  0  0  0
 11  5  2  0  0  0  0
 12  4  1  0  0  0  0
 13 18  2  0  0  0  0
 15 23  1  0  0  0  0
 17  3  1  0  0  0  0
 17 26  1  0  0  0  0
 19 26  1  0  0  0  0
 19  2  2  0  0  0  0
 20 17  2  0  0  0  0
 22 20  1  6  0  0  0
 22 10  1  0  0  0  0
 23 14  1  0  0  0  0
 25 18  1  0  0  0  0
 26 25  2  0  0  0  0
 27 24  1  1  0  0  0
 27 12  1  0  0  0  0
 28 11  1  0  0  0  0
 28 30  1  0  0  0  0
 30 29  1  0  0  0  0
M  END
>  <MODEL>
7

>  <REMARK>
 VINA RESULT:      -7.7      2.101      3.640
  Name = 
  2 active torsions:
  status: ('A' for Active; 'I' for Inactive)
    1  A    between atoms: C_11  and  N_28
    2  A    between atoms: N_28  and  C_30
                            x       y       z     vdW  Elec       q    Type
                         _______ _______ _______ _____ _____    ______ ____

>  <TORSDO>
F 2

$$$$
=
 OpenBabel11112416193D

 30 35  0  0  1  0  0  0  0  0999 V2000
  186.8540  177.1360  143.1050 C   0  0  0  0  0  0  0  0  0  0  0  0
  184.8990  178.3510  144.2650 C   0  0  0  0  0  0  0  0  0  0  0  0
  188.5240  176.6080  146.8880 N   0  0  0  0  0  2  0  0  0  0  0  0
  188.0130  176.3420  143.2540 C   0  0  0  0  0  0  0  0  0  0  0  0
  186.3080  177.2780  141.8240 C   0  0  0  0  0  3  0  0  0  0  0  0
  188.4080  175.0400  139.7940 O   0  0  0  0  0  1  0  0  0  0  0  0
  190.7390  174.7360  143.2290 C   0  0  1  0  0  3  0  0  0  0  0  0
  187.9230  175.7530  140.8880 C   0  0  0  0  0  0  0  0  0  0  0  0
  190.4590  174.6000  144.7290 C   0  0  2  0  0  3  0  0  0  0  0  0
  188.9430  175.2910  146.5870 C   0  0  0  0  0  0  0  0  0  0  0  0
  186.8420  176.6200  140.7160 C   0  0  0  0  0  0  0  0  0  0  0  0
  188.5120  175.5890  142.1540 C   0  0  0  0  0  0  0  0  0  0  0  0
  184.3660  178.9630  145.4010 C   0  0  0  0  0  3  0  0  0  0  0  0
  190.7460  173.2240  145.1010 N   0  0  0  0  0  2  0  0  0  0  0  0
  191.8150  173.7040  142.9810 C   0  0  0  0  0  2  0  0  0  0  0  0
  183.9960  178.2910  143.0790 C   0  0  0  0  0  1  0  0  0  0  0  0
  188.3420  177.3450  145.6470 C   0  0  0  0  0  0  0  0  0  0  0  0
  185.1000  179.0430  146.5770 C   0  0  0  0  0  3  0  0  0  0  0  0
  186.2170  177.7990  144.2930 C   0  0  0  0  0  0  0  0  0  0  0  0
  188.7870  176.3840  144.5370 C   0  0  0  0  0  0  0  0  0  0  0  0
  189.1570  174.4320  147.4830 O   0  0  0  0  0  0  0  0  0  0  0  0
  189.0460  175.0130  145.1380 C   0  0  1  0  0  3  0  0  0  0  0  0
  191.8280  172.8110  144.2130 C   0  0  0  0  0  2  0  0  0  0  0  0
  188.8360  173.1330  142.5550 C   0  0  0  0  0  1  0  0  0  0  0  0
  186.3750  178.4940  146.6320 C   0  0  0  0  0  3  0  0  0  0  0  0
  186.9310  177.8510  145.5180 C   0  0  0  0  0  0  0  0  0  0  0  0
  189.5300  174.4700  142.3020 C   0  0  2  0  0  3  0  0  0  0  0  0
  186.2650  176.7870  139.4170 N   0  0  0  0  0  2  0  0  0  0  0  0
  186.6910  176.2410  137.0940 C   0  0  0  0  0  1  0  0  0  0  0  0
  187.0440  177.1580  138.2460 C   0  0  0  0  0  2  0  0  0  0  0  0
  1  4  1  0  0  0  0
  1 19  1  0  0  0  0
  2 19  2  0  0  0  0
  2 13  1  0  0  0  0
  4 20  1  0  0  0  0
  5  1  2  0  0  0  0
  6  8  1  0  0  0  0
  7 15  1  6  0  0  0
  7  9  1  0  0  0  0
  8 12  1  0  0  0  0
  9 14  1  6  0  0  0
  9 22  1  0  0  0  0
 10  3  1  0  0  0  0
 10 21  2  0  0  0  0
 11  8  2  0  0  0  0
 11  5  1  0  0  0  0
 12 27  1  0  0  0  0
 12  4  2  0  0  0  0
 13 18  2  0  0  0  0
 15 23  1  0  0  0  0
 16  2  1  0  0  0  0
 17  3  1  0  0  0  0
 18 25  1  0  0  0  0
 19 26  1  0  0  0  0
 20 17  2  0  0  0  0
 22 20  1  6  0  0  0
 22 10  1  0  0  0  0
 23 14  1  0  0  0  0
 26 17  1  0  0  0  0
 26 25  2  0  0  0  0
 27 24  1  1  0  0  0
 27  7  1  0  0  0  0
 28 11  1  0  0  0  0
 29 30  1  0  0  0  0
 30 28  1  0  0  0  0
M  END
>  <MODEL>
8

>  <REMARK>
 VINA RESULT:      -7.6      1.434      1.872
  Name = 
  2 active torsions:
  status: ('A' for Active; 'I' for Inactive)
    1  A    between atoms: C_11  and  N_28
    2  A    between atoms: N_28  and  C_30
                            x       y       z     vdW  Elec       q    Type
                         _______ _______ _______ _____ _____    ______ ____

>  <TORSDO>
F 2

$$$$
=
 OpenBabel11112416193D

 30 35  0  0  1  0  0  0  0  0999 V2000
  187.5570  175.9390  141.7680 C   0  0  0  0  0  0  0  0  0  0  0  0
  187.5210  175.5060  139.2280 C   0  0  0  0  0  0  0  0  0  0  0  0
  190.5450  173.0440  142.0310 N   0  0  0  0  0  2  0  0  0  0  0  0
  188.2130  175.7200  143.0000 C   0  0  0  0  0  0  0  0  0  0  0  0
  186.5710  176.9300  141.7100 C   0  0  0  0  0  3  0  0  0  0  0  0
  186.7330  178.4340  145.0650 O   0  0  0  0  0  1  0  0  0  0  0  0
  189.3090  175.2820  145.9370 C   0  0  1  0  0  3  0  0  0  0  0  0
  186.9900  177.5830  143.9930 C   0  0  0  0  0  0  0  0  0  0  0  0
  190.4540  174.5770  145.2050 C   0  0  2  0  0  3  0  0  0  0  0  0
  191.2750  173.7940  142.9820 C   0  0  0  0  0  0  0  0  0  0  0  0
  186.2640  177.7330  142.8100 C   0  0  0  0  0  0  0  0  0  0  0  0
  187.9800  176.5910  144.1010 C   0  0  0  0  0  0  0  0  0  0  0  0
  187.8800  174.7130  138.1360 C   0  0  0  0  0  3  0  0  0  0  0  0
  191.6960  175.0120  145.8230 N   0  0  0  0  0  2  0  0  0  0  0  0
  189.8610  175.4930  147.3280 C   0  0  0  0  0  2  0  0  0  0  0  0
  186.7510  176.7420  138.9040 C   0  0  0  0  0  1  0  0  0  0  0  0
  189.1550  173.4710  142.0510 C   0  0  0  0  0  0  0  0  0  0  0  0
  188.6310  173.5580  138.3120 C   0  0  0  0  0  3  0  0  0  0  0  0
  187.9170  175.1370  140.5500 C   0  0  0  0  0  0  0  0  0  0  0  0
  189.0650  174.5000  143.1860 C   0  0  0  0  0  0  0  0  0  0  0  0
  192.5110  173.6360  143.1580 O   0  0  0  0  0  0  0  0  0  0  0  0
  190.4630  174.8050  143.6950 C   0  0  1  0  0  3  0  0  0  0  0  0
  191.3590  175.2510  147.2230 C   0  0  0  0  0  2  0  0  0  0  0  0
  190.0170  177.6290  145.1370 C   0  0  0  0  0  1  0  0  0  0  0  0
  189.0450  173.1930  139.5870 C   0  0  0  0  0  3  0  0  0  0  0  0
  188.7230  173.9780  140.7020 C   0  0  0  0  0  0  0  0  0  0  0  0
  188.8720  176.6370  145.3320 C   0  0  2  0  0  3  0  0  0  0  0  0
  185.2480  178.7370  142.7220 N   0  0  0  0  0  2  0  0  0  0  0  0
  183.1650  178.2000  141.6030 C   0  0  0  0  0  1  0  0  0  0  0  0
  183.8360  178.4570  142.9360 C   0  0  0  0  0  2  0  0  0  0  0  0
  1  4  1  0  0  0  0
  2 19  1  0  0  0  0
  3 17  1  0  0  0  0
  3 10  1  0  0  0  0
  4 20  1  0  0  0  0
  4 12  2  0  0  0  0
  5  1  2  0  0  0  0
  5 11  1  0  0  0  0
  7 15  1  1  0  0  0
  8 12  1  0  0  0  0
  8  6  1  0  0  0  0
  9 14  1  1  0  0  0
  9  7  1  0  0  0  0
 10 21  2  0  0  0  0
 11  8  2  0  0  0  0
 12 27  1  0  0  0  0
 13 18  1  0  0  0  0
 13  2  2  0  0  0  0
 14 23  1  0  0  0  0
 16  2  1  0  0  0  0
 17 20  2  0  0  0  0
 18 25  2  0  0  0  0
 19 26  2  0  0  0  0
 19  1  1  0  0  0  0
 20 22  1  0  0  0  0
 22 10  1  6  0  0  0
 22  9  1  0  0  0  0
 23 15  1  0  0  0  0
 25 26  1  0  0  0  0
 26 17  1  0  0  0  0
 27 24  1  6  0  0  0
 27  7  1  0  0  0  0
 28 11  1  0  0  0  0
 28 30  1  0  0  0  0
 29 30  1  0  0  0  0
M  END
>  <MODEL>
9

>  <REMARK>
 VINA RESULT:      -7.5      2.242      5.250
  Name = 
  2 active torsions:
  status: ('A' for Active; 'I' for Inactive)
    1  A    between atoms: C_11  and  N_28
    2  A    between atoms: N_28  and  C_30
                            x       y       z     vdW  Elec       q    Type
                         _______ _______ _______ _____ _____    ______ ____

>  <TORSDO>
F 2

$$$$
