=
 OpenBabel11112417313D

 37 44  0  0  1  0  0  0  0  0999 V2000
  190.8670  176.0270  147.5200 C   0  0  0  0  0  0  0  0  0  0  0  0
  191.5460  175.5540  143.8550 C   0  0  1  0  0  3  0  0  0  0  0  0
  189.3420  176.2480  141.6500 O   0  0  0  0  0  0  0  0  0  0  0  0
  192.6400  176.3500  146.0950 C   0  0  2  0  0  3  0  0  0  0  0  0
  190.1040  175.3060  143.6990 N   0  0  2  0  0  0  0  0  0  0  0  0
  191.6710  176.6400  144.9450 C   0  0  2  0  0  3  0  0  0  0  0  0
  189.6850  175.0520  142.3070 C   0  0  2  0  0  3  0  0  0  0  0  0
  193.9190  175.7610  145.5300 C   0  0  0  0  0  2  0  0  0  0  0  0
  190.2610  176.8920  145.4540 C   0  0  2  0  0  3  0  0  0  0  0  0
  191.0310  177.3200  148.0110 F   0  0  0  0  0  0  0  0  0  0  0  0
  192.4510  173.3400  142.9820 C   0  0  0  0  0  2  0  0  0  0  0  0
  193.6800  174.4340  144.8050 C   0  0  0  0  0  2  0  0  0  0  0  0
  189.9070  175.9880  146.4860 O   0  0  0  0  0  0  0  0  0  0  0  0
  187.1590  175.4490  142.2600 O   0  0  0  0  0  0  0  0  0  0  0  0
  187.9280  176.4270  141.5890 C   0  0  1  0  0  3  0  0  0  0  0  0
  192.2770  174.2390  144.2050 C   0  0  1  0  0  3  0  0  0  0  0  0
  189.4870  176.5330  144.2060 C   0  0  2  0  0  3  0  0  0  0  0  0
  192.0890  175.4870  147.0640 O   0  0  0  0  0  0  0  0  0  0  0  0
  190.6540  174.1720  141.4820 C   0  0  1  0  0  3  0  0  0  0  0  0
  190.4090  175.2400  148.5580 F   0  0  0  0  0  0  0  0  0  0  0  0
  187.2630  176.6920  142.9200 C   0  0  2  0  0  3  0  0  0  0  0  0
  187.9530  176.4340  144.2830 C   0  0  2  0  0  3  0  0  0  0  0  0
  191.1410  172.9850  142.3000 C   0  0  0  0  0  2  0  0  0  0  0  0
  188.9480  172.8360  140.4710 C   0  0  0  0  0  2  0  0  0  0  0  0
  190.1000  173.7000  140.2040 N   0  0  2  0  0  0  0  0  0  0  0  0
  191.1050  172.9760  139.4110 C   0  0  0  0  0  2  0  0  0  0  0  0
  191.2250  172.0830  137.1950 O   0  0  0  0  0  0  0  0  0  0  0  0
  189.0990  172.0780  138.1480 N   0  0  0  0  0  2  0  0  0  0  0  0
  190.4960  172.3860  138.1750 C   0  0  0  0  0  0  0  0  0  0  0  0
  188.1930  172.5900  139.1710 C   0  0  0  0  0  2  0  0  0  0  0  0
  187.3670  177.4140  145.2970 C   0  0  1  0  0  3  0  0  0  0  0  0
  185.9400  177.6440  145.0090 N   0  0  0  0  0  0  0  0  0  0  0  0
  186.3610  176.7430  146.1160 C   0  0  2  0  0  3  0  0  0  0  0  0
  186.3300  177.3580  147.5140 C   0  0  0  0  0  2  0  0  0  0  0  0
  187.5570  177.9280  147.7940 F   0  0  0  0  0  0  0  0  0  0  0  0
  185.6830  179.8570  144.3240 O   0  0  0  0  0  1  0  0  0  0  0  0
  185.6500  179.0120  145.4310 C   0  0  0  0  0  2  0  0  0  0  0  0
  1 10  1  0  0  0  0
  1 20  1  0  0  0  0
  2 16  1  0  0  0  0
  2  6  1  0  0  0  0
  3  7  1  0  0  0  0
  4 18  1  0  0  0  0
  5  2  1  0  0  0  0
  5 17  1  0  0  0  0
  6  9  1  0  0  0  0
  6  4  1  0  0  0  0
  7  5  1  0  0  0  0
  8  4  1  0  0  0  0
  9 13  1  0  0  0  0
 11 16  1  0  0  0  0
 12  8  1  0  0  0  0
 13  1  1  0  0  0  0
 14 21  1  0  0  0  0
 15  3  1  0  0  0  0
 15 14  1  0  0  0  0
 15 21  1  0  0  0  0
 16 12  1  0  0  0  0
 17 22  1  0  0  0  0
 17  9  1  0  0  0  0
 18  1  1  0  0  0  0
 19 23  1  0  0  0  0
 19  7  1  0  0  0  0
 21 22  1  0  0  0  0
 22 31  1  0  0  0  0
 23 11  1  0  0  0  0
 25 24  1  0  0  0  0
 25 19  1  0  0  0  0
 26 25  1  0  0  0  0
 27 29  2  0  0  0  0
 28 29  1  0  0  0  0
 28 30  1  0  0  0  0
 29 26  1  0  0  0  0
 30 24  1  0  0  0  0
 31 33  1  0  0  0  0
 32 31  1  0  0  0  0
 32 37  1  0  0  0  0
 32 33  1  0  0  0  0
 33 34  1  0  0  0  0
 34 35  1  0  0  0  0
 36 37  1  0  0  0  0
M  END
>  <MODEL>
1

>  <REMARK>
 VINA RESULT:      -8.2      0.000      0.000
  Name = 
  4 active torsions:
  status: ('A' for Active; 'I' for Inactive)
    1  A    between atoms: C_1  and  C_27
    2  A    between atoms: N_4  and  C_37
    3  A    between atoms: C_8  and  C_12
    4  A    between atoms: C_23  and  N_30
                            x       y       z     vdW  Elec       q    Type
                         _______ _______ _______ _____ _____    ______ ____

>  <TORSDO>
F 4

$$$$
=
 OpenBabel11112417313D

 37 44  0  0  1  0  0  0  0  0999 V2000
  193.1870  174.9100  145.3120 C   0  0  0  0  0  0  0  0  0  0  0  0
  189.4810  175.3960  144.9280 C   0  0  1  0  0  3  0  0  0  0  0  0
  187.8950  174.1910  142.4310 O   0  0  0  0  0  0  0  0  0  0  0  0
  191.3520  174.9160  146.6940 C   0  0  2  0  0  3  0  0  0  0  0  0
  189.7030  175.3360  143.4740 N   0  0  2  0  0  0  0  0  0  0  0  0
  190.4800  174.3950  145.5480 C   0  0  2  0  0  3  0  0  0  0  0  0
  188.4690  175.4530  142.6730 C   0  0  2  0  0  3  0  0  0  0  0  0
  190.4940  175.7390  147.6370 C   0  0  0  0  0  2  0  0  0  0  0  0
  191.3260  173.8740  144.3970 C   0  0  2  0  0  3  0  0  0  0  0  0
  193.5920  173.6960  145.8610 F   0  0  0  0  0  0  0  0  0  0  0  0
  188.4570  177.7200  145.1000 C   0  0  0  0  0  2  0  0  0  0  0  0
  189.8830  176.9640  146.9510 C   0  0  0  0  0  2  0  0  0  0  0  0
  192.4320  174.7170  144.1360 O   0  0  0  0  0  0  0  0  0  0  0  0
  189.0570  174.5410  140.3570 O   0  0  0  0  0  0  0  0  0  0  0  0
  188.1910  173.7220  141.1170 C   0  0  1  0  0  3  0  0  0  0  0  0
  189.6630  176.8450  145.4330 C   0  0  1  0  0  3  0  0  0  0  0  0
  190.3230  174.0250  143.2750 C   0  0  2  0  0  3  0  0  0  0  0  0
  192.4480  175.6770  146.2390 O   0  0  0  0  0  0  0  0  0  0  0  0
  187.4440  176.4870  143.1960 C   0  0  1  0  0  3  0  0  0  0  0  0
  194.3250  175.6190  144.9790 F   0  0  0  0  0  0  0  0  0  0  0  0
  189.6410  173.3680  140.8820 C   0  0  2  0  0  3  0  0  0  0  0  0
  190.7890  173.8060  141.8240 C   0  0  2  0  0  3  0  0  0  0  0  0
  188.1380  177.7750  143.6160 C   0  0  0  0  0  2  0  0  0  0  0  0
  186.9100  177.5380  141.1170 C   0  0  0  0  0  2  0  0  0  0  0  0
  186.3600  176.7930  142.2510 N   0  0  2  0  0  0  0  0  0  0  0  0
  185.2830  177.5630  142.8910 C   0  0  0  0  0  2  0  0  0  0  0  0
  183.0910  178.2910  142.2710 O   0  0  0  0  0  0  0  0  0  0  0  0
  184.6110  178.1280  140.5130 N   0  0  0  0  0  2  0  0  0  0  0  0
  184.2500  177.9830  141.8900 C   0  0  0  0  0  0  0  0  0  0  0  0
  185.8710  177.5960  140.0030 C   0  0  0  0  0  2  0  0  0  0  0  0
  191.8980  172.7590  141.7320 C   0  0  1  0  0  3  0  0  0  0  0  0
  192.0730  172.3350  140.3310 N   0  0  0  0  0  0  0  0  0  0  0  0
  193.0220  173.2900  140.9660 C   0  0  2  0  0  3  0  0  0  0  0  0
  194.3310  172.6820  141.4690 C   0  0  0  0  0  2  0  0  0  0  0  0
  194.3240  172.6520  142.8500 F   0  0  0  0  0  0  0  0  0  0  0  0
  191.4290  170.1260  140.7010 O   0  0  0  0  0  1  0  0  0  0  0  0
  192.5100  170.9420  140.3750 C   0  0  0  0  0  2  0  0  0  0  0  0
  1 10  1  0  0  0  0
  1 18  1  0  0  0  0
  2 16  1  0  0  0  0
  2  6  1  0  0  0  0
  3  7  1  0  0  0  0
  4  8  1  0  0  0  0
  5  2  1  0  0  0  0
  6  4  1  0  0  0  0
  7 19  1  0  0  0  0
  7  5  1  0  0  0  0
  9  6  1  0  0  0  0
 11 16  1  0  0  0  0
 12  8  1  0  0  0  0
 13  9  1  0  0  0  0
 13  1  1  0  0  0  0
 14 21  1  0  0  0  0
 14 15  1  0  0  0  0
 15  3  1  0  0  0  0
 16 12  1  0  0  0  0
 17  5  1  0  0  0  0
 17  9  1  0  0  0  0
 18  4  1  0  0  0  0
 19 23  1  0  0  0  0
 20  1  1  0  0  0  0
 21 15  1  0  0  0  0
 21 22  1  0  0  0  0
 22 17  1  0  0  0  0
 23 11  1  0  0  0  0
 24 25  1  0  0  0  0
 25 26  1  0  0  0  0
 25 19  1  0  0  0  0
 28 29  1  0  0  0  0
 29 27  2  0  0  0  0
 29 26  1  0  0  0  0
 30 28  1  0  0  0  0
 30 24  1  0  0  0  0
 31 22  1  0  0  0  0
 32 37  1  0  0  0  0
 32 33  1  0  0  0  0
 32 31  1  0  0  0  0
 33 34  1  0  0  0  0
 33 31  1  0  0  0  0
 34 35  1  0  0  0  0
 37 36  1  0  0  0  0
M  END
>  <MODEL>
2

>  <REMARK>
 VINA RESULT:      -7.9      2.603      6.331
  Name = 
  4 active torsions:
  status: ('A' for Active; 'I' for Inactive)
    1  A    between atoms: C_1  and  C_27
    2  A    between atoms: N_4  and  C_37
    3  A    between atoms: C_8  and  C_12
    4  A    between atoms: C_23  and  N_30
                            x       y       z     vdW  Elec       q    Type
                         _______ _______ _______ _____ _____    ______ ____

>  <TORSDO>
F 4

$$$$
=
 OpenBabel11112417313D

 37 44  0  0  1  0  0  0  0  0999 V2000
  194.1520  174.7280  143.5570 C   0  0  0  0  0  0  0  0  0  0  0  0
  190.6400  175.1820  144.8130 C   0  0  1  0  0  3  0  0  0  0  0  0
  188.1170  174.3440  143.0420 O   0  0  0  0  0  0  0  0  0  0  0  0
  193.0480  174.4760  145.5560 C   0  0  2  0  0  3  0  0  0  0  0  0
  190.2420  175.3540  143.4070 N   0  0  2  0  0  0  0  0  0  0  0  0
  191.7600  174.1200  144.8070 C   0  0  2  0  0  3  0  0  0  0  0  0
  188.7940  175.5660  143.2130 C   0  0  2  0  0  3  0  0  0  0  0  0
  192.6890  175.1220  146.8820 C   0  0  0  0  0  2  0  0  0  0  0  0
  192.0350  173.8030  143.3460 C   0  0  2  0  0  3  0  0  0  0  0  0
  194.6930  173.4530  143.7000 F   0  0  0  0  0  0  0  0  0  0  0  0
  189.8790  177.4270  145.7410 C   0  0  0  0  0  2  0  0  0  0  0  0
  191.9040  176.4250  146.7020 C   0  0  0  0  0  2  0  0  0  0  0  0
  192.9730  174.7020  142.7820 O   0  0  0  0  0  0  0  0  0  0  0  0
  188.3390  175.0380  140.7520 O   0  0  0  0  0  0  0  0  0  0  0  0
  187.8270  174.0910  141.6680 C   0  0  1  0  0  3  0  0  0  0  0  0
  191.0760  176.5390  145.4110 C   0  0  1  0  0  3  0  0  0  0  0  0
  190.6680  174.1040  142.7740 C   0  0  2  0  0  3  0  0  0  0  0  0
  193.8920  175.3240  144.8100 O   0  0  0  0  0  0  0  0  0  0  0  0
  188.1210  176.4820  144.2620 C   0  0  1  0  0  3  0  0  0  0  0  0
  195.0810  175.5050  142.8960 F   0  0  0  0  0  0  0  0  0  0  0  0
  189.0360  173.8120  140.8050 C   0  0  2  0  0  3  0  0  0  0  0  0
  190.4880  174.1240  141.2450 C   0  0  2  0  0  3  0  0  0  0  0  0
  188.9810  177.7050  144.5480 C   0  0  0  0  0  2  0  0  0  0  0  0
  186.8000  177.6310  142.6340 C   0  0  0  0  0  2  0  0  0  0  0  0
  186.7580  176.9070  143.9050 N   0  0  2  0  0  0  0  0  0  0  0  0
  186.1620  177.7500  144.9530 C   0  0  0  0  0  2  0  0  0  0  0  0
  184.0010  178.6820  145.3820 O   0  0  0  0  0  0  0  0  0  0  0  0
  184.5400  178.4340  143.1280 N   0  0  0  0  0  2  0  0  0  0  0  0
  184.8290  178.2850  144.5210 C   0  0  0  0  0  0  0  0  0  0  0  0
  185.3790  177.8090  142.1110 C   0  0  0  0  0  2  0  0  0  0  0  0
  191.4140  173.1300  140.5480 C   0  0  1  0  0  3  0  0  0  0  0  0
  191.0090  172.9690  139.1390 N   0  0  0  0  0  0  0  0  0  0  0  0
  192.1810  173.8100  139.5070 C   0  0  2  0  0  3  0  0  0  0  0  0
  193.5460  173.1430  139.3440 C   0  0  0  0  0  2  0  0  0  0  0  0
  194.0320  172.7800  140.5860 F   0  0  0  0  0  0  0  0  0  0  0  0
  190.5070  170.7120  139.4320 O   0  0  0  0  0  1  0  0  0  0  0  0
  191.3510  171.5990  138.7670 C   0  0  0  0  0  2  0  0  0  0  0  0
  1 10  1  0  0  0  0
  1 18  1  0  0  0  0
  2 16  1  0  0  0  0
  3  7  1  0  0  0  0
  4  8  1  0  0  0  0
  5  2  1  0  0  0  0
  6  2  1  0  0  0  0
  6  4  1  0  0  0  0
  7  5  1  0  0  0  0
  7 19  1  0  0  0  0
  9  6  1  0  0  0  0
 12  8  1  0  0  0  0
 13  9  1  0  0  0  0
 13  1  1  0  0  0  0
 14 21  1  0  0  0  0
 14 15  1  0  0  0  0
 15  3  1  0  0  0  0
 16 11  1  0  0  0  0
 16 12  1  0  0  0  0
 17  9  1  0  0  0  0
 17  5  1  0  0  0  0
 18  4  1  0  0  0  0
 19 23  1  0  0  0  0
 20  1  1  0  0  0  0
 21 22  1  0  0  0  0
 21 15  1  0  0  0  0
 22 17  1  0  0  0  0
 23 11  1  0  0  0  0
 24 25  1  0  0  0  0
 25 19  1  0  0  0  0
 25 26  1  0  0  0  0
 28 29  1  0  0  0  0
 29 26  1  0  0  0  0
 29 27  2  0  0  0  0
 30 24  1  0  0  0  0
 30 28  1  0  0  0  0
 31 22  1  0  0  0  0
 32 33  1  0  0  0  0
 32 31  1  0  0  0  0
 33 31  1  0  0  0  0
 34 33  1  0  0  0  0
 34 35  1  0  0  0  0
 37 32  1  0  0  0  0
 37 36  1  0  0  0  0
M  END
>  <MODEL>
3

>  <REMARK>
 VINA RESULT:      -7.6      2.729      6.681
  Name = 
  4 active torsions:
  status: ('A' for Active; 'I' for Inactive)
    1  A    between atoms: C_1  and  C_27
    2  A    between atoms: N_4  and  C_37
    3  A    between atoms: C_8  and  C_12
    4  A    between atoms: C_23  and  N_30
                            x       y       z     vdW  Elec       q    Type
                         _______ _______ _______ _____ _____    ______ ____

>  <TORSDO>
F 4

$$$$
=
 OpenBabel11112417313D

 37 44  0  0  1  0  0  0  0  0999 V2000
  187.2750  176.7670  141.5340 C   0  0  0  0  0  0  0  0  0  0  0  0
  189.8450  174.3730  142.8690 C   0  0  1  0  0  3  0  0  0  0  0  0
  190.7420  174.4330  145.9340 O   0  0  0  0  0  0  0  0  0  0  0  0
  187.7990  174.5490  141.2470 C   0  0  2  0  0  3  0  0  0  0  0  0
  190.2060  175.4220  143.8350 N   0  0  2  0  0  0  0  0  0  0  0  0
  188.3150  174.4780  142.6870 C   0  0  2  0  0  3  0  0  0  0  0  0
  191.2740  175.0300  144.7770 C   0  0  2  0  0  3  0  0  0  0  0  0
  188.5470  173.5350  140.4000 C   0  0  0  0  0  2  0  0  0  0  0  0
  187.8750  175.6870  143.4970 C   0  0  2  0  0  3  0  0  0  0  0  0
  185.9440  176.4210  141.7520 F   0  0  0  0  0  0  0  0  0  0  0  0
  192.0860  174.0940  141.6940 C   0  0  0  0  0  2  0  0  0  0  0  0
  190.0510  173.8160  140.3470 C   0  0  0  0  0  2  0  0  0  0  0  0
  187.9810  176.8850  142.7500 O   0  0  0  0  0  0  0  0  0  0  0  0
  191.1110  176.6700  146.7330 O   0  0  0  0  0  0  0  0  0  0  0  0
  190.7060  175.3480  147.0280 C   0  0  1  0  0  3  0  0  0  0  0  0
  190.6390  174.5630  141.5570 C   0  0  1  0  0  3  0  0  0  0  0  0
  188.9560  175.6740  144.5540 C   0  0  2  0  0  3  0  0  0  0  0  0
  187.9210  175.8390  140.6900 O   0  0  0  0  0  0  0  0  0  0  0  0
  192.4260  174.2070  144.1530 C   0  0  1  0  0  3  0  0  0  0  0  0
  187.2900  177.9980  140.9100 F   0  0  0  0  0  0  0  0  0  0  0  0
  189.7190  176.4820  146.8750 C   0  0  2  0  0  3  0  0  0  0  0  0
  189.0620  176.8630  145.5260 C   0  0  2  0  0  3  0  0  0  0  0  0
  192.8460  174.7890  142.8100 C   0  0  0  0  0  2  0  0  0  0  0  0
  194.3460  175.3250  145.0350 C   0  0  0  0  0  2  0  0  0  0  0  0
  193.6040  174.0630  145.0220 N   0  0  2  0  0  0  0  0  0  0  0  0
  194.4760  172.9650  144.5770 C   0  0  0  0  0  2  0  0  0  0  0  0
  196.4090  171.8520  145.4390 O   0  0  0  0  0  0  0  0  0  0  0  0
  196.2230  174.1010  146.0200 N   0  0  0  0  0  2  0  0  0  0  0  0
  195.7360  172.9140  145.3870 C   0  0  0  0  0  0  0  0  0  0  0  0
  195.3830  175.2870  146.1510 C   0  0  0  0  0  2  0  0  0  0  0  0
  187.6970  177.4790  145.8260 C   0  0  1  0  0  3  0  0  0  0  0  0
  186.8480  176.5000  146.5310 N   0  0  0  0  0  0  0  0  0  0  0  0
  187.5150  177.6060  147.2700 C   0  0  2  0  0  3  0  0  0  0  0  0
  186.6340  178.8160  147.5810 C   0  0  0  0  0  2  0  0  0  0  0  0
  187.0690  179.4150  148.7470 F   0  0  0  0  0  0  0  0  0  0  0  0
  185.4410  177.1570  144.7930 O   0  0  0  0  0  1  0  0  0  0  0  0
  185.4720  176.7910  146.1370 C   0  0  0  0  0  2  0  0  0  0  0  0
  1 10  1  0  0  0  0
  1 13  1  0  0  0  0
  2  5  1  0  0  0  0
  3 15  1  0  0  0  0
  4  6  1  0  0  0  0
  5 17  1  0  0  0  0
  5  7  1  0  0  0  0
  6  2  1  0  0  0  0
  6  9  1  0  0  0  0
  7  3  1  0  0  0  0
  8  4  1  0  0  0  0
  9 17  1  0  0  0  0
 11 23  1  0  0  0  0
 12  8  1  0  0  0  0
 12 16  1  0  0  0  0
 13  9  1  0  0  0  0
 14 21  1  0  0  0  0
 14 15  1  0  0  0  0
 16 11  1  0  0  0  0
 16  2  1  0  0  0  0
 17 22  1  0  0  0  0
 18  4  1  0  0  0  0
 18  1  1  0  0  0  0
 19  7  1  0  0  0  0
 19 25  1  0  0  0  0
 20  1  1  0  0  0  0
 21 15  1  0  0  0  0
 22 31  1  0  0  0  0
 22 21  1  0  0  0  0
 23 19  1  0  0  0  0
 24 30  1  0  0  0  0
 25 24  1  0  0  0  0
 26 25  1  0  0  0  0
 26 29  1  0  0  0  0
 28 30  1  0  0  0  0
 29 27  2  0  0  0  0
 29 28  1  0  0  0  0
 31 32  1  0  0  0  0
 31 33  1  0  0  0  0
 32 33  1  0  0  0  0
 33 34  1  0  0  0  0
 34 35  1  0  0  0  0
 36 37  1  0  0  0  0
 37 32  1  0  0  0  0
M  END
>  <MODEL>
4

>  <REMARK>
 VINA RESULT:      -7.5      2.600      5.616
  Name = 
  4 active torsions:
  status: ('A' for Active; 'I' for Inactive)
    1  A    between atoms: C_1  and  C_27
    2  A    between atoms: N_4  and  C_37
    3  A    between atoms: C_8  and  C_12
    4  A    between atoms: C_23  and  N_30
                            x       y       z     vdW  Elec       q    Type
                         _______ _______ _______ _____ _____    ______ ____

>  <TORSDO>
F 4

$$$$
=
 OpenBabel11112417313D

 37 44  0  0  1  0  0  0  0  0999 V2000
  187.2250  176.8940  147.4220 C   0  0  0  0  0  0  0  0  0  0  0  0
  189.8320  176.0080  144.8650 C   0  0  1  0  0  3  0  0  0  0  0  0
  189.2020  176.1260  141.7360 O   0  0  0  0  0  0  0  0  0  0  0  0
  189.4820  177.2280  147.1550 C   0  0  2  0  0  3  0  0  0  0  0  0
  188.7240  175.5710  144.0020 N   0  0  2  0  0  0  0  0  0  0  0  0
  189.3060  177.2400  145.6330 C   0  0  2  0  0  3  0  0  0  0  0  0
  189.1520  175.0800  142.6770 C   0  0  2  0  0  3  0  0  0  0  0  0
  190.8740  176.7230  147.4900 C   0  0  0  0  0  2  0  0  0  0  0  0
  187.8440  177.3890  145.2430 C   0  0  2  0  0  3  0  0  0  0  0  0
  187.0590  178.2520  147.6820 F   0  0  0  0  0  0  0  0  0  0  0  0
  191.1200  173.8180  145.0370 C   0  0  0  0  0  2  0  0  0  0  0  0
  191.1070  175.2900  147.0030 C   0  0  0  0  0  2  0  0  0  0  0  0
  187.0000  176.6000  146.0600 O   0  0  0  0  0  0  0  0  0  0  0  0
  187.0660  175.1640  141.1990 O   0  0  0  0  0  0  0  0  0  0  0  0
  188.0550  176.1250  140.8890 C   0  0  1  0  0  3  0  0  0  0  0  0
  190.2770  174.8490  145.7860 C   0  0  1  0  0  3  0  0  0  0  0  0
  187.9000  176.7730  143.8630 C   0  0  2  0  0  3  0  0  0  0  0  0
  188.5070  176.4460  147.8070 O   0  0  0  0  0  0  0  0  0  0  0  0
  190.4360  174.2180  142.6820 C   0  0  1  0  0  3  0  0  0  0  0  0
  186.2880  176.2080  148.1680 F   0  0  0  0  0  0  0  0  0  0  0  0
  186.7590  176.4890  141.5740 C   0  0  2  0  0  3  0  0  0  0  0  0
  186.5840  176.5040  143.1130 C   0  0  2  0  0  3  0  0  0  0  0  0
  190.4160  173.2200  143.8320 C   0  0  0  0  0  2  0  0  0  0  0  0
  189.5530  172.6480  141.1100 C   0  0  0  0  0  2  0  0  0  0  0  0
  190.6940  173.5120  141.4180 N   0  0  2  0  0  0  0  0  0  0  0  0
  191.9310  172.7180  141.4820 C   0  0  0  0  0  2  0  0  0  0  0  0
  193.2560  171.4770  139.9250 O   0  0  0  0  0  0  0  0  0  0  0  0
  190.9720  171.5230  139.4630 N   0  0  0  0  0  2  0  0  0  0  0  0
  192.1130  171.9010  140.2380 C   0  0  0  0  0  0  0  0  0  0  0  0
  189.6720  172.1510  139.6740 C   0  0  0  0  0  2  0  0  0  0  0  0
  185.5110  177.5380  143.4530 C   0  0  1  0  0  3  0  0  0  0  0  0
  185.9210  178.8670  142.9630 N   0  0  0  0  0  0  0  0  0  0  0  0
  184.9130  178.0570  142.2250 C   0  0  2  0  0  3  0  0  0  0  0  0
  183.4530  178.4350  142.4750 C   0  0  0  0  0  2  0  0  0  0  0  0
  182.6640  177.9140  141.4680 F   0  0  0  0  0  0  0  0  0  0  0  0
  185.5680  179.4280  145.1970 O   0  0  0  0  0  1  0  0  0  0  0  0
  185.3430  179.8400  143.8860 C   0  0  0  0  0  2  0  0  0  0  0  0
  1 10  1  0  0  0  0
  1 18  1  0  0  0  0
  1 20  1  0  0  0  0
  2  6  1  0  0  0  0
  2 16  1  0  0  0  0
  3  7  1  0  0  0  0
  4  8  1  0  0  0  0
  4 18  1  0  0  0  0
  5  2  1  0  0  0  0
  6  4  1  0  0  0  0
  7 19  1  0  0  0  0
  7  5  1  0  0  0  0
  9  6  1  0  0  0  0
  9 13  1  0  0  0  0
 11 16  1  0  0  0  0
 12  8  1  0  0  0  0
 13  1  1  0  0  0  0
 14 21  1  0  0  0  0
 15 14  1  0  0  0  0
 15 21  1  0  0  0  0
 15  3  1  0  0  0  0
 16 12  1  0  0  0  0
 17  5  1  0  0  0  0
 17  9  1  0  0  0  0
 19 23  1  0  0  0  0
 21 22  1  0  0  0  0
 22 31  1  0  0  0  0
 22 17  1  0  0  0  0
 23 11  1  0  0  0  0
 24 25  1  0  0  0  0
 25 26  1  0  0  0  0
 25 19  1  0  0  0  0
 27 29  2  0  0  0  0
 28 30  1  0  0  0  0
 28 29  1  0  0  0  0
 29 26  1  0  0  0  0
 30 24  1  0  0  0  0
 32 31  1  0  0  0  0
 32 37  1  0  0  0  0
 33 34  1  0  0  0  0
 33 32  1  0  0  0  0
 33 31  1  0  0  0  0
 35 34  1  0  0  0  0
 37 36  1  0  0  0  0
M  END
>  <MODEL>
5

>  <REMARK>
 VINA RESULT:      -7.3      2.137      2.969
  Name = 
  4 active torsions:
  status: ('A' for Active; 'I' for Inactive)
    1  A    between atoms: C_1  and  C_27
    2  A    between atoms: N_4  and  C_37
    3  A    between atoms: C_8  and  C_12
    4  A    between atoms: C_23  and  N_30
                            x       y       z     vdW  Elec       q    Type
                         _______ _______ _______ _____ _____    ______ ____

>  <TORSDO>
F 4

$$$$
=
 OpenBabel11112417313D

 37 44  0  0  1  0  0  0  0  0999 V2000
  190.0900  176.3190  146.3640 C   0  0  0  0  0  0  0  0  0  0  0  0
  191.8530  174.3410  143.7000 C   0  0  1  0  0  3  0  0  0  0  0  0
  190.5470  173.8930  140.8200 O   0  0  0  0  0  0  0  0  0  0  0  0
  192.2480  176.0860  145.6110 C   0  0  2  0  0  3  0  0  0  0  0  0
  190.5190  173.9740  143.2000 N   0  0  2  0  0  0  0  0  0  0  0  0
  191.7300  175.7970  144.1990 C   0  0  2  0  0  3  0  0  0  0  0  0
  190.5430  173.1200  141.9950 C   0  0  2  0  0  3  0  0  0  0  0  0
  193.5760  175.3780  145.8070 C   0  0  0  0  0  2  0  0  0  0  0  0
  190.2630  176.1700  144.0560 C   0  0  2  0  0  3  0  0  0  0  0  0
  190.2150  177.7040  146.2830 F   0  0  0  0  0  0  0  0  0  0  0  0
  192.7660  172.0190  144.2050 C   0  0  0  0  0  2  0  0  0  0  0  0
  193.4510  173.8570  145.6810 C   0  0  0  0  0  2  0  0  0  0  0  0
  189.5120  175.7850  145.1930 O   0  0  0  0  0  0  0  0  0  0  0  0
  188.2160  173.3240  140.9540 O   0  0  0  0  0  0  0  0  0  0  0  0
  189.2520  173.9530  140.2260 C   0  0  1  0  0  3  0  0  0  0  0  0
  192.3010  173.3480  144.7960 C   0  0  1  0  0  3  0  0  0  0  0  0
  189.8960  175.2650  142.9010 C   0  0  2  0  0  3  0  0  0  0  0  0
  191.3340  175.7000  146.6130 O   0  0  0  0  0  0  0  0  0  0  0  0
  191.6330  172.0220  141.9940 C   0  0  1  0  0  3  0  0  0  0  0  0
  189.2500  176.0370  147.4230 F   0  0  0  0  0  0  0  0  0  0  0  0
  188.2270  174.7340  141.0160 C   0  0  2  0  0  3  0  0  0  0  0  0
  188.4160  175.1290  142.5020 C   0  0  2  0  0  3  0  0  0  0  0  0
  191.7140  171.3340  143.3490 C   0  0  0  0  0  2  0  0  0  0  0  0
  191.3260  169.6930  141.5490 C   0  0  0  0  0  2  0  0  0  0  0  0
  191.4720  171.0140  140.9350 N   0  0  2  0  0  0  0  0  0  0  0  0
  192.6100  171.0190  140.0030 C   0  0  0  0  0  2  0  0  0  0  0  0
  193.1280  169.9630  137.9210 O   0  0  0  0  0  0  0  0  0  0  0  0
  191.7580  168.7250  139.3420 N   0  0  0  0  0  2  0  0  0  0  0  0
  192.4990  169.9020  139.0090 C   0  0  0  0  0  0  0  0  0  0  0  0
  190.8610  168.6970  140.4940 C   0  0  0  0  0  2  0  0  0  0  0  0
  187.6370  176.4190  142.7470 C   0  0  1  0  0  3  0  0  0  0  0  0
  186.6020  176.5860  141.7110 N   0  0  0  0  0  0  0  0  0  0  0  0
  186.2480  176.1080  143.0760 C   0  0  2  0  0  3  0  0  0  0  0  0
  185.6840  177.1700  144.0200 C   0  0  0  0  0  2  0  0  0  0  0  0
  185.5540  176.6360  145.2870 F   0  0  0  0  0  0  0  0  0  0  0  0
  185.7170  178.2610  140.3530 O   0  0  0  0  0  1  0  0  0  0  0  0
  186.4370  178.0250  141.5220 C   0  0  0  0  0  2  0  0  0  0  0  0
  1 18  1  0  0  0  0
  1 20  1  0  0  0  0
  2  6  1  0  0  0  0
  2 16  1  0  0  0  0
  3  7  1  0  0  0  0
  4  8  1  0  0  0  0
  4 18  1  0  0  0  0
  5  2  1  0  0  0  0
  6  4  1  0  0  0  0
  7  5  1  0  0  0  0
  9  6  1  0  0  0  0
  9 13  1  0  0  0  0
 10  1  1  0  0  0  0
 11 16  1  0  0  0  0
 12  8  1  0  0  0  0
 13  1  1  0  0  0  0
 14 21  1  0  0  0  0
 15  3  1  0  0  0  0
 15 14  1  0  0  0  0
 15 21  1  0  0  0  0
 16 12  1  0  0  0  0
 17  5  1  0  0  0  0
 17  9  1  0  0  0  0
 19  7  1  0  0  0  0
 19 23  1  0  0  0  0
 21 22  1  0  0  0  0
 22 31  1  0  0  0  0
 22 17  1  0  0  0  0
 23 11  1  0  0  0  0
 25 24  1  0  0  0  0
 25 19  1  0  0  0  0
 26 25  1  0  0  0  0
 27 29  2  0  0  0  0
 28 30  1  0  0  0  0
 29 28  1  0  0  0  0
 29 26  1  0  0  0  0
 30 24  1  0  0  0  0
 31 33  1  0  0  0  0
 32 31  1  0  0  0  0
 32 33  1  0  0  0  0
 33 34  1  0  0  0  0
 34 35  1  0  0  0  0
 36 37  1  0  0  0  0
 37 32  1  0  0  0  0
M  END
>  <MODEL>
6

>  <REMARK>
 VINA RESULT:      -7.2      2.221      2.689
  Name = 
  4 active torsions:
  status: ('A' for Active; 'I' for Inactive)
    1  A    between atoms: C_1  and  C_27
    2  A    between atoms: N_4  and  C_37
    3  A    between atoms: C_8  and  C_12
    4  A    between atoms: C_23  and  N_30
                            x       y       z     vdW  Elec       q    Type
                         _______ _______ _______ _____ _____    ______ ____

>  <TORSDO>
F 4

$$$$
=
 OpenBabel11112417313D

 37 44  0  0  1  0  0  0  0  0999 V2000
  193.0910  172.1450  143.0010 C   0  0  0  0  0  0  0  0  0  0  0  0
  190.5710  174.3960  141.3580 C   0  0  1  0  0  3  0  0  0  0  0  0
  190.0630  177.3700  142.4060 O   0  0  0  0  0  0  0  0  0  0  0  0
  192.4080  172.6010  140.8550 C   0  0  2  0  0  3  0  0  0  0  0  0
  190.3920  175.0270  142.6750 N   0  0  2  0  0  0  0  0  0  0  0  0
  192.0700  174.0380  141.2620 C   0  0  2  0  0  3  0  0  0  0  0  0
  189.4270  176.1450  142.6800 C   0  0  2  0  0  3  0  0  0  0  0  0
  191.5040  172.1830  139.7100 C   0  0  0  0  0  2  0  0  0  0  0  0
  192.6760  174.3930  142.6110 C   0  0  2  0  0  3  0  0  0  0  0  0
  194.4160  172.3230  142.6130 F   0  0  0  0  0  0  0  0  0  0  0  0
  188.1900  173.5920  140.9510 C   0  0  0  0  0  2  0  0  0  0  0  0
  190.0230  172.1980  140.1000 C   0  0  0  0  0  2  0  0  0  0  0  0
  192.5480  173.3310  143.5380 O   0  0  0  0  0  0  0  0  0  0  0  0
  189.9250  177.4810  144.8030 O   0  0  0  0  0  0  0  0  0  0  0  0
  190.2860  178.1240  143.5960 C   0  0  1  0  0  3  0  0  0  0  0  0
  189.6340  173.1750  141.2230 C   0  0  1  0  0  3  0  0  0  0  0  0
  191.7340  175.5060  143.0120 C   0  0  2  0  0  3  0  0  0  0  0  0
  192.2930  171.6920  141.9270 O   0  0  0  0  0  0  0  0  0  0  0  0
  188.1620  175.9200  141.8180 C   0  0  1  0  0  3  0  0  0  0  0  0
  193.0700  171.1790  143.9870 F   0  0  0  0  0  0  0  0  0  0  0  0
  191.3100  177.5350  144.5380 C   0  0  2  0  0  3  0  0  0  0  0  0
  191.8180  176.0740  144.4400 C   0  0  2  0  0  3  0  0  0  0  0  0
  187.6140  174.5130  142.0130 C   0  0  0  0  0  2  0  0  0  0  0  0
  186.2170  176.4190  143.1150 C   0  0  0  0  0  2  0  0  0  0  0  0
  187.0940  176.9050  142.0480 N   0  0  2  0  0  0  0  0  0  0  0  0
  186.3160  177.1570  140.8260 C   0  0  0  0  0  2  0  0  0  0  0  0
  184.6110  178.6980  140.1640 O   0  0  0  0  0  0  0  0  0  0  0  0
  184.5910  178.1120  142.4190 N   0  0  0  0  0  2  0  0  0  0  0  0
  185.1500  178.0580  141.1030 C   0  0  0  0  0  0  0  0  0  0  0  0
  185.2990  177.5500  143.5650 C   0  0  0  0  0  2  0  0  0  0  0  0
  193.2430  176.0350  144.9880 C   0  0  1  0  0  3  0  0  0  0  0  0
  193.2620  176.5380  146.3740 N   0  0  0  0  0  0  0  0  0  0  0  0
  193.3270  175.0790  146.0890 C   0  0  2  0  0  3  0  0  0  0  0  0
  194.7230  174.4590  146.1370 C   0  0  0  0  0  2  0  0  0  0  0  0
  195.2190  174.3410  144.8530 F   0  0  0  0  0  0  0  0  0  0  0  0
  194.8910  177.9160  145.4350 O   0  0  0  0  0  1  0  0  0  0  0  0
  194.5670  177.1660  146.5650 C   0  0  0  0  0  2  0  0  0  0  0  0
  1 13  1  0  0  0  0
  1 20  1  0  0  0  0
  2  5  1  0  0  0  0
  3  7  1  0  0  0  0
  3 15  1  0  0  0  0
  4  6  1  0  0  0  0
  4 18  1  0  0  0  0
  5  7  1  0  0  0  0
  5 17  1  0  0  0  0
  6  2  1  0  0  0  0
  6  9  1  0  0  0  0
  8 12  1  0  0  0  0
  8  4  1  0  0  0  0
  9 17  1  0  0  0  0
  9 13  1  0  0  0  0
 10  1  1  0  0  0  0
 11 16  1  0  0  0  0
 11 23  1  0  0  0  0
 12 16  1  0  0  0  0
 15 21  1  0  0  0  0
 15 14  1  0  0  0  0
 16  2  1  0  0  0  0
 17 22  1  0  0  0  0
 18  1  1  0  0  0  0
 19 23  1  0  0  0  0
 19 25  1  0  0  0  0
 19  7  1  0  0  0  0
 21 14  1  0  0  0  0
 22 21  1  0  0  0  0
 22 31  1  0  0  0  0
 24 30  1  0  0  0  0
 25 24  1  0  0  0  0
 26 29  1  0  0  0  0
 26 25  1  0  0  0  0
 27 29  2  0  0  0  0
 28 30  1  0  0  0  0
 29 28  1  0  0  0  0
 31 33  1  0  0  0  0
 31 32  1  0  0  0  0
 32 37  1  0  0  0  0
 33 34  1  0  0  0  0
 33 32  1  0  0  0  0
 35 34  1  0  0  0  0
 36 37  1  0  0  0  0
M  END
>  <MODEL>
7

>  <REMARK>
 VINA RESULT:      -7.2      3.126      6.160
  Name = 
  4 active torsions:
  status: ('A' for Active; 'I' for Inactive)
    1  A    between atoms: C_1  and  C_27
    2  A    between atoms: N_4  and  C_37
    3  A    between atoms: C_8  and  C_12
    4  A    between atoms: C_23  and  N_30
                            x       y       z     vdW  Elec       q    Type
                         _______ _______ _______ _____ _____    ______ ____

>  <TORSDO>
F 4

$$$$
=
 OpenBabel11112417313D

 37 44  0  0  1  0  0  0  0  0999 V2000
  195.3100  175.4940  142.5170 C   0  0  0  0  0  0  0  0  0  0  0  0
  192.3910  175.0430  144.8400 C   0  0  1  0  0  3  0  0  0  0  0  0
  189.5790  173.9520  143.7880 O   0  0  0  0  0  0  0  0  0  0  0  0
  194.9860  174.7530  144.6670 C   0  0  2  0  0  3  0  0  0  0  0  0
  191.5270  175.3180  143.6810 N   0  0  2  0  0  0  0  0  0  0  0  0
  193.5920  174.2450  144.2890 C   0  0  2  0  0  3  0  0  0  0  0  0
  190.0820  175.2520  143.9800 C   0  0  2  0  0  3  0  0  0  0  0  0
  194.9970  175.1260  146.1380 C   0  0  0  0  0  2  0  0  0  0  0  0
  193.4090  174.1920  142.7800 C   0  0  2  0  0  3  0  0  0  0  0  0
  196.0530  174.3510  142.2380 F   0  0  0  0  0  0  0  0  0  0  0  0
  191.6530  176.9370  146.3730 C   0  0  0  0  0  2  0  0  0  0  0  0
  194.0100  176.2520  146.4620 C   0  0  0  0  0  2  0  0  0  0  0  0
  193.9580  175.3330  142.1460 O   0  0  0  0  0  0  0  0  0  0  0  0
  188.9180  174.9800  141.7190 O   0  0  0  0  0  0  0  0  0  0  0  0
  188.8900  173.8330  142.5450 C   0  0  1  0  0  3  0  0  0  0  0  0
  192.7920  176.3670  145.5290 C   0  0  1  0  0  3  0  0  0  0  0  0
  191.9000  174.2800  142.7190 C   0  0  2  0  0  3  0  0  0  0  0  0
  195.3960  175.8500  143.8810 O   0  0  0  0  0  0  0  0  0  0  0  0
  189.6670  175.8590  145.3410 C   0  0  1  0  0  3  0  0  0  0  0  0
  195.8370  176.5290  141.7700 F   0  0  0  0  0  0  0  0  0  0  0  0
  189.7690  173.9270  141.3200 C   0  0  2  0  0  3  0  0  0  0  0  0
  191.2200  174.4700  141.3510 C   0  0  2  0  0  3  0  0  0  0  0  0
  190.3790  177.1830  145.5850 C   0  0  0  0  0  2  0  0  0  0  0  0
  187.7070  176.8520  144.3970 C   0  0  0  0  0  2  0  0  0  0  0  0
  188.2160  176.0390  145.5030 N   0  0  2  0  0  0  0  0  0  0  0  0
  187.8890  176.6700  146.7910 C   0  0  0  0  0  2  0  0  0  0  0  0
  185.8870  177.1320  148.0150 O   0  0  0  0  0  0  0  0  0  0  0  0
  185.6560  177.1650  145.6970 N   0  0  0  0  0  2  0  0  0  0  0  0
  186.4230  176.9690  146.8880 C   0  0  0  0  0  0  0  0  0  0  0  0
  186.1850  176.7920  144.3880 C   0  0  0  0  0  2  0  0  0  0  0  0
  191.9990  173.7910  140.2270 C   0  0  1  0  0  3  0  0  0  0  0  0
  191.5780  172.3830  140.1010 N   0  0  0  0  0  0  0  0  0  0  0  0
  191.0900  173.4160  139.1470 C   0  0  2  0  0  3  0  0  0  0  0  0
  191.8220  173.4700  137.8060 C   0  0  0  0  0  2  0  0  0  0  0  0
  190.9650  173.9500  136.8330 F   0  0  0  0  0  0  0  0  0  0  0  0
  192.8590  170.4520  140.3470 O   0  0  0  0  0  1  0  0  0  0  0  0
  192.7480  171.6440  139.6340 C   0  0  0  0  0  2  0  0  0  0  0  0
  1 18  1  0  0  0  0
  2 16  1  0  0  0  0
  3  7  1  0  0  0  0
  4  8  1  0  0  0  0
  5  7  1  0  0  0  0
  5  2  1  0  0  0  0
  6  4  1  0  0  0  0
  6  2  1  0  0  0  0
  7 19  1  0  0  0  0
  8 12  1  0  0  0  0
  9  6  1  0  0  0  0
 10  1  1  0  0  0  0
 13  1  1  0  0  0  0
 13  9  1  0  0  0  0
 14 15  1  0  0  0  0
 15  3  1  0  0  0  0
 16 11  1  0  0  0  0
 16 12  1  0  0  0  0
 17  9  1  0  0  0  0
 17  5  1  0  0  0  0
 18  4  1  0  0  0  0
 19 25  1  0  0  0  0
 19 23  1  0  0  0  0
 20  1  1  0  0  0  0
 21 22  1  0  0  0  0
 21 14  1  0  0  0  0
 21 15  1  0  0  0  0
 22 17  1  0  0  0  0
 23 11  1  0  0  0  0
 24 25  1  0  0  0  0
 25 26  1  0  0  0  0
 26 29  1  0  0  0  0
 28 29  1  0  0  0  0
 29 27  2  0  0  0  0
 30 24  1  0  0  0  0
 30 28  1  0  0  0  0
 31 22  1  0  0  0  0
 32 31  1  0  0  0  0
 33 32  1  0  0  0  0
 33 31  1  0  0  0  0
 34 33  1  0  0  0  0
 35 34  1  0  0  0  0
 37 32  1  0  0  0  0
 37 36  1  0  0  0  0
M  END
>  <MODEL>
8

>  <REMARK>
 VINA RESULT:      -7.0      3.345      7.059
  Name = 
  4 active torsions:
  status: ('A' for Active; 'I' for Inactive)
    1  A    between atoms: C_1  and  C_27
    2  A    between atoms: N_4  and  C_37
    3  A    between atoms: C_8  and  C_12
    4  A    between atoms: C_23  and  N_30
                            x       y       z     vdW  Elec       q    Type
                         _______ _______ _______ _____ _____    ______ ____

>  <TORSDO>
F 4

$$$$
=
 OpenBabel11112417313D

 37 44  0  0  1  0  0  0  0  0999 V2000
  193.1240  171.6190  141.5430 C   0  0  0  0  0  0  0  0  0  0  0  0
  190.7010  174.4880  141.4350 C   0  0  1  0  0  3  0  0  0  0  0  0
  191.1900  177.1460  143.1390 O   0  0  0  0  0  0  0  0  0  0  0  0
  191.8550  172.6730  139.9440 C   0  0  2  0  0  3  0  0  0  0  0  0
  191.1140  174.7880  142.8150 N   0  0  2  0  0  0  0  0  0  0  0  0
  191.9720  173.9920  140.7130 C   0  0  2  0  0  3  0  0  0  0  0  0
  190.4540  175.9740  143.3960 C   0  0  2  0  0  3  0  0  0  0  0  0
  190.5500  172.6630  139.1710 C   0  0  0  0  0  2  0  0  0  0  0  0
  193.0610  173.9260  141.7720 C   0  0  2  0  0  3  0  0  0  0  0  0
  194.2440  171.7320  140.7230 F   0  0  0  0  0  0  0  0  0  0  0  0
  188.2150  174.0960  141.8170 C   0  0  0  0  0  2  0  0  0  0  0  0
  189.3270  172.7530  140.0880 C   0  0  0  0  0  2  0  0  0  0  0  0
  193.0480  172.6890  142.4600 O   0  0  0  0  0  0  0  0  0  0  0  0
  191.9060  176.6710  145.3830 O   0  0  0  0  0  0  0  0  0  0  0  0
  191.9530  177.5470  144.2750 C   0  0  1  0  0  3  0  0  0  0  0  0
  189.5490  173.4580  141.4370 C   0  0  1  0  0  3  0  0  0  0  0  0
  192.5580  175.0070  142.7020 C   0  0  2  0  0  3  0  0  0  0  0  0
  191.9340  171.5450  140.7880 O   0  0  0  0  0  0  0  0  0  0  0  0
  188.9530  176.1210  143.0530 C   0  0  1  0  0  3  0  0  0  0  0  0
  193.2490  170.4470  142.2630 F   0  0  0  0  0  0  0  0  0  0  0  0
  193.0980  176.6260  144.6280 C   0  0  2  0  0  3  0  0  0  0  0  0
  193.2370  175.1870  144.0710 C   0  0  2  0  0  3  0  0  0  0  0  0
  188.2350  174.7840  143.1710 C   0  0  0  0  0  2  0  0  0  0  0  0
  187.8010  176.5290  145.1070 C   0  0  0  0  0  2  0  0  0  0  0  0
  188.2490  177.1350  143.8520 N   0  0  2  0  0  0  0  0  0  0  0  0
  187.1030  177.7010  143.1230 C   0  0  0  0  0  2  0  0  0  0  0  0
  185.5640  179.4980  143.4730 O   0  0  0  0  0  0  0  0  0  0  0  0
  186.3460  178.4740  145.4150 N   0  0  0  0  0  2  0  0  0  0  0  0
  186.3160  178.6330  143.9940 C   0  0  0  0  0  0  0  0  0  0  0  0
  187.3440  177.6280  146.0600 C   0  0  0  0  0  2  0  0  0  0  0  0
  194.7250  174.8450  144.0210 C   0  0  1  0  0  3  0  0  0  0  0  0
  195.5280  176.0660  144.2170 N   0  0  0  0  0  0  0  0  0  0  0  0
  195.3370  175.0900  145.3240 C   0  0  2  0  0  3  0  0  0  0  0  0
  196.4920  174.1150  145.5490 C   0  0  0  0  0  2  0  0  0  0  0  0
  196.8000  174.0690  146.8960 F   0  0  0  0  0  0  0  0  0  0  0  0
  197.3080  177.1150  143.1380 O   0  0  0  0  0  1  0  0  0  0  0  0
  196.7610  175.8740  143.4590 C   0  0  0  0  0  2  0  0  0  0  0  0
  1 20  1  0  0  0  0
  1 13  1  0  0  0  0
  2 16  1  0  0  0  0
  2  5  1  0  0  0  0
  3  7  1  0  0  0  0
  3 15  1  0  0  0  0
  4  6  1  0  0  0  0
  4 18  1  0  0  0  0
  5  7  1  0  0  0  0
  6  2  1  0  0  0  0
  6  9  1  0  0  0  0
  8  4  1  0  0  0  0
  8 12  1  0  0  0  0
  9 13  1  0  0  0  0
  9 17  1  0  0  0  0
 10  1  1  0  0  0  0
 11 23  1  0  0  0  0
 12 16  1  0  0  0  0
 15 21  1  0  0  0  0
 15 14  1  0  0  0  0
 16 11  1  0  0  0  0
 17  5  1  0  0  0  0
 17 22  1  0  0  0  0
 18  1  1  0  0  0  0
 19 23  1  0  0  0  0
 19  7  1  0  0  0  0
 19 25  1  0  0  0  0
 21 14  1  0  0  0  0
 22 21  1  0  0  0  0
 24 30  1  0  0  0  0
 25 24  1  0  0  0  0
 26 25  1  0  0  0  0
 26 29  1  0  0  0  0
 27 29  2  0  0  0  0
 28 30  1  0  0  0  0
 29 28  1  0  0  0  0
 31 22  1  0  0  0  0
 31 32  1  0  0  0  0
 31 33  1  0  0  0  0
 32 33  1  0  0  0  0
 33 34  1  0  0  0  0
 34 35  1  0  0  0  0
 36 37  1  0  0  0  0
 37 32  1  0  0  0  0
M  END
>  <MODEL>
9

>  <REMARK>
 VINA RESULT:      -7.0      3.299      7.343
  Name = 
  4 active torsions:
  status: ('A' for Active; 'I' for Inactive)
    1  A    between atoms: C_1  and  C_27
    2  A    between atoms: N_4  and  C_37
    3  A    between atoms: C_8  and  C_12
    4  A    between atoms: C_23  and  N_30
                            x       y       z     vdW  Elec       q    Type
                         _______ _______ _______ _____ _____    ______ ____

>  <TORSDO>
F 4

$$$$
