=
 OpenBabel11112416523D

 31 35  0  0  1  0  0  0  0  0999 V2000
  185.1880  178.1260  147.0860 C   0  0  0  0  0  0  0  0  0  0  0  0
  187.6040  175.8100  145.2730 C   0  0  2  0  0  3  0  0  0  0  0  0
  187.5060  176.1670  143.7940 C   0  0  0  0  0  0  0  0  0  0  0  0
  186.3210  177.1840  141.9280 C   0  0  0  0  0  0  0  0  0  0  0  0
  187.0720  176.9020  146.1680 C   0  0  0  0  0  0  0  0  0  0  0  0
  186.0660  178.9830  147.7540 C   0  0  0  0  0  3  0  0  0  0  0  0
  186.4100  176.8870  143.2900 C   0  0  0  0  0  3  0  0  0  0  0  0
  189.8670  176.6830  145.7200 N   0  0  0  0  0  0  0  0  0  0  0  0
  183.8500  178.3030  147.2010 F   0  0  0  0  0  0  0  0  0  0  0  0
  189.5650  174.9420  143.3550 O   0  0  0  0  0  0  0  0  0  0  0  0
  185.2670  177.8910  141.4580 F   0  0  0  0  0  0  0  0  0  0  0  0
  189.4320  177.4980  146.8570 C   0  0  0  0  0  2  0  0  0  0  0  0
  189.0520  175.4550  145.6780 C   0  0  2  0  0  3  0  0  0  0  0  0
  185.6900  177.0870  146.2980 C   0  0  0  0  0  3  0  0  0  0  0  0
  187.3170  176.7500  141.0510 C   0  0  0  0  0  3  0  0  0  0  0  0
  187.9550  177.7670  146.8450 C   0  0  0  0  0  0  0  0  0  0  0  0
  187.4460  178.7970  147.6420 C   0  0  0  0  0  3  0  0  0  0  0  0
  189.5980  174.4220  144.6820 C   0  0  0  0  0  2  0  0  0  0  0  0
  188.4870  175.7000  142.8940 C   0  0  0  0  0  0  0  0  0  0  0  0
  188.3980  176.0090  141.5340 C   0  0  0  0  0  3  0  0  0  0  0  0
  191.2590  176.3440  145.9960 C   0  0  0  0  0  2  0  0  0  0  0  0
  191.6060  177.4970  143.9500 O   0  0  0  0  0  0  0  0  0  0  0  0
  192.1140  176.7710  144.8470 C   0  0  0  0  0  0  0  0  0  0  0  0
  196.1370  175.4410  144.3580 N   0  0  0  0  0  0  0  0  0  0  0  0
  194.0620  176.2570  143.3700 C   0  0  0  0  0  2  0  0  0  0  0  0
  193.9620  176.3200  147.0060 O   0  0  0  0  0  0  0  0  0  0  0  0
  197.2070  174.4790  144.1690 C   0  0  0  0  0  1  0  0  0  0  0  0
  195.1640  175.2030  143.2960 C   0  0  0  0  0  2  0  0  0  0  0  0
  194.2810  175.9550  145.8430 C   0  0  0  0  0  0  0  0  0  0  0  0
  193.4620  176.2900  144.7060 N   0  0  0  0  0  0  0  0  0  0  0  0
  195.5130  175.1270  145.6410 C   0  0  0  0  0  2  0  0  0  0  0  0
  1  9  1  0  0  0  0
  1  6  1  0  0  0  0
  2  3  1  6  0  0  0
  2 13  1  0  0  0  0
  2  5  1  0  0  0  0
  4  7  2  0  0  0  0
  5 14  1  0  0  0  0
  5 16  2  0  0  0  0
  7  3  1  0  0  0  0
  8 21  1  0  0  0  0
  8 12  1  0  0  0  0
 10 18  1  0  0  0  0
 11  4  1  0  0  0  0
 13 18  1  6  0  0  0
 13  8  1  0  0  0  0
 14  1  2  0  0  0  0
 15 20  2  0  0  0  0
 15  4  1  0  0  0  0
 16 12  1  0  0  0  0
 16 17  1  0  0  0  0
 17  6  2  0  0  0  0
 19 10  1  0  0  0  0
 19  3  2  0  0  0  0
 20 19  1  0  0  0  0
 22 23  2  0  0  0  0
 23 21  1  0  0  0  0
 24 31  1  0  0  0  0
 25 30  1  0  0  0  0
 27 24  1  0  0  0  0
 28 25  1  0  0  0  0
 28 24  1  0  0  0  0
 29 26  2  0  0  0  0
 30 23  1  0  0  0  0
 30 29  1  0  0  0  0
 31 29  1  0  0  0  0
M  END
>  <MODEL>
1

>  <REMARK>
 VINA RESULT:      -8.6      0.000      0.000
  Name = 
  2 active torsions:
  status: ('A' for Active; 'I' for Inactive)
    1  A    between atoms: C_5  and  C_16
    2  A    between atoms: N_10  and  C_16
                            x       y       z     vdW  Elec       q    Type
                         _______ _______ _______ _____ _____    ______ ____

>  <TORSDO>
F 2

$$$$
=
 OpenBabel11112416523D

 31 35  0  0  1  0  0  0  0  0999 V2000
  186.4710  177.9200  147.3810 C   0  0  0  0  0  0  0  0  0  0  0  0
  189.3280  177.5740  144.8890 C   0  0  2  0  0  3  0  0  0  0  0  0
  190.3380  176.6300  145.5290 C   0  0  0  0  0  0  0  0  0  0  0  0
  191.2700  175.5240  147.4860 C   0  0  0  0  0  0  0  0  0  0  0  0
  187.9600  177.4700  145.5170 C   0  0  0  0  0  0  0  0  0  0  0  0
  185.4520  177.2090  146.7420 C   0  0  0  0  0  3  0  0  0  0  0  0
  190.3210  176.3720  146.9090 C   0  0  0  0  0  3  0  0  0  0  0  0
  188.5080  176.0900  143.0970 N   0  0  0  0  0  0  0  0  0  0  0  0
  186.2500  178.4780  148.5950 F   0  0  0  0  0  0  0  0  0  0  0  0
  191.4370  176.3350  143.3740 O   0  0  0  0  0  0  0  0  0  0  0  0
  191.2330  175.2730  148.8150 F   0  0  0  0  0  0  0  0  0  0  0  0
  187.1000  176.2620  143.4670 C   0  0  0  0  0  2  0  0  0  0  0  0
  189.2250  177.3510  143.3640 C   0  0  2  0  0  3  0  0  0  0  0  0
  187.7200  178.0520  146.7690 C   0  0  0  0  0  3  0  0  0  0  0  0
  192.2580  174.9380  146.6910 C   0  0  0  0  0  3  0  0  0  0  0  0
  186.9280  176.7570  144.8750 C   0  0  0  0  0  0  0  0  0  0  0  0
  185.6770  176.6390  145.4870 C   0  0  0  0  0  3  0  0  0  0  0  0
  190.6430  177.3550  142.7730 C   0  0  0  0  0  2  0  0  0  0  0  0
  191.3630  176.0630  144.7410 C   0  0  0  0  0  0  0  0  0  0  0  0
  192.3040  175.2070  145.3220 C   0  0  0  0  0  3  0  0  0  0  0  0
  188.5010  175.8180  141.6640 C   0  0  0  0  0  2  0  0  0  0  0  0
  188.6350  173.5770  142.4350 O   0  0  0  0  0  0  0  0  0  0  0  0
  188.6170  174.3450  141.4360 C   0  0  0  0  0  0  0  0  0  0  0  0
  189.1280  172.6540  137.5540 N   0  0  0  0  0  0  0  0  0  0  0  0
  189.4480  172.5030  139.9670 C   0  0  0  0  0  2  0  0  0  0  0  0
  187.4020  175.3630  139.0350 O   0  0  0  0  0  0  0  0  0  0  0  0
  189.7880  172.4130  136.2830 C   0  0  0  0  0  1  0  0  0  0  0  0
  190.1100  172.3760  138.5970 C   0  0  0  0  0  2  0  0  0  0  0  0
  188.2750  174.4600  138.9410 C   0  0  0  0  0  0  0  0  0  0  0  0
  188.8040  173.8110  140.1140 N   0  0  0  0  0  0  0  0  0  0  0  0
  188.7990  174.0780  137.5910 C   0  0  0  0  0  2  0  0  0  0  0  0
  1  9  1  0  0  0  0
  2  5  1  1  0  0  0
  2  3  1  0  0  0  0
  3  7  1  0  0  0  0
  4 11  1  0  0  0  0
  5 14  2  0  0  0  0
  6  1  2  0  0  0  0
  7  4  2  0  0  0  0
  8 13  1  0  0  0  0
  8 12  1  0  0  0  0
 10 19  1  0  0  0  0
 12 16  1  0  0  0  0
 13 18  1  1  0  0  0
 13  2  1  0  0  0  0
 14  1  1  0  0  0  0
 15  4  1  0  0  0  0
 16 17  2  0  0  0  0
 16  5  1  0  0  0  0
 17  6  1  0  0  0  0
 18 10  1  0  0  0  0
 19 20  1  0  0  0  0
 19  3  2  0  0  0  0
 20 15  2  0  0  0  0
 21  8  1  0  0  0  0
 23 21  1  0  0  0  0
 23 22  2  0  0  0  0
 24 31  1  0  0  0  0
 24 28  1  0  0  0  0
 25 30  1  0  0  0  0
 27 24  1  0  0  0  0
 28 25  1  0  0  0  0
 29 26  2  0  0  0  0
 29 30  1  0  0  0  0
 30 23  1  0  0  0  0
 31 29  1  0  0  0  0
M  END
>  <MODEL>
2

>  <REMARK>
 VINA RESULT:      -8.4      3.518      6.118
  Name = 
  2 active torsions:
  status: ('A' for Active; 'I' for Inactive)
    1  A    between atoms: C_5  and  C_16
    2  A    between atoms: N_10  and  C_16
                            x       y       z     vdW  Elec       q    Type
                         _______ _______ _______ _____ _____    ______ ____

>  <TORSDO>
F 2

$$$$
=
 OpenBabel11112416523D

 31 35  0  0  1  0  0  0  0  0999 V2000
  185.1660  179.0800  143.5840 C   0  0  0  0  0  0  0  0  0  0  0  0
  188.6120  177.4700  143.7340 C   0  0  2  0  0  3  0  0  0  0  0  0
  188.6190  176.5970  144.9830 C   0  0  0  0  0  0  0  0  0  0  0  0
  187.7100  175.9900  147.1570 C   0  0  0  0  0  0  0  0  0  0  0  0
  187.2160  177.8170  143.2790 C   0  0  0  0  0  0  0  0  0  0  0  0
  184.5880  178.4090  142.5040 C   0  0  0  0  0  3  0  0  0  0  0  0
  187.6740  176.7800  146.0060 C   0  0  0  0  0  3  0  0  0  0  0  0
  188.6190  175.6870  142.0290 N   0  0  0  0  0  0  0  0  0  0  0  0
  184.4560  180.0140  144.2610 F   0  0  0  0  0  0  0  0  0  0  0  0
  190.6220  175.4610  144.1860 O   0  0  0  0  0  0  0  0  0  0  0  0
  186.7830  176.1680  148.1280 F   0  0  0  0  0  0  0  0  0  0  0  0
  187.4460  176.2200  141.3290 C   0  0  0  0  0  2  0  0  0  0  0  0
  189.3970  176.8150  142.5760 C   0  0  2  0  0  3  0  0  0  0  0  0
  186.4770  178.7860  143.9680 C   0  0  0  0  0  3  0  0  0  0  0  0
  188.7000  175.0170  147.3070 C   0  0  0  0  0  3  0  0  0  0  0  0
  186.6310  177.1440  142.1880 C   0  0  0  0  0  0  0  0  0  0  0  0
  185.3220  177.4520  141.8010 C   0  0  0  0  0  3  0  0  0  0  0  0
  190.7710  176.3760  143.1040 C   0  0  0  0  0  2  0  0  0  0  0  0
  189.6390  175.6380  145.1620 C   0  0  0  0  0  0  0  0  0  0  0  0
  189.6640  174.8420  146.3110 C   0  0  0  0  0  3  0  0  0  0  0  0
  189.3980  174.9960  141.0080 C   0  0  0  0  0  2  0  0  0  0  0  0
  189.3740  173.1400  142.4870 O   0  0  0  0  0  0  0  0  0  0  0  0
  189.3960  173.5280  141.2880 C   0  0  0  0  0  0  0  0  0  0  0  0
  189.6970  170.6010  138.2000 N   0  0  0  0  0  0  0  0  0  0  0  0
  190.0520  171.2410  140.5270 C   0  0  0  0  0  2  0  0  0  0  0  0
  188.2140  173.7770  138.6760 O   0  0  0  0  0  0  0  0  0  0  0  0
  190.3100  169.8970  137.0890 C   0  0  0  0  0  1  0  0  0  0  0  0
  190.6750  170.6100  139.2840 C   0  0  0  0  0  2  0  0  0  0  0  0
  189.0130  172.8280  138.8960 C   0  0  0  0  0  0  0  0  0  0  0  0
  189.5140  172.5690  140.2220 N   0  0  0  0  0  0  0  0  0  0  0  0
  189.4790  171.9760  137.7560 C   0  0  0  0  0  2  0  0  0  0  0  0
  1 14  1  0  0  0  0
  1  9  1  0  0  0  0
  2  5  1  6  0  0  0
  2  3  1  0  0  0  0
  3 19  2  0  0  0  0
  3  7  1  0  0  0  0
  4 15  1  0  0  0  0
  4 11  1  0  0  0  0
  5 14  2  0  0  0  0
  6  1  2  0  0  0  0
  7  4  2  0  0  0  0
  8 13  1  0  0  0  0
 10 19  1  0  0  0  0
 12  8  1  0  0  0  0
 12 16  1  0  0  0  0
 13 18  1  1  0  0  0
 13  2  1  0  0  0  0
 16  5  1  0  0  0  0
 17 16  2  0  0  0  0
 17  6  1  0  0  0  0
 18 10  1  0  0  0  0
 19 20  1  0  0  0  0
 20 15  2  0  0  0  0
 21 23  1  0  0  0  0
 21  8  1  0  0  0  0
 23 22  2  0  0  0  0
 24 28  1  0  0  0  0
 26 29  2  0  0  0  0
 27 24  1  0  0  0  0
 28 25  1  0  0  0  0
 29 30  1  0  0  0  0
 30 25  1  0  0  0  0
 30 23  1  0  0  0  0
 31 24  1  0  0  0  0
 31 29  1  0  0  0  0
M  END
>  <MODEL>
3

>  <REMARK>
 VINA RESULT:      -8.3      3.735      6.101
  Name = 
  2 active torsions:
  status: ('A' for Active; 'I' for Inactive)
    1  A    between atoms: C_5  and  C_16
    2  A    between atoms: N_10  and  C_16
                            x       y       z     vdW  Elec       q    Type
                         _______ _______ _______ _____ _____    ______ ____

>  <TORSDO>
F 2

$$$$
=
 OpenBabel11112416523D

 31 35  0  0  1  0  0  0  0  0999 V2000
  185.1200  179.2020  143.5960 C   0  0  0  0  0  0  0  0  0  0  0  0
  188.5210  177.4980  143.7490 C   0  0  2  0  0  3  0  0  0  0  0  0
  188.5130  176.6450  145.0120 C   0  0  0  0  0  0  0  0  0  0  0  0
  187.6020  176.1000  147.2020 C   0  0  0  0  0  0  0  0  0  0  0  0
  187.1320  177.8760  143.2980 C   0  0  0  0  0  0  0  0  0  0  0  0
  184.5150  178.5300  142.5310 C   0  0  0  0  0  3  0  0  0  0  0  0
  187.5810  176.8720  146.0380 C   0  0  0  0  0  3  0  0  0  0  0  0
  188.4640  175.6880  142.0740 N   0  0  0  0  0  0  0  0  0  0  0  0
  184.4410  180.1660  144.2630 F   0  0  0  0  0  0  0  0  0  0  0  0
  190.4760  175.4410  144.2200 O   0  0  0  0  0  0  0  0  0  0  0  0
  186.6890  176.3200  148.1770 F   0  0  0  0  0  0  0  0  0  0  0  0
  187.3020  176.2420  141.3740 C   0  0  0  0  0  2  0  0  0  0  0  0
  189.2780  176.8020  142.5970 C   0  0  2  0  0  3  0  0  0  0  0  0
  186.4250  178.8770  143.9760 C   0  0  0  0  0  3  0  0  0  0  0  0
  188.5660  175.1030  147.3610 C   0  0  0  0  0  3  0  0  0  0  0  0
  186.5190  177.2020  142.2220 C   0  0  0  0  0  0  0  0  0  0  0  0
  185.2170  177.5410  141.8390 C   0  0  0  0  0  3  0  0  0  0  0  0
  190.6430  176.3340  143.1220 C   0  0  0  0  0  2  0  0  0  0  0  0
  189.5060  175.6610  145.2000 C   0  0  0  0  0  0  0  0  0  0  0  0
  189.5170  174.8840  146.3620 C   0  0  0  0  0  3  0  0  0  0  0  0
  189.2160  174.9590  141.0590 C   0  0  0  0  0  2  0  0  0  0  0  0
  188.1420  172.8490  141.2330 O   0  0  0  0  0  0  0  0  0  0  0  0
  189.2110  173.5000  141.3870 C   0  0  0  0  0  0  0  0  0  0  0  0
  192.5980  171.5040  143.0390 N   0  0  0  0  0  0  0  0  0  0  0  0
  190.1800  171.6470  142.7540 C   0  0  0  0  0  2  0  0  0  0  0  0
  191.9460  174.0890  140.7150 O   0  0  0  0  0  0  0  0  0  0  0  0
  193.6310  171.2250  144.0200 C   0  0  0  0  0  1  0  0  0  0  0  0
  191.3240  171.4710  143.7500 C   0  0  0  0  0  2  0  0  0  0  0  0
  191.7080  173.3090  141.6750 C   0  0  0  0  0  0  0  0  0  0  0  0
  190.3670  172.8630  141.9570 N   0  0  0  0  0  0  0  0  0  0  0  0
  192.8310  172.8650  142.5610 C   0  0  0  0  0  2  0  0  0  0  0  0
  1 14  1  0  0  0  0
  1  9  1  0  0  0  0
  2  5  1  6  0  0  0
  2  3  1  0  0  0  0
  3 19  2  0  0  0  0
  3  7  1  0  0  0  0
  4 15  1  0  0  0  0
  4 11  1  0  0  0  0
  5 14  2  0  0  0  0
  6  1  2  0  0  0  0
  7  4  2  0  0  0  0
  8 13  1  0  0  0  0
 10 19  1  0  0  0  0
 12  8  1  0  0  0  0
 12 16  1  0  0  0  0
 13 18  1  1  0  0  0
 13  2  1  0  0  0  0
 16  5  1  0  0  0  0
 17 16  2  0  0  0  0
 17  6  1  0  0  0  0
 18 10  1  0  0  0  0
 19 20  1  0  0  0  0
 20 15  2  0  0  0  0
 21 23  1  0  0  0  0
 21  8  1  0  0  0  0
 22 23  2  0  0  0  0
 23 30  1  0  0  0  0
 24 28  1  0  0  0  0
 24 27  1  0  0  0  0
 25 28  1  0  0  0  0
 26 29  2  0  0  0  0
 29 30  1  0  0  0  0
 29 31  1  0  0  0  0
 30 25  1  0  0  0  0
 31 24  1  0  0  0  0
M  END
>  <MODEL>
4

>  <REMARK>
 VINA RESULT:      -8.2      2.957      4.874
  Name = 
  2 active torsions:
  status: ('A' for Active; 'I' for Inactive)
    1  A    between atoms: C_5  and  C_16
    2  A    between atoms: N_10  and  C_16
                            x       y       z     vdW  Elec       q    Type
                         _______ _______ _______ _____ _____    ______ ____

>  <TORSDO>
F 2

$$$$
=
 OpenBabel11112416523D

 31 35  0  0  1  0  0  0  0  0999 V2000
  187.1120  177.4780  140.8770 C   0  0  0  0  0  0  0  0  0  0  0  0
  188.4180  177.7280  144.4440 C   0  0  2  0  0  3  0  0  0  0  0  0
  187.1900  177.8400  145.3390 C   0  0  0  0  0  0  0  0  0  0  0  0
  184.8290  178.3360  145.6550 C   0  0  0  0  0  0  0  0  0  0  0  0
  188.0900  177.1770  143.0780 C   0  0  0  0  0  0  0  0  0  0  0  0
  187.3900  176.1450  140.5670 C   0  0  0  0  0  3  0  0  0  0  0  0
  185.9400  178.2110  144.8180 C   0  0  0  0  0  3  0  0  0  0  0  0
  189.1400  175.4560  145.0780 N   0  0  0  0  0  0  0  0  0  0  0  0
  186.4990  178.2720  139.9660 F   0  0  0  0  0  0  0  0  0  0  0  0
  188.5560  177.3230  147.2890 O   0  0  0  0  0  0  0  0  0  0  0  0
  183.6270  178.6800  145.1380 F   0  0  0  0  0  0  0  0  0  0  0  0
  189.1840  174.9800  143.6920 C   0  0  0  0  0  2  0  0  0  0  0  0
  189.5280  176.8790  145.1020 C   0  0  2  0  0  3  0  0  0  0  0  0
  187.4630  177.9930  142.1280 C   0  0  0  0  0  3  0  0  0  0  0  0
  184.9580  178.1060  147.0270 C   0  0  0  0  0  3  0  0  0  0  0  0
  188.3710  175.8330  142.7610 C   0  0  0  0  0  0  0  0  0  0  0  0
  188.0280  175.3280  141.5030 C   0  0  0  0  0  3  0  0  0  0  0  0
  189.7590  177.3990  146.5280 C   0  0  0  0  0  2  0  0  0  0  0  0
  187.3180  177.6480  146.7310 C   0  0  0  0  0  0  0  0  0  0  0  0
  186.2010  177.7630  147.5640 C   0  0  0  0  0  3  0  0  0  0  0  0
  190.1310  174.6600  145.7920 C   0  0  0  0  0  2  0  0  0  0  0  0
  189.5540  172.6390  144.6900 O   0  0  0  0  0  0  0  0  0  0  0  0
  190.4730  173.4490  144.9860 C   0  0  0  0  0  0  0  0  0  0  0  0
  194.4720  172.5030  143.8440 N   0  0  0  0  0  0  0  0  0  0  0  0
  192.2050  171.7630  144.3540 C   0  0  0  0  0  2  0  0  0  0  0  0
  192.4750  175.3900  144.2750 O   0  0  0  0  0  0  0  0  0  0  0  0
  195.8700  172.1670  144.0460 C   0  0  0  0  0  1  0  0  0  0  0  0
  193.6930  171.5360  144.6110 C   0  0  0  0  0  2  0  0  0  0  0  0
  192.8180  174.1870  144.4250 C   0  0  0  0  0  0  0  0  0  0  0  0
  191.8360  173.1530  144.6320 N   0  0  0  0  0  0  0  0  0  0  0  0
  194.2720  173.8280  144.4250 C   0  0  0  0  0  2  0  0  0  0  0  0
  1 14  1  0  0  0  0
  2  5  1  6  0  0  0
  2 13  1  0  0  0  0
  2  3  1  0  0  0  0
  3 19  1  0  0  0  0
  4 15  2  0  0  0  0
  6  1  2  0  0  0  0
  6 17  1  0  0  0  0
  7  3  2  0  0  0  0
  7  4  1  0  0  0  0
  8 13  1  0  0  0  0
  8 21  1  0  0  0  0
  9  1  1  0  0  0  0
 11  4  1  0  0  0  0
 12  8  1  0  0  0  0
 13 18  1  1  0  0  0
 14  5  2  0  0  0  0
 15 20  1  0  0  0  0
 16  5  1  0  0  0  0
 16 12  1  0  0  0  0
 17 16  2  0  0  0  0
 18 10  1  0  0  0  0
 19 10  1  0  0  0  0
 19 20  2  0  0  0  0
 22 23  2  0  0  0  0
 23 21  1  0  0  0  0
 24 27  1  0  0  0  0
 24 31  1  0  0  0  0
 24 28  1  0  0  0  0
 25 28  1  0  0  0  0
 25 30  1  0  0  0  0
 26 29  2  0  0  0  0
 29 30  1  0  0  0  0
 30 23  1  0  0  0  0
 31 29  1  0  0  0  0
M  END
>  <MODEL>
5

>  <REMARK>
 VINA RESULT:      -7.9      2.151      4.473
  Name = 
  2 active torsions:
  status: ('A' for Active; 'I' for Inactive)
    1  A    between atoms: C_5  and  C_16
    2  A    between atoms: N_10  and  C_16
                            x       y       z     vdW  Elec       q    Type
                         _______ _______ _______ _____ _____    ______ ____

>  <TORSDO>
F 2

$$$$
=
 OpenBabel11112416523D

 31 35  0  0  1  0  0  0  0  0999 V2000
  186.5860  177.8350  140.9460 C   0  0  0  0  0  0  0  0  0  0  0  0
  188.0580  177.9540  144.4540 C   0  0  2  0  0  3  0  0  0  0  0  0
  186.8740  178.0520  145.4090 C   0  0  0  0  0  0  0  0  0  0  0  0
  184.5370  178.5660  145.8490 C   0  0  0  0  0  0  0  0  0  0  0  0
  187.6600  177.4510  143.0880 C   0  0  0  0  0  0  0  0  0  0  0  0
  186.8310  176.5090  140.5810 C   0  0  0  0  0  3  0  0  0  0  0  0
  185.6070  178.4550  144.9580 C   0  0  0  0  0  3  0  0  0  0  0  0
  188.7760  175.6540  144.9820 N   0  0  0  0  0  0  0  0  0  0  0  0
  185.9440  178.6660  140.0900 F   0  0  0  0  0  0  0  0  0  0  0  0
  188.3210  177.4550  147.2760 O   0  0  0  0  0  0  0  0  0  0  0  0
  183.3170  178.9420  145.3990 F   0  0  0  0  0  0  0  0  0  0  0  0
  188.7500  175.2220  143.5820 C   0  0  0  0  0  2  0  0  0  0  0  0
  189.1850  177.0700  145.0330 C   0  0  2  0  0  3  0  0  0  0  0  0
  187.0020  178.3050  142.1940 C   0  0  0  0  0  3  0  0  0  0  0  0
  184.7260  178.2910  147.2050 C   0  0  0  0  0  3  0  0  0  0  0  0
  187.9070  176.1140  142.7160 C   0  0  0  0  0  0  0  0  0  0  0  0
  187.5000  175.6540  141.4600 C   0  0  0  0  0  3  0  0  0  0  0  0
  189.4890  177.5410  146.4630 C   0  0  0  0  0  2  0  0  0  0  0  0
  187.0630  177.8130  146.7870 C   0  0  0  0  0  0  0  0  0  0  0  0
  185.9870  177.9160  147.6730 C   0  0  0  0  0  3  0  0  0  0  0  0
  189.7880  174.8230  145.6240 C   0  0  0  0  0  2  0  0  0  0  0  0
  191.8960  175.5120  144.7770 O   0  0  0  0  0  0  0  0  0  0  0  0
  190.9610  174.6690  144.7100 C   0  0  0  0  0  0  0  0  0  0  0  0
  191.1630  171.6300  141.7250 N   0  0  0  0  0  0  0  0  0  0  0  0
  191.8240  173.8390  142.5170 C   0  0  0  0  0  2  0  0  0  0  0  0
  189.9150  172.0050  145.0120 O   0  0  0  0  0  0  0  0  0  0  0  0
  190.7570  170.9020  140.5360 C   0  0  0  0  0  1  0  0  0  0  0  0
  191.2900  173.0310  141.3370 C   0  0  0  0  0  2  0  0  0  0  0  0
  190.3190  172.3770  143.8790 C   0  0  0  0  0  0  0  0  0  0  0  0
  190.9880  173.6410  143.7040 N   0  0  0  0  0  0  0  0  0  0  0  0
  190.0690  171.5080  142.6850 C   0  0  0  0  0  2  0  0  0  0  0  0
  1 14  1  0  0  0  0
  2  5  1  6  0  0  0
  2 13  1  0  0  0  0
  2  3  1  0  0  0  0
  3 19  1  0  0  0  0
  4 15  2  0  0  0  0
  6  1  2  0  0  0  0
  6 17  1  0  0  0  0
  7  3  2  0  0  0  0
  7  4  1  0  0  0  0
  8 13  1  0  0  0  0
  8 21  1  0  0  0  0
  9  1  1  0  0  0  0
 11  4  1  0  0  0  0
 12  8  1  0  0  0  0
 13 18  1  1  0  0  0
 14  5  2  0  0  0  0
 15 20  1  0  0  0  0
 16  5  1  0  0  0  0
 16 12  1  0  0  0  0
 17 16  2  0  0  0  0
 18 10  1  0  0  0  0
 19 10  1  0  0  0  0
 19 20  2  0  0  0  0
 23 22  2  0  0  0  0
 23 21  1  0  0  0  0
 24 31  1  0  0  0  0
 25 30  1  0  0  0  0
 27 24  1  0  0  0  0
 28 24  1  0  0  0  0
 28 25  1  0  0  0  0
 29 26  2  0  0  0  0
 30 29  1  0  0  0  0
 30 23  1  0  0  0  0
 31 29  1  0  0  0  0
M  END
>  <MODEL>
6

>  <REMARK>
 VINA RESULT:      -7.7      2.544      5.032
  Name = 
  2 active torsions:
  status: ('A' for Active; 'I' for Inactive)
    1  A    between atoms: C_5  and  C_16
    2  A    between atoms: N_10  and  C_16
                            x       y       z     vdW  Elec       q    Type
                         _______ _______ _______ _____ _____    ______ ____

>  <TORSDO>
F 2

$$$$
=
 OpenBabel11112416523D

 31 35  0  0  1  0  0  0  0  0999 V2000
  193.6470  170.7420  144.5710 C   0  0  0  0  0  0  0  0  0  0  0  0
  194.1750  174.3060  145.7990 C   0  0  2  0  0  3  0  0  0  0  0  0
  195.1080  174.9690  144.7930 C   0  0  0  0  0  0  0  0  0  0  0  0
  196.7570  174.8250  143.0100 C   0  0  0  0  0  0  0  0  0  0  0  0
  193.5110  173.0700  145.2460 C   0  0  0  0  0  0  0  0  0  0  0  0
  192.3210  170.7880  144.1340 C   0  0  0  0  0  3  0  0  0  0  0  0
  195.8870  174.2050  143.9080 C   0  0  0  0  0  3  0  0  0  0  0  0
  192.1070  175.5380  145.2620 N   0  0  0  0  0  0  0  0  0  0  0  0
  194.3600  169.5970  144.4530 F   0  0  0  0  0  0  0  0  0  0  0  0
  194.5360  177.1590  145.6940 O   0  0  0  0  0  0  0  0  0  0  0  0
  197.4910  174.0770  142.1520 F   0  0  0  0  0  0  0  0  0  0  0  0
  191.3170  174.3190  145.0670 C   0  0  0  0  0  2  0  0  0  0  0  0
  193.1060  175.2920  146.3200 C   0  0  2  0  0  3  0  0  0  0  0  0
  194.2390  171.8790  145.1270 C   0  0  0  0  0  3  0  0  0  0  0  0
  196.8720  176.2170  142.9950 C   0  0  0  0  0  3  0  0  0  0  0  0
  192.1720  173.1120  144.8070 C   0  0  0  0  0  0  0  0  0  0  0  0
  191.5820  171.9670  144.2620 C   0  0  0  0  0  3  0  0  0  0  0  0
  193.8070  176.5800  146.7740 C   0  0  0  0  0  2  0  0  0  0  0  0
  195.2600  176.3720  144.7970 C   0  0  0  0  0  0  0  0  0  0  0  0
  196.1250  176.9880  143.8880 C   0  0  0  0  0  3  0  0  0  0  0  0
  191.1540  176.5490  145.7070 C   0  0  0  0  0  2  0  0  0  0  0  0
  190.4940  176.8620  143.4480 O   0  0  0  0  0  0  0  0  0  0  0  0
  190.1200  176.7590  144.6480 C   0  0  0  0  0  0  0  0  0  0  0  0
  185.9800  177.2590  145.5460 N   0  0  0  0  0  0  0  0  0  0  0  0
  187.8680  177.6660  144.0570 C   0  0  0  0  0  2  0  0  0  0  0  0
  188.7290  175.3990  146.7680 O   0  0  0  0  0  0  0  0  0  0  0  0
  184.8120  177.8910  146.1310 C   0  0  0  0  0  1  0  0  0  0  0  0
  186.6850  178.2910  144.7920 C   0  0  0  0  0  2  0  0  0  0  0  0
  188.1440  176.3280  146.1520 C   0  0  0  0  0  0  0  0  0  0  0  0
  188.7340  176.9390  144.9890 N   0  0  0  0  0  0  0  0  0  0  0  0
  186.8270  176.8340  146.6580 C   0  0  0  0  0  2  0  0  0  0  0  0
  1 14  1  0  0  0  0
  2  3  1  6  0  0  0
  2 13  1  0  0  0  0
  3 19  1  0  0  0  0
  4  7  1  0  0  0  0
  5  2  1  0  0  0  0
  6 17  1  0  0  0  0
  6  1  2  0  0  0  0
  7  3  2  0  0  0  0
  8 21  1  0  0  0  0
  8 13  1  0  0  0  0
  9  1  1  0  0  0  0
 10 18  1  0  0  0  0
 11  4  1  0  0  0  0
 12  8  1  0  0  0  0
 13 18  1  6  0  0  0
 14  5  2  0  0  0  0
 15  4  2  0  0  0  0
 15 20  1  0  0  0  0
 16 12  1  0  0  0  0
 16  5  1  0  0  0  0
 17 16  2  0  0  0  0
 19 10  1  0  0  0  0
 20 19  2  0  0  0  0
 22 23  2  0  0  0  0
 23 30  1  0  0  0  0
 23 21  1  0  0  0  0
 24 27  1  0  0  0  0
 24 31  1  0  0  0  0
 25 28  1  0  0  0  0
 25 30  1  0  0  0  0
 28 24  1  0  0  0  0
 29 31  1  0  0  0  0
 29 26  2  0  0  0  0
 30 29  1  0  0  0  0
M  END
>  <MODEL>
7

>  <REMARK>
 VINA RESULT:      -7.7      3.948      8.223
  Name = 
  2 active torsions:
  status: ('A' for Active; 'I' for Inactive)
    1  A    between atoms: C_5  and  C_16
    2  A    between atoms: N_10  and  C_16
                            x       y       z     vdW  Elec       q    Type
                         _______ _______ _______ _____ _____    ______ ____

>  <TORSDO>
F 2

$$$$
=
 OpenBabel11112416523D

 31 35  0  0  1  0  0  0  0  0999 V2000
  185.9400  178.2520  140.8820 C   0  0  0  0  0  0  0  0  0  0  0  0
  188.3860  177.9350  143.7820 C   0  0  2  0  0  3  0  0  0  0  0  0
  187.5610  177.5060  144.9890 C   0  0  0  0  0  0  0  0  0  0  0  0
  185.4250  177.2920  146.1350 C   0  0  0  0  0  0  0  0  0  0  0  0
  187.6780  177.6740  142.4750 C   0  0  0  0  0  0  0  0  0  0  0  0
  186.2910  177.1520  140.0960 C   0  0  0  0  0  3  0  0  0  0  0  0
  186.1650  177.6650  145.0110 C   0  0  0  0  0  3  0  0  0  0  0  0
  189.6300  175.8370  143.4130 N   0  0  0  0  0  0  0  0  0  0  0  0
  184.9260  179.0640  140.4990 F   0  0  0  0  0  0  0  0  0  0  0  0
  189.5990  176.8880  146.1710 O   0  0  0  0  0  0  0  0  0  0  0  0
  184.0790  177.4360  146.1370 F   0  0  0  0  0  0  0  0  0  0  0  0
  189.2460  175.7460  142.0010 C   0  0  0  0  0  2  0  0  0  0  0  0
  189.7750  177.2600  143.7730 C   0  0  2  0  0  3  0  0  0  0  0  0
  186.6340  178.5130  142.0670 C   0  0  0  0  0  3  0  0  0  0  0  0
  186.0730  176.7700  147.2570 C   0  0  0  0  0  3  0  0  0  0  0  0
  188.0310  176.5670  141.6780 C   0  0  0  0  0  0  0  0  0  0  0  0
  187.3410  176.3190  140.4870 C   0  0  0  0  0  3  0  0  0  0  0  0
  190.4210  177.4520  145.1530 C   0  0  0  0  0  2  0  0  0  0  0  0
  188.2090  177.0150  146.1420 C   0  0  0  0  0  0  0  0  0  0  0  0
  187.4620  176.6330  147.2610 C   0  0  0  0  0  3  0  0  0  0  0  0
  190.9220  175.1680  143.5060 C   0  0  0  0  0  2  0  0  0  0  0  0
  189.8100  173.4610  144.7250 O   0  0  0  0  0  0  0  0  0  0  0  0
  190.7170  173.7380  143.8940 C   0  0  0  0  0  0  0  0  0  0  0  0
  193.2260  170.5920  142.4820 N   0  0  0  0  0  0  0  0  0  0  0  0
  191.7280  171.4740  144.1930 C   0  0  0  0  0  2  0  0  0  0  0  0
  191.8730  173.6230  141.2620 O   0  0  0  0  0  0  0  0  0  0  0  0
  194.4650  169.8580  142.2980 C   0  0  0  0  0  1  0  0  0  0  0  0
  193.0720  170.8030  143.9180 C   0  0  0  0  0  2  0  0  0  0  0  0
  192.2440  172.7880  142.1280 C   0  0  0  0  0  0  0  0  0  0  0  0
  191.5920  172.7050  143.4100 N   0  0  0  0  0  0  0  0  0  0  0  0
  193.4070  171.8900  141.8370 C   0  0  0  0  0  2  0  0  0  0  0  0
  1 14  1  0  0  0  0
  2  5  1  6  0  0  0
  2  3  1  0  0  0  0
  3  7  2  0  0  0  0
  3 19  1  0  0  0  0
  4 11  1  0  0  0  0
  4 15  2  0  0  0  0
  6 17  1  0  0  0  0
  6  1  2  0  0  0  0
  7  4  1  0  0  0  0
  8 21  1  0  0  0  0
  8 13  1  0  0  0  0
  9  1  1  0  0  0  0
 12  8  1  0  0  0  0
 13  2  1  0  0  0  0
 13 18  1  1  0  0  0
 14  5  2  0  0  0  0
 15 20  1  0  0  0  0
 16 12  1  0  0  0  0
 16  5  1  0  0  0  0
 17 16  2  0  0  0  0
 18 10  1  0  0  0  0
 19 10  1  0  0  0  0
 19 20  2  0  0  0  0
 21 23  1  0  0  0  0
 23 22  2  0  0  0  0
 24 28  1  0  0  0  0
 26 29  2  0  0  0  0
 27 24  1  0  0  0  0
 28 25  1  0  0  0  0
 29 30  1  0  0  0  0
 30 23  1  0  0  0  0
 30 25  1  0  0  0  0
 31 29  1  0  0  0  0
 31 24  1  0  0  0  0
M  END
>  <MODEL>
8

>  <REMARK>
 VINA RESULT:      -7.7      2.706      4.933
  Name = 
  2 active torsions:
  status: ('A' for Active; 'I' for Inactive)
    1  A    between atoms: C_5  and  C_16
    2  A    between atoms: N_10  and  C_16
                            x       y       z     vdW  Elec       q    Type
                         _______ _______ _______ _____ _____    ______ ____

>  <TORSDO>
F 2

$$$$
=
 OpenBabel11112416523D

 31 35  0  0  1  0  0  0  0  0999 V2000
  186.2420  178.6080  143.9680 C   0  0  0  0  0  0  0  0  0  0  0  0
  189.6480  177.0150  143.3750 C   0  0  2  0  0  3  0  0  0  0  0  0
  190.2620  176.7990  144.7530 C   0  0  0  0  0  0  0  0  0  0  0  0
  190.3710  177.2970  147.1320 C   0  0  0  0  0  0  0  0  0  0  0  0
  188.1530  177.2100  143.4320 C   0  0  0  0  0  0  0  0  0  0  0  0
  185.3790  177.5620  143.6310 C   0  0  0  0  0  3  0  0  0  0  0  0
  189.7810  177.4850  145.8800 C   0  0  0  0  0  3  0  0  0  0  0  0
  189.2180  174.6590  142.7830 N   0  0  0  0  0  0  0  0  0  0  0  0
  185.7390  179.7900  144.3950 F   0  0  0  0  0  0  0  0  0  0  0  0
  191.9190  175.2970  143.7870 O   0  0  0  0  0  0  0  0  0  0  0  0
  189.8880  177.9540  148.2130 F   0  0  0  0  0  0  0  0  0  0  0  0
  187.8050  174.8960  142.4710 C   0  0  0  0  0  2  0  0  0  0  0  0
  189.9920  175.8580  142.4110 C   0  0  2  0  0  3  0  0  0  0  0  0
  187.6250  178.4330  143.8660 C   0  0  0  0  0  3  0  0  0  0  0  0
  191.4590  176.4330  147.2690 C   0  0  0  0  0  3  0  0  0  0  0  0
  187.2790  176.1590  143.0910 C   0  0  0  0  0  0  0  0  0  0  0  0
  185.8960  176.3440  143.1840 C   0  0  0  0  0  3  0  0  0  0  0  0
  191.5070  175.6150  142.4600 C   0  0  0  0  0  2  0  0  0  0  0  0
  191.3870  175.9580  144.8950 C   0  0  0  0  0  0  0  0  0  0  0  0
  191.9660  175.7660  146.1530 C   0  0  0  0  0  3  0  0  0  0  0  0
  189.6150  173.5330  141.9460 C   0  0  0  0  0  2  0  0  0  0  0  0
  189.1430  171.8140  143.5120 O   0  0  0  0  0  0  0  0  0  0  0  0
  190.0220  172.3860  142.8130 C   0  0  0  0  0  0  0  0  0  0  0  0
  194.0770  171.1210  143.1970 N   0  0  0  0  0  0  0  0  0  0  0  0
  191.8340  171.2900  144.1390 C   0  0  0  0  0  2  0  0  0  0  0  0
  191.9530  172.4100  140.6800 O   0  0  0  0  0  0  0  0  0  0  0  0
  195.4840  171.2440  143.5330 C   0  0  0  0  0  1  0  0  0  0  0  0
  193.3260  171.5040  144.3870 C   0  0  0  0  0  2  0  0  0  0  0  0
  192.3430  172.1690  141.8530 C   0  0  0  0  0  0  0  0  0  0  0  0
  191.4020  171.9960  142.9300 N   0  0  0  0  0  0  0  0  0  0  0  0
  193.8110  172.0960  142.1420 C   0  0  0  0  0  2  0  0  0  0  0  0
  1  9  1  0  0  0  0
  2  5  1  1  0  0  0
  2  3  1  0  0  0  0
  3 19  2  0  0  0  0
  3  7  1  0  0  0  0
  4 15  1  0  0  0  0
  4 11  1  0  0  0  0
  5 14  2  0  0  0  0
  6  1  2  0  0  0  0
  7  4  2  0  0  0  0
 10 19  1  0  0  0  0
 12  8  1  0  0  0  0
 12 16  1  0  0  0  0
 13 18  1  1  0  0  0
 13  8  1  0  0  0  0
 13  2  1  0  0  0  0
 14  1  1  0  0  0  0
 16 17  2  0  0  0  0
 16  5  1  0  0  0  0
 17  6  1  0  0  0  0
 18 10  1  0  0  0  0
 19 20  1  0  0  0  0
 20 15  2  0  0  0  0
 21  8  1  0  0  0  0
 21 23  1  0  0  0  0
 23 30  1  0  0  0  0
 23 22  2  0  0  0  0
 24 27  1  0  0  0  0
 24 28  1  0  0  0  0
 25 28  1  0  0  0  0
 26 29  2  0  0  0  0
 29 31  1  0  0  0  0
 29 30  1  0  0  0  0
 30 25  1  0  0  0  0
 31 24  1  0  0  0  0
M  END
>  <MODEL>
9

>  <REMARK>
 VINA RESULT:      -7.5      2.987      4.926
  Name = 
  2 active torsions:
  status: ('A' for Active; 'I' for Inactive)
    1  A    between atoms: C_5  and  C_16
    2  A    between atoms: N_10  and  C_16
                            x       y       z     vdW  Elec       q    Type
                         _______ _______ _______ _____ _____    ______ ____

>  <TORSDO>
F 2

$$$$
