=
 OpenBabel11112417153D

 37 43  0  0  1  0  0  0  0  0999 V2000
  193.1130  175.0840  143.9480 C   0  0  0  0  0  2  0  0  0  0  0  0
  191.7200  170.5930  142.0460 C   0  0  1  0  0  0  0  0  0  0  0  0
  189.8090  174.3580  142.4390 C   0  0  1  0  0  3  0  0  0  0  0  0
  194.6160  175.2030  144.2340 C   0  0  2  0  0  3  0  0  0  0  0  0
  190.3150  176.3880  145.7110 C   0  0  0  0  0  2  0  0  0  0  0  0
  190.0890  172.2660  141.0070 C   0  0  1  0  0  3  0  0  0  0  0  0
  189.9380  174.6130  143.9280 C   0  0  2  0  0  3  0  0  0  0  0  0
  194.0580  176.2910  146.4560 C   0  0  0  0  0  0  0  0  0  0  0  0
  190.0800  172.9020  142.4000 C   0  0  1  0  0  3  0  0  0  0  0  0
  190.1970  176.1060  144.2170 C   0  0  1  0  0  3  0  0  0  0  0  0
  189.8280  173.3040  139.9050 C   0  0  0  0  0  2  0  0  0  0  0  0
  194.9770  175.3570  145.7180 C   0  0  0  0  0  2  0  0  0  0  0  0
  191.3210  172.7740  143.1150 N   0  0  2  0  0  0  0  0  0  0  0  0
  193.1720  170.1750  141.9470 C   0  0  0  0  0  1  0  0  0  0  0  0
  187.9970  176.0500  141.8680 C   0  0  0  0  0  2  0  0  0  0  0  0
  188.6090  174.2080  140.2380 C   0  0  0  0  0  2  0  0  0  0  0  0
  191.5140  171.3550  143.3810 C   0  0  0  0  0  2  0  0  0  0  0  0
  192.6120  175.9350  146.6960 C   0  0  1  0  0  3  0  0  0  0  0  0
  191.6960  176.9470  146.0000 C   0  0  0  0  0  2  0  0  0  0  0  0
  188.4910  174.6130  141.7280 C   0  0  1  0  0  3  0  0  0  0  0  0
  191.0580  173.5710  144.3180 C   0  0  1  0  0  3  0  0  0  0  0  0
  191.3690  171.4450  140.7970 C   0  0  0  0  0  2  0  0  0  0  0  0
  189.1560  177.0640  143.5890 C   0  0  1  0  0  3  0  0  0  0  0  0
  190.9230  169.4480  142.0550 O   0  0  0  0  0  1  0  0  0  0  0  0
  192.3030  174.4630  146.3580 C   0  0  0  0  0  2  0  0  0  0  0  0
  194.4970  177.3510  146.8720 O   0  0  0  0  0  0  0  0  0  0  0  0
  192.3950  174.0870  144.8690 C   0  0  2  0  0  3  0  0  0  0  0  0
  189.0320  176.9550  142.1800 O   0  0  0  0  0  0  0  0  0  0  0  0
  187.5280  176.4570  145.4070 C   0  0  0  0  0  3  0  0  0  0  0  0
  187.8720  177.3120  144.3550 C   0  0  0  0  0  0  0  0  0  0  0  0
  187.0400  178.3970  144.0420 C   0  0  0  0  0  3  0  0  0  0  0  0
  184.8310  179.9680  144.3730 Cl  0  0  0  0  0  0  0  0  0  0  0  0
  185.5250  177.7550  145.8180 C   0  0  0  0  0  3  0  0  0  0  0  0
  185.8680  178.6150  144.7710 C   0  0  0  0  0  0  0  0  0  0  0  0
  186.3560  176.6760  146.1360 C   0  0  0  0  0  3  0  0  0  0  0  0
  196.5270  176.0920  143.5600 C   0  0  0  0  0  1  0  0  0  0  0  0
  195.1430  176.2710  143.5060 O   0  0  0  0  0  0  0  0  0  0  0  0
  1  4  1  0  0  0  0
  1 27  1  0  0  0  0
  2 14  1  6  0  0  0
  2 24  1  0  0  0  0
  2 17  1  0  0  0  0
  3  7  1  0  0  0  0
  4 12  1  0  0  0  0
  5 19  1  0  0  0  0
  6  9  1  0  0  0  0
  7 10  1  0  0  0  0
  7 21  1  0  0  0  0
  8 18  1  0  0  0  0
  8 26  2  0  0  0  0
  9  3  1  0  0  0  0
  9 13  1  0  0  0  0
 10  5  1  0  0  0  0
 11 16  1  0  0  0  0
 11  6  1  0  0  0  0
 12  8  1  0  0  0  0
 13 17  1  0  0  0  0
 13 21  1  0  0  0  0
 15 28  1  0  0  0  0
 16 20  1  0  0  0  0
 19 18  1  0  0  0  0
 20 15  1  0  0  0  0
 20  3  1  0  0  0  0
 21 27  1  0  0  0  0
 22  6  1  0  0  0  0
 22  2  1  0  0  0  0
 23 10  1  0  0  0  0
 23 30  1  0  0  0  0
 25 18  1  0  0  0  0
 27 25  1  0  0  0  0
 28 23  1  0  0  0  0
 29 35  1  0  0  0  0
 30 29  2  0  0  0  0
 31 30  1  0  0  0  0
 31 34  2  0  0  0  0
 32 34  1  0  0  0  0
 33 35  2  0  0  0  0
 34 33  1  0  0  0  0
 37 36  1  0  0  0  0
 37  4  1  0  0  0  0
M  END
>  <MODEL>
1

>  <REMARK>
 VINA RESULT:      -9.7      0.000      0.000
  Name = 
  2 active torsions:
  status: ('A' for Active; 'I' for Inactive)
    1  A    between atoms: C_4  and  O_37
    2  A    between atoms: C_23  and  C_30
                            x       y       z     vdW  Elec       q    Type
                         _______ _______ _______ _____ _____    ______ ____

>  <TORSDO>
F 2

$$$$
=
 OpenBabel11112417153D

 37 43  0  0  1  0  0  0  0  0999 V2000
  192.3860  172.7830  142.4630 C   0  0  0  0  0  2  0  0  0  0  0  0
  196.3420  175.9080  143.0170 C   0  0  1  0  0  0  0  0  0  0  0  0
  192.4610  175.7230  144.7160 C   0  0  1  0  0  3  0  0  0  0  0  0
  192.7130  171.4880  141.7080 C   0  0  2  0  0  3  0  0  0  0  0  0
  189.4570  174.7970  142.4370 C   0  0  0  0  0  2  0  0  0  0  0  0
  194.9170  176.3000  145.1020 C   0  0  1  0  0  3  0  0  0  0  0  0
  191.5850  175.7210  143.4790 C   0  0  2  0  0  3  0  0  0  0  0  0
  190.5660  171.7720  140.3880 C   0  0  0  0  0  0  0  0  0  0  0  0
  193.7330  176.2110  144.1330 C   0  0  1  0  0  3  0  0  0  0  0  0
  190.3610  174.8010  143.6650 C   0  0  1  0  0  3  0  0  0  0  0  0
  194.5330  175.8310  146.5130 C   0  0  0  0  0  2  0  0  0  0  0  0
  192.0050  171.3380  140.3540 C   0  0  0  0  0  2  0  0  0  0  0  0
  193.9500  175.3300  143.0180 N   0  0  2  0  0  0  0  0  0  0  0  0
  197.2610  174.8640  142.4200 C   0  0  0  0  0  1  0  0  0  0  0  0
  190.7260  176.3340  146.4720 C   0  0  0  0  0  2  0  0  0  0  0  0
  193.2020  176.4720  146.9950 C   0  0  0  0  0  2  0  0  0  0  0  0
  195.0150  175.9150  142.2150 C   0  0  0  0  0  2  0  0  0  0  0  0
  190.1920  173.2200  140.5860 C   0  0  1  0  0  3  0  0  0  0  0  0
  189.3880  173.3870  141.8800 C   0  0  0  0  0  2  0  0  0  0  0  0
  192.1140  176.6060  145.9010 C   0  0  1  0  0  3  0  0  0  0  0  0
  192.6380  175.3480  142.3620 C   0  0  1  0  0  3  0  0  0  0  0  0
  196.1440  175.5850  144.5210 C   0  0  0  0  0  2  0  0  0  0  0  0
  189.5200  175.1120  144.9270 C   0  0  1  0  0  3  0  0  0  0  0  0
  196.9460  177.1590  142.8940 O   0  0  0  0  0  1  0  0  0  0  0  0
  191.4050  174.1640  140.4680 C   0  0  0  0  0  2  0  0  0  0  0  0
  189.6890  170.9350  140.2450 O   0  0  0  0  0  0  0  0  0  0  0  0
  192.4590  174.0380  141.5810 C   0  0  2  0  0  3  0  0  0  0  0  0
  190.2440  175.0490  146.1450 O   0  0  0  0  0  0  0  0  0  0  0  0
  188.6570  177.2440  143.9090 C   0  0  0  0  0  3  0  0  0  0  0  0
  188.4740  176.2040  144.8280 C   0  0  0  0  0  0  0  0  0  0  0  0
  187.3170  176.1740  145.6200 C   0  0  0  0  0  3  0  0  0  0  0  0
  184.9200  177.1420  146.4970 Cl  0  0  0  0  0  0  0  0  0  0  0  0
  186.5480  178.2240  144.5880 C   0  0  0  0  0  3  0  0  0  0  0  0
  186.3590  177.1830  145.5020 C   0  0  0  0  0  0  0  0  0  0  0  0
  187.6970  178.2530  143.7920 C   0  0  0  0  0  3  0  0  0  0  0  0
  192.0050  170.9450  143.7330 C   0  0  0  0  0  1  0  0  0  0  0  0
  192.4180  170.3910  142.5190 O   0  0  0  0  0  0  0  0  0  0  0  0
  2 14  1  6  0  0  0
  2 22  1  0  0  0  0
  3 20  1  0  0  0  0
  4  1  1  0  0  0  0
  4 37  1  0  0  0  0
  5 10  1  0  0  0  0
  6 11  1  0  0  0  0
  7 10  1  0  0  0  0
  7  3  1  0  0  0  0
  8 18  1  0  0  0  0
  9  3  1  0  0  0  0
  9  6  1  0  0  0  0
 10 23  1  0  0  0  0
 11 16  1  0  0  0  0
 12  8  1  0  0  0  0
 12  4  1  0  0  0  0
 13  9  1  0  0  0  0
 17  2  1  0  0  0  0
 17 13  1  0  0  0  0
 18 19  1  0  0  0  0
 19  5  1  0  0  0  0
 20 15  1  0  0  0  0
 20 16  1  0  0  0  0
 21 13  1  0  0  0  0
 21  7  1  0  0  0  0
 22  6  1  0  0  0  0
 23 28  1  0  0  0  0
 24  2  1  0  0  0  0
 25 18  1  0  0  0  0
 25 27  1  0  0  0  0
 26  8  2  0  0  0  0
 27 21  1  0  0  0  0
 27  1  1  0  0  0  0
 28 15  1  0  0  0  0
 29 30  1  0  0  0  0
 30 23  1  0  0  0  0
 30 31  2  0  0  0  0
 33 34  2  0  0  0  0
 34 31  1  0  0  0  0
 34 32  1  0  0  0  0
 35 29  2  0  0  0  0
 35 33  1  0  0  0  0
 37 36  1  0  0  0  0
M  END
>  <MODEL>
2

>  <REMARK>
 VINA RESULT:      -8.6      1.772      5.636
  Name = 
  2 active torsions:
  status: ('A' for Active; 'I' for Inactive)
    1  A    between atoms: C_4  and  O_37
    2  A    between atoms: C_23  and  C_30
                            x       y       z     vdW  Elec       q    Type
                         _______ _______ _______ _____ _____    ______ ____

>  <TORSDO>
F 2

$$$$
=
 OpenBabel11112417153D

 37 43  0  0  1  0  0  0  0  0999 V2000
  190.8990  173.2960  142.8970 C   0  0  0  0  0  2  0  0  0  0  0  0
  194.9530  175.8770  144.5210 C   0  0  1  0  0  0  0  0  0  0  0  0
  190.7960  176.0810  145.3380 C   0  0  1  0  0  3  0  0  0  0  0  0
  191.2410  172.0130  142.1280 C   0  0  2  0  0  3  0  0  0  0  0  0
  188.2840  175.6540  142.4080 C   0  0  0  0  0  2  0  0  0  0  0  0
  193.1540  176.3300  146.2810 C   0  0  1  0  0  3  0  0  0  0  0  0
  190.2190  176.2520  143.9470 C   0  0  2  0  0  3  0  0  0  0  0  0
  189.4810  172.6300  140.4100 C   0  0  0  0  0  0  0  0  0  0  0  0
  192.2100  176.4390  145.0790 C   0  0  1  0  0  3  0  0  0  0  0  0
  188.8910  175.4820  143.7970 C   0  0  1  0  0  3  0  0  0  0  0  0
  192.4210  175.8370  147.5370 C   0  0  0  0  0  2  0  0  0  0  0  0
  190.8360  172.0240  140.6480 C   0  0  0  0  0  2  0  0  0  0  0  0
  192.5700  175.5980  143.9690 N   0  0  2  0  0  0  0  0  0  0  0  0
  195.8610  174.7600  144.0530 C   0  0  0  0  0  1  0  0  0  0  0  0
  188.7940  176.8060  146.7290 C   0  0  0  0  0  2  0  0  0  0  0  0
  191.0950  176.6100  147.7750 C   0  0  0  0  0  2  0  0  0  0  0  0
  193.8430  176.0900  143.4590 C   0  0  0  0  0  2  0  0  0  0  0  0
  189.2320  174.1000  140.6370 C   0  0  1  0  0  3  0  0  0  0  0  0
  188.1860  174.2950  141.7400 C   0  0  0  0  0  2  0  0  0  0  0  0
  190.2950  176.9360  146.4880 C   0  0  1  0  0  3  0  0  0  0  0  0
  191.4440  175.8130  143.0530 C   0  0  1  0  0  3  0  0  0  0  0  0
  194.3940  175.5010  145.9190 C   0  0  0  0  0  2  0  0  0  0  0  0
  187.8320  175.8260  144.8720 C   0  0  1  0  0  3  0  0  0  0  0  0
  195.7010  177.0480  144.6280 O   0  0  0  0  0  1  0  0  0  0  0  0
  190.5370  174.8920  140.8540 C   0  0  0  0  0  2  0  0  0  0  0  0
  188.5710  171.9160  140.0190 O   0  0  0  0  0  0  0  0  0  0  0  0
  191.3000  174.5780  142.1520 C   0  0  2  0  0  3  0  0  0  0  0  0
  188.2590  175.6100  146.2080 O   0  0  0  0  0  0  0  0  0  0  0  0
  187.2930  177.9400  143.6190 C   0  0  0  0  0  3  0  0  0  0  0  0
  186.9580  177.0430  144.6390 C   0  0  0  0  0  0  0  0  0  0  0  0
  185.8090  177.2680  145.4110 C   0  0  0  0  0  3  0  0  0  0  0  0
  183.5800  178.6660  146.1390 Cl  0  0  0  0  0  0  0  0  0  0  0  0
  185.3520  179.2850  144.1530 C   0  0  0  0  0  3  0  0  0  0  0  0
  185.0100  178.3880  145.1700 C   0  0  0  0  0  0  0  0  0  0  0  0
  186.4930  179.0600  143.3780 C   0  0  0  0  0  3  0  0  0  0  0  0
  191.0510  169.8110  142.0170 C   0  0  0  0  0  1  0  0  0  0  0  0
  190.6580  170.9190  142.7700 O   0  0  0  0  0  0  0  0  0  0  0  0
  2 14  1  6  0  0  0
  2 24  1  0  0  0  0
  2 22  1  0  0  0  0
  3 20  1  0  0  0  0
  4 37  1  0  0  0  0
  4  1  1  0  0  0  0
  5 10  1  0  0  0  0
  6 11  1  0  0  0  0
  7  3  1  0  0  0  0
  8 18  1  0  0  0  0
  8 12  1  0  0  0  0
  9  3  1  0  0  0  0
  9  6  1  0  0  0  0
 10  7  1  0  0  0  0
 10 23  1  0  0  0  0
 11 16  1  0  0  0  0
 12  4  1  0  0  0  0
 13  9  1  0  0  0  0
 17 13  1  0  0  0  0
 17  2  1  0  0  0  0
 18 25  1  0  0  0  0
 18 19  1  0  0  0  0
 19  5  1  0  0  0  0
 20 15  1  0  0  0  0
 20 16  1  0  0  0  0
 21  7  1  0  0  0  0
 21 13  1  0  0  0  0
 22  6  1  0  0  0  0
 23 28  1  0  0  0  0
 25 27  1  0  0  0  0
 26  8  2  0  0  0  0
 27  1  1  0  0  0  0
 27 21  1  0  0  0  0
 28 15  1  0  0  0  0
 29 30  1  0  0  0  0
 30 23  1  0  0  0  0
 30 31  2  0  0  0  0
 33 34  2  0  0  0  0
 34 31  1  0  0  0  0
 34 32  1  0  0  0  0
 35 29  2  0  0  0  0
 35 33  1  0  0  0  0
 36 37  1  0  0  0  0
M  END
>  <MODEL>
3

>  <REMARK>
 VINA RESULT:      -8.5      1.605      5.582
  Name = 
  2 active torsions:
  status: ('A' for Active; 'I' for Inactive)
    1  A    between atoms: C_4  and  O_37
    2  A    between atoms: C_23  and  C_30
                            x       y       z     vdW  Elec       q    Type
                         _______ _______ _______ _____ _____    ______ ____

>  <TORSDO>
F 2

$$$$
=
 OpenBabel11112417153D

 37 43  0  0  1  0  0  0  0  0999 V2000
  194.1750  174.5000  143.2970 C   0  0  0  0  0  2  0  0  0  0  0  0
  193.0390  169.5580  143.2080 C   0  0  1  0  0  0  0  0  0  0  0  0
  190.7440  173.1210  143.0610 C   0  0  1  0  0  3  0  0  0  0  0  0
  195.6650  174.8030  143.0960 C   0  0  2  0  0  3  0  0  0  0  0  0
  191.7480  176.0950  145.3480 C   0  0  0  0  0  2  0  0  0  0  0  0
  190.9660  170.7110  142.2540 C   0  0  1  0  0  3  0  0  0  0  0  0
  191.2050  173.8340  144.3180 C   0  0  2  0  0  3  0  0  0  0  0  0
  195.5280  176.4870  144.9880 C   0  0  0  0  0  0  0  0  0  0  0  0
  191.2130  171.7460  143.3550 C   0  0  1  0  0  3  0  0  0  0  0  0
  191.3010  175.3560  144.0910 C   0  0  1  0  0  3  0  0  0  0  0  0
  190.2830  171.3360  141.0280 C   0  0  0  0  0  2  0  0  0  0  0  0
  196.3610  175.4340  144.3100 C   0  0  0  0  0  2  0  0  0  0  0  0
  192.5990  171.9310  143.6910 N   0  0  2  0  0  0  0  0  0  0  0  0
  194.4640  169.2290  142.8190 C   0  0  0  0  0  1  0  0  0  0  0  0
  188.6140  174.4260  142.5830 C   0  0  0  0  0  2  0  0  0  0  0  0
  189.0660  172.2140  141.4290 C   0  0  0  0  0  2  0  0  0  0  0  0
  193.0640  170.6810  144.2770 C   0  0  0  0  0  2  0  0  0  0  0  0
  194.2600  176.1270  145.7210 C   0  0  1  0  0  3  0  0  0  0  0  0
  193.0570  176.8090  145.0620 C   0  0  0  0  0  2  0  0  0  0  0  0
  189.2680  173.0530  142.7150 C   0  0  1  0  0  3  0  0  0  0  0  0
  192.5310  173.0420  144.6470 C   0  0  1  0  0  3  0  0  0  0  0  0
  192.2600  169.9540  141.9250 C   0  0  0  0  0  2  0  0  0  0  0  0
  190.0030  176.0000  143.5450 C   0  0  1  0  0  3  0  0  0  0  0  0
  192.4520  168.4220  143.7650 O   0  0  0  0  0  1  0  0  0  0  0  0
  194.1010  174.6050  145.9110 C   0  0  0  0  0  2  0  0  0  0  0  0
  195.8940  177.6510  144.9470 O   0  0  0  0  0  0  0  0  0  0  0  0
  193.8700  173.7930  144.6250 C   0  0  2  0  0  3  0  0  0  0  0  0
  189.5460  175.4500  142.3190 O   0  0  0  0  0  0  0  0  0  0  0  0
  188.8510  175.6980  145.7600 C   0  0  0  0  0  3  0  0  0  0  0  0
  188.9310  176.3860  144.5440 C   0  0  0  0  0  0  0  0  0  0  0  0
  188.0400  177.4360  144.2810 C   0  0  0  0  0  3  0  0  0  0  0  0
  185.9560  179.0930  144.8870 Cl  0  0  0  0  0  0  0  0  0  0  0  0
  186.9880  177.0910  146.4340 C   0  0  0  0  0  3  0  0  0  0  0  0
  187.0690  177.7850  145.2230 C   0  0  0  0  0  0  0  0  0  0  0  0
  187.8790  176.0480  146.7020 C   0  0  0  0  0  3  0  0  0  0  0  0
  197.2060  175.7860  141.8470 C   0  0  0  0  0  1  0  0  0  0  0  0
  195.8250  175.6250  141.9790 O   0  0  0  0  0  0  0  0  0  0  0  0
  1 27  1  0  0  0  0
  2 14  1  6  0  0  0
  2 24  1  0  0  0  0
  2 17  1  0  0  0  0
  3  9  1  0  0  0  0
  3  7  1  0  0  0  0
  4  1  1  0  0  0  0
  4 12  1  0  0  0  0
  6  9  1  0  0  0  0
  7 21  1  0  0  0  0
  8 18  1  0  0  0  0
  9 13  1  0  0  0  0
 10  7  1  0  0  0  0
 10  5  1  0  0  0  0
 11 16  1  0  0  0  0
 11  6  1  0  0  0  0
 12  8  1  0  0  0  0
 13 17  1  0  0  0  0
 13 21  1  0  0  0  0
 15 20  1  0  0  0  0
 16 20  1  0  0  0  0
 18 25  1  0  0  0  0
 19  5  1  0  0  0  0
 19 18  1  0  0  0  0
 20  3  1  0  0  0  0
 22  6  1  0  0  0  0
 22  2  1  0  0  0  0
 23 10  1  0  0  0  0
 23 30  1  0  0  0  0
 26  8  2  0  0  0  0
 27 21  1  0  0  0  0
 27 25  1  0  0  0  0
 28 15  1  0  0  0  0
 28 23  1  0  0  0  0
 29 35  1  0  0  0  0
 30 29  2  0  0  0  0
 31 30  1  0  0  0  0
 31 34  2  0  0  0  0
 32 34  1  0  0  0  0
 33 35  2  0  0  0  0
 34 33  1  0  0  0  0
 36 37  1  0  0  0  0
 37  4  1  0  0  0  0
M  END
>  <MODEL>
4

>  <REMARK>
 VINA RESULT:      -8.4      1.405      1.815
  Name = 
  2 active torsions:
  status: ('A' for Active; 'I' for Inactive)
    1  A    between atoms: C_4  and  O_37
    2  A    between atoms: C_23  and  C_30
                            x       y       z     vdW  Elec       q    Type
                         _______ _______ _______ _____ _____    ______ ____

>  <TORSDO>
F 2

$$$$
=
 OpenBabel11112417153D

 37 43  0  0  1  0  0  0  0  0999 V2000
  191.4670  173.2700  141.7900 C   0  0  0  0  0  2  0  0  0  0  0  0
  189.4930  176.0540  145.5430 C   0  0  1  0  0  0  0  0  0  0  0  0
  193.2220  174.1240  144.9390 C   0  0  1  0  0  3  0  0  0  0  0  0
  190.6600  173.3150  140.4860 C   0  0  2  0  0  3  0  0  0  0  0  0
  193.2690  170.6040  143.3010 C   0  0  0  0  0  2  0  0  0  0  0  0
  192.0180  176.1410  145.9370 C   0  0  1  0  0  3  0  0  0  0  0  0
  192.7870  172.6990  144.6600 C   0  0  2  0  0  3  0  0  0  0  0  0
  190.9460  170.8040  140.2790 C   0  0  0  0  0  0  0  0  0  0  0  0
  191.9830  174.6580  145.5540 C   0  0  1  0  0  3  0  0  0  0  0  0
  193.6800  172.0450  143.5860 C   0  0  1  0  0  3  0  0  0  0  0  0
  193.3610  176.7910  145.5740 C   0  0  0  0  0  2  0  0  0  0  0  0
  190.0280  171.9770  140.0760 C   0  0  0  0  0  2  0  0  0  0  0  0
  190.9630  174.3200  144.5980 N   0  0  2  0  0  0  0  0  0  0  0  0
  188.4480  176.6040  144.5960 C   0  0  0  0  0  1  0  0  0  0  0  0
  195.6790  173.7310  145.4620 C   0  0  0  0  0  2  0  0  0  0  0  0
  194.5670  175.9320  146.0470 C   0  0  0  0  0  2  0  0  0  0  0  0
  189.6800  174.5420  145.2500 C   0  0  0  0  0  2  0  0  0  0  0  0
  191.3450  170.3550  141.6620 C   0  0  1  0  0  3  0  0  0  0  0  0
  192.8610  170.4860  141.8440 C   0  0  0  0  0  2  0  0  0  0  0  0
  194.3760  174.4030  145.8840 C   0  0  1  0  0  3  0  0  0  0  0  0
  191.2560  172.9060  144.3350 C   0  0  1  0  0  3  0  0  0  0  0  0
  190.7980  176.8750  145.3630 C   0  0  0  0  0  2  0  0  0  0  0  0
  195.1950  172.1010  143.9000 C   0  0  1  0  0  3  0  0  0  0  0  0
  189.0360  176.2040  146.8510 O   0  0  0  0  0  1  0  0  0  0  0  0
  190.5130  171.0370  142.7660 C   0  0  0  0  0  2  0  0  0  0  0  0
  191.3660  170.2020  139.3030 O   0  0  0  0  0  0  0  0  0  0  0  0
  190.7390  172.5490  142.9340 C   0  0  2  0  0  3  0  0  0  0  0  0
  195.7070  173.4100  144.0900 O   0  0  0  0  0  0  0  0  0  0  0  0
  197.1120  170.6520  144.6430 C   0  0  0  0  0  3  0  0  0  0  0  0
  195.7710  171.0220  144.7950 C   0  0  0  0  0  0  0  0  0  0  0  0
  194.9910  170.4100  145.7870 C   0  0  0  0  0  3  0  0  0  0  0  0
  194.5660  168.6650  147.8440 Cl  0  0  0  0  0  0  0  0  0  0  0  0
  196.8850  169.0570  146.4520 C   0  0  0  0  0  3  0  0  0  0  0  0
  195.5460  169.4280  146.6110 C   0  0  0  0  0  0  0  0  0  0  0  0
  197.6670  169.6690  145.4680 C   0  0  0  0  0  3  0  0  0  0  0  0
  192.6950  174.0750  140.0650 C   0  0  0  0  0  1  0  0  0  0  0  0
  191.4710  173.7910  139.4550 O   0  0  0  0  0  0  0  0  0  0  0  0
  1 27  1  0  0  0  0
  2 14  1  6  0  0  0
  2 24  1  0  0  0  0
  3  9  1  0  0  0  0
  3 20  1  0  0  0  0
  4  1  1  0  0  0  0
  5 10  1  0  0  0  0
  7  3  1  0  0  0  0
  8 18  1  0  0  0  0
  9  6  1  0  0  0  0
 10 23  1  0  0  0  0
 10  7  1  0  0  0  0
 11  6  1  0  0  0  0
 11 16  1  0  0  0  0
 12  8  1  0  0  0  0
 12  4  1  0  0  0  0
 13 17  1  0  0  0  0
 13  9  1  0  0  0  0
 15 20  1  0  0  0  0
 17  2  1  0  0  0  0
 18 19  1  0  0  0  0
 18 25  1  0  0  0  0
 19  5  1  0  0  0  0
 20 16  1  0  0  0  0
 21 13  1  0  0  0  0
 21  7  1  0  0  0  0
 22  2  1  0  0  0  0
 22  6  1  0  0  0  0
 23 28  1  0  0  0  0
 23 30  1  0  0  0  0
 25 27  1  0  0  0  0
 26  8  2  0  0  0  0
 27 21  1  0  0  0  0
 28 15  1  0  0  0  0
 29 30  2  0  0  0  0
 29 35  1  0  0  0  0
 30 31  1  0  0  0  0
 31 34  2  0  0  0  0
 33 34  1  0  0  0  0
 34 32  1  0  0  0  0
 35 33  2  0  0  0  0
 37 36  1  0  0  0  0
 37  4  1  0  0  0  0
M  END
>  <MODEL>
5

>  <REMARK>
 VINA RESULT:      -8.2      3.694      8.215
  Name = 
  2 active torsions:
  status: ('A' for Active; 'I' for Inactive)
    1  A    between atoms: C_4  and  O_37
    2  A    between atoms: C_23  and  C_30
                            x       y       z     vdW  Elec       q    Type
                         _______ _______ _______ _____ _____    ______ ____

>  <TORSDO>
F 2

$$$$
=
 OpenBabel11112417153D

 37 43  0  0  1  0  0  0  0  0999 V2000
  192.9360  171.9610  142.4610 C   0  0  0  0  0  2  0  0  0  0  0  0
  197.0550  174.7700  143.3940 C   0  0  1  0  0  0  0  0  0  0  0  0
  192.9110  175.2560  144.1540 C   0  0  1  0  0  3  0  0  0  0  0  0
  193.2460  170.5220  142.0260 C   0  0  2  0  0  3  0  0  0  0  0  0
  190.3650  174.1860  141.4240 C   0  0  0  0  0  2  0  0  0  0  0  0
  195.2820  175.6750  144.9980 C   0  0  1  0  0  3  0  0  0  0  0  0
  192.3250  175.0970  142.7650 C   0  0  2  0  0  3  0  0  0  0  0  0
  191.4830  170.7410  140.2160 C   0  0  0  0  0  0  0  0  0  0  0  0
  194.3300  175.5100  143.8090 C   0  0  1  0  0  3  0  0  0  0  0  0
  190.9800  174.3430  142.8110 C   0  0  1  0  0  3  0  0  0  0  0  0
  194.5510  175.5180  146.3390 C   0  0  0  0  0  2  0  0  0  0  0  0
  192.8280  170.1820  140.5880 C   0  0  0  0  0  2  0  0  0  0  0  0
  194.6630  174.4170  142.9350 N   0  0  2  0  0  0  0  0  0  0  0  0
  197.9370  173.5530  143.2070 C   0  0  0  0  0  1  0  0  0  0  0  0
  190.9370  176.3410  145.3340 C   0  0  0  0  0  2  0  0  0  0  0  0
  193.2430  176.3550  146.3870 C   0  0  0  0  0  2  0  0  0  0  0  0
  195.9400  174.7430  142.3160 C   0  0  0  0  0  2  0  0  0  0  0  0
  191.2650  172.2280  140.0800 C   0  0  1  0  0  3  0  0  0  0  0  0
  190.2340  172.7080  141.1070 C   0  0  0  0  0  2  0  0  0  0  0  0
  192.4380  176.3750  145.0630 C   0  0  1  0  0  3  0  0  0  0  0  0
  193.5330  174.4270  141.9990 C   0  0  1  0  0  3  0  0  0  0  0  0
  196.5020  174.7570  144.8440 C   0  0  0  0  0  2  0  0  0  0  0  0
  189.9390  174.9600  143.7750 C   0  0  1  0  0  3  0  0  0  0  0  0
  197.8280  175.9160  143.2100 O   0  0  0  0  0  1  0  0  0  0  0  0
  192.5880  173.0200  140.0930 C   0  0  0  0  0  2  0  0  0  0  0  0
  190.5560  169.9740  140.0140 O   0  0  0  0  0  0  0  0  0  0  0  0
  193.3560  173.0140  141.4250 C   0  0  2  0  0  3  0  0  0  0  0  0
  190.3740  175.0660  145.1210 O   0  0  0  0  0  0  0  0  0  0  0  0
  189.7000  177.1490  142.5580 C   0  0  0  0  0  3  0  0  0  0  0  0
  189.0870  176.1030  143.2570 C   0  0  0  0  0  0  0  0  0  0  0  0
  187.6980  176.1130  143.4440 C   0  0  0  0  0  3  0  0  0  0  0  0
  185.1970  177.1790  143.1870 Cl  0  0  0  0  0  0  0  0  0  0  0  0
  187.5470  178.2160  142.2530 C   0  0  0  0  0  3  0  0  0  0  0  0
  186.9300  177.1690  142.9460 C   0  0  0  0  0  0  0  0  0  0  0  0
  188.9310  178.2050  142.0600 C   0  0  0  0  0  3  0  0  0  0  0  0
  192.7750  170.2340  144.1690 C   0  0  0  0  0  1  0  0  0  0  0  0
  192.6460  169.6300  142.9160 O   0  0  0  0  0  0  0  0  0  0  0  0
  2 14  1  6  0  0  0
  2 22  1  0  0  0  0
  3 20  1  0  0  0  0
  4  1  1  0  0  0  0
  4 37  1  0  0  0  0
  5 10  1  0  0  0  0
  6 11  1  0  0  0  0
  7 10  1  0  0  0  0
  7  3  1  0  0  0  0
  8 12  1  0  0  0  0
  9  3  1  0  0  0  0
  9  6  1  0  0  0  0
 10 23  1  0  0  0  0
 11 16  1  0  0  0  0
 12  4  1  0  0  0  0
 13  9  1  0  0  0  0
 17 13  1  0  0  0  0
 17  2  1  0  0  0  0
 18 25  1  0  0  0  0
 18  8  1  0  0  0  0
 18 19  1  0  0  0  0
 19  5  1  0  0  0  0
 20 15  1  0  0  0  0
 20 16  1  0  0  0  0
 21  7  1  0  0  0  0
 21 13  1  0  0  0  0
 22  6  1  0  0  0  0
 23 28  1  0  0  0  0
 24  2  1  0  0  0  0
 25 27  1  0  0  0  0
 26  8  2  0  0  0  0
 27 21  1  0  0  0  0
 27  1  1  0  0  0  0
 28 15  1  0  0  0  0
 29 30  1  0  0  0  0
 30 31  2  0  0  0  0
 30 23  1  0  0  0  0
 33 34  2  0  0  0  0
 34 32  1  0  0  0  0
 34 31  1  0  0  0  0
 35 33  1  0  0  0  0
 35 29  2  0  0  0  0
 37 36  1  0  0  0  0
M  END
>  <MODEL>
6

>  <REMARK>
 VINA RESULT:      -8.2      2.017      5.815
  Name = 
  2 active torsions:
  status: ('A' for Active; 'I' for Inactive)
    1  A    between atoms: C_4  and  O_37
    2  A    between atoms: C_23  and  C_30
                            x       y       z     vdW  Elec       q    Type
                         _______ _______ _______ _____ _____    ______ ____

>  <TORSDO>
F 2

$$$$
=
 OpenBabel11112417153D

 37 43  0  0  1  0  0  0  0  0999 V2000
  192.2780  175.6610  142.4380 C   0  0  0  0  0  2  0  0  0  0  0  0
  190.5360  171.3880  140.3330 C   0  0  1  0  0  0  0  0  0  0  0  0
  188.8360  175.1850  141.1540 C   0  0  1  0  0  3  0  0  0  0  0  0
  193.8030  175.6980  142.6080 C   0  0  2  0  0  3  0  0  0  0  0  0
  189.6890  176.9370  144.5130 C   0  0  0  0  0  2  0  0  0  0  0  0
  188.9070  173.1980  139.5550 C   0  0  1  0  0  3  0  0  0  0  0  0
  189.0930  175.3200  142.6420 C   0  0  2  0  0  3  0  0  0  0  0  0
  193.4700  176.6350  144.9410 C   0  0  0  0  0  0  0  0  0  0  0  0
  189.0360  173.7260  140.9870 C   0  0  1  0  0  3  0  0  0  0  0  0
  189.4420  176.7750  143.0170 C   0  0  1  0  0  3  0  0  0  0  0  0
  188.6090  174.3270  138.5570 C   0  0  0  0  0  2  0  0  0  0  0  0
  194.2850  175.7240  144.0650 C   0  0  0  0  0  2  0  0  0  0  0  0
  190.3230  173.4950  141.5870 N   0  0  2  0  0  0  0  0  0  0  0  0
  191.9550  170.9220  140.0860 C   0  0  0  0  0  1  0  0  0  0  0  0
  187.0640  176.9860  140.8580 C   0  0  0  0  0  2  0  0  0  0  0  0
  187.4620  175.2510  139.0530 C   0  0  0  0  0  2  0  0  0  0  0  0
  190.4700  172.0530  141.7330 C   0  0  0  0  0  2  0  0  0  0  0  0
  192.0330  176.3200  145.2720 C   0  0  1  0  0  3  0  0  0  0  0  0
  191.1120  177.4180  144.7290 C   0  0  0  0  0  2  0  0  0  0  0  0
  187.4800  175.5450  140.5740 C   0  0  1  0  0  3  0  0  0  0  0  0
  190.1910  174.2070  142.8630 C   0  0  1  0  0  3  0  0  0  0  0  0
  190.1280  172.3460  139.1830 C   0  0  0  0  0  2  0  0  0  0  0  0
  188.3990  177.8190  142.5470 C   0  0  1  0  0  3  0  0  0  0  0  0
  189.6910  170.2780  140.3250 O   0  0  0  0  0  1  0  0  0  0  0  0
  191.6320  174.8920  144.8540 C   0  0  0  0  0  2  0  0  0  0  0  0
  193.9890  177.6420  145.3960 O   0  0  0  0  0  0  0  0  0  0  0  0
  191.5890  174.6270  143.3400 C   0  0  2  0  0  3  0  0  0  0  0  0
  188.1610  177.8230  141.1490 O   0  0  0  0  0  0  0  0  0  0  0  0
  186.3240  179.1150  143.1310 C   0  0  0  0  0  3  0  0  0  0  0  0
  187.1920  178.0590  143.4310 C   0  0  0  0  0  0  0  0  0  0  0  0
  186.9180  177.2260  144.5250 C   0  0  0  0  0  3  0  0  0  0  0  0
  185.4570  176.4160  146.6860 Cl  0  0  0  0  0  0  0  0  0  0  0  0
  184.9300  178.5160  145.0190 C   0  0  0  0  0  3  0  0  0  0  0  0
  185.7910  177.4560  145.3190 C   0  0  0  0  0  0  0  0  0  0  0  0
  185.1970  179.3440  143.9250 C   0  0  0  0  0  3  0  0  0  0  0  0
  195.6670  176.4930  141.7200 C   0  0  0  0  0  1  0  0  0  0  0  0
  194.3190  176.7970  141.9190 O   0  0  0  0  0  0  0  0  0  0  0  0
  1  4  1  0  0  0  0
  1 27  1  0  0  0  0
  2 14  1  6  0  0  0
  2 17  1  0  0  0  0
  3  7  1  0  0  0  0
  4 12  1  0  0  0  0
  5 19  1  0  0  0  0
  6  9  1  0  0  0  0
  7 21  1  0  0  0  0
  7 10  1  0  0  0  0
  8 18  1  0  0  0  0
  8 26  2  0  0  0  0
  9  3  1  0  0  0  0
  9 13  1  0  0  0  0
 10  5  1  0  0  0  0
 11 16  1  0  0  0  0
 11  6  1  0  0  0  0
 12  8  1  0  0  0  0
 13 17  1  0  0  0  0
 13 21  1  0  0  0  0
 15 28  1  0  0  0  0
 16 20  1  0  0  0  0
 19 18  1  0  0  0  0
 20 15  1  0  0  0  0
 20  3  1  0  0  0  0
 21 27  1  0  0  0  0
 22  6  1  0  0  0  0
 22  2  1  0  0  0  0
 23 10  1  0  0  0  0
 23 30  1  0  0  0  0
 24  2  1  0  0  0  0
 25 18  1  0  0  0  0
 27 25  1  0  0  0  0
 28 23  1  0  0  0  0
 29 30  2  0  0  0  0
 29 35  1  0  0  0  0
 30 31  1  0  0  0  0
 31 34  2  0  0  0  0
 33 34  1  0  0  0  0
 34 32  1  0  0  0  0
 35 33  2  0  0  0  0
 36 37  1  0  0  0  0
 37  4  1  0  0  0  0
M  END
>  <MODEL>
7

>  <REMARK>
 VINA RESULT:      -7.7      1.571      2.054
  Name = 
  2 active torsions:
  status: ('A' for Active; 'I' for Inactive)
    1  A    between atoms: C_4  and  O_37
    2  A    between atoms: C_23  and  C_30
                            x       y       z     vdW  Elec       q    Type
                         _______ _______ _______ _____ _____    ______ ____

>  <TORSDO>
F 2

$$$$
=
 OpenBabel11112417153D

 37 43  0  0  1  0  0  0  0  0999 V2000
  194.5210  174.5500  143.4020 C   0  0  0  0  0  2  0  0  0  0  0  0
  190.5980  176.0900  146.2250 C   0  0  1  0  0  0  0  0  0  0  0  0
  190.9970  173.5420  142.8580 C   0  0  1  0  0  3  0  0  0  0  0  0
  195.8930  174.8660  144.0120 C   0  0  2  0  0  3  0  0  0  0  0  0
  193.4400  174.5580  140.0150 C   0  0  0  0  0  2  0  0  0  0  0  0
  189.7520  173.9890  145.0400 C   0  0  1  0  0  3  0  0  0  0  0  0
  191.7020  174.4500  141.8690 C   0  0  2  0  0  3  0  0  0  0  0  0
  196.6760  175.6390  141.7270 C   0  0  0  0  0  0  0  0  0  0  0  0
  190.4980  174.5480  143.8240 C   0  0  1  0  0  3  0  0  0  0  0  0
  192.7300  173.6660  141.0280 C   0  0  1  0  0  3  0  0  0  0  0  0
  189.6920  172.4540  145.0130 C   0  0  0  0  0  2  0  0  0  0  0  0
  196.7350  175.8700  143.2120 C   0  0  0  0  0  2  0  0  0  0  0  0
  191.6750  175.3080  144.1540 N   0  0  2  0  0  0  0  0  0  0  0  0
  191.5450  176.4920  147.3350 C   0  0  0  0  0  1  0  0  0  0  0  0
  190.1620  171.7400  141.2690 C   0  0  0  0  0  2  0  0  0  0  0  0
  189.2460  171.9160  143.6260 C   0  0  0  0  0  2  0  0  0  0  0  0
  191.2270  176.4970  144.8670 C   0  0  0  0  0  2  0  0  0  0  0  0
  195.4040  175.8690  140.9510 C   0  0  1  0  0  3  0  0  0  0  0  0
  194.9280  174.5590  140.3150 C   0  0  0  0  0  2  0  0  0  0  0  0
  189.8220  172.6900  142.4140 C   0  0  1  0  0  3  0  0  0  0  0  0
  192.2310  175.5890  142.8260 C   0  0  1  0  0  3  0  0  0  0  0  0
  190.3280  174.5660  146.3400 C   0  0  0  0  0  2  0  0  0  0  0  0
  192.1480  172.4250  140.3090 C   0  0  1  0  0  3  0  0  0  0  0  0
  189.3970  176.7800  146.3870 O   0  0  0  0  0  1  0  0  0  0  0  0
  194.3300  176.5970  141.7830 C   0  0  0  0  0  2  0  0  0  0  0  0
  197.6820  175.2660  141.1440 O   0  0  0  0  0  0  0  0  0  0  0  0
  193.7460  175.8010  142.9620 C   0  0  2  0  0  3  0  0  0  0  0  0
  191.5440  171.4750  141.1720 O   0  0  0  0  0  0  0  0  0  0  0  0
  192.0050  172.0360  137.8280 C   0  0  0  0  0  3  0  0  0  0  0  0
  191.4680  172.6390  138.9710 C   0  0  0  0  0  0  0  0  0  0  0  0
  190.2990  173.4060  138.8670 C   0  0  0  0  0  3  0  0  0  0  0  0
  188.2250  174.5410  137.5010 Cl  0  0  0  0  0  0  0  0  0  0  0  0
  190.2240  172.9780  136.4850 C   0  0  0  0  0  3  0  0  0  0  0  0
  189.6810  173.5780  137.6260 C   0  0  0  0  0  0  0  0  0  0  0  0
  191.3850  172.2080  136.5870 C   0  0  0  0  0  3  0  0  0  0  0  0
  197.1820  173.7890  145.4530 C   0  0  0  0  0  1  0  0  0  0  0  0
  196.6080  173.6800  144.1840 O   0  0  0  0  0  0  0  0  0  0  0  0
  1  4  1  0  0  0  0
  2 22  1  0  0  0  0
  2 24  1  0  0  0  0
  2 14  1  1  0  0  0
  3  9  1  0  0  0  0
  4 37  1  0  0  0  0
  5 19  1  0  0  0  0
  5 10  1  0  0  0  0
  6 22  1  0  0  0  0
  7 21  1  0  0  0  0
  7  3  1  0  0  0  0
  8 12  1  0  0  0  0
  9 13  1  0  0  0  0
  9  6  1  0  0  0  0
 10  7  1  0  0  0  0
 11  6  1  0  0  0  0
 12  4  1  0  0  0  0
 13 17  1  0  0  0  0
 15 20  1  0  0  0  0
 16 11  1  0  0  0  0
 17  2  1  0  0  0  0
 18  8  1  0  0  0  0
 18 25  1  0  0  0  0
 19 18  1  0  0  0  0
 20  3  1  0  0  0  0
 20 16  1  0  0  0  0
 21 27  1  0  0  0  0
 21 13  1  0  0  0  0
 23 10  1  0  0  0  0
 23 28  1  0  0  0  0
 25 27  1  0  0  0  0
 26  8  2  0  0  0  0
 27  1  1  0  0  0  0
 28 15  1  0  0  0  0
 29 30  1  0  0  0  0
 30 23  1  0  0  0  0
 31 30  2  0  0  0  0
 32 34  1  0  0  0  0
 33 35  1  0  0  0  0
 33 34  2  0  0  0  0
 34 31  1  0  0  0  0
 35 29  2  0  0  0  0
 37 36  1  0  0  0  0
M  END
>  <MODEL>
8

>  <REMARK>
 VINA RESULT:      -7.6      3.121      6.244
  Name = 
  2 active torsions:
  status: ('A' for Active; 'I' for Inactive)
    1  A    between atoms: C_4  and  O_37
    2  A    between atoms: C_23  and  C_30
                            x       y       z     vdW  Elec       q    Type
                         _______ _______ _______ _____ _____    ______ ____

>  <TORSDO>
F 2

$$$$
=
 OpenBabel11112417153D

 37 43  0  0  1  0  0  0  0  0999 V2000
  193.4180  171.3250  142.3510 C   0  0  0  0  0  2  0  0  0  0  0  0
  196.6510  174.8250  140.6130 C   0  0  1  0  0  0  0  0  0  0  0  0
  193.7840  174.7410  143.7370 C   0  0  1  0  0  3  0  0  0  0  0  0
  193.6720  169.9130  141.8060 C   0  0  2  0  0  3  0  0  0  0  0  0
  190.3730  172.9960  143.1070 C   0  0  0  0  0  2  0  0  0  0  0  0
  196.0560  175.6130  142.9710 C   0  0  1  0  0  3  0  0  0  0  0  0
  192.5280  174.3420  142.9880 C   0  0  2  0  0  3  0  0  0  0  0  0
  191.1750  169.6570  141.4410 C   0  0  0  0  0  0  0  0  0  0  0  0
  194.6360  175.1730  142.6040 C   0  0  1  0  0  3  0  0  0  0  0  0
  191.6510  173.3970  143.8350 C   0  0  1  0  0  3  0  0  0  0  0  0
  196.3170  175.4910  144.4800 C   0  0  0  0  0  2  0  0  0  0  0  0
  192.5520  169.3570  140.9150 C   0  0  0  0  0  2  0  0  0  0  0  0
  194.5800  174.0560  141.6990 N   0  0  2  0  0  0  0  0  0  0  0  0
  197.4580  173.7470  139.9200 C   0  0  0  0  0  1  0  0  0  0  0  0
  192.7450  175.6270  145.8820 C   0  0  0  0  0  2  0  0  0  0  0  0
  195.1680  176.1140  145.3190 C   0  0  0  0  0  2  0  0  0  0  0  0
  195.1440  174.5070  140.4340 C   0  0  0  0  0  2  0  0  0  0  0  0
  190.6430  171.0670  141.4760 C   0  0  1  0  0  3  0  0  0  0  0  0
  190.3610  171.4900  142.9220 C   0  0  0  0  0  2  0  0  0  0  0  0
  193.7470  175.8650  144.7560 C   0  0  1  0  0  3  0  0  0  0  0  0
  193.1390  173.7890  141.6420 C   0  0  1  0  0  3  0  0  0  0  0  0
  197.0890  174.8840  142.1010 C   0  0  0  0  0  2  0  0  0  0  0  0
  191.2980  173.9470  145.2390 C   0  0  1  0  0  3  0  0  0  0  0  0
  196.9260  176.0500  140.0070 O   0  0  0  0  0  1  0  0  0  0  0  0
  191.5300  172.0520  140.6900 C   0  0  0  0  0  2  0  0  0  0  0  0
  190.4780  168.7370  141.8370 O   0  0  0  0  0  0  0  0  0  0  0  0
  192.9260  172.3110  141.2810 C   0  0  2  0  0  3  0  0  0  0  0  0
  192.4210  174.2650  146.0450 O   0  0  0  0  0  0  0  0  0  0  0  0
  189.3190  174.8410  146.5080 C   0  0  0  0  0  3  0  0  0  0  0  0
  190.1080  174.8800  145.3530 C   0  0  0  0  0  0  0  0  0  0  0  0
  189.8040  175.7940  144.3350 C   0  0  0  0  0  3  0  0  0  0  0  0
  188.3340  177.7910  143.1920 Cl  0  0  0  0  0  0  0  0  0  0  0  0
  187.9220  176.6090  145.6210 C   0  0  0  0  0  3  0  0  0  0  0  0
  188.7110  176.6550  144.4680 C   0  0  0  0  0  0  0  0  0  0  0  0
  188.2260  175.7030  146.6400 C   0  0  0  0  0  3  0  0  0  0  0  0
  193.9080  169.8540  144.0060 C   0  0  0  0  0  1  0  0  0  0  0  0
  193.9060  169.0410  142.8710 O   0  0  0  0  0  0  0  0  0  0  0  0
  2 14  1  6  0  0  0
  2 22  1  0  0  0  0
  3 20  1  0  0  0  0
  4  1  1  0  0  0  0
  4 37  1  0  0  0  0
  5 10  1  0  0  0  0
  6 11  1  0  0  0  0
  7  3  1  0  0  0  0
  7 10  1  0  0  0  0
  8 18  1  0  0  0  0
  8 26  2  0  0  0  0
  9  6  1  0  0  0  0
  9  3  1  0  0  0  0
 10 23  1  0  0  0  0
 11 16  1  0  0  0  0
 12  8  1  0  0  0  0
 12  4  1  0  0  0  0
 13  9  1  0  0  0  0
 15 28  1  0  0  0  0
 17  2  1  0  0  0  0
 17 13  1  0  0  0  0
 18 19  1  0  0  0  0
 19  5  1  0  0  0  0
 20 16  1  0  0  0  0
 20 15  1  0  0  0  0
 21 13  1  0  0  0  0
 21  7  1  0  0  0  0
 22  6  1  0  0  0  0
 23 30  1  0  0  0  0
 23 28  1  0  0  0  0
 24  2  1  0  0  0  0
 25 27  1  0  0  0  0
 25 18  1  0  0  0  0
 27 21  1  0  0  0  0
 27  1  1  0  0  0  0
 29 35  1  0  0  0  0
 30 29  2  0  0  0  0
 31 34  2  0  0  0  0
 31 30  1  0  0  0  0
 32 34  1  0  0  0  0
 33 35  2  0  0  0  0
 34 33  1  0  0  0  0
 37 36  1  0  0  0  0
M  END
>  <MODEL>
9

>  <REMARK>
 VINA RESULT:      -7.4      2.233      5.931
  Name = 
  2 active torsions:
  status: ('A' for Active; 'I' for Inactive)
    1  A    between atoms: C_4  and  O_37
    2  A    between atoms: C_23  and  C_30
                            x       y       z     vdW  Elec       q    Type
                         _______ _______ _______ _____ _____    ______ ____

>  <TORSDO>
F 2

$$$$
