=
 OpenBabel11112416313D

 32 37  0  0  1  0  0  0  0  0999 V2000
  183.8710  177.7880  142.9100 O   0  0  0  0  0  0  0  0  0  0  0  0
  188.8280  176.8560  142.9310 N   0  0  1  0  0  0  0  0  0  0  0  0
  189.4360  173.1560  139.7240 C   0  0  0  0  0  3  0  0  0  0  0  0
  190.7530  173.0100  140.1640 C   0  0  0  0  0  3  0  0  0  0  0  0
  190.4370  176.9860  144.8910 C   0  0  0  0  0  0  0  0  0  0  0  0
  191.9160  176.8380  145.1900 C   0  0  1  0  0  3  0  0  0  0  0  0
  186.8440  178.2660  142.7810 C   0  0  1  0  0  3  0  0  0  0  0  0
  187.1860  176.5850  141.1220 C   0  0  0  0  0  2  0  0  0  0  0  0
  193.7690  175.4490  144.8870 C   0  0  2  0  0  3  0  0  0  0  0  0
  185.2790  177.9760  140.9610 C   0  0  0  0  0  2  0  0  0  0  0  0
  188.5980  174.0970  140.3270 C   0  0  0  0  0  3  0  0  0  0  0  0
  188.1320  175.8590  142.0850 C   0  0  1  0  0  3  0  0  0  0  0  0
  189.0740  174.9110  141.3650 C   0  0  0  0  0  0  0  0  0  0  0  0
  190.9120  175.6280  142.9100 C   0  0  2  0  0  3  0  0  0  0  0  0
  193.5360  175.5910  146.3840 C   0  0  0  0  0  2  0  0  0  0  0  0
  184.5090  178.5270  143.9370 C   0  0  0  0  0  2  0  0  0  0  0  0
  186.1730  177.2950  141.8990 N   0  0  2  0  0  0  0  0  0  0  0  0
  192.1590  176.1840  146.5270 C   0  0  0  0  0  2  0  0  0  0  0  0
  185.8740  179.1610  143.5740 C   0  0  0  0  0  2  0  0  0  0  0  0
  184.0160  178.4640  141.6820 C   0  0  1  0  0  3  0  0  0  0  0  0
  191.2300  173.7950  141.2160 C   0  0  0  0  0  3  0  0  0  0  0  0
  190.3860  174.7220  141.8420 C   0  0  0  0  0  0  0  0  0  0  0  0
  191.8810  175.0240  143.7200 O   0  0  0  0  0  0  0  0  0  0  0  0
  187.7890  177.5250  143.7240 C   0  0  0  0  0  2  0  0  0  0  0  0
  189.7670  177.7190  145.6010 O   0  0  0  0  0  0  0  0  0  0  0  0
  194.9540  176.0940  144.5360 O   0  0  0  0  0  1  0  0  0  0  0  0
  189.7880  176.1480  143.7980 C   0  0  2  0  0  3  0  0  0  0  0  0
  192.6490  176.0570  144.1740 N   0  0  1  0  0  0  0  0  0  0  0  0
  182.8030  178.2210  140.7990 C   0  0  0  0  0  2  0  0  0  0  0  0
  181.5480  178.5270  141.5400 C   0  0  0  0  0  0  0  0  0  0  0  0
  181.5420  179.4160  142.4300 O   0  0  0  0  0  0  0  0  0  0  0  0
  180.3450  177.8360  141.2200 N   0  0  0  0  0  1  0  0  0  0  0  0
  1 16  1  0  0  0  0
  2 24  1  1  0  0  0
  2 27  1  0  0  0  0
  3  4  2  0  0  0  0
  3 11  1  0  0  0  0
  4 21  1  0  0  0  0
  5  6  1  0  0  0  0
  5 25  2  0  0  0  0
  6 18  1  1  0  0  0
  7 19  1  1  0  0  0
  7 24  1  0  0  0  0
  8 17  1  0  0  0  0
  9 26  1  6  0  0  0
  9 15  1  0  0  0  0
 10 20  1  0  0  0  0
 11 13  2  0  0  0  0
 12  8  1  6  0  0  0
 12  2  1  0  0  0  0
 13 22  1  0  0  0  0
 13 12  1  0  0  0  0
 14 22  1  6  0  0  0
 14 23  1  0  0  0  0
 14 27  1  0  0  0  0
 15 18  1  0  0  0  0
 17 10  1  6  0  0  0
 17  7  1  0  0  0  0
 19 16  1  0  0  0  0
 20 29  1  6  0  0  0
 20  1  1  0  0  0  0
 21 22  2  0  0  0  0
 27  5  1  1  0  0  0
 28 23  1  1  0  0  0
 28  9  1  0  0  0  0
 28  6  1  0  0  0  0
 29 30  1  0  0  0  0
 30 31  2  0  0  0  0
 32 30  1  0  0  0  0
M  END
>  <MODEL>
1

>  <REMARK>
 VINA RESULT:      -8.6      0.000      0.000
  Name = 
  2 active torsions:
  status: ('A' for Active; 'I' for Inactive)
    1  A    between atoms: C_20  and  C_29
    2  A    between atoms: C_29  and  C_30
                            x       y       z     vdW  Elec       q    Type
                         _______ _______ _______ _____ _____    ______ ____

>  <TORSDO>
F 2

$$$$
=
 OpenBabel11112416313D

 32 37  0  0  1  0  0  0  0  0999 V2000
  189.5560  172.2840  140.1460 O   0  0  0  0  0  0  0  0  0  0  0  0
  188.7540  175.8250  143.6480 N   0  0  1  0  0  0  0  0  0  0  0  0
  192.2900  175.1020  147.0140 C   0  0  0  0  0  3  0  0  0  0  0  0
  191.6400  175.9960  147.8670 C   0  0  0  0  0  3  0  0  0  0  0  0
  186.5330  176.7490  144.4600 C   0  0  0  0  0  0  0  0  0  0  0  0
  185.9910  177.8060  145.4020 C   0  0  1  0  0  3  0  0  0  0  0  0
  189.0650  174.9900  141.3770 C   0  0  1  0  0  3  0  0  0  0  0  0
  190.8550  174.7630  142.9390 C   0  0  0  0  0  2  0  0  0  0  0  0
  186.1420  178.6490  147.5750 C   0  0  2  0  0  3  0  0  0  0  0  0
  191.1640  173.9850  140.7270 C   0  0  0  0  0  2  0  0  0  0  0  0
  191.7240  174.7780  145.7780 C   0  0  0  0  0  3  0  0  0  0  0  0
  189.8480  174.9250  144.0820 C   0  0  1  0  0  3  0  0  0  0  0  0
  190.5100  175.3570  145.3790 C   0  0  0  0  0  0  0  0  0  0  0  0
  188.5660  176.8750  145.8180 C   0  0  2  0  0  3  0  0  0  0  0  0
  184.7100  178.1870  147.3560 C   0  0  0  0  0  2  0  0  0  0  0  0
  188.3340  172.9580  139.8990 C   0  0  0  0  0  2  0  0  0  0  0  0
  190.1850  174.1340  141.8030 N   0  0  2  0  0  0  0  0  0  0  0  0
  184.7400  177.3460  146.1070 C   0  0  0  0  0  2  0  0  0  0  0  0
  188.3450  174.4900  140.1120 C   0  0  0  0  0  2  0  0  0  0  0  0
  190.6270  173.0470  139.6380 C   0  0  1  0  0  3  0  0  0  0  0  0
  190.4170  176.5560  147.4920 C   0  0  0  0  0  3  0  0  0  0  0  0
  189.8320  176.2150  146.2660 C   0  0  0  0  0  0  0  0  0  0  0  0
  187.6860  177.1570  146.8710 O   0  0  0  0  0  0  0  0  0  0  0  0
  188.0800  175.1490  142.5340 C   0  0  0  0  0  2  0  0  0  0  0  0
  185.8610  176.4260  143.4930 O   0  0  0  0  0  0  0  0  0  0  0  0
  186.1730  180.0390  147.6800 O   0  0  0  0  0  1  0  0  0  0  0  0
  187.8360  176.0290  144.7830 C   0  0  2  0  0  3  0  0  0  0  0  0
  186.9550  178.2250  146.4380 N   0  0  1  0  0  0  0  0  0  0  0  0
  191.7430  172.1350  139.1580 C   0  0  0  0  0  2  0  0  0  0  0  0
  191.2410  171.1980  138.1150 C   0  0  0  0  0  0  0  0  0  0  0  0
  191.2870  169.9550  138.3090 O   0  0  0  0  0  0  0  0  0  0  0  0
  190.6770  171.7070  136.9120 N   0  0  0  0  0  1  0  0  0  0  0  0
  2 24  1  6  0  0  0
  2 12  1  0  0  0  0
  2 27  1  0  0  0  0
  3  4  1  0  0  0  0
  5  6  1  0  0  0  0
  6 18  1  1  0  0  0
  6 28  1  0  0  0  0
  7 19  1  6  0  0  0
  7 17  1  0  0  0  0
  7 24  1  0  0  0  0
  9 26  1  6  0  0  0
 11  3  2  0  0  0  0
 12  8  1  6  0  0  0
 12 13  1  0  0  0  0
 13 11  1  0  0  0  0
 13 22  2  0  0  0  0
 14 22  1  1  0  0  0
 14 23  1  0  0  0  0
 15  9  1  0  0  0  0
 16 19  1  0  0  0  0
 16  1  1  0  0  0  0
 17 10  1  6  0  0  0
 17  8  1  0  0  0  0
 18 15  1  0  0  0  0
 20 29  1  1  0  0  0
 20  1  1  0  0  0  0
 20 10  1  0  0  0  0
 21  4  2  0  0  0  0
 22 21  1  0  0  0  0
 25  5  2  0  0  0  0
 27  5  1  6  0  0  0
 27 14  1  0  0  0  0
 28 23  1  1  0  0  0
 28  9  1  0  0  0  0
 30 31  2  0  0  0  0
 30 29  1  0  0  0  0
 32 30  1  0  0  0  0
M  END
>  <MODEL>
2

>  <REMARK>
 VINA RESULT:      -8.3      3.382      7.445
  Name = 
  2 active torsions:
  status: ('A' for Active; 'I' for Inactive)
    1  A    between atoms: C_20  and  C_29
    2  A    between atoms: C_29  and  C_30
                            x       y       z     vdW  Elec       q    Type
                         _______ _______ _______ _____ _____    ______ ____

>  <TORSDO>
F 2

$$$$
=
 OpenBabel11112416313D

 32 37  0  0  1  0  0  0  0  0999 V2000
  186.2110  178.3050  141.7850 O   0  0  0  0  0  0  0  0  0  0  0  0
  190.0870  175.8050  143.8250 N   0  0  1  0  0  0  0  0  0  0  0  0
  190.5400  177.6620  148.3740 C   0  0  0  0  0  3  0  0  0  0  0  0
  191.7580  176.9910  148.5110 C   0  0  0  0  0  3  0  0  0  0  0  0
  192.1980  174.9830  142.6780 C   0  0  0  0  0  0  0  0  0  0  0  0
  193.4510  174.1870  142.9850 C   0  0  1  0  0  3  0  0  0  0  0  0
  187.9610  176.0090  142.6470 C   0  0  1  0  0  3  0  0  0  0  0  0
  188.1030  176.7770  144.9020 C   0  0  0  0  0  2  0  0  0  0  0  0
  195.2300  173.9800  144.4830 C   0  0  2  0  0  3  0  0  0  0  0  0
  186.0340  176.9440  143.7680 C   0  0  0  0  0  2  0  0  0  0  0  0
  189.8390  177.5970  147.1680 C   0  0  0  0  0  3  0  0  0  0  0  0
  189.6260  176.8630  144.7530 C   0  0  1  0  0  3  0  0  0  0  0  0
  190.3390  176.8480  146.0930 C   0  0  0  0  0  0  0  0  0  0  0  0
  192.1010  175.3740  145.0930 C   0  0  2  0  0  3  0  0  0  0  0  0
  195.8140  174.2640  143.1080 C   0  0  0  0  0  2  0  0  0  0  0  0
  186.8540  177.5060  140.8070 C   0  0  0  0  0  2  0  0  0  0  0  0
  187.4860  177.0260  143.6010 N   0  0  2  0  0  0  0  0  0  0  0  0
  194.6580  174.7330  142.2640 C   0  0  0  0  0  2  0  0  0  0  0  0
  187.2940  176.0940  141.2630 C   0  0  0  0  0  2  0  0  0  0  0  0
  185.3200  177.5090  142.5340 C   0  0  1  0  0  3  0  0  0  0  0  0
  192.2800  176.2660  147.4380 C   0  0  0  0  0  3  0  0  0  0  0  0
  191.5930  176.2180  146.2180 C   0  0  0  0  0  0  0  0  0  0  0  0
  193.4990  175.3290  145.0220 O   0  0  0  0  0  0  0  0  0  0  0  0
  189.4800  176.1030  142.5220 C   0  0  0  0  0  2  0  0  0  0  0  0
  191.7690  174.9820  141.5340 O   0  0  0  0  0  0  0  0  0  0  0  0
  195.5480  172.6770  144.8650 O   0  0  0  0  0  1  0  0  0  0  0  0
  191.5590  175.8530  143.7520 C   0  0  2  0  0  3  0  0  0  0  0  0
  193.7800  174.1340  144.4230 N   0  0  1  0  0  0  0  0  0  0  0  0
  184.1210  178.3330  142.9750 C   0  0  0  0  0  2  0  0  0  0  0  0
  184.4630  179.1560  144.1680 C   0  0  0  0  0  0  0  0  0  0  0  0
  185.2230  180.1510  144.0500 O   0  0  0  0  0  0  0  0  0  0  0  0
  183.9020  178.8380  145.4370 N   0  0  0  0  0  1  0  0  0  0  0  0
  1 20  1  0  0  0  0
  2 24  1  6  0  0  0
  2 12  1  0  0  0  0
  3  4  1  0  0  0  0
  5  6  1  0  0  0  0
  6 18  1  6  0  0  0
  6 28  1  0  0  0  0
  7 19  1  6  0  0  0
  7 17  1  0  0  0  0
  9 26  1  6  0  0  0
 11  3  2  0  0  0  0
 12  8  1  1  0  0  0
 12 13  1  0  0  0  0
 13 22  2  0  0  0  0
 13 11  1  0  0  0  0
 14 23  1  6  0  0  0
 14 22  1  0  0  0  0
 15  9  1  0  0  0  0
 16 19  1  0  0  0  0
 16  1  1  0  0  0  0
 17 10  1  1  0  0  0
 17  8  1  0  0  0  0
 18 15  1  0  0  0  0
 20 29  1  1  0  0  0
 20 10  1  0  0  0  0
 21  4  2  0  0  0  0
 22 21  1  0  0  0  0
 24  7  1  0  0  0  0
 25  5  2  0  0  0  0
 27  5  1  6  0  0  0
 27  2  1  0  0  0  0
 27 14  1  0  0  0  0
 28  9  1  0  0  0  0
 28 23  1  1  0  0  0
 29 30  1  0  0  0  0
 30 32  1  0  0  0  0
 31 30  2  0  0  0  0
M  END
>  <MODEL>
3

>  <REMARK>
 VINA RESULT:      -8.2      2.364      4.485
  Name = 
  2 active torsions:
  status: ('A' for Active; 'I' for Inactive)
    1  A    between atoms: C_20  and  C_29
    2  A    between atoms: C_29  and  C_30
                            x       y       z     vdW  Elec       q    Type
                         _______ _______ _______ _____ _____    ______ ____

>  <TORSDO>
F 2

$$$$
=
 OpenBabel11112416313D

 32 37  0  0  1  0  0  0  0  0999 V2000
  187.0240  176.4500  146.0690 O   0  0  0  0  0  0  0  0  0  0  0  0
  191.6700  175.8540  144.1990 N   0  0  1  0  0  0  0  0  0  0  0  0
  191.0280  173.4020  139.9650 C   0  0  0  0  0  3  0  0  0  0  0  0
  192.4080  173.2030  139.8880 C   0  0  0  0  0  3  0  0  0  0  0  0
  193.8300  175.4510  145.4720 C   0  0  0  0  0  0  0  0  0  0  0  0
  195.3170  175.3040  145.2160 C   0  0  1  0  0  3  0  0  0  0  0  0
  189.8150  177.1190  145.1520 C   0  0  1  0  0  3  0  0  0  0  0  0
  189.5210  176.0730  143.0270 C   0  0  0  0  0  2  0  0  0  0  0  0
  196.9030  174.1940  143.9090 C   0  0  2  0  0  3  0  0  0  0  0  0
  187.7350  177.3280  143.9380 C   0  0  0  0  0  2  0  0  0  0  0  0
  190.4770  174.0520  141.0720 C   0  0  0  0  0  3  0  0  0  0  0  0
  190.6900  175.1370  143.3510 C   0  0  1  0  0  3  0  0  0  0  0  0
  191.3020  174.5230  142.1040 C   0  0  0  0  0  0  0  0  0  0  0  0
  193.5730  174.8210  143.1200 C   0  0  2  0  0  3  0  0  0  0  0  0
  197.1730  173.8410  145.3630 C   0  0  0  0  0  2  0  0  0  0  0  0
  187.9950  176.8620  147.0160 C   0  0  0  0  0  2  0  0  0  0  0  0
  188.8490  176.4390  144.2720 N   0  0  2  0  0  0  0  0  0  0  0  0
  195.9470  174.2760  146.1230 C   0  0  0  0  0  2  0  0  0  0  0  0
  189.1980  177.6570  146.4550 C   0  0  0  0  0  2  0  0  0  0  0  0
  186.7980  177.4880  145.1420 C   0  0  1  0  0  3  0  0  0  0  0  0
  193.2370  173.6410  140.9240 C   0  0  0  0  0  3  0  0  0  0  0  0
  192.6860  174.2710  142.0480 C   0  0  0  0  0  0  0  0  0  0  0  0
  194.7210  174.0500  143.3390 O   0  0  0  0  0  0  0  0  0  0  0  0
  190.9770  176.1750  145.4530 C   0  0  0  0  0  2  0  0  0  0  0  0
  193.4620  175.8810  146.5540 O   0  0  0  0  0  0  0  0  0  0  0  0
  197.9410  174.9860  143.4200 O   0  0  0  0  0  1  0  0  0  0  0  0
  192.8230  174.9660  144.4380 C   0  0  2  0  0  3  0  0  0  0  0  0
  195.6440  174.9300  143.8270 N   0  0  1  0  0  0  0  0  0  0  0  0
  185.3540  177.4650  144.6670 C   0  0  0  0  0  2  0  0  0  0  0  0
  184.7110  178.7900  144.8870 C   0  0  0  0  0  0  0  0  0  0  0  0
  183.7150  178.8890  145.6490 O   0  0  0  0  0  0  0  0  0  0  0  0
  185.2430  179.9530  144.2600 N   0  0  0  0  0  1  0  0  0  0  0  0
  1 16  1  0  0  0  0
  2 27  1  0  0  0  0
  2 24  1  1  0  0  0
  3 11  1  0  0  0  0
  4  3  2  0  0  0  0
  4 21  1  0  0  0  0
  5 25  2  0  0  0  0
  6  5  1  0  0  0  0
  6 18  1  1  0  0  0
  7 24  1  1  0  0  0
  7 19  1  0  0  0  0
  9 26  1  1  0  0  0
  9 15  1  0  0  0  0
 10 17  1  0  0  0  0
 10 20  1  0  0  0  0
 11 13  2  0  0  0  0
 12  8  1  6  0  0  0
 12  2  1  0  0  0  0
 13 12  1  0  0  0  0
 14 22  1  6  0  0  0
 14 23  1  0  0  0  0
 14 27  1  0  0  0  0
 15 18  1  0  0  0  0
 17  8  1  6  0  0  0
 17  7  1  0  0  0  0
 19 16  1  0  0  0  0
 20 29  1  6  0  0  0
 20  1  1  0  0  0  0
 21 22  2  0  0  0  0
 22 13  1  0  0  0  0
 27  5  1  1  0  0  0
 28 23  1  1  0  0  0
 28  9  1  0  0  0  0
 28  6  1  0  0  0  0
 29 30  1  0  0  0  0
 30 31  2  0  0  0  0
 32 30  1  0  0  0  0
M  END
>  <MODEL>
4

>  <REMARK>
 VINA RESULT:      -8.0      2.540      3.715
  Name = 
  2 active torsions:
  status: ('A' for Active; 'I' for Inactive)
    1  A    between atoms: C_20  and  C_29
    2  A    between atoms: C_29  and  C_30
                            x       y       z     vdW  Elec       q    Type
                         _______ _______ _______ _____ _____    ______ ____

>  <TORSDO>
F 2

$$$$
=
 OpenBabel11112416313D

 32 37  0  0  1  0  0  0  0  0999 V2000
  192.2390  172.9730  141.4870 O   0  0  0  0  0  0  0  0  0  0  0  0
  188.1740  175.2460  143.4220 N   0  0  1  0  0  0  0  0  0  0  0  0
  186.1080  177.6060  139.6130 C   0  0  0  0  0  3  0  0  0  0  0  0
  185.2610  178.2710  140.5020 C   0  0  0  0  0  3  0  0  0  0  0  0
  187.9050  176.2770  145.7270 C   0  0  0  0  0  0  0  0  0  0  0  0
  186.8460  176.9410  146.5840 C   0  0  1  0  0  3  0  0  0  0  0  0
  189.6660  173.3620  143.0060 C   0  0  1  0  0  3  0  0  0  0  0  0
  188.5610  174.3830  141.1530 C   0  0  0  0  0  2  0  0  0  0  0  0
  185.2130  178.6110  146.6040 C   0  0  2  0  0  3  0  0  0  0  0  0
  189.9830  172.5350  140.7570 C   0  0  0  0  0  2  0  0  0  0  0  0
  187.0860  176.7340  140.0980 C   0  0  0  0  0  3  0  0  0  0  0  0
  188.3430  175.6390  142.0040 C   0  0  1  0  0  3  0  0  0  0  0  0
  187.2160  176.5070  141.4760 C   0  0  0  0  0  0  0  0  0  0  0  0
  186.4950  176.9370  143.8370 C   0  0  2  0  0  3  0  0  0  0  0  0
  186.2220  178.9380  147.6940 C   0  0  0  0  0  2  0  0  0  0  0  0
  192.2320  172.8560  142.9000 C   0  0  0  0  0  2  0  0  0  0  0  0
  189.7930  173.7270  141.5840 N   0  0  2  0  0  0  0  0  0  0  0  0
  187.4160  178.0600  147.4200 C   0  0  0  0  0  2  0  0  0  0  0  0
  190.8600  172.5590  143.5520 C   0  0  0  0  0  2  0  0  0  0  0  0
  191.4050  171.9840  140.9280 C   0  0  1  0  0  3  0  0  0  0  0  0
  185.4000  178.0740  141.8790 C   0  0  0  0  0  3  0  0  0  0  0  0
  186.3950  177.2210  142.3720 C   0  0  0  0  0  0  0  0  0  0  0  0
  186.1670  178.0380  144.6380 O   0  0  0  0  0  0  0  0  0  0  0  0
  189.4380  174.6240  143.8340 C   0  0  0  0  0  2  0  0  0  0  0  0
  188.8140  175.6770  146.2790 O   0  0  0  0  0  0  0  0  0  0  0  0
  183.9960  178.2570  147.1860 O   0  0  0  0  0  1  0  0  0  0  0  0
  187.8910  176.4570  144.2150 C   0  0  2  0  0  3  0  0  0  0  0  0
  185.7200  177.4970  145.8090 N   0  0  1  0  0  0  0  0  0  0  0  0
  191.9430  171.5430  139.5770 C   0  0  0  0  0  2  0  0  0  0  0  0
  191.1350  170.4160  139.0340 C   0  0  0  0  0  0  0  0  0  0  0  0
  190.5950  170.5150  137.9020 O   0  0  0  0  0  0  0  0  0  0  0  0
  191.0000  169.2120  139.7820 N   0  0  0  0  0  1  0  0  0  0  0  0
  1 16  1  0  0  0  0
  2 24  1  1  0  0  0
  2 27  1  0  0  0  0
  3 11  2  0  0  0  0
  3  4  1  0  0  0  0
  4 21  2  0  0  0  0
  5 25  2  0  0  0  0
  5  6  1  0  0  0  0
  6 18  1  6  0  0  0
  7 19  1  1  0  0  0
  7 24  1  0  0  0  0
  8 17  1  0  0  0  0
  9 26  1  1  0  0  0
  9 15  1  0  0  0  0
 10 20  1  0  0  0  0
 11 13  1  0  0  0  0
 12  8  1  6  0  0  0
 12  2  1  0  0  0  0
 13 12  1  0  0  0  0
 13 22  2  0  0  0  0
 14 22  1  6  0  0  0
 14 27  1  0  0  0  0
 14 23  1  0  0  0  0
 16 19  1  0  0  0  0
 17 10  1  6  0  0  0
 17  7  1  0  0  0  0
 18 15  1  0  0  0  0
 20 29  1  6  0  0  0
 20  1  1  0  0  0  0
 21 22  1  0  0  0  0
 27  5  1  1  0  0  0
 28 23  1  6  0  0  0
 28  6  1  0  0  0  0
 28  9  1  0  0  0  0
 30 29  1  0  0  0  0
 30 32  1  0  0  0  0
 31 30  2  0  0  0  0
M  END
>  <MODEL>
5

>  <REMARK>
 VINA RESULT:      -7.9      3.039      7.505
  Name = 
  2 active torsions:
  status: ('A' for Active; 'I' for Inactive)
    1  A    between atoms: C_20  and  C_29
    2  A    between atoms: C_29  and  C_30
                            x       y       z     vdW  Elec       q    Type
                         _______ _______ _______ _____ _____    ______ ____

>  <TORSDO>
F 2

$$$$
=
 OpenBabel11112416313D

 32 37  0  0  1  0  0  0  0  0999 V2000
  186.8460  178.5310  143.0830 O   0  0  0  0  0  0  0  0  0  0  0  0
  190.1810  174.7610  143.4090 N   0  0  1  0  0  0  0  0  0  0  0  0
  193.6680  176.4160  146.4830 C   0  0  0  0  0  3  0  0  0  0  0  0
  194.4680  175.3230  146.1420 C   0  0  0  0  0  3  0  0  0  0  0  0
  190.8950  173.1400  141.5890 C   0  0  0  0  0  0  0  0  0  0  0  0
  191.7780  171.9230  141.4010 C   0  0  1  0  0  3  0  0  0  0  0  0
  187.9550  175.7550  143.4660 C   0  0  1  0  0  3  0  0  0  0  0  0
  189.5720  176.4690  145.0690 C   0  0  0  0  0  2  0  0  0  0  0  0
  193.9190  171.0720  141.7850 C   0  0  2  0  0  3  0  0  0  0  0  0
  187.4020  177.4070  145.1420 C   0  0  0  0  0  2  0  0  0  0  0  0
  192.4320  176.6000  145.8590 C   0  0  0  0  0  3  0  0  0  0  0  0
  190.6810  175.9410  144.1520 C   0  0  1  0  0  3  0  0  0  0  0  0
  191.9760  175.6830  144.9000 C   0  0  0  0  0  0  0  0  0  0  0  0
  192.3020  173.6050  143.5380 C   0  0  2  0  0  3  0  0  0  0  0  0
  193.6800  171.0630  140.2840 C   0  0  0  0  0  2  0  0  0  0  0  0
  186.5390  177.5150  142.1430 C   0  0  0  0  0  2  0  0  0  0  0  0
  188.4450  176.9040  144.2470 N   0  0  2  0  0  0  0  0  0  0  0  0
  192.4670  171.9270  140.0590 C   0  0  0  0  0  2  0  0  0  0  0  0
  186.6910  176.0580  142.6410 C   0  0  0  0  0  2  0  0  0  0  0  0
  186.3380  178.1740  144.3480 C   0  0  1  0  0  3  0  0  0  0  0  0
  194.0370  174.4200  145.1670 C   0  0  0  0  0  3  0  0  0  0  0  0
  192.8100  174.6130  144.5200 C   0  0  0  0  0  0  0  0  0  0  0  0
  193.3180  173.0100  142.7800 O   0  0  0  0  0  0  0  0  0  0  0  0
  189.0760  175.2380  142.5680 C   0  0  0  0  0  2  0  0  0  0  0  0
  189.9230  173.2760  140.8620 O   0  0  0  0  0  0  0  0  0  0  0  0
  193.9700  169.7610  142.2580 O   0  0  0  0  0  1  0  0  0  0  0  0
  191.2820  174.2220  142.5890 C   0  0  2  0  0  3  0  0  0  0  0  0
  192.8230  171.7850  142.4350 N   0  0  1  0  0  0  0  0  0  0  0  0
  185.9250  179.4160  145.1200 C   0  0  0  0  0  2  0  0  0  0  0  0
  185.2780  179.0400  146.4070 C   0  0  0  0  0  0  0  0  0  0  0  0
  185.7830  179.4100  147.4990 O   0  0  0  0  0  0  0  0  0  0  0  0
  184.0670  178.2910  146.4040 N   0  0  0  0  0  1  0  0  0  0  0  0
  1 20  1  0  0  0  0
  2 24  1  6  0  0  0
  2 12  1  0  0  0  0
  4  3  1  0  0  0  0
  6 18  1  6  0  0  0
  6  5  1  0  0  0  0
  6 28  1  0  0  0  0
  7 24  1  6  0  0  0
  7 17  1  0  0  0  0
  9 26  1  1  0  0  0
  9 28  1  0  0  0  0
 11  3  2  0  0  0  0
 12 13  1  0  0  0  0
 12  8  1  1  0  0  0
 13 11  1  0  0  0  0
 14 23  1  6  0  0  0
 14 22  1  0  0  0  0
 15  9  1  0  0  0  0
 16 19  1  0  0  0  0
 16  1  1  0  0  0  0
 17  8  1  1  0  0  0
 17 10  1  0  0  0  0
 18 15  1  0  0  0  0
 19  7  1  0  0  0  0
 20 29  1  1  0  0  0
 20 10  1  0  0  0  0
 21  4  2  0  0  0  0
 22 13  2  0  0  0  0
 22 21  1  0  0  0  0
 25  5  2  0  0  0  0
 27  5  1  6  0  0  0
 27  2  1  0  0  0  0
 27 14  1  0  0  0  0
 28 23  1  6  0  0  0
 29 30  1  0  0  0  0
 30 31  2  0  0  0  0
 32 30  1  0  0  0  0
M  END
>  <MODEL>
6

>  <REMARK>
 VINA RESULT:      -7.8      2.678      5.192
  Name = 
  2 active torsions:
  status: ('A' for Active; 'I' for Inactive)
    1  A    between atoms: C_20  and  C_29
    2  A    between atoms: C_29  and  C_30
                            x       y       z     vdW  Elec       q    Type
                         _______ _______ _______ _____ _____    ______ ____

>  <TORSDO>
F 2

$$$$
=
 OpenBabel11112416313D

 32 37  0  0  1  0  0  0  0  0999 V2000
  186.5270  179.1240  143.4360 O   0  0  0  0  0  0  0  0  0  0  0  0
  188.7060  174.7530  142.1780 N   0  0  1  0  0  0  0  0  0  0  0  0
  192.3480  174.1630  145.4550 C   0  0  0  0  0  3  0  0  0  0  0  0
  192.8410  173.1010  144.6940 C   0  0  0  0  0  3  0  0  0  0  0  0
  189.0500  173.7870  139.8550 C   0  0  0  0  0  0  0  0  0  0  0  0
  189.5830  172.5350  139.1870 C   0  0  1  0  0  3  0  0  0  0  0  0
  186.8280  176.2140  142.7150 C   0  0  1  0  0  3  0  0  0  0  0  0
  188.4940  175.8270  144.3790 C   0  0  0  0  0  2  0  0  0  0  0  0
  191.3950  171.0620  139.1170 C   0  0  2  0  0  3  0  0  0  0  0  0
  186.6550  177.2170  144.9070 C   0  0  0  0  0  2  0  0  0  0  0  0
  191.2400  174.8870  145.0080 C   0  0  0  0  0  3  0  0  0  0  0  0
  189.4660  175.3970  143.2750 C   0  0  1  0  0  3  0  0  0  0  0  0
  190.6050  174.5460  143.8050 C   0  0  0  0  0  0  0  0  0  0  0  0
  190.4300  173.1080  141.7610 C   0  0  2  0  0  3  0  0  0  0  0  0
  191.2390  171.6700  137.7320 C   0  0  0  0  0  2  0  0  0  0  0  0
  186.0060  178.6470  142.2070 C   0  0  0  0  0  2  0  0  0  0  0  0
  187.5690  176.8180  143.8360 N   0  0  2  0  0  0  0  0  0  0  0  0
  190.3140  172.8470  137.9050 C   0  0  0  0  0  2  0  0  0  0  0  0
  185.7360  177.1250  142.1260 C   0  0  0  0  0  2  0  0  0  0  0  0
  185.8770  178.4770  144.5070 C   0  0  1  0  0  3  0  0  0  0  0  0
  192.2350  172.7700  143.4800 C   0  0  0  0  0  3  0  0  0  0  0  0
  191.1390  173.5090  143.0150 C   0  0  0  0  0  0  0  0  0  0  0  0
  191.2860  172.5840  140.7840 O   0  0  0  0  0  0  0  0  0  0  0  0
  187.8140  175.7820  141.6310 C   0  0  0  0  0  2  0  0  0  0  0  0
  188.1890  174.4350  139.2820 O   0  0  0  0  0  0  0  0  0  0  0  0
  191.0680  169.7070  139.0720 O   0  0  0  0  0  1  0  0  0  0  0  0
  189.6620  174.2790  141.1600 C   0  0  2  0  0  3  0  0  0  0  0  0
  190.4980  171.7530  140.0400 N   0  0  1  0  0  0  0  0  0  0  0  0
  185.7740  179.4100  145.7020 C   0  0  0  0  0  2  0  0  0  0  0  0
  185.2450  178.6830  146.8890 C   0  0  0  0  0  0  0  0  0  0  0  0
  184.0630  178.2530  146.8900 O   0  0  0  0  0  0  0  0  0  0  0  0
  186.0880  178.4430  148.0110 N   0  0  0  0  0  1  0  0  0  0  0  0
  1 20  1  0  0  0  0
  2 24  1  6  0  0  0
  2 12  1  0  0  0  0
  4  3  2  0  0  0  0
  6 18  1  6  0  0  0
  6  5  1  0  0  0  0
  6 28  1  0  0  0  0
  7 24  1  6  0  0  0
  7 17  1  0  0  0  0
  9 26  1  6  0  0  0
  9 28  1  0  0  0  0
 11  3  1  0  0  0  0
 12 13  1  0  0  0  0
 12  8  1  1  0  0  0
 13 11  2  0  0  0  0
 14 23  1  6  0  0  0
 14 22  1  0  0  0  0
 15 18  1  0  0  0  0
 15  9  1  0  0  0  0
 16  1  1  0  0  0  0
 17  8  1  1  0  0  0
 17 10  1  0  0  0  0
 19 16  1  0  0  0  0
 19  7  1  0  0  0  0
 20 10  1  0  0  0  0
 20 29  1  1  0  0  0
 21  4  1  0  0  0  0
 22 21  2  0  0  0  0
 22 13  1  0  0  0  0
 25  5  2  0  0  0  0
 27  5  1  6  0  0  0
 27 14  1  0  0  0  0
 27  2  1  0  0  0  0
 28 23  1  1  0  0  0
 29 30  1  0  0  0  0
 30 31  2  0  0  0  0
 30 32  1  0  0  0  0
M  END
>  <MODEL>
7

>  <REMARK>
 VINA RESULT:      -7.8      2.958      5.423
  Name = 
  2 active torsions:
  status: ('A' for Active; 'I' for Inactive)
    1  A    between atoms: C_20  and  C_29
    2  A    between atoms: C_29  and  C_30
                            x       y       z     vdW  Elec       q    Type
                         _______ _______ _______ _____ _____    ______ ____

>  <TORSDO>
F 2

$$$$
=
 OpenBabel11112416313D

 32 37  0  0  1  0  0  0  0  0999 V2000
  186.6020  179.0430  143.0710 O   0  0  0  0  0  0  0  0  0  0  0  0
  189.4100  174.8580  142.8650 N   0  0  1  0  0  0  0  0  0  0  0  0
  192.6970  175.3560  146.5120 C   0  0  0  0  0  3  0  0  0  0  0  0
  193.3950  174.2550  146.0130 C   0  0  0  0  0  3  0  0  0  0  0  0
  190.1290  173.5550  140.8080 C   0  0  0  0  0  0  0  0  0  0  0  0
  190.8780  172.2890  140.4400 C   0  0  1  0  0  3  0  0  0  0  0  0
  187.3240  176.1200  142.9430 C   0  0  1  0  0  3  0  0  0  0  0  0
  188.8230  176.2630  144.7950 C   0  0  0  0  0  2  0  0  0  0  0  0
  192.8460  171.0890  140.8140 C   0  0  2  0  0  3  0  0  0  0  0  0
  186.7840  177.4600  144.8820 C   0  0  0  0  0  2  0  0  0  0  0  0
  191.5700  175.8320  145.8380 C   0  0  0  0  0  3  0  0  0  0  0  0
  189.9580  175.7830  143.8850 C   0  0  1  0  0  3  0  0  0  0  0  0
  191.1210  175.2010  144.6680 C   0  0  0  0  0  0  0  0  0  0  0  0
  191.3510  173.4170  142.9250 C   0  0  2  0  0  3  0  0  0  0  0  0
  192.7790  171.4170  139.3310 C   0  0  0  0  0  2  0  0  0  0  0  0
  186.2850  178.2910  141.9130 C   0  0  0  0  0  2  0  0  0  0  0  0
  187.8550  177.0070  143.9920 N   0  0  2  0  0  0  0  0  0  0  0  0
  191.7090  172.4680  139.1940 C   0  0  0  0  0  2  0  0  0  0  0  0
  186.2070  176.7560  142.0970 C   0  0  0  0  0  2  0  0  0  0  0  0
  185.9140  178.5120  144.1820 C   0  0  1  0  0  3  0  0  0  0  0  0
  192.9750  173.6360  144.8340 C   0  0  0  0  0  3  0  0  0  0  0  0
  191.8600  174.1250  144.1400 C   0  0  0  0  0  0  0  0  0  0  0  0
  192.3690  172.8500  142.1470 O   0  0  0  0  0  0  0  0  0  0  0  0
  188.4710  175.6440  142.0550 C   0  0  0  0  0  2  0  0  0  0  0  0
  189.2680  173.9690  140.0470 O   0  0  0  0  0  0  0  0  0  0  0  0
  192.6880  169.7160  140.9970 O   0  0  0  0  0  1  0  0  0  0  0  0
  190.5250  174.3470  142.0470 C   0  0  2  0  0  3  0  0  0  0  0  0
  191.7750  171.8020  141.5050 N   0  0  1  0  0  0  0  0  0  0  0  0
  185.5670  179.6170  145.1640 C   0  0  0  0  0  2  0  0  0  0  0  0
  185.1190  179.0410  146.4630 C   0  0  0  0  0  0  0  0  0  0  0  0
  184.0670  178.3530  146.5170 O   0  0  0  0  0  0  0  0  0  0  0  0
  185.8990  179.2390  147.6370 N   0  0  0  0  0  1  0  0  0  0  0  0
  1 20  1  0  0  0  0
  2 24  1  6  0  0  0
  2 12  1  0  0  0  0
  4  3  1  0  0  0  0
  6 18  1  6  0  0  0
  6  5  1  0  0  0  0
  6 28  1  0  0  0  0
  7 24  1  6  0  0  0
  7 17  1  0  0  0  0
  9 26  1  6  0  0  0
  9 28  1  0  0  0  0
 11  3  2  0  0  0  0
 12 13  1  0  0  0  0
 12  8  1  1  0  0  0
 13 11  1  0  0  0  0
 14 23  1  6  0  0  0
 14 22  1  0  0  0  0
 15  9  1  0  0  0  0
 16 19  1  0  0  0  0
 16  1  1  0  0  0  0
 17  8  1  1  0  0  0
 17 10  1  0  0  0  0
 18 15  1  0  0  0  0
 19  7  1  0  0  0  0
 20 10  1  0  0  0  0
 20 29  1  1  0  0  0
 21  4  2  0  0  0  0
 22 13  2  0  0  0  0
 22 21  1  0  0  0  0
 25  5  2  0  0  0  0
 27  5  1  6  0  0  0
 27  2  1  0  0  0  0
 27 14  1  0  0  0  0
 28 23  1  6  0  0  0
 29 30  1  0  0  0  0
 30 31  2  0  0  0  0
 30 32  1  0  0  0  0
M  END
>  <MODEL>
8

>  <REMARK>
 VINA RESULT:      -7.7      2.740      5.129
  Name = 
  2 active torsions:
  status: ('A' for Active; 'I' for Inactive)
    1  A    between atoms: C_20  and  C_29
    2  A    between atoms: C_29  and  C_30
                            x       y       z     vdW  Elec       q    Type
                         _______ _______ _______ _____ _____    ______ ____

>  <TORSDO>
F 2

$$$$
=
 OpenBabel11112416313D

 32 37  0  0  1  0  0  0  0  0999 V2000
  193.9860  172.5230  142.1380 O   0  0  0  0  0  0  0  0  0  0  0  0
  190.7340  176.1340  143.4900 N   0  0  1  0  0  0  0  0  0  0  0  0
  191.5640  176.8500  148.3020 C   0  0  0  0  0  3  0  0  0  0  0  0
  190.4110  177.6350  148.3690 C   0  0  0  0  0  3  0  0  0  0  0  0
  188.3720  176.5130  142.6380 C   0  0  0  0  0  0  0  0  0  0  0  0
  187.2280  177.4950  142.7910 C   0  0  1  0  0  3  0  0  0  0  0  0
  192.4710  175.1280  142.1050 C   0  0  1  0  0  3  0  0  0  0  0  0
  192.9590  175.6040  144.3920 C   0  0  0  0  0  2  0  0  0  0  0  0
  185.9090  178.6220  144.3550 C   0  0  2  0  0  3  0  0  0  0  0  0
  194.6520  174.6590  143.0380 C   0  0  0  0  0  2  0  0  0  0  0  0
  191.9150  176.2250  147.1020 C   0  0  0  0  0  3  0  0  0  0  0  0
  191.4540  175.6320  144.6830 C   0  0  1  0  0  3  0  0  0  0  0  0
  191.1260  176.3930  145.9550 C   0  0  0  0  0  0  0  0  0  0  0  0
  189.1220  177.3660  144.8070 C   0  0  2  0  0  3  0  0  0  0  0  0
  184.9860  177.7620  143.5060 C   0  0  0  0  0  2  0  0  0  0  0  0
  193.0840  172.7980  141.0800 C   0  0  0  0  0  2  0  0  0  0  0  0
  193.2110  174.6730  143.2950 N   0  0  2  0  0  0  0  0  0  0  0  0
  185.8860  176.8060  142.7670 C   0  0  0  0  0  2  0  0  0  0  0  0
  192.7460  174.2900  140.8430 C   0  0  0  0  0  2  0  0  0  0  0  0
  195.0240  173.4770  142.1340 C   0  0  1  0  0  3  0  0  0  0  0  0
  189.6010  177.7860  147.2400 C   0  0  0  0  0  3  0  0  0  0  0  0
  189.9350  177.1410  146.0420 C   0  0  0  0  0  0  0  0  0  0  0  0
  187.7560  177.5310  145.0650 O   0  0  0  0  0  0  0  0  0  0  0  0
  190.9770  175.1600  142.4190 C   0  0  0  0  0  2  0  0  0  0  0  0
  188.4790  175.8960  141.5900 O   0  0  0  0  0  0  0  0  0  0  0  0
  185.6730  179.9700  144.0830 O   0  0  0  0  0  1  0  0  0  0  0  0
  189.2980  176.2260  143.8130 C   0  0  2  0  0  3  0  0  0  0  0  0
  187.2950  178.2930  144.0310 N   0  0  1  0  0  0  0  0  0  0  0  0
  196.3170  172.8500  142.6260 C   0  0  0  0  0  2  0  0  0  0  0  0
  197.4110  173.8610  142.6540 C   0  0  0  0  0  0  0  0  0  0  0  0
  197.9410  174.1850  143.7470 O   0  0  0  0  0  0  0  0  0  0  0  0
  197.8800  174.4370  141.4390 N   0  0  0  0  0  1  0  0  0  0  0  0
  2 24  1  6  0  0  0
  2 27  1  0  0  0  0
  2 12  1  0  0  0  0
  3  4  1  0  0  0  0
  5  6  1  0  0  0  0
  6 18  1  1  0  0  0
  6 28  1  0  0  0  0
  7 19  1  6  0  0  0
  7 24  1  0  0  0  0
  7 17  1  0  0  0  0
  9 26  1  6  0  0  0
 11  3  2  0  0  0  0
 12  8  1  6  0  0  0
 12 13  1  0  0  0  0
 13 22  2  0  0  0  0
 13 11  1  0  0  0  0
 14 23  1  1  0  0  0
 14 22  1  0  0  0  0
 15  9  1  0  0  0  0
 16  1  1  0  0  0  0
 17 10  1  6  0  0  0
 17  8  1  0  0  0  0
 18 15  1  0  0  0  0
 19 16  1  0  0  0  0
 20  1  1  0  0  0  0
 20 29  1  1  0  0  0
 20 10  1  0  0  0  0
 21  4  2  0  0  0  0
 22 21  1  0  0  0  0
 25  5  2  0  0  0  0
 27  5  1  6  0  0  0
 27 14  1  0  0  0  0
 28  9  1  0  0  0  0
 28 23  1  1  0  0  0
 29 30  1  0  0  0  0
 30 31  2  0  0  0  0
 32 30  1  0  0  0  0
M  END
>  <MODEL>
9

>  <REMARK>
 VINA RESULT:      -7.6      2.652      9.107
  Name = 
  2 active torsions:
  status: ('A' for Active; 'I' for Inactive)
    1  A    between atoms: C_20  and  C_29
    2  A    between atoms: C_29  and  C_30
                            x       y       z     vdW  Elec       q    Type
                         _______ _______ _______ _____ _____    ______ ____

>  <TORSDO>
F 2

$$$$
