=
 OpenBabel11112416263D

 30 35  0  0  1  0  0  0  0  0999 V2000
  188.3900  176.3130  142.0200 C   0  0  2  0  0  3  0  0  0  0  0  0
  189.4430  174.0640  141.4330 C   0  0  0  0  0  0  0  0  0  0  0  0
  188.9870  175.3220  146.0470 O   0  0  0  0  0  0  0  0  0  0  0  0
  187.5880  176.9000  143.1960 C   0  0  2  0  0  3  0  0  0  0  0  0
  187.4850  176.0710  140.9590 O   0  0  0  0  0  0  0  0  0  0  0  0
  185.2510  178.6250  141.1990 O   0  0  0  0  0  0  0  0  0  0  0  0
  185.2250  178.0210  144.6330 C   0  0  1  0  0  3  0  0  0  0  0  0
  186.3320  178.1080  141.4450 C   0  0  0  0  0  0  0  0  0  0  0  0
  185.8860  176.8690  145.4250 C   0  0  2  0  0  3  0  0  0  0  0  0
  187.9370  176.0010  146.6180 C   0  0  0  0  0  0  0  0  0  0  0  0
  187.0990  177.3140  140.4140 C   0  0  2  0  0  3  0  0  0  0  0  0
  187.0110  178.2600  142.7820 C   0  0  1  0  0  3  0  0  0  0  0  0
  190.1090  172.8940  141.8030 C   0  0  0  0  0  3  0  0  0  0  0  0
  185.0430  176.7430  146.6820 C   0  0  0  0  0  2  0  0  0  0  0  0
  184.3630  178.7970  145.6200 C   0  0  0  0  0  2  0  0  0  0  0  0
  189.1450  174.2540  140.0880 O   0  0  0  0  0  1  0  0  0  0  0  0
  189.3600  175.8850  144.8040 C   0  0  2  0  0  3  0  0  0  0  0  0
  190.4770  172.6830  143.1290 C   0  0  0  0  0  3  0  0  0  0  0  0
  189.0960  175.0310  142.4090 C   0  0  0  0  0  0  0  0  0  0  0  0
  188.3420  177.0140  144.5250 C   0  0  2  0  0  3  0  0  0  0  0  0
  187.5300  175.7500  147.7830 O   0  0  0  0  0  0  0  0  0  0  0  0
  187.3930  177.0850  145.7590 C   0  0  1  0  0  3  0  0  0  0  0  0
  184.5180  178.1290  146.9690 C   0  0  0  0  0  2  0  0  0  0  0  0
  185.5750  180.1090  143.4350 O   0  0  0  0  0  1  0  0  0  0  0  0
  190.1920  173.6500  144.0890 C   0  0  0  0  0  3  0  0  0  0  0  0
  189.5050  174.8220  143.7460 C   0  0  0  0  0  0  0  0  0  0  0  0
  186.2040  178.9510  143.9010 C   0  0  1  0  0  3  0  0  0  0  0  0
  186.3040  177.0900  139.1680 C   0  0  0  0  0  3  0  0  0  0  0  0
  185.9960  176.0700  137.0730 O   0  0  0  0  0  1  0  0  0  0  0  0
  186.7450  176.2690  138.2250 C   0  0  0  0  0  3  0  0  0  0  0  0
  1  5  1  6  0  0  0
  1 19  1  0  0  0  0
  1  4  1  0  0  0  0
  2 13  2  0  0  0  0
  2 19  1  0  0  0  0
  3 10  1  0  0  0  0
  4 20  1  0  0  0  0
  6  8  2  0  0  0  0
  7  9  1  0  0  0  0
  7 15  1  0  0  0  0
  8 12  1  0  0  0  0
  9 22  1  0  0  0  0
  9 14  1  0  0  0  0
 10 21  2  0  0  0  0
 11  5  1  0  0  0  0
 11  8  1  0  0  0  0
 12  4  1  0  0  0  0
 12 27  1  0  0  0  0
 13 18  1  0  0  0  0
 14 23  1  0  0  0  0
 15 23  1  0  0  0  0
 16  2  1  0  0  0  0
 17  3  1  0  0  0  0
 18 25  2  0  0  0  0
 19 26  2  0  0  0  0
 20 17  1  0  0  0  0
 20 22  1  0  0  0  0
 22 10  1  0  0  0  0
 24 27  1  0  0  0  0
 26 25  1  0  0  0  0
 26 17  1  0  0  0  0
 27  7  1  0  0  0  0
 28 11  1  0  0  0  0
 29 30  1  0  0  0  0
 30 28  2  0  0  0  0
M  END
>  <MODEL>
1

>  <REMARK>
 VINA RESULT:      -9.5      0.000      0.000
  Name = 
  1 active torsions:
  status: ('A' for Active; 'I' for Inactive)
    1  A    between atoms: C_11  and  C_28
                            x       y       z     vdW  Elec       q    Type
                         _______ _______ _______ _____ _____    ______ ____

>  <TORSDO>
F 1

$$$$
=
 OpenBabel11112416263D

 30 35  0  0  1  0  0  0  0  0999 V2000
  187.6780  175.6600  143.0850 C   0  0  2  0  0  3  0  0  0  0  0  0
  186.2360  177.6780  142.4840 C   0  0  0  0  0  0  0  0  0  0  0  0
  188.4460  177.5440  146.7480 O   0  0  0  0  0  0  0  0  0  0  0  0
  188.9070  175.3870  143.9710 C   0  0  2  0  0  3  0  0  0  0  0  0
  188.1120  175.6750  141.7380 O   0  0  0  0  0  0  0  0  0  0  0  0
  190.5600  173.3150  141.6470 O   0  0  0  0  0  0  0  0  0  0  0  0
  191.7390  174.7040  144.6210 C   0  0  1  0  0  3  0  0  0  0  0  0
  189.5870  173.8420  142.1670 C   0  0  0  0  0  0  0  0  0  0  0  0
  191.2770  175.9880  145.3470 C   0  0  2  0  0  3  0  0  0  0  0  0
  189.7010  177.0480  147.0130 C   0  0  0  0  0  0  0  0  0  0  0  0
  188.4170  174.3510  141.3560 C   0  0  2  0  0  3  0  0  0  0  0  0
  189.4510  173.9860  143.6610 C   0  0  1  0  0  3  0  0  0  0  0  0
  185.6180  178.8820  142.8270 C   0  0  0  0  0  3  0  0  0  0  0  0
  192.4920  176.4290  146.1440 C   0  0  0  0  0  2  0  0  0  0  0  0
  192.9780  174.2040  145.3520 C   0  0  0  0  0  2  0  0  0  0  0  0
  186.0550  177.1890  141.1950 O   0  0  0  0  0  1  0  0  0  0  0  0
  187.7220  176.6960  145.8780 C   0  0  2  0  0  3  0  0  0  0  0  0
  185.7250  179.3850  144.1200 C   0  0  0  0  0  3  0  0  0  0  0  0
  187.0150  176.9760  143.4360 C   0  0  0  0  0  0  0  0  0  0  0  0
  188.6950  175.5640  145.4780 C   0  0  2  0  0  3  0  0  0  0  0  0
  190.4640  177.5760  147.8640 O   0  0  0  0  0  0  0  0  0  0  0  0
  190.0220  175.8110  146.2560 C   0  0  1  0  0  3  0  0  0  0  0  0
  193.2390  175.1640  146.4930 C   0  0  0  0  0  2  0  0  0  0  0  0
  191.2250  172.3840  144.0960 O   0  0  0  0  0  1  0  0  0  0  0  0
  186.4410  178.6770  145.0810 C   0  0  0  0  0  3  0  0  0  0  0  0
  187.0890  177.4790  144.7560 C   0  0  0  0  0  0  0  0  0  0  0  0
  190.6750  173.5990  144.5150 C   0  0  1  0  0  3  0  0  0  0  0  0
  188.6850  174.3020  139.8860 C   0  0  0  0  0  3  0  0  0  0  0  0
  188.5180  173.2460  137.7930 O   0  0  0  0  0  1  0  0  0  0  0  0
  188.2630  173.2790  139.1580 C   0  0  0  0  0  3  0  0  0  0  0  0
  1  5  1  6  0  0  0
  1 19  1  0  0  0  0
  1  4  1  0  0  0  0
  2 13  2  0  0  0  0
  2 19  1  0  0  0  0
  3 10  1  0  0  0  0
  4 20  1  0  0  0  0
  6  8  2  0  0  0  0
  7  9  1  0  0  0  0
  7 15  1  0  0  0  0
  8 12  1  0  0  0  0
  9 14  1  0  0  0  0
  9 22  1  0  0  0  0
 10 21  2  0  0  0  0
 11  5  1  0  0  0  0
 11  8  1  0  0  0  0
 12  4  1  0  0  0  0
 12 27  1  0  0  0  0
 13 18  1  0  0  0  0
 14 23  1  0  0  0  0
 15 23  1  0  0  0  0
 16  2  1  0  0  0  0
 17  3  1  0  0  0  0
 18 25  2  0  0  0  0
 19 26  2  0  0  0  0
 20 17  1  0  0  0  0
 20 22  1  0  0  0  0
 22 10  1  0  0  0  0
 24 27  1  0  0  0  0
 26 25  1  0  0  0  0
 26 17  1  0  0  0  0
 27  7  1  0  0  0  0
 28 11  1  0  0  0  0
 29 30  1  0  0  0  0
 30 28  2  0  0  0  0
M  END
>  <MODEL>
2

>  <REMARK>
 VINA RESULT:      -8.9      2.045      5.486
  Name = 
  1 active torsions:
  status: ('A' for Active; 'I' for Inactive)
    1  A    between atoms: C_11  and  C_28
                            x       y       z     vdW  Elec       q    Type
                         _______ _______ _______ _____ _____    ______ ____

>  <TORSDO>
F 1

$$$$
=
 OpenBabel11112416263D

 30 35  0  0  1  0  0  0  0  0999 V2000
  186.8510  176.8990  144.5280 C   0  0  2  0  0  3  0  0  0  0  0  0
  185.6820  178.6730  145.9410 C   0  0  0  0  0  0  0  0  0  0  0  0
  189.8060  176.7610  147.4950 O   0  0  0  0  0  0  0  0  0  0  0  0
  188.2970  176.4210  144.3030 C   0  0  2  0  0  3  0  0  0  0  0  0
  186.4710  177.6660  143.4010 O   0  0  0  0  0  0  0  0  0  0  0  0
  188.0270  176.1200  140.8020 O   0  0  0  0  0  0  0  0  0  0  0  0
  190.8580  175.9800  142.8350 C   0  0  1  0  0  3  0  0  0  0  0  0
  187.6040  176.1420  141.9490 C   0  0  0  0  0  0  0  0  0  0  0  0
  191.0940  176.6210  144.2210 C   0  0  2  0  0  3  0  0  0  0  0  0
  190.8960  176.4140  146.7320 C   0  0  0  0  0  0  0  0  0  0  0  0
  186.2880  176.7910  142.3100 C   0  0  2  0  0  3  0  0  0  0  0  0
  188.3360  175.4830  143.0900 C   0  0  1  0  0  3  0  0  0  0  0  0
  185.5660  179.4160  147.1180 C   0  0  0  0  0  3  0  0  0  0  0  0
  192.6010  176.7910  144.3070 C   0  0  0  0  0  2  0  0  0  0  0  0
  192.1890  175.3910  142.3880 C   0  0  0  0  0  2  0  0  0  0  0  0
  184.7440  178.8830  144.9360 O   0  0  0  0  0  1  0  0  0  0  0  0
  188.5930  176.3650  146.8850 C   0  0  2  0  0  3  0  0  0  0  0  0
  186.4480  179.2030  148.1740 C   0  0  0  0  0  3  0  0  0  0  0  0
  186.7230  177.7240  145.7910 C   0  0  0  0  0  0  0  0  0  0  0  0
  188.9790  175.7710  145.5120 C   0  0  2  0  0  3  0  0  0  0  0  0
  192.0760  176.5540  147.1450 O   0  0  0  0  0  0  0  0  0  0  0  0
  190.5340  175.8040  145.4250 C   0  0  1  0  0  3  0  0  0  0  0  0
  193.1900  175.6670  143.4890 C   0  0  0  0  0  2  0  0  0  0  0  0
  189.7570  174.1990  141.5940 O   0  0  0  0  0  1  0  0  0  0  0  0
  187.4420  178.2340  148.0620 C   0  0  0  0  0  3  0  0  0  0  0  0
  187.5920  177.4920  146.8830 C   0  0  0  0  0  0  0  0  0  0  0  0
  189.7420  174.9240  142.7900 C   0  0  1  0  0  3  0  0  0  0  0  0
  185.6930  177.5390  141.1600 C   0  0  0  0  0  3  0  0  0  0  0  0
  183.9020  178.6660  140.1380 O   0  0  0  0  0  1  0  0  0  0  0  0
  184.4420  177.9720  141.2120 C   0  0  0  0  0  3  0  0  0  0  0  0
  1  5  1  6  0  0  0
  1 19  1  0  0  0  0
  2 13  1  0  0  0  0
  4  1  1  0  0  0  0
  4 20  1  0  0  0  0
  6  8  2  0  0  0  0
  7  9  1  0  0  0  0
  8 11  1  0  0  0  0
  8 12  1  0  0  0  0
  9 14  1  0  0  0  0
  9 22  1  0  0  0  0
 10 21  2  0  0  0  0
 10  3  1  0  0  0  0
 11  5  1  0  0  0  0
 12  4  1  0  0  0  0
 13 18  2  0  0  0  0
 15  7  1  0  0  0  0
 15 23  1  0  0  0  0
 16  2  1  0  0  0  0
 17  3  1  0  0  0  0
 19  2  2  0  0  0  0
 19 26  1  0  0  0  0
 20 17  1  0  0  0  0
 22 20  1  0  0  0  0
 22 10  1  0  0  0  0
 23 14  1  0  0  0  0
 24 27  1  0  0  0  0
 25 18  1  0  0  0  0
 26 17  1  0  0  0  0
 26 25  2  0  0  0  0
 27  7  1  0  0  0  0
 27 12  1  0  0  0  0
 28 30  2  0  0  0  0
 28 11  1  0  0  0  0
 29 30  1  0  0  0  0
M  END
>  <MODEL>
3

>  <REMARK>
 VINA RESULT:      -8.6      1.978      5.567
  Name = 
  1 active torsions:
  status: ('A' for Active; 'I' for Inactive)
    1  A    between atoms: C_11  and  C_28
                            x       y       z     vdW  Elec       q    Type
                         _______ _______ _______ _____ _____    ______ ____

>  <TORSDO>
F 1

$$$$
=
 OpenBabel11112416263D

 30 35  0  0  1  0  0  0  0  0999 V2000
  189.1370  177.1660  145.8280 C   0  0  2  0  0  3  0  0  0  0  0  0
  186.8840  177.9160  146.7640 C   0  0  0  0  0  0  0  0  0  0  0  0
  187.0190  175.3790  142.6860 O   0  0  0  0  0  0  0  0  0  0  0  0
  189.6600  176.0000  144.9700 C   0  0  2  0  0  3  0  0  0  0  0  0
  189.5160  176.9180  147.1690 O   0  0  0  0  0  0  0  0  0  0  0  0
  192.5590  175.4250  146.8900 O   0  0  0  0  0  0  0  0  0  0  0  0
  191.1640  173.5010  144.3380 C   0  0  1  0  0  3  0  0  0  0  0  0
  191.6410  176.0970  146.4430 C   0  0  0  0  0  0  0  0  0  0  0  0
  189.6910  173.4180  143.8740 C   0  0  2  0  0  3  0  0  0  0  0  0
  187.8660  174.3380  142.3880 C   0  0  0  0  0  0  0  0  0  0  0  0
  190.9080  177.1190  147.2810 C   0  0  2  0  0  3  0  0  0  0  0  0
  191.1940  175.9960  145.0070 C   0  0  1  0  0  3  0  0  0  0  0  0
  185.4990  178.0520  146.6500 C   0  0  0  0  0  3  0  0  0  0  0  0
  189.5690  172.0390  143.2510 C   0  0  0  0  0  2  0  0  0  0  0  0
  191.9260  172.4190  143.5830 C   0  0  0  0  0  2  0  0  0  0  0  0
  187.5010  178.4030  147.9110 O   0  0  0  0  0  1  0  0  0  0  0  0
  187.7010  176.4430  143.3210 C   0  0  2  0  0  3  0  0  0  0  0  0
  184.8430  177.6280  145.4980 C   0  0  0  0  0  3  0  0  0  0  0  0
  187.6320  177.3050  145.7270 C   0  0  0  0  0  0  0  0  0  0  0  0
  189.1530  175.9580  143.5250 C   0  0  2  0  0  3  0  0  0  0  0  0
  187.4970  173.3460  141.7070 O   0  0  0  0  0  0  0  0  0  0  0  0
  189.2530  174.5410  142.8850 C   0  0  1  0  0  3  0  0  0  0  0  0
  190.9310  171.7190  142.6830 C   0  0  0  0  0  2  0  0  0  0  0  0
  193.2110  174.8170  144.3380 O   0  0  0  0  0  1  0  0  0  0  0  0
  185.5720  177.0790  144.4470 C   0  0  0  0  0  3  0  0  0  0  0  0
  186.9600  176.9100  144.5470 C   0  0  0  0  0  0  0  0  0  0  0  0
  191.8260  174.8760  144.1550 C   0  0  1  0  0  3  0  0  0  0  0  0
  191.3100  177.0620  148.7200 C   0  0  0  0  0  3  0  0  0  0  0  0
  191.5680  178.0630  150.8300 O   0  0  0  0  0  1  0  0  0  0  0  0
  191.1910  178.1300  149.4950 C   0  0  0  0  0  3  0  0  0  0  0  0
  1 19  1  1  0  0  0
  1  5  1  0  0  0  0
  2 16  1  0  0  0  0
  3 17  1  0  0  0  0
  4 12  1  0  0  0  0
  4  1  1  0  0  0  0
  5 11  1  0  0  0  0
  8  6  2  0  0  0  0
  8 11  1  0  0  0  0
  9  7  1  0  0  0  0
 10  3  1  0  0  0  0
 10 22  1  0  0  0  0
 11 28  1  0  0  0  0
 12  8  1  0  0  0  0
 13  2  1  0  0  0  0
 14  9  1  0  0  0  0
 15  7  1  0  0  0  0
 17 20  1  0  0  0  0
 17 26  1  0  0  0  0
 18 13  2  0  0  0  0
 19  2  2  0  0  0  0
 20  4  1  0  0  0  0
 21 10  2  0  0  0  0
 22 20  1  0  0  0  0
 22  9  1  0  0  0  0
 23 14  1  0  0  0  0
 23 15  1  0  0  0  0
 25 26  2  0  0  0  0
 25 18  1  0  0  0  0
 26 19  1  0  0  0  0
 27  7  1  0  0  0  0
 27 24  1  0  0  0  0
 27 12  1  0  0  0  0
 28 30  2  0  0  0  0
 30 29  1  0  0  0  0
M  END
>  <MODEL>
4

>  <REMARK>
 VINA RESULT:      -8.3      2.461      7.549
  Name = 
  1 active torsions:
  status: ('A' for Active; 'I' for Inactive)
    1  A    between atoms: C_11  and  C_28
                            x       y       z     vdW  Elec       q    Type
                         _______ _______ _______ _____ _____    ______ ____

>  <TORSDO>
F 1

$$$$
=
 OpenBabel11112416263D

 30 35  0  0  1  0  0  0  0  0999 V2000
  189.6710  176.1240  143.3400 C   0  0  2  0  0  3  0  0  0  0  0  0
  191.2940  174.4320  144.3490 C   0  0  0  0  0  0  0  0  0  0  0  0
  189.0530  177.5590  147.2280 O   0  0  0  0  0  0  0  0  0  0  0  0
  188.4170  176.8850  143.8040 C   0  0  2  0  0  3  0  0  0  0  0  0
  189.2490  175.0810  142.4820 O   0  0  0  0  0  0  0  0  0  0  0  0
  186.5990  176.4160  140.8210 O   0  0  0  0  0  0  0  0  0  0  0  0
  185.5300  177.6390  143.9080 C   0  0  1  0  0  3  0  0  0  0  0  0
  187.6120  176.5180  141.4980 C   0  0  0  0  0  0  0  0  0  0  0  0
  186.1020  177.3600  145.3170 C   0  0  2  0  0  3  0  0  0  0  0  0
  187.7570  178.0040  147.1150 C   0  0  0  0  0  0  0  0  0  0  0  0
  188.8280  175.6520  141.2630 C   0  0  2  0  0  3  0  0  0  0  0  0
  187.7510  177.5470  142.5910 C   0  0  1  0  0  3  0  0  0  0  0  0
  192.0170  173.9310  145.4340 C   0  0  0  0  0  3  0  0  0  0  0  0
  184.9270  177.5830  146.2520 C   0  0  0  0  0  2  0  0  0  0  0  0
  184.2460  178.4340  144.1020 C   0  0  0  0  0  2  0  0  0  0  0  0
  191.4380  173.8060  143.1160 O   0  0  0  0  0  1  0  0  0  0  0  0
  189.7030  177.5190  145.9720 C   0  0  2  0  0  3  0  0  0  0  0  0
  191.9470  174.5560  146.6750 C   0  0  0  0  0  3  0  0  0  0  0  0
  190.4480  175.5570  144.5100 C   0  0  0  0  0  0  0  0  0  0  0  0
  188.6350  177.9060  144.9260 C   0  0  2  0  0  3  0  0  0  0  0  0
  187.0390  178.2390  148.1220 O   0  0  0  0  0  0  0  0  0  0  0  0
  187.3300  178.2370  145.7110 C   0  0  1  0  0  3  0  0  0  0  0  0
  184.0660  178.6330  145.5910 C   0  0  0  0  0  2  0  0  0  0  0  0
  185.8350  178.8170  141.8010 O   0  0  0  0  0  1  0  0  0  0  0  0
  191.1640  175.6950  146.8340 C   0  0  0  0  0  3  0  0  0  0  0  0
  190.4120  176.2040  145.7670 C   0  0  0  0  0  0  0  0  0  0  0  0
  186.4900  178.3600  142.9490 C   0  0  1  0  0  3  0  0  0  0  0  0
  188.5660  174.5700  140.2650 C   0  0  0  0  0  3  0  0  0  0  0  0
  188.2150  172.3120  139.7150 O   0  0  0  0  0  1  0  0  0  0  0  0
  188.4580  173.3080  140.6520 C   0  0  0  0  0  3  0  0  0  0  0  0
  1  5  1  6  0  0  0
  1  4  1  0  0  0  0
  1 19  1  0  0  0  0
  2 19  2  0  0  0  0
  2 13  1  0  0  0  0
  4 20  1  0  0  0  0
  6  8  2  0  0  0  0
  7 15  1  0  0  0  0
  7  9  1  0  0  0  0
  8 12  1  0  0  0  0
  9 22  1  0  0  0  0
  9 14  1  0  0  0  0
 10  3  1  0  0  0  0
 10 21  2  0  0  0  0
 11  8  1  0  0  0  0
 11  5  1  0  0  0  0
 12 27  1  0  0  0  0
 12  4  1  0  0  0  0
 13 18  2  0  0  0  0
 15 23  1  0  0  0  0
 16  2  1  0  0  0  0
 17  3  1  0  0  0  0
 18 25  1  0  0  0  0
 19 26  1  0  0  0  0
 20 22  1  0  0  0  0
 20 17  1  0  0  0  0
 22 10  1  0  0  0  0
 23 14  1  0  0  0  0
 24 27  1  0  0  0  0
 26 17  1  0  0  0  0
 26 25  2  0  0  0  0
 27  7  1  0  0  0  0
 28 30  2  0  0  0  0
 28 11  1  0  0  0  0
 29 30  1  0  0  0  0
M  END
>  <MODEL>
5

>  <REMARK>
 VINA RESULT:      -8.3      1.747      2.651
  Name = 
  1 active torsions:
  status: ('A' for Active; 'I' for Inactive)
    1  A    between atoms: C_11  and  C_28
                            x       y       z     vdW  Elec       q    Type
                         _______ _______ _______ _____ _____    ______ ____

>  <TORSDO>
F 1

$$$$
=
 OpenBabel11112416263D

 30 35  0  0  1  0  0  0  0  0999 V2000
  190.6740  174.6930  143.9280 C   0  0  2  0  0  3  0  0  0  0  0  0
  192.5580  174.0350  142.3350 C   0  0  0  0  0  0  0  0  0  0  0  0
  188.2240  175.0990  140.5530 O   0  0  0  0  0  0  0  0  0  0  0  0
  189.4090  175.5670  143.8630 C   0  0  2  0  0  3  0  0  0  0  0  0
  191.6550  175.4070  144.6570 O   0  0  0  0  0  0  0  0  0  0  0  0
  189.8600  177.0690  147.0200 O   0  0  0  0  0  0  0  0  0  0  0  0
  187.6220  177.8790  144.4710 C   0  0  1  0  0  3  0  0  0  0  0  0
  189.9880  176.1860  146.1830 C   0  0  0  0  0  0  0  0  0  0  0  0
  187.7490  177.6350  142.9500 C   0  0  2  0  0  3  0  0  0  0  0  0
  187.3650  176.0750  140.9980 C   0  0  0  0  0  0  0  0  0  0  0  0
  191.2780  175.4160  146.0160 C   0  0  2  0  0  3  0  0  0  0  0  0
  188.8580  175.7610  145.2820 C   0  0  1  0  0  3  0  0  0  0  0  0
  193.0180  173.7090  141.0580 C   0  0  0  0  0  3  0  0  0  0  0  0
  186.8810  178.7110  142.3210 C   0  0  0  0  0  2  0  0  0  0  0  0
  186.3800  178.7350  144.6790 C   0  0  0  0  0  2  0  0  0  0  0  0
  193.4680  174.0230  143.3860 O   0  0  0  0  0  1  0  0  0  0  0  0
  188.8070  174.3860  141.6280 C   0  0  2  0  0  3  0  0  0  0  0  0
  192.1340  173.6550  139.9840 C   0  0  0  0  0  3  0  0  0  0  0  0
  191.1930  174.3550  142.5450 C   0  0  0  0  0  0  0  0  0  0  0  0
  188.3090  175.0750  142.9180 C   0  0  2  0  0  3  0  0  0  0  0  0
  186.6420  176.7410  140.2120 O   0  0  0  0  0  0  0  0  0  0  0  0
  187.3320  176.2080  142.4790 C   0  0  1  0  0  3  0  0  0  0  0  0
  185.7760  178.9830  143.3140 C   0  0  0  0  0  2  0  0  0  0  0  0
  187.1890  176.8810  146.6470 O   0  0  0  0  0  1  0  0  0  0  0  0
  190.7810  173.9120  140.1860 C   0  0  0  0  0  3  0  0  0  0  0  0
  190.2990  174.2630  141.4540 C   0  0  0  0  0  0  0  0  0  0  0  0
  187.5690  176.6060  145.3300 C   0  0  1  0  0  3  0  0  0  0  0  0
  192.3870  175.9860  146.8410 C   0  0  0  0  0  3  0  0  0  0  0  0
  194.4110  177.1630  147.0460 O   0  0  0  0  0  1  0  0  0  0  0  0
  193.3870  176.6380  146.2680 C   0  0  0  0  0  3  0  0  0  0  0  0
  1 19  1  6  0  0  0
  1  5  1  0  0  0  0
  2 19  1  0  0  0  0
  2 16  1  0  0  0  0
  3 10  1  0  0  0  0
  3 17  1  0  0  0  0
  4  1  1  0  0  0  0
  4 12  1  0  0  0  0
  5 11  1  0  0  0  0
  7 15  1  0  0  0  0
  7 27  1  0  0  0  0
  8  6  2  0  0  0  0
  9  7  1  0  0  0  0
 10 22  1  0  0  0  0
 11  8  1  0  0  0  0
 11 28  1  0  0  0  0
 12 27  1  0  0  0  0
 12  8  1  0  0  0  0
 13  2  2  0  0  0  0
 14  9  1  0  0  0  0
 14 23  1  0  0  0  0
 17 20  1  0  0  0  0
 18 25  2  0  0  0  0
 18 13  1  0  0  0  0
 20  4  1  0  0  0  0
 21 10  2  0  0  0  0
 22 20  1  0  0  0  0
 22  9  1  0  0  0  0
 23 15  1  0  0  0  0
 25 26  1  0  0  0  0
 26 17  1  0  0  0  0
 26 19  2  0  0  0  0
 27 24  1  0  0  0  0
 30 28  2  0  0  0  0
 30 29  1  0  0  0  0
M  END
>  <MODEL>
6

>  <REMARK>
 VINA RESULT:      -8.2      2.350      5.566
  Name = 
  1 active torsions:
  status: ('A' for Active; 'I' for Inactive)
    1  A    between atoms: C_11  and  C_28
                            x       y       z     vdW  Elec       q    Type
                         _______ _______ _______ _____ _____    ______ ____

>  <TORSDO>
F 1

$$$$
=
 OpenBabel11112416263D

 30 35  0  0  1  0  0  0  0  0999 V2000
  190.6340  175.2580  142.9000 C   0  0  2  0  0  3  0  0  0  0  0  0
  192.1970  173.3460  143.5470 C   0  0  0  0  0  0  0  0  0  0  0  0
  191.2300  176.7910  146.7540 O   0  0  0  0  0  0  0  0  0  0  0  0
  189.6610  176.2020  143.6270 C   0  0  2  0  0  3  0  0  0  0  0  0
  189.8640  174.2860  142.2190 O   0  0  0  0  0  0  0  0  0  0  0  0
  187.1020  175.9970  141.2120 O   0  0  0  0  0  0  0  0  0  0  0  0
  187.0340  177.3830  144.4110 C   0  0  1  0  0  3  0  0  0  0  0  0
  188.2570  175.9480  141.6110 C   0  0  0  0  0  0  0  0  0  0  0  0
  187.8960  177.0290  145.6450 C   0  0  2  0  0  3  0  0  0  0  0  0
  190.0250  177.4260  146.9470 C   0  0  0  0  0  0  0  0  0  0  0  0
  189.2360  174.9070  141.1190 C   0  0  2  0  0  3  0  0  0  0  0  0
  188.8140  176.9500  142.5900 C   0  0  1  0  0  3  0  0  0  0  0  0
  193.0890  172.7470  144.4380 C   0  0  0  0  0  3  0  0  0  0  0  0
  187.0390  177.4320  146.8320 C   0  0  0  0  0  2  0  0  0  0  0  0
  185.9690  178.3650  144.8830 C   0  0  0  0  0  2  0  0  0  0  0  0
  191.9340  172.6990  142.3450 O   0  0  0  0  0  1  0  0  0  0  0  0
  191.5290  176.6460  145.3790 C   0  0  2  0  0  3  0  0  0  0  0  0
  193.4250  173.3820  145.6310 C   0  0  0  0  0  3  0  0  0  0  0  0
  191.5910  174.5870  143.8640 C   0  0  0  0  0  0  0  0  0  0  0  0
  190.3000  177.1850  144.6140 C   0  0  2  0  0  3  0  0  0  0  0  0
  189.6250  177.7720  148.0890 O   0  0  0  0  0  0  0  0  0  0  0  0
  189.2960  177.7130  145.6830 C   0  0  1  0  0  3  0  0  0  0  0  0
  186.2010  178.5960  146.3600 C   0  0  0  0  0  2  0  0  0  0  0  0
  186.9660  178.4910  142.2460 O   0  0  0  0  0  1  0  0  0  0  0  0
  192.8810  174.6280  145.9290 C   0  0  0  0  0  3  0  0  0  0  0  0
  191.9660  175.2390  145.0610 C   0  0  0  0  0  0  0  0  0  0  0  0
  187.8160  177.9460  143.2140 C   0  0  1  0  0  3  0  0  0  0  0  0
  188.5780  173.8720  140.2650 C   0  0  0  0  0  3  0  0  0  0  0  0
  188.1660  172.8800  138.1740 O   0  0  0  0  0  1  0  0  0  0  0  0
  188.7840  173.8470  138.9560 C   0  0  0  0  0  3  0  0  0  0  0  0
  1  5  1  1  0  0  0
  1  4  1  0  0  0  0
  1 19  1  0  0  0  0
  2 19  2  0  0  0  0
  2 13  1  0  0  0  0
  3 10  1  0  0  0  0
  4 20  1  0  0  0  0
  6  8  2  0  0  0  0
  7 15  1  0  0  0  0
  7  9  1  0  0  0  0
  8 12  1  0  0  0  0
  9 22  1  0  0  0  0
  9 14  1  0  0  0  0
 10 21  2  0  0  0  0
 11  8  1  0  0  0  0
 11  5  1  0  0  0  0
 12 27  1  0  0  0  0
 12  4  1  0  0  0  0
 13 18  2  0  0  0  0
 15 23  1  0  0  0  0
 16  2  1  0  0  0  0
 17  3  1  0  0  0  0
 18 25  1  0  0  0  0
 19 26  1  0  0  0  0
 20 17  1  0  0  0  0
 20 22  1  0  0  0  0
 22 10  1  0  0  0  0
 23 14  1  0  0  0  0
 24 27  1  0  0  0  0
 26 17  1  0  0  0  0
 26 25  2  0  0  0  0
 27  7  1  0  0  0  0
 28 11  1  0  0  0  0
 29 30  1  0  0  0  0
 30 28  2  0  0  0  0
M  END
>  <MODEL>
7

>  <REMARK>
 VINA RESULT:      -8.1      2.115      2.903
  Name = 
  1 active torsions:
  status: ('A' for Active; 'I' for Inactive)
    1  A    between atoms: C_11  and  C_28
                            x       y       z     vdW  Elec       q    Type
                         _______ _______ _______ _____ _____    ______ ____

>  <TORSDO>
F 1

$$$$
=
 OpenBabel11112416263D

 30 35  0  0  1  0  0  0  0  0999 V2000
  189.0050  175.5350  143.1380 C   0  0  2  0  0  3  0  0  0  0  0  0
  189.6040  174.1990  145.2290 C   0  0  0  0  0  0  0  0  0  0  0  0
  186.9380  178.1740  145.6520 O   0  0  0  0  0  0  0  0  0  0  0  0
  187.8550  176.4540  142.6890 C   0  0  2  0  0  3  0  0  0  0  0  0
  188.8370  174.2870  142.4920 O   0  0  0  0  0  0  0  0  0  0  0  0
  187.5860  175.1150  139.4390 O   0  0  0  0  0  0  0  0  0  0  0  0
  185.4640  177.3120  141.1220 C   0  0  1  0  0  3  0  0  0  0  0  0
  188.1650  175.3920  140.4810 C   0  0  0  0  0  0  0  0  0  0  0  0
  185.2460  177.4820  142.6430 C   0  0  2  0  0  3  0  0  0  0  0  0
  185.9600  178.6090  144.7890 C   0  0  0  0  0  0  0  0  0  0  0  0
  189.1550  174.4490  141.1260 C   0  0  2  0  0  3  0  0  0  0  0  0
  187.9760  176.7120  141.1820 C   0  0  1  0  0  3  0  0  0  0  0  0
  189.6230  174.0480  146.6170 C   0  0  0  0  0  3  0  0  0  0  0  0
  183.8390  178.0420  142.7620 C   0  0  0  0  0  2  0  0  0  0  0  0
  184.4210  178.1770  140.4270 C   0  0  0  0  0  2  0  0  0  0  0  0
  190.1810  173.2030  144.4500 O   0  0  0  0  0  1  0  0  0  0  0  0
  188.0770  177.7050  144.9570 C   0  0  2  0  0  3  0  0  0  0  0  0
  189.1060  175.0440  147.4410 C   0  0  0  0  0  3  0  0  0  0  0  0
  189.0180  175.3480  144.6410 C   0  0  0  0  0  0  0  0  0  0  0  0
  187.7190  177.7740  143.4550 C   0  0  2  0  0  3  0  0  0  0  0  0
  184.9160  179.1850  145.1940 O   0  0  0  0  0  0  0  0  0  0  0  0
  186.2920  178.3910  143.3570 C   0  0  1  0  0  3  0  0  0  0  0  0
  183.6100  178.8540  141.5100 C   0  0  0  0  0  2  0  0  0  0  0  0
  186.9400  177.7320  139.2340 O   0  0  0  0  0  1  0  0  0  0  0  0
  188.5790  176.2030  146.8790 C   0  0  0  0  0  3  0  0  0  0  0  0
  188.5270  176.3680  145.4890 C   0  0  0  0  0  0  0  0  0  0  0  0
  186.8800  177.6460  140.6280 C   0  0  1  0  0  3  0  0  0  0  0  0
  189.1830  173.1140  140.4560 C   0  0  0  0  0  3  0  0  0  0  0  0
  190.1710  171.0140  140.0810 O   0  0  0  0  0  1  0  0  0  0  0  0
  190.1560  172.2520  140.7110 C   0  0  0  0  0  3  0  0  0  0  0  0
  1  5  1  6  0  0  0
  1 19  1  0  0  0  0
  2 13  1  0  0  0  0
  4  1  1  0  0  0  0
  4 20  1  0  0  0  0
  6  8  2  0  0  0  0
  7  9  1  0  0  0  0
  8 11  1  0  0  0  0
  8 12  1  0  0  0  0
  9 14  1  0  0  0  0
  9 22  1  0  0  0  0
 10 21  2  0  0  0  0
 10  3  1  0  0  0  0
 11  5  1  0  0  0  0
 12  4  1  0  0  0  0
 13 18  2  0  0  0  0
 15  7  1  0  0  0  0
 15 23  1  0  0  0  0
 16  2  1  0  0  0  0
 17 26  1  0  0  0  0
 17  3  1  0  0  0  0
 19  2  2  0  0  0  0
 19 26  1  0  0  0  0
 20 17  1  0  0  0  0
 22 20  1  0  0  0  0
 22 10  1  0  0  0  0
 23 14  1  0  0  0  0
 24 27  1  0  0  0  0
 25 18  1  0  0  0  0
 26 25  2  0  0  0  0
 27  7  1  0  0  0  0
 27 12  1  0  0  0  0
 28 30  2  0  0  0  0
 28 11  1  0  0  0  0
 29 30  1  0  0  0  0
M  END
>  <MODEL>
8

>  <REMARK>
 VINA RESULT:      -8.0      1.820      4.051
  Name = 
  1 active torsions:
  status: ('A' for Active; 'I' for Inactive)
    1  A    between atoms: C_11  and  C_28
                            x       y       z     vdW  Elec       q    Type
                         _______ _______ _______ _____ _____    ______ ____

>  <TORSDO>
F 1

$$$$
=
 OpenBabel11112416263D

 30 35  0  0  1  0  0  0  0  0999 V2000
  189.3550  174.3460  143.8320 C   0  0  2  0  0  3  0  0  0  0  0  0
  187.5770  176.1150  143.3570 C   0  0  0  0  0  0  0  0  0  0  0  0
  190.5300  176.6850  147.1040 O   0  0  0  0  0  0  0  0  0  0  0  0
  190.7500  174.3090  144.4800 C   0  0  2  0  0  3  0  0  0  0  0  0
  189.5280  174.2660  142.4300 O   0  0  0  0  0  0  0  0  0  0  0  0
  192.2030  172.1980  142.0600 O   0  0  0  0  0  0  0  0  0  0  0  0
  193.7180  174.0190  144.6200 C   0  0  1  0  0  3  0  0  0  0  0  0
  191.2820  172.6660  142.7140 C   0  0  0  0  0  0  0  0  0  0  0  0
  193.2330  175.3130  145.3120 C   0  0  2  0  0  3  0  0  0  0  0  0
  191.8660  176.3630  147.1600 C   0  0  0  0  0  0  0  0  0  0  0  0
  189.9270  172.9520  142.1070 C   0  0  2  0  0  3  0  0  0  0  0  0
  191.4050  172.9520  144.1880 C   0  0  1  0  0  3  0  0  0  0  0  0
  186.8810  177.2720  143.7120 C   0  0  0  0  0  3  0  0  0  0  0  0
  194.5070  175.9700  145.8170 C   0  0  0  0  0  2  0  0  0  0  0  0
  195.1240  173.7420  145.1340 C   0  0  0  0  0  2  0  0  0  0  0  0
  187.2280  175.4740  142.1740 O   0  0  0  0  0  1  0  0  0  0  0  0
  189.7750  175.6730  146.4660 C   0  0  2  0  0  3  0  0  0  0  0  0
  187.1570  177.9190  144.9130 C   0  0  0  0  0  3  0  0  0  0  0  0
  188.6020  175.6100  144.1950 C   0  0  0  0  0  0  0  0  0  0  0  0
  190.7960  174.6200  145.9790 C   0  0  2  0  0  3  0  0  0  0  0  0
  192.6970  177.0610  147.7980 O   0  0  0  0  0  0  0  0  0  0  0  0
  192.2010  175.0950  146.4600 C   0  0  1  0  0  3  0  0  0  0  0  0
  195.4620  174.8410  146.1180 C   0  0  0  0  0  2  0  0  0  0  0  0
  193.4220  171.6130  144.4010 O   0  0  0  0  0  1  0  0  0  0  0  0
  188.1230  177.4030  145.7720 C   0  0  0  0  0  3  0  0  0  0  0  0
  188.8510  176.2560  145.4280 C   0  0  0  0  0  0  0  0  0  0  0  0
  192.8050  172.7980  144.8160 C   0  0  1  0  0  3  0  0  0  0  0  0
  189.9250  172.7760  140.6220 C   0  0  0  0  0  3  0  0  0  0  0  0
  189.5180  173.5790  138.4510 O   0  0  0  0  0  1  0  0  0  0  0  0
  189.5150  173.7550  139.8290 C   0  0  0  0  0  3  0  0  0  0  0  0
  1  5  1  6  0  0  0
  1 19  1  0  0  0  0
  1  4  1  0  0  0  0
  2 13  2  0  0  0  0
  2 19  1  0  0  0  0
  3 10  1  0  0  0  0
  4 20  1  0  0  0  0
  6  8  2  0  0  0  0
  7 27  1  0  0  0  0
  7 15  1  0  0  0  0
  7  9  1  0  0  0  0
  8 12  1  0  0  0  0
  9 14  1  0  0  0  0
  9 22  1  0  0  0  0
 10 21  2  0  0  0  0
 11  5  1  0  0  0  0
 11  8  1  0  0  0  0
 12  4  1  0  0  0  0
 12 27  1  0  0  0  0
 13 18  1  0  0  0  0
 14 23  1  0  0  0  0
 15 23  1  0  0  0  0
 16  2  1  0  0  0  0
 17  3  1  0  0  0  0
 18 25  2  0  0  0  0
 19 26  2  0  0  0  0
 20 22  1  0  0  0  0
 20 17  1  0  0  0  0
 22 10  1  0  0  0  0
 24 27  1  0  0  0  0
 26 25  1  0  0  0  0
 26 17  1  0  0  0  0
 28 11  1  0  0  0  0
 29 30  1  0  0  0  0
 30 28  2  0  0  0  0
M  END
>  <MODEL>
9

>  <REMARK>
 VINA RESULT:      -7.8      2.914      6.526
  Name = 
  1 active torsions:
  status: ('A' for Active; 'I' for Inactive)
    1  A    between atoms: C_11  and  C_28
                            x       y       z     vdW  Elec       q    Type
                         _______ _______ _______ _____ _____    ______ ____

>  <TORSDO>
F 1

$$$$
