=
 OpenBabel11112417373D

 28 31  0  0  1  0  0  0  0  0999 V2000
  192.4870  173.8920  143.2010 C   0  0  2  0  0  3  0  0  0  0  0  0
  190.0830  174.0120  140.9000 O   0  0  0  0  0  0  0  0  0  0  0  0
  192.2450  171.1470  144.0830 C   0  0  0  0  0  3  0  0  0  0  0  0
  192.9150  175.2390  143.2060 O   0  0  0  0  0  0  0  0  0  0  0  0
  188.4440  173.0870  142.4930 O   0  0  0  0  0  0  0  0  0  0  0  0
  189.0950  174.3420  141.9840 S   0  0  0  0  0  0  0  0  0  0  0  0
  188.3090  176.9280  141.6800 C   0  0  1  0  0  3  0  0  0  0  0  0
  189.8820  175.2450  143.2880 C   0  0  1  0  0  3  0  0  0  0  0  0
  194.2680  177.0910  146.1720 C   0  0  0  0  0  1  0  0  0  0  0  0
  190.2100  175.3680  145.6860 C   0  0  2  0  0  3  0  0  0  0  0  0
  188.5530  177.2720  143.0470 O   0  0  0  0  0  0  0  0  0  0  0  0
  187.8570  175.4800  141.3840 C   0  0  0  0  0  2  0  0  0  0  0  0
  193.3770  176.7880  144.9750 C   0  0  2  0  0  3  0  0  0  0  0  0
  191.5450  173.5330  144.3750 C   0  0  2  0  0  3  0  0  0  0  0  0
  187.3090  177.8990  141.0880 C   0  0  0  0  0  1  0  0  0  0  0  0
  192.0020  176.9520  145.2580 O   0  0  0  0  0  0  0  0  0  0  0  0
  191.0850  172.0880  144.2180 C   0  0  0  0  0  2  0  0  0  0  0  0
  193.6630  172.9120  143.0090 C   0  0  0  0  0  2  0  0  0  0  0  0
  193.3950  171.5150  143.5060 C   0  0  0  0  0  3  0  0  0  0  0  0
  193.7200  175.4470  144.3370 C   0  0  0  0  0  2  0  0  0  0  0  0
  189.2590  176.4940  145.2610 C   0  0  1  0  0  3  0  0  0  0  0  0
  191.5660  175.9370  146.1370 C   0  0  1  0  0  3  0  0  0  0  0  0
  188.8080  176.1390  143.8550 C   0  0  2  0  0  3  0  0  0  0  0  0
  190.2870  174.4150  144.4870 C   0  0  2  0  0  3  0  0  0  0  0  0
  191.3790  175.3390  148.2620 C   0  0  0  0  0  1  0  0  0  0  0  0
  191.4450  176.4570  147.4290 O   0  0  0  0  0  0  0  0  0  0  0  0
  188.0700  176.5470  146.2040 C   0  0  0  0  0  2  0  0  0  0  0  0
  188.1360  175.4910  147.1130 O   0  0  0  0  0  1  0  0  0  0  0  0
  1 18  1  1  0  0  0
  1  4  1  0  0  0  0
  1 14  1  0  0  0  0
  2  6  2  0  0  0  0
  3 17  1  0  0  0  0
  4 20  1  0  0  0  0
  6  5  2  0  0  0  0
  7 15  1  1  0  0  0
  7 11  1  0  0  0  0
  8  6  1  6  0  0  0
  8 23  1  0  0  0  0
  8 24  1  0  0  0  0
 10 22  1  0  0  0  0
 11 23  1  0  0  0  0
 12  7  1  0  0  0  0
 12  6  1  0  0  0  0
 13 16  1  0  0  0  0
 13  9  1  0  0  0  0
 14 24  1  0  0  0  0
 16 22  1  0  0  0  0
 17 14  1  0  0  0  0
 18 19  1  0  0  0  0
 19  3  2  0  0  0  0
 20 13  1  0  0  0  0
 21 10  1  0  0  0  0
 21 27  1  0  0  0  0
 22 26  1  0  0  0  0
 23 21  1  0  0  0  0
 24 10  1  0  0  0  0
 26 25  1  0  0  0  0
 27 28  1  0  0  0  0
M  END
>  <MODEL>
1

>  <REMARK>
 VINA RESULT:      -6.6      0.000      0.000
  Name = 
  2 active torsions:
  status: ('A' for Active; 'I' for Inactive)
    1  A    between atoms: C_5  and  C_24
    2  A    between atoms: O_17  and  C_25
                            x       y       z     vdW  Elec       q    Type
                         _______ _______ _______ _____ _____    ______ ____

>  <TORSDO>
F 2

$$$$
=
 OpenBabel11112417373D

 28 31  0  0  1  0  0  0  0  0999 V2000
  191.6110  174.4350  145.0580 C   0  0  2  0  0  3  0  0  0  0  0  0
  189.9560  176.7400  146.8000 O   0  0  0  0  0  0  0  0  0  0  0  0
  193.9920  175.9140  144.3410 C   0  0  0  0  0  3  0  0  0  0  0  0
  190.6650  173.3850  145.0450 O   0  0  0  0  0  0  0  0  0  0  0  0
  190.2130  178.3770  144.9740 O   0  0  0  0  0  0  0  0  0  0  0  0
  189.3710  177.2570  145.5160 S   0  0  0  0  0  0  0  0  0  0  0  0
  186.7200  176.6480  145.4670 C   0  0  1  0  0  3  0  0  0  0  0  0
  189.1960  175.9440  144.3400 C   0  0  1  0  0  3  0  0  0  0  0  0
  190.2270  170.8720  142.2970 C   0  0  0  0  0  1  0  0  0  0  0  0
  189.6460  175.2620  142.0590 C   0  0  2  0  0  3  0  0  0  0  0  0
  186.7700  176.0710  144.1580 O   0  0  0  0  0  0  0  0  0  0  0  0
  187.6920  177.8120  145.7660 C   0  0  0  0  0  2  0  0  0  0  0  0
  189.8540  171.9510  143.3030 C   0  0  2  0  0  3  0  0  0  0  0  0
  191.6540  175.2510  143.7430 C   0  0  2  0  0  3  0  0  0  0  0  0
  185.3030  177.0850  145.7710 C   0  0  0  0  0  1  0  0  0  0  0  0
  189.0910  172.9950  142.7330 O   0  0  0  0  0  0  0  0  0  0  0  0
  192.6420  176.4000  143.9040 C   0  0  0  0  0  2  0  0  0  0  0  0
  192.9920  173.9640  145.5560 C   0  0  0  0  0  2  0  0  0  0  0  0
  194.1420  174.8330  145.1150 C   0  0  0  0  0  3  0  0  0  0  0  0
  191.0670  172.4350  144.0920 C   0  0  0  0  0  2  0  0  0  0  0  0
  188.1460  175.5550  142.1980 C   0  0  1  0  0  3  0  0  0  0  0  0
  189.8940  173.7580  141.8570 C   0  0  1  0  0  3  0  0  0  0  0  0
  187.9980  176.3190  143.5030 C   0  0  2  0  0  3  0  0  0  0  0  0
  190.3020  175.8530  143.3130 C   0  0  2  0  0  3  0  0  0  0  0  0
  190.8110  173.5530  139.8510 C   0  0  0  0  0  1  0  0  0  0  0  0
  189.6020  173.4120  140.5350 O   0  0  0  0  0  0  0  0  0  0  0  0
  187.6770  176.4030  141.0300 C   0  0  0  0  0  2  0  0  0  0  0  0
  187.9600  177.7480  141.2740 O   0  0  0  0  0  1  0  0  0  0  0  0
  1 18  1  6  0  0  0
  3 19  2  0  0  0  0
  4  1  1  0  0  0  0
  5  6  2  0  0  0  0
  6 12  1  0  0  0  0
  6  2  2  0  0  0  0
  7 12  1  0  0  0  0
  7 15  1  6  0  0  0
  8  6  1  1  0  0  0
  9 13  1  0  0  0  0
 10 21  1  0  0  0  0
 10 24  1  0  0  0  0
 11  7  1  0  0  0  0
 13 20  1  0  0  0  0
 14 17  1  0  0  0  0
 14  1  1  0  0  0  0
 16 13  1  0  0  0  0
 17  3  1  0  0  0  0
 19 18  1  0  0  0  0
 20  4  1  0  0  0  0
 21 23  1  0  0  0  0
 22 10  1  0  0  0  0
 22 16  1  0  0  0  0
 23 11  1  0  0  0  0
 23  8  1  0  0  0  0
 24 14  1  0  0  0  0
 24  8  1  0  0  0  0
 25 26  1  0  0  0  0
 26 22  1  0  0  0  0
 27 28  1  0  0  0  0
 27 21  1  0  0  0  0
M  END
>  <MODEL>
2

>  <REMARK>
 VINA RESULT:      -6.6      1.960      4.916
  Name = 
  2 active torsions:
  status: ('A' for Active; 'I' for Inactive)
    1  A    between atoms: C_5  and  C_24
    2  A    between atoms: O_17  and  C_25
                            x       y       z     vdW  Elec       q    Type
                         _______ _______ _______ _____ _____    ______ ____

>  <TORSDO>
F 2

$$$$
=
 OpenBabel11112417373D

 28 31  0  0  1  0  0  0  0  0999 V2000
  189.6170  176.5850  145.0770 C   0  0  2  0  0  3  0  0  0  0  0  0
  192.9170  176.7430  145.4950 O   0  0  0  0  0  0  0  0  0  0  0  0
  188.8860  174.8280  147.2570 C   0  0  0  0  0  3  0  0  0  0  0  0
  189.4650  177.3340  143.8890 O   0  0  0  0  0  0  0  0  0  0  0  0
  193.0760  174.2830  145.5570 O   0  0  0  0  0  0  0  0  0  0  0  0
  193.0570  175.4950  144.6690 S   0  0  0  0  0  0  0  0  0  0  0  0
  194.2040  176.1550  142.2920 C   0  0  1  0  0  3  0  0  0  0  0  0
  191.7640  175.4000  143.4620 C   0  0  1  0  0  3  0  0  0  0  0  0
  186.8360  176.7750  141.2740 C   0  0  0  0  0  1  0  0  0  0  0  0
  190.0440  173.9770  142.5180 C   0  0  2  0  0  3  0  0  0  0  0  0
  193.2160  175.4780  141.5080 O   0  0  0  0  0  0  0  0  0  0  0  0
  194.5400  175.5580  143.6780 C   0  0  0  0  0  2  0  0  0  0  0  0
  188.2240  176.9480  141.8740 C   0  0  2  0  0  3  0  0  0  0  0  0
  189.5710  175.0540  144.8600 C   0  0  2  0  0  3  0  0  0  0  0  0
  195.4760  176.2990  141.4840 C   0  0  0  0  0  1  0  0  0  0  0  0
  189.1360  175.9580  141.4440 O   0  0  0  0  0  0  0  0  0  0  0  0
  189.8290  174.3560  146.1900 C   0  0  0  0  0  2  0  0  0  0  0  0
  188.6920  177.0930  146.2030 C   0  0  0  0  0  2  0  0  0  0  0  0
  188.4020  176.0760  147.2760 C   0  0  0  0  0  3  0  0  0  0  0  0
  188.1700  177.1200  143.3880 C   0  0  0  0  0  2  0  0  0  0  0  0
  191.1960  174.0910  141.5110 C   0  0  1  0  0  3  0  0  0  0  0  0
  188.7930  174.7080  142.0040 C   0  0  1  0  0  3  0  0  0  0  0  0
  192.3670  174.6630  142.2930 C   0  0  2  0  0  3  0  0  0  0  0  0
  190.5970  174.5160  143.8430 C   0  0  2  0  0  3  0  0  0  0  0  0
  187.6310  172.8400  141.7450 C   0  0  0  0  0  1  0  0  0  0  0  0
  188.1590  173.9220  141.0380 O   0  0  0  0  0  0  0  0  0  0  0  0
  191.5420  172.7170  140.9660 C   0  0  0  0  0  2  0  0  0  0  0  0
  190.9590  171.7290  141.7610 O   0  0  0  0  0  1  0  0  0  0  0  0
  1 18  1  1  0  0  0
  3 19  2  0  0  0  0
  4  1  1  0  0  0  0
  6  2  2  0  0  0  0
  6  5  2  0  0  0  0
  7 15  1  6  0  0  0
  7 12  1  0  0  0  0
  8 24  1  0  0  0  0
  8  6  1  1  0  0  0
  9 13  1  0  0  0  0
 10 24  1  0  0  0  0
 11  7  1  0  0  0  0
 11 23  1  0  0  0  0
 12  6  1  0  0  0  0
 13 20  1  0  0  0  0
 14  1  1  0  0  0  0
 14 17  1  0  0  0  0
 16 13  1  0  0  0  0
 16 22  1  0  0  0  0
 17  3  1  0  0  0  0
 18 19  1  0  0  0  0
 20  4  1  0  0  0  0
 21 23  1  0  0  0  0
 21 10  1  0  0  0  0
 22 10  1  0  0  0  0
 23  8  1  0  0  0  0
 24 14  1  0  0  0  0
 26 25  1  0  0  0  0
 26 22  1  0  0  0  0
 27 21  1  0  0  0  0
 27 28  1  0  0  0  0
M  END
>  <MODEL>
3

>  <REMARK>
 VINA RESULT:      -6.5      2.180      5.850
  Name = 
  2 active torsions:
  status: ('A' for Active; 'I' for Inactive)
    1  A    between atoms: C_5  and  C_24
    2  A    between atoms: O_17  and  C_25
                            x       y       z     vdW  Elec       q    Type
                         _______ _______ _______ _____ _____    ______ ____

>  <TORSDO>
F 2

$$$$
=
 OpenBabel11112417373D

 28 31  0  0  1  0  0  0  0  0999 V2000
  191.4190  174.6660  142.2750 C   0  0  2  0  0  3  0  0  0  0  0  0
  188.5500  175.2800  140.7010 O   0  0  0  0  0  0  0  0  0  0  0  0
  191.2690  171.7900  142.5560 C   0  0  0  0  0  3  0  0  0  0  0  0
  191.8960  175.9800  142.4770 O   0  0  0  0  0  0  0  0  0  0  0  0
  187.2910  174.0010  142.3920 O   0  0  0  0  0  0  0  0  0  0  0  0
  187.8600  175.3450  142.0350 S   0  0  0  0  0  0  0  0  0  0  0  0
  187.1410  177.9260  142.5100 C   0  0  1  0  0  3  0  0  0  0  0  0
  188.9710  175.9370  143.2810 C   0  0  1  0  0  3  0  0  0  0  0  0
  193.9890  177.1250  145.3700 C   0  0  0  0  0  1  0  0  0  0  0  0
  189.8580  175.5170  145.4960 C   0  0  2  0  0  3  0  0  0  0  0  0
  187.7150  177.9530  143.8220 O   0  0  0  0  0  0  0  0  0  0  0  0
  186.5680  176.5780  142.0160 C   0  0  0  0  0  2  0  0  0  0  0  0
  192.8300  177.0930  144.3840 C   0  0  2  0  0  3  0  0  0  0  0  0
  190.7640  174.0400  143.5300 C   0  0  2  0  0  3  0  0  0  0  0  0
  186.0750  178.9950  142.4050 C   0  0  0  0  0  1  0  0  0  0  0  0
  191.5680  177.1740  145.0160 O   0  0  0  0  0  0  0  0  0  0  0  0
  190.2160  172.6640  143.1700 C   0  0  0  0  0  2  0  0  0  0  0  0
  192.4720  173.7660  141.5950 C   0  0  0  0  0  2  0  0  0  0  0  0
  192.2660  172.2900  141.8180 C   0  0  0  0  0  3  0  0  0  0  0  0
  192.9530  175.9340  143.4010 C   0  0  0  0  0  2  0  0  0  0  0  0
  188.8850  176.7000  145.5730 C   0  0  1  0  0  3  0  0  0  0  0  0
  191.3060  175.9820  145.7250 C   0  0  1  0  0  3  0  0  0  0  0  0
  188.1000  176.6690  144.2720 C   0  0  2  0  0  3  0  0  0  0  0  0
  189.6080  174.8610  144.1320 C   0  0  2  0  0  3  0  0  0  0  0  0
  191.6060  174.9160  147.6440 C   0  0  0  0  0  1  0  0  0  0  0  0
  191.5150  176.1940  147.0910 O   0  0  0  0  0  0  0  0  0  0  0  0
  187.9540  176.5260  146.7590 C   0  0  0  0  0  2  0  0  0  0  0  0
  188.1890  175.2950  147.3720 O   0  0  0  0  0  1  0  0  0  0  0  0
  1 18  1  1  0  0  0
  1  4  1  0  0  0  0
  1 14  1  0  0  0  0
  2  6  2  0  0  0  0
  3 17  1  0  0  0  0
  4 20  1  0  0  0  0
  6  5  2  0  0  0  0
  7 15  1  1  0  0  0
  7 11  1  0  0  0  0
  8  6  1  6  0  0  0
  8 24  1  0  0  0  0
  8 23  1  0  0  0  0
 10 21  1  0  0  0  0
 10 22  1  0  0  0  0
 11 23  1  0  0  0  0
 12  6  1  0  0  0  0
 12  7  1  0  0  0  0
 13 16  1  0  0  0  0
 13  9  1  0  0  0  0
 14 24  1  0  0  0  0
 16 22  1  0  0  0  0
 17 14  1  0  0  0  0
 18 19  1  0  0  0  0
 19  3  2  0  0  0  0
 20 13  1  0  0  0  0
 21 27  1  0  0  0  0
 22 26  1  0  0  0  0
 23 21  1  0  0  0  0
 24 10  1  0  0  0  0
 26 25  1  0  0  0  0
 27 28  1  0  0  0  0
M  END
>  <MODEL>
4

>  <REMARK>
 VINA RESULT:      -6.5      1.294      1.346
  Name = 
  2 active torsions:
  status: ('A' for Active; 'I' for Inactive)
    1  A    between atoms: C_5  and  C_24
    2  A    between atoms: O_17  and  C_25
                            x       y       z     vdW  Elec       q    Type
                         _______ _______ _______ _____ _____    ______ ____

>  <TORSDO>
F 2

$$$$
=
 OpenBabel11112417373D

 28 31  0  0  1  0  0  0  0  0999 V2000
  187.6870  177.8940  145.0660 C   0  0  2  0  0  3  0  0  0  0  0  0
  190.3130  178.0550  147.1060 O   0  0  0  0  0  0  0  0  0  0  0  0
  185.7130  176.7220  146.8280 C   0  0  0  0  0  3  0  0  0  0  0  0
  188.2640  178.3440  143.8570 O   0  0  0  0  0  0  0  0  0  0  0  0
  190.0580  175.6760  147.7030 O   0  0  0  0  0  0  0  0  0  0  0  0
  190.6650  176.6440  146.7260 S   0  0  0  0  0  0  0  0  0  0  0  0
  192.9320  176.6920  145.2240 C   0  0  1  0  0  3  0  0  0  0  0  0
  190.1540  176.3020  145.0650 C   0  0  1  0  0  3  0  0  0  0  0  0
  187.2520  177.2550  140.4140 C   0  0  0  0  0  1  0  0  0  0  0  0
  188.9550  174.7440  143.6490 C   0  0  2  0  0  3  0  0  0  0  0  0
  192.3850  175.8760  144.1830 O   0  0  0  0  0  0  0  0  0  0  0  0
  192.4360  176.4300  146.6640 C   0  0  0  0  0  2  0  0  0  0  0  0
  188.1590  177.5270  141.6060 C   0  0  2  0  0  3  0  0  0  0  0  0
  187.5330  176.3560  145.1490 C   0  0  2  0  0  3  0  0  0  0  0  0
  194.4430  176.6060  145.1880 C   0  0  0  0  0  1  0  0  0  0  0  0
  189.0090  176.4390  141.9100 O   0  0  0  0  0  0  0  0  0  0  0  0
  186.9830  175.9850  146.5210 C   0  0  0  0  0  2  0  0  0  0  0  0
  186.4080  178.6780  145.4240 C   0  0  0  0  0  2  0  0  0  0  0  0
  185.4730  177.9510  146.3570 C   0  0  0  0  0  3  0  0  0  0  0  0
  187.3790  178.0530  142.8050 C   0  0  0  0  0  2  0  0  0  0  0  0
  190.4580  174.5850  143.3910 C   0  0  1  0  0  3  0  0  0  0  0  0
  188.2520  175.3670  142.4310 C   0  0  1  0  0  3  0  0  0  0  0  0
  191.1480  175.2930  144.5450 C   0  0  2  0  0  3  0  0  0  0  0  0
  188.8390  175.5650  144.9390 C   0  0  2  0  0  3  0  0  0  0  0  0
  187.4100  173.3480  142.0820 C   0  0  0  0  0  1  0  0  0  0  0  0
  188.0810  174.3920  141.4440 O   0  0  0  0  0  0  0  0  0  0  0  0
  190.8260  173.1120  143.3760 C   0  0  0  0  0  2  0  0  0  0  0  0
  190.1550  172.4430  144.4010 O   0  0  0  0  0  1  0  0  0  0  0  0
  1 14  1  0  0  0  0
  1 18  1  6  0  0  0
  4  1  1  0  0  0  0
  6  2  2  0  0  0  0
  6  5  2  0  0  0  0
  7 15  1  1  0  0  0
  7 12  1  0  0  0  0
  8  6  1  1  0  0  0
  9 13  1  0  0  0  0
 10 24  1  0  0  0  0
 11 23  1  0  0  0  0
 11  7  1  0  0  0  0
 12  6  1  0  0  0  0
 13 16  1  0  0  0  0
 13 20  1  0  0  0  0
 14 17  1  0  0  0  0
 16 22  1  0  0  0  0
 17  3  1  0  0  0  0
 18 19  1  0  0  0  0
 19  3  2  0  0  0  0
 20  4  1  0  0  0  0
 21 10  1  0  0  0  0
 21 23  1  0  0  0  0
 22 10  1  0  0  0  0
 23  8  1  0  0  0  0
 24  8  1  0  0  0  0
 24 14  1  0  0  0  0
 26 25  1  0  0  0  0
 26 22  1  0  0  0  0
 27 21  1  0  0  0  0
 27 28  1  0  0  0  0
M  END
>  <MODEL>
5

>  <REMARK>
 VINA RESULT:      -6.4      1.910      6.317
  Name = 
  2 active torsions:
  status: ('A' for Active; 'I' for Inactive)
    1  A    between atoms: C_5  and  C_24
    2  A    between atoms: O_17  and  C_25
                            x       y       z     vdW  Elec       q    Type
                         _______ _______ _______ _____ _____    ______ ____

>  <TORSDO>
F 2

$$$$
=
 OpenBabel11112417373D

 28 31  0  0  1  0  0  0  0  0999 V2000
  189.5300  175.9140  144.7930 C   0  0  2  0  0  3  0  0  0  0  0  0
  189.4870  173.1270  142.9720 O   0  0  0  0  0  0  0  0  0  0  0  0
  189.3590  177.9150  142.7100 C   0  0  0  0  0  3  0  0  0  0  0  0
  189.7230  175.3810  146.0870 O   0  0  0  0  0  0  0  0  0  0  0  0
  191.3150  173.9700  141.5480 O   0  0  0  0  0  0  0  0  0  0  0  0
  190.9780  173.2350  142.8150 S   0  0  0  0  0  0  0  0  0  0  0  0
  192.1460  171.2410  144.2490 C   0  0  1  0  0  3  0  0  0  0  0  0
  191.6980  174.0150  144.2330 C   0  0  1  0  0  3  0  0  0  0  0  0
  191.5670  177.0580  148.8890 C   0  0  0  0  0  1  0  0  0  0  0  0
  193.2020  175.7640  144.9750 C   0  0  2  0  0  3  0  0  0  0  0  0
  193.0620  172.1150  144.9170 O   0  0  0  0  0  0  0  0  0  0  0  0
  191.7310  171.6160  142.8080 C   0  0  0  0  0  2  0  0  0  0  0  0
  191.1930  175.9770  147.8850 C   0  0  2  0  0  3  0  0  0  0  0  0
  190.8200  176.4850  144.1540 C   0  0  2  0  0  3  0  0  0  0  0  0
  192.6970  169.8300  144.2630 C   0  0  0  0  0  1  0  0  0  0  0  0
  192.3130  175.4390  147.2130 O   0  0  0  0  0  0  0  0  0  0  0  0
  190.5070  176.9510  142.7370 C   0  0  0  0  0  2  0  0  0  0  0  0
  188.3190  176.8680  144.7350 C   0  0  0  0  0  2  0  0  0  0  0  0
  188.3570  177.8530  143.5940 C   0  0  0  0  0  3  0  0  0  0  0  0
  190.0730  176.4290  146.9540 C   0  0  0  0  0  2  0  0  0  0  0  0
  193.8920  174.4070  145.1690 C   0  0  1  0  0  3  0  0  0  0  0  0
  192.8540  176.4000  146.3310 C   0  0  1  0  0  3  0  0  0  0  0  0
  193.0760  173.4140  144.3580 C   0  0  2  0  0  3  0  0  0  0  0  0
  191.9930  175.4890  144.0720 C   0  0  2  0  0  3  0  0  0  0  0  0
  194.5650  177.7310  145.8770 C   0  0  0  0  0  1  0  0  0  0  0  0
  194.0070  176.9550  146.8940 O   0  0  0  0  0  0  0  0  0  0  0  0
  195.3160  174.4750  144.6500 C   0  0  0  0  0  2  0  0  0  0  0  0
  196.2110  174.5260  145.7190 O   0  0  0  0  0  1  0  0  0  0  0  0
  1 18  1  1  0  0  0
  1  4  1  0  0  0  0
  3 17  1  0  0  0  0
  3 19  2  0  0  0  0
  4 20  1  0  0  0  0
  5  6  2  0  0  0  0
  6  2  2  0  0  0  0
  7 15  1  6  0  0  0
  7 11  1  0  0  0  0
  8  6  1  6  0  0  0
  8 23  1  0  0  0  0
 10 21  1  0  0  0  0
 10 22  1  0  0  0  0
 12  6  1  0  0  0  0
 12  7  1  0  0  0  0
 13  9  1  0  0  0  0
 14  1  1  0  0  0  0
 16 13  1  0  0  0  0
 17 14  1  0  0  0  0
 19 18  1  0  0  0  0
 20 13  1  0  0  0  0
 22 26  1  0  0  0  0
 22 16  1  0  0  0  0
 23 11  1  0  0  0  0
 23 21  1  0  0  0  0
 24 14  1  0  0  0  0
 24  8  1  0  0  0  0
 24 10  1  0  0  0  0
 25 26  1  0  0  0  0
 27 21  1  0  0  0  0
 27 28  1  0  0  0  0
M  END
>  <MODEL>
6

>  <REMARK>
 VINA RESULT:      -6.3      1.803      5.292
  Name = 
  2 active torsions:
  status: ('A' for Active; 'I' for Inactive)
    1  A    between atoms: C_5  and  C_24
    2  A    between atoms: O_17  and  C_25
                            x       y       z     vdW  Elec       q    Type
                         _______ _______ _______ _____ _____    ______ ____

>  <TORSDO>
F 2

$$$$
=
 OpenBabel11112417373D

 28 31  0  0  1  0  0  0  0  0999 V2000
  191.3380  176.6340  145.3380 C   0  0  2  0  0  3  0  0  0  0  0  0
  194.5410  177.5410  145.2310 O   0  0  0  0  0  0  0  0  0  0  0  0
  191.1910  175.5080  147.9990 C   0  0  0  0  0  3  0  0  0  0  0  0
  190.9310  176.9470  144.0220 O   0  0  0  0  0  0  0  0  0  0  0  0
  195.2520  175.2920  145.9500 O   0  0  0  0  0  0  0  0  0  0  0  0
  194.8930  176.1530  144.7720 S   0  0  0  0  0  0  0  0  0  0  0  0
  195.6760  176.2760  142.1700 C   0  0  1  0  0  3  0  0  0  0  0  0
  193.5650  175.4530  143.8320 C   0  0  1  0  0  3  0  0  0  0  0  0
  188.3010  175.1320  142.0590 C   0  0  0  0  0  1  0  0  0  0  0  0
  192.1420  173.5100  143.5690 C   0  0  2  0  0  3  0  0  0  0  0  0
  194.8080  175.2170  141.7500 O   0  0  0  0  0  0  0  0  0  0  0  0
  196.2440  176.1990  143.6050 C   0  0  0  0  0  2  0  0  0  0  0  0
  189.6560  175.7410  142.3880 C   0  0  2  0  0  3  0  0  0  0  0  0
  191.6210  175.1290  145.5630 C   0  0  2  0  0  3  0  0  0  0  0  0
  196.8170  176.4110  141.1830 C   0  0  0  0  0  1  0  0  0  0  0  0
  190.7320  174.8620  142.1260 O   0  0  0  0  0  0  0  0  0  0  0  0
  192.1310  174.9270  146.9850 C   0  0  0  0  0  2  0  0  0  0  0  0
  190.4120  177.2700  146.3960 C   0  0  0  0  0  2  0  0  0  0  0  0
  190.4420  176.5860  147.7400 C   0  0  0  0  0  3  0  0  0  0  0  0
  189.6830  176.3470  143.7870 C   0  0  0  0  0  2  0  0  0  0  0  0
  193.1570  173.5340  142.4200 C   0  0  1  0  0  3  0  0  0  0  0  0
  190.7220  173.7980  143.0530 C   0  0  1  0  0  3  0  0  0  0  0  0
  194.2270  174.5290  142.8410 C   0  0  2  0  0  3  0  0  0  0  0  0
  192.6600  174.5180  144.6030 C   0  0  2  0  0  3  0  0  0  0  0  0
  189.6340  171.9160  143.4810 C   0  0  0  0  0  1  0  0  0  0  0  0
  190.2080  172.6500  142.4420 O   0  0  0  0  0  0  0  0  0  0  0  0
  193.7600  172.1530  142.2350 C   0  0  0  0  0  2  0  0  0  0  0  0
  193.2490  171.2790  143.1950 O   0  0  0  0  0  1  0  0  0  0  0  0
  1 14  1  0  0  0  0
  1 18  1  1  0  0  0
  4  1  1  0  0  0  0
  6  2  2  0  0  0  0
  6  5  2  0  0  0  0
  7 15  1  6  0  0  0
  7 12  1  0  0  0  0
  8 24  1  0  0  0  0
  8  6  1  1  0  0  0
  9 13  1  0  0  0  0
 10 24  1  0  0  0  0
 11  7  1  0  0  0  0
 11 23  1  0  0  0  0
 12  6  1  0  0  0  0
 13 20  1  0  0  0  0
 14 17  1  0  0  0  0
 16 13  1  0  0  0  0
 16 22  1  0  0  0  0
 17  3  1  0  0  0  0
 18 19  1  0  0  0  0
 19  3  2  0  0  0  0
 20  4  1  0  0  0  0
 21 23  1  0  0  0  0
 21 10  1  0  0  0  0
 22 10  1  0  0  0  0
 23  8  1  0  0  0  0
 24 14  1  0  0  0  0
 26 22  1  0  0  0  0
 26 25  1  0  0  0  0
 27 21  1  0  0  0  0
 27 28  1  0  0  0  0
M  END
>  <MODEL>
7

>  <REMARK>
 VINA RESULT:      -6.1      2.373      6.051
  Name = 
  2 active torsions:
  status: ('A' for Active; 'I' for Inactive)
    1  A    between atoms: C_5  and  C_24
    2  A    between atoms: O_17  and  C_25
                            x       y       z     vdW  Elec       q    Type
                         _______ _______ _______ _____ _____    ______ ____

>  <TORSDO>
F 2

$$$$
=
 OpenBabel11112417373D

 28 31  0  0  1  0  0  0  0  0999 V2000
  192.9340  174.0660  143.8870 C   0  0  2  0  0  3  0  0  0  0  0  0
  191.9980  176.5020  145.9550 O   0  0  0  0  0  0  0  0  0  0  0  0
  194.9220  175.4470  142.3020 C   0  0  0  0  0  3  0  0  0  0  0  0
  192.0410  173.0400  144.2670 O   0  0  0  0  0  0  0  0  0  0  0  0
  191.6080  178.0300  144.0590 O   0  0  0  0  0  0  0  0  0  0  0  0
  191.0040  176.9610  144.9260 S   0  0  0  0  0  0  0  0  0  0  0  0
  188.5000  176.4140  145.8380 C   0  0  1  0  0  3  0  0  0  0  0  0
  190.4260  175.5900  143.9650 C   0  0  1  0  0  3  0  0  0  0  0  0
  190.6640  170.3920  141.9970 C   0  0  0  0  0  1  0  0  0  0  0  0
  190.0510  174.7750  141.7140 C   0  0  2  0  0  3  0  0  0  0  0  0
  188.0890  175.7660  144.6300 O   0  0  0  0  0  0  0  0  0  0  0  0
  189.5190  177.5690  145.7100 C   0  0  0  0  0  2  0  0  0  0  0  0
  190.6690  171.5330  143.0030 C   0  0  2  0  0  3  0  0  0  0  0  0
  192.5190  174.8080  142.5930 C   0  0  2  0  0  3  0  0  0  0  0  0
  187.2780  176.9010  146.5880 C   0  0  0  0  0  1  0  0  0  0  0  0
  189.7580  172.5620  142.6730 O   0  0  0  0  0  0  0  0  0  0  0  0
  193.5060  175.9400  142.3320 C   0  0  0  0  0  2  0  0  0  0  0  0
  194.4020  173.5900  143.9020 C   0  0  0  0  0  2  0  0  0  0  0  0
  195.3290  174.4070  143.0380 C   0  0  0  0  0  3  0  0  0  0  0  0
  192.0820  172.0300  143.2920 C   0  0  0  0  0  2  0  0  0  0  0  0
  188.6950  175.1100  142.3480 C   0  0  1  0  0  3  0  0  0  0  0  0
  190.2080  173.2560  141.5290 C   0  0  1  0  0  3  0  0  0  0  0  0
  189.0130  175.9480  143.5750 C   0  0  2  0  0  3  0  0  0  0  0  0
  191.1050  175.4170  142.6250 C   0  0  2  0  0  3  0  0  0  0  0  0
  190.1840  173.3330  139.3150 C   0  0  0  0  0  1  0  0  0  0  0  0
  189.4730  172.8450  140.4140 O   0  0  0  0  0  0  0  0  0  0  0  0
  187.8510  175.9040  141.3670 C   0  0  0  0  0  2  0  0  0  0  0  0
  188.1480  177.2640  141.4750 O   0  0  0  0  0  1  0  0  0  0  0  0
  1 18  1  6  0  0  0
  1  4  1  0  0  0  0
  3 17  1  0  0  0  0
  3 19  2  0  0  0  0
  5  6  2  0  0  0  0
  6 12  1  0  0  0  0
  6  2  2  0  0  0  0
  7 15  1  6  0  0  0
  8  6  1  6  0  0  0
  9 13  1  0  0  0  0
 10 21  1  0  0  0  0
 10 24  1  0  0  0  0
 11  7  1  0  0  0  0
 12  7  1  0  0  0  0
 13 20  1  0  0  0  0
 14 24  1  0  0  0  0
 14  1  1  0  0  0  0
 16 13  1  0  0  0  0
 17 14  1  0  0  0  0
 19 18  1  0  0  0  0
 20  4  1  0  0  0  0
 21 23  1  0  0  0  0
 22 10  1  0  0  0  0
 22 16  1  0  0  0  0
 23  8  1  0  0  0  0
 23 11  1  0  0  0  0
 24  8  1  0  0  0  0
 25 26  1  0  0  0  0
 26 22  1  0  0  0  0
 27 28  1  0  0  0  0
 27 21  1  0  0  0  0
M  END
>  <MODEL>
8

>  <REMARK>
 VINA RESULT:      -6.0      2.007      4.949
  Name = 
  2 active torsions:
  status: ('A' for Active; 'I' for Inactive)
    1  A    between atoms: C_5  and  C_24
    2  A    between atoms: O_17  and  C_25
                            x       y       z     vdW  Elec       q    Type
                         _______ _______ _______ _____ _____    ______ ____

>  <TORSDO>
F 2

$$$$
=
 OpenBabel11112417373D

 28 31  0  0  1  0  0  0  0  0999 V2000
  188.4340  175.7430  144.3190 C   0  0  2  0  0  3  0  0  0  0  0  0
  187.7710  173.4320  142.0150 O   0  0  0  0  0  0  0  0  0  0  0  0
  188.0830  178.1600  142.7670 C   0  0  0  0  0  3  0  0  0  0  0  0
  188.8090  174.9280  145.4100 O   0  0  0  0  0  0  0  0  0  0  0  0
  189.3780  174.4580  140.4520 O   0  0  0  0  0  0  0  0  0  0  0  0
  189.2090  173.4840  141.5840 S   0  0  0  0  0  0  0  0  0  0  0  0
  190.4150  171.1570  142.3130 C   0  0  1  0  0  3  0  0  0  0  0  0
  190.2560  173.8880  142.9550 C   0  0  1  0  0  3  0  0  0  0  0  0
  191.3010  175.8360  148.0610 C   0  0  0  0  0  1  0  0  0  0  0  0
  192.0410  175.3390  143.7160 C   0  0  2  0  0  3  0  0  0  0  0  0
  191.5230  171.8070  142.9450 O   0  0  0  0  0  0  0  0  0  0  0  0
  189.7800  171.8640  141.0950 C   0  0  0  0  0  2  0  0  0  0  0  0
  190.6400  175.0250  146.9550 C   0  0  2  0  0  3  0  0  0  0  0  0
  189.6330  176.3620  143.5620 C   0  0  2  0  0  3  0  0  0  0  0  0
  190.8130  169.7480  141.9270 C   0  0  0  0  0  1  0  0  0  0  0  0
  191.5550  174.5830  145.9740 O   0  0  0  0  0  0  0  0  0  0  0  0
  189.1120  177.1460  142.3630 C   0  0  0  0  0  2  0  0  0  0  0  0
  187.3360  176.7570  144.7050 C   0  0  0  0  0  2  0  0  0  0  0  0
  187.2610  177.9640  143.8050 C   0  0  0  0  0  3  0  0  0  0  0  0
  189.4190  175.7370  146.3830 C   0  0  0  0  0  2  0  0  0  0  0  0
  192.6130  173.9340  143.4850 C   0  0  1  0  0  3  0  0  0  0  0  0
  192.0170  175.6810  145.2150 C   0  0  1  0  0  3  0  0  0  0  0  0
  191.5650  173.1940  142.6710 C   0  0  2  0  0  3  0  0  0  0  0  0
  190.6640  175.3420  143.0410 C   0  0  2  0  0  3  0  0  0  0  0  0
  193.6230  177.1750  144.9020 C   0  0  0  0  0  1  0  0  0  0  0  0
  193.3050  176.0290  145.6330 O   0  0  0  0  0  0  0  0  0  0  0  0
  193.9160  174.0300  142.7120 C   0  0  0  0  0  2  0  0  0  0  0  0
  194.9960  174.0240  143.5950 O   0  0  0  0  0  1  0  0  0  0  0  0
  1 18  1  1  0  0  0
  1  4  1  0  0  0  0
  3 19  2  0  0  0  0
  4 20  1  0  0  0  0
  5  6  2  0  0  0  0
  6  2  2  0  0  0  0
  7 15  1  6  0  0  0
  7 11  1  0  0  0  0
  8  6  1  6  0  0  0
  8 24  1  0  0  0  0
 10 22  1  0  0  0  0
 12  6  1  0  0  0  0
 12  7  1  0  0  0  0
 13  9  1  0  0  0  0
 14  1  1  0  0  0  0
 16 13  1  0  0  0  0
 17  3  1  0  0  0  0
 17 14  1  0  0  0  0
 19 18  1  0  0  0  0
 20 13  1  0  0  0  0
 21 10  1  0  0  0  0
 22 26  1  0  0  0  0
 22 16  1  0  0  0  0
 23 11  1  0  0  0  0
 23  8  1  0  0  0  0
 23 21  1  0  0  0  0
 24 14  1  0  0  0  0
 24 10  1  0  0  0  0
 25 26  1  0  0  0  0
 27 21  1  0  0  0  0
 27 28  1  0  0  0  0
M  END
>  <MODEL>
9

>  <REMARK>
 VINA RESULT:      -6.0      1.730      5.112
  Name = 
  2 active torsions:
  status: ('A' for Active; 'I' for Inactive)
    1  A    between atoms: C_5  and  C_24
    2  A    between atoms: O_17  and  C_25
                            x       y       z     vdW  Elec       q    Type
                         _______ _______ _______ _____ _____    ______ ____

>  <TORSDO>
F 2

$$$$
