=
 OpenBabel11112417423D

 28 32  0  0  1  0  0  0  0  0999 V2000
  186.6040  178.2940  144.3200 C   0  0  0  0  0  0  0  0  0  0  0  0
  189.9630  177.9990  145.2240 F   0  0  0  0  0  0  0  0  0  0  0  0
  188.1840  173.6830  140.8960 O   0  0  0  0  0  0  0  0  0  0  0  0
  184.9990  177.5570  146.5040 C   0  0  0  0  0  3  0  0  0  0  0  0
  189.9110  174.2130  142.5180 C   0  0  2  0  0  3  0  0  0  0  0  0
  187.3660  178.7390  143.1120 C   0  0  0  0  0  2  0  0  0  0  0  0
  188.8660  177.7670  147.3000 C   0  0  0  0  0  1  0  0  0  0  0  0
  189.7280  177.0960  146.2470 C   0  0  1  0  0  0  0  0  0  0  0  0
  191.8270  175.7120  146.3410 C   0  0  0  0  0  0  0  0  0  0  0  0
  189.0290  175.8160  145.7170 C   0  0  2  0  0  3  0  0  0  0  0  0
  186.4380  177.3160  139.6760 C   0  0  0  0  0  1  0  0  0  0  0  0
  188.6840  176.2130  143.3310 C   0  0  1  0  0  3  0  0  0  0  0  0
  191.3590  174.8720  145.4720 N   0  0  0  0  0  0  0  0  0  0  0  0
  191.0010  176.7520  146.8620 N   0  0  0  0  0  2  0  0  0  0  0  0
  187.0730  177.3130  141.0500 C   0  0  2  0  0  3  0  0  0  0  0  0
  186.8600  177.0740  145.0060 C   0  0  0  0  0  0  0  0  0  0  0  0
  188.6280  174.4300  141.8090 C   0  0  0  0  0  0  0  0  0  0  0  0
  193.1520  175.5540  146.8320 N   0  0  0  0  0  1  0  0  0  0  0  0
  186.7450  176.0640  141.7270 N   0  0  0  0  0  2  0  0  0  0  0  0
  186.0350  176.7210  146.0850 C   0  0  0  0  0  3  0  0  0  0  0  0
  185.5630  179.1240  144.7580 C   0  0  0  0  0  3  0  0  0  0  0  0
  184.7670  178.7620  145.8450 C   0  0  0  0  0  3  0  0  0  0  0  0
  186.5490  178.5020  141.8450 C   0  0  0  0  0  2  0  0  0  0  0  0
  189.9830  175.4020  143.4900 C   0  0  1  0  0  3  0  0  0  0  0  0
  187.9310  175.5590  142.2840 N   0  0  0  0  0  0  0  0  0  0  0  0
  189.9970  174.9180  144.9340 C   0  0  2  0  0  3  0  0  0  0  0  0
  191.0670  174.2970  141.5380 C   0  0  0  0  0  1  0  0  0  0  0  0
  187.9580  176.0870  144.6600 C   0  0  2  0  0  3  0  0  0  0  0  0
  1 21  2  0  0  0  0
  1 16  1  0  0  0  0
  2  8  1  0  0  0  0
  3 17  2  0  0  0  0
  5 27  1  6  0  0  0
  5 24  1  0  0  0  0
  6  1  1  0  0  0  0
  8 14  1  0  0  0  0
  8  7  1  1  0  0  0
  9 18  1  0  0  0  0
  9 14  1  0  0  0  0
 10  8  1  0  0  0  0
 11 15  1  0  0  0  0
 12 24  1  0  0  0  0
 12 28  1  0  0  0  0
 13  9  2  0  0  0  0
 15 19  1  0  0  0  0
 15 23  1  0  0  0  0
 16 20  2  0  0  0  0
 17 25  1  0  0  0  0
 17  5  1  0  0  0  0
 19 25  1  0  0  0  0
 20  4  1  0  0  0  0
 21 22  1  0  0  0  0
 22  4  2  0  0  0  0
 23  6  1  0  0  0  0
 24 26  1  0  0  0  0
 25 12  1  0  0  0  0
 26 13  1  0  0  0  0
 26 10  1  0  0  0  0
 28 16  1  0  0  0  0
 28 10  1  0  0  0  0
M  END
>  <MODEL>
1

>  <REMARK>
 VINA RESULT:      -9.4      0.000      0.000
  Name = 
  0 active torsions:
  status: ('A' for Active; 'I' for Inactive)
                            x       y       z     vdW  Elec       q    Type
                         _______ _______ _______ _____ _____    ______ ____

>  <TORSDO>
F 0

$$$$
=
 OpenBabel11112417423D

 28 32  0  0  1  0  0  0  0  0999 V2000
  190.2390  175.5810  143.4330 C   0  0  0  0  0  0  0  0  0  0  0  0
  188.0980  177.7690  141.7560 F   0  0  0  0  0  0  0  0  0  0  0  0
  186.4140  176.8390  147.8240 O   0  0  0  0  0  0  0  0  0  0  0  0
  189.9130  172.9970  142.3840 C   0  0  0  0  0  3  0  0  0  0  0  0
  185.6090  177.6610  145.6870 C   0  0  2  0  0  3  0  0  0  0  0  0
  190.5130  176.9230  144.0360 C   0  0  0  0  0  2  0  0  0  0  0  0
  187.9640  175.8240  140.4260 C   0  0  0  0  0  1  0  0  0  0  0  0
  187.2220  176.7800  141.3420 C   0  0  1  0  0  0  0  0  0  0  0  0
  184.9970  177.9440  141.2050 C   0  0  0  0  0  0  0  0  0  0  0  0
  186.6310  176.0110  142.5540 C   0  0  2  0  0  3  0  0  0  0  0  0
  190.6020  177.2840  147.8520 C   0  0  0  0  0  1  0  0  0  0  0  0
  187.6970  176.9930  144.5210 C   0  0  1  0  0  3  0  0  0  0  0  0
  184.7360  177.6770  142.4470 N   0  0  0  0  0  0  0  0  0  0  0  0
  186.1530  177.3990  140.5730 N   0  0  0  0  0  2  0  0  0  0  0  0
  189.9580  177.1510  146.4880 C   0  0  2  0  0  3  0  0  0  0  0  0
  188.9330  175.0360  143.2910 C   0  0  0  0  0  0  0  0  0  0  0  0
  186.5990  177.0330  146.5930 C   0  0  0  0  0  0  0  0  0  0  0  0
  184.0850  178.7300  140.4470 N   0  0  0  0  0  1  0  0  0  0  0  0
  188.9230  176.1270  146.5460 N   0  0  0  0  0  2  0  0  0  0  0  0
  188.7980  173.7370  142.7780 C   0  0  0  0  0  3  0  0  0  0  0  0
  191.3490  174.8270  143.0280 C   0  0  0  0  0  3  0  0  0  0  0  0
  191.1890  173.5450  142.5030 C   0  0  0  0  0  3  0  0  0  0  0  0
  191.0230  176.7740  145.4660 C   0  0  0  0  0  2  0  0  0  0  0  0
  186.3340  177.6830  144.3310 C   0  0  1  0  0  3  0  0  0  0  0  0
  187.7770  176.6450  145.9220 N   0  0  0  0  0  0  0  0  0  0  0  0
  185.5830  176.8450  143.3050 C   0  0  2  0  0  3  0  0  0  0  0  0
  185.3310  179.0860  146.1280 C   0  0  0  0  0  1  0  0  0  0  0  0
  187.6430  175.7370  143.6680 C   0  0  2  0  0  3  0  0  0  0  0  0
  1  6  1  0  0  0  0
  4 22  2  0  0  0  0
  4 20  1  0  0  0  0
  5 27  1  1  0  0  0
  5 17  1  0  0  0  0
  6 23  1  0  0  0  0
  8  7  1  6  0  0  0
  8  2  1  0  0  0  0
  8 10  1  0  0  0  0
  9 13  2  0  0  0  0
 10 26  1  0  0  0  0
 10 28  1  0  0  0  0
 12 25  1  0  0  0  0
 13 26  1  0  0  0  0
 14  9  1  0  0  0  0
 14  8  1  0  0  0  0
 15 19  1  0  0  0  0
 15 11  1  0  0  0  0
 16  1  1  0  0  0  0
 16 28  1  0  0  0  0
 17  3  2  0  0  0  0
 18  9  1  0  0  0  0
 20 16  2  0  0  0  0
 21  1  2  0  0  0  0
 22 21  1  0  0  0  0
 23 15  1  0  0  0  0
 24 12  1  0  0  0  0
 24  5  1  0  0  0  0
 25 19  1  0  0  0  0
 25 17  1  0  0  0  0
 26 24  1  0  0  0  0
 28 12  1  0  0  0  0
M  END
>  <MODEL>
2

>  <REMARK>
 VINA RESULT:      -9.0      2.362      6.497
  Name = 
  0 active torsions:
  status: ('A' for Active; 'I' for Inactive)
                            x       y       z     vdW  Elec       q    Type
                         _______ _______ _______ _____ _____    ______ ____

>  <TORSDO>
F 0

$$$$
=
 OpenBabel11112417423D

 28 32  0  0  1  0  0  0  0  0999 V2000
  190.4010  174.7200  141.9260 C   0  0  0  0  0  0  0  0  0  0  0  0
  188.8400  177.8150  142.3400 F   0  0  0  0  0  0  0  0  0  0  0  0
  190.3330  175.0450  147.8730 O   0  0  0  0  0  0  0  0  0  0  0  0
  188.5400  172.8870  140.8930 C   0  0  0  0  0  3  0  0  0  0  0  0
  188.9670  176.7860  146.8770 C   0  0  2  0  0  3  0  0  0  0  0  0
  191.4750  175.6250  142.4410 C   0  0  0  0  0  2  0  0  0  0  0  0
  187.2440  176.6170  141.0810 C   0  0  0  0  0  1  0  0  0  0  0  0
  187.5600  177.2910  142.4030 C   0  0  1  0  0  0  0  0  0  0  0  0
  186.3080  178.9000  143.8770 C   0  0  0  0  0  0  0  0  0  0  0  0
  187.4250  176.2760  143.5690 C   0  0  2  0  0  3  0  0  0  0  0  0
  193.6660  174.4630  145.3650 C   0  0  0  0  0  1  0  0  0  0  0  0
  189.6480  176.1530  144.5740 C   0  0  1  0  0  3  0  0  0  0  0  0
  186.6450  178.2450  144.9440 N   0  0  0  0  0  0  0  0  0  0  0  0
  186.6190  178.3870  142.5830 N   0  0  0  0  0  2  0  0  0  0  0  0
  192.4230  175.0150  144.7000 C   0  0  2  0  0  3  0  0  0  0  0  0
  189.1230  174.5880  142.5380 C   0  0  0  0  0  0  0  0  0  0  0  0
  189.9150  175.6470  146.8490 C   0  0  0  0  0  0  0  0  0  0  0  0
  185.5610  180.1040  143.9950 N   0  0  0  0  0  1  0  0  0  0  0  0
  191.2530  174.3180  145.2170 N   0  0  0  0  0  2  0  0  0  0  0  0
  188.2170  173.6550  142.0120 C   0  0  0  0  0  3  0  0  0  0  0  0
  190.7070  173.9440  140.7990 C   0  0  0  0  0  3  0  0  0  0  0  0
  189.7840  173.0360  140.2820 C   0  0  0  0  0  3  0  0  0  0  0  0
  192.5350  174.8250  143.1930 C   0  0  0  0  0  2  0  0  0  0  0  0
  188.8170  177.1580  145.3930 C   0  0  1  0  0  3  0  0  0  0  0  0
  190.2880  175.2860  145.5390 N   0  0  0  0  0  0  0  0  0  0  0  0
  187.3760  176.9760  144.9340 C   0  0  2  0  0  3  0  0  0  0  0  0
  189.5790  177.9540  147.6260 C   0  0  0  0  0  1  0  0  0  0  0  0
  188.6440  175.3690  143.7460 C   0  0  2  0  0  3  0  0  0  0  0  0
  1  6  1  0  0  0  0
  1 16  1  0  0  0  0
  2  8  1  0  0  0  0
  4 20  1  0  0  0  0
  5 27  1  1  0  0  0
  6 23  1  0  0  0  0
  8  7  1  6  0  0  0
  8 14  1  0  0  0  0
  8 10  1  0  0  0  0
  9 18  1  0  0  0  0
  9 13  2  0  0  0  0
 10 28  1  0  0  0  0
 10 26  1  0  0  0  0
 12 24  1  0  0  0  0
 12 25  1  0  0  0  0
 14  9  1  0  0  0  0
 15 19  1  0  0  0  0
 15 11  1  0  0  0  0
 16 28  1  0  0  0  0
 17  5  1  0  0  0  0
 17  3  2  0  0  0  0
 19 25  1  0  0  0  0
 20 16  2  0  0  0  0
 21  1  2  0  0  0  0
 22 21  1  0  0  0  0
 22  4  2  0  0  0  0
 23 15  1  0  0  0  0
 24  5  1  0  0  0  0
 25 17  1  0  0  0  0
 26 13  1  0  0  0  0
 26 24  1  0  0  0  0
 28 12  1  0  0  0  0
M  END
>  <MODEL>
3

>  <REMARK>
 VINA RESULT:      -8.2      2.331      6.116
  Name = 
  0 active torsions:
  status: ('A' for Active; 'I' for Inactive)
                            x       y       z     vdW  Elec       q    Type
                         _______ _______ _______ _____ _____    ______ ____

>  <TORSDO>
F 0

$$$$
=
 OpenBabel11112417423D

 28 32  0  0  1  0  0  0  0  0999 V2000
  190.3050  174.7550  143.9900 C   0  0  0  0  0  0  0  0  0  0  0  0
  187.6280  175.7280  146.0090 F   0  0  0  0  0  0  0  0  0  0  0  0
  186.9260  177.5290  139.9440 O   0  0  0  0  0  0  0  0  0  0  0  0
  192.5850  176.2200  144.7240 C   0  0  0  0  0  3  0  0  0  0  0  0
  186.1120  177.9250  142.1960 C   0  0  2  0  0  3  0  0  0  0  0  0
  189.1600  173.8990  143.5470 C   0  0  0  0  0  2  0  0  0  0  0  0
  189.4630  176.7410  147.0920 C   0  0  0  0  0  1  0  0  0  0  0  0
  188.1680  176.9610  146.3320 C   0  0  1  0  0  0  0  0  0  0  0  0
  186.1640  178.4350  146.6990 C   0  0  0  0  0  0  0  0  0  0  0  0
  188.4320  177.8080  145.0580 C   0  0  2  0  0  3  0  0  0  0  0  0
  188.3910  173.5830  139.8040 C   0  0  0  0  0  1  0  0  0  0  0  0
  187.7830  176.3780  143.1870 C   0  0  1  0  0  3  0  0  0  0  0  0
  186.1250  178.7620  145.4450 N   0  0  0  0  0  0  0  0  0  0  0  0
  187.2430  177.6560  147.2130 N   0  0  0  0  0  2  0  0  0  0  0  0
  188.3970  174.2460  141.1650 C   0  0  2  0  0  3  0  0  0  0  0  0
  190.2260  176.1700  144.1160 C   0  0  0  0  0  0  0  0  0  0  0  0
  186.9940  177.3010  141.1810 C   0  0  0  0  0  0  0  0  0  0  0  0
  185.1590  178.9150  147.5840 N   0  0  0  0  0  1  0  0  0  0  0  0
  188.8370  175.6280  141.0230 N   0  0  0  0  0  2  0  0  0  0  0  0
  191.3830  176.8800  144.4690 C   0  0  0  0  0  3  0  0  0  0  0  0
  191.5190  174.1070  144.2550 C   0  0  0  0  0  3  0  0  0  0  0  0
  192.6520  174.8320  144.6230 C   0  0  0  0  0  3  0  0  0  0  0  0
  189.3360  173.4810  142.0900 C   0  0  0  0  0  2  0  0  0  0  0  0
  186.5890  177.2930  143.5140 C   0  0  1  0  0  3  0  0  0  0  0  0
  187.9470  176.4340  141.7510 N   0  0  0  0  0  0  0  0  0  0  0  0
  187.1300  178.3590  144.4580 C   0  0  2  0  0  3  0  0  0  0  0  0
  184.6690  177.5290  141.9450 C   0  0  0  0  0  1  0  0  0  0  0  0
  188.9820  177.0040  143.8800 C   0  0  2  0  0  3  0  0  0  0  0  0
  1 16  2  0  0  0  0
  1 21  1  0  0  0  0
  2  8  1  0  0  0  0
  3 17  2  0  0  0  0
  5 27  1  6  0  0  0
  5 24  1  0  0  0  0
  6  1  1  0  0  0  0
  8  7  1  1  0  0  0
  8 14  1  0  0  0  0
  9 14  1  0  0  0  0
  9 18  1  0  0  0  0
 10  8  1  0  0  0  0
 11 15  1  0  0  0  0
 12 24  1  0  0  0  0
 12 28  1  0  0  0  0
 13  9  2  0  0  0  0
 15 23  1  0  0  0  0
 16 20  1  0  0  0  0
 17 25  1  0  0  0  0
 17  5  1  0  0  0  0
 19 15  1  0  0  0  0
 19 25  1  0  0  0  0
 20  4  2  0  0  0  0
 21 22  2  0  0  0  0
 22  4  1  0  0  0  0
 23  6  1  0  0  0  0
 24 26  1  0  0  0  0
 25 12  1  0  0  0  0
 26 10  1  0  0  0  0
 26 13  1  0  0  0  0
 28 16  1  0  0  0  0
 28 10  1  0  0  0  0
M  END
>  <MODEL>
4

>  <REMARK>
 VINA RESULT:      -8.1      2.324      5.028
  Name = 
  0 active torsions:
  status: ('A' for Active; 'I' for Inactive)
                            x       y       z     vdW  Elec       q    Type
                         _______ _______ _______ _____ _____    ______ ____

>  <TORSDO>
F 0

$$$$
=
 OpenBabel11112417423D

 28 32  0  0  1  0  0  0  0  0999 V2000
  186.5160  176.7850  143.4470 C   0  0  0  0  0  0  0  0  0  0  0  0
  188.5660  173.9600  143.4610 F   0  0  0  0  0  0  0  0  0  0  0  0
  190.0950  178.1390  148.0130 O   0  0  0  0  0  0  0  0  0  0  0  0
  187.0470  178.2910  141.1370 C   0  0  0  0  0  3  0  0  0  0  0  0
  190.9180  176.2150  146.7840 C   0  0  2  0  0  3  0  0  0  0  0  0
  186.1340  176.0410  144.6880 C   0  0  0  0  0  2  0  0  0  0  0  0
  188.8730  174.7870  141.2730 C   0  0  0  0  0  1  0  0  0  0  0  0
  189.5190  174.5040  142.6160 C   0  0  1  0  0  0  0  0  0  0  0  0
  191.6660  173.3960  143.3150 C   0  0  0  0  0  0  0  0  0  0  0  0
  190.1160  175.8080  143.2100 C   0  0  2  0  0  3  0  0  0  0  0  0
  185.8880  177.9330  148.0130 C   0  0  0  0  0  1  0  0  0  0  0  0
  188.9200  176.1650  145.3100 C   0  0  1  0  0  3  0  0  0  0  0  0
  191.9000  174.3170  144.1970 N   0  0  0  0  0  0  0  0  0  0  0  0
  190.5710  173.5210  142.4100 N   0  0  0  0  0  2  0  0  0  0  0  0
  186.5870  177.2400  146.8620 C   0  0  2  0  0  3  0  0  0  0  0  0
  187.8590  177.1070  143.1060 C   0  0  0  0  0  0  0  0  0  0  0  0
  189.9400  177.2820  147.1030 C   0  0  0  0  0  0  0  0  0  0  0  0
  192.5500  172.2880  143.2020 N   0  0  0  0  0  1  0  0  0  0  0  0
  187.6850  178.0760  146.3950 N   0  0  0  0  0  2  0  0  0  0  0  0
  188.0970  177.8720  141.9540 C   0  0  0  0  0  3  0  0  0  0  0  0
  185.4730  177.2090  142.6120 C   0  0  0  0  0  3  0  0  0  0  0  0
  185.7350  177.9530  141.4620 C   0  0  0  0  0  3  0  0  0  0  0  0
  185.5850  176.9990  145.7400 C   0  0  0  0  0  2  0  0  0  0  0  0
  190.2410  175.4450  145.6380 C   0  0  1  0  0  3  0  0  0  0  0  0
  188.8150  177.2550  146.2550 N   0  0  0  0  0  0  0  0  0  0  0  0
  191.0810  175.5190  144.3690 C   0  0  2  0  0  3  0  0  0  0  0  0
  191.0870  175.2910  147.9760 C   0  0  0  0  0  1  0  0  0  0  0  0
  189.0870  176.7040  143.9000 C   0  0  2  0  0  3  0  0  0  0  0  0
  1  6  1  0  0  0  0
  4 22  2  0  0  0  0
  4 20  1  0  0  0  0
  5 17  1  0  0  0  0
  5 27  1  1  0  0  0
  6 23  1  0  0  0  0
  8  7  1  6  0  0  0
  8 10  1  0  0  0  0
  8  2  1  0  0  0  0
  9 13  2  0  0  0  0
 10 28  1  0  0  0  0
 10 26  1  0  0  0  0
 12 24  1  0  0  0  0
 12 25  1  0  0  0  0
 13 26  1  0  0  0  0
 14  8  1  0  0  0  0
 14  9  1  0  0  0  0
 15 11  1  0  0  0  0
 16  1  1  0  0  0  0
 16 28  1  0  0  0  0
 17  3  2  0  0  0  0
 18  9  1  0  0  0  0
 19 15  1  0  0  0  0
 20 16  2  0  0  0  0
 21  1  2  0  0  0  0
 22 21  1  0  0  0  0
 23 15  1  0  0  0  0
 24  5  1  0  0  0  0
 25 19  1  0  0  0  0
 25 17  1  0  0  0  0
 26 24  1  0  0  0  0
 28 12  1  0  0  0  0
M  END
>  <MODEL>
5

>  <REMARK>
 VINA RESULT:      -7.9      2.540      4.739
  Name = 
  0 active torsions:
  status: ('A' for Active; 'I' for Inactive)
                            x       y       z     vdW  Elec       q    Type
                         _______ _______ _______ _____ _____    ______ ____

>  <TORSDO>
F 0

$$$$
=
 OpenBabel11112417423D

 28 32  0  0  1  0  0  0  0  0999 V2000
  189.0080  176.7290  144.9650 C   0  0  0  0  0  0  0  0  0  0  0  0
  192.4770  176.9860  144.6670 F   0  0  0  0  0  0  0  0  0  0  0  0
  189.9130  173.0810  140.3440 O   0  0  0  0  0  0  0  0  0  0  0  0
  188.3910  175.3730  147.3450 C   0  0  0  0  0  3  0  0  0  0  0  0
  192.0060  173.7040  141.4010 C   0  0  2  0  0  3  0  0  0  0  0  0
  189.2280  177.4900  143.6950 C   0  0  0  0  0  2  0  0  0  0  0  0
  192.2220  176.2380  146.8900 C   0  0  0  0  0  1  0  0  0  0  0  0
  192.7440  175.9150  145.5030 C   0  0  1  0  0  0  0  0  0  0  0  0
  194.9130  174.9830  144.6340 C   0  0  0  0  0  0  0  0  0  0  0  0
  192.0890  174.6120  144.9720 C   0  0  2  0  0  3  0  0  0  0  0  0
  187.3620  176.4270  140.5200 C   0  0  0  0  0  1  0  0  0  0  0  0
  190.8770  175.2760  142.9570 C   0  0  1  0  0  3  0  0  0  0  0  0
  194.2910  174.2020  143.8070 N   0  0  0  0  0  0  0  0  0  0  0  0
  194.1870  175.7480  145.5940 N   0  0  0  0  0  2  0  0  0  0  0  0
  188.4320  176.3510  141.5890 C   0  0  2  0  0  3  0  0  0  0  0  0
  189.6560  175.4990  145.2660 C   0  0  0  0  0  0  0  0  0  0  0  0
  190.5390  173.7600  141.2000 C   0  0  0  0  0  0  0  0  0  0  0  0
  196.3350  175.0240  144.6320 N   0  0  0  0  0  1  0  0  0  0  0  0
  188.5400  174.9770  142.0620 N   0  0  0  0  0  2  0  0  0  0  0  0
  189.3190  174.8340  146.4550 C   0  0  0  0  0  3  0  0  0  0  0  0
  188.0820  177.2600  145.8740 C   0  0  0  0  0  3  0  0  0  0  0  0
  187.7770  176.5900  147.0580 C   0  0  0  0  0  3  0  0  0  0  0  0
  188.0610  177.2820  142.7360 C   0  0  0  0  0  2  0  0  0  0  0  0
  192.2480  174.7290  142.5220 C   0  0  1  0  0  3  0  0  0  0  0  0
  189.9030  174.6440  142.0940 N   0  0  0  0  0  0  0  0  0  0  0  0
  192.8360  174.0510  143.7530 C   0  0  2  0  0  3  0  0  0  0  0  0
  192.7210  174.1610  140.1430 C   0  0  0  0  0  1  0  0  0  0  0  0
  190.6880  174.8140  144.3920 C   0  0  2  0  0  3  0  0  0  0  0  0
  1 16  2  0  0  0  0
  1 21  1  0  0  0  0
  2  8  1  0  0  0  0
  3 17  2  0  0  0  0
  5 27  1  6  0  0  0
  5 24  1  0  0  0  0
  6  1  1  0  0  0  0
  8 14  1  0  0  0  0
  8  7  1  1  0  0  0
  9 14  1  0  0  0  0
 10  8  1  0  0  0  0
 11 15  1  0  0  0  0
 12 28  1  0  0  0  0
 13  9  2  0  0  0  0
 15 19  1  0  0  0  0
 15 23  1  0  0  0  0
 16 20  1  0  0  0  0
 17  5  1  0  0  0  0
 17 25  1  0  0  0  0
 18  9  1  0  0  0  0
 19 25  1  0  0  0  0
 20  4  2  0  0  0  0
 21 22  2  0  0  0  0
 22  4  1  0  0  0  0
 23  6  1  0  0  0  0
 24 12  1  0  0  0  0
 24 26  1  0  0  0  0
 25 12  1  0  0  0  0
 26 13  1  0  0  0  0
 26 10  1  0  0  0  0
 28 10  1  0  0  0  0
 28 16  1  0  0  0  0
M  END
>  <MODEL>
6

>  <REMARK>
 VINA RESULT:      -7.8      2.027      2.979
  Name = 
  0 active torsions:
  status: ('A' for Active; 'I' for Inactive)
                            x       y       z     vdW  Elec       q    Type
                         _______ _______ _______ _____ _____    ______ ____

>  <TORSDO>
F 0

$$$$
=
 OpenBabel11112417423D

 28 32  0  0  1  0  0  0  0  0999 V2000
  188.5310  176.3450  144.8200 C   0  0  0  0  0  0  0  0  0  0  0  0
  188.9390  172.9860  143.9600 F   0  0  0  0  0  0  0  0  0  0  0  0
  194.4140  175.7980  145.5840 O   0  0  0  0  0  0  0  0  0  0  0  0
  187.8410  177.8020  142.5210 C   0  0  0  0  0  3  0  0  0  0  0  0
  193.4830  173.8550  144.4680 C   0  0  2  0  0  3  0  0  0  0  0  0
  188.8590  175.6570  146.1080 C   0  0  0  0  0  2  0  0  0  0  0  0
  187.9540  173.8830  142.0130 C   0  0  0  0  0  1  0  0  0  0  0  0
  189.1850  173.2380  142.6220 C   0  0  1  0  0  0  0  0  0  0  0  0
  190.6970  171.3590  141.9090 C   0  0  0  0  0  0  0  0  0  0  0  0
  190.4190  174.1630  142.4430 C   0  0  2  0  0  3  0  0  0  0  0  0
  191.5660  177.1290  148.3880 C   0  0  0  0  0  1  0  0  0  0  0  0
  191.1580  174.6950  144.7100 C   0  0  1  0  0  3  0  0  0  0  0  0
  191.7540  172.0290  142.2460 N   0  0  0  0  0  0  0  0  0  0  0  0
  189.4090  171.9700  141.9450 N   0  0  0  0  0  2  0  0  0  0  0  0
  191.0220  176.3620  147.2020 C   0  0  2  0  0  3  0  0  0  0  0  0
  189.2980  176.1940  143.6320 C   0  0  0  0  0  0  0  0  0  0  0  0
  193.4110  175.1610  145.1640 C   0  0  0  0  0  0  0  0  0  0  0  0
  190.8300  170.0250  141.4320 N   0  0  0  0  0  1  0  0  0  0  0  0
  191.7160  176.7910  145.9940 N   0  0  0  0  0  2  0  0  0  0  0  0
  188.9420  176.9440  142.5000 C   0  0  0  0  0  3  0  0  0  0  0  0
  187.4250  177.2060  144.8220 C   0  0  0  0  0  3  0  0  0  0  0  0
  187.0790  177.9280  143.6800 C   0  0  0  0  0  3  0  0  0  0  0  0
  189.5270  176.6260  147.0790 C   0  0  0  0  0  2  0  0  0  0  0  0
  192.0070  173.5140  144.2030 C   0  0  1  0  0  3  0  0  0  0  0  0
  192.0910  175.6370  145.2870 N   0  0  0  0  0  0  0  0  0  0  0  0
  191.7350  173.4190  142.7080 C   0  0  2  0  0  3  0  0  0  0  0  0
  194.0810  172.8070  145.3880 C   0  0  0  0  0  1  0  0  0  0  0  0
  190.5050  175.2890  143.4740 C   0  0  2  0  0  3  0  0  0  0  0  0
  1 21  1  0  0  0  0
  1  6  1  0  0  0  0
  4 22  1  0  0  0  0
  5 17  1  0  0  0  0
  5 27  1  1  0  0  0
  6 23  1  0  0  0  0
  8  7  1  6  0  0  0
  8  2  1  0  0  0  0
  9 14  1  0  0  0  0
  9 13  2  0  0  0  0
 10  8  1  0  0  0  0
 10 26  1  0  0  0  0
 10 28  1  0  0  0  0
 12 25  1  0  0  0  0
 13 26  1  0  0  0  0
 14  8  1  0  0  0  0
 15 11  1  0  0  0  0
 16  1  2  0  0  0  0
 17 25  1  0  0  0  0
 17  3  2  0  0  0  0
 18  9  1  0  0  0  0
 19 15  1  0  0  0  0
 20  4  2  0  0  0  0
 20 16  1  0  0  0  0
 22 21  2  0  0  0  0
 23 15  1  0  0  0  0
 24  5  1  0  0  0  0
 24 12  1  0  0  0  0
 25 19  1  0  0  0  0
 26 24  1  0  0  0  0
 28 16  1  0  0  0  0
 28 12  1  0  0  0  0
M  END
>  <MODEL>
7

>  <REMARK>
 VINA RESULT:      -7.6      2.889      5.461
  Name = 
  0 active torsions:
  status: ('A' for Active; 'I' for Inactive)
                            x       y       z     vdW  Elec       q    Type
                         _______ _______ _______ _____ _____    ______ ____

>  <TORSDO>
F 0

$$$$
=
 OpenBabel11112417423D

 28 32  0  0  1  0  0  0  0  0999 V2000
  188.1220  176.4160  145.1660 C   0  0  0  0  0  0  0  0  0  0  0  0
  188.8570  173.4310  143.5110 F   0  0  0  0  0  0  0  0  0  0  0  0
  194.0660  176.7700  145.0050 O   0  0  0  0  0  0  0  0  0  0  0  0
  186.8570  178.1690  143.3740 C   0  0  0  0  0  3  0  0  0  0  0  0
  193.2500  174.9650  143.6030 C   0  0  2  0  0  3  0  0  0  0  0  0
  188.7550  175.5470  146.2060 C   0  0  0  0  0  2  0  0  0  0  0  0
  187.4420  174.5210  141.9680 C   0  0  0  0  0  1  0  0  0  0  0  0
  188.8380  173.9930  142.2450 C   0  0  1  0  0  0  0  0  0  0  0  0
  190.4630  172.5970  140.9270 C   0  0  0  0  0  0  0  0  0  0  0  0
  189.8790  175.1370  142.1240 C   0  0  2  0  0  3  0  0  0  0  0  0
  191.5660  176.9730  148.3880 C   0  0  0  0  0  1  0  0  0  0  0  0
  190.9020  175.3140  144.3350 C   0  0  1  0  0  3  0  0  0  0  0  0
  191.4540  173.3590  141.2670 N   0  0  0  0  0  0  0  0  0  0  0  0
  189.1250  172.9510  141.2710 N   0  0  0  0  0  2  0  0  0  0  0  0
  190.9470  176.3820  147.1390 C   0  0  2  0  0  3  0  0  0  0  0  0
  188.6930  176.6500  143.8840 C   0  0  0  0  0  0  0  0  0  0  0  0
  193.1100  176.0670  144.5840 C   0  0  0  0  0  0  0  0  0  0  0  0
  190.7030  171.4350  140.1440 N   0  0  0  0  0  1  0  0  0  0  0  0
  191.3610  177.1660  145.9820 N   0  0  0  0  0  2  0  0  0  0  0  0
  188.0490  177.5420  143.0120 C   0  0  0  0  0  3  0  0  0  0  0  0
  186.9200  177.0500  145.5110 C   0  0  0  0  0  3  0  0  0  0  0  0
  186.2890  177.9180  144.6210 C   0  0  0  0  0  3  0  0  0  0  0  0
  189.4300  176.3980  147.2780 C   0  0  0  0  0  2  0  0  0  0  0  0
  191.8150  174.4310  143.4640 C   0  0  1  0  0  3  0  0  0  0  0  0
  191.7740  176.2670  144.9860 N   0  0  0  0  0  0  0  0  0  0  0  0
  191.3140  174.5990  142.0350 C   0  0  2  0  0  3  0  0  0  0  0  0
  194.1370  173.8730  144.1710 C   0  0  0  0  0  1  0  0  0  0  0  0
  189.9740  176.0250  143.3660 C   0  0  2  0  0  3  0  0  0  0  0  0
  1 21  1  0  0  0  0
  1  6  1  0  0  0  0
  4 22  1  0  0  0  0
  5 27  1  1  0  0  0
  5 17  1  0  0  0  0
  6 23  1  0  0  0  0
  8  7  1  6  0  0  0
  8  2  1  0  0  0  0
  9 13  2  0  0  0  0
  9 14  1  0  0  0  0
 10  8  1  0  0  0  0
 10 28  1  0  0  0  0
 12 25  1  0  0  0  0
 13 26  1  0  0  0  0
 14  8  1  0  0  0  0
 15 23  1  0  0  0  0
 15 11  1  0  0  0  0
 16  1  2  0  0  0  0
 17 25  1  0  0  0  0
 17  3  2  0  0  0  0
 18  9  1  0  0  0  0
 19 15  1  0  0  0  0
 20  4  2  0  0  0  0
 20 16  1  0  0  0  0
 22 21  2  0  0  0  0
 24  5  1  0  0  0  0
 24 12  1  0  0  0  0
 25 19  1  0  0  0  0
 26 10  1  0  0  0  0
 26 24  1  0  0  0  0
 28 16  1  0  0  0  0
 28 12  1  0  0  0  0
M  END
>  <MODEL>
8

>  <REMARK>
 VINA RESULT:      -7.6      2.678      5.227
  Name = 
  0 active torsions:
  status: ('A' for Active; 'I' for Inactive)
                            x       y       z     vdW  Elec       q    Type
                         _______ _______ _______ _____ _____    ______ ____

>  <TORSDO>
F 0

$$$$
=
 OpenBabel11112417423D

 28 32  0  0  1  0  0  0  0  0999 V2000
  189.3200  176.1790  144.5500 C   0  0  0  0  0  0  0  0  0  0  0  0
  192.8090  176.2230  144.6560 F   0  0  0  0  0  0  0  0  0  0  0  0
  190.5010  171.2280  141.4550 O   0  0  0  0  0  0  0  0  0  0  0  0
  188.3310  175.6670  147.1280 C   0  0  0  0  0  3  0  0  0  0  0  0
  192.4940  172.0910  142.5380 C   0  0  2  0  0  3  0  0  0  0  0  0
  189.7410  176.4920  143.1490 C   0  0  0  0  0  2  0  0  0  0  0  0
  192.2410  176.2260  146.9460 C   0  0  0  0  0  1  0  0  0  0  0  0
  192.8990  175.4640  145.8110 C   0  0  1  0  0  0  0  0  0  0  0  0
  195.0830  174.2400  145.5740 C   0  0  0  0  0  0  0  0  0  0  0  0
  192.2200  174.0810  145.6280 C   0  0  2  0  0  3  0  0  0  0  0  0
  188.1910  174.5340  140.2400 C   0  0  0  0  0  1  0  0  0  0  0  0
  191.3040  174.1090  143.3630 C   0  0  1  0  0  3  0  0  0  0  0  0
  194.5090  173.2560  144.9540 N   0  0  0  0  0  0  0  0  0  0  0  0
  194.3050  175.2910  146.1430 N   0  0  0  0  0  2  0  0  0  0  0  0
  189.1200  174.7680  141.4130 C   0  0  2  0  0  3  0  0  0  0  0  0
  189.8380  175.0890  145.3020 C   0  0  0  0  0  0  0  0  0  0  0  0
  191.0690  172.1250  142.1340 C   0  0  0  0  0  0  0  0  0  0  0  0
  196.4940  174.2350  145.7500 N   0  0  0  0  0  1  0  0  0  0  0  0
  189.0730  173.6120  142.2990 N   0  0  0  0  0  2  0  0  0  0  0  0
  189.3170  174.8450  146.5820 C   0  0  0  0  0  3  0  0  0  0  0  0
  188.3330  176.9990  145.1160 C   0  0  0  0  0  3  0  0  0  0  0  0
  187.8430  176.7480  146.3970 C   0  0  0  0  0  3  0  0  0  0  0  0
  188.6830  176.0250  142.1540 C   0  0  0  0  0  2  0  0  0  0  0  0
  192.6750  173.4100  143.3070 C   0  0  1  0  0  3  0  0  0  0  0  0
  190.3960  173.2660  142.6160 N   0  0  0  0  0  0  0  0  0  0  0  0
  193.0630  173.1400  144.7550 C   0  0  2  0  0  3  0  0  0  0  0  0
  193.3830  172.1040  141.3080 C   0  0  0  0  0  1  0  0  0  0  0  0
  190.9150  174.1310  144.8310 C   0  0  2  0  0  3  0  0  0  0  0  0
  1 21  2  0  0  0  0
  1 16  1  0  0  0  0
  2  8  1  0  0  0  0
  3 17  2  0  0  0  0
  5 27  1  6  0  0  0
  5 24  1  0  0  0  0
  6  1  1  0  0  0  0
  8 14  1  0  0  0  0
  8  7  1  1  0  0  0
  9 18  1  0  0  0  0
  9 14  1  0  0  0  0
 10  8  1  0  0  0  0
 11 15  1  0  0  0  0
 12 28  1  0  0  0  0
 13  9  2  0  0  0  0
 15 23  1  0  0  0  0
 15 19  1  0  0  0  0
 16 20  2  0  0  0  0
 17  5  1  0  0  0  0
 17 25  1  0  0  0  0
 19 25  1  0  0  0  0
 20  4  1  0  0  0  0
 21 22  1  0  0  0  0
 22  4  2  0  0  0  0
 23  6  1  0  0  0  0
 24 12  1  0  0  0  0
 24 26  1  0  0  0  0
 25 12  1  0  0  0  0
 26 13  1  0  0  0  0
 26 10  1  0  0  0  0
 28 16  1  0  0  0  0
 28 10  1  0  0  0  0
M  END
>  <MODEL>
9

>  <REMARK>
 VINA RESULT:      -7.4      2.423      3.509
  Name = 
  0 active torsions:
  status: ('A' for Active; 'I' for Inactive)
                            x       y       z     vdW  Elec       q    Type
                         _______ _______ _______ _____ _____    ______ ____

>  <TORSDO>
F 0

$$$$
