=
 OpenBabel11112416513D

 31 35  0  0  1  0  0  0  0  0999 V2000
  185.5270  178.6400  146.1180 C   0  0  0  0  0  0  0  0  0  0  0  0
  188.5350  177.2620  144.2360 C   0  0  2  0  0  3  0  0  0  0  0  0
  188.9590  176.0010  144.9780 C   0  0  0  0  0  0  0  0  0  0  0  0
  188.9610  174.6110  146.9760 C   0  0  0  0  0  0  0  0  0  0  0  0
  187.1210  177.6780  144.5600 C   0  0  0  0  0  0  0  0  0  0  0  0
  184.4870  178.3720  145.2260 C   0  0  0  0  0  3  0  0  0  0  0  0
  188.5420  175.7580  146.2970 C   0  0  0  0  0  3  0  0  0  0  0  0
  187.6470  176.2080  142.1880 N   0  0  0  0  0  0  0  0  0  0  0  0
  185.2560  179.2460  147.3370 O   0  0  0  0  0  1  0  0  0  0  0  0
  190.3230  175.3290  143.0750 O   0  0  0  0  0  0  0  0  0  0  0  0
  188.5390  174.3820  148.2410 F   0  0  0  0  0  0  0  0  0  0  0  0
  186.3560  176.8980  142.2790 C   0  0  0  0  0  2  0  0  0  0  0  0
  188.6980  177.1040  142.7060 C   0  0  2  0  0  3  0  0  0  0  0  0
  186.8410  178.2960  145.7860 C   0  0  0  0  0  3  0  0  0  0  0  0
  189.8150  173.7010  146.3480 C   0  0  0  0  0  3  0  0  0  0  0  0
  186.0700  177.4110  143.6620 C   0  0  0  0  0  0  0  0  0  0  0  0
  184.7600  177.7680  143.9950 C   0  0  0  0  0  3  0  0  0  0  0  0
  190.1110  176.5750  142.4180 C   0  0  0  0  0  2  0  0  0  0  0  0
  189.8520  175.0950  144.3690 C   0  0  0  0  0  0  0  0  0  0  0  0
  190.2600  173.9440  145.0480 C   0  0  0  0  0  3  0  0  0  0  0  0
  187.8580  175.9680  140.7650 C   0  0  0  0  0  2  0  0  0  0  0  0
  187.9650  173.7160  141.5090 O   0  0  0  0  0  0  0  0  0  0  0  0
  188.0660  174.5060  140.5320 C   0  0  0  0  0  0  0  0  0  0  0  0
  189.2130  172.9190  136.7430 N   0  0  0  0  0  0  0  0  0  0  0  0
  189.1850  172.7310  139.1750 C   0  0  0  0  0  2  0  0  0  0  0  0
  187.1760  175.5250  137.9950 O   0  0  0  0  0  0  0  0  0  0  0  0
  190.0590  172.7290  135.5800 C   0  0  0  0  0  1  0  0  0  0  0  0
  190.0450  172.6590  137.9150 C   0  0  0  0  0  2  0  0  0  0  0  0
  188.0910  174.6600  138.0170 C   0  0  0  0  0  0  0  0  0  0  0  0
  188.4700  174.0080  139.2440 N   0  0  0  0  0  0  0  0  0  0  0  0
  188.8230  174.3270  136.7530 C   0  0  0  0  0  2  0  0  0  0  0  0
  1  9  1  0  0  0  0
  2  5  1  6  0  0  0
  2  3  1  0  0  0  0
  3  7  1  0  0  0  0
  4 11  1  0  0  0  0
  5 14  2  0  0  0  0
  6  1  2  0  0  0  0
  7  4  2  0  0  0  0
  8 12  1  0  0  0  0
  8 13  1  0  0  0  0
 10 19  1  0  0  0  0
 12 16  1  0  0  0  0
 13 18  1  1  0  0  0
 13  2  1  0  0  0  0
 14  1  1  0  0  0  0
 15  4  1  0  0  0  0
 16 17  2  0  0  0  0
 16  5  1  0  0  0  0
 17  6  1  0  0  0  0
 18 10  1  0  0  0  0
 19  3  2  0  0  0  0
 19 20  1  0  0  0  0
 20 15  2  0  0  0  0
 21  8  1  0  0  0  0
 23 21  1  0  0  0  0
 23 22  2  0  0  0  0
 24 31  1  0  0  0  0
 24 28  1  0  0  0  0
 25 30  1  0  0  0  0
 26 29  2  0  0  0  0
 27 24  1  0  0  0  0
 28 25  1  0  0  0  0
 29 30  1  0  0  0  0
 30 23  1  0  0  0  0
 31 29  1  0  0  0  0
M  END
>  <MODEL>
1

>  <REMARK>
 VINA RESULT:      -8.3      0.000      0.000
  Name = 
  2 active torsions:
  status: ('A' for Active; 'I' for Inactive)
    1  A    between atoms: C_5  and  C_16
    2  A    between atoms: N_10  and  C_16
                            x       y       z     vdW  Elec       q    Type
                         _______ _______ _______ _____ _____    ______ ____

>  <TORSDO>
F 2

$$$$
=
 OpenBabel11112416513D

 31 35  0  0  1  0  0  0  0  0999 V2000
  185.4330  178.0180  147.1210 C   0  0  0  0  0  0  0  0  0  0  0  0
  187.8040  175.6830  145.2730 C   0  0  2  0  0  3  0  0  0  0  0  0
  187.6880  176.0420  143.7970 C   0  0  0  0  0  0  0  0  0  0  0  0
  186.4850  177.0710  141.9490 C   0  0  0  0  0  0  0  0  0  0  0  0
  187.2950  176.7790  146.1780 C   0  0  0  0  0  0  0  0  0  0  0  0
  186.3260  178.8680  147.7770 C   0  0  0  0  0  3  0  0  0  0  0  0
  186.5930  176.7720  143.3090 C   0  0  0  0  0  3  0  0  0  0  0  0
  190.0810  176.5380  145.6880 N   0  0  0  0  0  0  0  0  0  0  0  0
  184.0650  178.2110  147.2570 O   0  0  0  0  0  1  0  0  0  0  0  0
  189.7300  174.8010  143.3260 O   0  0  0  0  0  0  0  0  0  0  0  0
  185.4310  177.7890  141.4950 F   0  0  0  0  0  0  0  0  0  0  0  0
  189.6680  177.3560  146.8340 C   0  0  0  0  0  2  0  0  0  0  0  0
  189.2560  175.3160  145.6580 C   0  0  2  0  0  3  0  0  0  0  0  0
  185.9160  176.9750  146.3260 C   0  0  0  0  0  3  0  0  0  0  0  0
  187.4650  176.6290  141.0570 C   0  0  0  0  0  3  0  0  0  0  0  0
  188.1930  177.6360  146.8420 C   0  0  0  0  0  0  0  0  0  0  0  0
  187.7030  178.6710  147.6460 C   0  0  0  0  0  3  0  0  0  0  0  0
  189.7800  174.2810  144.6520 C   0  0  0  0  0  2  0  0  0  0  0  0
  188.6520  175.5690  142.8820 C   0  0  0  0  0  0  0  0  0  0  0  0
  188.5460  175.8780  141.5240 C   0  0  0  0  0  3  0  0  0  0  0  0
  191.4750  176.1890  145.9440 C   0  0  0  0  0  2  0  0  0  0  0  0
  191.8000  177.3570  143.9030 O   0  0  0  0  0  0  0  0  0  0  0  0
  192.3180  176.6260  144.7890 C   0  0  0  0  0  0  0  0  0  0  0  0
  196.3400  175.3120  144.2500 N   0  0  0  0  0  0  0  0  0  0  0  0
  194.2490  176.1210  143.2870 C   0  0  0  0  0  2  0  0  0  0  0  0
  194.1900  176.1720  146.9240 O   0  0  0  0  0  0  0  0  0  0  0  0
  197.4130  174.3580  144.0450 C   0  0  0  0  0  1  0  0  0  0  0  0
  195.3560  175.0720  143.1980 C   0  0  0  0  0  2  0  0  0  0  0  0
  194.4970  175.8120  145.7570 C   0  0  0  0  0  0  0  0  0  0  0  0
  193.6650  176.1480  144.6300 N   0  0  0  0  0  0  0  0  0  0  0  0
  195.7310  174.9900  145.5390 C   0  0  0  0  0  2  0  0  0  0  0  0
  1  9  1  0  0  0  0
  1  6  1  0  0  0  0
  2  3  1  6  0  0  0
  2 13  1  0  0  0  0
  2  5  1  0  0  0  0
  4  7  2  0  0  0  0
  5 14  1  0  0  0  0
  5 16  2  0  0  0  0
  7  3  1  0  0  0  0
  8 21  1  0  0  0  0
  8 12  1  0  0  0  0
 10 18  1  0  0  0  0
 11  4  1  0  0  0  0
 12 16  1  0  0  0  0
 13 18  1  6  0  0  0
 13  8  1  0  0  0  0
 14  1  2  0  0  0  0
 15 20  2  0  0  0  0
 15  4  1  0  0  0  0
 16 17  1  0  0  0  0
 17  6  2  0  0  0  0
 19 10  1  0  0  0  0
 19  3  2  0  0  0  0
 20 19  1  0  0  0  0
 22 23  2  0  0  0  0
 23 21  1  0  0  0  0
 24 31  1  0  0  0  0
 25 30  1  0  0  0  0
 27 24  1  0  0  0  0
 28 25  1  0  0  0  0
 28 24  1  0  0  0  0
 29 26  2  0  0  0  0
 30 23  1  0  0  0  0
 30 29  1  0  0  0  0
 31 29  1  0  0  0  0
M  END
>  <MODEL>
2

>  <REMARK>
 VINA RESULT:      -8.2      3.811      6.249
  Name = 
  2 active torsions:
  status: ('A' for Active; 'I' for Inactive)
    1  A    between atoms: C_5  and  C_16
    2  A    between atoms: N_10  and  C_16
                            x       y       z     vdW  Elec       q    Type
                         _______ _______ _______ _____ _____    ______ ____

>  <TORSDO>
F 2

$$$$
=
 OpenBabel11112416513D

 31 35  0  0  1  0  0  0  0  0999 V2000
  185.3490  178.9250  143.5560 C   0  0  0  0  0  0  0  0  0  0  0  0
  188.7960  177.3230  143.7550 C   0  0  2  0  0  3  0  0  0  0  0  0
  188.7900  176.4570  145.0090 C   0  0  0  0  0  0  0  0  0  0  0  0
  187.8540  175.8610  147.1750 C   0  0  0  0  0  0  0  0  0  0  0  0
  187.4050  177.6640  143.2800 C   0  0  0  0  0  0  0  0  0  0  0  0
  184.7840  178.2470  142.4740 C   0  0  0  0  0  3  0  0  0  0  0  0
  187.8320  176.6440  146.0180 C   0  0  0  0  0  3  0  0  0  0  0  0
  188.8240  175.5290  142.0610 N   0  0  0  0  0  0  0  0  0  0  0  0
  184.6100  179.8830  144.2360 O   0  0  0  0  0  1  0  0  0  0  0  0
  190.8030  175.3200  144.2440 O   0  0  0  0  0  0  0  0  0  0  0  0
  186.9150  176.0420  148.1330 F   0  0  0  0  0  0  0  0  0  0  0  0
  187.6590  176.0570  141.3440 C   0  0  0  0  0  2  0  0  0  0  0  0
  189.5950  176.6600  142.6090 C   0  0  2  0  0  3  0  0  0  0  0  0
  186.6560  178.6360  143.9570 C   0  0  0  0  0  3  0  0  0  0  0  0
  188.8450  174.8910  147.3420 C   0  0  0  0  0  3  0  0  0  0  0  0
  186.8330  176.9840  142.1880 C   0  0  0  0  0  0  0  0  0  0  0  0
  185.5280  177.2870  141.7840 C   0  0  0  0  0  3  0  0  0  0  0  0
  190.9630  176.2270  143.1560 C   0  0  0  0  0  2  0  0  0  0  0  0
  189.8080  175.5010  145.2060 C   0  0  0  0  0  0  0  0  0  0  0  0
  189.8200  174.7130  146.3600 C   0  0  0  0  0  3  0  0  0  0  0  0
  189.6170  174.8310  141.0540 C   0  0  0  0  0  2  0  0  0  0  0  0
  189.6410  172.9900  142.5510 O   0  0  0  0  0  0  0  0  0  0  0  0
  189.6190  173.3660  141.3480 C   0  0  0  0  0  0  0  0  0  0  0  0
  189.7950  170.4030  138.2850 N   0  0  0  0  0  0  0  0  0  0  0  0
  190.2470  171.0700  140.5880 C   0  0  0  0  0  2  0  0  0  0  0  0
  188.3380  173.5870  138.7840 O   0  0  0  0  0  0  0  0  0  0  0  0
  190.3590  169.6840  137.1590 C   0  0  0  0  0  1  0  0  0  0  0  0
  190.8170  170.4240  139.3270 C   0  0  0  0  0  2  0  0  0  0  0  0
  189.1440  172.6400  138.9830 C   0  0  0  0  0  0  0  0  0  0  0  0
  189.6980  172.3950  140.2900 N   0  0  0  0  0  0  0  0  0  0  0  0
  189.5620  171.7730  137.8350 C   0  0  0  0  0  2  0  0  0  0  0  0
  1 14  1  0  0  0  0
  1  9  1  0  0  0  0
  2  5  1  6  0  0  0
  2  3  1  0  0  0  0
  3 19  2  0  0  0  0
  3  7  1  0  0  0  0
  4 15  1  0  0  0  0
  4 11  1  0  0  0  0
  5 14  2  0  0  0  0
  6  1  2  0  0  0  0
  7  4  2  0  0  0  0
  8 13  1  0  0  0  0
 10 19  1  0  0  0  0
 12  8  1  0  0  0  0
 12 16  1  0  0  0  0
 13 18  1  1  0  0  0
 13  2  1  0  0  0  0
 16  5  1  0  0  0  0
 17 16  2  0  0  0  0
 17  6  1  0  0  0  0
 18 10  1  0  0  0  0
 19 20  1  0  0  0  0
 20 15  2  0  0  0  0
 21 23  1  0  0  0  0
 21  8  1  0  0  0  0
 23 22  2  0  0  0  0
 24 28  1  0  0  0  0
 26 29  2  0  0  0  0
 27 24  1  0  0  0  0
 28 25  1  0  0  0  0
 29 30  1  0  0  0  0
 30 25  1  0  0  0  0
 30 23  1  0  0  0  0
 31 24  1  0  0  0  0
 31 29  1  0  0  0  0
M  END
>  <MODEL>
3

>  <REMARK>
 VINA RESULT:      -8.1      1.749      2.107
  Name = 
  2 active torsions:
  status: ('A' for Active; 'I' for Inactive)
    1  A    between atoms: C_5  and  C_16
    2  A    between atoms: N_10  and  C_16
                            x       y       z     vdW  Elec       q    Type
                         _______ _______ _______ _____ _____    ______ ____

>  <TORSDO>
F 2

$$$$
=
 OpenBabel11112416513D

 31 35  0  0  1  0  0  0  0  0999 V2000
  185.4070  179.0880  143.5650 C   0  0  0  0  0  0  0  0  0  0  0  0
  188.7600  177.2870  143.6220 C   0  0  2  0  0  3  0  0  0  0  0  0
  188.7570  176.4250  144.8780 C   0  0  0  0  0  0  0  0  0  0  0  0
  187.8830  175.8900  147.0860 C   0  0  0  0  0  0  0  0  0  0  0  0
  187.3720  177.7090  143.2060 C   0  0  0  0  0  0  0  0  0  0  0  0
  184.7570  178.4430  142.5110 C   0  0  0  0  0  3  0  0  0  0  0  0
  187.8570  176.6710  145.9270 C   0  0  0  0  0  3  0  0  0  0  0  0
  188.6090  175.4900  141.9370 N   0  0  0  0  0  0  0  0  0  0  0  0
  184.7570  180.0900  144.2720 O   0  0  0  0  0  1  0  0  0  0  0  0
  190.6650  175.1700  144.0320 O   0  0  0  0  0  0  0  0  0  0  0  0
  186.9990  176.1280  148.0830 F   0  0  0  0  0  0  0  0  0  0  0  0
  187.4470  176.0850  141.2680 C   0  0  0  0  0  2  0  0  0  0  0  0
  189.4680  176.5760  142.4460 C   0  0  2  0  0  3  0  0  0  0  0  0
  186.7120  178.7240  143.9100 C   0  0  0  0  0  3  0  0  0  0  0  0
  188.8220  174.8640  147.2150 C   0  0  0  0  0  3  0  0  0  0  0  0
  186.7140  177.0610  142.1420 C   0  0  0  0  0  0  0  0  0  0  0  0
  185.4130  177.4390  141.7940 C   0  0  0  0  0  3  0  0  0  0  0  0
  190.8300  176.0630  142.9340 C   0  0  0  0  0  2  0  0  0  0  0  0
  189.7250  175.4110  145.0360 C   0  0  0  0  0  0  0  0  0  0  0  0
  189.7410  174.6260  146.1920 C   0  0  0  0  0  3  0  0  0  0  0  0
  189.3140  174.7450  140.8990 C   0  0  0  0  0  2  0  0  0  0  0  0
  188.1700  172.6860  141.1900 O   0  0  0  0  0  0  0  0  0  0  0  0
  189.2780  173.2860  141.2210 C   0  0  0  0  0  0  0  0  0  0  0  0
  192.7320  171.1170  142.4680 N   0  0  0  0  0  0  0  0  0  0  0  0
  190.3060  171.3820  142.4700 C   0  0  0  0  0  2  0  0  0  0  0  0
  191.9410  173.7450  140.2370 O   0  0  0  0  0  0  0  0  0  0  0  0
  193.8570  170.7800  143.3190 C   0  0  0  0  0  1  0  0  0  0  0  0
  191.5500  171.1440  143.3250 C   0  0  0  0  0  2  0  0  0  0  0  0
  191.7780  172.9730  141.2190 C   0  0  0  0  0  0  0  0  0  0  0  0
  190.4600  172.5910  141.6560 N   0  0  0  0  0  0  0  0  0  0  0  0
  192.9740  172.4680  141.9670 C   0  0  0  0  0  2  0  0  0  0  0  0
  1 14  1  0  0  0  0
  1  9  1  0  0  0  0
  2  5  1  6  0  0  0
  2  3  1  0  0  0  0
  3 19  2  0  0  0  0
  3  7  1  0  0  0  0
  4 15  1  0  0  0  0
  4 11  1  0  0  0  0
  5 14  2  0  0  0  0
  6  1  2  0  0  0  0
  7  4  2  0  0  0  0
  8 13  1  0  0  0  0
 10 19  1  0  0  0  0
 12  8  1  0  0  0  0
 12 16  1  0  0  0  0
 13 18  1  1  0  0  0
 13  2  1  0  0  0  0
 16  5  1  0  0  0  0
 17 16  2  0  0  0  0
 17  6  1  0  0  0  0
 18 10  1  0  0  0  0
 19 20  1  0  0  0  0
 20 15  2  0  0  0  0
 21 23  1  0  0  0  0
 21  8  1  0  0  0  0
 22 23  2  0  0  0  0
 23 30  1  0  0  0  0
 24 27  1  0  0  0  0
 24 28  1  0  0  0  0
 25 28  1  0  0  0  0
 26 29  2  0  0  0  0
 29 30  1  0  0  0  0
 29 31  1  0  0  0  0
 30 25  1  0  0  0  0
 31 24  1  0  0  0  0
M  END
>  <MODEL>
4

>  <REMARK>
 VINA RESULT:      -8.0      2.443      3.416
  Name = 
  2 active torsions:
  status: ('A' for Active; 'I' for Inactive)
    1  A    between atoms: C_5  and  C_16
    2  A    between atoms: N_10  and  C_16
                            x       y       z     vdW  Elec       q    Type
                         _______ _______ _______ _____ _____    ______ ____

>  <TORSDO>
F 2

$$$$
=
 OpenBabel11112416513D

 31 35  0  0  1  0  0  0  0  0999 V2000
  185.7130  177.4350  146.6090 C   0  0  0  0  0  0  0  0  0  0  0  0
  187.1220  175.7210  143.5160 C   0  0  2  0  0  3  0  0  0  0  0  0
  186.6570  176.5480  142.3240 C   0  0  0  0  0  0  0  0  0  0  0  0
  185.1530  178.1810  141.3280 C   0  0  0  0  0  0  0  0  0  0  0  0
  187.0450  176.4840  144.8160 C   0  0  0  0  0  0  0  0  0  0  0  0
  186.8650  177.9800  147.1800 C   0  0  0  0  0  3  0  0  0  0  0  0
  185.5870  177.4490  142.4360 C   0  0  0  0  0  3  0  0  0  0  0  0
  189.5240  176.2830  143.4470 N   0  0  0  0  0  0  0  0  0  0  0  0
  184.4780  177.6390  147.2090 O   0  0  0  0  0  1  0  0  0  0  0  0
  188.2900  175.4310  140.9020 O   0  0  0  0  0  0  0  0  0  0  0  0
  184.1300  179.0580  141.4540 F   0  0  0  0  0  0  0  0  0  0  0  0
  189.5640  176.7000  144.8530 C   0  0  0  0  0  2  0  0  0  0  0  0
  188.5550  175.1790  143.3090 C   0  0  2  0  0  3  0  0  0  0  0  0
  185.8030  176.6880  145.4310 C   0  0  0  0  0  3  0  0  0  0  0  0
  185.7760  178.0080  140.0900 C   0  0  0  0  0  3  0  0  0  0  0  0
  188.2040  177.0330  145.3960 C   0  0  0  0  0  0  0  0  0  0  0  0
  188.1100  177.7700  146.5810 C   0  0  0  0  0  3  0  0  0  0  0  0
  188.6280  174.5050  141.9320 C   0  0  0  0  0  2  0  0  0  0  0  0
  187.2530  176.3530  141.0600 C   0  0  0  0  0  0  0  0  0  0  0  0
  186.8240  177.0950  139.9570 C   0  0  0  0  0  3  0  0  0  0  0  0
  190.8680  175.8020  143.1470 C   0  0  0  0  0  2  0  0  0  0  0  0
  191.7590  177.8500  143.9510 O   0  0  0  0  0  0  0  0  0  0  0  0
  191.8670  176.5950  143.9270 C   0  0  0  0  0  0  0  0  0  0  0  0
  195.2050  174.8010  145.8840 N   0  0  0  0  0  0  0  0  0  0  0  0
  194.1970  176.7490  144.8150 C   0  0  0  0  0  2  0  0  0  0  0  0
  191.8220  174.0210  145.2090 O   0  0  0  0  0  0  0  0  0  0  0  0
  196.4440  174.0520  145.9880 C   0  0  0  0  0  1  0  0  0  0  0  0
  195.4290  175.8490  144.8920 C   0  0  0  0  0  2  0  0  0  0  0  0
  192.9270  174.6070  145.0570 C   0  0  0  0  0  0  0  0  0  0  0  0
  192.9910  175.9570  144.5590 N   0  0  0  0  0  0  0  0  0  0  0  0
  194.1980  173.8780  145.3660 C   0  0  0  0  0  2  0  0  0  0  0  0
  1  6  1  0  0  0  0
  1  9  1  0  0  0  0
  2  3  1  6  0  0  0
  2  5  1  0  0  0  0
  3  7  1  0  0  0  0
  4 11  1  0  0  0  0
  4  7  2  0  0  0  0
  5 16  2  0  0  0  0
  5 14  1  0  0  0  0
  8 12  1  0  0  0  0
 10 19  1  0  0  0  0
 10 18  1  0  0  0  0
 12 16  1  0  0  0  0
 13 18  1  6  0  0  0
 13  8  1  0  0  0  0
 13  2  1  0  0  0  0
 14  1  2  0  0  0  0
 15  4  1  0  0  0  0
 16 17  1  0  0  0  0
 17  6  2  0  0  0  0
 19  3  2  0  0  0  0
 20 15  2  0  0  0  0
 20 19  1  0  0  0  0
 21  8  1  0  0  0  0
 21 23  1  0  0  0  0
 23 22  2  0  0  0  0
 23 30  1  0  0  0  0
 24 27  1  0  0  0  0
 25 28  1  0  0  0  0
 28 24  1  0  0  0  0
 29 26  2  0  0  0  0
 29 31  1  0  0  0  0
 30 25  1  0  0  0  0
 30 29  1  0  0  0  0
 31 24  1  0  0  0  0
M  END
>  <MODEL>
5

>  <REMARK>
 VINA RESULT:      -7.7      3.513      6.326
  Name = 
  2 active torsions:
  status: ('A' for Active; 'I' for Inactive)
    1  A    between atoms: C_5  and  C_16
    2  A    between atoms: N_10  and  C_16
                            x       y       z     vdW  Elec       q    Type
                         _______ _______ _______ _____ _____    ______ ____

>  <TORSDO>
F 2

$$$$
=
 OpenBabel11112416513D

 31 35  0  0  1  0  0  0  0  0999 V2000
  187.1530  177.2470  140.8440 C   0  0  0  0  0  0  0  0  0  0  0  0
  188.3830  177.7280  144.4140 C   0  0  2  0  0  3  0  0  0  0  0  0
  187.1360  177.8790  145.2760 C   0  0  0  0  0  0  0  0  0  0  0  0
  184.7630  178.3660  145.5130 C   0  0  0  0  0  0  0  0  0  0  0  0
  188.0900  177.0900  143.0780 C   0  0  0  0  0  0  0  0  0  0  0  0
  187.4490  175.9010  140.6210 C   0  0  0  0  0  3  0  0  0  0  0  0
  185.8930  178.2030  144.7080 C   0  0  0  0  0  3  0  0  0  0  0  0
  189.1120  175.5050  145.2000 N   0  0  0  0  0  0  0  0  0  0  0  0
  186.5360  177.9960  139.8510 O   0  0  0  0  0  1  0  0  0  0  0  0
  188.4650  177.4980  147.2810 O   0  0  0  0  0  0  0  0  0  0  0  0
  183.5680  178.6640  144.9500 F   0  0  0  0  0  0  0  0  0  0  0  0
  189.1910  174.9470  143.8460 C   0  0  0  0  0  2  0  0  0  0  0  0
  189.4870  176.9300  145.1460 C   0  0  2  0  0  3  0  0  0  0  0  0
  187.4740  177.8410  142.0680 C   0  0  0  0  0  3  0  0  0  0  0  0
  184.8660  178.2220  146.8980 C   0  0  0  0  0  3  0  0  0  0  0  0
  188.3890  175.7340  142.8490 C   0  0  0  0  0  0  0  0  0  0  0  0
  188.0760  175.1490  141.6170 C   0  0  0  0  0  3  0  0  0  0  0  0
  189.6830  177.5370  146.5430 C   0  0  0  0  0  2  0  0  0  0  0  0
  187.2360  177.7740  146.6790 C   0  0  0  0  0  0  0  0  0  0  0  0
  186.1010  177.9280  147.4790 C   0  0  0  0  0  3  0  0  0  0  0  0
  190.0950  174.7630  145.9830 C   0  0  0  0  0  2  0  0  0  0  0  0
  189.8050  172.7280  144.7960 O   0  0  0  0  0  0  0  0  0  0  0  0
  190.6140  173.6180  145.1750 C   0  0  0  0  0  0  0  0  0  0  0  0
  194.7560  173.1110  144.2940 N   0  0  0  0  0  0  0  0  0  0  0  0
  192.5480  172.1310  144.6350 C   0  0  0  0  0  2  0  0  0  0  0  0
  192.4470  175.7680  144.6440 O   0  0  0  0  0  0  0  0  0  0  0  0
  196.1640  172.9140  144.5820 C   0  0  0  0  0  1  0  0  0  0  0  0
  194.0320  172.0500  144.9880 C   0  0  0  0  0  2  0  0  0  0  0  0
  192.9020  174.6030  144.7940 C   0  0  0  0  0  0  0  0  0  0  0  0
  192.0200  173.4700  144.9130 N   0  0  0  0  0  0  0  0  0  0  0  0
  194.3820  174.3940  144.8860 C   0  0  0  0  0  2  0  0  0  0  0  0
  1 14  1  0  0  0  0
  2  5  1  6  0  0  0
  2 13  1  0  0  0  0
  2  3  1  0  0  0  0
  3 19  1  0  0  0  0
  4 15  2  0  0  0  0
  6  1  2  0  0  0  0
  6 17  1  0  0  0  0
  7  3  2  0  0  0  0
  7  4  1  0  0  0  0
  8 21  1  0  0  0  0
  9  1  1  0  0  0  0
 11  4  1  0  0  0  0
 12  8  1  0  0  0  0
 13  8  1  0  0  0  0
 13 18  1  1  0  0  0
 14  5  2  0  0  0  0
 15 20  1  0  0  0  0
 16  5  1  0  0  0  0
 16 12  1  0  0  0  0
 17 16  2  0  0  0  0
 18 10  1  0  0  0  0
 19 10  1  0  0  0  0
 19 20  2  0  0  0  0
 22 23  2  0  0  0  0
 23 21  1  0  0  0  0
 24 27  1  0  0  0  0
 24 31  1  0  0  0  0
 24 28  1  0  0  0  0
 25 30  1  0  0  0  0
 25 28  1  0  0  0  0
 26 29  2  0  0  0  0
 29 31  1  0  0  0  0
 29 30  1  0  0  0  0
 30 23  1  0  0  0  0
M  END
>  <MODEL>
6

>  <REMARK>
 VINA RESULT:      -7.7      3.386      6.074
  Name = 
  2 active torsions:
  status: ('A' for Active; 'I' for Inactive)
    1  A    between atoms: C_5  and  C_16
    2  A    between atoms: N_10  and  C_16
                            x       y       z     vdW  Elec       q    Type
                         _______ _______ _______ _____ _____    ______ ____

>  <TORSDO>
F 2

$$$$
=
 OpenBabel11112416513D

 31 35  0  0  1  0  0  0  0  0999 V2000
  193.6490  170.7600  144.4900 C   0  0  0  0  0  0  0  0  0  0  0  0
  194.1800  174.2990  145.7850 C   0  0  2  0  0  3  0  0  0  0  0  0
  195.0840  174.9910  144.7720 C   0  0  0  0  0  0  0  0  0  0  0  0
  196.6920  174.8980  142.9480 C   0  0  0  0  0  0  0  0  0  0  0  0
  193.5110  173.0700  145.2200 C   0  0  0  0  0  0  0  0  0  0  0  0
  192.3140  170.8040  144.0850 C   0  0  0  0  0  3  0  0  0  0  0  0
  195.8460  174.2520  143.8530 C   0  0  0  0  0  3  0  0  0  0  0  0
  192.0910  175.5270  145.3210 N   0  0  0  0  0  0  0  0  0  0  0  0
  194.3860  169.5950  144.3260 O   0  0  0  0  0  1  0  0  0  0  0  0
  194.5200  177.1570  145.7330 O   0  0  0  0  0  0  0  0  0  0  0  0
  197.4100  174.1730  142.0570 F   0  0  0  0  0  0  0  0  0  0  0  0
  191.3060  174.3050  145.1180 C   0  0  0  0  0  2  0  0  0  0  0  0
  193.1150  175.2660  146.3500 C   0  0  2  0  0  3  0  0  0  0  0  0
  194.2460  171.8890  145.0580 C   0  0  0  0  0  3  0  0  0  0  0  0
  196.7970  176.2900  142.9610 C   0  0  0  0  0  3  0  0  0  0  0  0
  192.1640  173.1110  144.8130 C   0  0  0  0  0  0  0  0  0  0  0  0
  191.5690  171.9740  144.2560 C   0  0  0  0  0  3  0  0  0  0  0  0
  193.8170  176.5500  146.8150 C   0  0  0  0  0  2  0  0  0  0  0  0
  195.2280  176.3940  144.8020 C   0  0  0  0  0  0  0  0  0  0  0  0
  196.0670  177.0360  143.8880 C   0  0  0  0  0  3  0  0  0  0  0  0
  191.1410  176.5220  145.8080 C   0  0  0  0  0  2  0  0  0  0  0  0
  190.4370  176.8780  143.5690 O   0  0  0  0  0  0  0  0  0  0  0  0
  190.0870  176.7530  144.7730 C   0  0  0  0  0  0  0  0  0  0  0  0
  185.9660  177.2400  145.7570 N   0  0  0  0  0  0  0  0  0  0  0  0
  187.8290  177.6810  144.2440 C   0  0  0  0  0  2  0  0  0  0  0  0
  188.7340  175.3510  146.8880 O   0  0  0  0  0  0  0  0  0  0  0  0
  184.8080  177.8590  146.3740 C   0  0  0  0  0  1  0  0  0  0  0  0
  186.6580  178.2890  145.0140 C   0  0  0  0  0  2  0  0  0  0  0  0
  188.1390  176.2950  146.3040 C   0  0  0  0  0  0  0  0  0  0  0  0
  188.7090  176.9310  145.1440 N   0  0  0  0  0  0  0  0  0  0  0  0
  186.8320  176.7900  146.8440 C   0  0  0  0  0  2  0  0  0  0  0  0
  1 14  1  0  0  0  0
  2  3  1  6  0  0  0
  2 13  1  0  0  0  0
  3 19  1  0  0  0  0
  4 15  2  0  0  0  0
  4  7  1  0  0  0  0
  5  2  1  0  0  0  0
  6 17  1  0  0  0  0
  6  1  2  0  0  0  0
  7  3  2  0  0  0  0
  8 21  1  0  0  0  0
  8 13  1  0  0  0  0
  9  1  1  0  0  0  0
 10 18  1  0  0  0  0
 11  4  1  0  0  0  0
 12  8  1  0  0  0  0
 13 18  1  6  0  0  0
 14  5  2  0  0  0  0
 15 20  1  0  0  0  0
 16 12  1  0  0  0  0
 16  5  1  0  0  0  0
 17 16  2  0  0  0  0
 19 10  1  0  0  0  0
 20 19  2  0  0  0  0
 22 23  2  0  0  0  0
 23 30  1  0  0  0  0
 23 21  1  0  0  0  0
 24 27  1  0  0  0  0
 24 31  1  0  0  0  0
 25 28  1  0  0  0  0
 25 30  1  0  0  0  0
 28 24  1  0  0  0  0
 29 31  1  0  0  0  0
 29 26  2  0  0  0  0
 30 29  1  0  0  0  0
M  END
>  <MODEL>
7

>  <REMARK>
 VINA RESULT:      -7.6      4.762      8.416
  Name = 
  2 active torsions:
  status: ('A' for Active; 'I' for Inactive)
    1  A    between atoms: C_5  and  C_16
    2  A    between atoms: N_10  and  C_16
                            x       y       z     vdW  Elec       q    Type
                         _______ _______ _______ _____ _____    ______ ____

>  <TORSDO>
F 2

$$$$
=
 OpenBabel11112416513D

 31 35  0  0  1  0  0  0  0  0999 V2000
  187.1870  177.9400  142.3700 C   0  0  0  0  0  0  0  0  0  0  0  0
  190.7860  176.9770  143.1530 C   0  0  2  0  0  3  0  0  0  0  0  0
  190.8650  176.8280  144.6670 C   0  0  0  0  0  0  0  0  0  0  0  0
  189.9870  177.2660  146.8940 C   0  0  0  0  0  0  0  0  0  0  0  0
  189.3690  176.9090  142.6370 C   0  0  0  0  0  0  0  0  0  0  0  0
  186.7050  176.7730  141.7750 C   0  0  0  0  0  3  0  0  0  0  0  0
  189.8870  177.3860  145.5050 C   0  0  0  0  0  3  0  0  0  0  0  0
  191.0170  174.6000  142.5320 N   0  0  0  0  0  0  0  0  0  0  0  0
  186.3470  179.0320  142.5380 O   0  0  0  0  0  1  0  0  0  0  0  0
  192.9940  175.6640  144.4500 O   0  0  0  0  0  0  0  0  0  0  0  0
  189.0280  177.7960  147.6890 F   0  0  0  0  0  0  0  0  0  0  0  0
  189.8050  174.6000  141.7040 C   0  0  0  0  0  2  0  0  0  0  0  0
  191.6580  175.9240  142.4310 C   0  0  2  0  0  3  0  0  0  0  0  0
  188.5160  178.0090  142.7980 C   0  0  0  0  0  3  0  0  0  0  0  0
  191.0750  176.6000  147.4600 C   0  0  0  0  0  3  0  0  0  0  0  0
  188.8790  175.7340  142.0350 C   0  0  0  0  0  0  0  0  0  0  0  0
  187.5520  175.6760  141.5980 C   0  0  0  0  0  3  0  0  0  0  0  0
  193.0610  175.9430  143.0540 C   0  0  0  0  0  2  0  0  0  0  0  0
  191.9790  176.1910  145.2520 C   0  0  0  0  0  0  0  0  0  0  0  0
  192.0700  176.0640  146.6400 C   0  0  0  0  0  3  0  0  0  0  0  0
  191.8850  173.5830  141.9480 C   0  0  0  0  0  2  0  0  0  0  0  0
  191.1250  171.7640  143.2710 O   0  0  0  0  0  0  0  0  0  0  0  0
  192.1040  172.4850  142.9390 C   0  0  0  0  0  0  0  0  0  0  0  0
  195.8530  171.8410  144.8680 N   0  0  0  0  0  0  0  0  0  0  0  0
  193.4210  171.6460  144.8900 C   0  0  0  0  0  2  0  0  0  0  0  0
  194.6690  172.8610  141.6950 O   0  0  0  0  0  0  0  0  0  0  0  0
  196.9930  172.1640  145.7050 C   0  0  0  0  0  1  0  0  0  0  0  0
  194.6580  172.0760  145.6750 C   0  0  0  0  0  2  0  0  0  0  0  0
  194.6180  172.6510  142.9360 C   0  0  0  0  0  0  0  0  0  0  0  0
  193.3780  172.3090  143.5840 N   0  0  0  0  0  0  0  0  0  0  0  0
  195.8610  172.7930  143.7610 C   0  0  0  0  0  2  0  0  0  0  0  0
  1  9  1  0  0  0  0
  1 14  1  0  0  0  0
  2  5  1  6  0  0  0
  2  3  1  0  0  0  0
  3 19  2  0  0  0  0
  3  7  1  0  0  0  0
  4 15  1  0  0  0  0
  4 11  1  0  0  0  0
  5 14  2  0  0  0  0
  6  1  2  0  0  0  0
  7  4  2  0  0  0  0
 10 19  1  0  0  0  0
 12 16  1  0  0  0  0
 12  8  1  0  0  0  0
 13  8  1  0  0  0  0
 13 18  1  1  0  0  0
 13  2  1  0  0  0  0
 16  5  1  0  0  0  0
 17  6  1  0  0  0  0
 17 16  2  0  0  0  0
 18 10  1  0  0  0  0
 19 20  1  0  0  0  0
 20 15  2  0  0  0  0
 21  8  1  0  0  0  0
 21 23  1  0  0  0  0
 23 22  2  0  0  0  0
 23 30  1  0  0  0  0
 24 28  1  0  0  0  0
 24 27  1  0  0  0  0
 25 28  1  0  0  0  0
 26 29  2  0  0  0  0
 29 30  1  0  0  0  0
 29 31  1  0  0  0  0
 30 25  1  0  0  0  0
 31 24  1  0  0  0  0
M  END
>  <MODEL>
8

>  <REMARK>
 VINA RESULT:      -7.4      3.884      5.665
  Name = 
  2 active torsions:
  status: ('A' for Active; 'I' for Inactive)
    1  A    between atoms: C_5  and  C_16
    2  A    between atoms: N_10  and  C_16
                            x       y       z     vdW  Elec       q    Type
                         _______ _______ _______ _____ _____    ______ ____

>  <TORSDO>
F 2

$$$$
=
 OpenBabel11112416513D

 31 35  0  0  1  0  0  0  0  0999 V2000
  186.4890  177.8210  140.9920 C   0  0  0  0  0  0  0  0  0  0  0  0
  188.0520  177.9490  144.4600 C   0  0  2  0  0  3  0  0  0  0  0  0
  186.8930  178.0310  145.4450 C   0  0  0  0  0  0  0  0  0  0  0  0
  184.5620  178.5180  145.9470 C   0  0  0  0  0  0  0  0  0  0  0  0
  187.6250  177.4440  143.1030 C   0  0  0  0  0  0  0  0  0  0  0  0
  186.7390  176.4990  140.6170 C   0  0  0  0  0  3  0  0  0  0  0  0
  185.6100  178.4200  145.0280 C   0  0  0  0  0  3  0  0  0  0  0  0
  188.8080  175.6550  144.9640 N   0  0  0  0  0  0  0  0  0  0  0  0
  185.7980  178.6660  140.1340 O   0  0  0  0  0  1  0  0  0  0  0  0
  188.3930  177.4480  147.2730 O   0  0  0  0  0  0  0  0  0  0  0  0
  183.3260  178.8790  145.5280 F   0  0  0  0  0  0  0  0  0  0  0  0
  188.7520  175.2260  143.5620 C   0  0  0  0  0  2  0  0  0  0  0  0
  189.2040  177.0750  145.0080 C   0  0  2  0  0  3  0  0  0  0  0  0
  186.9330  178.2930  142.2300 C   0  0  0  0  0  3  0  0  0  0  0  0
  184.7890  178.2420  147.2970 C   0  0  0  0  0  3  0  0  0  0  0  0
  187.8770  176.1120  142.7220 C   0  0  0  0  0  0  0  0  0  0  0  0
  187.4410  175.6490  141.4760 C   0  0  0  0  0  3  0  0  0  0  0  0
  189.5390  177.5450  146.4310 C   0  0  0  0  0  2  0  0  0  0  0  0
  187.1190  177.7930  146.8170 C   0  0  0  0  0  0  0  0  0  0  0  0
  186.0660  177.8810  147.7300 C   0  0  0  0  0  3  0  0  0  0  0  0
  189.8450  174.8320  145.5780 C   0  0  0  0  0  2  0  0  0  0  0  0
  191.9280  175.5300  144.6790 O   0  0  0  0  0  0  0  0  0  0  0  0
  190.9930  174.6870  144.6320 C   0  0  0  0  0  0  0  0  0  0  0  0
  191.1210  171.6710  141.6190 N   0  0  0  0  0  0  0  0  0  0  0  0
  191.7920  173.8800  142.4060 C   0  0  0  0  0  2  0  0  0  0  0  0
  189.9670  172.0180  144.9440 O   0  0  0  0  0  0  0  0  0  0  0  0
  190.6870  170.9480  140.4380 C   0  0  0  0  0  1  0  0  0  0  0  0
  191.2280  173.0760  141.2370 C   0  0  0  0  0  2  0  0  0  0  0  0
  190.3360  172.4000  143.8020 C   0  0  0  0  0  0  0  0  0  0  0  0
  190.9930  173.6680  143.6160 N   0  0  0  0  0  0  0  0  0  0  0  0
  190.0550  171.5380  142.6090 C   0  0  0  0  0  2  0  0  0  0  0  0
  1 14  1  0  0  0  0
  2  5  1  6  0  0  0
  2 13  1  0  0  0  0
  2  3  1  0  0  0  0
  3 19  1  0  0  0  0
  4 15  2  0  0  0  0
  6  1  2  0  0  0  0
  6 17  1  0  0  0  0
  7  3  2  0  0  0  0
  7  4  1  0  0  0  0
  8 13  1  0  0  0  0
  8 21  1  0  0  0  0
  9  1  1  0  0  0  0
 11  4  1  0  0  0  0
 12  8  1  0  0  0  0
 13 18  1  1  0  0  0
 14  5  2  0  0  0  0
 15 20  1  0  0  0  0
 16  5  1  0  0  0  0
 16 12  1  0  0  0  0
 17 16  2  0  0  0  0
 18 10  1  0  0  0  0
 19 10  1  0  0  0  0
 19 20  2  0  0  0  0
 23 22  2  0  0  0  0
 23 21  1  0  0  0  0
 24 31  1  0  0  0  0
 25 30  1  0  0  0  0
 27 24  1  0  0  0  0
 28 24  1  0  0  0  0
 28 25  1  0  0  0  0
 29 26  2  0  0  0  0
 30 29  1  0  0  0  0
 30 23  1  0  0  0  0
 31 29  1  0  0  0  0
M  END
>  <MODEL>
9

>  <REMARK>
 VINA RESULT:      -7.4      2.987      5.060
  Name = 
  2 active torsions:
  status: ('A' for Active; 'I' for Inactive)
    1  A    between atoms: C_5  and  C_16
    2  A    between atoms: N_10  and  C_16
                            x       y       z     vdW  Elec       q    Type
                         _______ _______ _______ _____ _____    ______ ____

>  <TORSDO>
F 2

$$$$
