=
 OpenBabel11112417333D

 37 43  0  0  1  0  0  0  0  0999 V2000
  190.6750  175.6060  144.7770 C   0  0  1  0  0  3  0  0  0  0  0  0
  188.9820  176.3880  141.9700 O   0  0  0  0  0  0  0  0  0  0  0  0
  191.2300  176.5750  147.1590 C   0  0  2  0  0  3  0  0  0  0  0  0
  189.2830  175.7330  144.2510 C   0  0  2  0  0  3  0  0  0  0  0  0
  190.6820  176.8040  145.7370 C   0  0  2  0  0  3  0  0  0  0  0  0
  189.0730  175.2650  142.8090 C   0  0  2  0  0  3  0  0  0  0  0  0
  191.1710  175.1240  147.6030 C   0  0  0  0  0  2  0  0  0  0  0  0
  189.4050  177.3970  145.7070 O   0  0  0  0  0  0  0  0  0  0  0  0
  191.3220  173.3800  144.3570 C   0  0  0  0  0  2  0  0  0  0  0  0
  191.7250  174.2630  146.4870 C   0  0  0  0  0  2  0  0  0  0  0  0
  186.4960  176.0820  142.4830 C   0  0  0  0  0  2  0  0  0  0  0  0
  187.6290  176.7790  141.7350 C   0  0  1  0  0  3  0  0  0  0  0  0
  190.7810  174.2710  145.3790 N   0  0  1  0  0  0  0  0  0  0  0  0
  188.9440  177.1310  144.4510 N   0  0  2  0  0  0  0  0  0  0  0  0
  190.1150  174.2500  142.3020 C   0  0  1  0  0  3  0  0  0  0  0  0
  186.9580  177.4500  142.9610 C   0  0  2  0  0  3  0  0  0  0  0  0
  187.4830  177.2460  144.4000 C   0  0  2  0  0  3  0  0  0  0  0  0
  190.2890  173.0690  143.2680 C   0  0  0  0  0  2  0  0  0  0  0  0
  188.4680  173.2490  140.7120 C   0  0  0  0  0  3  0  0  0  0  0  0
  189.7540  173.7520  140.9370 C   0  0  0  0  0  0  0  0  0  0  0  0
  190.6840  173.7730  139.8860 C   0  0  0  0  0  3  0  0  0  0  0  0
  191.2710  173.3180  137.5600 N   0  0  0  0  0  1  0  0  0  0  0  0
  189.0400  172.7940  138.4030 C   0  0  0  0  0  3  0  0  0  0  0  0
  190.3260  173.2950  138.6230 C   0  0  0  0  0  0  0  0  0  0  0  0
  188.1110  172.7710  139.4480 C   0  0  0  0  0  3  0  0  0  0  0  0
  186.9770  178.4080  145.2520 C   0  0  0  0  0  2  0  0  0  0  0  0
  185.7020  178.0200  145.9870 C   0  0  0  0  0  0  0  0  0  0  0  0
  185.5340  176.5400  146.2370 C   0  0  0  0  0  2  0  0  0  0  0  0
  185.9030  177.4760  147.3810 C   0  0  0  0  0  2  0  0  0  0  0  0
  184.4080  178.8010  145.7860 C   0  0  0  0  0  2  0  0  0  0  0  0
  184.3610  179.4690  144.4200 C   0  0  0  0  0  2  0  0  0  0  0  0
  183.7650  178.6180  143.4890 O   0  0  0  0  0  1  0  0  0  0  0  0
  190.5770  177.3940  148.0970 O   0  0  0  0  0  0  0  0  0  0  0  0
  191.5190  177.7870  149.0690 C   0  0  0  0  0  0  0  0  0  0  0  0
  191.5170  176.9080  150.1430 F   0  0  0  0  0  0  0  0  0  0  0  0
  192.7920  177.8590  148.5230 F   0  0  0  0  0  0  0  0  0  0  0  0
  191.1740  179.0420  149.5330 F   0  0  0  0  0  0  0  0  0  0  0  0
  1 13  1  0  0  0  0
  1  5  1  0  0  0  0
  2  6  1  0  0  0  0
  3  7  1  0  0  0  0
  3 33  1  0  0  0  0
  4 14  1  0  0  0  0
  4  1  1  0  0  0  0
  5  3  1  0  0  0  0
  6  4  1  0  0  0  0
  8  5  1  0  0  0  0
  9 13  1  0  0  0  0
 10  7  1  0  0  0  0
 11 16  1  0  0  0  0
 12  2  1  0  0  0  0
 12 11  1  0  0  0  0
 12 16  1  0  0  0  0
 13 10  1  0  0  0  0
 14  8  1  0  0  0  0
 15  6  1  0  0  0  0
 15 18  1  0  0  0  0
 16 17  1  0  0  0  0
 17 14  1  0  0  0  0
 17 26  1  0  0  0  0
 18  9  1  0  0  0  0
 19 20  1  0  0  0  0
 20 15  1  0  0  0  0
 21 20  2  0  0  0  0
 22 24  1  0  0  0  0
 23 24  2  0  0  0  0
 23 25  1  0  0  0  0
 24 21  1  0  0  0  0
 25 19  2  0  0  0  0
 26 27  1  0  0  0  0
 27 28  1  0  0  0  0
 27 29  1  0  0  0  0
 28 29  1  0  0  0  0
 30 27  1  0  0  0  0
 31 30  1  0  0  0  0
 32 31  1  0  0  0  0
 33 34  1  0  0  0  0
 34 37  1  0  0  0  0
 34 35  1  0  0  0  0
 36 34  1  0  0  0  0
M  END
>  <MODEL>
1

>  <REMARK>
 VINA RESULT:      -7.5      0.000      0.000
  Name = 
  7 active torsions:
  status: ('A' for Active; 'I' for Inactive)
    1  A    between atoms: C_1  and  C_4
    2  A    between atoms: C_1  and  C_27
    3  A    between atoms: C_2  and  O_22
    4  A    between atoms: C_4  and  C_12
    5  A    between atoms: C_6  and  O_22
    6  A    between atoms: C_8  and  C_12
    7  A    between atoms: C_23  and  C_30
                            x       y       z     vdW  Elec       q    Type
                         _______ _______ _______ _____ _____    ______ ____

>  <TORSDO>
F 7

$$$$
=
 OpenBabel11112417333D

 37 43  0  0  1  0  0  0  0  0999 V2000
  190.3780  174.2470  141.3980 C   0  0  1  0  0  3  0  0  0  0  0  0
  189.5790  177.4010  142.2770 O   0  0  0  0  0  0  0  0  0  0  0  0
  192.4690  172.6730  141.1320 C   0  0  2  0  0  3  0  0  0  0  0  0
  190.2920  175.1390  142.5920 C   0  0  2  0  0  3  0  0  0  0  0  0
  191.9030  174.0940  141.3180 C   0  0  2  0  0  3  0  0  0  0  0  0
  189.1140  176.1170  142.6070 C   0  0  2  0  0  3  0  0  0  0  0  0
  191.5240  171.5800  141.5980 C   0  0  0  0  0  2  0  0  0  0  0  0
  192.4710  174.7960  142.4000 O   0  0  0  0  0  0  0  0  0  0  0  0
  188.2570  173.2430  141.1880 C   0  0  0  0  0  2  0  0  0  0  0  0
  190.1470  171.8710  141.0350 C   0  0  0  0  0  2  0  0  0  0  0  0
  189.7970  177.5490  144.8200 C   0  0  0  0  0  2  0  0  0  0  0  0
  189.8700  178.1850  143.4340 C   0  0  1  0  0  3  0  0  0  0  0  0
  189.6050  173.0400  141.7130 N   0  0  1  0  0  0  0  0  0  0  0  0
  191.5820  175.8020  142.6460 N   0  0  2  0  0  0  0  0  0  0  0  0
  187.9160  175.6970  141.7360 C   0  0  1  0  0  3  0  0  0  0  0  0
  191.1590  177.7410  144.1720 C   0  0  2  0  0  3  0  0  0  0  0  0
  191.7570  176.3260  144.0050 C   0  0  2  0  0  3  0  0  0  0  0  0
  187.4680  174.2570  142.0240 C   0  0  0  0  0  2  0  0  0  0  0  0
  186.2470  177.3040  140.8010 C   0  0  0  0  0  3  0  0  0  0  0  0
  186.7680  176.6400  141.9170 C   0  0  0  0  0  0  0  0  0  0  0  0
  186.2130  176.8760  143.1850 C   0  0  0  0  0  3  0  0  0  0  0  0
  184.5870  178.0030  144.6150 N   0  0  0  0  0  1  0  0  0  0  0  0
  184.6290  178.4270  142.2100 C   0  0  0  0  0  3  0  0  0  0  0  0
  185.1460  177.7670  143.3290 C   0  0  0  0  0  0  0  0  0  0  0  0
  185.1800  178.1950  140.9460 C   0  0  0  0  0  3  0  0  0  0  0  0
  193.2300  176.3890  144.4020 C   0  0  0  0  0  2  0  0  0  0  0  0
  193.4290  175.8610  145.8150 C   0  0  0  0  0  0  0  0  0  0  0  0
  194.8670  175.6260  146.2130 C   0  0  0  0  0  2  0  0  0  0  0  0
  194.1010  176.8180  146.7700 C   0  0  0  0  0  2  0  0  0  0  0  0
  192.4100  174.9270  146.4580 C   0  0  0  0  0  2  0  0  0  0  0  0
  191.6180  175.6270  147.5520 C   0  0  0  0  0  2  0  0  0  0  0  0
  190.3020  175.1660  147.5630 O   0  0  0  0  0  1  0  0  0  0  0  0
  193.7180  172.5330  141.7610 O   0  0  0  0  0  0  0  0  0  0  0  0
  194.7210  172.6290  140.7760 C   0  0  0  0  0  0  0  0  0  0  0  0
  195.2260  173.9200  140.7090 F   0  0  0  0  0  0  0  0  0  0  0  0
  195.7510  171.7350  141.0310 F   0  0  0  0  0  0  0  0  0  0  0  0
  194.1670  172.3140  139.5510 F   0  0  0  0  0  0  0  0  0  0  0  0
  1 13  1  0  0  0  0
  1  4  1  0  0  0  0
  2  6  1  0  0  0  0
  2 12  1  0  0  0  0
  3  5  1  0  0  0  0
  3  7  1  0  0  0  0
  3 33  1  0  0  0  0
  4  6  1  0  0  0  0
  4 14  1  0  0  0  0
  5  1  1  0  0  0  0
  5  8  1  0  0  0  0
  8 14  1  0  0  0  0
  9 13  1  0  0  0  0
  9 18  1  0  0  0  0
 10  7  1  0  0  0  0
 10 13  1  0  0  0  0
 12 16  1  0  0  0  0
 12 11  1  0  0  0  0
 14 17  1  0  0  0  0
 15 20  1  0  0  0  0
 15 18  1  0  0  0  0
 15  6  1  0  0  0  0
 16 11  1  0  0  0  0
 17 16  1  0  0  0  0
 17 26  1  0  0  0  0
 19 25  2  0  0  0  0
 19 20  1  0  0  0  0
 20 21  2  0  0  0  0
 21 24  1  0  0  0  0
 23 24  2  0  0  0  0
 24 22  1  0  0  0  0
 25 23  1  0  0  0  0
 26 27  1  0  0  0  0
 27 28  1  0  0  0  0
 27 30  1  0  0  0  0
 27 29  1  0  0  0  0
 28 29  1  0  0  0  0
 30 31  1  0  0  0  0
 31 32  1  0  0  0  0
 34 36  1  0  0  0  0
 34 33  1  0  0  0  0
 35 34  1  0  0  0  0
 37 34  1  0  0  0  0
M  END
>  <MODEL>
2

>  <REMARK>
 VINA RESULT:      -7.4      3.762      6.894
  Name = 
  7 active torsions:
  status: ('A' for Active; 'I' for Inactive)
    1  A    between atoms: C_1  and  C_4
    2  A    between atoms: C_1  and  C_27
    3  A    between atoms: C_2  and  O_22
    4  A    between atoms: C_4  and  C_12
    5  A    between atoms: C_6  and  O_22
    6  A    between atoms: C_8  and  C_12
    7  A    between atoms: C_23  and  C_30
                            x       y       z     vdW  Elec       q    Type
                         _______ _______ _______ _____ _____    ______ ____

>  <TORSDO>
F 7

$$$$
=
 OpenBabel11112417333D

 37 43  0  0  1  0  0  0  0  0999 V2000
  190.5040  176.7760  144.9670 C   0  0  1  0  0  3  0  0  0  0  0  0
  192.8080  175.7750  142.7200 O   0  0  0  0  0  0  0  0  0  0  0  0
  187.9900  177.5390  145.1070 C   0  0  2  0  0  3  0  0  0  0  0  0
  190.8590  175.6140  144.0990 C   0  0  2  0  0  3  0  0  0  0  0  0
  189.2310  177.2390  144.2440 C   0  0  2  0  0  3  0  0  0  0  0  0
  192.3550  175.3150  143.9680 C   0  0  2  0  0  3  0  0  0  0  0  0
  188.0000  176.8280  146.4480 C   0  0  0  0  0  2  0  0  0  0  0  0
  188.9840  176.3500  143.1800 O   0  0  0  0  0  0  0  0  0  0  0  0
  191.6230  176.4190  147.0100 C   0  0  0  0  0  2  0  0  0  0  0  0
  189.3630  177.0260  147.0810 C   0  0  0  0  0  2  0  0  0  0  0  0
  192.2220  173.3750  142.0620 C   0  0  0  0  0  2  0  0  0  0  0  0
  192.8110  174.7440  141.7330 C   0  0  1  0  0  3  0  0  0  0  0  0
  190.3410  176.2530  146.3290 N   0  0  1  0  0  0  0  0  0  0  0  0
  190.2230  175.9020  142.8260 N   0  0  2  0  0  0  0  0  0  0  0  0
  193.2220  175.8450  145.1260 C   0  0  1  0  0  3  0  0  0  0  0  0
  191.3920  174.3520  141.2450 C   0  0  2  0  0  3  0  0  0  0  0  0
  190.1250  174.6420  142.0820 C   0  0  2  0  0  3  0  0  0  0  0  0
  192.6720  175.4270  146.4970 C   0  0  0  0  0  2  0  0  0  0  0  0
  195.1150  174.3560  145.7890 C   0  0  0  0  0  3  0  0  0  0  0  0
  194.6410  175.3930  144.9790 C   0  0  0  0  0  0  0  0  0  0  0  0
  195.5040  175.9970  144.0510 C   0  0  0  0  0  3  0  0  0  0  0  0
  197.6990  176.1780  142.9970 N   0  0  0  0  0  1  0  0  0  0  0  0
  197.2960  174.5260  144.7500 C   0  0  0  0  0  3  0  0  0  0  0  0
  196.8280  175.5630  143.9380 C   0  0  0  0  0  0  0  0  0  0  0  0
  196.4390  173.9220  145.6750 C   0  0  0  0  0  3  0  0  0  0  0  0
  188.9270  174.6350  141.1350 C   0  0  0  0  0  2  0  0  0  0  0  0
  188.3980  173.2210  140.9480 C   0  0  0  0  0  0  0  0  0  0  0  0
  188.7590  172.2530  142.0490 C   0  0  0  0  0  2  0  0  0  0  0  0
  187.3400  172.7940  141.9370 C   0  0  0  0  0  2  0  0  0  0  0  0
  188.2570  172.6090  139.5580 C   0  0  0  0  0  2  0  0  0  0  0  0
  188.9480  173.4570  138.5000 C   0  0  0  0  0  2  0  0  0  0  0  0
  188.0040  174.1930  137.7830 O   0  0  0  0  0  1  0  0  0  0  0  0
  186.8020  177.2470  144.4140 O   0  0  0  0  0  0  0  0  0  0  0  0
  186.1660  178.4640  144.0980 C   0  0  0  0  0  0  0  0  0  0  0  0
  186.7180  179.0280  142.9570 F   0  0  0  0  0  0  0  0  0  0  0  0
  184.8040  178.2760  143.9160 F   0  0  0  0  0  0  0  0  0  0  0  0
  186.3470  179.3420  145.1490 F   0  0  0  0  0  0  0  0  0  0  0  0
  1 13  1  0  0  0  0
  2  6  1  0  0  0  0
  3  7  1  0  0  0  0
  4  1  1  0  0  0  0
  5  1  1  0  0  0  0
  5  3  1  0  0  0  0
  6  4  1  0  0  0  0
  6 15  1  0  0  0  0
  7 10  1  0  0  0  0
  8  5  1  0  0  0  0
 12 11  1  0  0  0  0
 12  2  1  0  0  0  0
 13  9  1  0  0  0  0
 13 10  1  0  0  0  0
 14  8  1  0  0  0  0
 14  4  1  0  0  0  0
 15 18  1  0  0  0  0
 16 12  1  0  0  0  0
 16 11  1  0  0  0  0
 16 17  1  0  0  0  0
 17 14  1  0  0  0  0
 18  9  1  0  0  0  0
 20 15  1  0  0  0  0
 20 19  2  0  0  0  0
 21 20  1  0  0  0  0
 22 24  1  0  0  0  0
 23 25  2  0  0  0  0
 24 21  2  0  0  0  0
 24 23  1  0  0  0  0
 25 19  1  0  0  0  0
 26 17  1  0  0  0  0
 27 26  1  0  0  0  0
 27 29  1  0  0  0  0
 27 28  1  0  0  0  0
 29 28  1  0  0  0  0
 30 27  1  0  0  0  0
 31 30  1  0  0  0  0
 32 31  1  0  0  0  0
 33  3  1  0  0  0  0
 34 33  1  0  0  0  0
 34 37  1  0  0  0  0
 35 34  1  0  0  0  0
 36 34  1  0  0  0  0
M  END
>  <MODEL>
3

>  <REMARK>
 VINA RESULT:      -7.4      3.620      6.468
  Name = 
  7 active torsions:
  status: ('A' for Active; 'I' for Inactive)
    1  A    between atoms: C_1  and  C_4
    2  A    between atoms: C_1  and  C_27
    3  A    between atoms: C_2  and  O_22
    4  A    between atoms: C_4  and  C_12
    5  A    between atoms: C_6  and  O_22
    6  A    between atoms: C_8  and  C_12
    7  A    between atoms: C_23  and  C_30
                            x       y       z     vdW  Elec       q    Type
                         _______ _______ _______ _____ _____    ______ ____

>  <TORSDO>
F 7

$$$$
=
 OpenBabel11112417333D

 37 43  0  0  1  0  0  0  0  0999 V2000
  191.7790  175.3010  142.3960 C   0  0  1  0  0  3  0  0  0  0  0  0
  191.3010  176.9670  145.2860 O   0  0  0  0  0  0  0  0  0  0  0  0
  193.7140  174.4170  140.8490 C   0  0  2  0  0  3  0  0  0  0  0  0
  191.9000  175.1310  143.8740 C   0  0  2  0  0  3  0  0  0  0  0  0
  193.2690  175.3030  142.0280 C   0  0  2  0  0  3  0  0  0  0  0  0
  190.7990  175.7880  144.7110 C   0  0  2  0  0  3  0  0  0  0  0  0
  192.7650  173.2650  140.5670 C   0  0  0  0  0  2  0  0  0  0  0  0
  194.0110  175.0960  143.2070 O   0  0  0  0  0  0  0  0  0  0  0  0
  189.5870  174.6300  141.8470 C   0  0  0  0  0  2  0  0  0  0  0  0
  191.3510  173.8080  140.5460 C   0  0  0  0  0  2  0  0  0  0  0  0
  191.8440  175.3440  147.1860 C   0  0  0  0  0  2  0  0  0  0  0  0
  191.7840  176.7580  146.6130 C   0  0  1  0  0  3  0  0  0  0  0  0
  190.9740  174.1760  141.9040 N   0  0  1  0  0  0  0  0  0  0  0  0
  193.2270  175.6260  144.1910 N   0  0  2  0  0  0  0  0  0  0  0  0
  189.4760  176.0310  143.9600 C   0  0  1  0  0  3  0  0  0  0  0  0
  193.1240  175.9800  146.6670 C   0  0  2  0  0  3  0  0  0  0  0  0
  193.6030  175.0850  145.5010 C   0  0  2  0  0  3  0  0  0  0  0  0
  188.9760  174.7670  143.2460 C   0  0  0  0  0  2  0  0  0  0  0  0
  188.2270  175.9180  146.1210 C   0  0  0  0  0  3  0  0  0  0  0  0
  188.4240  176.5500  144.8890 C   0  0  0  0  0  0  0  0  0  0  0  0
  187.6270  177.6530  144.5400 C   0  0  0  0  0  3  0  0  0  0  0  0
  185.8400  179.2310  145.0650 N   0  0  0  0  0  1  0  0  0  0  0  0
  186.4540  177.4790  146.6520 C   0  0  0  0  0  3  0  0  0  0  0  0
  186.6450  178.1150  145.4210 C   0  0  0  0  0  0  0  0  0  0  0  0
  187.2450  176.3810  147.0010 C   0  0  0  0  0  3  0  0  0  0  0  0
  195.1160  174.9170  145.6300 C   0  0  0  0  0  2  0  0  0  0  0  0
  195.5070  173.4530  145.4950 C   0  0  0  0  0  0  0  0  0  0  0  0
  196.6970  173.1890  144.6040 C   0  0  0  0  0  2  0  0  0  0  0  0
  196.8320  173.0810  146.1170 C   0  0  0  0  0  2  0  0  0  0  0  0
  194.4550  172.3500  145.5260 C   0  0  0  0  0  2  0  0  0  0  0  0
  194.2640  171.7170  144.1560 C   0  0  0  0  0  2  0  0  0  0  0  0
  192.9280  171.8050  143.7670 O   0  0  0  0  0  1  0  0  0  0  0  0
  195.0200  173.9320  141.0360 O   0  0  0  0  0  0  0  0  0  0  0  0
  195.9000  174.7330  140.2820 C   0  0  0  0  0  0  0  0  0  0  0  0
  195.2210  175.3930  139.2680 F   0  0  0  0  0  0  0  0  0  0  0  0
  196.5450  175.6560  141.0920 F   0  0  0  0  0  0  0  0  0  0  0  0
  196.8550  173.9170  139.7080 F   0  0  0  0  0  0  0  0  0  0  0  0
  1  4  1  0  0  0  0
  2 12  1  0  0  0  0
  3 33  1  0  0  0  0
  3  5  1  0  0  0  0
  4 14  1  0  0  0  0
  4  6  1  0  0  0  0
  5  1  1  0  0  0  0
  5  8  1  0  0  0  0
  6  2  1  0  0  0  0
  7  3  1  0  0  0  0
  8 14  1  0  0  0  0
  9 13  1  0  0  0  0
  9 18  1  0  0  0  0
 10  7  1  0  0  0  0
 10 13  1  0  0  0  0
 12 16  1  0  0  0  0
 12 11  1  0  0  0  0
 13  1  1  0  0  0  0
 14 17  1  0  0  0  0
 15  6  1  0  0  0  0
 15 20  1  0  0  0  0
 16 11  1  0  0  0  0
 17 26  1  0  0  0  0
 17 16  1  0  0  0  0
 18 15  1  0  0  0  0
 19 25  1  0  0  0  0
 20 19  2  0  0  0  0
 21 20  1  0  0  0  0
 21 24  2  0  0  0  0
 22 24  1  0  0  0  0
 23 25  2  0  0  0  0
 24 23  1  0  0  0  0
 27 30  1  0  0  0  0
 27 26  1  0  0  0  0
 27 29  1  0  0  0  0
 28 27  1  0  0  0  0
 28 29  1  0  0  0  0
 31 30  1  0  0  0  0
 32 31  1  0  0  0  0
 34 33  1  0  0  0  0
 34 36  1  0  0  0  0
 35 34  1  0  0  0  0
 37 34  1  0  0  0  0
M  END
>  <MODEL>
4

>  <REMARK>
 VINA RESULT:      -7.3      4.115      8.079
  Name = 
  7 active torsions:
  status: ('A' for Active; 'I' for Inactive)
    1  A    between atoms: C_1  and  C_4
    2  A    between atoms: C_1  and  C_27
    3  A    between atoms: C_2  and  O_22
    4  A    between atoms: C_4  and  C_12
    5  A    between atoms: C_6  and  O_22
    6  A    between atoms: C_8  and  C_12
    7  A    between atoms: C_23  and  C_30
                            x       y       z     vdW  Elec       q    Type
                         _______ _______ _______ _____ _____    ______ ____

>  <TORSDO>
F 7

$$$$
=
 OpenBabel11112417333D

 37 43  0  0  1  0  0  0  0  0999 V2000
  190.5530  176.8540  144.9760 C   0  0  1  0  0  3  0  0  0  0  0  0
  192.7990  175.9140  142.6460 O   0  0  0  0  0  0  0  0  0  0  0  0
  188.0270  177.5530  145.2080 C   0  0  2  0  0  3  0  0  0  0  0  0
  190.9060  175.7020  144.0940 C   0  0  2  0  0  3  0  0  0  0  0  0
  189.2440  177.2850  144.3010 C   0  0  2  0  0  3  0  0  0  0  0  0
  192.4040  175.4420  143.9090 C   0  0  2  0  0  3  0  0  0  0  0  0
  188.1040  176.8420  146.5470 C   0  0  0  0  0  2  0  0  0  0  0  0
  188.9810  176.3910  143.2450 O   0  0  0  0  0  0  0  0  0  0  0  0
  191.7540  176.5260  146.9770 C   0  0  0  0  0  2  0  0  0  0  0  0
  189.4830  177.0740  147.1300 C   0  0  0  0  0  2  0  0  0  0  0  0
  192.2510  173.5000  142.0060 C   0  0  0  0  0  2  0  0  0  0  0  0
  192.7930  174.8840  141.6580 C   0  0  1  0  0  3  0  0  0  0  0  0
  190.4530  176.3260  146.3430 N   0  0  1  0  0  0  0  0  0  0  0  0
  190.2170  175.9750  142.8450 N   0  0  2  0  0  0  0  0  0  0  0  0
  193.2980  175.9930  145.0350 C   0  0  1  0  0  3  0  0  0  0  0  0
  191.3680  174.4570  141.2210 C   0  0  2  0  0  3  0  0  0  0  0  0
  190.1250  174.7130  142.1030 C   0  0  2  0  0  3  0  0  0  0  0  0
  192.8090  175.5610  146.4250 C   0  0  0  0  0  2  0  0  0  0  0  0
  195.5000  176.2410  143.8810 C   0  0  0  0  0  3  0  0  0  0  0  0
  194.7220  175.5780  144.8370 C   0  0  0  0  0  0  0  0  0  0  0  0
  195.2860  174.5330  145.5860 C   0  0  0  0  0  3  0  0  0  0  0  0
  197.1840  173.1000  146.1380 N   0  0  0  0  0  1  0  0  0  0  0  0
  197.3890  174.8250  144.4210 C   0  0  0  0  0  3  0  0  0  0  0  0
  196.6160  174.1590  145.3770 C   0  0  0  0  0  0  0  0  0  0  0  0
  196.8300  175.8660  143.6730 C   0  0  0  0  0  3  0  0  0  0  0  0
  188.8940  174.6770  141.2010 C   0  0  0  0  0  2  0  0  0  0  0  0
  188.4250  173.2440  140.9890 C   0  0  0  0  0  0  0  0  0  0  0  0
  188.8890  172.2590  142.0340 C   0  0  0  0  0  2  0  0  0  0  0  0
  187.4420  172.7310  142.0130 C   0  0  0  0  0  2  0  0  0  0  0  0
  188.2440  172.6740  139.5860 C   0  0  0  0  0  2  0  0  0  0  0  0
  188.3720  173.7520  138.5210 C   0  0  0  0  0  2  0  0  0  0  0  0
  188.9200  173.2150  137.3560 O   0  0  0  0  0  1  0  0  0  0  0  0
  186.8230  177.2310  144.5580 O   0  0  0  0  0  0  0  0  0  0  0  0
  186.1500  178.4320  144.2560 C   0  0  0  0  0  0  0  0  0  0  0  0
  186.3140  179.3590  145.2750 F   0  0  0  0  0  0  0  0  0  0  0  0
  186.6040  178.9640  143.0590 F   0  0  0  0  0  0  0  0  0  0  0  0
  184.8020  178.1600  144.1270 F   0  0  0  0  0  0  0  0  0  0  0  0
  1 13  1  0  0  0  0
  2  6  1  0  0  0  0
  3  7  1  0  0  0  0
  4  1  1  0  0  0  0
  5  1  1  0  0  0  0
  5  3  1  0  0  0  0
  6  4  1  0  0  0  0
  6 15  1  0  0  0  0
  7 10  1  0  0  0  0
  8  5  1  0  0  0  0
 12 11  1  0  0  0  0
 12  2  1  0  0  0  0
 13  9  1  0  0  0  0
 13 10  1  0  0  0  0
 14  8  1  0  0  0  0
 14  4  1  0  0  0  0
 15 18  1  0  0  0  0
 16 12  1  0  0  0  0
 16 11  1  0  0  0  0
 16 17  1  0  0  0  0
 17 14  1  0  0  0  0
 18  9  1  0  0  0  0
 19 20  1  0  0  0  0
 20 15  1  0  0  0  0
 20 21  2  0  0  0  0
 23 24  2  0  0  0  0
 24 21  1  0  0  0  0
 24 22  1  0  0  0  0
 25 19  2  0  0  0  0
 25 23  1  0  0  0  0
 26 17  1  0  0  0  0
 27 26  1  0  0  0  0
 27 29  1  0  0  0  0
 27 28  1  0  0  0  0
 29 28  1  0  0  0  0
 30 27  1  0  0  0  0
 31 30  1  0  0  0  0
 32 31  1  0  0  0  0
 33  3  1  0  0  0  0
 34 33  1  0  0  0  0
 34 35  1  0  0  0  0
 36 34  1  0  0  0  0
 37 34  1  0  0  0  0
M  END
>  <MODEL>
5

>  <REMARK>
 VINA RESULT:      -7.2      3.636      6.543
  Name = 
  7 active torsions:
  status: ('A' for Active; 'I' for Inactive)
    1  A    between atoms: C_1  and  C_4
    2  A    between atoms: C_1  and  C_27
    3  A    between atoms: C_2  and  O_22
    4  A    between atoms: C_4  and  C_12
    5  A    between atoms: C_6  and  O_22
    6  A    between atoms: C_8  and  C_12
    7  A    between atoms: C_23  and  C_30
                            x       y       z     vdW  Elec       q    Type
                         _______ _______ _______ _____ _____    ______ ____

>  <TORSDO>
F 7

$$$$
=
 OpenBabel11112417333D

 37 43  0  0  1  0  0  0  0  0999 V2000
  190.7680  174.2450  141.6450 C   0  0  1  0  0  3  0  0  0  0  0  0
  189.8100  177.4300  142.1880 O   0  0  0  0  0  0  0  0  0  0  0  0
  192.9210  172.7330  141.6580 C   0  0  2  0  0  3  0  0  0  0  0  0
  190.5710  175.2320  142.7480 C   0  0  2  0  0  3  0  0  0  0  0  0
  192.2990  174.1430  141.6800 C   0  0  2  0  0  3  0  0  0  0  0  0
  189.3640  176.1630  142.5990 C   0  0  2  0  0  3  0  0  0  0  0  0
  191.9810  171.6500  142.1550 C   0  0  0  0  0  2  0  0  0  0  0  0
  192.7680  174.9560  142.7310 O   0  0  0  0  0  0  0  0  0  0  0  0
  188.6990  173.1470  141.3850 C   0  0  0  0  0  2  0  0  0  0  0  0
  190.6380  171.8390  141.4790 C   0  0  0  0  0  2  0  0  0  0  0  0
  189.8470  177.8040  144.7170 C   0  0  0  0  0  2  0  0  0  0  0  0
  189.9950  178.3200  143.2880 C   0  0  1  0  0  3  0  0  0  0  0  0
  190.0130  173.0400  142.0140 N   0  0  1  0  0  0  0  0  0  0  0  0
  191.8330  175.9450  142.8290 N   0  0  2  0  0  0  0  0  0  0  0  0
  188.2430  175.6240  141.6910 C   0  0  1  0  0  3  0  0  0  0  0  0
  191.2440  177.9900  144.1460 C   0  0  2  0  0  3  0  0  0  0  0  0
  191.8960  176.5890  144.1440 C   0  0  2  0  0  3  0  0  0  0  0  0
  187.8220  174.1980  142.0750 C   0  0  0  0  0  2  0  0  0  0  0  0
  186.6400  177.1430  140.5220 C   0  0  0  0  0  3  0  0  0  0  0  0
  187.0560  176.5360  141.7110 C   0  0  0  0  0  0  0  0  0  0  0  0
  186.3600  176.7970  142.9030 C   0  0  0  0  0  3  0  0  0  0  0  0
  184.5570  177.9200  144.1070 N   0  0  0  0  0  1  0  0  0  0  0  0
  184.8480  178.2610  141.7060 C   0  0  0  0  0  3  0  0  0  0  0  0
  185.2590  177.6570  142.8980 C   0  0  0  0  0  0  0  0  0  0  0  0
  185.5400  178.0040  140.5180 C   0  0  0  0  0  3  0  0  0  0  0  0
  193.3360  176.7420  144.6300 C   0  0  0  0  0  2  0  0  0  0  0  0
  193.5640  175.9310  145.8970 C   0  0  0  0  0  0  0  0  0  0  0  0
  192.8280  176.4290  147.1170 C   0  0  0  0  0  2  0  0  0  0  0  0
  192.3610  175.1700  146.3990 C   0  0  0  0  0  2  0  0  0  0  0  0
  194.9060  175.2580  146.1720 C   0  0  0  0  0  2  0  0  0  0  0  0
  195.6860  175.0170  144.8880 C   0  0  0  0  0  2  0  0  0  0  0  0
  196.8980  174.3890  145.1730 O   0  0  0  0  0  1  0  0  0  0  0  0
  194.1270  172.6940  142.3780 O   0  0  0  0  0  0  0  0  0  0  0  0
  195.1910  172.8310  141.4640 C   0  0  0  0  0  0  0  0  0  0  0  0
  194.7850  172.5000  140.1800 F   0  0  0  0  0  0  0  0  0  0  0  0
  195.6910  174.1250  141.4790 F   0  0  0  0  0  0  0  0  0  0  0  0
  196.2050  171.9690  141.8360 F   0  0  0  0  0  0  0  0  0  0  0  0
  1  5  1  0  0  0  0
  1 13  1  0  0  0  0
  1  4  1  0  0  0  0
  2  6  1  0  0  0  0
  2 12  1  0  0  0  0
  3  5  1  0  0  0  0
  3  7  1  0  0  0  0
  3 33  1  0  0  0  0
  4 14  1  0  0  0  0
  5  8  1  0  0  0  0
  6  4  1  0  0  0  0
  8 14  1  0  0  0  0
  9 13  1  0  0  0  0
  9 18  1  0  0  0  0
 10 13  1  0  0  0  0
 10  7  1  0  0  0  0
 12 16  1  0  0  0  0
 12 11  1  0  0  0  0
 14 17  1  0  0  0  0
 15 20  1  0  0  0  0
 15 18  1  0  0  0  0
 15  6  1  0  0  0  0
 16 11  1  0  0  0  0
 17 16  1  0  0  0  0
 17 26  1  0  0  0  0
 19 20  1  0  0  0  0
 20 21  2  0  0  0  0
 23 24  2  0  0  0  0
 24 21  1  0  0  0  0
 24 22  1  0  0  0  0
 25 19  2  0  0  0  0
 25 23  1  0  0  0  0
 26 27  1  0  0  0  0
 27 30  1  0  0  0  0
 27 29  1  0  0  0  0
 27 28  1  0  0  0  0
 29 28  1  0  0  0  0
 31 32  1  0  0  0  0
 31 30  1  0  0  0  0
 34 36  1  0  0  0  0
 34 37  1  0  0  0  0
 34 33  1  0  0  0  0
 35 34  1  0  0  0  0
M  END
>  <MODEL>
6

>  <REMARK>
 VINA RESULT:      -7.2      3.926      7.035
  Name = 
  7 active torsions:
  status: ('A' for Active; 'I' for Inactive)
    1  A    between atoms: C_1  and  C_4
    2  A    between atoms: C_1  and  C_27
    3  A    between atoms: C_2  and  O_22
    4  A    between atoms: C_4  and  C_12
    5  A    between atoms: C_6  and  O_22
    6  A    between atoms: C_8  and  C_12
    7  A    between atoms: C_23  and  C_30
                            x       y       z     vdW  Elec       q    Type
                         _______ _______ _______ _____ _____    ______ ____

>  <TORSDO>
F 7

$$$$
=
 OpenBabel11112417333D

 37 43  0  0  1  0  0  0  0  0999 V2000
  186.8090  176.3180  142.8800 C   0  0  1  0  0  3  0  0  0  0  0  0
  188.8330  173.6260  142.9820 O   0  0  0  0  0  0  0  0  0  0  0  0
  185.5730  178.0010  144.4800 C   0  0  2  0  0  3  0  0  0  0  0  0
  188.2160  175.9280  143.1890 C   0  0  2  0  0  3  0  0  0  0  0  0
  186.3400  176.6770  144.2960 C   0  0  2  0  0  3  0  0  0  0  0  0
  188.8190  174.8470  142.2880 C   0  0  2  0  0  3  0  0  0  0  0  0
  185.8560  179.0200  143.3900 C   0  0  0  0  0  2  0  0  0  0  0  0
  187.4330  176.5260  145.1710 O   0  0  0  0  0  0  0  0  0  0  0  0
  186.7680  176.8160  140.5770 C   0  0  0  0  0  2  0  0  0  0  0  0
  185.7480  178.3230  142.0490 C   0  0  0  0  0  2  0  0  0  0  0  0
  191.1630  174.4630  143.6180 C   0  0  0  0  0  2  0  0  0  0  0  0
  190.0850  173.3820  143.6220 C   0  0  1  0  0  3  0  0  0  0  0  0
  186.8760  177.4140  141.9050 N   0  0  1  0  0  0  0  0  0  0  0  0
  188.1910  175.5520  144.5900 N   0  0  2  0  0  0  0  0  0  0  0  0
  188.1540  174.7160  140.9050 C   0  0  1  0  0  3  0  0  0  0  0  0
  190.3230  174.2700  144.8710 C   0  0  2  0  0  3  0  0  0  0  0  0
  189.5690  175.6010  145.0890 C   0  0  2  0  0  3  0  0  0  0  0  0
  188.0470  176.0670  140.1840 C   0  0  0  0  0  2  0  0  0  0  0  0
  188.1670  172.7630  139.3460 C   0  0  0  0  0  3  0  0  0  0  0  0
  188.8900  173.7320  140.0500 C   0  0  0  0  0  0  0  0  0  0  0  0
  190.2900  173.7610  139.9500 C   0  0  0  0  0  3  0  0  0  0  0  0
  192.3740  172.8590  139.0520 N   0  0  0  0  0  1  0  0  0  0  0  0
  190.2280  171.8610  138.4490 C   0  0  0  0  0  3  0  0  0  0  0  0
  190.9560  172.8270  139.1510 C   0  0  0  0  0  0  0  0  0  0  0  0
  188.8330  171.8300  138.5470 C   0  0  0  0  0  3  0  0  0  0  0  0
  189.6200  175.9290  146.5800 C   0  0  0  0  0  2  0  0  0  0  0  0
  191.0400  176.2690  147.0080 C   0  0  0  0  0  0  0  0  0  0  0  0
  191.1670  176.8630  148.3900 C   0  0  0  0  0  2  0  0  0  0  0  0
  191.5930  175.4250  148.1300 C   0  0  0  0  0  2  0  0  0  0  0  0
  192.0760  176.7430  145.9940 C   0  0  0  0  0  2  0  0  0  0  0  0
  193.4500  176.1540  146.2790 C   0  0  0  0  0  2  0  0  0  0  0  0
  194.3330  177.1600  146.6700 O   0  0  0  0  0  1  0  0  0  0  0  0
  185.8210  178.5650  145.7440 O   0  0  0  0  0  0  0  0  0  0  0  0
  184.6640  178.4040  146.5330 C   0  0  0  0  0  0  0  0  0  0  0  0
  184.8640  178.9060  147.8100 F   0  0  0  0  0  0  0  0  0  0  0  0
  183.5750  179.0320  145.9460 F   0  0  0  0  0  0  0  0  0  0  0  0
  184.3850  177.0550  146.6340 F   0  0  0  0  0  0  0  0  0  0  0  0
  1  4  1  0  0  0  0
  1  5  1  0  0  0  0
  2 12  1  0  0  0  0
  3 33  1  0  0  0  0
  4 14  1  0  0  0  0
  5  3  1  0  0  0  0
  5  8  1  0  0  0  0
  6  2  1  0  0  0  0
  6  4  1  0  0  0  0
  7  3  1  0  0  0  0
  9 13  1  0  0  0  0
 10  7  1  0  0  0  0
 11 12  1  0  0  0  0
 11 16  1  0  0  0  0
 12 16  1  0  0  0  0
 13 10  1  0  0  0  0
 13  1  1  0  0  0  0
 14 17  1  0  0  0  0
 14  8  1  0  0  0  0
 15  6  1  0  0  0  0
 16 17  1  0  0  0  0
 17 26  1  0  0  0  0
 18  9  1  0  0  0  0
 18 15  1  0  0  0  0
 19 20  1  0  0  0  0
 20 15  1  0  0  0  0
 21 20  2  0  0  0  0
 22 24  1  0  0  0  0
 23 25  1  0  0  0  0
 23 24  2  0  0  0  0
 24 21  1  0  0  0  0
 25 19  2  0  0  0  0
 26 27  1  0  0  0  0
 27 29  1  0  0  0  0
 27 28  1  0  0  0  0
 29 28  1  0  0  0  0
 30 31  1  0  0  0  0
 30 27  1  0  0  0  0
 31 32  1  0  0  0  0
 33 34  1  0  0  0  0
 34 37  1  0  0  0  0
 34 35  1  0  0  0  0
 36 34  1  0  0  0  0
M  END
>  <MODEL>
7

>  <REMARK>
 VINA RESULT:      -7.2      2.710      5.535
  Name = 
  7 active torsions:
  status: ('A' for Active; 'I' for Inactive)
    1  A    between atoms: C_1  and  C_4
    2  A    between atoms: C_1  and  C_27
    3  A    between atoms: C_2  and  O_22
    4  A    between atoms: C_4  and  C_12
    5  A    between atoms: C_6  and  O_22
    6  A    between atoms: C_8  and  C_12
    7  A    between atoms: C_23  and  C_30
                            x       y       z     vdW  Elec       q    Type
                         _______ _______ _______ _____ _____    ______ ____

>  <TORSDO>
F 7

$$$$
=
 OpenBabel11112417333D

 37 43  0  0  1  0  0  0  0  0999 V2000
  191.1050  175.0460  145.6730 C   0  0  1  0  0  3  0  0  0  0  0  0
  188.2390  175.0130  143.9010 O   0  0  0  0  0  0  0  0  0  0  0  0
  193.4830  173.9230  145.7240 C   0  0  2  0  0  3  0  0  0  0  0  0
  190.5390  175.4820  144.3620 C   0  0  2  0  0  3  0  0  0  0  0  0
  192.0430  173.9370  145.1770 C   0  0  2  0  0  3  0  0  0  0  0  0
  189.1000  176.0040  144.3990 C   0  0  2  0  0  3  0  0  0  0  0  0
  193.9520  175.2770  146.2280 C   0  0  0  0  0  2  0  0  0  0  0  0
  191.9670  173.8960  143.7720 O   0  0  0  0  0  0  0  0  0  0  0  0
  190.7430  176.8400  147.1590 C   0  0  0  0  0  2  0  0  0  0  0  0
  192.8670  175.8560  147.1120 C   0  0  0  0  0  2  0  0  0  0  0  0
  188.6900  176.2710  141.7210 C   0  0  0  0  0  2  0  0  0  0  0  0
  187.9600  175.1890  142.5120 C   0  0  1  0  0  3  0  0  0  0  0  0
  191.7350  176.2280  146.2770 N   0  0  1  0  0  0  0  0  0  0  0  0
  190.7040  174.3300  143.4940 N   0  0  2  0  0  0  0  0  0  0  0  0
  188.6410  176.5290  145.7730 C   0  0  1  0  0  3  0  0  0  0  0  0
  189.1540  174.8290  141.5920 C   0  0  2  0  0  3  0  0  0  0  0  0
  190.6110  174.8010  142.1080 C   0  0  2  0  0  3  0  0  0  0  0  0
  189.6330  177.5390  146.3670 C   0  0  0  0  0  2  0  0  0  0  0  0
  186.2510  176.6400  146.4930 C   0  0  0  0  0  3  0  0  0  0  0  0
  187.2770  177.1380  145.6820 C   0  0  0  0  0  0  0  0  0  0  0  0
  187.0080  178.1900  144.7920 C   0  0  0  0  0  3  0  0  0  0  0  0
  185.4550  179.8030  143.8180 N   0  0  0  0  0  1  0  0  0  0  0  0
  184.7030  178.2360  145.5340 C   0  0  0  0  0  3  0  0  0  0  0  0
  185.7240  178.7370  144.7200 C   0  0  0  0  0  0  0  0  0  0  0  0
  184.9680  177.1880  146.4200 C   0  0  0  0  0  3  0  0  0  0  0  0
  191.4280  173.9270  141.1580 C   0  0  0  0  0  2  0  0  0  0  0  0
  192.8170  174.5120  140.9500 C   0  0  0  0  0  0  0  0  0  0  0  0
  193.9160  173.4960  140.7570 C   0  0  0  0  0  2  0  0  0  0  0  0
  193.4030  174.3060  139.5740 C   0  0  0  0  0  2  0  0  0  0  0  0
  193.2370  175.8090  141.6360 C   0  0  0  0  0  2  0  0  0  0  0  0
  194.7060  175.7850  142.0290 C   0  0  0  0  0  2  0  0  0  0  0  0
  195.4190  176.7240  141.2830 O   0  0  0  0  0  1  0  0  0  0  0  0
  194.3880  173.4220  144.7720 O   0  0  0  0  0  0  0  0  0  0  0  0
  195.0500  172.3120  145.3350 C   0  0  0  0  0  0  0  0  0  0  0  0
  195.5080  171.4560  144.3440 F   0  0  0  0  0  0  0  0  0  0  0  0
  196.1100  172.7210  146.1300 F   0  0  0  0  0  0  0  0  0  0  0  0
  194.1540  171.6200  146.1270 F   0  0  0  0  0  0  0  0  0  0  0  0
  1 13  1  0  0  0  0
  2  6  1  0  0  0  0
  3  7  1  0  0  0  0
  4  6  1  0  0  0  0
  4  1  1  0  0  0  0
  5  1  1  0  0  0  0
  5  3  1  0  0  0  0
  6 15  1  0  0  0  0
  7 10  1  0  0  0  0
  8  5  1  0  0  0  0
 11 12  1  0  0  0  0
 12  2  1  0  0  0  0
 13 10  1  0  0  0  0
 13  9  1  0  0  0  0
 14  8  1  0  0  0  0
 14  4  1  0  0  0  0
 15 18  1  0  0  0  0
 16 11  1  0  0  0  0
 16 17  1  0  0  0  0
 16 12  1  0  0  0  0
 17 14  1  0  0  0  0
 18  9  1  0  0  0  0
 20 15  1  0  0  0  0
 20 19  2  0  0  0  0
 21 20  1  0  0  0  0
 22 24  1  0  0  0  0
 23 25  2  0  0  0  0
 24 21  2  0  0  0  0
 24 23  1  0  0  0  0
 25 19  1  0  0  0  0
 26 17  1  0  0  0  0
 27 26  1  0  0  0  0
 27 30  1  0  0  0  0
 28 27  1  0  0  0  0
 29 28  1  0  0  0  0
 29 27  1  0  0  0  0
 30 31  1  0  0  0  0
 32 31  1  0  0  0  0
 33 34  1  0  0  0  0
 33  3  1  0  0  0  0
 34 37  1  0  0  0  0
 34 36  1  0  0  0  0
 35 34  1  0  0  0  0
M  END
>  <MODEL>
8

>  <REMARK>
 VINA RESULT:      -7.1      3.303      6.942
  Name = 
  7 active torsions:
  status: ('A' for Active; 'I' for Inactive)
    1  A    between atoms: C_1  and  C_4
    2  A    between atoms: C_1  and  C_27
    3  A    between atoms: C_2  and  O_22
    4  A    between atoms: C_4  and  C_12
    5  A    between atoms: C_6  and  O_22
    6  A    between atoms: C_8  and  C_12
    7  A    between atoms: C_23  and  C_30
                            x       y       z     vdW  Elec       q    Type
                         _______ _______ _______ _____ _____    ______ ____

>  <TORSDO>
F 7

$$$$
=
 OpenBabel11112417333D

 37 43  0  0  1  0  0  0  0  0999 V2000
  190.8620  174.7240  144.9730 C   0  0  1  0  0  3  0  0  0  0  0  0
  187.8260  174.9180  143.5210 O   0  0  0  0  0  0  0  0  0  0  0  0
  193.0000  173.1940  145.0280 C   0  0  2  0  0  3  0  0  0  0  0  0
  190.2130  175.0130  143.6590 C   0  0  2  0  0  3  0  0  0  0  0  0
  191.5250  173.3840  144.6270 C   0  0  2  0  0  3  0  0  0  0  0  0
  188.9010  175.8000  143.7250 C   0  0  2  0  0  3  0  0  0  0  0  0
  193.7540  174.5010  145.1990 C   0  0  0  0  0  2  0  0  0  0  0  0
  191.2620  173.1020  143.2730 O   0  0  0  0  0  0  0  0  0  0  0  0
  191.0060  176.7950  146.0890 C   0  0  0  0  0  2  0  0  0  0  0  0
  192.9070  175.4300  146.0450 C   0  0  0  0  0  2  0  0  0  0  0  0
  188.1990  175.6460  141.0990 C   0  0  0  0  0  2  0  0  0  0  0  0
  187.4040  174.8880  142.1580 C   0  0  1  0  0  3  0  0  0  0  0  0
  191.7560  175.8530  145.2610 N   0  0  1  0  0  0  0  0  0  0  0  0
  190.0650  173.7120  143.0320 N   0  0  2  0  0  0  0  0  0  0  0  0
  188.7200  176.6450  144.9990 C   0  0  1  0  0  3  0  0  0  0  0  0
  188.3900  174.1430  141.2220 C   0  0  2  0  0  3  0  0  0  0  0  0
  189.8750  173.9300  141.5940 C   0  0  2  0  0  3  0  0  0  0  0  0
  189.9370  177.5370  145.2800 C   0  0  0  0  0  2  0  0  0  0  0  0
  187.2580  178.2620  143.7780 C   0  0  0  0  0  3  0  0  0  0  0  0
  187.4780  177.4780  144.9150 C   0  0  0  0  0  0  0  0  0  0  0  0
  186.5380  177.4900  145.9580 C   0  0  0  0  0  3  0  0  0  0  0  0
  184.4410  178.2910  146.9170 N   0  0  0  0  0  1  0  0  0  0  0  0
  185.1760  179.0630  144.7200 C   0  0  0  0  0  3  0  0  0  0  0  0
  185.3910  178.2810  145.8590 C   0  0  0  0  0  0  0  0  0  0  0  0
  186.1100  179.0530  143.6800 C   0  0  0  0  0  3  0  0  0  0  0  0
  190.4010  172.7580  140.7690 C   0  0  0  0  0  2  0  0  0  0  0  0
  191.3760  173.2430  139.7060 C   0  0  0  0  0  0  0  0  0  0  0  0
  192.4610  174.1660  140.2070 C   0  0  0  0  0  2  0  0  0  0  0  0
  192.7870  172.7230  139.8420 C   0  0  0  0  0  2  0  0  0  0  0  0
  190.9200  173.4870  138.2710 C   0  0  0  0  0  2  0  0  0  0  0  0
  189.5790  172.8260  137.9880 C   0  0  0  0  0  2  0  0  0  0  0  0
  188.6070  173.7960  137.7410 O   0  0  0  0  0  1  0  0  0  0  0  0
  193.6750  172.3620  144.1170 O   0  0  0  0  0  0  0  0  0  0  0  0
  194.0140  171.1660  144.7800 C   0  0  0  0  0  0  0  0  0  0  0  0
  195.1650  170.6110  144.2400 F   0  0  0  0  0  0  0  0  0  0  0  0
  194.1910  171.3870  146.1380 F   0  0  0  0  0  0  0  0  0  0  0  0
  192.9800  170.2650  144.6180 F   0  0  0  0  0  0  0  0  0  0  0  0
  1 13  1  0  0  0  0
  2  6  1  0  0  0  0
  3  7  1  0  0  0  0
  4  6  1  0  0  0  0
  4  1  1  0  0  0  0
  5  1  1  0  0  0  0
  5  3  1  0  0  0  0
  6 15  1  0  0  0  0
  7 10  1  0  0  0  0
  8  5  1  0  0  0  0
 11 16  1  0  0  0  0
 11 12  1  0  0  0  0
 12  2  1  0  0  0  0
 13 10  1  0  0  0  0
 13  9  1  0  0  0  0
 14  8  1  0  0  0  0
 14  4  1  0  0  0  0
 15 18  1  0  0  0  0
 16 17  1  0  0  0  0
 16 12  1  0  0  0  0
 17 14  1  0  0  0  0
 18  9  1  0  0  0  0
 19 20  1  0  0  0  0
 20 15  1  0  0  0  0
 20 21  2  0  0  0  0
 23 24  2  0  0  0  0
 24 21  1  0  0  0  0
 24 22  1  0  0  0  0
 25 19  2  0  0  0  0
 25 23  1  0  0  0  0
 26 17  1  0  0  0  0
 27 29  1  0  0  0  0
 27 28  1  0  0  0  0
 27 26  1  0  0  0  0
 29 28  1  0  0  0  0
 30 27  1  0  0  0  0
 31 30  1  0  0  0  0
 32 31  1  0  0  0  0
 33 34  1  0  0  0  0
 33  3  1  0  0  0  0
 34 36  1  0  0  0  0
 35 34  1  0  0  0  0
 37 34  1  0  0  0  0
M  END
>  <MODEL>
9

>  <REMARK>
 VINA RESULT:      -6.9      3.221      7.010
  Name = 
  7 active torsions:
  status: ('A' for Active; 'I' for Inactive)
    1  A    between atoms: C_1  and  C_4
    2  A    between atoms: C_1  and  C_27
    3  A    between atoms: C_2  and  O_22
    4  A    between atoms: C_4  and  C_12
    5  A    between atoms: C_6  and  O_22
    6  A    between atoms: C_8  and  C_12
    7  A    between atoms: C_23  and  C_30
                            x       y       z     vdW  Elec       q    Type
                         _______ _______ _______ _____ _____    ______ ____

>  <TORSDO>
F 7

$$$$
