=
 OpenBabel11112417523D

 34 41  0  0  1  0  0  0  0  0999 V2000
  189.5040  175.6720  142.6200 C   0  0  0  0  0  0  0  0  0  0  0  0
  191.8380  174.6370  142.3380 C   0  0  0  0  0  2  0  0  0  0  0  0
  184.8510  178.0760  146.1420 C   0  0  1  0  0  3  0  0  0  0  0  0
  187.3480  176.7360  143.0140 C   0  0  0  0  0  0  0  0  0  0  0  0
  187.0610  177.7650  145.2240 C   0  0  0  0  0  0  0  0  0  0  0  0
  186.3170  178.5690  147.6000 C   0  0  0  0  0  2  0  0  0  0  0  0
  184.8160  178.2910  147.6380 C   0  0  0  0  0  2  0  0  0  0  0  0
  184.4710  178.9900  143.9580 C   0  0  0  0  0  2  0  0  0  0  0  0
  191.2560  175.6480  144.3940 C   0  0  0  0  0  0  0  0  0  0  0  0
  193.2560  175.9840  146.7920 C   0  0  0  0  0  2  0  0  0  0  0  0
  188.2690  177.4470  145.5950 N   0  0  0  0  0  0  0  0  0  0  0  0
  185.1030  177.6820  143.4200 C   0  0  0  0  0  2  0  0  0  0  0  0
  190.4650  176.3570  145.2330 C   0  0  0  0  0  0  0  0  0  0  0  0
  193.0830  174.6860  143.2290 C   0  0  0  0  0  2  0  0  0  0  0  0
  186.5470  177.4180  143.8480 C   0  0  0  0  0  0  0  0  0  0  0  0
  183.9470  178.8880  145.3380 N   0  0  0  0  0  2  0  0  0  0  0  0
  193.5340  176.0960  145.3100 C   0  0  2  0  0  3  0  0  0  0  0  0
  188.7000  176.3550  143.4460 C   0  0  0  0  0  0  0  0  0  0  0  0
  186.2370  178.6570  146.0890 C   0  0  2  0  0  3  0  0  0  0  0  0
  189.1430  176.7150  144.7670 N   0  0  0  0  0  0  0  0  0  0  0  0
  187.8150  175.6180  140.8430 C   0  0  0  0  0  3  0  0  0  0  0  0
  192.0450  176.7480  147.2170 C   0  0  0  0  0  3  0  0  0  0  0  0
  186.9220  176.3450  141.7000 N   0  0  0  0  0  2  0  0  0  0  0  0
  190.8820  176.8680  146.5650 C   0  0  0  0  0  3  0  0  0  0  0  0
  192.6110  175.0930  144.6340 C   0  0  1  0  0  3  0  0  0  0  0  0
  189.0430  175.2920  141.2630 C   0  0  0  0  0  3  0  0  0  0  0  0
  190.8070  175.3200  143.0910 N   0  0  0  0  0  0  0  0  0  0  0  0
  194.8720  175.7620  145.0830 O   0  0  0  0  0  0  0  0  0  0  0  0
  195.2220  174.9390  146.1560 C   0  0  0  0  0  2  0  0  0  0  0  0
  195.8590  172.5500  143.9890 O   0  0  0  0  0  0  0  0  0  0  0  0
  197.0140  174.5400  144.5000 C   0  0  0  0  0  2  0  0  0  0  0  0
  196.3780  174.0370  145.7630 C   0  0  2  0  0  3  0  0  0  0  0  0
  196.9080  173.3690  143.5530 C   0  0  0  0  0  2  0  0  0  0  0  0
  195.8500  172.6710  145.3870 C   0  0  0  0  0  2  0  0  0  0  0  0
  1 27  1  0  0  0  0
  1 18  2  0  0  0  0
  2 27  1  0  0  0  0
  2 14  1  0  0  0  0
  3  7  1  1  0  0  0
  4 18  1  0  0  0  0
  4 15  2  0  0  0  0
  5 11  2  0  0  0  0
  5 19  1  0  0  0  0
  6  7  1  0  0  0  0
  8 16  1  0  0  0  0
  9 25  1  0  0  0  0
  9 13  2  0  0  0  0
 10 22  1  0  0  0  0
 12 15  1  0  0  0  0
 12  8  1  0  0  0  0
 13 24  1  0  0  0  0
 15  5  1  0  0  0  0
 16  3  1  0  0  0  0
 17 28  1  1  0  0  0
 17 10  1  0  0  0  0
 18 20  1  0  0  0  0
 19  3  1  0  0  0  0
 19  6  1  1  0  0  0
 20 13  1  0  0  0  0
 20 11  1  0  0  0  0
 21 26  2  0  0  0  0
 21 23  1  0  0  0  0
 23  4  1  0  0  0  0
 24 22  2  0  0  0  0
 25 14  1  6  0  0  0
 25 17  1  0  0  0  0
 26  1  1  0  0  0  0
 27  9  1  0  0  0  0
 28 29  1  0  0  0  0
 30 34  1  0  0  0  0
 31 32  1  0  0  0  0
 32 29  1  6  0  0  0
 33 30  1  0  0  0  0
 33 31  1  0  0  0  0
 34 32  1  0  0  0  0
M  END
>  <MODEL>
1

>  <REMARK>
 VINA RESULT:      -8.7      0.000      0.000
  Name = 
  3 active torsions:
  status: ('A' for Active; 'I' for Inactive)
    1  A    between atoms: C_17  and  O_28
    2  A    between atoms: O_28  and  C_29
    3  A    between atoms: C_29  and  C_32
                            x       y       z     vdW  Elec       q    Type
                         _______ _______ _______ _____ _____    ______ ____

>  <TORSDO>
F 3

$$$$
=
 OpenBabel11112417523D

 34 41  0  0  1  0  0  0  0  0999 V2000
  190.2900  174.7770  142.3080 C   0  0  0  0  0  0  0  0  0  0  0  0
  192.6690  173.8840  141.9300 C   0  0  0  0  0  2  0  0  0  0  0  0
  185.7330  177.1420  145.9780 C   0  0  1  0  0  3  0  0  0  0  0  0
  188.0940  175.7190  142.7820 C   0  0  0  0  0  0  0  0  0  0  0  0
  187.8890  176.9080  144.9200 C   0  0  0  0  0  0  0  0  0  0  0  0
  187.2580  177.8550  147.2760 C   0  0  0  0  0  2  0  0  0  0  0  0
  185.7880  177.4790  147.4510 C   0  0  0  0  0  2  0  0  0  0  0  0
  185.1310  177.8420  143.7650 C   0  0  0  0  0  2  0  0  0  0  0  0
  192.1600  175.0220  143.9390 C   0  0  0  0  0  0  0  0  0  0  0  0
  194.2960  175.6940  146.1420 C   0  0  0  0  0  2  0  0  0  0  0  0
  189.1410  176.7060  145.2210 N   0  0  0  0  0  0  0  0  0  0  0  0
  185.8190  176.5400  143.2850 C   0  0  0  0  0  2  0  0  0  0  0  0
  191.3810  175.7420  144.7780 C   0  0  0  0  0  0  0  0  0  0  0  0
  193.9670  174.0940  142.7150 C   0  0  0  0  0  2  0  0  0  0  0  0
  187.3060  176.4120  143.6190 C   0  0  0  0  0  0  0  0  0  0  0  0
  184.7160  177.8210  145.1850 N   0  0  0  0  0  2  0  0  0  0  0  0
  194.4580  175.7010  144.6380 C   0  0  2  0  0  3  0  0  0  0  0  0
  189.4980  175.4690  143.1370 C   0  0  0  0  0  0  0  0  0  0  0  0
  187.0640  177.8100  145.7730 C   0  0  2  0  0  3  0  0  0  0  0  0
  190.0060  175.9680  144.3890 N   0  0  0  0  0  0  0  0  0  0  0  0
  188.4880  174.4590  140.6770 C   0  0  0  0  0  3  0  0  0  0  0  0
  193.0640  176.4070  146.5970 C   0  0  0  0  0  3  0  0  0  0  0  0
  187.6060  175.1920  141.5400 N   0  0  0  0  0  2  0  0  0  0  0  0
  191.8520  176.3910  146.0290 C   0  0  0  0  0  3  0  0  0  0  0  0
  193.5680  174.5840  144.1160 C   0  0  1  0  0  3  0  0  0  0  0  0
  189.7640  174.2540  141.0250 C   0  0  0  0  0  3  0  0  0  0  0  0
  191.6470  174.5560  142.7040 N   0  0  0  0  0  0  0  0  0  0  0  0
  195.7980  175.4410  144.3360 O   0  0  0  0  0  0  0  0  0  0  0  0
  196.3400  176.6890  144.0150 C   0  0  0  0  0  2  0  0  0  0  0  0
  197.3250  174.3750  141.8970 O   0  0  0  0  0  0  0  0  0  0  0  0
  196.4770  176.5470  141.5500 C   0  0  0  0  0  2  0  0  0  0  0  0
  197.2720  176.5580  142.8230 C   0  0  2  0  0  3  0  0  0  0  0  0
  196.8620  175.2410  140.8990 C   0  0  0  0  0  2  0  0  0  0  0  0
  197.9400  175.2020  142.8490 C   0  0  0  0  0  2  0  0  0  0  0  0
  1 27  1  0  0  0  0
  1 18  2  0  0  0  0
  2 27  1  0  0  0  0
  2 14  1  0  0  0  0
  3  7  1  1  0  0  0
  4 18  1  0  0  0  0
  4 15  2  0  0  0  0
  5 11  2  0  0  0  0
  5 19  1  0  0  0  0
  6  7  1  0  0  0  0
  8 16  1  0  0  0  0
  9 25  1  0  0  0  0
  9 13  2  0  0  0  0
 10 22  1  0  0  0  0
 12 15  1  0  0  0  0
 12  8  1  0  0  0  0
 13 24  1  0  0  0  0
 15  5  1  0  0  0  0
 16  3  1  0  0  0  0
 17 28  1  1  0  0  0
 17 10  1  0  0  0  0
 18 20  1  0  0  0  0
 19  3  1  0  0  0  0
 19  6  1  1  0  0  0
 20 13  1  0  0  0  0
 20 11  1  0  0  0  0
 21 26  2  0  0  0  0
 21 23  1  0  0  0  0
 23  4  1  0  0  0  0
 24 22  2  0  0  0  0
 25 14  1  6  0  0  0
 25 17  1  0  0  0  0
 26  1  1  0  0  0  0
 27  9  1  0  0  0  0
 29 28  1  0  0  0  0
 30 34  1  0  0  0  0
 31 32  1  0  0  0  0
 32 34  1  0  0  0  0
 32 29  1  1  0  0  0
 33 31  1  0  0  0  0
 33 30  1  0  0  0  0
M  END
>  <MODEL>
2

>  <REMARK>
 VINA RESULT:      -8.4      1.553      1.872
  Name = 
  3 active torsions:
  status: ('A' for Active; 'I' for Inactive)
    1  A    between atoms: C_17  and  O_28
    2  A    between atoms: O_28  and  C_29
    3  A    between atoms: C_29  and  C_32
                            x       y       z     vdW  Elec       q    Type
                         _______ _______ _______ _____ _____    ______ ____

>  <TORSDO>
F 3

$$$$
=
 OpenBabel11112417523D

 34 41  0  0  1  0  0  0  0  0999 V2000
  189.4320  174.8800  142.0090 C   0  0  0  0  0  0  0  0  0  0  0  0
  187.0720  175.6710  142.6460 C   0  0  0  0  0  2  0  0  0  0  0  0
  195.7000  174.8590  142.7430 C   0  0  1  0  0  3  0  0  0  0  0  0
  191.7110  174.1480  141.5600 C   0  0  0  0  0  0  0  0  0  0  0  0
  193.3590  174.6810  143.3000 C   0  0  0  0  0  0  0  0  0  0  0  0
  195.3860  175.4640  144.7570 C   0  0  0  0  0  2  0  0  0  0  0  0
  196.5330  175.6080  143.7580 C   0  0  0  0  0  2  0  0  0  0  0  0
  195.2250  172.7720  141.6620 C   0  0  0  0  0  2  0  0  0  0  0  0
  188.8780  176.1040  144.1100 C   0  0  0  0  0  0  0  0  0  0  0  0
  188.5430  177.4460  146.9300 C   0  0  0  0  0  2  0  0  0  0  0  0
  192.4610  175.2370  144.0640 N   0  0  0  0  0  0  0  0  0  0  0  0
  194.0320  173.5100  141.0050 C   0  0  0  0  0  2  0  0  0  0  0  0
  190.1560  176.0130  144.5420 C   0  0  0  0  0  0  0  0  0  0  0  0
  186.5170  176.2610  143.9460 C   0  0  0  0  0  2  0  0  0  0  0  0
  192.9880  174.0740  141.9700 C   0  0  0  0  0  0  0  0  0  0  0  0
  196.2960  173.6670  142.1530 N   0  0  0  0  0  2  0  0  0  0  0  0
  187.6250  176.4630  146.2380 C   0  0  2  0  0  3  0  0  0  0  0  0
  190.7070  174.8000  142.4120 C   0  0  0  0  0  0  0  0  0  0  0  0
  194.7360  174.4600  143.8260 C   0  0  2  0  0  3  0  0  0  0  0  0
  191.1130  175.3600  143.6740 N   0  0  0  0  0  0  0  0  0  0  0  0
  189.9090  173.7200  139.9030 C   0  0  0  0  0  3  0  0  0  0  0  0
  189.9770  177.0280  146.8910 C   0  0  0  0  0  3  0  0  0  0  0  0
  191.2860  173.6180  140.2960 N   0  0  0  0  0  2  0  0  0  0  0  0
  190.6360  176.4580  145.8760 C   0  0  0  0  0  3  0  0  0  0  0  0
  187.7200  176.7750  144.7530 C   0  0  1  0  0  3  0  0  0  0  0  0
  189.0170  174.3140  140.7040 C   0  0  0  0  0  3  0  0  0  0  0  0
  188.4950  175.5310  142.8720 N   0  0  0  0  0  0  0  0  0  0  0  0
  186.3220  176.6720  146.7010 O   0  0  0  0  0  0  0  0  0  0  0  0
  186.4080  177.8090  147.5090 C   0  0  0  0  0  2  0  0  0  0  0  0
  185.2470  179.3850  144.8680 O   0  0  0  0  0  0  0  0  0  0  0  0
  184.1710  178.0480  146.4840 C   0  0  0  0  0  2  0  0  0  0  0  0
  185.2930  178.7790  147.1610 C   0  0  2  0  0  3  0  0  0  0  0  0
  184.0300  178.7560  145.1580 C   0  0  0  0  0  2  0  0  0  0  0  0
  185.7790  179.7540  146.1130 C   0  0  0  0  0  2  0  0  0  0  0  0
  1 18  2  0  0  0  0
  1 27  1  0  0  0  0
  2 27  1  0  0  0  0
  2 14  1  0  0  0  0
  3  7  1  1  0  0  0
  3 19  1  0  0  0  0
  4 15  2  0  0  0  0
  4 18  1  0  0  0  0
  5 19  1  0  0  0  0
  5 11  2  0  0  0  0
  7  6  1  0  0  0  0
  8 16  1  0  0  0  0
  9 13  2  0  0  0  0
  9 25  1  0  0  0  0
 12  8  1  0  0  0  0
 12 15  1  0  0  0  0
 13 24  1  0  0  0  0
 15  5  1  0  0  0  0
 16  3  1  0  0  0  0
 17 28  1  1  0  0  0
 17 10  1  0  0  0  0
 18 20  1  0  0  0  0
 19  6  1  1  0  0  0
 20 11  1  0  0  0  0
 20 13  1  0  0  0  0
 21 23  1  0  0  0  0
 21 26  2  0  0  0  0
 22 10  1  0  0  0  0
 23  4  1  0  0  0  0
 24 22  2  0  0  0  0
 25 14  1  6  0  0  0
 25 17  1  0  0  0  0
 26  1  1  0  0  0  0
 27  9  1  0  0  0  0
 28 29  1  0  0  0  0
 30 33  1  0  0  0  0
 30 34  1  0  0  0  0
 31 32  1  0  0  0  0
 32 29  1  6  0  0  0
 33 31  1  0  0  0  0
 34 32  1  0  0  0  0
M  END
>  <MODEL>
3

>  <REMARK>
 VINA RESULT:      -8.2      3.029      8.294
  Name = 
  3 active torsions:
  status: ('A' for Active; 'I' for Inactive)
    1  A    between atoms: C_17  and  O_28
    2  A    between atoms: O_28  and  C_29
    3  A    between atoms: C_29  and  C_32
                            x       y       z     vdW  Elec       q    Type
                         _______ _______ _______ _____ _____    ______ ____

>  <TORSDO>
F 3

$$$$
=
 OpenBabel11112417523D

 34 41  0  0  1  0  0  0  0  0999 V2000
  192.1200  176.2270  145.5520 C   0  0  0  0  0  0  0  0  0  0  0  0
  189.9260  176.5830  146.8390 C   0  0  0  0  0  2  0  0  0  0  0  0
  195.3920  174.1970  140.5510 C   0  0  1  0  0  3  0  0  0  0  0  0
  194.1170  175.9070  144.1940 C   0  0  0  0  0  0  0  0  0  0  0  0
  193.7180  175.3740  141.8300 C   0  0  0  0  0  0  0  0  0  0  0  0
  193.6120  174.3980  139.4050 C   0  0  0  0  0  2  0  0  0  0  0  0
  194.8760  173.5480  139.2870 C   0  0  0  0  0  2  0  0  0  0  0  0
  196.7970  175.8730  141.5350 C   0  0  0  0  0  2  0  0  0  0  0  0
  189.8480  175.9960  144.5500 C   0  0  0  0  0  0  0  0  0  0  0  0
  187.1840  175.8040  142.8970 C   0  0  0  0  0  2  0  0  0  0  0  0
  192.4240  175.4450  141.9700 N   0  0  0  0  0  0  0  0  0  0  0  0
  196.1630  175.4550  142.8850 C   0  0  0  0  0  2  0  0  0  0  0  0
  190.3740  175.7460  143.3290 C   0  0  0  0  0  0  0  0  0  0  0  0
  188.4730  176.6650  146.3630 C   0  0  0  0  0  2  0  0  0  0  0  0
  194.6470  175.6340  142.9910 C   0  0  0  0  0  0  0  0  0  0  0  0
  196.6940  174.8480  140.4730 N   0  0  0  0  0  2  0  0  0  0  0  0
  187.5500  176.7890  143.9850 C   0  0  2  0  0  3  0  0  0  0  0  0
  192.6570  175.9580  144.3540 C   0  0  1  0  0  3  0  0  0  0  0  0
  194.3030  175.2310  140.4660 C   0  0  2  0  0  3  0  0  0  0  0  0
  191.8150  175.7070  143.2140 N   0  0  0  0  0  0  0  0  0  0  0  0
  194.3200  176.4280  146.6150 C   0  0  0  0  0  3  0  0  0  0  0  0
  188.2620  175.6390  141.8750 C   0  0  0  0  0  3  0  0  0  0  0  0
  194.9340  176.1380  145.3510 N   0  0  0  0  0  0  0  0  0  0  0  0
  189.5830  175.5900  142.0800 C   0  0  0  0  0  3  0  0  0  0  0  0
  188.4230  176.0240  144.9660 C   0  0  1  0  0  3  0  0  0  0  0  0
  192.9870  176.4750  146.7280 C   0  0  0  0  0  3  0  0  0  0  0  0
  190.6940  176.2590  145.6560 N   0  0  0  0  0  0  0  0  0  0  0  0
  186.3740  177.2200  144.6060 O   0  0  0  0  0  0  0  0  0  0  0  0
  186.2090  178.5420  144.1830 C   0  0  0  0  0  2  0  0  0  0  0  0
  183.9640  177.9720  146.5170 O   0  0  0  0  0  0  0  0  0  0  0  0
  186.0210  179.1220  146.5800 C   0  0  0  0  0  2  0  0  0  0  0  0
  185.4200  179.3230  145.2190 C   0  0  2  0  0  3  0  0  0  0  0  0
  184.8830  178.5610  147.3960 C   0  0  0  0  0  2  0  0  0  0  0  0
  184.0310  178.7390  145.3440 C   0  0  0  0  0  2  0  0  0  0  0  0
  1 27  1  0  0  0  0
  1 26  2  0  0  0  0
  3  7  1  6  0  0  0
  4 23  1  0  0  0  0
  5 11  2  0  0  0  0
  5 15  1  0  0  0  0
  7  6  1  0  0  0  0
  8 12  1  0  0  0  0
  9 25  1  0  0  0  0
  9 27  1  0  0  0  0
 10 17  1  0  0  0  0
 11 20  1  0  0  0  0
 12 15  1  0  0  0  0
 13  9  2  0  0  0  0
 14  2  1  0  0  0  0
 15  4  2  0  0  0  0
 16  3  1  0  0  0  0
 16  8  1  0  0  0  0
 17 28  1  1  0  0  0
 17 25  1  0  0  0  0
 18  4  1  1  0  0  0
 18  1  1  0  0  0  0
 19  6  1  6  0  0  0
 19  3  1  0  0  0  0
 19  5  1  0  0  0  0
 20 13  1  0  0  0  0
 20 18  1  0  0  0  0
 21 26  1  0  0  0  0
 22 24  2  0  0  0  0
 22 10  1  0  0  0  0
 23 21  2  0  0  0  0
 24 13  1  0  0  0  0
 25 14  1  1  0  0  0
 27  2  1  0  0  0  0
 29 28  1  0  0  0  0
 30 33  1  0  0  0  0
 31 33  1  0  0  0  0
 32 29  1  6  0  0  0
 32 34  1  0  0  0  0
 32 31  1  0  0  0  0
 34 30  1  0  0  0  0
M  END
>  <MODEL>
4

>  <REMARK>
 VINA RESULT:      -8.2      3.311      9.093
  Name = 
  3 active torsions:
  status: ('A' for Active; 'I' for Inactive)
    1  A    between atoms: C_17  and  O_28
    2  A    between atoms: O_28  and  C_29
    3  A    between atoms: C_29  and  C_32
                            x       y       z     vdW  Elec       q    Type
                         _______ _______ _______ _____ _____    ______ ____

>  <TORSDO>
F 3

$$$$
=
 OpenBabel11112417523D

 34 41  0  0  1  0  0  0  0  0999 V2000
  190.8150  175.6160  145.1140 C   0  0  0  0  0  0  0  0  0  0  0  0
  192.6330  174.3360  143.8280 C   0  0  0  0  0  2  0  0  0  0  0  0
  185.3990  178.8430  145.3940 C   0  0  1  0  0  3  0  0  0  0  0  0
  188.9830  176.7750  146.2250 C   0  0  0  0  0  0  0  0  0  0  0  0
  186.9420  177.0580  144.8910 C   0  0  0  0  0  0  0  0  0  0  0  0
  184.8170  177.8670  143.5970 C   0  0  0  0  0  2  0  0  0  0  0  0
  184.4470  179.1870  144.2710 C   0  0  0  0  0  2  0  0  0  0  0  0
  185.6800  177.9690  147.6100 C   0  0  0  0  0  2  0  0  0  0  0  0
  190.5740  174.8090  142.7660 C   0  0  0  0  0  0  0  0  0  0  0  0
  189.8290  173.7910  139.8900 C   0  0  0  0  0  2  0  0  0  0  0  0
  187.4480  176.4230  143.8720 N   0  0  0  0  0  0  0  0  0  0  0  0
  187.2020  178.0740  147.3390 C   0  0  0  0  0  2  0  0  0  0  0  0
  189.2990  175.2570  142.7060 C   0  0  0  0  0  0  0  0  0  0  0  0
  192.6030  173.6160  142.4770 C   0  0  0  0  0  2  0  0  0  0  0  0
  187.7270  177.2440  146.1660 C   0  0  0  0  0  0  0  0  0  0  0  0
  184.8490  178.8350  146.7440 N   0  0  0  0  0  2  0  0  0  0  0  0
  190.6120  173.0780  140.9700 C   0  0  2  0  0  3  0  0  0  0  0  0
  189.5610  176.0840  145.0640 C   0  0  1  0  0  3  0  0  0  0  0  0
  185.4990  177.4340  144.8790 C   0  0  2  0  0  3  0  0  0  0  0  0
  188.7680  175.9290  143.8730 N   0  0  0  0  0  0  0  0  0  0  0  0
  191.1390  176.4170  147.4080 C   0  0  0  0  0  3  0  0  0  0  0  0
  188.5670  174.4070  140.3990 C   0  0  0  0  0  3  0  0  0  0  0  0
  189.8020  176.9380  147.3920 N   0  0  0  0  0  0  0  0  0  0  0  0
  188.3750  175.0370  141.5640 C   0  0  0  0  0  3  0  0  0  0  0  0
  191.3870  174.1580  141.7080 C   0  0  1  0  0  3  0  0  0  0  0  0
  191.6350  175.7860  146.3370 C   0  0  0  0  0  3  0  0  0  0  0  0
  191.3320  174.9570  143.9540 N   0  0  0  0  0  0  0  0  0  0  0  0
  191.4890  172.1760  140.3590 O   0  0  0  0  0  0  0  0  0  0  0  0
  190.7940  170.9640  140.3310 C   0  0  0  0  0  2  0  0  0  0  0  0
  189.8360  171.3960  137.2160 O   0  0  0  0  0  0  0  0  0  0  0  0
  191.9700  171.0590  138.1580 C   0  0  0  0  0  2  0  0  0  0  0  0
  190.9750  170.2940  138.9800 C   0  0  2  0  0  3  0  0  0  0  0  0
  191.2020  171.4200  136.9090 C   0  0  0  0  0  2  0  0  0  0  0  0
  189.6910  170.3950  138.1890 C   0  0  0  0  0  2  0  0  0  0  0  0
  1 26  2  0  0  0  0
  2 27  1  0  0  0  0
  3  7  1  6  0  0  0
  3 16  1  0  0  0  0
  4 23  1  0  0  0  0
  5 15  1  0  0  0  0
  6  7  1  0  0  0  0
  9 27  1  0  0  0  0
 10 22  1  0  0  0  0
 10 17  1  0  0  0  0
 11 20  1  0  0  0  0
 11  5  2  0  0  0  0
 12  8  1  0  0  0  0
 13  9  2  0  0  0  0
 13 20  1  0  0  0  0
 14  2  1  0  0  0  0
 15  4  2  0  0  0  0
 15 12  1  0  0  0  0
 16  8  1  0  0  0  0
 17 28  1  6  0  0  0
 17 25  1  0  0  0  0
 18  1  1  6  0  0  0
 18  4  1  0  0  0  0
 19  6  1  6  0  0  0
 19  5  1  0  0  0  0
 19  3  1  0  0  0  0
 20 18  1  0  0  0  0
 22 24  2  0  0  0  0
 23 21  2  0  0  0  0
 24 13  1  0  0  0  0
 25 14  1  1  0  0  0
 25  9  1  0  0  0  0
 26 21  1  0  0  0  0
 27  1  1  0  0  0  0
 29 28  1  0  0  0  0
 30 34  1  0  0  0  0
 31 32  1  0  0  0  0
 32 29  1  1  0  0  0
 33 30  1  0  0  0  0
 33 31  1  0  0  0  0
 34 32  1  0  0  0  0
M  END
>  <MODEL>
5

>  <REMARK>
 VINA RESULT:      -7.9      3.053      5.456
  Name = 
  3 active torsions:
  status: ('A' for Active; 'I' for Inactive)
    1  A    between atoms: C_17  and  O_28
    2  A    between atoms: O_28  and  C_29
    3  A    between atoms: C_29  and  C_32
                            x       y       z     vdW  Elec       q    Type
                         _______ _______ _______ _____ _____    ______ ____

>  <TORSDO>
F 3

$$$$
=
 OpenBabel11112417523D

 34 41  0  0  1  0  0  0  0  0999 V2000
  192.2820  175.9150  145.3030 C   0  0  0  0  0  0  0  0  0  0  0  0
  190.3640  177.0560  146.5760 C   0  0  0  0  0  2  0  0  0  0  0  0
  194.5110  172.2940  140.6400 C   0  0  1  0  0  3  0  0  0  0  0  0
  194.0140  174.8510  143.9610 C   0  0  0  0  0  0  0  0  0  0  0  0
  193.3080  174.0700  141.7430 C   0  0  0  0  0  0  0  0  0  0  0  0
  192.7620  172.7790  139.5340 C   0  0  0  0  0  2  0  0  0  0  0  0
  193.7470  171.6120  139.5280 C   0  0  0  0  0  2  0  0  0  0  0  0
  196.3770  173.6630  141.2670 C   0  0  0  0  0  2  0  0  0  0  0  0
  189.9580  176.1490  144.4300 C   0  0  0  0  0  0  0  0  0  0  0  0
  187.2160  176.4200  142.9220 C   0  0  0  0  0  2  0  0  0  0  0  0
  192.0920  174.5110  141.9090 N   0  0  0  0  0  0  0  0  0  0  0  0
  195.7630  173.6570  142.6890 C   0  0  0  0  0  2  0  0  0  0  0  0
  190.3030  175.5710  143.2570 C   0  0  0  0  0  0  0  0  0  0  0  0
  188.9500  177.4490  146.1380 C   0  0  0  0  0  2  0  0  0  0  0  0
  194.3600  174.2540  142.8090 C   0  0  0  0  0  0  0  0  0  0  0  0
  195.9280  172.5460  140.4070 N   0  0  0  0  0  2  0  0  0  0  0  0
  187.9100  177.4320  143.8060 C   0  0  2  0  0  3  0  0  0  0  0  0
  192.6350  175.3210  144.1560 C   0  0  1  0  0  3  0  0  0  0  0  0
  193.7270  173.5550  140.4080 C   0  0  2  0  0  3  0  0  0  0  0  0
  191.6710  175.1260  143.1050 N   0  0  0  0  0  0  0  0  0  0  0  0
  194.5340  175.6830  146.2440 C   0  0  0  0  0  3  0  0  0  0  0  0
  188.1300  175.8060  141.9120 C   0  0  0  0  0  3  0  0  0  0  0  0
  194.9500  175.0370  145.0320 N   0  0  0  0  0  0  0  0  0  0  0  0
  189.4050  175.4350  142.0810 C   0  0  0  0  0  3  0  0  0  0  0  0
  188.6270  176.6280  144.8800 C   0  0  1  0  0  3  0  0  0  0  0  0
  193.2730  176.1070  146.3890 C   0  0  0  0  0  3  0  0  0  0  0  0
  190.9260  176.3490  145.4450 N   0  0  0  0  0  0  0  0  0  0  0  0
  186.9390  178.2590  144.3790 O   0  0  0  0  0  0  0  0  0  0  0  0
  185.7450  177.5420  144.2640 C   0  0  0  0  0  2  0  0  0  0  0  0
  185.8190  177.3100  147.5430 O   0  0  0  0  0  0  0  0  0  0  0  0
  185.2860  179.1110  146.1190 C   0  0  0  0  0  2  0  0  0  0  0  0
  184.8440  177.8440  145.4470 C   0  0  2  0  0  3  0  0  0  0  0  0
  185.5620  178.6870  147.5410 C   0  0  0  0  0  2  0  0  0  0  0  0
  185.0290  176.7840  146.5090 C   0  0  0  0  0  2  0  0  0  0  0  0
  1 27  1  0  0  0  0
  1 26  2  0  0  0  0
  3  7  1  6  0  0  0
  4 23  1  0  0  0  0
  5 11  2  0  0  0  0
  5 15  1  0  0  0  0
  7  6  1  0  0  0  0
  8 12  1  0  0  0  0
  9 25  1  0  0  0  0
  9 27  1  0  0  0  0
 10 17  1  0  0  0  0
 11 20  1  0  0  0  0
 12 15  1  0  0  0  0
 13  9  2  0  0  0  0
 14  2  1  0  0  0  0
 15  4  2  0  0  0  0
 16  3  1  0  0  0  0
 16  8  1  0  0  0  0
 17 28  1  1  0  0  0
 17 25  1  0  0  0  0
 18  4  1  1  0  0  0
 18  1  1  0  0  0  0
 19  6  1  6  0  0  0
 19  3  1  0  0  0  0
 19  5  1  0  0  0  0
 20 13  1  0  0  0  0
 20 18  1  0  0  0  0
 21 26  1  0  0  0  0
 22 24  2  0  0  0  0
 22 10  1  0  0  0  0
 23 21  2  0  0  0  0
 24 13  1  0  0  0  0
 25 14  1  1  0  0  0
 27  2  1  0  0  0  0
 29 28  1  0  0  0  0
 31 33  1  0  0  0  0
 32 29  1  6  0  0  0
 32 31  1  0  0  0  0
 32 34  1  0  0  0  0
 33 30  1  0  0  0  0
 34 30  1  0  0  0  0
M  END
>  <MODEL>
6

>  <REMARK>
 VINA RESULT:      -7.8      3.101      8.993
  Name = 
  3 active torsions:
  status: ('A' for Active; 'I' for Inactive)
    1  A    between atoms: C_17  and  O_28
    2  A    between atoms: O_28  and  C_29
    3  A    between atoms: C_29  and  C_32
                            x       y       z     vdW  Elec       q    Type
                         _______ _______ _______ _____ _____    ______ ____

>  <TORSDO>
F 3

$$$$
=
 OpenBabel11112417523D

 34 41  0  0  1  0  0  0  0  0999 V2000
  188.2130  174.9150  140.0690 C   0  0  0  0  0  0  0  0  0  0  0  0
  186.9980  177.1580  140.3700 C   0  0  0  0  0  2  0  0  0  0  0  0
  192.3550  170.5200  141.9020 C   0  0  1  0  0  3  0  0  0  0  0  0
  189.3720  172.7760  139.9450 C   0  0  0  0  0  0  0  0  0  0  0  0
  190.5000  172.0590  142.0050 C   0  0  0  0  0  0  0  0  0  0  0  0
  192.1220  171.2430  143.8880 C   0  0  0  0  0  2  0  0  0  0  0  0
  193.2270  170.5030  143.1360 C   0  0  0  0  0  2  0  0  0  0  0  0
  190.8170  169.3320  140.4970 C   0  0  0  0  0  2  0  0  0  0  0  0
  188.2250  176.2500  142.1760 C   0  0  0  0  0  0  0  0  0  0  0  0
  188.3130  177.5400  145.0380 C   0  0  0  0  0  2  0  0  0  0  0  0
  190.1010  173.1130  142.6610 N   0  0  0  0  0  0  0  0  0  0  0  0
  190.6480  170.6710  139.7360 C   0  0  0  0  0  2  0  0  0  0  0  0
  188.9480  175.3010  142.8130 C   0  0  0  0  0  0  0  0  0  0  0  0
  186.7430  178.0140  141.6140 C   0  0  0  0  0  2  0  0  0  0  0  0
  190.1110  171.8410  140.5630 C   0  0  0  0  0  0  0  0  0  0  0  0
  192.0680  169.2330  141.2810 N   0  0  0  0  0  2  0  0  0  0  0  0
  187.1500  177.4620  144.0740 C   0  0  2  0  0  3  0  0  0  0  0  0
  188.9480  173.9760  140.6790 C   0  0  0  0  0  0  0  0  0  0  0  0
  191.1810  170.9530  142.7360 C   0  0  2  0  0  3  0  0  0  0  0  0
  189.3420  174.1340  142.0550 N   0  0  0  0  0  0  0  0  0  0  0  0
  188.1940  173.6790  137.9520 C   0  0  0  0  0  3  0  0  0  0  0  0
  189.0190  176.2340  145.2030 C   0  0  0  0  0  3  0  0  0  0  0  0
  188.9870  172.6530  138.5680 N   0  0  0  0  0  2  0  0  0  0  0  0
  189.2980  175.3280  144.2580 C   0  0  0  0  0  3  0  0  0  0  0  0
  187.7530  177.5630  142.6810 C   0  0  1  0  0  3  0  0  0  0  0  0
  187.8170  174.7570  138.6490 C   0  0  0  0  0  3  0  0  0  0  0  0
  187.8320  176.0670  140.8270 N   0  0  0  0  0  0  0  0  0  0  0  0
  186.2980  178.5430  144.3190 O   0  0  0  0  0  0  0  0  0  0  0  0
  185.0490  177.9660  144.5650 C   0  0  0  0  0  2  0  0  0  0  0  0
  185.9790  177.1570  147.6130 O   0  0  0  0  0  0  0  0  0  0  0  0
  185.5430  179.2500  146.6190 C   0  0  0  0  0  2  0  0  0  0  0  0
  184.6240  178.2410  145.9960 C   0  0  2  0  0  3  0  0  0  0  0  0
  186.0900  178.5360  147.8320 C   0  0  0  0  0  2  0  0  0  0  0  0
  184.8240  176.9980  146.8320 C   0  0  0  0  0  2  0  0  0  0  0  0
  1 18  2  0  0  0  0
  1 27  1  0  0  0  0
  2 27  1  0  0  0  0
  2 14  1  0  0  0  0
  3 19  1  0  0  0  0
  3  7  1  1  0  0  0
  4 15  2  0  0  0  0
  4 18  1  0  0  0  0
  5 11  2  0  0  0  0
  5 19  1  0  0  0  0
  7  6  1  0  0  0  0
  8 16  1  0  0  0  0
  9 25  1  0  0  0  0
  9 13  2  0  0  0  0
 10 22  1  0  0  0  0
 12  8  1  0  0  0  0
 12 15  1  0  0  0  0
 13 24  1  0  0  0  0
 15  5  1  0  0  0  0
 16  3  1  0  0  0  0
 17 28  1  1  0  0  0
 17 10  1  0  0  0  0
 18 20  1  0  0  0  0
 19  6  1  1  0  0  0
 20 11  1  0  0  0  0
 20 13  1  0  0  0  0
 21 23  1  0  0  0  0
 21 26  2  0  0  0  0
 23  4  1  0  0  0  0
 24 22  2  0  0  0  0
 25 14  1  6  0  0  0
 25 17  1  0  0  0  0
 26  1  1  0  0  0  0
 27  9  1  0  0  0  0
 28 29  1  0  0  0  0
 30 33  1  0  0  0  0
 31 33  1  0  0  0  0
 32 29  1  6  0  0  0
 32 31  1  0  0  0  0
 32 34  1  0  0  0  0
 34 30  1  0  0  0  0
M  END
>  <MODEL>
7

>  <REMARK>
 VINA RESULT:      -7.8      3.983      8.318
  Name = 
  3 active torsions:
  status: ('A' for Active; 'I' for Inactive)
    1  A    between atoms: C_17  and  O_28
    2  A    between atoms: O_28  and  C_29
    3  A    between atoms: C_29  and  C_32
                            x       y       z     vdW  Elec       q    Type
                         _______ _______ _______ _____ _____    ______ ____

>  <TORSDO>
F 3

$$$$
=
 OpenBabel11112417523D

 34 41  0  0  1  0  0  0  0  0999 V2000
  190.3310  172.9820  142.3250 C   0  0  0  0  0  0  0  0  0  0  0  0
  188.0400  174.0760  141.9280 C   0  0  0  0  0  2  0  0  0  0  0  0
  196.2360  173.0450  144.5480 C   0  0  1  0  0  3  0  0  0  0  0  0
  192.5130  172.0310  142.8380 C   0  0  0  0  0  0  0  0  0  0  0  0
  193.8320  173.2450  144.5150 C   0  0  0  0  0  0  0  0  0  0  0  0
  195.6140  174.5320  145.9340 C   0  0  0  0  0  2  0  0  0  0  0  0
  196.9490  174.1460  145.3000 C   0  0  0  0  0  2  0  0  0  0  0  0
  195.6790  170.7160  144.4210 C   0  0  0  0  0  2  0  0  0  0  0  0
  189.5530  175.0670  143.4520 C   0  0  0  0  0  0  0  0  0  0  0  0
  188.8580  177.5810  145.2010 C   0  0  0  0  0  2  0  0  0  0  0  0
  192.8940  174.1300  144.7000 N   0  0  0  0  0  0  0  0  0  0  0  0
  194.7730  171.1110  143.2280 C   0  0  0  0  0  2  0  0  0  0  0  0
  190.6860  175.1340  144.1860 C   0  0  0  0  0  0  0  0  0  0  0  0
  187.3290  175.2260  142.6450 C   0  0  0  0  0  2  0  0  0  0  0  0
  193.6520  172.1030  143.5450 C   0  0  0  0  0  0  0  0  0  0  0  0
  196.7510  171.6920  144.7170 N   0  0  0  0  0  2  0  0  0  0  0  0
  187.9610  176.4280  144.8080 C   0  0  2  0  0  3  0  0  0  0  0  0
  191.4690  173.0460  143.0290 C   0  0  0  0  0  0  0  0  0  0  0  0
  195.0220  173.2370  145.4130 C   0  0  2  0  0  3  0  0  0  0  0  0
  191.6880  174.1130  143.9700 N   0  0  0  0  0  0  0  0  0  0  0  0
  191.0450  170.9550  141.1460 C   0  0  0  0  0  3  0  0  0  0  0  0
  190.1880  177.1350  145.7140 C   0  0  0  0  0  3  0  0  0  0  0  0
  192.2800  170.9910  141.8770 N   0  0  0  0  0  2  0  0  0  0  0  0
  190.9460  176.1300  145.2590 C   0  0  0  0  0  3  0  0  0  0  0  0
  188.4050  176.0070  143.4160 C   0  0  1  0  0  3  0  0  0  0  0  0
  190.1090  171.8900  141.3480 C   0  0  0  0  0  3  0  0  0  0  0  0
  189.3480  173.9990  142.5430 N   0  0  0  0  0  0  0  0  0  0  0  0
  186.6390  176.8830  144.7850 O   0  0  0  0  0  0  0  0  0  0  0  0
  186.7250  178.2470  145.0770 C   0  0  0  0  0  2  0  0  0  0  0  0
  185.5010  178.1170  142.0280 O   0  0  0  0  0  0  0  0  0  0  0  0
  184.4430  178.3060  144.1270 C   0  0  0  0  0  2  0  0  0  0  0  0
  185.7570  179.0260  144.2040 C   0  0  2  0  0  3  0  0  0  0  0  0
  184.2450  178.0790  142.6480 C   0  0  0  0  0  2  0  0  0  0  0  0
  186.2550  179.0330  142.7770 C   0  0  0  0  0  2  0  0  0  0  0  0
  1 27  1  0  0  0  0
  1 18  2  0  0  0  0
  2 27  1  0  0  0  0
  2 14  1  0  0  0  0
  3 16  1  0  0  0  0
  3  7  1  1  0  0  0
  3 19  1  0  0  0  0
  4 18  1  0  0  0  0
  4 15  2  0  0  0  0
  5 11  2  0  0  0  0
  5 19  1  0  0  0  0
  7  6  1  0  0  0  0
  8 16  1  0  0  0  0
  9 13  2  0  0  0  0
 10 22  1  0  0  0  0
 12 15  1  0  0  0  0
 12  8  1  0  0  0  0
 13 24  1  0  0  0  0
 15  5  1  0  0  0  0
 17 28  1  6  0  0  0
 17 10  1  0  0  0  0
 18 20  1  0  0  0  0
 19  6  1  6  0  0  0
 20 13  1  0  0  0  0
 20 11  1  0  0  0  0
 21 26  2  0  0  0  0
 21 23  1  0  0  0  0
 23  4  1  0  0  0  0
 24 22  2  0  0  0  0
 25 14  1  1  0  0  0
 25  9  1  0  0  0  0
 25 17  1  0  0  0  0
 26  1  1  0  0  0  0
 27  9  1  0  0  0  0
 28 29  1  0  0  0  0
 30 33  1  0  0  0  0
 30 34  1  0  0  0  0
 31 32  1  0  0  0  0
 32 29  1  1  0  0  0
 33 31  1  0  0  0  0
 34 32  1  0  0  0  0
M  END
>  <MODEL>
8

>  <REMARK>
 VINA RESULT:      -7.8      3.247      8.630
  Name = 
  3 active torsions:
  status: ('A' for Active; 'I' for Inactive)
    1  A    between atoms: C_17  and  O_28
    2  A    between atoms: O_28  and  C_29
    3  A    between atoms: C_29  and  C_32
                            x       y       z     vdW  Elec       q    Type
                         _______ _______ _______ _____ _____    ______ ____

>  <TORSDO>
F 3

$$$$
=
 OpenBabel11112417523D

 34 41  0  0  1  0  0  0  0  0999 V2000
  187.3770  175.9520  140.3520 C   0  0  0  0  0  0  0  0  0  0  0  0
  188.4720  174.3490  138.6710 C   0  0  0  0  0  2  0  0  0  0  0  0
  185.7790  177.6560  146.2150 C   0  0  1  0  0  3  0  0  0  0  0  0
  186.4500  177.4280  142.0540 C   0  0  0  0  0  0  0  0  0  0  0  0
  187.1570  176.9650  144.3590 C   0  0  0  0  0  0  0  0  0  0  0  0
  187.3940  176.4640  146.9160 C   0  0  0  0  0  2  0  0  0  0  0  0
  186.0750  176.9460  147.5170 C   0  0  0  0  0  2  0  0  0  0  0  0
  185.7940  179.7150  144.9860 C   0  0  0  0  0  2  0  0  0  0  0  0
  188.9230  174.0990  140.9780 C   0  0  0  0  0  0  0  0  0  0  0  0
  190.9650  172.0090  142.1320 C   0  0  0  0  0  2  0  0  0  0  0  0
  187.9270  175.9810  143.9890 N   0  0  0  0  0  0  0  0  0  0  0  0
  185.3830  178.8590  143.7620 C   0  0  0  0  0  2  0  0  0  0  0  0
  188.8710  174.4500  142.2830 C   0  0  0  0  0  0  0  0  0  0  0  0
  189.5660  173.2910  138.8440 C   0  0  0  0  0  2  0  0  0  0  0  0
  186.3740  177.7690  143.3510 C   0  0  0  0  0  0  0  0  0  0  0  0
  185.5010  179.0850  146.2920 N   0  0  0  0  0  2  0  0  0  0  0  0
  191.0620  172.8200  140.8590 C   0  0  2  0  0  3  0  0  0  0  0  0
  187.2970  176.3000  141.6430 C   0  0  0  0  0  0  0  0  0  0  0  0
  187.1990  177.4390  145.7720 C   0  0  2  0  0  3  0  0  0  0  0  0
  188.0280  175.5690  142.6450 N   0  0  0  0  0  0  0  0  0  0  0  0
  185.8300  177.7260  139.6660 C   0  0  0  0  0  3  0  0  0  0  0  0
  190.5740  172.8320  143.3160 C   0  0  0  0  0  3  0  0  0  0  0  0
  185.7130  178.1260  141.0400 N   0  0  0  0  0  2  0  0  0  0  0  0
  189.6800  173.8260  143.3640 C   0  0  0  0  0  3  0  0  0  0  0  0
  189.6390  172.9640  140.3440 C   0  0  1  0  0  3  0  0  0  0  0  0
  186.6150  176.6990  139.3220 C   0  0  0  0  0  3  0  0  0  0  0  0
  188.2100  174.8420  140.0060 N   0  0  0  0  0  0  0  0  0  0  0  0
  191.8460  172.1120  139.9420 O   0  0  0  0  0  0  0  0  0  0  0  0
  191.8440  170.7960  140.4120 C   0  0  0  0  0  2  0  0  0  0  0  0
  189.7240  169.7300  138.1360 O   0  0  0  0  0  0  0  0  0  0  0  0
  191.9130  170.5840  137.9490 C   0  0  0  0  0  2  0  0  0  0  0  0
  191.8200  169.8280  139.2420 C   0  0  2  0  0  3  0  0  0  0  0  0
  190.6690  170.1700  137.2010 C   0  0  0  0  0  2  0  0  0  0  0  0
  190.4710  169.1500  139.1730 C   0  0  0  0  0  2  0  0  0  0  0  0
  1 18  2  0  0  0  0
  2 14  1  0  0  0  0
  2 27  1  0  0  0  0
  3 16  1  0  0  0  0
  3  7  1  1  0  0  0
  4 15  2  0  0  0  0
  5 19  1  0  0  0  0
  6  7  1  0  0  0  0
  8 16  1  0  0  0  0
  9 13  2  0  0  0  0
 10 22  1  0  0  0  0
 11  5  2  0  0  0  0
 12  8  1  0  0  0  0
 13 20  1  0  0  0  0
 13 24  1  0  0  0  0
 15 12  1  0  0  0  0
 15  5  1  0  0  0  0
 17 28  1  6  0  0  0
 17 10  1  0  0  0  0
 18  4  1  0  0  0  0
 18 20  1  0  0  0  0
 19  3  1  0  0  0  0
 19  6  1  1  0  0  0
 20 11  1  0  0  0  0
 21 23  1  0  0  0  0
 22 24  2  0  0  0  0
 23  4  1  0  0  0  0
 25 14  1  6  0  0  0
 25 17  1  0  0  0  0
 25  9  1  0  0  0  0
 26 21  2  0  0  0  0
 26  1  1  0  0  0  0
 27  1  1  0  0  0  0
 27  9  1  0  0  0  0
 28 29  1  0  0  0  0
 30 34  1  0  0  0  0
 31 32  1  0  0  0  0
 32 29  1  1  0  0  0
 33 31  1  0  0  0  0
 33 30  1  0  0  0  0
 34 32  1  0  0  0  0
M  END
>  <MODEL>
9

>  <REMARK>
 VINA RESULT:      -7.7      3.628      5.082
  Name = 
  3 active torsions:
  status: ('A' for Active; 'I' for Inactive)
    1  A    between atoms: C_17  and  O_28
    2  A    between atoms: O_28  and  C_29
    3  A    between atoms: C_29  and  C_32
                            x       y       z     vdW  Elec       q    Type
                         _______ _______ _______ _____ _____    ______ ____

>  <TORSDO>
F 3

$$$$
