=
 OpenBabel11112417173D

 37 43  0  0  1  0  0  0  0  0999 V2000
  195.5450  174.2770  143.3930 C   0  0  0  0  0  0  0  0  0  0  0  0
  192.1950  175.9260  145.2090 C   0  0  0  0  0  0  0  0  0  0  0  0
  188.8050  175.1070  143.6890 O   0  0  0  0  0  0  0  0  0  0  0  0
  194.5740  175.6310  145.3240 C   0  0  0  0  0  0  0  0  0  0  0  0
  191.2160  175.6940  144.2360 C   0  0  0  0  0  0  0  0  0  0  0  0
  193.3770  175.5810  144.6520 C   0  0  0  0  0  0  0  0  0  0  0  0
  189.7180  175.8720  144.4410 C   0  0  0  0  0  0  0  0  0  0  0  0
  194.5660  176.0940  146.6080 N   0  0  0  0  0  0  0  0  0  0  0  0
  193.1730  175.1360  143.3980 C   0  0  0  0  0  0  0  0  0  0  0  0
  195.3370  172.8710  143.9310 C   0  0  0  0  0  1  0  0  0  0  0  0
  190.8960  176.8280  147.1750 C   0  0  0  0  0  2  0  0  0  0  0  0
  193.3930  176.4720  147.2190 C   0  0  0  0  0  3  0  0  0  0  0  0
  194.3130  174.6810  142.5320 C   0  0  0  0  0  2  0  0  0  0  0  0
  188.6390  174.2990  141.3400 C   0  0  1  0  0  3  0  0  0  0  0  0
  189.2660  174.2180  142.7010 C   0  0  1  0  0  3  0  0  0  0  0  0
  192.1620  176.3980  146.5250 C   0  0  0  0  0  0  0  0  0  0  0  0
  191.8540  175.2030  143.1020 N   0  0  0  0  0  0  0  0  0  0  0  0
  195.8280  175.2430  144.5820 C   0  0  0  0  0  2  0  0  0  0  0  0
  189.2040  176.7440  145.3500 C   0  0  0  0  0  0  0  0  0  0  0  0
  196.7640  174.2590  142.4960 C   0  0  0  0  0  1  0  0  0  0  0  0
  189.8730  175.1480  141.6630 C   0  0  1  0  0  3  0  0  0  0  0  0
  191.3100  174.7250  141.8170 C   0  0  0  0  0  2  0  0  0  0  0  0
  190.0740  177.6380  146.1890 C   0  0  0  0  0  2  0  0  0  0  0  0
  187.1700  176.6250  146.7990 C   0  0  0  0  0  3  0  0  0  0  0  0
  187.7400  176.8940  145.5440 C   0  0  0  0  0  0  0  0  0  0  0  0
  186.9120  177.3540  144.5070 C   0  0  0  0  0  3  0  0  0  0  0  0
  184.5220  178.0840  143.4070 Cl  0  0  0  0  0  0  0  0  0  0  0  0
  184.9830  177.2370  145.9630 C   0  0  0  0  0  3  0  0  0  0  0  0
  185.5400  177.5190  144.7130 C   0  0  0  0  0  0  0  0  0  0  0  0
  185.7970  176.7910  147.0070 C   0  0  0  0  0  3  0  0  0  0  0  0
  188.8880  173.0400  140.4860 C   0  0  2  0  0  3  0  0  0  0  0  0
  187.8170  172.6600  139.6730 O   0  0  0  0  0  1  0  0  0  0  0  0
  191.3060  171.4610  140.1560 O   0  0  0  0  0  0  0  0  0  0  0  0
  190.5170  171.1630  141.0910 C   0  0  0  0  0  0  0  0  0  0  0  0
  189.3260  171.9240  141.3180 N   0  0  0  0  0  2  0  0  0  0  0  0
  190.4420  168.8300  141.3220 F   0  0  0  0  0  0  0  0  0  0  0  0
  190.8150  169.9970  141.9640 C   0  0  0  0  0  2  0  0  0  0  0  0
  1 10  1  0  0  0  0
  1 18  1  0  0  0  0
  2 16  1  0  0  0  0
  3  7  1  0  0  0  0
  4  8  2  0  0  0  0
  5  7  1  0  0  0  0
  5  2  2  0  0  0  0
  6  2  1  0  0  0  0
  6  4  1  0  0  0  0
  7 19  2  0  0  0  0
  8 12  1  0  0  0  0
  9  6  2  0  0  0  0
 13  1  1  0  0  0  0
 13  9  1  0  0  0  0
 14 31  1  6  0  0  0
 14 21  1  0  0  0  0
 14 15  1  0  0  0  0
 15  3  1  1  0  0  0
 16 11  1  0  0  0  0
 16 12  2  0  0  0  0
 17  9  1  0  0  0  0
 17  5  1  0  0  0  0
 18  4  1  0  0  0  0
 19 25  1  0  0  0  0
 19 23  1  0  0  0  0
 20  1  1  0  0  0  0
 21 22  1  6  0  0  0
 21 15  1  0  0  0  0
 22 17  1  0  0  0  0
 23 11  1  0  0  0  0
 24 30  1  0  0  0  0
 25 24  2  0  0  0  0
 26 29  2  0  0  0  0
 26 25  1  0  0  0  0
 27 29  1  0  0  0  0
 28 30  2  0  0  0  0
 29 28  1  0  0  0  0
 31 32  1  1  0  0  0
 31 35  1  0  0  0  0
 33 34  2  0  0  0  0
 34 35  1  0  0  0  0
 34 37  1  0  0  0  0
 36 37  1  0  0  0  0
M  END
>  <MODEL>
1

>  <REMARK>
 VINA RESULT:      -8.4      0.000      0.000
  Name = 
  4 active torsions:
  status: ('A' for Active; 'I' for Inactive)
    1  A    between atoms: C_4  and  C_37
    2  A    between atoms: C_8  and  N_12
    3  A    between atoms: C_8  and  C_18
    4  A    between atoms: C_23  and  C_30
                            x       y       z     vdW  Elec       q    Type
                         _______ _______ _______ _____ _____    ______ ____

>  <TORSDO>
F 4

$$$$
=
 OpenBabel11112417173D

 37 43  0  0  1  0  0  0  0  0999 V2000
  190.6340  176.6750  147.0940 C   0  0  0  0  0  0  0  0  0  0  0  0
  186.9850  177.9630  145.5870 C   0  0  0  0  0  0  0  0  0  0  0  0
  185.9690  176.6880  142.1500 O   0  0  0  0  0  0  0  0  0  0  0  0
  188.4660  177.9640  147.4760 C   0  0  0  0  0  0  0  0  0  0  0  0
  187.0960  177.5810  144.2460 C   0  0  0  0  0  0  0  0  0  0  0  0
  188.1960  177.7460  146.1470 C   0  0  0  0  0  0  0  0  0  0  0  0
  185.9530  177.5830  143.2380 C   0  0  0  0  0  0  0  0  0  0  0  0
  187.4640  178.4630  148.2580 N   0  0  0  0  0  0  0  0  0  0  0  0
  189.0350  177.2390  145.2250 C   0  0  0  0  0  0  0  0  0  0  0  0
  190.1690  175.2730  147.4500 C   0  0  0  0  0  1  0  0  0  0  0  0
  184.6020  178.7630  145.7990 C   0  0  0  0  0  2  0  0  0  0  0  0
  186.2160  178.7160  147.7360 C   0  0  0  0  0  3  0  0  0  0  0  0
  190.4590  176.8980  145.5640 C   0  0  0  0  0  2  0  0  0  0  0  0
  187.6820  175.7900  140.5820 C   0  0  1  0  0  3  0  0  0  0  0  0
  187.0660  175.8300  141.9500 C   0  0  1  0  0  3  0  0  0  0  0  0
  185.9420  178.4700  146.3700 C   0  0  0  0  0  0  0  0  0  0  0  0
  188.3960  177.1350  144.0380 N   0  0  0  0  0  0  0  0  0  0  0  0
  189.8660  177.7070  147.9740 C   0  0  0  0  0  2  0  0  0  0  0  0
  184.8830  178.4140  143.3490 C   0  0  0  0  0  0  0  0  0  0  0  0
  192.1080  176.7770  147.4220 C   0  0  0  0  0  1  0  0  0  0  0  0
  188.1960  176.7920  141.6200 C   0  0  1  0  0  3  0  0  0  0  0  0
  189.0390  176.5530  142.8440 C   0  0  0  0  0  2  0  0  0  0  0  0
  184.7660  179.4350  144.4470 C   0  0  0  0  0  2  0  0  0  0  0  0
  184.0330  178.0430  141.0280 C   0  0  0  0  0  3  0  0  0  0  0  0
  183.7740  178.3920  142.3630 C   0  0  0  0  0  0  0  0  0  0  0  0
  182.4500  178.6620  142.7490 C   0  0  0  0  0  3  0  0  0  0  0  0
  179.7720  178.9570  142.3120 Cl  0  0  0  0  0  0  0  0  0  0  0  0
  181.6850  178.2700  140.4860 C   0  0  0  0  0  3  0  0  0  0  0  0
  181.4120  178.6080  141.8150 C   0  0  0  0  0  0  0  0  0  0  0  0
  182.9950  177.9870  140.0920 C   0  0  0  0  0  3  0  0  0  0  0  0
  188.5590  174.5440  140.3530 C   0  0  2  0  0  3  0  0  0  0  0  0
  188.4780  173.9960  139.0690 O   0  0  0  0  0  1  0  0  0  0  0  0
  190.4900  173.3410  142.1630 O   0  0  0  0  0  0  0  0  0  0  0  0
  189.2940  172.9500  142.2140 C   0  0  0  0  0  0  0  0  0  0  0  0
  188.2950  173.5270  141.3660 N   0  0  0  0  0  2  0  0  0  0  0  0
  189.4070  172.1470  144.4160 F   0  0  0  0  0  0  0  0  0  0  0  0
  188.9130  171.8640  143.1550 C   0  0  0  0  0  2  0  0  0  0  0  0
  1 20  1  0  0  0  0
  1 10  1  0  0  0  0
  1 18  1  0  0  0  0
  2  6  1  0  0  0  0
  2 16  1  0  0  0  0
  3  7  1  0  0  0  0
  4 18  1  0  0  0  0
  4  8  2  0  0  0  0
  5  2  2  0  0  0  0
  6  4  1  0  0  0  0
  7 19  2  0  0  0  0
  7  5  1  0  0  0  0
  9 13  1  0  0  0  0
  9  6  2  0  0  0  0
 11 16  1  0  0  0  0
 12  8  1  0  0  0  0
 13  1  1  0  0  0  0
 14 31  1  1  0  0  0
 14 21  1  0  0  0  0
 14 15  1  0  0  0  0
 15  3  1  6  0  0  0
 16 12  2  0  0  0  0
 17  5  1  0  0  0  0
 17  9  1  0  0  0  0
 19 23  1  0  0  0  0
 21 15  1  0  0  0  0
 21 22  1  1  0  0  0
 22 17  1  0  0  0  0
 23 11  1  0  0  0  0
 24 25  1  0  0  0  0
 25 26  2  0  0  0  0
 25 19  1  0  0  0  0
 28 29  2  0  0  0  0
 29 27  1  0  0  0  0
 29 26  1  0  0  0  0
 30 28  1  0  0  0  0
 30 24  2  0  0  0  0
 31 32  1  6  0  0  0
 31 35  1  0  0  0  0
 33 34  2  0  0  0  0
 34 37  1  0  0  0  0
 35 34  1  0  0  0  0
 37 36  1  0  0  0  0
M  END
>  <MODEL>
2

>  <REMARK>
 VINA RESULT:      -8.4      3.305      5.252
  Name = 
  4 active torsions:
  status: ('A' for Active; 'I' for Inactive)
    1  A    between atoms: C_4  and  C_37
    2  A    between atoms: C_8  and  N_12
    3  A    between atoms: C_8  and  C_18
    4  A    between atoms: C_23  and  C_30
                            x       y       z     vdW  Elec       q    Type
                         _______ _______ _______ _____ _____    ______ ____

>  <TORSDO>
F 4

$$$$
=
 OpenBabel11112417173D

 37 43  0  0  1  0  0  0  0  0999 V2000
  192.4900  171.8760  141.8710 C   0  0  0  0  0  0  0  0  0  0  0  0
  189.2630  174.4800  142.0830 C   0  0  0  0  0  0  0  0  0  0  0  0
  189.0940  176.8090  145.0870 O   0  0  0  0  0  0  0  0  0  0  0  0
  190.4050  172.8370  140.7590 C   0  0  0  0  0  0  0  0  0  0  0  0
  189.3530  174.9170  143.4090 C   0  0  0  0  0  0  0  0  0  0  0  0
  190.1700  173.4880  141.9450 C   0  0  0  0  0  0  0  0  0  0  0  0
  188.5660  176.0770  144.0050 C   0  0  0  0  0  0  0  0  0  0  0  0
  189.6500  173.1880  139.6770 N   0  0  0  0  0  0  0  0  0  0  0  0
  190.8200  173.3060  143.1090 C   0  0  0  0  0  0  0  0  0  0  0  0
  193.5100  172.9260  141.4610 C   0  0  0  0  0  1  0  0  0  0  0  0
  187.4430  175.9190  141.0910 C   0  0  0  0  0  2  0  0  0  0  0  0
  188.7030  174.1810  139.7650 C   0  0  0  0  0  3  0  0  0  0  0  0
  191.8910  172.2610  143.2550 C   0  0  0  0  0  2  0  0  0  0  0  0
  190.3720  176.2860  147.1600 C   0  0  1  0  0  3  0  0  0  0  0  0
  190.3210  176.4360  145.6670 C   0  0  1  0  0  3  0  0  0  0  0  0
  188.4820  174.8610  140.9870 C   0  0  0  0  0  0  0  0  0  0  0  0
  190.3340  174.1600  144.0390 N   0  0  0  0  0  0  0  0  0  0  0  0
  191.4270  171.7280  140.7410 C   0  0  0  0  0  2  0  0  0  0  0  0
  187.3560  176.4640  143.5190 C   0  0  0  0  0  0  0  0  0  0  0  0
  193.2130  170.5550  142.0180 C   0  0  0  0  0  1  0  0  0  0  0  0
  190.0080  175.0820  146.2850 C   0  0  1  0  0  3  0  0  0  0  0  0
  190.8910  174.2400  145.4030 C   0  0  0  0  0  2  0  0  0  0  0  0
  186.6740  175.7450  142.3890 C   0  0  0  0  0  2  0  0  0  0  0  0
  186.2980  178.7190  143.3090 C   0  0  0  0  0  3  0  0  0  0  0  0
  186.6100  177.6060  144.1060 C   0  0  0  0  0  0  0  0  0  0  0  0
  186.1600  177.5750  145.4360 C   0  0  0  0  0  3  0  0  0  0  0  0
  184.8880  178.5930  147.6260 Cl  0  0  0  0  0  0  0  0  0  0  0  0
  185.1380  179.7520  145.1660 C   0  0  0  0  0  3  0  0  0  0  0  0
  185.4330  178.6450  145.9650 C   0  0  0  0  0  0  0  0  0  0  0  0
  185.5700  179.7900  143.8370 C   0  0  0  0  0  3  0  0  0  0  0  0
  191.8080  176.3080  147.7180 C   0  0  2  0  0  3  0  0  0  0  0  0
  191.9420  176.9060  148.9740 O   0  0  0  0  0  1  0  0  0  0  0  0
  194.1350  175.0500  146.5120 O   0  0  0  0  0  0  0  0  0  0  0  0
  193.8800  176.2470  146.2180 C   0  0  0  0  0  0  0  0  0  0  0  0
  192.7310  176.9080  146.7590 N   0  0  0  0  0  2  0  0  0  0  0  0
  194.9390  178.2900  145.7630 F   0  0  0  0  0  0  0  0  0  0  0  0
  194.7890  176.9920  145.3080 C   0  0  0  0  0  2  0  0  0  0  0  0
  1 20  1  0  0  0  0
  1 13  1  0  0  0  0
  2  5  2  0  0  0  0
  4  6  1  0  0  0  0
  5  7  1  0  0  0  0
  5 17  1  0  0  0  0
  6  2  1  0  0  0  0
  6  9  2  0  0  0  0
  7  3  1  0  0  0  0
  8 12  1  0  0  0  0
  8  4  2  0  0  0  0
  9 13  1  0  0  0  0
  9 17  1  0  0  0  0
 10  1  1  0  0  0  0
 11 23  1  0  0  0  0
 12 16  2  0  0  0  0
 14 31  1  6  0  0  0
 15  3  1  1  0  0  0
 15 21  1  0  0  0  0
 15 14  1  0  0  0  0
 16 11  1  0  0  0  0
 16  2  1  0  0  0  0
 17 22  1  0  0  0  0
 18  4  1  0  0  0  0
 18  1  1  0  0  0  0
 19  7  2  0  0  0  0
 19 25  1  0  0  0  0
 21 22  1  6  0  0  0
 21 14  1  0  0  0  0
 23 19  1  0  0  0  0
 24 30  2  0  0  0  0
 24 25  1  0  0  0  0
 25 26  2  0  0  0  0
 26 29  1  0  0  0  0
 28 29  2  0  0  0  0
 29 27  1  0  0  0  0
 30 28  1  0  0  0  0
 31 32  1  1  0  0  0
 34 33  2  0  0  0  0
 34 35  1  0  0  0  0
 35 31  1  0  0  0  0
 37 36  1  0  0  0  0
 37 34  1  0  0  0  0
M  END
>  <MODEL>
3

>  <REMARK>
 VINA RESULT:      -8.4      3.155      5.860
  Name = 
  4 active torsions:
  status: ('A' for Active; 'I' for Inactive)
    1  A    between atoms: C_4  and  C_37
    2  A    between atoms: C_8  and  N_12
    3  A    between atoms: C_8  and  C_18
    4  A    between atoms: C_23  and  C_30
                            x       y       z     vdW  Elec       q    Type
                         _______ _______ _______ _____ _____    ______ ____

>  <TORSDO>
F 4

$$$$
=
 OpenBabel11112417173D

 37 43  0  0  1  0  0  0  0  0999 V2000
  186.6490  177.2330  143.1880 C   0  0  0  0  0  0  0  0  0  0  0  0
  190.0810  176.0170  145.1830 C   0  0  0  0  0  0  0  0  0  0  0  0
  192.6470  174.0350  143.1930 O   0  0  0  0  0  0  0  0  0  0  0  0
  188.0540  177.2940  145.3160 C   0  0  0  0  0  0  0  0  0  0  0  0
  190.6030  175.0830  144.2810 C   0  0  0  0  0  0  0  0  0  0  0  0
  188.8600  176.3590  144.7150 C   0  0  0  0  0  0  0  0  0  0  0  0
  191.9950  174.4690  144.3640 C   0  0  0  0  0  0  0  0  0  0  0  0
  188.4980  177.8740  146.4700 N   0  0  0  0  0  0  0  0  0  0  0  0
  188.6150  175.6990  143.5680 C   0  0  0  0  0  0  0  0  0  0  0  0
  187.3130  178.3540  142.4060 C   0  0  0  0  0  1  0  0  0  0  0  0
  191.8770  176.2340  146.9430 C   0  0  0  0  0  2  0  0  0  0  0  0
  189.7260  177.5510  146.9990 C   0  0  0  0  0  3  0  0  0  0  0  0
  187.3270  175.8820  142.8180 C   0  0  0  0  0  2  0  0  0  0  0  0
  191.9880  172.8740  141.0910 C   0  0  1  0  0  3  0  0  0  0  0  0
  191.9960  174.1060  141.9480 C   0  0  1  0  0  3  0  0  0  0  0  0
  190.5590  176.6010  146.3610 C   0  0  0  0  0  0  0  0  0  0  0  0
  189.6620  174.8930  143.2760 N   0  0  0  0  0  0  0  0  0  0  0  0
  186.7010  177.5690  144.7090 C   0  0  0  0  0  2  0  0  0  0  0  0
  192.6630  174.3330  145.5400 C   0  0  0  0  0  0  0  0  0  0  0  0
  185.1960  177.1660  142.7670 C   0  0  0  0  0  1  0  0  0  0  0  0
  190.8590  173.1090  142.0990 C   0  0  1  0  0  3  0  0  0  0  0  0
  189.7140  174.0850  142.0430 C   0  0  0  0  0  2  0  0  0  0  0  0
  192.0620  174.7290  146.8600 C   0  0  0  0  0  2  0  0  0  0  0  0
  195.1470  174.5820  145.6770 C   0  0  0  0  0  3  0  0  0  0  0  0
  194.0240  173.7430  145.5980 C   0  0  0  0  0  0  0  0  0  0  0  0
  194.2140  172.3510  145.6300 C   0  0  0  0  0  3  0  0  0  0  0  0
  195.7180  170.0760  145.7440 Cl  0  0  0  0  0  0  0  0  0  0  0  0
  196.6100  172.6570  145.7810 C   0  0  0  0  0  3  0  0  0  0  0  0
  195.5000  171.8110  145.7150 C   0  0  0  0  0  0  0  0  0  0  0  0
  196.4340  174.0430  145.7630 C   0  0  0  0  0  3  0  0  0  0  0  0
  191.6500  173.1680  139.6170 C   0  0  2  0  0  3  0  0  0  0  0  0
  191.3210  172.0440  138.8530 O   0  0  0  0  0  1  0  0  0  0  0  0
  191.5460  174.4910  137.0310 O   0  0  0  0  0  0  0  0  0  0  0  0
  192.6190  174.5400  137.6870 C   0  0  0  0  0  0  0  0  0  0  0  0
  192.7180  173.9310  138.9780 N   0  0  0  0  0  2  0  0  0  0  0  0
  193.4410  176.4820  136.6590 F   0  0  0  0  0  0  0  0  0  0  0  0
  193.8050  175.2260  137.1100 C   0  0  0  0  0  2  0  0  0  0  0  0
  1 18  1  0  0  0  0
  2 16  1  0  0  0  0
  3  7  1  0  0  0  0
  4  8  2  0  0  0  0
  5  7  1  0  0  0  0
  5  2  2  0  0  0  0
  6  2  1  0  0  0  0
  6  4  1  0  0  0  0
  7 19  2  0  0  0  0
  8 12  1  0  0  0  0
  9  6  2  0  0  0  0
 10  1  1  0  0  0  0
 13  1  1  0  0  0  0
 13  9  1  0  0  0  0
 14 31  1  6  0  0  0
 14 15  1  0  0  0  0
 14 21  1  0  0  0  0
 15 21  1  0  0  0  0
 15  3  1  1  0  0  0
 16 11  1  0  0  0  0
 16 12  2  0  0  0  0
 17  9  1  0  0  0  0
 17  5  1  0  0  0  0
 18  4  1  0  0  0  0
 19 25  1  0  0  0  0
 19 23  1  0  0  0  0
 20  1  1  0  0  0  0
 21 22  1  6  0  0  0
 22 17  1  0  0  0  0
 23 11  1  0  0  0  0
 24 30  1  0  0  0  0
 25 26  1  0  0  0  0
 25 24  2  0  0  0  0
 26 29  2  0  0  0  0
 29 27  1  0  0  0  0
 29 28  1  0  0  0  0
 30 28  2  0  0  0  0
 31 32  1  6  0  0  0
 33 34  2  0  0  0  0
 34 35  1  0  0  0  0
 35 31  1  0  0  0  0
 36 37  1  0  0  0  0
 37 34  1  0  0  0  0
M  END
>  <MODEL>
4

>  <REMARK>
 VINA RESULT:      -8.0      3.649      6.875
  Name = 
  4 active torsions:
  status: ('A' for Active; 'I' for Inactive)
    1  A    between atoms: C_4  and  C_37
    2  A    between atoms: C_8  and  N_12
    3  A    between atoms: C_8  and  C_18
    4  A    between atoms: C_23  and  C_30
                            x       y       z     vdW  Elec       q    Type
                         _______ _______ _______ _____ _____    ______ ____

>  <TORSDO>
F 4

$$$$
=
 OpenBabel11112417173D

 37 43  0  0  1  0  0  0  0  0999 V2000
  195.3950  174.0280  143.3610 C   0  0  0  0  0  0  0  0  0  0  0  0
  192.1150  175.8650  145.1230 C   0  0  0  0  0  0  0  0  0  0  0  0
  188.6920  175.1250  143.6370 O   0  0  0  0  0  0  0  0  0  0  0  0
  194.4810  175.4840  145.2450 C   0  0  0  0  0  0  0  0  0  0  0  0
  191.1260  175.6370  144.1600 C   0  0  0  0  0  0  0  0  0  0  0  0
  193.2820  175.4570  144.5770 C   0  0  0  0  0  0  0  0  0  0  0  0
  189.6360  175.8810  144.3600 C   0  0  0  0  0  0  0  0  0  0  0  0
  194.4940  175.9900  146.5130 N   0  0  0  0  0  0  0  0  0  0  0  0
  193.0570  174.9760  143.3400 C   0  0  0  0  0  0  0  0  0  0  0  0
  195.1350  172.6500  143.9470 C   0  0  0  0  0  1  0  0  0  0  0  0
  190.8560  176.8830  147.0590 C   0  0  0  0  0  2  0  0  0  0  0  0
  193.3380  176.4340  147.1120 C   0  0  0  0  0  3  0  0  0  0  0  0
  194.1770  174.4490  142.4880 C   0  0  0  0  0  2  0  0  0  0  0  0
  188.4900  174.2440  141.3160 C   0  0  1  0  0  3  0  0  0  0  0  0
  189.1170  174.1860  142.6780 C   0  0  1  0  0  3  0  0  0  0  0  0
  192.1030  176.3830  146.4220 C   0  0  0  0  0  0  0  0  0  0  0  0
  191.7420  175.0840  143.0430 N   0  0  0  0  0  0  0  0  0  0  0  0
  195.7180  175.0230  144.5160 C   0  0  0  0  0  2  0  0  0  0  0  0
  189.1580  176.8020  145.2400 C   0  0  0  0  0  0  0  0  0  0  0  0
  196.6100  173.9320  142.4640 C   0  0  0  0  0  1  0  0  0  0  0  0
  189.7560  175.0550  141.6080 C   0  0  1  0  0  3  0  0  0  0  0  0
  191.1770  174.5840  141.7750 C   0  0  0  0  0  2  0  0  0  0  0  0
  190.0630  177.6910  146.0460 C   0  0  0  0  0  2  0  0  0  0  0  0
  187.0790  176.5740  146.6080 C   0  0  0  0  0  3  0  0  0  0  0  0
  187.7020  177.0150  145.4290 C   0  0  0  0  0  0  0  0  0  0  0  0
  186.9350  177.7000  144.4720 C   0  0  0  0  0  3  0  0  0  0  0  0
  184.6300  178.7670  143.4720 Cl  0  0  0  0  0  0  0  0  0  0  0  0
  184.9600  177.4650  145.8510 C   0  0  0  0  0  3  0  0  0  0  0  0
  185.5700  177.9190  144.6790 C   0  0  0  0  0  0  0  0  0  0  0  0
  185.7130  176.7930  146.8170 C   0  0  0  0  0  3  0  0  0  0  0  0
  188.6890  172.9480  140.5060 C   0  0  2  0  0  3  0  0  0  0  0  0
  189.2000  171.8710  141.2360 O   0  0  0  0  0  1  0  0  0  0  0  0
  187.8150  174.1950  138.0300 O   0  0  0  0  0  0  0  0  0  0  0  0
  189.0050  173.7910  138.1110 C   0  0  0  0  0  0  0  0  0  0  0  0
  189.4970  173.1960  139.3160 N   0  0  0  0  0  2  0  0  0  0  0  0
  189.4610  174.9370  136.1160 F   0  0  0  0  0  0  0  0  0  0  0  0
  189.9090  173.9180  136.9380 C   0  0  0  0  0  2  0  0  0  0  0  0
  1 10  1  0  0  0  0
  1 18  1  0  0  0  0
  2 16  1  0  0  0  0
  3  7  1  0  0  0  0
  4  8  2  0  0  0  0
  5  7  1  0  0  0  0
  5  2  2  0  0  0  0
  6  2  1  0  0  0  0
  6  4  1  0  0  0  0
  7 19  2  0  0  0  0
  8 12  1  0  0  0  0
  9  6  2  0  0  0  0
 13  9  1  0  0  0  0
 13  1  1  0  0  0  0
 14 31  1  6  0  0  0
 14 21  1  0  0  0  0
 14 15  1  0  0  0  0
 15  3  1  1  0  0  0
 16 11  1  0  0  0  0
 16 12  2  0  0  0  0
 17  9  1  0  0  0  0
 17  5  1  0  0  0  0
 18  4  1  0  0  0  0
 19 25  1  0  0  0  0
 19 23  1  0  0  0  0
 20  1  1  0  0  0  0
 21 22  1  6  0  0  0
 21 15  1  0  0  0  0
 22 17  1  0  0  0  0
 23 11  1  0  0  0  0
 24 30  1  0  0  0  0
 25 24  2  0  0  0  0
 26 29  2  0  0  0  0
 26 25  1  0  0  0  0
 27 29  1  0  0  0  0
 28 30  2  0  0  0  0
 29 28  1  0  0  0  0
 31 32  1  1  0  0  0
 33 34  2  0  0  0  0
 34 35  1  0  0  0  0
 35 31  1  0  0  0  0
 36 37  1  0  0  0  0
 37 34  1  0  0  0  0
M  END
>  <MODEL>
5

>  <REMARK>
 VINA RESULT:      -7.9      1.692      2.090
  Name = 
  4 active torsions:
  status: ('A' for Active; 'I' for Inactive)
    1  A    between atoms: C_4  and  C_37
    2  A    between atoms: C_8  and  N_12
    3  A    between atoms: C_8  and  C_18
    4  A    between atoms: C_23  and  C_30
                            x       y       z     vdW  Elec       q    Type
                         _______ _______ _______ _____ _____    ______ ____

>  <TORSDO>
F 4

$$$$
=
 OpenBabel11112417173D

 37 43  0  0  1  0  0  0  0  0999 V2000
  186.2830  177.4940  143.2530 C   0  0  0  0  0  0  0  0  0  0  0  0
  189.7130  175.9620  145.0210 C   0  0  0  0  0  0  0  0  0  0  0  0
  191.9270  173.7230  142.8860 O   0  0  0  0  0  0  0  0  0  0  0  0
  187.8350  177.4330  145.2770 C   0  0  0  0  0  0  0  0  0  0  0  0
  190.0780  174.9750  144.0990 C   0  0  0  0  0  0  0  0  0  0  0  0
  188.5020  176.4190  144.6350 C   0  0  0  0  0  0  0  0  0  0  0  0
  191.4050  174.2290  144.0930 C   0  0  0  0  0  0  0  0  0  0  0  0
  188.4140  177.9760  146.3880 N   0  0  0  0  0  0  0  0  0  0  0  0
  188.1130  175.7770  143.5170 C   0  0  0  0  0  0  0  0  0  0  0  0
  186.9960  178.5380  142.4100 C   0  0  0  0  0  1  0  0  0  0  0  0
  191.6420  176.0160  146.6480 C   0  0  0  0  0  2  0  0  0  0  0  0
  189.6390  177.5380  146.8340 C   0  0  0  0  0  3  0  0  0  0  0  0
  186.7990  176.0800  142.8560 C   0  0  0  0  0  2  0  0  0  0  0  0
  191.0110  172.6160  140.8520 C   0  0  1  0  0  3  0  0  0  0  0  0
  191.1990  173.8490  141.6880 C   0  0  1  0  0  3  0  0  0  0  0  0
  190.3290  176.5060  146.1540 C   0  0  0  0  0  0  0  0  0  0  0  0
  189.0530  174.8700  143.1650 N   0  0  0  0  0  0  0  0  0  0  0  0
  186.4760  177.8350  144.7610 C   0  0  0  0  0  2  0  0  0  0  0  0
  192.1390  174.0360  145.2220 C   0  0  0  0  0  0  0  0  0  0  0  0
  184.8050  177.5660  142.9350 C   0  0  0  0  0  1  0  0  0  0  0  0
  189.9850  172.9680  141.9340 C   0  0  1  0  0  3  0  0  0  0  0  0
  188.9390  174.0510  141.9430 C   0  0  0  0  0  2  0  0  0  0  0  0
  191.6740  174.5000  146.5740 C   0  0  0  0  0  2  0  0  0  0  0  0
  193.4580  171.9200  145.0460 C   0  0  0  0  0  3  0  0  0  0  0  0
  193.4370  173.3160  145.1940 C   0  0  0  0  0  0  0  0  0  0  0  0
  194.6570  174.0100  145.2580 C   0  0  0  0  0  3  0  0  0  0  0  0
  197.3790  174.2010  145.2900 Cl  0  0  0  0  0  0  0  0  0  0  0  0
  195.8780  171.9300  145.0650 C   0  0  0  0  0  3  0  0  0  0  0  0
  195.8700  173.3200  145.2000 C   0  0  0  0  0  0  0  0  0  0  0  0
  194.6720  171.2290  144.9870 C   0  0  0  0  0  3  0  0  0  0  0  0
  190.6000  172.9310  139.4010 C   0  0  2  0  0  3  0  0  0  0  0  0
  190.0340  171.8580  138.7050 O   0  0  0  0  0  1  0  0  0  0  0  0
  190.4570  174.4000  136.8970 O   0  0  0  0  0  0  0  0  0  0  0  0
  191.5890  174.1920  137.4070 C   0  0  0  0  0  0  0  0  0  0  0  0
  191.7170  173.4990  138.6530 N   0  0  0  0  0  2  0  0  0  0  0  0
  193.1150  175.9480  137.1010 F   0  0  0  0  0  0  0  0  0  0  0  0
  192.8120  174.6570  136.7020 C   0  0  0  0  0  2  0  0  0  0  0  0
  1 18  1  0  0  0  0
  2 16  1  0  0  0  0
  3  7  1  0  0  0  0
  4  8  2  0  0  0  0
  5  2  2  0  0  0  0
  6  2  1  0  0  0  0
  6  4  1  0  0  0  0
  7  5  1  0  0  0  0
  7 19  2  0  0  0  0
  8 12  1  0  0  0  0
  9  6  2  0  0  0  0
 10  1  1  0  0  0  0
 13  1  1  0  0  0  0
 13  9  1  0  0  0  0
 14 31  1  6  0  0  0
 14 15  1  0  0  0  0
 14 21  1  0  0  0  0
 15 21  1  0  0  0  0
 15  3  1  1  0  0  0
 16 11  1  0  0  0  0
 16 12  2  0  0  0  0
 17  9  1  0  0  0  0
 17  5  1  0  0  0  0
 18  4  1  0  0  0  0
 19 23  1  0  0  0  0
 20  1  1  0  0  0  0
 21 22  1  6  0  0  0
 22 17  1  0  0  0  0
 23 11  1  0  0  0  0
 24 25  1  0  0  0  0
 25 19  1  0  0  0  0
 25 26  2  0  0  0  0
 28 29  2  0  0  0  0
 29 26  1  0  0  0  0
 29 27  1  0  0  0  0
 30 24  2  0  0  0  0
 30 28  1  0  0  0  0
 31 32  1  6  0  0  0
 33 34  2  0  0  0  0
 34 35  1  0  0  0  0
 35 31  1  0  0  0  0
 37 36  1  0  0  0  0
 37 34  1  0  0  0  0
M  END
>  <MODEL>
6

>  <REMARK>
 VINA RESULT:      -7.6      3.531      6.790
  Name = 
  4 active torsions:
  status: ('A' for Active; 'I' for Inactive)
    1  A    between atoms: C_4  and  C_37
    2  A    between atoms: C_8  and  N_12
    3  A    between atoms: C_8  and  C_18
    4  A    between atoms: C_23  and  C_30
                            x       y       z     vdW  Elec       q    Type
                         _______ _______ _______ _____ _____    ______ ____

>  <TORSDO>
F 4

$$$$
=
 OpenBabel11112417173D

 37 43  0  0  1  0  0  0  0  0999 V2000
  195.8700  173.3890  144.0440 C   0  0  0  0  0  0  0  0  0  0  0  0
  192.4430  175.5610  144.9240 C   0  0  0  0  0  0  0  0  0  0  0  0
  189.3440  174.8540  142.8340 O   0  0  0  0  0  0  0  0  0  0  0  0
  194.7030  175.0720  145.5650 C   0  0  0  0  0  0  0  0  0  0  0  0
  191.6530  175.2900  143.8010 C   0  0  0  0  0  0  0  0  0  0  0  0
  193.6640  175.0400  144.6680 C   0  0  0  0  0  0  0  0  0  0  0  0
  190.1740  175.6290  143.6680 C   0  0  0  0  0  0  0  0  0  0  0  0
  194.4980  175.7020  146.7590 N   0  0  0  0  0  0  0  0  0  0  0  0
  193.6580  174.4510  143.4580 C   0  0  0  0  0  0  0  0  0  0  0  0
  195.4010  172.0920  144.6830 C   0  0  0  0  0  1  0  0  0  0  0  0
  190.8970  176.8320  146.4620 C   0  0  0  0  0  2  0  0  0  0  0  0
  193.2800  176.2630  147.0650 C   0  0  0  0  0  3  0  0  0  0  0  0
  194.8850  173.7830  142.9060 C   0  0  0  0  0  2  0  0  0  0  0  0
  189.5490  173.7570  140.6080 C   0  0  1  0  0  3  0  0  0  0  0  0
  189.8840  173.8020  142.0700 C   0  0  1  0  0  3  0  0  0  0  0  0
  192.2080  176.2070  146.1430 C   0  0  0  0  0  0  0  0  0  0  0  0
  192.4390  174.5960  142.8880 N   0  0  0  0  0  0  0  0  0  0  0  0
  196.0250  174.4770  145.1500 C   0  0  0  0  0  2  0  0  0  0  0  0
  189.5970  176.6560  144.3460 C   0  0  0  0  0  0  0  0  0  0  0  0
  197.2310  173.1420  143.4290 C   0  0  0  0  0  1  0  0  0  0  0  0
  190.7850  174.5260  141.0830 C   0  0  1  0  0  3  0  0  0  0  0  0
  192.1060  174.0010  141.5800 C   0  0  0  0  0  2  0  0  0  0  0  0
  190.3830  177.5740  145.2410 C   0  0  0  0  0  2  0  0  0  0  0  0
  187.6390  177.3910  142.9760 C   0  0  0  0  0  3  0  0  0  0  0  0
  188.1510  176.9630  144.2120 C   0  0  0  0  0  0  0  0  0  0  0  0
  187.2650  176.7810  145.2870 C   0  0  0  0  0  3  0  0  0  0  0  0
  184.8140  176.8220  146.4890 Cl  0  0  0  0  0  0  0  0  0  0  0  0
  185.4060  177.4820  143.9050 C   0  0  0  0  0  3  0  0  0  0  0  0
  185.9010  177.0450  145.1360 C   0  0  0  0  0  0  0  0  0  0  0  0
  186.2740  177.6550  142.8240 C   0  0  0  0  0  3  0  0  0  0  0  0
  189.8130  172.3780  139.9730 C   0  0  2  0  0  3  0  0  0  0  0  0
  188.9060  172.0060  138.9760 O   0  0  0  0  0  1  0  0  0  0  0  0
  191.7450  170.2090  140.0880 O   0  0  0  0  0  0  0  0  0  0  0  0
  190.8660  170.2790  140.9880 C   0  0  0  0  0  0  0  0  0  0  0  0
  189.9070  171.3410  140.9970 N   0  0  0  0  0  2  0  0  0  0  0  0
  191.9570  168.4630  141.9960 F   0  0  0  0  0  0  0  0  0  0  0  0
  190.8110  169.2370  142.0470 C   0  0  0  0  0  2  0  0  0  0  0  0
  1 10  1  0  0  0  0
  1 18  1  0  0  0  0
  2 16  1  0  0  0  0
  3  7  1  0  0  0  0
  4  8  2  0  0  0  0
  5  2  2  0  0  0  0
  6  2  1  0  0  0  0
  6  4  1  0  0  0  0
  7  5  1  0  0  0  0
  7 19  2  0  0  0  0
  8 12  1  0  0  0  0
  9  6  2  0  0  0  0
 13  9  1  0  0  0  0
 13  1  1  0  0  0  0
 14 31  1  6  0  0  0
 14 21  1  0  0  0  0
 14 15  1  0  0  0  0
 15  3  1  1  0  0  0
 16 11  1  0  0  0  0
 16 12  2  0  0  0  0
 17  9  1  0  0  0  0
 17  5  1  0  0  0  0
 18  4  1  0  0  0  0
 19 23  1  0  0  0  0
 20  1  1  0  0  0  0
 21 22  1  6  0  0  0
 21 15  1  0  0  0  0
 22 17  1  0  0  0  0
 23 11  1  0  0  0  0
 24 25  1  0  0  0  0
 25 19  1  0  0  0  0
 25 26  2  0  0  0  0
 28 29  2  0  0  0  0
 29 26  1  0  0  0  0
 29 27  1  0  0  0  0
 30 24  2  0  0  0  0
 30 28  1  0  0  0  0
 31 32  1  6  0  0  0
 31 35  1  0  0  0  0
 33 34  2  0  0  0  0
 34 35  1  0  0  0  0
 34 37  1  0  0  0  0
 36 37  1  0  0  0  0
M  END
>  <MODEL>
7

>  <REMARK>
 VINA RESULT:      -7.3      1.156      1.509
  Name = 
  4 active torsions:
  status: ('A' for Active; 'I' for Inactive)
    1  A    between atoms: C_4  and  C_37
    2  A    between atoms: C_8  and  N_12
    3  A    between atoms: C_8  and  C_18
    4  A    between atoms: C_23  and  C_30
                            x       y       z     vdW  Elec       q    Type
                         _______ _______ _______ _____ _____    ______ ____

>  <TORSDO>
F 4

$$$$
=
 OpenBabel11112417173D

 37 43  0  0  1  0  0  0  0  0999 V2000
  189.9440  175.2460  146.6800 C   0  0  0  0  0  0  0  0  0  0  0  0
  193.5410  175.4180  144.6130 C   0  0  0  0  0  0  0  0  0  0  0  0
  193.5500  174.1710  141.0200 O   0  0  0  0  0  0  0  0  0  0  0  0
  192.3860  175.9810  146.6400 C   0  0  0  0  0  0  0  0  0  0  0  0
  193.2560  174.6140  143.5050 C   0  0  0  0  0  0  0  0  0  0  0  0
  192.4890  175.2980  145.4540 C   0  0  0  0  0  0  0  0  0  0  0  0
  194.1300  174.4930  142.2630 C   0  0  0  0  0  0  0  0  0  0  0  0
  193.4230  176.7920  147.0030 N   0  0  0  0  0  0  0  0  0  0  0  0
  191.5710  174.4770  144.9120 C   0  0  0  0  0  0  0  0  0  0  0  0
  189.3030  176.4320  145.9770 C   0  0  0  0  0  1  0  0  0  0  0  0
  195.8120  176.3880  144.0950 C   0  0  0  0  0  2  0  0  0  0  0  0
  194.5240  176.9390  146.1930 C   0  0  0  0  0  3  0  0  0  0  0  0
  190.2890  174.1540  145.6260 C   0  0  0  0  0  2  0  0  0  0  0  0
  191.7570  172.6440  140.2110 C   0  0  1  0  0  3  0  0  0  0  0  0
  192.1730  173.8960  140.9260 C   0  0  1  0  0  3  0  0  0  0  0  0
  194.6130  176.2470  144.9610 C   0  0  0  0  0  0  0  0  0  0  0  0
  192.0150  174.0250  143.7160 N   0  0  0  0  0  0  0  0  0  0  0  0
  191.1720  175.7400  147.5020 C   0  0  0  0  0  2  0  0  0  0  0  0
  195.4730  174.7040  142.2920 C   0  0  0  0  0  0  0  0  0  0  0  0
  188.9290  174.6700  147.6440 C   0  0  0  0  0  1  0  0  0  0  0  0
  192.0270  172.6070  141.7180 C   0  0  1  0  0  3  0  0  0  0  0  0
  191.1990  173.1510  142.8520 C   0  0  0  0  0  2  0  0  0  0  0  0
  196.2110  175.0230  143.5620 C   0  0  0  0  0  2  0  0  0  0  0  0
  196.7820  175.7560  140.4400 C   0  0  0  0  0  3  0  0  0  0  0  0
  196.3040  174.5940  141.0670 C   0  0  0  0  0  0  0  0  0  0  0  0
  196.6730  173.3420  140.5470 C   0  0  0  0  0  3  0  0  0  0  0  0
  197.9220  171.6860  138.7720 Cl  0  0  0  0  0  0  0  0  0  0  0  0
  197.9400  174.4180  138.7890 C   0  0  0  0  0  3  0  0  0  0  0  0
  197.4810  173.2540  139.4110 C   0  0  0  0  0  0  0  0  0  0  0  0
  197.5920  175.6690  139.3030 C   0  0  0  0  0  3  0  0  0  0  0  0
  190.2740  172.6560  139.7900 C   0  0  2  0  0  3  0  0  0  0  0  0
  190.0290  172.2020  138.4910 O   0  0  0  0  0  1  0  0  0  0  0  0
  188.0560  173.3210  141.5470 O   0  0  0  0  0  0  0  0  0  0  0  0
  188.5710  174.2390  140.8570 C   0  0  0  0  0  0  0  0  0  0  0  0
  189.6840  173.9750  139.9960 N   0  0  0  0  0  2  0  0  0  0  0  0
  187.0520  175.6770  141.9190 F   0  0  0  0  0  0  0  0  0  0  0  0
  188.0100  175.6140  140.9220 C   0  0  0  0  0  2  0  0  0  0  0  0
  1 18  1  0  0  0  0
  1 20  1  0  0  0  0
  2 16  1  0  0  0  0
  2  6  1  0  0  0  0
  3  7  1  0  0  0  0
  4  8  2  0  0  0  0
  4 18  1  0  0  0  0
  5 17  1  0  0  0  0
  5  2  2  0  0  0  0
  6  4  1  0  0  0  0
  7 19  2  0  0  0  0
  7  5  1  0  0  0  0
  9  6  2  0  0  0  0
  9 13  1  0  0  0  0
 10  1  1  0  0  0  0
 11 16  1  0  0  0  0
 12  8  1  0  0  0  0
 13  1  1  0  0  0  0
 14 31  1  1  0  0  0
 14 15  1  0  0  0  0
 14 21  1  0  0  0  0
 15  3  1  6  0  0  0
 15 21  1  0  0  0  0
 16 12  2  0  0  0  0
 17  9  1  0  0  0  0
 19 23  1  0  0  0  0
 21 22  1  1  0  0  0
 22 17  1  0  0  0  0
 23 11  1  0  0  0  0
 24 25  1  0  0  0  0
 25 19  1  0  0  0  0
 26 25  2  0  0  0  0
 27 29  1  0  0  0  0
 28 30  1  0  0  0  0
 28 29  2  0  0  0  0
 29 26  1  0  0  0  0
 30 24  2  0  0  0  0
 31 32  1  6  0  0  0
 31 35  1  0  0  0  0
 34 37  1  0  0  0  0
 34 33  2  0  0  0  0
 35 34  1  0  0  0  0
 37 36  1  0  0  0  0
M  END
>  <MODEL>
8

>  <REMARK>
 VINA RESULT:      -7.3      3.448      7.115
  Name = 
  4 active torsions:
  status: ('A' for Active; 'I' for Inactive)
    1  A    between atoms: C_4  and  C_37
    2  A    between atoms: C_8  and  N_12
    3  A    between atoms: C_8  and  C_18
    4  A    between atoms: C_23  and  C_30
                            x       y       z     vdW  Elec       q    Type
                         _______ _______ _______ _____ _____    ______ ____

>  <TORSDO>
F 4

$$$$
=
 OpenBabel11112417173D

 37 43  0  0  1  0  0  0  0  0999 V2000
  193.1390  171.8730  139.0360 C   0  0  0  0  0  0  0  0  0  0  0  0
  190.0010  173.8880  140.8640 C   0  0  0  0  0  0  0  0  0  0  0  0
  190.7520  175.6950  144.1260 O   0  0  0  0  0  0  0  0  0  0  0  0
  190.7120  172.6520  138.9330 C   0  0  0  0  0  0  0  0  0  0  0  0
  190.5380  174.1340  142.1320 C   0  0  0  0  0  0  0  0  0  0  0  0
  190.8770  173.0780  140.2280 C   0  0  0  0  0  0  0  0  0  0  0  0
  189.9280  175.0580  143.1770 C   0  0  0  0  0  0  0  0  0  0  0  0
  189.5800  173.0380  138.2730 N   0  0  0  0  0  0  0  0  0  0  0  0
  191.9280  172.8300  141.0320 C   0  0  0  0  0  0  0  0  0  0  0  0
  193.8340  173.1160  138.5060 C   0  0  0  0  0  1  0  0  0  0  0  0
  187.8210  175.1570  140.8690 C   0  0  0  0  0  2  0  0  0  0  0  0
  188.6480  173.8490  138.8780 C   0  0  0  0  0  3  0  0  0  0  0  0
  193.0650  171.9540  140.5890 C   0  0  0  0  0  2  0  0  0  0  0  0
  192.7510  175.0790  145.4770 C   0  0  1  0  0  3  0  0  0  0  0  0
  192.1350  175.4360  144.1560 C   0  0  1  0  0  3  0  0  0  0  0  0
  188.8370  174.2990  140.2060 C   0  0  0  0  0  0  0  0  0  0  0  0
  191.7470  173.4530  142.2190 N   0  0  0  0  0  0  0  0  0  0  0  0
  191.7500  171.7300  138.3450 C   0  0  0  0  0  2  0  0  0  0  0  0
  188.5940  175.3200  143.2300 C   0  0  0  0  0  0  0  0  0  0  0  0
  193.9800  170.6720  138.6630 C   0  0  0  0  0  1  0  0  0  0  0  0
  192.1980  173.9750  144.5700 C   0  0  1  0  0  3  0  0  0  0  0  0
  192.7620  173.4170  143.2900 C   0  0  0  0  0  2  0  0  0  0  0  0
  187.6090  174.6780  142.2940 C   0  0  0  0  0  2  0  0  0  0  0  0
  188.2440  175.9870  145.6140 C   0  0  0  0  0  3  0  0  0  0  0  0
  188.0210  176.2340  144.2500 C   0  0  0  0  0  0  0  0  0  0  0  0
  187.2980  177.3800  143.8760 C   0  0  0  0  0  3  0  0  0  0  0  0
  185.8840  179.6630  144.3640 Cl  0  0  0  0  0  0  0  0  0  0  0  0
  187.0080  177.9840  146.2020 C   0  0  0  0  0  3  0  0  0  0  0  0
  186.7890  178.2470  144.8470 C   0  0  0  0  0  0  0  0  0  0  0  0
  187.7360  176.8550  146.5860 C   0  0  0  0  0  3  0  0  0  0  0  0
  194.2830  175.2400  145.4900 C   0  0  2  0  0  3  0  0  0  0  0  0
  194.8100  175.7590  146.6760 O   0  0  0  0  0  1  0  0  0  0  0  0
  196.7060  174.8170  143.9400 O   0  0  0  0  0  0  0  0  0  0  0  0
  195.9550  175.7800  143.6300 C   0  0  0  0  0  0  0  0  0  0  0  0
  194.7360  176.0180  144.3410 N   0  0  0  0  0  2  0  0  0  0  0  0
  195.3690  176.6760  141.5430 F   0  0  0  0  0  0  0  0  0  0  0  0
  196.3450  176.6920  142.5230 C   0  0  0  0  0  2  0  0  0  0  0  0
  1 13  1  0  0  0  0
  2  5  2  0  0  0  0
  4  6  1  0  0  0  0
  5 17  1  0  0  0  0
  5  7  1  0  0  0  0
  6  2  1  0  0  0  0
  6  9  2  0  0  0  0
  7 19  2  0  0  0  0
  7  3  1  0  0  0  0
  8 12  1  0  0  0  0
  8  4  2  0  0  0  0
  9 17  1  0  0  0  0
 10  1  1  0  0  0  0
 11 23  1  0  0  0  0
 12 16  2  0  0  0  0
 13  9  1  0  0  0  0
 14 31  1  6  0  0  0
 15  3  1  1  0  0  0
 15 21  1  0  0  0  0
 15 14  1  0  0  0  0
 16  2  1  0  0  0  0
 16 11  1  0  0  0  0
 17 22  1  0  0  0  0
 18  4  1  0  0  0  0
 18  1  1  0  0  0  0
 19 25  1  0  0  0  0
 20  1  1  0  0  0  0
 21 22  1  6  0  0  0
 21 14  1  0  0  0  0
 23 19  1  0  0  0  0
 24 30  1  0  0  0  0
 25 24  2  0  0  0  0
 26 25  1  0  0  0  0
 26 29  2  0  0  0  0
 27 29  1  0  0  0  0
 28 30  2  0  0  0  0
 29 28  1  0  0  0  0
 31 32  1  1  0  0  0
 34 33  2  0  0  0  0
 34 35  1  0  0  0  0
 35 31  1  0  0  0  0
 36 37  1  0  0  0  0
 37 34  1  0  0  0  0
M  END
>  <MODEL>
9

>  <REMARK>
 VINA RESULT:      -7.3      3.003      5.847
  Name = 
  4 active torsions:
  status: ('A' for Active; 'I' for Inactive)
    1  A    between atoms: C_4  and  C_37
    2  A    between atoms: C_8  and  N_12
    3  A    between atoms: C_8  and  C_18
    4  A    between atoms: C_23  and  C_30
                            x       y       z     vdW  Elec       q    Type
                         _______ _______ _______ _____ _____    ______ ____

>  <TORSDO>
F 4

$$$$
