=
 OpenBabel11112416233D

 30 35  0  0  1  0  0  0  0  0999 V2000
  189.7770  175.5850  143.8050 C   0  0  0  0  0  0  0  0  0  0  0  0
  191.5300  174.8860  145.4250 C   0  0  0  0  0  0  0  0  0  0  0  0
  187.8260  177.8190  146.7130 O   0  0  0  0  0  0  0  0  0  0  0  0
  188.6310  176.3610  143.5230 C   0  0  0  0  0  0  0  0  0  0  0  0
  190.3190  174.7740  142.7590 N   0  0  0  0  0  2  0  0  0  0  0  0
  187.9700  175.2920  140.1040 O   0  0  0  0  0  0  0  0  0  0  0  0
  185.7850  177.1900  142.3010 C   0  0  1  0  0  3  0  0  0  0  0  0
  188.5020  175.3690  141.2440 C   0  0  0  0  0  0  0  0  0  0  0  0
  185.6060  177.3380  143.8260 C   0  0  2  0  0  3  0  0  0  0  0  0
  186.6310  178.2780  146.0880 C   0  0  2  0  0  3  0  0  0  0  0  0
  189.4990  174.3190  141.6390 C   0  0  2  0  0  3  0  0  0  0  0  0
  188.1160  176.4070  142.1770 N   0  0  0  0  0  0  0  0  0  0  0  0
  192.0330  174.9370  146.6890 N   0  0  0  0  0  0  0  0  0  0  0  0
  184.3880  178.2270  143.9740 C   0  0  0  0  0  2  0  0  0  0  0  0
  184.8140  178.0550  141.6420 N   0  0  0  0  0  2  0  0  0  0  0  0
  192.1790  174.1340  144.5010 F   0  0  0  0  0  0  0  0  0  0  0  0
  188.5760  177.0710  145.8300 C   0  0  0  0  0  0  0  0  0  0  0  0
  191.4440  175.6660  147.6730 C   0  0  0  0  0  3  0  0  0  0  0  0
  190.3610  175.6080  145.1000 C   0  0  0  0  0  0  0  0  0  0  0  0
  188.0300  177.0710  144.5770 C   0  0  0  0  0  0  0  0  0  0  0  0
  185.4550  177.5550  146.7350 C   0  0  0  0  0  1  0  0  0  0  0  0
  186.8180  177.9530  144.5700 C   0  0  1  0  0  3  0  0  0  0  0  0
  183.7500  178.2530  142.6090 C   0  0  0  0  0  2  0  0  0  0  0  0
  187.2320  177.7610  140.4360 O   0  0  0  0  0  1  0  0  0  0  0  0
  190.2860  176.3930  147.4100 C   0  0  0  0  0  3  0  0  0  0  0  0
  189.7430  176.3680  146.1250 C   0  0  0  0  0  0  0  0  0  0  0  0
  187.2010  177.4950  141.8090 C   0  0  1  0  0  3  0  0  0  0  0  0
  188.7650  173.0420  142.0210 C   0  0  0  0  0  2  0  0  0  0  0  0
  189.3820  171.8800  144.1150 C   0  0  0  0  0  1  0  0  0  0  0  0
  189.7220  172.0490  142.6500 C   0  0  0  0  0  2  0  0  0  0  0  0
  1 19  1  0  0  0  0
  2 13  1  0  0  0  0
  4  1  2  0  0  0  0
  4 20  1  0  0  0  0
  5  1  1  0  0  0  0
  6  8  2  0  0  0  0
  7 15  1  6  0  0  0
  7  9  1  0  0  0  0
  8 11  1  0  0  0  0
  8 12  1  0  0  0  0
  9 14  1  6  0  0  0
  9 22  1  0  0  0  0
 10  3  1  0  0  0  0
 10 21  1  1  0  0  0
 11 28  1  1  0  0  0
 11  5  1  0  0  0  0
 12  4  1  0  0  0  0
 13 18  2  0  0  0  0
 15 23  1  0  0  0  0
 16  2  1  0  0  0  0
 17 26  1  0  0  0  0
 17  3  1  0  0  0  0
 19  2  2  0  0  0  0
 19 26  1  0  0  0  0
 20 17  2  0  0  0  0
 22 20  1  1  0  0  0
 22 10  1  0  0  0  0
 23 14  1  0  0  0  0
 25 18  1  0  0  0  0
 26 25  2  0  0  0  0
 27 24  1  6  0  0  0
 27 12  1  0  0  0  0
 27  7  1  0  0  0  0
 28 30  1  0  0  0  0
 30 29  1  0  0  0  0
M  END
>  <MODEL>
1

>  <REMARK>
 VINA RESULT:      -8.6      0.000      0.000
  Name = 
  2 active torsions:
  status: ('A' for Active; 'I' for Inactive)
    1  A    between atoms: C_11  and  C_28
    2  A    between atoms: C_28  and  C_30
                            x       y       z     vdW  Elec       q    Type
                         _______ _______ _______ _____ _____    ______ ____

>  <TORSDO>
F 2

$$$$
=
 OpenBabel11112416233D

 30 35  0  0  1  0  0  0  0  0999 V2000
  188.1060  177.2680  143.9740 C   0  0  0  0  0  0  0  0  0  0  0  0
  186.2960  178.6070  142.9150 C   0  0  0  0  0  0  0  0  0  0  0  0
  188.5660  174.9760  140.5410 O   0  0  0  0  0  0  0  0  0  0  0  0
  189.0950  176.2670  143.8580 C   0  0  0  0  0  0  0  0  0  0  0  0
  187.9620  177.9360  145.2310 N   0  0  0  0  0  2  0  0  0  0  0  0
  190.3320  176.2020  147.2830 O   0  0  0  0  0  0  0  0  0  0  0  0
  190.9770  173.7920  144.6420 C   0  0  1  0  0  3  0  0  0  0  0  0
  189.6400  176.5050  146.2750 C   0  0  0  0  0  0  0  0  0  0  0  0
  190.2500  173.3310  143.3610 C   0  0  2  0  0  3  0  0  0  0  0  0
  189.5100  173.9680  140.8920 C   0  0  2  0  0  3  0  0  0  0  0  0
  188.3940  177.3160  146.4810 C   0  0  2  0  0  3  0  0  0  0  0  0
  190.0000  176.0310  144.9550 N   0  0  0  0  0  0  0  0  0  0  0  0
  185.5180  178.8560  141.8270 N   0  0  0  0  0  0  0  0  0  0  0  0
  191.0950  172.1850  142.8450 C   0  0  0  0  0  2  0  0  0  0  0  0
  192.2220  173.0420  144.7520 N   0  0  0  0  0  2  0  0  0  0  0  0
  186.1110  179.3610  144.0290 F   0  0  0  0  0  0  0  0  0  0  0  0
  188.3420  175.8200  141.6080 C   0  0  0  0  0  0  0  0  0  0  0  0
  185.6390  178.1480  140.6740 C   0  0  0  0  0  3  0  0  0  0  0  0
  187.2710  177.5880  142.8690 C   0  0  0  0  0  0  0  0  0  0  0  0
  189.1630  175.5310  142.6620 C   0  0  0  0  0  0  0  0  0  0  0  0
  188.7750  172.6330  140.9390 C   0  0  0  0  0  1  0  0  0  0  0  0
  190.0910  174.4210  142.2710 C   0  0  1  0  0  3  0  0  0  0  0  0
  192.0170  171.8300  143.9820 C   0  0  0  0  0  2  0  0  0  0  0  0
  192.2430  175.6180  145.6230 O   0  0  0  0  0  1  0  0  0  0  0  0
  186.5810  177.1270  140.5730 C   0  0  0  0  0  3  0  0  0  0  0  0
  187.4000  176.8460  141.6670 C   0  0  0  0  0  0  0  0  0  0  0  0
  191.2460  175.2970  144.6960 C   0  0  1  0  0  3  0  0  0  0  0  0
  187.2900  176.4190  147.0220 C   0  0  0  0  0  2  0  0  0  0  0  0
  184.9590  177.0160  146.4500 C   0  0  0  0  0  1  0  0  0  0  0  0
  186.0880  177.2480  147.4300 C   0  0  0  0  0  2  0  0  0  0  0  0
  1  5  1  0  0  0  0
  2 16  1  0  0  0  0
  3 10  1  0  0  0  0
  3 17  1  0  0  0  0
  4  1  1  0  0  0  0
  4 12  1  0  0  0  0
  5 11  1  0  0  0  0
  7 27  1  0  0  0  0
  7 15  1  6  0  0  0
  8 11  1  0  0  0  0
  8  6  2  0  0  0  0
  9 14  1  6  0  0  0
  9  7  1  0  0  0  0
 10 21  1  1  0  0  0
 10 22  1  0  0  0  0
 11 28  1  6  0  0  0
 12  8  1  0  0  0  0
 13  2  2  0  0  0  0
 14 23  1  0  0  0  0
 17 26  2  0  0  0  0
 17 20  1  0  0  0  0
 18 13  1  0  0  0  0
 19  2  1  0  0  0  0
 19  1  2  0  0  0  0
 20  4  2  0  0  0  0
 22 20  1  1  0  0  0
 22  9  1  0  0  0  0
 23 15  1  0  0  0  0
 25 18  2  0  0  0  0
 25 26  1  0  0  0  0
 26 19  1  0  0  0  0
 27 12  1  0  0  0  0
 27 24  1  1  0  0  0
 28 30  1  0  0  0  0
 29 30  1  0  0  0  0
M  END
>  <MODEL>
2

>  <REMARK>
 VINA RESULT:      -8.3      2.323      6.771
  Name = 
  2 active torsions:
  status: ('A' for Active; 'I' for Inactive)
    1  A    between atoms: C_11  and  C_28
    2  A    between atoms: C_28  and  C_30
                            x       y       z     vdW  Elec       q    Type
                         _______ _______ _______ _____ _____    ______ ____

>  <TORSDO>
F 2

$$$$
=
 OpenBabel11112416233D

 30 35  0  0  1  0  0  0  0  0999 V2000
  189.8190  174.8040  143.5220 C   0  0  0  0  0  0  0  0  0  0  0  0
  190.5660  173.7730  141.3850 C   0  0  0  0  0  0  0  0  0  0  0  0
  186.3970  176.3190  141.7200 O   0  0  0  0  0  0  0  0  0  0  0  0
  188.8310  175.5100  144.2440 C   0  0  0  0  0  0  0  0  0  0  0  0
  191.0070  174.4070  144.2110 N   0  0  0  0  0  2  0  0  0  0  0  0
  190.5170  175.8490  147.4540 O   0  0  0  0  0  0  0  0  0  0  0  0
  187.5190  177.5640  146.3260 C   0  0  1  0  0  3  0  0  0  0  0  0
  190.3070  175.5550  146.2470 C   0  0  0  0  0  0  0  0  0  0  0  0
  186.9190  177.9650  144.9620 C   0  0  2  0  0  3  0  0  0  0  0  0
  185.7740  177.1190  142.7210 C   0  0  2  0  0  3  0  0  0  0  0  0
  191.4680  175.1070  145.4080 C   0  0  2  0  0  3  0  0  0  0  0  0
  188.9900  175.7040  145.6630 N   0  0  0  0  0  0  0  0  0  0  0  0
  190.3370  173.5380  140.0640 N   0  0  0  0  0  0  0  0  0  0  0  0
  185.6910  178.7760  145.3190 C   0  0  0  0  0  2  0  0  0  0  0  0
  186.6050  178.0060  147.3720 N   0  0  0  0  0  2  0  0  0  0  0  0
  191.7020  173.2810  141.9420 F   0  0  0  0  0  0  0  0  0  0  0  0
  187.5480  175.7400  142.2110 C   0  0  0  0  0  0  0  0  0  0  0  0
  189.2260  173.9960  139.4290 C   0  0  0  0  0  3  0  0  0  0  0  0
  189.6330  174.5110  142.1440 C   0  0  0  0  0  0  0  0  0  0  0  0
  187.7140  175.9980  143.5430 C   0  0  0  0  0  0  0  0  0  0  0  0
  185.8950  178.5780  142.2970 C   0  0  0  0  0  1  0  0  0  0  0  0
  186.5350  176.7770  144.0430 C   0  0  1  0  0  3  0  0  0  0  0  0
  185.8350  179.0870  146.7860 C   0  0  0  0  0  2  0  0  0  0  0  0
  187.9470  175.6800  147.7980 O   0  0  0  0  0  1  0  0  0  0  0  0
  188.2740  174.7340  140.1280 C   0  0  0  0  0  3  0  0  0  0  0  0
  188.4720  174.9920  141.4840 C   0  0  0  0  0  0  0  0  0  0  0  0
  187.8120  176.0690  146.4610 C   0  0  1  0  0  3  0  0  0  0  0  0
  192.3020  176.3160  145.0120 C   0  0  0  0  0  2  0  0  0  0  0  0
  194.1070  176.7290  146.6520 C   0  0  0  0  0  1  0  0  0  0  0  0
  193.7650  176.0770  145.3300 C   0  0  0  0  0  2  0  0  0  0  0  0
  1  5  1  0  0  0  0
  1  4  1  0  0  0  0
  2 16  1  0  0  0  0
  2 19  1  0  0  0  0
  3 17  1  0  0  0  0
  3 10  1  0  0  0  0
  4 12  1  0  0  0  0
  5 11  1  0  0  0  0
  7 27  1  0  0  0  0
  7 15  1  1  0  0  0
  8  6  2  0  0  0  0
  9 14  1  1  0  0  0
  9  7  1  0  0  0  0
 10 21  1  6  0  0  0
 10 22  1  0  0  0  0
 11 28  1  6  0  0  0
 11  8  1  0  0  0  0
 12  8  1  0  0  0  0
 12 27  1  0  0  0  0
 13  2  2  0  0  0  0
 14 23  1  0  0  0  0
 17 20  1  0  0  0  0
 18 13  1  0  0  0  0
 18 25  2  0  0  0  0
 19  1  2  0  0  0  0
 20  4  2  0  0  0  0
 22 20  1  6  0  0  0
 22  9  1  0  0  0  0
 23 15  1  0  0  0  0
 25 26  1  0  0  0  0
 26 19  1  0  0  0  0
 26 17  2  0  0  0  0
 27 24  1  1  0  0  0
 28 30  1  0  0  0  0
 30 29  1  0  0  0  0
M  END
>  <MODEL>
3

>  <REMARK>
 VINA RESULT:      -7.9      2.094      4.992
  Name = 
  2 active torsions:
  status: ('A' for Active; 'I' for Inactive)
    1  A    between atoms: C_11  and  C_28
    2  A    between atoms: C_28  and  C_30
                            x       y       z     vdW  Elec       q    Type
                         _______ _______ _______ _____ _____    ______ ____

>  <TORSDO>
F 2

$$$$
=
 OpenBabel11112416233D

 30 35  0  0  1  0  0  0  0  0999 V2000
  187.0010  176.2700  144.1700 C   0  0  0  0  0  0  0  0  0  0  0  0
  185.2020  177.5880  145.2730 C   0  0  0  0  0  0  0  0  0  0  0  0
  189.2880  176.2860  147.6380 O   0  0  0  0  0  0  0  0  0  0  0  0
  188.2350  175.5890  144.2680 C   0  0  0  0  0  0  0  0  0  0  0  0
  186.3360  176.2870  142.9040 N   0  0  0  0  0  2  0  0  0  0  0  0
  188.6820  174.5890  140.7950 O   0  0  0  0  0  0  0  0  0  0  0  0
  191.1410  174.4990  143.4670 C   0  0  1  0  0  3  0  0  0  0  0  0
  188.1860  175.1200  141.8250 C   0  0  0  0  0  0  0  0  0  0  0  0
  191.3680  175.2610  144.7900 C   0  0  2  0  0  3  0  0  0  0  0  0
  190.5210  175.6740  147.2720 C   0  0  2  0  0  3  0  0  0  0  0  0
  187.0660  176.1040  141.6530 C   0  0  2  0  0  3  0  0  0  0  0  0
  188.7250  174.8390  143.1390 N   0  0  0  0  0  0  0  0  0  0  0  0
  184.7350  178.2130  146.3880 N   0  0  0  0  0  0  0  0  0  0  0  0
  192.6960  174.7380  145.2980 C   0  0  0  0  0  2  0  0  0  0  0  0
  192.2070  173.5140  143.3210 N   0  0  0  0  0  2  0  0  0  0  0  0
  184.4410  177.6150  144.1500 F   0  0  0  0  0  0  0  0  0  0  0  0
  188.4280  176.3230  146.5600 C   0  0  0  0  0  0  0  0  0  0  0  0
  185.4340  178.2340  147.5530 C   0  0  0  0  0  3  0  0  0  0  0  0
  186.4500  176.9290  145.3030 C   0  0  0  0  0  0  0  0  0  0  0  0
  188.9450  175.6660  145.4790 C   0  0  0  0  0  0  0  0  0  0  0  0
  191.6020  176.7480  147.2920 C   0  0  0  0  0  1  0  0  0  0  0  0
  190.2630  175.0600  145.8570 C   0  0  1  0  0  3  0  0  0  0  0  0
  193.3050  174.0060  144.1310 C   0  0  0  0  0  2  0  0  0  0  0  0
  189.7480  172.8310  142.3840 O   0  0  0  0  0  1  0  0  0  0  0  0
  186.6730  177.6050  147.6380 C   0  0  0  0  0  3  0  0  0  0  0  0
  187.1840  176.9500  146.5170 C   0  0  0  0  0  0  0  0  0  0  0  0
  189.7700  173.8310  143.3620 C   0  0  1  0  0  3  0  0  0  0  0  0
  187.6320  177.4370  141.1850 C   0  0  0  0  0  2  0  0  0  0  0  0
  185.4100  178.2910  140.5130 C   0  0  0  0  0  1  0  0  0  0  0  0
  186.6160  178.5440  141.3910 C   0  0  0  0  0  2  0  0  0  0  0  0
  1  4  2  0  0  0  0
  1 19  1  0  0  0  0
  2 19  2  0  0  0  0
  2 13  1  0  0  0  0
  4 20  1  0  0  0  0
  5  1  1  0  0  0  0
  6  8  2  0  0  0  0
  7 15  1  1  0  0  0
  7  9  1  0  0  0  0
  8 12  1  0  0  0  0
  9 14  1  1  0  0  0
  9 22  1  0  0  0  0
 10 21  1  6  0  0  0
 10  3  1  0  0  0  0
 11 28  1  1  0  0  0
 11  8  1  0  0  0  0
 11  5  1  0  0  0  0
 12 27  1  0  0  0  0
 12  4  1  0  0  0  0
 13 18  2  0  0  0  0
 15 23  1  0  0  0  0
 16  2  1  0  0  0  0
 17  3  1  0  0  0  0
 18 25  1  0  0  0  0
 19 26  1  0  0  0  0
 20 17  2  0  0  0  0
 22 20  1  6  0  0  0
 22 10  1  0  0  0  0
 23 14  1  0  0  0  0
 26 17  1  0  0  0  0
 26 25  2  0  0  0  0
 27 24  1  6  0  0  0
 27  7  1  0  0  0  0
 28 30  1  0  0  0  0
 29 30  1  0  0  0  0
M  END
>  <MODEL>
4

>  <REMARK>
 VINA RESULT:      -7.7      2.375      5.632
  Name = 
  2 active torsions:
  status: ('A' for Active; 'I' for Inactive)
    1  A    between atoms: C_11  and  C_28
    2  A    between atoms: C_28  and  C_30
                            x       y       z     vdW  Elec       q    Type
                         _______ _______ _______ _____ _____    ______ ____

>  <TORSDO>
F 2

$$$$
=
 OpenBabel11112416233D

 30 35  0  0  1  0  0  0  0  0999 V2000
  190.8170  175.2310  143.1820 C   0  0  0  0  0  0  0  0  0  0  0  0
  192.9380  174.6160  144.3280 C   0  0  0  0  0  0  0  0  0  0  0  0
  189.5880  177.4970  146.4390 O   0  0  0  0  0  0  0  0  0  0  0  0
  189.6150  175.9710  143.1800 C   0  0  0  0  0  0  0  0  0  0  0  0
  191.1050  174.4030  142.0510 N   0  0  0  0  0  2  0  0  0  0  0  0
  188.1540  174.7950  140.0570 O   0  0  0  0  0  0  0  0  0  0  0  0
  186.5310  176.7010  142.6910 C   0  0  1  0  0  3  0  0  0  0  0  0
  188.9510  174.9150  141.0270 C   0  0  0  0  0  0  0  0  0  0  0  0
  186.7330  176.8870  144.2090 C   0  0  2  0  0  3  0  0  0  0  0  0
  188.2620  177.9110  146.1230 C   0  0  2  0  0  3  0  0  0  0  0  0
  190.0450  173.8990  141.1820 C   0  0  2  0  0  3  0  0  0  0  0  0
  188.7800  175.9690  142.0050 N   0  0  0  0  0  0  0  0  0  0  0  0
  193.7390  174.7140  145.4250 N   0  0  0  0  0  0  0  0  0  0  0  0
  185.5660  177.7510  144.6380 C   0  0  0  0  0  2  0  0  0  0  0  0
  185.4010  177.5250  142.2780 N   0  0  0  0  0  2  0  0  0  0  0  0
  193.3580  173.8550  143.2860 F   0  0  0  0  0  0  0  0  0  0  0  0
  190.1160  176.7430  145.4120 C   0  0  0  0  0  0  0  0  0  0  0  0
  193.3930  175.4550  146.5090 C   0  0  0  0  0  3  0  0  0  0  0  0
  191.7050  175.3020  144.2900 C   0  0  0  0  0  0  0  0  0  0  0  0
  189.2750  176.6960  144.3360 C   0  0  0  0  0  0  0  0  0  0  0  0
  187.3060  177.1790  147.0580 C   0  0  0  0  0  1  0  0  0  0  0  0
  188.0750  177.5500  144.6140 C   0  0  1  0  0  3  0  0  0  0  0  0
  184.6070  177.7240  143.4760 C   0  0  0  0  0  2  0  0  0  0  0  0
  187.4500  177.2540  140.5120 O   0  0  0  0  0  1  0  0  0  0  0  0
  192.1850  176.1480  146.5290 C   0  0  0  0  0  3  0  0  0  0  0  0
  191.3400  176.0760  145.4210 C   0  0  0  0  0  0  0  0  0  0  0  0
  187.7700  177.0250  141.8540 C   0  0  1  0  0  3  0  0  0  0  0  0
  189.4670  172.6170  141.7610 C   0  0  0  0  0  2  0  0  0  0  0  0
  190.8070  170.7150  140.9220 C   0  0  0  0  0  1  0  0  0  0  0  0
  190.5770  171.6410  142.0970 C   0  0  0  0  0  2  0  0  0  0  0  0
  1 19  1  0  0  0  0
  2 13  1  0  0  0  0
  4  1  2  0  0  0  0
  4 20  1  0  0  0  0
  5  1  1  0  0  0  0
  6  8  2  0  0  0  0
  7 15  1  6  0  0  0
  7  9  1  0  0  0  0
  8 11  1  0  0  0  0
  8 12  1  0  0  0  0
  9 22  1  0  0  0  0
  9 14  1  6  0  0  0
 10  3  1  0  0  0  0
 10 21  1  1  0  0  0
 11 28  1  1  0  0  0
 11  5  1  0  0  0  0
 12  4  1  0  0  0  0
 13 18  2  0  0  0  0
 15 23  1  0  0  0  0
 16  2  1  0  0  0  0
 17 26  1  0  0  0  0
 17  3  1  0  0  0  0
 18 25  1  0  0  0  0
 19  2  2  0  0  0  0
 19 26  1  0  0  0  0
 20 17  2  0  0  0  0
 22 20  1  1  0  0  0
 22 10  1  0  0  0  0
 23 14  1  0  0  0  0
 26 25  2  0  0  0  0
 27 24  1  6  0  0  0
 27 12  1  0  0  0  0
 27  7  1  0  0  0  0
 28 30  1  0  0  0  0
 29 30  1  0  0  0  0
M  END
>  <MODEL>
5

>  <REMARK>
 VINA RESULT:      -7.4      1.271      1.549
  Name = 
  2 active torsions:
  status: ('A' for Active; 'I' for Inactive)
    1  A    between atoms: C_11  and  C_28
    2  A    between atoms: C_28  and  C_30
                            x       y       z     vdW  Elec       q    Type
                         _______ _______ _______ _____ _____    ______ ____

>  <TORSDO>
F 2

$$$$
=
 OpenBabel11112416233D

 30 35  0  0  1  0  0  0  0  0999 V2000
  189.1230  177.0660  145.5280 C   0  0  0  0  0  0  0  0  0  0  0  0
  186.9730  177.8700  146.4880 C   0  0  0  0  0  0  0  0  0  0  0  0
  187.2350  175.8560  142.0320 O   0  0  0  0  0  0  0  0  0  0  0  0
  189.8310  176.5250  144.4330 C   0  0  0  0  0  0  0  0  0  0  0  0
  189.8500  177.3610  146.7250 N   0  0  0  0  0  2  0  0  0  0  0  0
  193.1370  176.1850  145.9220 O   0  0  0  0  0  0  0  0  0  0  0  0
  191.9530  174.7690  142.7930 C   0  0  1  0  0  3  0  0  0  0  0  0
  191.9070  176.4290  145.8020 C   0  0  0  0  0  0  0  0  0  0  0  0
  190.5840  174.3590  142.2100 C   0  0  2  0  0  3  0  0  0  0  0  0
  188.2450  175.1960  141.2750 C   0  0  2  0  0  3  0  0  0  0  0  0
  191.1050  176.6860  147.0450 C   0  0  2  0  0  3  0  0  0  0  0  0
  191.2650  176.4000  144.5040 N   0  0  0  0  0  0  0  0  0  0  0  0
  185.6310  178.0500  146.3470 N   0  0  0  0  0  0  0  0  0  0  0  0
  190.9220  173.7200  140.8790 C   0  0  0  0  0  2  0  0  0  0  0  0
  192.9740  174.5010  141.7870 N   0  0  0  0  0  2  0  0  0  0  0  0
  187.5600  178.2590  147.6480 F   0  0  0  0  0  0  0  0  0  0  0  0
  187.7520  176.3240  143.2220 C   0  0  0  0  0  0  0  0  0  0  0  0
  184.9680  177.6890  145.2180 C   0  0  0  0  0  3  0  0  0  0  0  0
  187.7230  177.2940  145.4400 C   0  0  0  0  0  0  0  0  0  0  0  0
  189.1020  176.1290  143.2970 C   0  0  0  0  0  0  0  0  0  0  0  0
  187.9080  173.7100  141.2390 C   0  0  0  0  0  1  0  0  0  0  0  0
  189.5830  175.5250  142.0120 C   0  0  1  0  0  3  0  0  0  0  0  0
  192.4090  173.4840  140.9200 C   0  0  0  0  0  2  0  0  0  0  0  0
  193.3400  176.6750  143.3780 O   0  0  0  0  0  1  0  0  0  0  0  0
  185.6560  177.1110  144.1550 C   0  0  0  0  0  3  0  0  0  0  0  0
  187.0330  176.9140  144.2600 C   0  0  0  0  0  0  0  0  0  0  0  0
  192.0210  176.2240  143.2570 C   0  0  1  0  0  3  0  0  0  0  0  0
  190.8190  175.3660  147.7440 C   0  0  0  0  0  2  0  0  0  0  0  0
  189.5210  173.7270  146.4220 C   0  0  0  0  0  1  0  0  0  0  0  0
  189.4250  174.8770  147.4010 C   0  0  0  0  0  2  0  0  0  0  0  0
  1  5  1  0  0  0  0
  2 16  1  0  0  0  0
  3 17  1  0  0  0  0
  4 12  1  0  0  0  0
  4  1  2  0  0  0  0
  5 11  1  0  0  0  0
  7 15  1  6  0  0  0
  7 27  1  0  0  0  0
  8  6  2  0  0  0  0
  8 11  1  0  0  0  0
  9 14  1  6  0  0  0
  9  7  1  0  0  0  0
 10 21  1  1  0  0  0
 10 22  1  0  0  0  0
 10  3  1  0  0  0  0
 11 28  1  6  0  0  0
 12  8  1  0  0  0  0
 13  2  1  0  0  0  0
 14 23  1  0  0  0  0
 17 20  2  0  0  0  0
 17 26  1  0  0  0  0
 18 13  2  0  0  0  0
 19  1  1  0  0  0  0
 19  2  2  0  0  0  0
 20  4  1  0  0  0  0
 22  9  1  0  0  0  0
 22 20  1  1  0  0  0
 23 15  1  0  0  0  0
 25 26  2  0  0  0  0
 25 18  1  0  0  0  0
 26 19  1  0  0  0  0
 27 24  1  1  0  0  0
 27 12  1  0  0  0  0
 29 30  1  0  0  0  0
 30 28  1  0  0  0  0
M  END
>  <MODEL>
6

>  <REMARK>
 VINA RESULT:      -7.3      2.735      5.906
  Name = 
  2 active torsions:
  status: ('A' for Active; 'I' for Inactive)
    1  A    between atoms: C_11  and  C_28
    2  A    between atoms: C_28  and  C_30
                            x       y       z     vdW  Elec       q    Type
                         _______ _______ _______ _____ _____    ______ ____

>  <TORSDO>
F 2

$$$$
=
 OpenBabel11112416233D

 30 35  0  0  1  0  0  0  0  0999 V2000
  187.7570  176.1440  143.8630 C   0  0  0  0  0  0  0  0  0  0  0  0
  186.2540  177.3110  145.4650 C   0  0  0  0  0  0  0  0  0  0  0  0
  190.9770  176.4890  146.4630 O   0  0  0  0  0  0  0  0  0  0  0  0
  189.0250  175.5910  143.5770 C   0  0  0  0  0  0  0  0  0  0  0  0
  186.7390  176.0570  142.8610 N   0  0  0  0  0  2  0  0  0  0  0  0
  188.4920  174.5360  140.1310 O   0  0  0  0  0  0  0  0  0  0  0  0
  191.6450  174.7690  141.9220 C   0  0  1  0  0  3  0  0  0  0  0  0
  188.2820  175.0470  141.2650 C   0  0  0  0  0  0  0  0  0  0  0  0
  192.1850  175.5880  143.1130 C   0  0  2  0  0  3  0  0  0  0  0  0
  192.0960  175.9900  145.7360 C   0  0  2  0  0  3  0  0  0  0  0  0
  187.0680  175.9100  141.4460 C   0  0  2  0  0  3  0  0  0  0  0  0
  189.2220  174.8590  142.3500 N   0  0  0  0  0  0  0  0  0  0  0  0
  186.0870  177.9200  146.6710 N   0  0  0  0  0  0  0  0  0  0  0  0
  193.6500  175.2140  143.1900 C   0  0  0  0  0  2  0  0  0  0  0  0
  192.7100  173.8900  141.4550 N   0  0  0  0  0  2  0  0  0  0  0  0
  185.1880  177.2290  144.6290 F   0  0  0  0  0  0  0  0  0  0  0  0
  189.8300  176.4080  145.7010 C   0  0  0  0  0  0  0  0  0  0  0  0
  187.1020  178.0440  147.5660 C   0  0  0  0  0  3  0  0  0  0  0  0
  187.5120  176.7790  145.1100 C   0  0  0  0  0  0  0  0  0  0  0  0
  190.0580  175.7730  144.5120 C   0  0  0  0  0  0  0  0  0  0  0  0
  193.0150  177.1660  145.4260 C   0  0  0  0  0  1  0  0  0  0  0  0
  191.4840  175.3120  144.4670 C   0  0  1  0  0  3  0  0  0  0  0  0
  193.9460  174.5110  141.8900 C   0  0  0  0  0  2  0  0  0  0  0  0
  190.1660  172.9400  141.3150 O   0  0  0  0  0  1  0  0  0  0  0  0
  188.3660  177.5430  147.2660 C   0  0  0  0  0  3  0  0  0  0  0  0
  188.5750  176.9080  146.0410 C   0  0  0  0  0  0  0  0  0  0  0  0
  190.3830  173.9660  142.2410 C   0  0  1  0  0  3  0  0  0  0  0  0
  187.3240  177.2780  140.8290 C   0  0  0  0  0  2  0  0  0  0  0  0
  185.0760  178.2610  140.5130 C   0  0  0  0  0  1  0  0  0  0  0  0
  186.3300  178.2920  141.3610 C   0  0  0  0  0  2  0  0  0  0  0  0
  1 19  1  0  0  0  0
  2 13  1  0  0  0  0
  4  1  2  0  0  0  0
  4 20  1  0  0  0  0
  5  1  1  0  0  0  0
  6  8  2  0  0  0  0
  7 15  1  1  0  0  0
  7 27  1  0  0  0  0
  7  9  1  0  0  0  0
  8 11  1  0  0  0  0
  8 12  1  0  0  0  0
  9 14  1  1  0  0  0
  9 22  1  0  0  0  0
 10 21  1  6  0  0  0
 10  3  1  0  0  0  0
 11 28  1  1  0  0  0
 11  5  1  0  0  0  0
 12  4  1  0  0  0  0
 13 18  2  0  0  0  0
 15 23  1  0  0  0  0
 16  2  1  0  0  0  0
 17 26  1  0  0  0  0
 17  3  1  0  0  0  0
 19  2  2  0  0  0  0
 19 26  1  0  0  0  0
 20 17  2  0  0  0  0
 22 20  1  6  0  0  0
 22 10  1  0  0  0  0
 23 14  1  0  0  0  0
 25 18  1  0  0  0  0
 26 25  2  0  0  0  0
 27 24  1  6  0  0  0
 27 12  1  0  0  0  0
 28 30  1  0  0  0  0
 29 30  1  0  0  0  0
M  END
>  <MODEL>
7

>  <REMARK>
 VINA RESULT:      -7.1      2.526      5.581
  Name = 
  2 active torsions:
  status: ('A' for Active; 'I' for Inactive)
    1  A    between atoms: C_11  and  C_28
    2  A    between atoms: C_28  and  C_30
                            x       y       z     vdW  Elec       q    Type
                         _______ _______ _______ _____ _____    ______ ____

>  <TORSDO>
F 2

$$$$
=
 OpenBabel11112416233D

 30 35  0  0  1  0  0  0  0  0999 V2000
  190.0580  176.4380  144.2180 C   0  0  0  0  0  0  0  0  0  0  0  0
  187.8100  177.2900  144.8570 C   0  0  0  0  0  0  0  0  0  0  0  0
  188.4980  174.5070  140.8880 O   0  0  0  0  0  0  0  0  0  0  0  0
  190.8700  175.7430  143.2950 C   0  0  0  0  0  0  0  0  0  0  0  0
  190.6760  176.9860  145.3850 N   0  0  0  0  0  2  0  0  0  0  0  0
  194.0610  175.8600  145.0480 O   0  0  0  0  0  0  0  0  0  0  0  0
  193.1810  173.8300  142.1650 C   0  0  1  0  0  3  0  0  0  0  0  0
  192.8340  176.0110  144.7990 C   0  0  0  0  0  0  0  0  0  0  0  0
  191.8800  173.2490  141.5750 C   0  0  2  0  0  3  0  0  0  0  0  0
  189.5890  173.7730  140.3390 C   0  0  2  0  0  3  0  0  0  0  0  0
  191.9280  176.4500  145.9120 C   0  0  2  0  0  3  0  0  0  0  0  0
  192.2980  175.7100  143.4880 N   0  0  0  0  0  0  0  0  0  0  0  0
  186.4770  177.3690  144.5920 N   0  0  0  0  0  0  0  0  0  0  0  0
  192.3450  172.3950  140.4140 C   0  0  0  0  0  2  0  0  0  0  0  0
  194.2880  173.4370  141.3010 N   0  0  0  0  0  2  0  0  0  0  0  0
  188.2880  177.9160  145.9620 F   0  0  0  0  0  0  0  0  0  0  0  0
  188.9020  175.2130  142.0020 C   0  0  0  0  0  0  0  0  0  0  0  0
  185.9180  176.7710  143.5080 C   0  0  0  0  0  3  0  0  0  0  0  0
  188.6610  176.5720  143.9910 C   0  0  0  0  0  0  0  0  0  0  0  0
  190.2490  175.1070  142.2050 C   0  0  0  0  0  0  0  0  0  0  0  0
  189.3150  172.2900  140.5590 C   0  0  0  0  0  1  0  0  0  0  0  0
  190.8520  174.3040  141.0930 C   0  0  1  0  0  3  0  0  0  0  0  0
  193.8330  172.2500  140.6030 C   0  0  0  0  0  2  0  0  0  0  0  0
  194.4420  175.8830  142.4780 O   0  0  0  0  0  1  0  0  0  0  0  0
  186.7090  176.0450  142.6220 C   0  0  0  0  0  3  0  0  0  0  0  0
  188.0810  175.9450  142.8580 C   0  0  0  0  0  0  0  0  0  0  0  0
  193.1560  175.3480  142.3520 C   0  0  1  0  0  3  0  0  0  0  0  0
  191.6400  175.2670  146.8250 C   0  0  0  0  0  2  0  0  0  0  0  0
  189.3170  174.5410  147.2630 C   0  0  0  0  0  1  0  0  0  0  0  0
  190.3960  175.5280  147.6520 C   0  0  0  0  0  2  0  0  0  0  0  0
  1  5  1  0  0  0  0
  2 16  1  0  0  0  0
  3 17  1  0  0  0  0
  4 12  1  0  0  0  0
  4  1  2  0  0  0  0
  5 11  1  0  0  0  0
  7 15  1  6  0  0  0
  7 27  1  0  0  0  0
  8  6  2  0  0  0  0
  8 11  1  0  0  0  0
  9 14  1  6  0  0  0
  9  7  1  0  0  0  0
 10 21  1  1  0  0  0
 10  3  1  0  0  0  0
 10 22  1  0  0  0  0
 11 28  1  1  0  0  0
 12  8  1  0  0  0  0
 13  2  1  0  0  0  0
 14 23  1  0  0  0  0
 17 20  2  0  0  0  0
 17 26  1  0  0  0  0
 18 13  2  0  0  0  0
 19  1  1  0  0  0  0
 19  2  2  0  0  0  0
 20  4  1  0  0  0  0
 22  9  1  0  0  0  0
 22 20  1  1  0  0  0
 23 15  1  0  0  0  0
 25 26  2  0  0  0  0
 25 18  1  0  0  0  0
 26 19  1  0  0  0  0
 27 24  1  1  0  0  0
 27 12  1  0  0  0  0
 28 30  1  0  0  0  0
 29 30  1  0  0  0  0
M  END
>  <MODEL>
8

>  <REMARK>
 VINA RESULT:      -7.1      2.962      6.583
  Name = 
  2 active torsions:
  status: ('A' for Active; 'I' for Inactive)
    1  A    between atoms: C_11  and  C_28
    2  A    between atoms: C_28  and  C_30
                            x       y       z     vdW  Elec       q    Type
                         _______ _______ _______ _____ _____    ______ ____

>  <TORSDO>
F 2

$$$$
=
 OpenBabel11112416233D

 30 35  0  0  1  0  0  0  0  0999 V2000
  191.1370  175.0050  144.0040 C   0  0  0  0  0  0  0  0  0  0  0  0
  188.8610  174.9200  143.0050 C   0  0  0  0  0  0  0  0  0  0  0  0
  191.9910  171.1700  142.6550 O   0  0  0  0  0  0  0  0  0  0  0  0
  192.3990  174.3980  144.1920 C   0  0  0  0  0  0  0  0  0  0  0  0
  190.9100  176.2890  144.5900 N   0  0  0  0  0  2  0  0  0  0  0  0
  193.9600  176.8540  146.3820 O   0  0  0  0  0  0  0  0  0  0  0  0
  195.1170  173.4920  145.6310 C   0  0  1  0  0  3  0  0  0  0  0  0
  193.0950  176.2720  145.6750 C   0  0  0  0  0  0  0  0  0  0  0  0
  194.4610  172.1690  145.1830 C   0  0  2  0  0  3  0  0  0  0  0  0
  193.2650  170.8570  143.2090 C   0  0  2  0  0  3  0  0  0  0  0  0
  191.6740  176.7490  145.7470 C   0  0  2  0  0  3  0  0  0  0  0  0
  193.4480  175.1290  144.8580 N   0  0  0  0  0  0  0  0  0  0  0  0
  187.9260  174.2280  142.2970 N   0  0  0  0  0  0  0  0  0  0  0  0
  195.5950  171.1650  145.2040 C   0  0  0  0  0  2  0  0  0  0  0  0
  196.5520  173.2680  145.7580 N   0  0  0  0  0  2  0  0  0  0  0  0
  188.5470  176.1630  143.4480 F   0  0  0  0  0  0  0  0  0  0  0  0
  191.6030  172.4420  143.0220 C   0  0  0  0  0  0  0  0  0  0  0  0
  188.1590  172.9780  141.8180 C   0  0  0  0  0  3  0  0  0  0  0  0
  190.1230  174.3430  143.2600 C   0  0  0  0  0  0  0  0  0  0  0  0
  192.5880  173.0890  143.7140 C   0  0  0  0  0  0  0  0  0  0  0  0
  193.0660  169.7740  144.2630 C   0  0  0  0  0  1  0  0  0  0  0  0
  193.8000  172.2100  143.7820 C   0  0  1  0  0  3  0  0  0  0  0  0
  196.7060  171.8410  145.9650 C   0  0  0  0  0  2  0  0  0  0  0  0
  195.7510  175.7140  144.8830 O   0  0  0  0  0  1  0  0  0  0  0  0
  189.3850  172.3580  142.0450 C   0  0  0  0  0  3  0  0  0  0  0  0
  190.3700  173.0370  142.7620 C   0  0  0  0  0  0  0  0  0  0  0  0
  194.8350  174.6730  144.7010 C   0  0  1  0  0  3  0  0  0  0  0  0
  191.0330  176.2360  147.0280 C   0  0  0  0  0  2  0  0  0  0  0  0
  189.0100  174.8330  147.2630 C   0  0  0  0  0  1  0  0  0  0  0  0
  189.5230  176.2070  146.8880 C   0  0  0  0  0  2  0  0  0  0  0  0
  1  4  1  0  0  0  0
  1  5  1  0  0  0  0
  2 19  1  0  0  0  0
  2 16  1  0  0  0  0
  3 17  1  0  0  0  0
  3 10  1  0  0  0  0
  4 12  1  0  0  0  0
  5 11  1  0  0  0  0
  7 15  1  6  0  0  0
  8 11  1  0  0  0  0
  8  6  2  0  0  0  0
  9 14  1  6  0  0  0
  9  7  1  0  0  0  0
 10 22  1  0  0  0  0
 10 21  1  1  0  0  0
 11 28  1  1  0  0  0
 12  8  1  0  0  0  0
 13  2  2  0  0  0  0
 14 23  1  0  0  0  0
 15 23  1  0  0  0  0
 17 20  1  0  0  0  0
 18 25  2  0  0  0  0
 18 13  1  0  0  0  0
 19  1  2  0  0  0  0
 20  4  2  0  0  0  0
 22 20  1  1  0  0  0
 22  9  1  0  0  0  0
 25 26  1  0  0  0  0
 26 17  2  0  0  0  0
 26 19  1  0  0  0  0
 27 12  1  0  0  0  0
 27 24  1  1  0  0  0
 27  7  1  0  0  0  0
 30 28  1  0  0  0  0
 30 29  1  0  0  0  0
M  END
>  <MODEL>
9

>  <REMARK>
 VINA RESULT:      -6.8      3.657      8.025
  Name = 
  2 active torsions:
  status: ('A' for Active; 'I' for Inactive)
    1  A    between atoms: C_11  and  C_28
    2  A    between atoms: C_28  and  C_30
                            x       y       z     vdW  Elec       q    Type
                         _______ _______ _______ _____ _____    ______ ____

>  <TORSDO>
F 2

$$$$
