=
 OpenBabel11112417253D

 37 43  0  0  1  0  0  0  0  0999 V2000
  194.6130  173.4700  142.7340 C   0  0  0  0  0  0  0  0  0  0  0  0
  191.7130  175.4200  144.9670 C   0  0  0  0  0  0  0  0  0  0  0  0
  188.4600  174.9860  143.7200 O   0  0  0  0  0  0  0  0  0  0  0  0
  193.9070  174.4350  144.9750 C   0  0  0  0  0  0  0  0  0  0  0  0
  190.7590  175.6840  143.8430 C   0  0  2  0  0  3  0  0  0  0  0  0
  192.6030  174.4980  144.5040 C   0  0  0  0  0  0  0  0  0  0  0  0
  189.3060  176.0020  144.1970 C   0  0  2  0  0  3  0  0  0  0  0  0
  194.2530  175.1770  146.1050 C   0  0  0  0  0  3  0  0  0  0  0  0
  192.1700  173.8910  143.2410 C   0  0  2  0  0  3  0  0  0  0  0  0
  194.5050  171.9570  142.6550 C   0  0  0  0  0  1  0  0  0  0  0  0
  191.0810  177.1430  146.7980 C   0  0  0  0  0  2  0  0  0  0  0  0
  193.2980  176.0310  146.6890 C   0  0  0  0  0  3  0  0  0  0  0  0
  193.3010  174.1220  142.2200 C   0  0  0  0  0  2  0  0  0  0  0  0
  188.6770  176.3560  141.7540 O   0  0  0  0  0  0  0  0  0  0  0  0
  187.9770  175.3190  142.4240 C   0  0  1  0  0  3  0  0  0  0  0  0
  192.0330  176.2120  146.0950 C   0  0  0  0  0  0  0  0  0  0  0  0
  190.8450  174.4980  142.9620 N   0  0  2  0  0  0  0  0  0  0  0  0
  194.9090  173.8650  144.1220 N   0  0  0  0  0  2  0  0  0  0  0  0
  188.9900  176.4350  145.6270 C   0  0  1  0  0  3  0  0  0  0  0  0
  195.7540  173.9160  141.8410 C   0  0  0  0  0  1  0  0  0  0  0  0
  188.9720  175.0500  141.3270 C   0  0  2  0  0  3  0  0  0  0  0  0
  190.4920  174.7890  141.5530 C   0  0  2  0  0  3  0  0  0  0  0  0
  189.8830  177.6120  145.9830 C   0  0  0  0  0  2  0  0  0  0  0  0
  186.9000  176.5500  146.8840 C   0  0  0  0  0  3  0  0  0  0  0  0
  187.5550  176.8510  145.7520 C   0  0  0  0  0  0  0  0  0  0  0  0
  186.9300  177.7660  144.7230 C   0  0  0  0  0  2  0  0  0  0  0  0
  184.5570  178.3660  143.5540 S   0  0  0  0  0  0  0  0  0  0  0  0
  184.7850  177.4910  146.0900 C   0  0  0  0  0  3  0  0  0  0  0  0
  185.4350  177.7710  144.7980 C   0  0  0  0  0  0  0  0  0  0  0  0
  185.4880  176.9320  147.0830 C   0  0  0  0  0  3  0  0  0  0  0  0
  190.8890  173.6070  140.6240 C   0  0  0  0  0  2  0  0  0  0  0  0
  189.9020  172.5060  140.5560 N   0  0  0  0  0  0  0  0  0  0  0  0
  188.0380  172.4700  139.1360 O   0  0  0  0  0  1  0  0  0  0  0  0
  189.4280  172.3380  139.1800 C   0  0  0  0  0  2  0  0  0  0  0  0
  190.5040  171.2570  141.0420 C   0  0  0  0  0  2  0  0  0  0  0  0
  190.1640  171.0040  142.5060 C   0  0  0  0  0  2  0  0  0  0  0  0
  189.0310  171.7320  142.8620 O   0  0  0  0  0  1  0  0  0  0  0  0
  1 18  1  0  0  0  0
  2 16  1  0  0  0  0
  4  8  2  0  0  0  0
  5  7  1  0  0  0  0
  5  2  1  1  0  0  0
  6  2  2  0  0  0  0
  6  4  1  0  0  0  0
  7  3  1  1  0  0  0
  7 19  1  0  0  0  0
  8 12  1  0  0  0  0
  9 13  1  6  0  0  0
  9  6  1  0  0  0  0
 10  1  1  0  0  0  0
 13  1  1  0  0  0  0
 15 14  1  1  0  0  0
 15  3  1  0  0  0  0
 16 12  2  0  0  0  0
 16 11  1  0  0  0  0
 17  9  1  0  0  0  0
 17  5  1  0  0  0  0
 18  4  1  0  0  0  0
 19 25  1  0  0  0  0
 19 23  1  0  0  0  0
 20  1  1  0  0  0  0
 21 22  1  0  0  0  0
 21 14  1  0  0  0  0
 21 15  1  0  0  0  0
 22 17  1  0  0  0  0
 23 11  1  0  0  0  0
 24 30  1  0  0  0  0
 25 24  2  0  0  0  0
 26 29  1  0  0  0  0
 26 25  1  0  0  0  0
 27 29  2  0  0  0  0
 28 30  2  0  0  0  0
 29 28  1  0  0  0  0
 31 22  1  0  0  0  0
 32 31  1  0  0  0  0
 32 35  1  0  0  0  0
 33 34  1  0  0  0  0
 34 32  1  0  0  0  0
 35 36  1  0  0  0  0
 36 37  1  0  0  0  0
M  END
>  <MODEL>
1

>  <REMARK>
 VINA RESULT:      -7.6      0.000      0.000
  Name = 
  6 active torsions:
  status: ('A' for Active; 'I' for Inactive)
    1  A    between atoms: C_1  and  N_4
    2  A    between atoms: C_1  and  C_27
    3  A    between atoms: N_4  and  C_12
    4  A    between atoms: N_4  and  C_37
    5  A    between atoms: C_8  and  C_12
    6  A    between atoms: C_23  and  C_30
                            x       y       z     vdW  Elec       q    Type
                         _______ _______ _______ _____ _____    ______ ____

>  <TORSDO>
F 6

$$$$
=
 OpenBabel11112417253D

 37 43  0  0  1  0  0  0  0  0999 V2000
  194.1100  172.9200  142.8500 C   0  0  0  0  0  0  0  0  0  0  0  0
  191.3310  175.1630  144.9580 C   0  0  0  0  0  0  0  0  0  0  0  0
  188.0830  174.9620  143.6440 O   0  0  0  0  0  0  0  0  0  0  0  0
  193.4360  174.0020  145.0470 C   0  0  0  0  0  0  0  0  0  0  0  0
  190.4280  175.4720  143.8050 C   0  0  2  0  0  3  0  0  0  0  0  0
  192.1530  174.1590  144.5430 C   0  0  0  0  0  0  0  0  0  0  0  0
  188.9990  175.9180  144.1150 C   0  0  2  0  0  3  0  0  0  0  0  0
  193.8170  174.7460  146.1650 C   0  0  0  0  0  3  0  0  0  0  0  0
  191.6990  173.5530  143.2850 C   0  0  2  0  0  3  0  0  0  0  0  0
  193.8800  171.4190  142.8090 C   0  0  0  0  0  1  0  0  0  0  0  0
  190.8040  176.9840  146.7280 C   0  0  0  0  0  2  0  0  0  0  0  0
  192.9230  175.6920  146.7020 C   0  0  0  0  0  3  0  0  0  0  0  0
  192.8680  173.6620  142.2870 C   0  0  0  0  0  2  0  0  0  0  0  0
  188.4560  176.2520  141.6490 O   0  0  0  0  0  0  0  0  0  0  0  0
  187.6580  175.2960  142.3290 C   0  0  1  0  0  3  0  0  0  0  0  0
  191.6910  175.9580  146.0730 C   0  0  0  0  0  0  0  0  0  0  0  0
  190.4350  174.2590  142.9590 N   0  0  2  0  0  0  0  0  0  0  0  0
  194.4060  173.3290  144.2340 N   0  0  0  0  0  2  0  0  0  0  0  0
  188.6880  176.4160  145.5240 C   0  0  1  0  0  3  0  0  0  0  0  0
  195.3040  173.2450  141.9740 C   0  0  0  0  0  1  0  0  0  0  0  0
  188.6510  174.9150  141.2640 C   0  0  2  0  0  3  0  0  0  0  0  0
  190.1390  174.5370  141.5340 C   0  0  2  0  0  3  0  0  0  0  0  0
  189.6670  177.5250  145.8710 C   0  0  0  0  0  2  0  0  0  0  0  0
  186.5820  176.7240  146.7200 C   0  0  0  0  0  3  0  0  0  0  0  0
  187.2900  176.9510  145.6040 C   0  0  0  0  0  0  0  0  0  0  0  0
  186.7700  177.8980  144.5450 C   0  0  0  0  0  2  0  0  0  0  0  0
  184.4890  178.6740  143.3010 S   0  0  0  0  0  0  0  0  0  0  0  0
  184.5740  177.8240  145.8550 C   0  0  0  0  0  3  0  0  0  0  0  0
  185.2800  178.0280  144.5770 C   0  0  0  0  0  0  0  0  0  0  0  0
  185.2010  177.2240  146.8740 C   0  0  0  0  0  3  0  0  0  0  0  0
  190.4570  173.3010  140.6470 C   0  0  0  0  0  2  0  0  0  0  0  0
  190.4800  173.5640  139.1910 N   0  0  0  0  0  0  0  0  0  0  0  0
  191.8870  174.0310  137.3760 O   0  0  0  0  0  1  0  0  0  0  0  0
  191.8630  173.6140  138.7090 C   0  0  0  0  0  2  0  0  0  0  0  0
  189.7300  172.5210  138.4770 C   0  0  0  0  0  2  0  0  0  0  0  0
  188.3640  173.0250  138.0230 C   0  0  0  0  0  2  0  0  0  0  0  0
  188.4390  174.3820  137.7140 O   0  0  0  0  0  1  0  0  0  0  0  0
  1 18  1  0  0  0  0
  2 16  1  0  0  0  0
  4  8  2  0  0  0  0
  5  7  1  0  0  0  0
  5  2  1  1  0  0  0
  6  2  2  0  0  0  0
  6  4  1  0  0  0  0
  7  3  1  1  0  0  0
  7 19  1  0  0  0  0
  8 12  1  0  0  0  0
  9 13  1  6  0  0  0
  9  6  1  0  0  0  0
 10  1  1  0  0  0  0
 13  1  1  0  0  0  0
 15 14  1  1  0  0  0
 15  3  1  0  0  0  0
 16 12  2  0  0  0  0
 16 11  1  0  0  0  0
 17  9  1  0  0  0  0
 17  5  1  0  0  0  0
 18  4  1  0  0  0  0
 19 25  1  0  0  0  0
 19 23  1  0  0  0  0
 20  1  1  0  0  0  0
 21 22  1  0  0  0  0
 21 14  1  0  0  0  0
 21 15  1  0  0  0  0
 22 17  1  0  0  0  0
 23 11  1  0  0  0  0
 24 30  1  0  0  0  0
 25 24  2  0  0  0  0
 26 29  1  0  0  0  0
 26 25  1  0  0  0  0
 27 29  2  0  0  0  0
 28 30  2  0  0  0  0
 29 28  1  0  0  0  0
 31 22  1  0  0  0  0
 32 31  1  0  0  0  0
 33 34  1  0  0  0  0
 34 32  1  0  0  0  0
 35 32  1  0  0  0  0
 36 35  1  0  0  0  0
 37 36  1  0  0  0  0
M  END
>  <MODEL>
2

>  <REMARK>
 VINA RESULT:      -7.4      1.108      1.718
  Name = 
  6 active torsions:
  status: ('A' for Active; 'I' for Inactive)
    1  A    between atoms: C_1  and  N_4
    2  A    between atoms: C_1  and  C_27
    3  A    between atoms: N_4  and  C_12
    4  A    between atoms: N_4  and  C_37
    5  A    between atoms: C_8  and  C_12
    6  A    between atoms: C_23  and  C_30
                            x       y       z     vdW  Elec       q    Type
                         _______ _______ _______ _____ _____    ______ ____

>  <TORSDO>
F 6

$$$$
=
 OpenBabel11112417253D

 37 43  0  0  1  0  0  0  0  0999 V2000
  186.7820  177.5410  146.2340 C   0  0  0  0  0  0  0  0  0  0  0  0
  190.6690  176.2480  145.5930 C   0  0  0  0  0  0  0  0  0  0  0  0
  191.3330  175.4140  142.2480 O   0  0  0  0  0  0  0  0  0  0  0  0
  189.2080  177.5540  146.9870 C   0  0  0  0  0  0  0  0  0  0  0  0
  190.3730  175.3250  144.4520 C   0  0  2  0  0  3  0  0  0  0  0  0
  189.5630  177.0260  145.7530 C   0  0  0  0  0  0  0  0  0  0  0  0
  191.5330  174.9110  143.5450 C   0  0  2  0  0  3  0  0  0  0  0  0
  190.1200  177.4790  148.0400 C   0  0  0  0  0  3  0  0  0  0  0  0
  188.6300  176.9060  144.6270 C   0  0  2  0  0  3  0  0  0  0  0  0
  186.3580  178.8040  145.5050 C   0  0  0  0  0  1  0  0  0  0  0  0
  192.9420  175.4320  146.5390 C   0  0  0  0  0  2  0  0  0  0  0  0
  191.3390  176.8010  147.8510 C   0  0  0  0  0  3  0  0  0  0  0  0
  187.2710  176.4790  145.2130 C   0  0  0  0  0  2  0  0  0  0  0  0
  190.0400  173.3890  142.1520 O   0  0  0  0  0  0  0  0  0  0  0  0
  190.6630  174.4500  141.4460 C   0  0  1  0  0  3  0  0  0  0  0  0
  191.6080  176.1240  146.6440 C   0  0  0  0  0  0  0  0  0  0  0  0
  189.3000  175.9850  143.6760 N   0  0  2  0  0  0  0  0  0  0  0  0
  187.8290  177.8730  147.2150 N   0  0  0  0  0  2  0  0  0  0  0  0
  192.9560  175.1060  144.0610 C   0  0  1  0  0  3  0  0  0  0  0  0
  185.5780  176.9860  146.9690 C   0  0  0  0  0  1  0  0  0  0  0  0
  189.1790  174.3980  141.6880 C   0  0  2  0  0  3  0  0  0  0  0  0
  188.4580  175.0330  142.9150 C   0  0  2  0  0  3  0  0  0  0  0  0
  193.0790  174.4180  145.4100 C   0  0  0  0  0  2  0  0  0  0  0  0
  193.9440  173.1800  142.9310 C   0  0  0  0  0  3  0  0  0  0  0  0
  193.9520  174.5100  143.1120 C   0  0  0  0  0  0  0  0  0  0  0  0
  194.7960  175.3990  142.2280 C   0  0  0  0  0  2  0  0  0  0  0  0
  197.2040  175.5150  140.9850 S   0  0  0  0  0  0  0  0  0  0  0  0
  195.8620  173.2210  141.4110 C   0  0  0  0  0  3  0  0  0  0  0  0
  195.9650  174.6730  141.6380 C   0  0  0  0  0  0  0  0  0  0  0  0
  194.8900  172.5210  142.0100 C   0  0  0  0  0  3  0  0  0  0  0  0
  187.1780  175.7310  142.3740 C   0  0  0  0  0  2  0  0  0  0  0  0
  187.4240  176.8540  141.4420 N   0  0  0  0  0  0  0  0  0  0  0  0
  186.7540  177.5560  139.3090 O   0  0  0  0  0  1  0  0  0  0  0  0
  187.1280  176.4440  140.0670 C   0  0  0  0  0  2  0  0  0  0  0  0
  186.5990  178.0110  141.8160 C   0  0  0  0  0  2  0  0  0  0  0  0
  185.2260  177.5790  142.3230 C   0  0  0  0  0  2  0  0  0  0  0  0
  184.2290  178.2600  141.6270 O   0  0  0  0  0  1  0  0  0  0  0  0
  1 20  1  0  0  0  0
  1 18  1  0  0  0  0
  2  6  2  0  0  0  0
  2 16  1  0  0  0  0
  4 18  1  0  0  0  0
  4  8  2  0  0  0  0
  5  2  1  1  0  0  0
  6  4  1  0  0  0  0
  7  3  1  6  0  0  0
  7 19  1  0  0  0  0
  7  5  1  0  0  0  0
  9 13  1  1  0  0  0
  9  6  1  0  0  0  0
 10  1  1  0  0  0  0
 11 16  1  0  0  0  0
 12  8  1  0  0  0  0
 13  1  1  0  0  0  0
 15 21  1  0  0  0  0
 15 14  1  1  0  0  0
 15  3  1  0  0  0  0
 16 12  2  0  0  0  0
 17  5  1  0  0  0  0
 17  9  1  0  0  0  0
 19 23  1  0  0  0  0
 21 14  1  0  0  0  0
 21 22  1  0  0  0  0
 22 17  1  0  0  0  0
 23 11  1  0  0  0  0
 24 25  2  0  0  0  0
 25 19  1  0  0  0  0
 26 25  1  0  0  0  0
 27 29  2  0  0  0  0
 28 29  1  0  0  0  0
 28 30  2  0  0  0  0
 29 26  1  0  0  0  0
 30 24  1  0  0  0  0
 31 22  1  0  0  0  0
 32 35  1  0  0  0  0
 32 31  1  0  0  0  0
 33 34  1  0  0  0  0
 34 32  1  0  0  0  0
 35 36  1  0  0  0  0
 37 36  1  0  0  0  0
M  END
>  <MODEL>
3

>  <REMARK>
 VINA RESULT:      -7.2      3.004      6.944
  Name = 
  6 active torsions:
  status: ('A' for Active; 'I' for Inactive)
    1  A    between atoms: C_1  and  N_4
    2  A    between atoms: C_1  and  C_27
    3  A    between atoms: N_4  and  C_12
    4  A    between atoms: N_4  and  C_37
    5  A    between atoms: C_8  and  C_12
    6  A    between atoms: C_23  and  C_30
                            x       y       z     vdW  Elec       q    Type
                         _______ _______ _______ _____ _____    ______ ____

>  <TORSDO>
F 6

$$$$
=
 OpenBabel11112417253D

 37 43  0  0  1  0  0  0  0  0999 V2000
  193.5810  172.6010  141.9760 C   0  0  0  0  0  0  0  0  0  0  0  0
  189.9820  174.6570  142.1070 C   0  0  0  0  0  0  0  0  0  0  0  0
  189.8210  177.0330  144.6860 O   0  0  0  0  0  0  0  0  0  0  0  0
  191.5250  173.4240  140.7340 C   0  0  0  0  0  0  0  0  0  0  0  0
  189.9600  174.8990  143.5850 C   0  0  2  0  0  3  0  0  0  0  0  0
  191.2510  174.2660  141.8030 C   0  0  0  0  0  0  0  0  0  0  0  0
  189.0490  176.0070  144.1150 C   0  0  2  0  0  3  0  0  0  0  0  0
  190.5120  173.1520  139.8130 C   0  0  0  0  0  3  0  0  0  0  0  0
  192.1850  174.4920  142.9120 C   0  0  2  0  0  3  0  0  0  0  0  0
  194.8280  173.4310  141.7180 C   0  0  0  0  0  1  0  0  0  0  0  0
  187.5130  174.8960  141.3530 C   0  0  0  0  0  2  0  0  0  0  0  0
  189.2210  173.6700  140.0340 C   0  0  0  0  0  3  0  0  0  0  0  0
  192.8410  173.1350  143.2320 C   0  0  0  0  0  2  0  0  0  0  0  0
  189.6660  175.5020  146.5340 O   0  0  0  0  0  0  0  0  0  0  0  0
  189.9780  176.8100  146.0820 C   0  0  1  0  0  3  0  0  0  0  0  0
  188.9210  174.3800  141.2130 C   0  0  0  0  0  0  0  0  0  0  0  0
  191.3680  175.1390  143.9690 N   0  0  2  0  0  0  0  0  0  0  0  0
  192.7200  172.6330  140.7820 N   0  0  0  0  0  2  0  0  0  0  0  0
  187.9320  176.5180  143.2080 C   0  0  1  0  0  3  0  0  0  0  0  0
  194.0060  171.1700  142.2390 C   0  0  0  0  0  1  0  0  0  0  0  0
  191.0350  175.7900  146.4090 C   0  0  2  0  0  3  0  0  0  0  0  0
  191.6550  174.7950  145.3810 C   0  0  2  0  0  3  0  0  0  0  0  0
  187.0990  175.3320  142.7530 C   0  0  0  0  0  2  0  0  0  0  0  0
  186.6180  178.5740  143.2890 C   0  0  0  0  0  3  0  0  0  0  0  0
  187.0520  177.4850  143.9410 C   0  0  0  0  0  0  0  0  0  0  0  0
  186.4980  177.1350  145.3040 C   0  0  0  0  0  2  0  0  0  0  0  0
  185.6890  178.2560  147.6380 S   0  0  0  0  0  0  0  0  0  0  0  0
  185.4500  179.4680  145.2450 C   0  0  0  0  0  3  0  0  0  0  0  0
  185.9670  178.3320  146.0290 C   0  0  0  0  0  0  0  0  0  0  0  0
  185.7440  179.5680  143.9430 C   0  0  0  0  0  3  0  0  0  0  0  0
  193.1870  174.7700  145.6480 C   0  0  0  0  0  2  0  0  0  0  0  0
  193.9040  176.0170  145.3000 N   0  0  0  0  0  0  0  0  0  0  0  0
  194.9420  177.9210  146.1880 O   0  0  0  0  0  1  0  0  0  0  0  0
  194.1860  176.7920  146.5110 C   0  0  0  0  0  2  0  0  0  0  0  0
  195.1550  175.7020  144.5960 C   0  0  0  0  0  2  0  0  0  0  0  0
  195.8990  174.5510  145.2660 C   0  0  0  0  0  2  0  0  0  0  0  0
  197.2120  174.5030  144.8030 O   0  0  0  0  0  1  0  0  0  0  0  0
  1 20  1  0  0  0  0
  1 13  1  0  0  0  0
  4 18  1  0  0  0  0
  4  6  2  0  0  0  0
  5  2  1  6  0  0  0
  5 17  1  0  0  0  0
  5  7  1  0  0  0  0
  6  2  1  0  0  0  0
  6  9  1  0  0  0  0
  7  3  1  6  0  0  0
  8 12  2  0  0  0  0
  8  4  1  0  0  0  0
  9 13  1  1  0  0  0
  9 17  1  0  0  0  0
 10  1  1  0  0  0  0
 11 23  1  0  0  0  0
 12 16  1  0  0  0  0
 15  3  1  6  0  0  0
 15 21  1  0  0  0  0
 15 14  1  0  0  0  0
 16 11  1  0  0  0  0
 16  2  2  0  0  0  0
 17 22  1  0  0  0  0
 18  1  1  0  0  0  0
 19 25  1  0  0  0  0
 19  7  1  0  0  0  0
 21 14  1  0  0  0  0
 22 31  1  0  0  0  0
 22 21  1  0  0  0  0
 23 19  1  0  0  0  0
 24 25  2  0  0  0  0
 24 30  1  0  0  0  0
 25 26  1  0  0  0  0
 26 29  1  0  0  0  0
 28 29  1  0  0  0  0
 29 27  2  0  0  0  0
 30 28  2  0  0  0  0
 32 31  1  0  0  0  0
 32 34  1  0  0  0  0
 33 34  1  0  0  0  0
 35 36  1  0  0  0  0
 35 32  1  0  0  0  0
 37 36  1  0  0  0  0
M  END
>  <MODEL>
4

>  <REMARK>
 VINA RESULT:      -7.1      2.488      5.139
  Name = 
  6 active torsions:
  status: ('A' for Active; 'I' for Inactive)
    1  A    between atoms: C_1  and  N_4
    2  A    between atoms: C_1  and  C_27
    3  A    between atoms: N_4  and  C_12
    4  A    between atoms: N_4  and  C_37
    5  A    between atoms: C_8  and  C_12
    6  A    between atoms: C_23  and  C_30
                            x       y       z     vdW  Elec       q    Type
                         _______ _______ _______ _____ _____    ______ ____

>  <TORSDO>
F 6

$$$$
=
 OpenBabel11112417253D

 37 43  0  0  1  0  0  0  0  0999 V2000
  187.5630  176.5980  141.8270 C   0  0  0  0  0  0  0  0  0  0  0  0
  190.9520  174.2540  142.2880 C   0  0  0  0  0  0  0  0  0  0  0  0
  192.3120  174.3790  145.5220 O   0  0  0  0  0  0  0  0  0  0  0  0
  188.9170  174.5940  141.0520 C   0  0  0  0  0  0  0  0  0  0  0  0
  191.6200  175.0940  143.3320 C   0  0  2  0  0  3  0  0  0  0  0  0
  189.6610  174.6810  142.2210 C   0  0  0  0  0  0  0  0  0  0  0  0
  192.7170  174.4480  144.1780 C   0  0  2  0  0  3  0  0  0  0  0  0
  189.4220  173.8480  139.9860 C   0  0  0  0  0  3  0  0  0  0  0  0
  189.3070  175.5620  143.3400 C   0  0  2  0  0  3  0  0  0  0  0  0
  186.3640  176.2340  142.6860 C   0  0  0  0  0  1  0  0  0  0  0  0
  192.8640  172.8510  141.2370 C   0  0  0  0  0  2  0  0  0  0  0  0
  190.7030  173.2730  140.0910 C   0  0  0  0  0  3  0  0  0  0  0  0
  188.7950  176.8800  142.7290 C   0  0  0  0  0  2  0  0  0  0  0  0
  193.1820  176.6190  145.4250 O   0  0  0  0  0  0  0  0  0  0  0  0
  192.7610  175.5280  146.2290 C   0  0  1  0  0  3  0  0  0  0  0  0
  191.5120  173.5150  141.2180 C   0  0  0  0  0  0  0  0  0  0  0  0
  190.5260  175.6110  144.1840 N   0  0  2  0  0  0  0  0  0  0  0  0
  187.8270  175.5070  140.8730 N   0  0  0  0  0  2  0  0  0  0  0  0
  193.3550  173.1580  143.6690 C   0  0  1  0  0  3  0  0  0  0  0  0
  187.2320  177.8590  141.0540 C   0  0  0  0  0  1  0  0  0  0  0  0
  191.9050  176.7440  146.0010 C   0  0  2  0  0  3  0  0  0  0  0  0
  190.8610  176.8900  144.8530 C   0  0  2  0  0  3  0  0  0  0  0  0
  193.8590  173.3940  142.2540 C   0  0  0  0  0  2  0  0  0  0  0  0
  195.5230  173.6140  144.6930 C   0  0  0  0  0  3  0  0  0  0  0  0
  194.5060  172.7530  144.5390 C   0  0  0  0  0  0  0  0  0  0  0  0
  194.4240  171.5030  145.3870 C   0  0  0  0  0  2  0  0  0  0  0  0
  195.9610  169.5520  146.4760 S   0  0  0  0  0  0  0  0  0  0  0  0
  196.8170  172.0750  146.0890 C   0  0  0  0  0  3  0  0  0  0  0  0
  195.7640  171.0640  145.8860 C   0  0  0  0  0  0  0  0  0  0  0  0
  196.6890  173.2890  145.5390 C   0  0  0  0  0  3  0  0  0  0  0  0
  189.5940  177.5400  145.4780 C   0  0  0  0  0  2  0  0  0  0  0  0
  189.2770  177.0980  146.8540 N   0  0  0  0  0  0  0  0  0  0  0  0
  187.2950  178.1440  147.5410 O   0  0  0  0  0  1  0  0  0  0  0  0
  188.6890  178.2020  147.6160 C   0  0  0  0  0  2  0  0  0  0  0  0
  188.3520  175.9570  146.8180 C   0  0  0  0  0  2  0  0  0  0  0  0
  188.9570  174.7250  147.4830 C   0  0  0  0  0  2  0  0  0  0  0  0
  189.3160  173.7910  146.5130 O   0  0  0  0  0  1  0  0  0  0  0  0
  1 10  1  0  0  0  0
  1 13  1  0  0  0  0
  3 15  1  0  0  0  0
  4  6  2  0  0  0  0
  5  2  1  6  0  0  0
  5  7  1  0  0  0  0
  5 17  1  0  0  0  0
  6  2  1  0  0  0  0
  6  9  1  0  0  0  0
  7  3  1  1  0  0  0
  8 12  2  0  0  0  0
  8  4  1  0  0  0  0
  9 13  1  6  0  0  0
  9 17  1  0  0  0  0
 11 23  1  0  0  0  0
 12 16  1  0  0  0  0
 14 21  1  0  0  0  0
 15 14  1  6  0  0  0
 16 11  1  0  0  0  0
 16  2  2  0  0  0  0
 17 22  1  0  0  0  0
 18  4  1  0  0  0  0
 18  1  1  0  0  0  0
 19  7  1  0  0  0  0
 19 25  1  0  0  0  0
 20  1  1  0  0  0  0
 21 15  1  0  0  0  0
 22 31  1  0  0  0  0
 22 21  1  0  0  0  0
 23 19  1  0  0  0  0
 24 30  1  0  0  0  0
 25 24  2  0  0  0  0
 25 26  1  0  0  0  0
 26 29  1  0  0  0  0
 29 28  1  0  0  0  0
 29 27  2  0  0  0  0
 30 28  2  0  0  0  0
 31 32  1  0  0  0  0
 32 34  1  0  0  0  0
 33 34  1  0  0  0  0
 35 32  1  0  0  0  0
 35 36  1  0  0  0  0
 37 36  1  0  0  0  0
M  END
>  <MODEL>
5

>  <REMARK>
 VINA RESULT:      -7.0      3.524      7.720
  Name = 
  6 active torsions:
  status: ('A' for Active; 'I' for Inactive)
    1  A    between atoms: C_1  and  N_4
    2  A    between atoms: C_1  and  C_27
    3  A    between atoms: N_4  and  C_12
    4  A    between atoms: N_4  and  C_37
    5  A    between atoms: C_8  and  C_12
    6  A    between atoms: C_23  and  C_30
                            x       y       z     vdW  Elec       q    Type
                         _______ _______ _______ _____ _____    ______ ____

>  <TORSDO>
F 6

$$$$
=
 OpenBabel11112417253D

 37 43  0  0  1  0  0  0  0  0999 V2000
  187.4080  177.0630  142.7570 C   0  0  0  0  0  0  0  0  0  0  0  0
  190.7490  175.9900  144.9660 C   0  0  0  0  0  0  0  0  0  0  0  0
  193.1100  174.1510  143.1300 O   0  0  0  0  0  0  0  0  0  0  0  0
  188.9320  177.5480  144.7300 C   0  0  0  0  0  0  0  0  0  0  0  0
  191.0510  174.7150  144.2400 C   0  0  2  0  0  3  0  0  0  0  0  0
  189.8640  176.6720  144.1880 C   0  0  0  0  0  0  0  0  0  0  0  0
  192.4580  174.1300  144.3750 C   0  0  2  0  0  3  0  0  0  0  0  0
  189.0500  177.9120  146.0720 C   0  0  0  0  0  3  0  0  0  0  0  0
  189.7460  176.0980  142.8430 C   0  0  2  0  0  3  0  0  0  0  0  0
  187.6470  177.9650  141.5590 C   0  0  0  0  0  1  0  0  0  0  0  0
  191.9320  175.7480  147.2610 C   0  0  0  0  0  2  0  0  0  0  0  0
  190.0560  177.3240  146.8610 C   0  0  0  0  0  3  0  0  0  0  0  0
  188.2570  175.7700  142.6230 C   0  0  0  0  0  2  0  0  0  0  0  0
  191.8640  172.1000  142.9560 O   0  0  0  0  0  0  0  0  0  0  0  0
  192.9090  172.9160  142.4510 C   0  0  1  0  0  3  0  0  0  0  0  0
  190.8840  176.3100  146.3370 C   0  0  0  0  0  0  0  0  0  0  0  0
  190.7180  174.9780  142.8220 N   0  0  2  0  0  0  0  0  0  0  0  0
  187.7280  177.7970  143.9920 N   0  0  0  0  0  2  0  0  0  0  0  0
  193.3330  174.6150  145.5280 C   0  0  1  0  0  3  0  0  0  0  0  0
  185.9420  176.6770  142.7790 C   0  0  0  0  0  1  0  0  0  0  0  0
  191.5660  172.8130  141.7820 C   0  0  2  0  0  3  0  0  0  0  0  0
  190.3560  173.7530  142.0700 C   0  0  2  0  0  3  0  0  0  0  0  0
  192.5650  174.4320  146.8260 C   0  0  0  0  0  2  0  0  0  0  0  0
  195.7610  174.4970  145.7510 C   0  0  0  0  0  3  0  0  0  0  0  0
  194.6080  173.8300  145.5950 C   0  0  0  0  0  0  0  0  0  0  0  0
  194.5740  172.3210  145.6970 C   0  0  0  0  0  2  0  0  0  0  0  0
  195.9900  170.1000  145.0500 S   0  0  0  0  0  0  0  0  0  0  0  0
  197.1280  172.4690  145.6370 C   0  0  0  0  0  3  0  0  0  0  0  0
  195.8980  171.6980  145.3820 C   0  0  0  0  0  0  0  0  0  0  0  0
  197.0560  173.7920  145.8320 C   0  0  0  0  0  3  0  0  0  0  0  0
  189.7260  174.1100  140.6950 C   0  0  0  0  0  2  0  0  0  0  0  0
  189.7250  173.0130  139.7020 N   0  0  0  0  0  0  0  0  0  0  0  0
  187.8750  173.5640  138.3730 O   0  0  0  0  0  1  0  0  0  0  0  0
  188.3500  172.6670  139.3330 C   0  0  0  0  0  2  0  0  0  0  0  0
  190.4870  173.4080  138.5100 C   0  0  0  0  0  2  0  0  0  0  0  0
  191.0890  172.1990  137.8030 C   0  0  0  0  0  2  0  0  0  0  0  0
  191.4420  171.2300  138.7400 O   0  0  0  0  0  1  0  0  0  0  0  0
  1 20  1  0  0  0  0
  1 18  1  0  0  0  0
  2 16  1  0  0  0  0
  4  8  2  0  0  0  0
  5  7  1  0  0  0  0
  5  2  1  1  0  0  0
  6  4  1  0  0  0  0
  6  2  2  0  0  0  0
  7  3  1  6  0  0  0
  7 19  1  0  0  0  0
  8 12  1  0  0  0  0
  9 13  1  1  0  0  0
  9  6  1  0  0  0  0
 10  1  1  0  0  0  0
 13  1  1  0  0  0  0
 15 14  1  1  0  0  0
 15  3  1  0  0  0  0
 16 12  2  0  0  0  0
 16 11  1  0  0  0  0
 17  9  1  0  0  0  0
 17  5  1  0  0  0  0
 18  4  1  0  0  0  0
 19 25  1  0  0  0  0
 19 23  1  0  0  0  0
 21 22  1  0  0  0  0
 21 15  1  0  0  0  0
 21 14  1  0  0  0  0
 22 17  1  0  0  0  0
 23 11  1  0  0  0  0
 24 30  1  0  0  0  0
 25 26  1  0  0  0  0
 25 24  2  0  0  0  0
 27 29  2  0  0  0  0
 28 30  2  0  0  0  0
 29 28  1  0  0  0  0
 29 26  1  0  0  0  0
 31 22  1  0  0  0  0
 32 31  1  0  0  0  0
 33 34  1  0  0  0  0
 34 32  1  0  0  0  0
 35 32  1  0  0  0  0
 36 35  1  0  0  0  0
 36 37  1  0  0  0  0
M  END
>  <MODEL>
6

>  <REMARK>
 VINA RESULT:      -6.9      3.161      6.529
  Name = 
  6 active torsions:
  status: ('A' for Active; 'I' for Inactive)
    1  A    between atoms: C_1  and  N_4
    2  A    between atoms: C_1  and  C_27
    3  A    between atoms: N_4  and  C_12
    4  A    between atoms: N_4  and  C_37
    5  A    between atoms: C_8  and  C_12
    6  A    between atoms: C_23  and  C_30
                            x       y       z     vdW  Elec       q    Type
                         _______ _______ _______ _____ _____    ______ ____

>  <TORSDO>
F 6

$$$$
=
 OpenBabel11112417253D

 37 43  0  0  1  0  0  0  0  0999 V2000
  193.8490  172.3790  144.0180 C   0  0  0  0  0  0  0  0  0  0  0  0
  190.9930  175.2760  144.8160 C   0  0  0  0  0  0  0  0  0  0  0  0
  187.9670  174.7680  143.1100 O   0  0  0  0  0  0  0  0  0  0  0  0
  192.9550  174.1380  145.6160 C   0  0  0  0  0  0  0  0  0  0  0  0
  190.2990  175.2240  143.4910 C   0  0  2  0  0  3  0  0  0  0  0  0
  191.7770  174.1650  144.8820 C   0  0  0  0  0  0  0  0  0  0  0  0
  188.8820  175.7940  143.4010 C   0  0  2  0  0  3  0  0  0  0  0  0
  193.2290  175.1910  146.4890 C   0  0  0  0  0  3  0  0  0  0  0  0
  191.4640  173.1990  143.8220 C   0  0  2  0  0  3  0  0  0  0  0  0
  193.5010  170.9540  144.4140 C   0  0  0  0  0  1  0  0  0  0  0  0
  190.3670  177.5900  145.8070 C   0  0  0  0  0  2  0  0  0  0  0  0
  192.3490  176.2890  146.5440 C   0  0  0  0  0  3  0  0  0  0  0  0
  192.7720  172.9380  143.0510 C   0  0  0  0  0  2  0  0  0  0  0  0
  188.7390  175.3270  140.9010 O   0  0  0  0  0  0  0  0  0  0  0  0
  187.7710  174.6700  141.7040 C   0  0  1  0  0  3  0  0  0  0  0  0
  191.2500  176.3780  145.6670 C   0  0  0  0  0  0  0  0  0  0  0  0
  190.3270  173.8020  143.0840 N   0  0  2  0  0  0  0  0  0  0  0  0
  193.9730  173.2050  145.2300 N   0  0  0  0  0  2  0  0  0  0  0  0
  188.4110  176.7320  144.5090 C   0  0  1  0  0  3  0  0  0  0  0  0
  195.1830  172.3610  143.2960 C   0  0  0  0  0  1  0  0  0  0  0  0
  188.8740  173.9310  140.9960 C   0  0  2  0  0  3  0  0  0  0  0  0
  190.2680  173.6120  141.6160 C   0  0  2  0  0  3  0  0  0  0  0  0
  189.4190  177.8610  144.6460 C   0  0  0  0  0  2  0  0  0  0  0  0
  186.1850  177.4810  145.1770 C   0  0  0  0  0  3  0  0  0  0  0  0
  187.0670  177.3110  144.1810 C   0  0  0  0  0  0  0  0  0  0  0  0
  186.7930  177.8810  142.8070 C   0  0  0  0  0  2  0  0  0  0  0  0
  184.7950  178.2880  141.0200 S   0  0  0  0  0  0  0  0  0  0  0  0
  184.4280  178.3070  143.6870 C   0  0  0  0  0  3  0  0  0  0  0  0
  185.3310  178.0640  142.5470 C   0  0  0  0  0  0  0  0  0  0  0  0
  184.8450  178.0490  144.9330 C   0  0  0  0  0  3  0  0  0  0  0  0
  190.6070  172.1450  141.2300 C   0  0  0  0  0  2  0  0  0  0  0  0
  190.6430  171.8720  139.7760 N   0  0  0  0  0  0  0  0  0  0  0  0
  192.9760  171.6530  139.8070 O   0  0  0  0  0  1  0  0  0  0  0  0
  191.9130  172.3320  139.2070 C   0  0  0  0  0  2  0  0  0  0  0  0
  190.4660  170.4350  139.5260 C   0  0  0  0  0  2  0  0  0  0  0  0
  189.6960  170.1810  138.2350 C   0  0  0  0  0  2  0  0  0  0  0  0
  190.0660  168.9510  137.6960 O   0  0  0  0  0  1  0  0  0  0  0  0
  1 10  1  0  0  0  0
  1 18  1  0  0  0  0
  2  6  2  0  0  0  0
  2 16  1  0  0  0  0
  4  8  2  0  0  0  0
  5  2  1  1  0  0  0
  6  4  1  0  0  0  0
  7  3  1  1  0  0  0
  7  5  1  0  0  0  0
  7 19  1  0  0  0  0
  8 12  1  0  0  0  0
  9 13  1  6  0  0  0
  9  6  1  0  0  0  0
 13  1  1  0  0  0  0
 14 21  1  0  0  0  0
 15 14  1  6  0  0  0
 15  3  1  0  0  0  0
 16 11  1  0  0  0  0
 16 12  2  0  0  0  0
 17  5  1  0  0  0  0
 17  9  1  0  0  0  0
 18  4  1  0  0  0  0
 19 23  1  0  0  0  0
 20  1  1  0  0  0  0
 21 22  1  0  0  0  0
 21 15  1  0  0  0  0
 22 17  1  0  0  0  0
 23 11  1  0  0  0  0
 25 19  1  0  0  0  0
 25 24  2  0  0  0  0
 26 25  1  0  0  0  0
 27 29  2  0  0  0  0
 28 30  2  0  0  0  0
 29 26  1  0  0  0  0
 29 28  1  0  0  0  0
 30 24  1  0  0  0  0
 31 22  1  0  0  0  0
 32 31  1  0  0  0  0
 34 32  1  0  0  0  0
 34 33  1  0  0  0  0
 35 32  1  0  0  0  0
 36 35  1  0  0  0  0
 37 36  1  0  0  0  0
M  END
>  <MODEL>
7

>  <REMARK>
 VINA RESULT:      -6.9      1.720      2.132
  Name = 
  6 active torsions:
  status: ('A' for Active; 'I' for Inactive)
    1  A    between atoms: C_1  and  N_4
    2  A    between atoms: C_1  and  C_27
    3  A    between atoms: N_4  and  C_12
    4  A    between atoms: N_4  and  C_37
    5  A    between atoms: C_8  and  C_12
    6  A    between atoms: C_23  and  C_30
                            x       y       z     vdW  Elec       q    Type
                         _______ _______ _______ _____ _____    ______ ____

>  <TORSDO>
F 6

$$$$
=
 OpenBabel11112417253D

 37 43  0  0  1  0  0  0  0  0999 V2000
  189.6430  175.5720  146.2720 C   0  0  0  0  0  0  0  0  0  0  0  0
  193.3860  175.5640  144.4870 C   0  0  0  0  0  0  0  0  0  0  0  0
  193.2980  174.8460  141.0520 O   0  0  0  0  0  0  0  0  0  0  0  0
  192.0470  176.3930  146.3050 C   0  0  0  0  0  0  0  0  0  0  0  0
  193.0860  174.5470  143.4300 C   0  0  2  0  0  3  0  0  0  0  0  0
  192.1840  175.9540  144.9950 C   0  0  0  0  0  0  0  0  0  0  0  0
  194.0080  174.4880  142.2110 C   0  0  2  0  0  3  0  0  0  0  0  0
  193.1960  176.6580  147.0510 C   0  0  0  0  0  3  0  0  0  0  0  0
  191.0570  175.4940  144.1750 C   0  0  2  0  0  3  0  0  0  0  0  0
  188.6500  176.6010  145.7610 C   0  0  0  0  0  1  0  0  0  0  0  0
  195.9700  175.5600  144.7050 C   0  0  0  0  0  2  0  0  0  0  0  0
  194.4600  176.3980  146.4880 C   0  0  0  0  0  3  0  0  0  0  0  0
  190.1320  174.6800  145.0990 C   0  0  0  0  0  2  0  0  0  0  0  0
  192.7460  172.5100  141.2200 O   0  0  0  0  0  0  0  0  0  0  0  0
  192.7700  173.6840  140.4230 C   0  0  1  0  0  3  0  0  0  0  0  0
  194.5750  175.7920  145.2210 C   0  0  0  0  0  0  0  0  0  0  0  0
  191.6850  174.7960  143.0260 N   0  0  2  0  0  0  0  0  0  0  0  0
  190.7640  176.2630  146.9320 N   0  0  0  0  0  2  0  0  0  0  0  0
  195.3800  175.1500  142.3110 C   0  0  1  0  0  3  0  0  0  0  0  0
  188.9410  174.6920  147.2870 C   0  0  0  0  0  1  0  0  0  0  0  0
  191.5140  173.1700  141.0730 C   0  0  2  0  0  3  0  0  0  0  0  0
  191.0100  173.5930  142.4860 C   0  0  2  0  0  3  0  0  0  0  0  0
  196.0950  174.5960  143.5320 C   0  0  0  0  0  2  0  0  0  0  0  0
  196.8860  175.8720  140.5300 C   0  0  0  0  0  3  0  0  0  0  0  0
  196.2000  174.8640  141.0890 C   0  0  0  0  0  0  0  0  0  0  0  0
  196.4150  173.4400  140.6270 C   0  0  0  0  0  2  0  0  0  0  0  0
  196.8540  171.9560  138.4000 S   0  0  0  0  0  0  0  0  0  0  0  0
  197.7240  174.4870  138.6950 C   0  0  0  0  0  3  0  0  0  0  0  0
  196.9250  173.3670  139.2220 C   0  0  0  0  0  0  0  0  0  0  0  0
  197.7200  175.6660  139.3290 C   0  0  0  0  0  3  0  0  0  0  0  0
  189.4760  173.8210  142.3670 C   0  0  0  0  0  2  0  0  0  0  0  0
  189.0750  174.9210  141.4630 N   0  0  0  0  0  0  0  0  0  0  0  0
  188.1270  173.0510  140.4160 O   0  0  0  0  0  1  0  0  0  0  0  0
  188.5210  174.3770  140.2210 C   0  0  0  0  0  2  0  0  0  0  0  0
  188.0870  175.7850  142.1250 C   0  0  0  0  0  2  0  0  0  0  0  0
  188.1920  177.2280  141.6420 C   0  0  0  0  0  2  0  0  0  0  0  0
  189.1830  177.8960  142.3570 O   0  0  0  0  0  1  0  0  0  0  0  0
  1 18  1  0  0  0  0
  1 20  1  0  0  0  0
  2  6  2  0  0  0  0
  2 16  1  0  0  0  0
  4 18  1  0  0  0  0
  4  8  2  0  0  0  0
  5  2  1  1  0  0  0
  6  4  1  0  0  0  0
  7  3  1  6  0  0  0
  7 19  1  0  0  0  0
  7  5  1  0  0  0  0
  9  6  1  0  0  0  0
  9 13  1  1  0  0  0
 10  1  1  0  0  0  0
 11 16  1  0  0  0  0
 12  8  1  0  0  0  0
 13  1  1  0  0  0  0
 15  3  1  1  0  0  0
 15 21  1  0  0  0  0
 15 14  1  0  0  0  0
 16 12  2  0  0  0  0
 17  5  1  0  0  0  0
 17  9  1  0  0  0  0
 19 23  1  0  0  0  0
 21 14  1  0  0  0  0
 21 22  1  0  0  0  0
 22 17  1  0  0  0  0
 23 11  1  0  0  0  0
 24 25  2  0  0  0  0
 25 19  1  0  0  0  0
 26 25  1  0  0  0  0
 27 29  2  0  0  0  0
 28 29  1  0  0  0  0
 28 30  2  0  0  0  0
 29 26  1  0  0  0  0
 30 24  1  0  0  0  0
 31 22  1  0  0  0  0
 32 35  1  0  0  0  0
 32 31  1  0  0  0  0
 34 33  1  0  0  0  0
 34 32  1  0  0  0  0
 36 35  1  0  0  0  0
 36 37  1  0  0  0  0
M  END
>  <MODEL>
8

>  <REMARK>
 VINA RESULT:      -6.6      3.209      7.136
  Name = 
  6 active torsions:
  status: ('A' for Active; 'I' for Inactive)
    1  A    between atoms: C_1  and  N_4
    2  A    between atoms: C_1  and  C_27
    3  A    between atoms: N_4  and  C_12
    4  A    between atoms: N_4  and  C_37
    5  A    between atoms: C_8  and  C_12
    6  A    between atoms: C_23  and  C_30
                            x       y       z     vdW  Elec       q    Type
                         _______ _______ _______ _____ _____    ______ ____

>  <TORSDO>
F 6

$$$$
=
 OpenBabel11112417253D

 37 43  0  0  1  0  0  0  0  0999 V2000
  194.4790  172.0250  144.1960 C   0  0  0  0  0  0  0  0  0  0  0  0
  192.0290  175.3710  144.2370 C   0  0  0  0  0  0  0  0  0  0  0  0
  188.6830  174.6640  143.4470 O   0  0  0  0  0  0  0  0  0  0  0  0
  194.0510  174.3710  145.0720 C   0  0  0  0  0  0  0  0  0  0  0  0
  191.0630  174.9060  143.1920 C   0  0  2  0  0  3  0  0  0  0  0  0
  192.7460  174.2740  144.6100 C   0  0  0  0  0  0  0  0  0  0  0  0
  189.6950  175.5870  143.1290 C   0  0  2  0  0  3  0  0  0  0  0  0
  194.5660  175.6310  145.3780 C   0  0  0  0  0  3  0  0  0  0  0  0
  192.1570  173.0270  144.1080 C   0  0  2  0  0  3  0  0  0  0  0  0
  194.1460  170.9280  145.1920 C   0  0  0  0  0  1  0  0  0  0  0  0
  191.7630  177.9500  144.2960 C   0  0  0  0  0  2  0  0  0  0  0  0
  193.7820  176.7750  145.1360 C   0  0  0  0  0  3  0  0  0  0  0  0
  193.2510  172.3110  143.2920 C   0  0  0  0  0  2  0  0  0  0  0  0
  188.9880  174.2150  141.1030 O   0  0  0  0  0  0  0  0  0  0  0  0
  188.1810  174.0600  142.2610 C   0  0  1  0  0  3  0  0  0  0  0  0
  192.5260  176.6680  144.5070 C   0  0  0  0  0  0  0  0  0  0  0  0
  190.9230  173.4480  143.4010 N   0  0  2  0  0  0  0  0  0  0  0  0
  194.9080  173.2300  144.9260 N   0  0  0  0  0  2  0  0  0  0  0  0
  189.5270  176.9360  143.8240 C   0  0  1  0  0  3  0  0  0  0  0  0
  195.6220  171.5470  143.3220 C   0  0  0  0  0  1  0  0  0  0  0  0
  189.0620  172.9600  141.7320 C   0  0  2  0  0  3  0  0  0  0  0  0
  190.5370  172.7160  142.1720 C   0  0  2  0  0  3  0  0  0  0  0  0
  190.6020  177.8790  143.3110 C   0  0  0  0  0  2  0  0  0  0  0  0
  187.4440  177.9760  144.5580 C   0  0  0  0  0  3  0  0  0  0  0  0
  188.1790  177.5210  143.5320 C   0  0  0  0  0  0  0  0  0  0  0  0
  187.7510  177.7860  142.1050 C   0  0  0  0  0  2  0  0  0  0  0  0
  185.5540  177.9230  140.5210 S   0  0  0  0  0  0  0  0  0  0  0  0
  185.5440  178.5710  143.1340 C   0  0  0  0  0  3  0  0  0  0  0  0
  186.2770  178.0110  141.9850 C   0  0  0  0  0  0  0  0  0  0  0  0
  186.1090  178.5710  144.3480 C   0  0  0  0  0  3  0  0  0  0  0  0
  190.7020  171.1820  142.3620 C   0  0  0  0  0  2  0  0  0  0  0  0
  191.0800  170.4360  141.1410 N   0  0  0  0  0  0  0  0  0  0  0  0
  191.2070  170.7430  138.8210 O   0  0  0  0  0  1  0  0  0  0  0  0
  191.3920  171.3690  140.0560 C   0  0  0  0  0  2  0  0  0  0  0  0
  192.2350  169.5700  141.4150 C   0  0  0  0  0  2  0  0  0  0  0  0
  191.8290  168.3240  142.1950 C   0  0  0  0  0  2  0  0  0  0  0  0
  192.4300  168.3360  143.4520 O   0  0  0  0  0  1  0  0  0  0  0  0
  1 18  1  0  0  0  0
  1 10  1  0  0  0  0
  2 16  2  0  0  0  0
  2  6  1  0  0  0  0
  4  8  1  0  0  0  0
  5 17  1  0  0  0  0
  5  2  1  1  0  0  0
  6  4  2  0  0  0  0
  7  5  1  0  0  0  0
  7  3  1  1  0  0  0
  7 19  1  0  0  0  0
  9 13  1  6  0  0  0
  9  6  1  0  0  0  0
 11 16  1  0  0  0  0
 12  8  2  0  0  0  0
 13  1  1  0  0  0  0
 14 21  1  0  0  0  0
 15 14  1  6  0  0  0
 15  3  1  0  0  0  0
 16 12  1  0  0  0  0
 17  9  1  0  0  0  0
 18  4  1  0  0  0  0
 20  1  1  0  0  0  0
 21 22  1  0  0  0  0
 21 15  1  0  0  0  0
 22 31  1  0  0  0  0
 22 17  1  0  0  0  0
 23 19  1  0  0  0  0
 23 11  1  0  0  0  0
 25 19  1  0  0  0  0
 25 24  2  0  0  0  0
 26 25  1  0  0  0  0
 27 29  2  0  0  0  0
 28 30  2  0  0  0  0
 29 26  1  0  0  0  0
 29 28  1  0  0  0  0
 30 24  1  0  0  0  0
 32 35  1  0  0  0  0
 32 31  1  0  0  0  0
 33 34  1  0  0  0  0
 34 32  1  0  0  0  0
 35 36  1  0  0  0  0
 36 37  1  0  0  0  0
M  END
>  <MODEL>
9

>  <REMARK>
 VINA RESULT:      -6.6      2.002      2.369
  Name = 
  6 active torsions:
  status: ('A' for Active; 'I' for Inactive)
    1  A    between atoms: C_1  and  N_4
    2  A    between atoms: C_1  and  C_27
    3  A    between atoms: N_4  and  C_12
    4  A    between atoms: N_4  and  C_37
    5  A    between atoms: C_8  and  C_12
    6  A    between atoms: C_23  and  C_30
                            x       y       z     vdW  Elec       q    Type
                         _______ _______ _______ _____ _____    ______ ____

>  <TORSDO>
F 6

$$$$
