=
 OpenBabel11112417513D

 34 41  0  0  1  0  0  0  0  0999 V2000
  190.0310  173.9960  143.8410 C   0  0  0  0  0  0  0  0  0  0  0  0
  191.9070  172.2710  143.9850 C   0  0  0  0  0  2  0  0  0  0  0  0
  186.5580  177.9220  146.2150 C   0  0  2  0  0  0  0  0  0  0  0  0
  188.5790  175.8980  143.4610 C   0  0  0  0  0  0  0  0  0  0  0  0
  188.7410  177.9330  144.9490 N   0  0  1  0  0  0  0  0  0  0  0  0
  186.9090  176.4660  145.9730 C   0  0  0  0  0  2  0  0  0  0  0  0
  186.0360  178.2040  147.6080 C   0  0  0  0  0  1  0  0  0  0  0  0
  185.8390  177.9100  143.7600 C   0  0  0  0  0  2  0  0  0  0  0  0
  191.9270  174.1500  145.5020 C   0  0  2  0  0  3  0  0  0  0  0  0
  194.8710  175.5300  145.6070 C   0  0  0  0  0  2  0  0  0  0  0  0
  190.1620  177.5970  145.1290 C   0  0  0  0  0  2  0  0  0  0  0  0
  187.1260  178.0270  142.9670 C   0  0  0  0  0  2  0  0  0  0  0  0
  191.8470  175.6680  145.3040 C   0  0  1  0  0  3  0  0  0  0  0  0
  193.2010  172.2100  144.7880 C   0  0  0  0  0  2  0  0  0  0  0  0
  188.3250  177.3680  143.6480 C   0  0  2  0  0  3  0  0  0  0  0  0
  185.9450  178.7100  145.0510 C   0  0  0  0  0  2  0  0  0  0  0  0
  194.3650  174.3960  144.8120 N   0  0  0  0  0  0  0  0  0  0  0  0
  189.6550  175.3150  144.1490 C   0  0  0  0  0  0  0  0  0  0  0  0
  188.0230  177.4990  146.1770 C   0  0  2  0  0  3  0  0  0  0  0  0
  190.3710  176.0720  145.2500 C   0  0  2  0  0  3  0  0  0  0  0  0
  188.2460  173.8990  142.2190 C   0  0  0  0  0  3  0  0  0  0  0  0
  193.9100  176.2140  146.5660 C   0  0  0  0  0  3  0  0  0  0  0  0
  187.9120  175.1850  142.5120 N   0  0  0  0  0  0  0  0  0  0  0  0
  192.5820  176.3210  146.4280 C   0  0  0  0  0  3  0  0  0  0  0  0
  193.3460  173.5620  145.4880 C   0  0  1  0  0  3  0  0  0  0  0  0
  189.3180  173.2840  142.8710 C   0  0  0  0  0  3  0  0  0  0  0  0
  191.1930  173.4350  144.4750 N   0  0  0  0  0  0  0  0  0  0  0  0
  193.9680  174.8720  143.4870 C   0  0  0  0  0  2  0  0  0  0  0  0
  194.8200  176.0570  143.0750 C   0  0  0  0  0  2  0  0  0  0  0  0
  196.8220  175.7550  140.1410 N   0  0  0  0  0  0  0  0  0  0  0  0
  194.7060  175.3280  140.6880 N   0  0  0  0  0  0  0  0  0  0  0  0
  195.4100  175.7960  141.7340 C   0  0  0  0  0  0  0  0  0  0  0  0
  195.6280  175.3100  139.7040 C   0  0  0  0  0  3  0  0  0  0  0  0
  196.6860  176.0680  141.4180 N   0  0  0  0  0  2  0  0  0  0  0  0
  1 18  1  0  0  0  0
  1 27  1  0  0  0  0
  2 27  1  0  0  0  0
  2 14  1  0  0  0  0
  3  7  1  1  0  0  0
  4 15  1  0  0  0  0
  4 18  2  0  0  0  0
  5 11  1  1  0  0  0
  5 19  1  0  0  0  0
  6  3  1  0  0  0  0
  8 16  1  0  0  0  0
  9 27  1  6  0  0  0
 10 22  1  0  0  0  0
 12  8  1  0  0  0  0
 13  9  1  0  0  0  0
 13 24  1  1  0  0  0
 15 12  1  1  0  0  0
 15  5  1  0  0  0  0
 16  3  1  0  0  0  0
 17 25  1  0  0  0  0
 17 10  1  0  0  0  0
 18 20  1  0  0  0  0
 19  6  1  6  0  0  0
 19  3  1  0  0  0  0
 20 11  1  6  0  0  0
 20 13  1  0  0  0  0
 21 23  2  0  0  0  0
 21 26  1  0  0  0  0
 23  4  1  0  0  0  0
 24 22  2  0  0  0  0
 25 14  1  6  0  0  0
 25  9  1  0  0  0  0
 26  1  2  0  0  0  0
 28 17  1  0  0  0  0
 29 28  1  0  0  0  0
 30 34  1  0  0  0  0
 31 32  2  0  0  0  0
 32 29  1  0  0  0  0
 33 30  2  0  0  0  0
 33 31  1  0  0  0  0
 34 32  1  0  0  0  0
M  END
>  <MODEL>
1

>  <REMARK>
 VINA RESULT:      -8.7      0.000      0.000
  Name = 
  3 active torsions:
  status: ('A' for Active; 'I' for Inactive)
    1  A    between atoms: N_17  and  C_28
    2  A    between atoms: C_28  and  C_29
    3  A    between atoms: C_29  and  C_32
                            x       y       z     vdW  Elec       q    Type
                         _______ _______ _______ _____ _____    ______ ____

>  <TORSDO>
F 3

$$$$
=
 OpenBabel11112417513D

 34 41  0  0  1  0  0  0  0  0999 V2000
  189.5180  174.4310  142.9070 C   0  0  0  0  0  0  0  0  0  0  0  0
  191.3400  172.6510  143.0680 C   0  0  0  0  0  2  0  0  0  0  0  0
  185.4750  177.7780  145.2650 C   0  0  2  0  0  0  0  0  0  0  0  0
  188.1610  176.4240  142.6730 C   0  0  0  0  0  0  0  0  0  0  0  0
  187.9030  178.0160  144.6170 N   0  0  1  0  0  0  0  0  0  0  0  0
  185.9090  176.4160  144.7590 C   0  0  0  0  0  2  0  0  0  0  0  0
  184.6190  177.7250  146.5120 C   0  0  0  0  0  1  0  0  0  0  0  0
  185.3860  178.4060  142.7870 C   0  0  0  0  0  2  0  0  0  0  0  0
  190.9410  174.0900  144.9660 C   0  0  2  0  0  3  0  0  0  0  0  0
  193.7350  175.2810  146.1310 C   0  0  0  0  0  2  0  0  0  0  0  0
  189.2420  177.5900  145.0490 C   0  0  0  0  0  2  0  0  0  0  0  0
  186.8260  178.6660  142.3890 C   0  0  0  0  0  2  0  0  0  0  0  0
  190.8770  175.6120  145.1420 C   0  0  1  0  0  3  0  0  0  0  0  0
  192.3970  172.3400  144.1220 C   0  0  0  0  0  2  0  0  0  0  0  0
  187.8340  177.8100  143.1550 C   0  0  2  0  0  3  0  0  0  0  0  0
  185.1500  178.8550  144.2230 C   0  0  0  0  0  2  0  0  0  0  0  0
  193.4680  174.4020  144.9780 N   0  0  0  0  0  0  0  0  0  0  0  0
  189.0470  175.6450  143.4340 C   0  0  0  0  0  0  0  0  0  0  0  0
  186.9130  177.3190  145.4820 C   0  0  2  0  0  3  0  0  0  0  0  0
  189.4510  176.0750  144.8310 C   0  0  2  0  0  3  0  0  0  0  0  0
  188.1910  174.8120  140.9270 C   0  0  0  0  0  3  0  0  0  0  0  0
  192.5500  175.7430  146.9660 C   0  0  0  0  0  3  0  0  0  0  0  0
  187.7650  175.9970  141.4420 N   0  0  0  0  0  0  0  0  0  0  0  0
  191.2950  175.9350  146.5380 C   0  0  0  0  0  3  0  0  0  0  0  0
  192.3330  173.4680  145.1520 C   0  0  1  0  0  3  0  0  0  0  0  0
  189.0840  174.0120  141.6450 C   0  0  0  0  0  3  0  0  0  0  0  0
  190.5000  173.6840  143.6440 N   0  0  0  0  0  0  0  0  0  0  0  0
  193.3990  175.2090  143.7590 C   0  0  0  0  0  2  0  0  0  0  0  0
  194.3100  176.4160  143.8740 C   0  0  0  0  0  2  0  0  0  0  0  0
  197.5370  175.8320  142.4740 N   0  0  0  0  0  0  0  0  0  0  0  0
  195.5270  176.3880  141.6920 N   0  0  0  0  0  0  0  0  0  0  0  0
  195.5140  176.2050  143.0250 C   0  0  0  0  0  0  0  0  0  0  0  0
  196.8160  176.1400  141.3790 C   0  0  0  0  0  3  0  0  0  0  0  0
  196.7210  175.8790  143.5130 N   0  0  0  0  0  2  0  0  0  0  0  0
  1 18  1  0  0  0  0
  1 27  1  0  0  0  0
  2 27  1  0  0  0  0
  2 14  1  0  0  0  0
  3 19  1  0  0  0  0
  3  7  1  1  0  0  0
  4 15  1  0  0  0  0
  4 18  2  0  0  0  0
  5 11  1  1  0  0  0
  5 19  1  0  0  0  0
  6  3  1  0  0  0  0
  8 16  1  0  0  0  0
  9 27  1  6  0  0  0
  9 13  1  0  0  0  0
  9 25  1  0  0  0  0
 10 22  1  0  0  0  0
 12  8  1  0  0  0  0
 13 24  1  1  0  0  0
 15 12  1  1  0  0  0
 15  5  1  0  0  0  0
 16  3  1  0  0  0  0
 17 25  1  0  0  0  0
 17 10  1  0  0  0  0
 18 20  1  0  0  0  0
 19  6  1  6  0  0  0
 20 11  1  6  0  0  0
 20 13  1  0  0  0  0
 21 23  2  0  0  0  0
 21 26  1  0  0  0  0
 23  4  1  0  0  0  0
 24 22  2  0  0  0  0
 25 14  1  6  0  0  0
 26  1  2  0  0  0  0
 28 29  1  0  0  0  0
 28 17  1  0  0  0  0
 30 34  1  0  0  0  0
 31 32  2  0  0  0  0
 32 34  1  0  0  0  0
 32 29  1  0  0  0  0
 33 31  1  0  0  0  0
 33 30  2  0  0  0  0
M  END
>  <MODEL>
2

>  <REMARK>
 VINA RESULT:      -8.6      1.165      1.345
  Name = 
  3 active torsions:
  status: ('A' for Active; 'I' for Inactive)
    1  A    between atoms: N_17  and  C_28
    2  A    between atoms: C_28  and  C_29
    3  A    between atoms: C_29  and  C_32
                            x       y       z     vdW  Elec       q    Type
                         _______ _______ _______ _____ _____    ______ ____

>  <TORSDO>
F 3

$$$$
=
 OpenBabel11112417513D

 34 41  0  0  1  0  0  0  0  0999 V2000
  189.6190  174.6890  143.0930 C   0  0  0  0  0  0  0  0  0  0  0  0
  191.5780  173.0720  143.3380 C   0  0  0  0  0  2  0  0  0  0  0  0
  185.3010  177.7950  145.2880 C   0  0  2  0  0  0  0  0  0  0  0  0
  188.1060  176.5530  142.7670 C   0  0  0  0  0  0  0  0  0  0  0  0
  187.7060  178.2010  144.6400 N   0  0  1  0  0  0  0  0  0  0  0  0
  185.8480  176.4520  144.8430 C   0  0  0  0  0  2  0  0  0  0  0  0
  184.4420  177.7260  146.5330 C   0  0  0  0  0  1  0  0  0  0  0  0
  185.1790  178.3070  142.7850 C   0  0  0  0  0  2  0  0  0  0  0  0
  191.0490  174.5540  145.1700 C   0  0  2  0  0  3  0  0  0  0  0  0
  193.7290  176.0170  146.2940 C   0  0  0  0  0  2  0  0  0  0  0  0
  189.0720  177.9040  145.0950 C   0  0  0  0  0  2  0  0  0  0  0  0
  186.5960  178.6650  142.3810 C   0  0  0  0  0  2  0  0  0  0  0  0
  190.8610  176.0710  145.2800 C   0  0  1  0  0  3  0  0  0  0  0  0
  192.6490  172.8930  144.4090 C   0  0  0  0  0  2  0  0  0  0  0  0
  187.6660  177.9280  143.1870 C   0  0  2  0  0  3  0  0  0  0  0  0
  184.8980  178.7960  144.1990 C   0  0  0  0  0  2  0  0  0  0  0  0
  193.5420  175.0700  145.1790 N   0  0  0  0  0  0  0  0  0  0  0  0
  189.0470  175.8830  143.5650 C   0  0  0  0  0  0  0  0  0  0  0  0
  186.7700  177.4640  145.5300 C   0  0  2  0  0  3  0  0  0  0  0  0
  189.4050  176.4030  144.9430 C   0  0  2  0  0  3  0  0  0  0  0  0
  188.2810  174.8760  141.0930 C   0  0  0  0  0  3  0  0  0  0  0  0
  192.5050  176.4160  147.1030 C   0  0  0  0  0  3  0  0  0  0  0  0
  187.7560  176.0440  141.5550 N   0  0  0  0  0  0  0  0  0  0  0  0
  191.2420  176.4870  146.6620 C   0  0  0  0  0  3  0  0  0  0  0  0
  192.4850  174.0550  145.3880 C   0  0  1  0  0  3  0  0  0  0  0  0
  189.2300  174.1830  141.8490 C   0  0  0  0  0  3  0  0  0  0  0  0
  190.6530  174.0570  143.8660 N   0  0  0  0  0  0  0  0  0  0  0  0
  193.4180  175.8160  143.9260 C   0  0  0  0  0  2  0  0  0  0  0  0
  194.7320  175.7990  143.1700 C   0  0  0  0  0  2  0  0  0  0  0  0
  194.9990  173.2380  140.7040 N   0  0  0  0  0  0  0  0  0  0  0  0
  193.8400  175.1260  140.9350 N   0  0  0  0  0  0  0  0  0  0  0  0
  194.6170  174.8800  142.0050 C   0  0  0  0  0  0  0  0  0  0  0  0
  194.1020  174.0690  140.1390 C   0  0  0  0  0  3  0  0  0  0  0  0
  195.3290  173.7490  141.8770 N   0  0  0  0  0  2  0  0  0  0  0  0
  1 18  1  0  0  0  0
  1 27  1  0  0  0  0
  2 27  1  0  0  0  0
  2 14  1  0  0  0  0
  3 19  1  0  0  0  0
  3  7  1  1  0  0  0
  4 15  1  0  0  0  0
  4 18  2  0  0  0  0
  5 11  1  1  0  0  0
  5 19  1  0  0  0  0
  6  3  1  0  0  0  0
  8 16  1  0  0  0  0
  9 27  1  6  0  0  0
  9 13  1  0  0  0  0
  9 25  1  0  0  0  0
 10 22  1  0  0  0  0
 12  8  1  0  0  0  0
 13 24  1  1  0  0  0
 15 12  1  1  0  0  0
 15  5  1  0  0  0  0
 16  3  1  0  0  0  0
 17 25  1  0  0  0  0
 17 10  1  0  0  0  0
 18 20  1  0  0  0  0
 19  6  1  6  0  0  0
 20 11  1  6  0  0  0
 20 13  1  0  0  0  0
 21 23  2  0  0  0  0
 21 26  1  0  0  0  0
 23  4  1  0  0  0  0
 24 22  2  0  0  0  0
 25 14  1  6  0  0  0
 26  1  2  0  0  0  0
 28 17  1  0  0  0  0
 29 28  1  0  0  0  0
 30 34  1  0  0  0  0
 31 32  2  0  0  0  0
 32 29  1  0  0  0  0
 33 30  2  0  0  0  0
 33 31  1  0  0  0  0
 34 32  1  0  0  0  0
M  END
>  <MODEL>
3

>  <REMARK>
 VINA RESULT:      -8.3      1.284      1.415
  Name = 
  3 active torsions:
  status: ('A' for Active; 'I' for Inactive)
    1  A    between atoms: N_17  and  C_28
    2  A    between atoms: C_28  and  C_29
    3  A    between atoms: C_29  and  C_32
                            x       y       z     vdW  Elec       q    Type
                         _______ _______ _______ _____ _____    ______ ____

>  <TORSDO>
F 3

$$$$
=
 OpenBabel11112417513D

 34 41  0  0  1  0  0  0  0  0999 V2000
  190.3620  174.5250  142.5600 C   0  0  0  0  0  0  0  0  0  0  0  0
  192.3630  172.9440  142.4670 C   0  0  0  0  0  2  0  0  0  0  0  0
  186.6240  177.8100  145.4490 C   0  0  2  0  0  0  0  0  0  0  0  0
  188.7660  176.3440  142.4450 C   0  0  0  0  0  0  0  0  0  0  0  0
  188.7890  178.1610  144.2000 N   0  0  1  0  0  0  0  0  0  0  0  0
  187.0820  176.4330  145.0090 C   0  0  0  0  0  2  0  0  0  0  0  0
  186.0950  177.8570  146.8670 C   0  0  0  0  0  1  0  0  0  0  0  0
  185.8860  178.0820  143.0160 C   0  0  0  0  0  2  0  0  0  0  0  0
  192.2560  174.5910  144.2290 C   0  0  2  0  0  3  0  0  0  0  0  0
  195.0880  176.1630  144.5270 C   0  0  0  0  0  2  0  0  0  0  0  0
  190.2320  177.9130  144.3330 C   0  0  0  0  0  2  0  0  0  0  0  0
  187.1530  178.4050  142.2480 C   0  0  0  0  0  2  0  0  0  0  0  0
  192.0600  176.1120  144.2430 C   0  0  1  0  0  3  0  0  0  0  0  0
  193.6660  172.8710  143.2550 C   0  0  0  0  0  2  0  0  0  0  0  0
  188.4040  177.7520  142.8320 C   0  0  2  0  0  3  0  0  0  0  0  0
  185.9420  178.7020  144.4050 C   0  0  0  0  0  2  0  0  0  0  0  0
  194.6620  175.1150  143.5820 N   0  0  0  0  0  0  0  0  0  0  0  0
  189.8900  175.7560  143.0460 C   0  0  0  0  0  0  0  0  0  0  0  0
  188.1160  177.5090  145.3550 C   0  0  2  0  0  3  0  0  0  0  0  0
  190.5570  176.4060  144.2430 C   0  0  2  0  0  3  0  0  0  0  0  0
  188.5730  174.5160  140.9380 C   0  0  0  0  0  3  0  0  0  0  0  0
  194.0870  176.6340  145.5700 C   0  0  0  0  0  3  0  0  0  0  0  0
  188.1460  175.7210  141.4060 N   0  0  0  0  0  0  0  0  0  0  0  0
  192.7530  176.6580  145.4460 C   0  0  0  0  0  3  0  0  0  0  0  0
  193.7150  174.1200  144.1350 C   0  0  1  0  0  3  0  0  0  0  0  0
  189.6950  173.9010  141.5000 C   0  0  0  0  0  3  0  0  0  0  0  0
  191.5680  173.9720  143.1120 N   0  0  0  0  0  0  0  0  0  0  0  0
  194.2180  175.7380  142.3350 C   0  0  0  0  0  2  0  0  0  0  0  0
  195.3860  176.4030  141.6330 C   0  0  0  0  0  2  0  0  0  0  0  0
  195.4420  174.3610  138.7110 N   0  0  0  0  0  0  0  0  0  0  0  0
  196.8950  175.6650  139.7830 N   0  0  0  0  0  0  0  0  0  0  0  0
  195.6870  175.6670  140.3750 C   0  0  0  0  0  0  0  0  0  0  0  0
  196.7020  174.8360  138.7360 C   0  0  0  0  0  3  0  0  0  0  0  0
  194.8020  174.8780  139.7450 N   0  0  0  0  0  2  0  0  0  0  0  0
  1 18  1  0  0  0  0
  1 27  1  0  0  0  0
  2 27  1  0  0  0  0
  2 14  1  0  0  0  0
  3  7  1  1  0  0  0
  4 15  1  0  0  0  0
  4 18  2  0  0  0  0
  5 11  1  1  0  0  0
  5 19  1  0  0  0  0
  6  3  1  0  0  0  0
  8 16  1  0  0  0  0
  9 27  1  6  0  0  0
  9 13  1  0  0  0  0
 10 22  1  0  0  0  0
 12  8  1  0  0  0  0
 13 20  1  0  0  0  0
 13 24  1  1  0  0  0
 15 12  1  1  0  0  0
 15  5  1  0  0  0  0
 16  3  1  0  0  0  0
 17 25  1  0  0  0  0
 17 10  1  0  0  0  0
 18 20  1  0  0  0  0
 19  6  1  6  0  0  0
 19  3  1  0  0  0  0
 20 11  1  6  0  0  0
 21 23  2  0  0  0  0
 21 26  1  0  0  0  0
 23  4  1  0  0  0  0
 24 22  2  0  0  0  0
 25 14  1  6  0  0  0
 25  9  1  0  0  0  0
 26  1  2  0  0  0  0
 28 17  1  0  0  0  0
 29 28  1  0  0  0  0
 30 33  2  0  0  0  0
 30 34  1  0  0  0  0
 31 32  2  0  0  0  0
 32 29  1  0  0  0  0
 33 31  1  0  0  0  0
 34 32  1  0  0  0  0
M  END
>  <MODEL>
4

>  <REMARK>
 VINA RESULT:      -7.9      1.192      1.403
  Name = 
  3 active torsions:
  status: ('A' for Active; 'I' for Inactive)
    1  A    between atoms: N_17  and  C_28
    2  A    between atoms: C_28  and  C_29
    3  A    between atoms: C_29  and  C_32
                            x       y       z     vdW  Elec       q    Type
                         _______ _______ _______ _____ _____    ______ ____

>  <TORSDO>
F 3

$$$$
=
 OpenBabel11112417513D

 34 41  0  0  1  0  0  0  0  0999 V2000
  191.5090  173.0100  143.1000 C   0  0  0  0  0  0  0  0  0  0  0  0
  189.1030  173.1360  142.2600 C   0  0  0  0  0  2  0  0  0  0  0  0
  196.9470  174.8890  143.2130 C   0  0  2  0  0  0  0  0  0  0  0  0
  193.6040  173.0520  144.3160 C   0  0  0  0  0  0  0  0  0  0  0  0
  194.8630  175.2240  144.5970 N   0  0  1  0  0  0  0  0  0  0  0  0
  195.8490  174.1130  142.5120 C   0  0  0  0  0  2  0  0  0  0  0  0
  197.8410  175.6710  142.2750 C   0  0  0  0  0  1  0  0  0  0  0  0
  196.9730  172.9170  144.8410 C   0  0  0  0  0  2  0  0  0  0  0  0
  190.4050  175.1660  142.3870 C   0  0  2  0  0  3  0  0  0  0  0  0
  188.7140  177.5440  143.8260 C   0  0  0  0  0  2  0  0  0  0  0  0
  193.5590  175.9020  144.5430 C   0  0  0  0  0  2  0  0  0  0  0  0
  195.7920  173.1450  145.7640 C   0  0  0  0  0  2  0  0  0  0  0  0
  191.2110  175.8350  143.5060 C   0  0  1  0  0  3  0  0  0  0  0  0
  188.1870  174.3020  141.9060 C   0  0  0  0  0  2  0  0  0  0  0  0
  194.6170  173.8520  145.0880 C   0  0  2  0  0  3  0  0  0  0  0  0
  197.5950  174.2490  144.4470 C   0  0  0  0  0  2  0  0  0  0  0  0
  188.3630  176.1370  143.5590 N   0  0  0  0  0  0  0  0  0  0  0  0
  192.5720  173.7400  143.6590 C   0  0  0  0  0  0  0  0  0  0  0  0
  195.5110  175.4000  143.2700 C   0  0  2  0  0  3  0  0  0  0  0  0
  192.6240  175.2470  143.5020 C   0  0  2  0  0  3  0  0  0  0  0  0
  192.5610  170.9690  143.8440 C   0  0  0  0  0  3  0  0  0  0  0  0
  190.0800  178.0370  143.3750 C   0  0  0  0  0  3  0  0  0  0  0  0
  193.5690  171.6940  144.4020 N   0  0  0  0  0  0  0  0  0  0  0  0
  191.2000  177.3090  143.2690 C   0  0  0  0  0  3  0  0  0  0  0  0
  188.9270  175.5780  142.3090 C   0  0  1  0  0  3  0  0  0  0  0  0
  191.5080  171.6140  143.1930 C   0  0  0  0  0  3  0  0  0  0  0  0
  190.4060  173.7210  142.5150 N   0  0  0  0  0  0  0  0  0  0  0  0
  188.6350  175.3340  144.7520 C   0  0  0  0  0  2  0  0  0  0  0  0
  188.3530  176.1410  146.0050 C   0  0  0  0  0  2  0  0  0  0  0  0
  191.2270  176.7890  148.0110 N   0  0  0  0  0  0  0  0  0  0  0  0
  190.1420  174.9770  147.3050 N   0  0  0  0  0  0  0  0  0  0  0  0
  189.5500  176.1120  146.8880 C   0  0  0  0  0  0  0  0  0  0  0  0
  191.1910  175.4430  148.0130 C   0  0  0  0  0  3  0  0  0  0  0  0
  190.1980  177.2130  147.2980 N   0  0  0  0  0  2  0  0  0  0  0  0
  1 26  2  0  0  0  0
  1 18  1  0  0  0  0
  2 27  1  0  0  0  0
  3  7  1  6  0  0  0
  3 19  1  0  0  0  0
  3 16  1  0  0  0  0
  4 23  1  0  0  0  0
  4 15  1  0  0  0  0
  5 11  1  6  0  0  0
  5 15  1  0  0  0  0
  6  3  1  0  0  0  0
  8 12  1  0  0  0  0
  9 27  1  1  0  0  0
  9 13  1  0  0  0  0
 13 24  1  6  0  0  0
 14  2  1  0  0  0  0
 15 12  1  6  0  0  0
 16  8  1  0  0  0  0
 17 10  1  0  0  0  0
 17 28  1  0  0  0  0
 18  4  2  0  0  0  0
 19  6  1  6  0  0  0
 19  5  1  0  0  0  0
 20 13  1  0  0  0  0
 20 18  1  0  0  0  0
 20 11  1  1  0  0  0
 21 23  2  0  0  0  0
 22 10  1  0  0  0  0
 24 22  2  0  0  0  0
 25 14  1  1  0  0  0
 25  9  1  0  0  0  0
 25 17  1  0  0  0  0
 26 21  1  0  0  0  0
 27  1  1  0  0  0  0
 28 29  1  0  0  0  0
 29 32  1  0  0  0  0
 30 33  2  0  0  0  0
 31 33  1  0  0  0  0
 32 34  1  0  0  0  0
 32 31  2  0  0  0  0
 34 30  1  0  0  0  0
M  END
>  <MODEL>
5

>  <REMARK>
 VINA RESULT:      -7.6      2.197      7.347
  Name = 
  3 active torsions:
  status: ('A' for Active; 'I' for Inactive)
    1  A    between atoms: N_17  and  C_28
    2  A    between atoms: C_28  and  C_29
    3  A    between atoms: C_29  and  C_32
                            x       y       z     vdW  Elec       q    Type
                         _______ _______ _______ _____ _____    ______ ____

>  <TORSDO>
F 3

$$$$
=
 OpenBabel11112417513D

 34 41  0  0  1  0  0  0  0  0999 V2000
  192.7770  175.7390  145.7220 C   0  0  0  0  0  0  0  0  0  0  0  0
  190.4950  175.5800  146.8530 C   0  0  0  0  0  2  0  0  0  0  0  0
  197.0370  173.5130  142.5580 C   0  0  2  0  0  0  0  0  0  0  0  0
  194.7170  176.1950  144.3440 C   0  0  0  0  0  0  0  0  0  0  0  0
  195.0250  174.9810  142.1500 N   0  0  1  0  0  0  0  0  0  0  0  0
  196.3150  173.6150  143.8890 C   0  0  0  0  0  2  0  0  0  0  0  0
  197.5260  172.1180  142.2310 C   0  0  0  0  0  1  0  0  0  0  0  0
  197.8790  175.8650  143.1040 C   0  0  0  0  0  2  0  0  0  0  0  0
  190.8950  174.3040  144.8420 C   0  0  2  0  0  3  0  0  0  0  0  0
  188.4420  174.6560  142.7340 C   0  0  0  0  0  2  0  0  0  0  0  0
  193.5590  174.9050  142.0700 C   0  0  0  0  0  2  0  0  0  0  0  0
  196.7270  176.7900  142.7650 C   0  0  0  0  0  2  0  0  0  0  0  0
  191.4010  174.6710  143.4420 C   0  0  1  0  0  3  0  0  0  0  0  0
  189.1850  174.9070  146.4570 C   0  0  0  0  0  2  0  0  0  0  0  0
  195.3520  176.1590  142.9820 C   0  0  2  0  0  3  0  0  0  0  0  0
  197.9150  174.6940  142.1320 C   0  0  0  0  0  2  0  0  0  0  0  0
  188.6670  175.2580  144.0620 N   0  0  0  0  0  0  0  0  0  0  0  0
  193.4810  175.5540  144.5200 C   0  0  0  0  0  0  0  0  0  0  0  0
  195.5180  173.6460  142.5810 C   0  0  2  0  0  3  0  0  0  0  0  0
  192.9310  174.6260  143.4540 C   0  0  2  0  0  3  0  0  0  0  0  0
  194.5670  177.1530  146.5140 C   0  0  0  0  0  3  0  0  0  0  0  0
  189.4910  173.6930  142.2000 C   0  0  0  0  0  3  0  0  0  0  0  0
  195.2220  176.9820  145.3330 N   0  0  0  0  0  0  0  0  0  0  0  0
  190.8040  173.7110  142.4670 C   0  0  0  0  0  3  0  0  0  0  0  0
  189.3730  174.3900  145.0310 C   0  0  1  0  0  3  0  0  0  0  0  0
  193.3280  176.5430  146.7260 C   0  0  0  0  0  3  0  0  0  0  0  0
  191.4680  175.1620  145.8620 N   0  0  0  0  0  0  0  0  0  0  0  0
  189.2630  176.5830  143.8980 C   0  0  0  0  0  2  0  0  0  0  0  0
  188.3980  177.6360  144.5650 C   0  0  0  0  0  2  0  0  0  0  0  0
  185.2930  178.3890  142.9840 N   0  0  0  0  0  0  0  0  0  0  0  0
  187.4100  178.1580  142.3300 N   0  0  0  0  0  0  0  0  0  0  0  0
  187.2740  177.9940  143.6590 C   0  0  0  0  0  0  0  0  0  0  0  0
  186.1440  178.4100  141.9390 C   0  0  0  0  0  3  0  0  0  0  0  0
  186.0010  178.1220  144.0670 N   0  0  0  0  0  2  0  0  0  0  0  0
  1 27  1  0  0  0  0
  1 26  1  0  0  0  0
  3  7  1  6  0  0  0
  3 19  1  0  0  0  0
  3  6  1  0  0  0  0
  4 18  1  0  0  0  0
  4 23  2  0  0  0  0
  5 11  1  1  0  0  0
  5 19  1  0  0  0  0
  5 15  1  0  0  0  0
  9 25  1  0  0  0  0
  9 27  1  1  0  0  0
 10 17  1  0  0  0  0
 12  8  1  0  0  0  0
 13 24  1  6  0  0  0
 13 20  1  0  0  0  0
 13  9  1  0  0  0  0
 14  2  1  0  0  0  0
 15 12  1  1  0  0  0
 15  4  1  0  0  0  0
 16  3  1  0  0  0  0
 16  8  1  0  0  0  0
 17 25  1  0  0  0  0
 18  1  2  0  0  0  0
 19  6  1  1  0  0  0
 20 11  1  6  0  0  0
 20 18  1  0  0  0  0
 21 26  2  0  0  0  0
 22 24  2  0  0  0  0
 22 10  1  0  0  0  0
 23 21  1  0  0  0  0
 25 14  1  1  0  0  0
 27  2  1  0  0  0  0
 28 17  1  0  0  0  0
 28 29  1  0  0  0  0
 30 34  1  0  0  0  0
 31 32  2  0  0  0  0
 32 34  1  0  0  0  0
 32 29  1  0  0  0  0
 33 31  1  0  0  0  0
 33 30  2  0  0  0  0
M  END
>  <MODEL>
6

>  <REMARK>
 VINA RESULT:      -7.6      2.032      7.942
  Name = 
  3 active torsions:
  status: ('A' for Active; 'I' for Inactive)
    1  A    between atoms: N_17  and  C_28
    2  A    between atoms: C_28  and  C_29
    3  A    between atoms: C_29  and  C_32
                            x       y       z     vdW  Elec       q    Type
                         _______ _______ _______ _____ _____    ______ ____

>  <TORSDO>
F 3

$$$$
=
 OpenBabel11112417513D

 34 41  0  0  1  0  0  0  0  0999 V2000
  193.1020  175.7480  145.7290 C   0  0  0  0  0  0  0  0  0  0  0  0
  195.5530  175.1890  145.2910 C   0  0  0  0  0  2  0  0  0  0  0  0
  187.8120  177.1220  143.9260 C   0  0  2  0  0  0  0  0  0  0  0  0
  190.7400  175.8090  146.2660 C   0  0  0  0  0  0  0  0  0  0  0  0
  189.0370  175.0130  144.5780 N   0  0  1  0  0  0  0  0  0  0  0  0
  189.2400  177.5410  144.2230 C   0  0  0  0  0  2  0  0  0  0  0  0
  187.2250  177.7750  142.6930 C   0  0  0  0  0  1  0  0  0  0  0  0
  187.5610  177.0330  146.4700 C   0  0  0  0  0  2  0  0  0  0  0  0
  193.9040  174.5980  143.6290 C   0  0  2  0  0  3  0  0  0  0  0  0
  194.3130  171.5310  142.6220 C   0  0  0  0  0  2  0  0  0  0  0  0
  190.0710  174.0970  144.0750 C   0  0  0  0  0  2  0  0  0  0  0  0
  188.1910  175.7190  146.8880 C   0  0  0  0  0  2  0  0  0  0  0  0
  192.5920  173.8070  143.6780 C   0  0  1  0  0  3  0  0  0  0  0  0
  196.2570  174.4000  144.1930 C   0  0  0  0  0  2  0  0  0  0  0  0
  189.3550  175.2890  145.9960 C   0  0  2  0  0  3  0  0  0  0  0  0
  186.8780  176.8810  145.1180 C   0  0  0  0  0  2  0  0  0  0  0  0
  195.0380  172.3180  143.6380 N   0  0  0  0  0  0  0  0  0  0  0  0
  191.7730  175.4400  145.3900 C   0  0  0  0  0  0  0  0  0  0  0  0
  188.9560  176.1570  143.6310 C   0  0  2  0  0  3  0  0  0  0  0  0
  191.4630  174.7670  144.0680 C   0  0  2  0  0  3  0  0  0  0  0  0
  192.3090  176.7910  147.7570 C   0  0  0  0  0  3  0  0  0  0  0  0
  193.1730  172.2070  141.8770 C   0  0  0  0  0  3  0  0  0  0  0  0
  191.0310  176.4610  147.4250 N   0  0  0  0  0  0  0  0  0  0  0  0
  192.3780  173.1800  142.3400 C   0  0  0  0  0  3  0  0  0  0  0  0
  195.1600  173.7630  143.3400 C   0  0  1  0  0  3  0  0  0  0  0  0
  193.3680  176.4310  146.9210 C   0  0  0  0  0  3  0  0  0  0  0  0
  194.1650  175.2840  144.8810 N   0  0  0  0  0  0  0  0  0  0  0  0
  194.4900  172.0230  144.9620 C   0  0  0  0  0  2  0  0  0  0  0  0
  194.0770  170.5660  145.0490 C   0  0  0  0  0  2  0  0  0  0  0  0
  195.6280  168.5520  147.5480 N   0  0  0  0  0  0  0  0  0  0  0  0
  196.2860  170.1460  146.1380 N   0  0  0  0  0  0  0  0  0  0  0  0
  194.9800  169.8560  145.9940 C   0  0  0  0  0  0  0  0  0  0  0  0
  196.6620  169.3030  147.1210 C   0  0  0  0  0  3  0  0  0  0  0  0
  194.5660  168.9020  146.8440 N   0  0  0  0  0  2  0  0  0  0  0  0
  1 26  1  0  0  0  0
  3  7  1  6  0  0  0
  3  6  1  0  0  0  0
  3 16  1  0  0  0  0
  4 23  2  0  0  0  0
  5 11  1  6  0  0  0
  5 15  1  0  0  0  0
  8 12  1  0  0  0  0
  9 13  1  0  0  0  0
  9 27  1  1  0  0  0
 10 17  1  0  0  0  0
 13 24  1  6  0  0  0
 13 20  1  0  0  0  0
 14  2  1  0  0  0  0
 15  4  1  0  0  0  0
 15 12  1  6  0  0  0
 16  8  1  0  0  0  0
 17 28  1  0  0  0  0
 18  1  2  0  0  0  0
 18  4  1  0  0  0  0
 19  3  1  0  0  0  0
 19  6  1  1  0  0  0
 19  5  1  0  0  0  0
 20 11  1  1  0  0  0
 20 18  1  0  0  0  0
 22 24  2  0  0  0  0
 22 10  1  0  0  0  0
 23 21  1  0  0  0  0
 25  9  1  0  0  0  0
 25 17  1  0  0  0  0
 25 14  1  1  0  0  0
 26 21  2  0  0  0  0
 27  2  1  0  0  0  0
 27  1  1  0  0  0  0
 28 29  1  0  0  0  0
 29 32  1  0  0  0  0
 31 33  1  0  0  0  0
 32 31  2  0  0  0  0
 32 34  1  0  0  0  0
 33 30  2  0  0  0  0
 34 30  1  0  0  0  0
M  END
>  <MODEL>
7

>  <REMARK>
 VINA RESULT:      -7.5      2.499      5.166
  Name = 
  3 active torsions:
  status: ('A' for Active; 'I' for Inactive)
    1  A    between atoms: N_17  and  C_28
    2  A    between atoms: C_28  and  C_29
    3  A    between atoms: C_29  and  C_32
                            x       y       z     vdW  Elec       q    Type
                         _______ _______ _______ _____ _____    ______ ____

>  <TORSDO>
F 3

$$$$
=
 OpenBabel11112417513D

 34 41  0  0  1  0  0  0  0  0999 V2000
  194.0880  176.4150  144.4910 C   0  0  0  0  0  0  0  0  0  0  0  0
  196.3600  176.4710  143.3310 C   0  0  0  0  0  2  0  0  0  0  0  0
  188.3760  177.1130  144.4960 C   0  0  2  0  0  0  0  0  0  0  0  0
  191.9910  175.8790  145.5800 C   0  0  0  0  0  0  0  0  0  0  0  0
  189.9880  175.1930  144.2010 N   0  0  1  0  0  0  0  0  0  0  0  0
  189.7650  177.7210  144.5440 C   0  0  0  0  0  2  0  0  0  0  0  0
  187.3830  177.9150  143.6810 C   0  0  0  0  0  1  0  0  0  0  0  0
  188.8780  176.3660  146.8900 C   0  0  0  0  0  2  0  0  0  0  0  0
  194.3900  175.9860  142.0210 C   0  0  2  0  0  3  0  0  0  0  0  0
  194.8700  173.3940  140.1140 C   0  0  0  0  0  2  0  0  0  0  0  0
  190.9400  174.6480  143.2220 C   0  0  0  0  0  2  0  0  0  0  0  0
  189.7600  175.1410  146.7490 C   0  0  0  0  0  2  0  0  0  0  0  0
  193.2550  174.9640  142.1590 C   0  0  1  0  0  3  0  0  0  0  0  0
  196.8120  176.1250  141.9160 C   0  0  0  0  0  2  0  0  0  0  0  0
  190.6620  175.1760  145.5170 C   0  0  2  0  0  3  0  0  0  0  0  0
  187.8600  176.4130  145.7590 C   0  0  0  0  0  2  0  0  0  0  0  0
  195.7520  174.0400  141.1030 N   0  0  0  0  0  0  0  0  0  0  0  0
  192.7670  175.9420  144.4120 C   0  0  0  0  0  0  0  0  0  0  0  0
  189.4970  176.4920  143.6690 C   0  0  2  0  0  3  0  0  0  0  0  0
  192.1770  175.5590  143.0680 C   0  0  2  0  0  3  0  0  0  0  0  0
  193.7870  176.7610  146.8610 C   0  0  0  0  0  3  0  0  0  0  0  0
  193.4890  173.9910  139.8920 C   0  0  0  0  0  3  0  0  0  0  0  0
  192.5190  176.2760  146.7700 N   0  0  0  0  0  0  0  0  0  0  0  0
  192.7460  174.6480  140.7920 C   0  0  0  0  0  3  0  0  0  0  0  0
  195.6040  175.5090  141.2100 C   0  0  1  0  0  3  0  0  0  0  0  0
  194.5980  176.8290  145.7260 C   0  0  0  0  0  3  0  0  0  0  0  0
  194.9120  176.3870  143.3140 N   0  0  0  0  0  0  0  0  0  0  0  0
  195.6480  173.3330  142.3800 C   0  0  0  0  0  2  0  0  0  0  0  0
  196.8750  172.4700  142.6060 C   0  0  0  0  0  2  0  0  0  0  0  0
  197.1760  170.9000  145.7920 N   0  0  0  0  0  0  0  0  0  0  0  0
  196.6580  172.9350  145.0510 N   0  0  0  0  0  0  0  0  0  0  0  0
  196.9530  172.0940  144.0440 C   0  0  0  0  0  0  0  0  0  0  0  0
  196.8140  172.1500  146.1370 C   0  0  0  0  0  3  0  0  0  0  0  0
  197.2590  170.8600  144.4740 N   0  0  0  0  0  2  0  0  0  0  0  0
  1 26  1  0  0  0  0
  3  7  1  6  0  0  0
  3  6  1  0  0  0  0
  3 16  1  0  0  0  0
  4 23  2  0  0  0  0
  5 11  1  6  0  0  0
  5 15  1  0  0  0  0
  9 13  1  0  0  0  0
  9 27  1  1  0  0  0
 10 17  1  0  0  0  0
 12  8  1  0  0  0  0
 13 24  1  6  0  0  0
 13 20  1  0  0  0  0
 14  2  1  0  0  0  0
 15  4  1  0  0  0  0
 15 12  1  1  0  0  0
 16  8  1  0  0  0  0
 17 25  1  0  0  0  0
 17 28  1  0  0  0  0
 18  1  2  0  0  0  0
 18  4  1  0  0  0  0
 19  5  1  0  0  0  0
 19  3  1  0  0  0  0
 19  6  1  1  0  0  0
 20 11  1  1  0  0  0
 20 18  1  0  0  0  0
 22 10  1  0  0  0  0
 22 24  2  0  0  0  0
 23 21  1  0  0  0  0
 25 14  1  1  0  0  0
 25  9  1  0  0  0  0
 26 21  2  0  0  0  0
 27  2  1  0  0  0  0
 27  1  1  0  0  0  0
 28 29  1  0  0  0  0
 29 32  1  0  0  0  0
 30 33  2  0  0  0  0
 31 33  1  0  0  0  0
 32 34  1  0  0  0  0
 32 31  2  0  0  0  0
 34 30  1  0  0  0  0
M  END
>  <MODEL>
8

>  <REMARK>
 VINA RESULT:      -7.5      2.268      5.036
  Name = 
  3 active torsions:
  status: ('A' for Active; 'I' for Inactive)
    1  A    between atoms: N_17  and  C_28
    2  A    between atoms: C_28  and  C_29
    3  A    between atoms: C_29  and  C_32
                            x       y       z     vdW  Elec       q    Type
                         _______ _______ _______ _____ _____    ______ ____

>  <TORSDO>
F 3

$$$$
=
 OpenBabel11112417513D

 34 41  0  0  1  0  0  0  0  0999 V2000
  190.9770  176.3870  142.9800 C   0  0  0  0  0  0  0  0  0  0  0  0
  193.2090  175.3310  142.3360 C   0  0  0  0  0  2  0  0  0  0  0  0
  185.5790  177.9720  141.7720 C   0  0  2  0  0  0  0  0  0  0  0  0
  188.8060  176.9930  143.8680 C   0  0  0  0  0  0  0  0  0  0  0  0
  186.7080  176.0000  142.8710 N   0  0  1  0  0  0  0  0  0  0  0  0
  187.0710  178.2250  141.6570 C   0  0  0  0  0  2  0  0  0  0  0  0
  184.8030  178.2970  140.5130 C   0  0  0  0  0  1  0  0  0  0  0  0
  185.8800  178.7170  144.1990 C   0  0  0  0  0  2  0  0  0  0  0  0
  191.1900  174.5300  141.2840 C   0  0  2  0  0  3  0  0  0  0  0  0
  191.0740  171.2780  141.3120 C   0  0  0  0  0  2  0  0  0  0  0  0
  187.5160  174.8190  142.5330 C   0  0  0  0  0  2  0  0  0  0  0  0
  186.4570  177.5140  144.9180 C   0  0  0  0  0  2  0  0  0  0  0  0
  189.8500  174.0160  141.8230 C   0  0  1  0  0  3  0  0  0  0  0  0
  193.5790  174.1380  141.4620 C   0  0  0  0  0  2  0  0  0  0  0  0
  187.3520  176.6460  144.0340 C   0  0  2  0  0  3  0  0  0  0  0  0
  184.9080  178.2660  143.1180 C   0  0  0  0  0  2  0  0  0  0  0  0
  192.0740  172.2130  141.8610 N   0  0  0  0  0  0  0  0  0  0  0  0
  189.5840  176.2090  143.0020 C   0  0  0  0  0  0  0  0  0  0  0  0
  186.5330  176.7910  141.6230 C   0  0  2  0  0  3  0  0  0  0  0  0
  188.9310  175.2180  142.0580 C   0  0  2  0  0  3  0  0  0  0  0  0
  190.7480  178.1210  144.6450 C   0  0  0  0  0  3  0  0  0  0  0  0
  189.8690  171.8640  140.5930 C   0  0  0  0  0  3  0  0  0  0  0  0
  189.4030  177.9160  144.6710 N   0  0  0  0  0  0  0  0  0  0  0  0
  189.2910  173.0490  140.8340 C   0  0  0  0  0  3  0  0  0  0  0  0
  192.2670  173.4540  141.0780 C   0  0  1  0  0  3  0  0  0  0  0  0
  191.5610  177.3530  143.8070 C   0  0  0  0  0  3  0  0  0  0  0  0
  191.7810  175.5180  142.1670 N   0  0  0  0  0  0  0  0  0  0  0  0
  191.8020  172.4350  143.2810 C   0  0  0  0  0  2  0  0  0  0  0  0
  192.9630  171.9420  144.1240 C   0  0  0  0  0  2  0  0  0  0  0  0
  193.5670  174.8380  146.1120 N   0  0  0  0  0  0  0  0  0  0  0  0
  194.8180  173.3570  145.0160 N   0  0  0  0  0  0  0  0  0  0  0  0
  193.5060  173.0740  144.9220 C   0  0  0  0  0  0  0  0  0  0  0  0
  194.8190  174.4710  145.7770 C   0  0  0  0  0  3  0  0  0  0  0  0
  192.7380  173.9630  145.5700 N   0  0  0  0  0  2  0  0  0  0  0  0
  1 18  2  0  0  0  0
  1 26  1  0  0  0  0
  3  7  1  6  0  0  0
  3 16  1  0  0  0  0
  4 15  1  0  0  0  0
  4 23  2  0  0  0  0
  5 11  1  6  0  0  0
  5 15  1  0  0  0  0
  6  3  1  0  0  0  0
  8 12  1  0  0  0  0
  9 13  1  0  0  0  0
  9 27  1  1  0  0  0
 10 17  1  0  0  0  0
 13 24  1  6  0  0  0
 13 20  1  0  0  0  0
 14  2  1  0  0  0  0
 15 12  1  6  0  0  0
 16  8  1  0  0  0  0
 17 28  1  0  0  0  0
 18  4  1  0  0  0  0
 19  6  1  1  0  0  0
 19  3  1  0  0  0  0
 19  5  1  0  0  0  0
 20 11  1  1  0  0  0
 20 18  1  0  0  0  0
 21 23  1  0  0  0  0
 22 24  2  0  0  0  0
 22 10  1  0  0  0  0
 25  9  1  0  0  0  0
 25 14  1  1  0  0  0
 25 17  1  0  0  0  0
 26 21  2  0  0  0  0
 27  2  1  0  0  0  0
 27  1  1  0  0  0  0
 28 29  1  0  0  0  0
 29 32  1  0  0  0  0
 31 33  1  0  0  0  0
 32 31  2  0  0  0  0
 32 34  1  0  0  0  0
 33 30  2  0  0  0  0
 34 30  1  0  0  0  0
M  END
>  <MODEL>
9

>  <REMARK>
 VINA RESULT:      -7.5      2.126      4.674
  Name = 
  3 active torsions:
  status: ('A' for Active; 'I' for Inactive)
    1  A    between atoms: N_17  and  C_28
    2  A    between atoms: C_28  and  C_29
    3  A    between atoms: C_29  and  C_32
                            x       y       z     vdW  Elec       q    Type
                         _______ _______ _______ _____ _____    ______ ____

>  <TORSDO>
F 3

$$$$
