=
 OpenBabel11112416573D

 31 35  0  0  0  0  0  0  0  0999 V2000
  184.9150  178.1440  146.5380 C   0  0  0  0  0  0  0  0  0  0  0  0
  187.3730  177.0820  143.8900 C   0  0  0  0  0  0  0  0  0  0  0  0
  186.7490  177.3010  142.6220 C   0  0  0  0  0  0  0  0  0  0  0  0
  191.0600  175.6820  147.3810 O   0  0  0  0  0  0  0  0  0  0  0  0
  191.5040  175.4730  146.2200 C   0  0  0  0  0  0  0  0  0  0  0  0
  184.8710  178.0230  141.2340 C   0  0  0  0  0  0  0  0  0  0  0  0
  186.7680  177.3590  145.1530 C   0  0  0  0  0  0  0  0  0  0  0  0
  185.6490  177.8790  147.6930 C   0  0  0  0  0  3  0  0  0  0  0  0
  185.4500  177.8230  142.4900 C   0  0  0  0  0  3  0  0  0  0  0  0
  189.3630  176.3080  145.0950 C   0  0  0  0  0  0  0  0  0  0  0  0
  183.6330  178.6660  146.6350 O   0  0  0  0  0  1  0  0  0  0  0  0
  188.7400  176.4650  141.5110 C   0  0  0  0  0  3  0  0  0  0  0  0
  183.5550  178.5520  141.1350 N   0  0  0  0  0  1  0  0  0  0  0  0
  188.7520  176.5860  146.2730 N   0  0  0  0  0  0  0  0  0  0  0  0
  188.6930  176.5470  143.8880 C   0  0  0  0  0  0  0  0  0  0  0  0
  190.6930  175.7690  145.0730 N   0  0  0  0  0  2  0  0  0  0  0  0
  185.4710  177.8870  145.2830 C   0  0  0  0  0  3  0  0  0  0  0  0
  185.5840  177.7040  140.0790 C   0  0  0  0  0  3  0  0  0  0  0  0
  187.4980  177.0950  146.3390 C   0  0  0  0  0  0  0  0  0  0  0  0
  186.9380  177.3550  147.5930 C   0  0  0  0  0  3  0  0  0  0  0  0
  189.3220  176.2620  142.7160 N   0  0  0  0  0  0  0  0  0  0  0  0
  187.4550  176.9830  141.4350 C   0  0  0  0  0  0  0  0  0  0  0  0
  186.8740  177.1850  140.1790 C   0  0  0  0  0  3  0  0  0  0  0  0
  195.4030  173.7730  145.6240 C   0  0  0  0  0  0  0  0  0  0  0  0
  192.9930  173.6070  145.5360 C   0  0  0  0  0  3  0  0  0  0  0  0
  193.9710  176.9530  146.8020 O   0  0  0  0  0  1  0  0  0  0  0  0
  196.6550  173.2090  145.4250 O   0  0  0  0  0  1  0  0  0  0  0  0
  194.2520  173.0380  145.3360 C   0  0  0  0  0  3  0  0  0  0  0  0
  194.0360  175.6530  146.3150 C   0  0  0  0  0  0  0  0  0  0  0  0
  192.8640  174.9170  146.0260 C   0  0  0  0  0  0  0  0  0  0  0  0
  195.2930  175.0770  146.1120 C   0  0  0  0  0  3  0  0  0  0  0  0
  1 11  1  0  0  0  0
  1  8  1  0  0  0  0
  2  7  1  0  0  0  0
  3  2  2  0  0  0  0
  5  4  2  0  0  0  0
  6  9  2  0  0  0  0
  7 17  1  0  0  0  0
  7 19  2  0  0  0  0
  9  3  1  0  0  0  0
 10 14  2  0  0  0  0
 12 21  1  0  0  0  0
 13  6  1  0  0  0  0
 14 19  1  0  0  0  0
 15  2  1  0  0  0  0
 15 10  1  0  0  0  0
 16 10  1  0  0  0  0
 16  5  1  0  0  0  0
 17  1  2  0  0  0  0
 18 23  2  0  0  0  0
 18  6  1  0  0  0  0
 19 20  1  0  0  0  0
 20  8  2  0  0  0  0
 21 15  2  0  0  0  0
 22 12  2  0  0  0  0
 22  3  1  0  0  0  0
 23 22  1  0  0  0  0
 24 31  1  0  0  0  0
 25 30  2  0  0  0  0
 27 24  1  0  0  0  0
 28 25  1  0  0  0  0
 28 24  2  0  0  0  0
 29 26  1  0  0  0  0
 30  5  1  0  0  0  0
 30 29  1  0  0  0  0
 31 29  2  0  0  0  0
M  END
>  <MODEL>
1

>  <REMARK>
 VINA RESULT:      -9.5      0.000      0.000
  Name = 
  1 active torsions:
  status: ('A' for Active; 'I' for Inactive)
    1  A    between atoms: C_5  and  C_30
                            x       y       z     vdW  Elec       q    Type
                         _______ _______ _______ _____ _____    ______ ____

>  <TORSDO>
F 1

$$$$
=
 OpenBabel11112416573D

 31 35  0  0  0  0  0  0  0  0999 V2000
  185.0130  178.0050  146.8050 C   0  0  0  0  0  0  0  0  0  0  0  0
  186.8690  177.6450  143.5480 C   0  0  0  0  0  0  0  0  0  0  0  0
  185.9150  177.8150  142.4970 C   0  0  0  0  0  0  0  0  0  0  0  0
  191.5130  176.8050  145.8870 O   0  0  0  0  0  0  0  0  0  0  0  0
  191.6780  176.7680  144.6370 C   0  0  0  0  0  0  0  0  0  0  0  0
  183.6460  178.2260  141.6830 C   0  0  0  0  0  0  0  0  0  0  0  0
  186.5640  177.7090  144.9410 C   0  0  0  0  0  0  0  0  0  0  0  0
  186.0510  177.8200  147.7160 C   0  0  0  0  0  3  0  0  0  0  0  0
  184.5510  178.0670  142.7350 C   0  0  0  0  0  3  0  0  0  0  0  0
  189.2060  177.2190  144.1530 C   0  0  0  0  0  0  0  0  0  0  0  0
  183.7240  178.2450  147.2610 O   0  0  0  0  0  1  0  0  0  0  0  0
  187.6760  177.4810  140.8590 C   0  0  0  0  0  3  0  0  0  0  0  0
  182.2750  178.4800  141.9580 N   0  0  0  0  0  1  0  0  0  0  0  0
  188.8740  177.2880  145.4660 N   0  0  0  0  0  0  0  0  0  0  0  0
  188.2200  177.3950  143.1730 C   0  0  0  0  0  0  0  0  0  0  0  0
  190.5620  176.9670  143.7570 N   0  0  0  0  0  2  0  0  0  0  0  0
  185.2690  177.9500  145.4330 C   0  0  0  0  0  3  0  0  0  0  0  0
  184.0880  178.1370  140.3630 C   0  0  0  0  0  3  0  0  0  0  0  0
  187.6070  177.5230  145.8830 C   0  0  0  0  0  0  0  0  0  0  0  0
  187.3450  177.5790  147.2550 C   0  0  0  0  0  3  0  0  0  0  0  0
  188.5710  177.3220  141.8610 N   0  0  0  0  0  0  0  0  0  0  0  0
  186.3420  177.7280  141.1480 C   0  0  0  0  0  0  0  0  0  0  0  0
  185.4340  177.8880  140.0960 C   0  0  0  0  0  3  0  0  0  0  0  0
  195.5290  176.0180  142.8900 C   0  0  0  0  0  0  0  0  0  0  0  0
  193.1200  176.1270  142.7210 C   0  0  0  0  0  3  0  0  0  0  0  0
  194.1740  177.0400  146.1580 O   0  0  0  0  0  1  0  0  0  0  0  0
  196.7650  175.7730  142.3100 O   0  0  0  0  0  1  0  0  0  0  0  0
  194.3630  175.8790  142.1350 C   0  0  0  0  0  3  0  0  0  0  0  0
  194.2090  176.6560  144.8230 C   0  0  0  0  0  0  0  0  0  0  0  0
  193.0220  176.5170  144.0660 C   0  0  0  0  0  0  0  0  0  0  0  0
  195.4500  176.4060  144.2290 C   0  0  0  0  0  3  0  0  0  0  0  0
  1 11  1  0  0  0  0
  1  8  1  0  0  0  0
  2  7  1  0  0  0  0
  3  9  1  0  0  0  0
  3  2  2  0  0  0  0
  5  4  2  0  0  0  0
  6 13  1  0  0  0  0
  6  9  2  0  0  0  0
  7 17  1  0  0  0  0
  7 19  2  0  0  0  0
 10 14  2  0  0  0  0
 12 22  2  0  0  0  0
 12 21  1  0  0  0  0
 14 19  1  0  0  0  0
 15  2  1  0  0  0  0
 15 10  1  0  0  0  0
 16 10  1  0  0  0  0
 16  5  1  0  0  0  0
 17  1  2  0  0  0  0
 18  6  1  0  0  0  0
 19 20  1  0  0  0  0
 20  8  2  0  0  0  0
 21 15  2  0  0  0  0
 22  3  1  0  0  0  0
 23 18  2  0  0  0  0
 23 22  1  0  0  0  0
 24 31  1  0  0  0  0
 25 30  2  0  0  0  0
 27 24  1  0  0  0  0
 28 25  1  0  0  0  0
 28 24  2  0  0  0  0
 29 26  1  0  0  0  0
 30  5  1  0  0  0  0
 30 29  1  0  0  0  0
 31 29  2  0  0  0  0
M  END
>  <MODEL>
2

>  <REMARK>
 VINA RESULT:      -9.3      1.804      1.908
  Name = 
  1 active torsions:
  status: ('A' for Active; 'I' for Inactive)
    1  A    between atoms: C_5  and  C_30
                            x       y       z     vdW  Elec       q    Type
                         _______ _______ _______ _____ _____    ______ ____

>  <TORSDO>
F 1

$$$$
=
 OpenBabel11112416573D

 31 35  0  0  0  0  0  0  0  0999 V2000
  185.7590  177.6690  140.9220 C   0  0  0  0  0  0  0  0  0  0  0  0
  187.3600  176.6330  144.1700 C   0  0  0  0  0  0  0  0  0  0  0  0
  186.5360  177.1340  145.2260 C   0  0  0  0  0  0  0  0  0  0  0  0
  191.3670  174.1620  141.8090 O   0  0  0  0  0  0  0  0  0  0  0  0
  191.5090  174.0580  143.0570 C   0  0  0  0  0  0  0  0  0  0  0  0
  184.5790  178.3450  146.0500 C   0  0  0  0  0  0  0  0  0  0  0  0
  187.0980  176.8130  142.7780 C   0  0  0  0  0  0  0  0  0  0  0  0
  186.6550  177.1210  140.0060 C   0  0  0  0  0  3  0  0  0  0  0  0
  185.3600  177.8700  144.9940 C   0  0  0  0  0  3  0  0  0  0  0  0
  189.3770  175.3830  143.5540 C   0  0  0  0  0  0  0  0  0  0  0  0
  184.6470  178.3670  140.4730 O   0  0  0  0  0  1  0  0  0  0  0  0
  188.0560  176.1680  146.8550 C   0  0  0  0  0  3  0  0  0  0  0  0
  183.3960  179.0860  145.7820 N   0  0  0  0  0  1  0  0  0  0  0  0
  189.0900  175.5760  142.2420 N   0  0  0  0  0  0  0  0  0  0  0  0
  188.5260  175.9020  144.5380 C   0  0  0  0  0  0  0  0  0  0  0  0
  190.5470  174.6490  143.9430 N   0  0  0  0  0  2  0  0  0  0  0  0
  185.9800  177.5150  142.2920 C   0  0  0  0  0  3  0  0  0  0  0  0
  184.9610  178.0930  147.3680 C   0  0  0  0  0  3  0  0  0  0  0  0
  187.9970  176.2630  141.8310 C   0  0  0  0  0  0  0  0  0  0  0  0
  187.7720  176.4190  140.4600 C   0  0  0  0  0  3  0  0  0  0  0  0
  188.8290  175.6980  145.8480 N   0  0  0  0  0  0  0  0  0  0  0  0
  186.9050  176.8890  146.5720 C   0  0  0  0  0  0  0  0  0  0  0  0
  186.1220  177.3660  147.6290 C   0  0  0  0  0  3  0  0  0  0  0  0
  194.9320  172.0280  144.6720 C   0  0  0  0  0  0  0  0  0  0  0  0
  193.9240  173.9590  143.6240 C   0  0  0  0  0  3  0  0  0  0  0  0
  191.3460  171.3520  144.1840 O   0  0  0  0  0  1  0  0  0  0  0  0
  196.0470  171.3860  145.1910 O   0  0  0  0  0  1  0  0  0  0  0  0
  195.0480  173.3150  144.1450 C   0  0  0  0  0  3  0  0  0  0  0  0
  192.5610  172.0250  144.1580 C   0  0  0  0  0  0  0  0  0  0  0  0
  192.6690  173.3290  143.6210 C   0  0  0  0  0  0  0  0  0  0  0  0
  193.6910  171.3870  144.6780 C   0  0  0  0  0  3  0  0  0  0  0  0
  1 17  1  0  0  0  0
  2 15  2  0  0  0  0
  2  3  1  0  0  0  0
  3 22  1  0  0  0  0
  4  5  2  0  0  0  0
  5 30  1  0  0  0  0
  5 16  1  0  0  0  0
  6 18  2  0  0  0  0
  7  2  1  0  0  0  0
  8 20  1  0  0  0  0
  8  1  2  0  0  0  0
  9  3  2  0  0  0  0
  9  6  1  0  0  0  0
 10 16  1  0  0  0  0
 10 15  1  0  0  0  0
 11  1  1  0  0  0  0
 13  6  1  0  0  0  0
 14 10  2  0  0  0  0
 15 21  1  0  0  0  0
 17  7  2  0  0  0  0
 18 23  1  0  0  0  0
 19 14  1  0  0  0  0
 19  7  1  0  0  0  0
 20 19  2  0  0  0  0
 21 12  2  0  0  0  0
 22 12  1  0  0  0  0
 22 23  2  0  0  0  0
 24 31  1  0  0  0  0
 24 27  1  0  0  0  0
 25 28  1  0  0  0  0
 28 24  2  0  0  0  0
 29 26  1  0  0  0  0
 29 31  2  0  0  0  0
 30 25  2  0  0  0  0
 30 29  1  0  0  0  0
M  END
>  <MODEL>
3

>  <REMARK>
 VINA RESULT:      -8.6      2.474      4.515
  Name = 
  1 active torsions:
  status: ('A' for Active; 'I' for Inactive)
    1  A    between atoms: C_5  and  C_30
                            x       y       z     vdW  Elec       q    Type
                         _______ _______ _______ _____ _____    ______ ____

>  <TORSDO>
F 1

$$$$
=
 OpenBabel11112416573D

 31 35  0  0  0  0  0  0  0  0999 V2000
  195.1740  174.0590  145.4960 C   0  0  0  0  0  0  0  0  0  0  0  0
  191.7430  173.2810  144.1530 C   0  0  0  0  0  0  0  0  0  0  0  0
  191.8380  172.0440  143.4430 C   0  0  0  0  0  0  0  0  0  0  0  0
  189.5820  177.6360  146.1800 O   0  0  0  0  0  0  0  0  0  0  0  0
  188.6890  176.9890  145.5680 C   0  0  0  0  0  0  0  0  0  0  0  0
  193.0950  170.1150  142.6210 C   0  0  0  0  0  0  0  0  0  0  0  0
  192.8320  173.9260  144.8140 C   0  0  0  0  0  0  0  0  0  0  0  0
  194.9290  175.2660  146.1490 C   0  0  0  0  0  3  0  0  0  0  0  0
  193.0380  171.3210  143.3230 C   0  0  0  0  0  3  0  0  0  0  0  0
  190.3050  175.1290  144.8790 C   0  0  0  0  0  0  0  0  0  0  0  0
  196.4510  173.5140  145.5010 O   0  0  0  0  0  1  0  0  0  0  0  0
  189.4710  172.1790  142.9150 C   0  0  0  0  0  3  0  0  0  0  0  0
  194.3240  169.4090  142.5190 N   0  0  0  0  0  1  0  0  0  0  0  0
  191.3660  175.7070  145.4950 N   0  0  0  0  0  0  0  0  0  0  0  0
  190.4680  173.9140  144.2000 C   0  0  0  0  0  0  0  0  0  0  0  0
  189.0130  175.7530  144.9160 N   0  0  0  0  0  2  0  0  0  0  0  0
  194.1360  173.3980  144.8370 C   0  0  0  0  0  3  0  0  0  0  0  0
  191.9440  169.6030  142.0220 C   0  0  0  0  0  3  0  0  0  0  0  0
  192.6020  175.1530  145.4840 C   0  0  0  0  0  0  0  0  0  0  0  0
  193.6450  175.8110  146.1420 C   0  0  0  0  0  3  0  0  0  0  0  0
  189.3920  173.3500  143.5890 N   0  0  0  0  0  0  0  0  0  0  0  0
  190.6810  171.5040  142.8260 C   0  0  0  0  0  0  0  0  0  0  0  0
  190.7390  170.2970  142.1240 C   0  0  0  0  0  3  0  0  0  0  0  0
  184.6830  178.5170  145.3180 C   0  0  0  0  0  0  0  0  0  0  0  0
  186.9160  178.2960  144.4220 C   0  0  0  0  0  3  0  0  0  0  0  0
  186.6630  176.4360  147.6200 O   0  0  0  0  0  1  0  0  0  0  0  0
  183.3920  179.0170  145.2220 O   0  0  0  0  0  1  0  0  0  0  0  0
  185.6180  178.8010  144.3230 C   0  0  0  0  0  3  0  0  0  0  0  0
  186.3440  177.2180  146.5170 C   0  0  0  0  0  0  0  0  0  0  0  0
  187.2990  177.5000  145.5130 C   0  0  0  0  0  0  0  0  0  0  0  0
  185.0460  177.7270  146.4110 C   0  0  0  0  0  3  0  0  0  0  0  0
  1 11  1  0  0  0  0
  1  8  1  0  0  0  0
  2 15  1  0  0  0  0
  2  7  1  0  0  0  0
  3  2  2  0  0  0  0
  5  4  2  0  0  0  0
  6  9  2  0  0  0  0
  7 17  1  0  0  0  0
  7 19  2  0  0  0  0
  9  3  1  0  0  0  0
 10 16  1  0  0  0  0
 10 14  2  0  0  0  0
 12 21  1  0  0  0  0
 13  6  1  0  0  0  0
 15 10  1  0  0  0  0
 16  5  1  0  0  0  0
 17  1  2  0  0  0  0
 18 23  2  0  0  0  0
 18  6  1  0  0  0  0
 19 14  1  0  0  0  0
 19 20  1  0  0  0  0
 20  8  2  0  0  0  0
 21 15  2  0  0  0  0
 22 12  2  0  0  0  0
 22  3  1  0  0  0  0
 23 22  1  0  0  0  0
 24 31  1  0  0  0  0
 25 30  2  0  0  0  0
 27 24  1  0  0  0  0
 28 25  1  0  0  0  0
 28 24  2  0  0  0  0
 29 26  1  0  0  0  0
 30  5  1  0  0  0  0
 30 29  1  0  0  0  0
 31 29  2  0  0  0  0
M  END
>  <MODEL>
4

>  <REMARK>
 VINA RESULT:      -8.2      2.827      8.479
  Name = 
  1 active torsions:
  status: ('A' for Active; 'I' for Inactive)
    1  A    between atoms: C_5  and  C_30
                            x       y       z     vdW  Elec       q    Type
                         _______ _______ _______ _____ _____    ______ ____

>  <TORSDO>
F 1

$$$$
=
 OpenBabel11112416573D

 31 35  0  0  0  0  0  0  0  0999 V2000
  195.2390  174.3970  145.7360 C   0  0  0  0  0  0  0  0  0  0  0  0
  191.9700  173.4040  144.1510 C   0  0  0  0  0  0  0  0  0  0  0  0
  192.1410  172.0880  143.6180 C   0  0  0  0  0  0  0  0  0  0  0  0
  189.5990  177.9470  145.3700 O   0  0  0  0  0  0  0  0  0  0  0  0
  188.7770  177.2150  144.7550 C   0  0  0  0  0  0  0  0  0  0  0  0
  193.4810  170.0900  143.1850 C   0  0  0  0  0  0  0  0  0  0  0  0
  192.9820  174.1430  144.8350 C   0  0  0  0  0  0  0  0  0  0  0  0
  194.9240  175.6720  146.2010 C   0  0  0  0  0  3  0  0  0  0  0  0
  193.3490  171.3740  143.7180 C   0  0  0  0  0  3  0  0  0  0  0  0
  190.4600  175.3070  144.4820 C   0  0  0  0  0  0  0  0  0  0  0  0
  196.5080  173.8760  145.9450 O   0  0  0  0  0  1  0  0  0  0  0  0
  189.8440  172.1200  142.8310 C   0  0  0  0  0  3  0  0  0  0  0  0
  194.7160  169.3960  143.3030 N   0  0  0  0  0  1  0  0  0  0  0  0
  191.4490  175.9740  145.1260 N   0  0  0  0  0  0  0  0  0  0  0  0
  190.6960  174.0190  143.9840 C   0  0  0  0  0  0  0  0  0  0  0  0
  189.1700  175.9110  144.3030 N   0  0  0  0  0  2  0  0  0  0  0  0
  194.2770  173.6420  145.0620 C   0  0  0  0  0  3  0  0  0  0  0  0
  192.4020  169.4890  142.5380 C   0  0  0  0  0  3  0  0  0  0  0  0
  192.6810  175.4420  145.3160 C   0  0  0  0  0  0  0  0  0  0  0  0
  193.6470  176.1930  145.9910 C   0  0  0  0  0  3  0  0  0  0  0  0
  189.6920  173.3650  143.3390 N   0  0  0  0  0  0  0  0  0  0  0  0
  191.0570  171.4580  142.9570 C   0  0  0  0  0  0  0  0  0  0  0  0
  191.1910  170.1720  142.4240 C   0  0  0  0  0  3  0  0  0  0  0  0
  184.7610  178.5800  144.0860 C   0  0  0  0  0  0  0  0  0  0  0  0
  186.4540  177.6310  145.5250 C   0  0  0  0  0  3  0  0  0  0  0  0
  187.8940  178.3000  142.1740 O   0  0  0  0  0  1  0  0  0  0  0  0
  183.4590  179.0180  143.8860 O   0  0  0  0  0  1  0  0  0  0  0  0
  185.1430  178.0700  145.3270 C   0  0  0  0  0  3  0  0  0  0  0  0
  187.0020  178.2120  143.2360 C   0  0  0  0  0  0  0  0  0  0  0  0
  187.4010  177.6940  144.4900 C   0  0  0  0  0  0  0  0  0  0  0  0
  185.6890  178.6500  143.0450 C   0  0  0  0  0  3  0  0  0  0  0  0
  1 11  1  0  0  0  0
  1  8  1  0  0  0  0
  2  7  1  0  0  0  0
  3  9  1  0  0  0  0
  3  2  2  0  0  0  0
  5  4  2  0  0  0  0
  6 13  1  0  0  0  0
  6  9  2  0  0  0  0
  7 17  1  0  0  0  0
  7 19  2  0  0  0  0
 10 14  2  0  0  0  0
 12 22  2  0  0  0  0
 12 21  1  0  0  0  0
 14 19  1  0  0  0  0
 15  2  1  0  0  0  0
 15 10  1  0  0  0  0
 16 10  1  0  0  0  0
 16  5  1  0  0  0  0
 17  1  2  0  0  0  0
 18  6  1  0  0  0  0
 19 20  1  0  0  0  0
 20  8  2  0  0  0  0
 21 15  2  0  0  0  0
 22  3  1  0  0  0  0
 23 18  2  0  0  0  0
 23 22  1  0  0  0  0
 24 28  1  0  0  0  0
 26 29  1  0  0  0  0
 27 24  1  0  0  0  0
 28 25  2  0  0  0  0
 29 30  2  0  0  0  0
 30  5  1  0  0  0  0
 30 25  1  0  0  0  0
 31 29  1  0  0  0  0
 31 24  2  0  0  0  0
M  END
>  <MODEL>
5

>  <REMARK>
 VINA RESULT:      -8.0      2.918      8.602
  Name = 
  1 active torsions:
  status: ('A' for Active; 'I' for Inactive)
    1  A    between atoms: C_5  and  C_30
                            x       y       z     vdW  Elec       q    Type
                         _______ _______ _______ _____ _____    ______ ____

>  <TORSDO>
F 1

$$$$
=
 OpenBabel11112416573D

 31 35  0  0  0  0  0  0  0  0999 V2000
  186.2730  178.6940  143.6230 C   0  0  0  0  0  0  0  0  0  0  0  0
  189.0410  176.1420  143.5330 C   0  0  0  0  0  0  0  0  0  0  0  0
  189.7340  176.2270  144.7800 C   0  0  0  0  0  0  0  0  0  0  0  0
  187.8220  174.4800  138.6860 O   0  0  0  0  0  0  0  0  0  0  0  0
  188.8130  173.8200  139.1010 C   0  0  0  0  0  0  0  0  0  0  0  0
  190.0750  177.1870  147.0020 C   0  0  0  0  0  0  0  0  0  0  0  0
  187.9200  176.9480  143.1690 C   0  0  0  0  0  0  0  0  0  0  0  0
  185.6990  178.4970  142.3690 C   0  0  0  0  0  3  0  0  0  0  0  0
  189.3740  177.1310  145.7960 C   0  0  0  0  0  3  0  0  0  0  0  0
  188.8720  175.0480  141.3460 C   0  0  0  0  0  0  0  0  0  0  0  0
  185.7530  179.6520  144.4810 O   0  0  0  0  0  1  0  0  0  0  0  0
  191.2340  174.4600  144.0540 C   0  0  0  0  0  3  0  0  0  0  0  0
  189.6850  178.1130  148.0080 N   0  0  0  0  0  1  0  0  0  0  0  0
  187.8090  175.8330  141.0400 N   0  0  0  0  0  0  0  0  0  0  0  0
  189.5060  175.1830  142.5880 C   0  0  0  0  0  0  0  0  0  0  0  0
  189.3540  174.0770  140.4050 N   0  0  0  0  0  2  0  0  0  0  0  0
  187.3710  177.9270  144.0170 C   0  0  0  0  0  3  0  0  0  0  0  0
  191.1570  176.3350  147.2210 C   0  0  0  0  0  3  0  0  0  0  0  0
  187.3220  176.7620  141.8970 C   0  0  0  0  0  0  0  0  0  0  0  0
  186.2230  177.5330  141.5080 C   0  0  0  0  0  3  0  0  0  0  0  0
  190.5700  174.3880  142.8760 N   0  0  0  0  0  0  0  0  0  0  0  0
  190.8370  175.3700  145.0240 C   0  0  0  0  0  0  0  0  0  0  0  0
  191.5380  175.4270  146.2320 C   0  0  0  0  0  3  0  0  0  0  0  0
  190.5660  170.7250  136.6940 C   0  0  0  0  0  0  0  0  0  0  0  0
  189.3160  171.4340  138.6380 C   0  0  0  0  0  3  0  0  0  0  0  0
  190.2720  174.3940  136.6200 O   0  0  0  0  0  1  0  0  0  0  0  0
  191.1260  169.7130  135.9270 O   0  0  0  0  0  1  0  0  0  0  0  0
  189.8790  170.4130  137.8680 C   0  0  0  0  0  3  0  0  0  0  0  0
  190.1280  173.0830  137.0570 C   0  0  0  0  0  0  0  0  0  0  0  0
  189.4300  172.7780  138.2480 C   0  0  0  0  0  0  0  0  0  0  0  0
  190.6880  172.0570  136.2910 C   0  0  0  0  0  3  0  0  0  0  0  0
  1 17  1  0  0  0  0
  1 11  1  0  0  0  0
  2  3  1  0  0  0  0
  3 22  2  0  0  0  0
  3  9  1  0  0  0  0
  4  5  2  0  0  0  0
  5 16  1  0  0  0  0
  6 18  1  0  0  0  0
  6 13  1  0  0  0  0
  7  2  1  0  0  0  0
  7 17  2  0  0  0  0
  8  1  2  0  0  0  0
  9  6  2  0  0  0  0
 10 15  1  0  0  0  0
 12 22  1  0  0  0  0
 14 10  2  0  0  0  0
 14 19  1  0  0  0  0
 15 21  1  0  0  0  0
 15  2  2  0  0  0  0
 16 10  1  0  0  0  0
 19  7  1  0  0  0  0
 20 19  2  0  0  0  0
 20  8  1  0  0  0  0
 21 12  2  0  0  0  0
 22 23  1  0  0  0  0
 23 18  2  0  0  0  0
 24 28  1  0  0  0  0
 26 29  1  0  0  0  0
 27 24  1  0  0  0  0
 28 25  2  0  0  0  0
 29 30  2  0  0  0  0
 30 25  1  0  0  0  0
 30  5  1  0  0  0  0
 31 24  2  0  0  0  0
 31 29  1  0  0  0  0
M  END
>  <MODEL>
6

>  <REMARK>
 VINA RESULT:      -8.0      4.648      7.082
  Name = 
  1 active torsions:
  status: ('A' for Active; 'I' for Inactive)
    1  A    between atoms: C_5  and  C_30
                            x       y       z     vdW  Elec       q    Type
                         _______ _______ _______ _____ _____    ______ ____

>  <TORSDO>
F 1

$$$$
=
 OpenBabel11112416573D

 31 35  0  0  0  0  0  0  0  0999 V2000
  195.1900  174.8980  145.3430 C   0  0  0  0  0  0  0  0  0  0  0  0
  192.0610  174.7170  143.2550 C   0  0  0  0  0  0  0  0  0  0  0  0
  192.3720  173.9410  142.0950 C   0  0  0  0  0  0  0  0  0  0  0  0
  189.2270  177.6070  146.6250 O   0  0  0  0  0  0  0  0  0  0  0  0
  188.4920  177.2840  145.6530 C   0  0  0  0  0  0  0  0  0  0  0  0
  193.9130  172.6350  140.7180 C   0  0  0  0  0  0  0  0  0  0  0  0
  192.9830  175.0210  144.3020 C   0  0  0  0  0  0  0  0  0  0  0  0
  194.7410  175.6680  146.4150 C   0  0  0  0  0  3  0  0  0  0  0  0
  193.6440  173.3870  141.8640 C   0  0  0  0  0  3  0  0  0  0  0  0
  190.3620  175.9890  144.4820 C   0  0  0  0  0  0  0  0  0  0  0  0
  196.5020  174.4480  145.3140 O   0  0  0  0  0  1  0  0  0  0  0  0
  190.0940  174.2330  141.3040 C   0  0  0  0  0  3  0  0  0  0  0  0
  195.2090  172.0890  140.5150 N   0  0  0  0  0  1  0  0  0  0  0  0
  191.2700  176.2540  145.4540 N   0  0  0  0  0  0  0  0  0  0  0  0
  190.7340  175.2220  143.3700 C   0  0  0  0  0  0  0  0  0  0  0  0
  189.0210  176.4900  144.5810 N   0  0  0  0  0  2  0  0  0  0  0  0
  194.3190  174.5790  144.3000 C   0  0  0  0  0  3  0  0  0  0  0  0
  192.9080  172.4190  139.7750 C   0  0  0  0  0  3  0  0  0  0  0  0
  192.5450  175.8020  145.4000 C   0  0  0  0  0  0  0  0  0  0  0  0
  193.4210  176.1190  146.4430 C   0  0  0  0  0  3  0  0  0  0  0  0
  189.8110  174.9660  142.4050 N   0  0  0  0  0  0  0  0  0  0  0  0
  191.3660  173.7090  141.1230 C   0  0  0  0  0  0  0  0  0  0  0  0
  191.6370  172.9550  139.9770 C   0  0  0  0  0  3  0  0  0  0  0  0
  184.4120  178.6060  145.4240 C   0  0  0  0  0  0  0  0  0  0  0  0
  186.6510  178.5080  144.5210 C   0  0  0  0  0  3  0  0  0  0  0  0
  186.5020  176.6100  147.7040 O   0  0  0  0  0  1  0  0  0  0  0  0
  183.0970  179.0400  145.3340 O   0  0  0  0  0  1  0  0  0  0  0  0
  185.3290  178.9470  144.4290 C   0  0  0  0  0  3  0  0  0  0  0  0
  186.1400  177.3840  146.6080 C   0  0  0  0  0  0  0  0  0  0  0  0
  187.0770  177.7240  145.6050 C   0  0  0  0  0  0  0  0  0  0  0  0
  184.8180  177.8260  146.5090 C   0  0  0  0  0  3  0  0  0  0  0  0
  1  8  1  0  0  0  0
  2 15  1  0  0  0  0
  2  7  1  0  0  0  0
  3  2  2  0  0  0  0
  5  4  2  0  0  0  0
  6  9  2  0  0  0  0
  7 19  2  0  0  0  0
  8 20  2  0  0  0  0
  9  3  1  0  0  0  0
 10 16  1  0  0  0  0
 10 14  2  0  0  0  0
 11  1  1  0  0  0  0
 12 21  1  0  0  0  0
 13  6  1  0  0  0  0
 15 10  1  0  0  0  0
 16  5  1  0  0  0  0
 17  7  1  0  0  0  0
 17  1  2  0  0  0  0
 18 23  2  0  0  0  0
 18  6  1  0  0  0  0
 19 14  1  0  0  0  0
 19 20  1  0  0  0  0
 21 15  2  0  0  0  0
 22 12  2  0  0  0  0
 22  3  1  0  0  0  0
 23 22  1  0  0  0  0
 24 31  1  0  0  0  0
 25 30  2  0  0  0  0
 27 24  1  0  0  0  0
 28 25  1  0  0  0  0
 28 24  2  0  0  0  0
 29 26  1  0  0  0  0
 30  5  1  0  0  0  0
 30 29  1  0  0  0  0
 31 29  2  0  0  0  0
M  END
>  <MODEL>
7

>  <REMARK>
 VINA RESULT:      -8.0      2.798      8.165
  Name = 
  1 active torsions:
  status: ('A' for Active; 'I' for Inactive)
    1  A    between atoms: C_5  and  C_30
                            x       y       z     vdW  Elec       q    Type
                         _______ _______ _______ _____ _____    ______ ____

>  <TORSDO>
F 1

$$$$
=
 OpenBabel11112416573D

 31 35  0  0  0  0  0  0  0  0999 V2000
  193.0000  172.5690  140.2910 C   0  0  0  0  0  0  0  0  0  0  0  0
  192.4040  174.5940  143.4100 C   0  0  0  0  0  0  0  0  0  0  0  0
  193.6240  174.5890  144.1560 C   0  0  0  0  0  0  0  0  0  0  0  0
  187.3990  175.6710  142.1740 O   0  0  0  0  0  0  0  0  0  0  0  0
  187.6680  176.2160  143.2780 C   0  0  0  0  0  0  0  0  0  0  0  0
  195.9580  173.9370  144.4770 C   0  0  0  0  0  0  0  0  0  0  0  0
  192.2140  173.9340  142.1580 C   0  0  0  0  0  0  0  0  0  0  0  0
  191.7510  172.6630  139.6790 C   0  0  0  0  0  3  0  0  0  0  0  0
  194.7830  173.9210  143.7220 C   0  0  0  0  0  3  0  0  0  0  0  0
  190.0770  175.3530  143.2810 C   0  0  0  0  0  0  0  0  0  0  0  0
  194.0190  171.8510  139.6810 O   0  0  0  0  0  1  0  0  0  0  0  0
  192.5710  175.9570  145.8640 C   0  0  0  0  0  3  0  0  0  0  0  0
  197.1120  173.2520  144.0090 N   0  0  0  0  0  1  0  0  0  0  0  0
  189.9390  174.7140  142.0930 N   0  0  0  0  0  0  0  0  0  0  0  0
  191.3020  175.3080  143.9600 C   0  0  0  0  0  0  0  0  0  0  0  0
  188.9770  176.0780  143.8510 N   0  0  0  0  0  2  0  0  0  0  0  0
  193.2260  173.1990  141.5160 C   0  0  0  0  0  3  0  0  0  0  0  0
  195.9990  174.6260  145.6890 C   0  0  0  0  0  3  0  0  0  0  0  0
  190.9510  174.0180  141.5210 C   0  0  0  0  0  0  0  0  0  0  0  0
  190.7290  173.3860  140.2940 C   0  0  0  0  0  3  0  0  0  0  0  0
  191.4210  175.9550  145.1500 N   0  0  0  0  0  0  0  0  0  0  0  0
  193.6880  175.2820  145.3910 C   0  0  0  0  0  0  0  0  0  0  0  0
  194.8650  175.2980  146.1460 C   0  0  0  0  0  3  0  0  0  0  0  0
  184.6800  178.4210  145.4360 C   0  0  0  0  0  0  0  0  0  0  0  0
  186.1410  176.5090  145.2140 C   0  0  0  0  0  3  0  0  0  0  0  0
  186.5880  178.7670  142.3060 O   0  0  0  0  0  1  0  0  0  0  0  0
  183.7150  179.1220  146.1450 O   0  0  0  0  0  1  0  0  0  0  0  0
  185.1700  177.2110  145.9290 C   0  0  0  0  0  3  0  0  0  0  0  0
  186.1350  178.2290  143.5040 C   0  0  0  0  0  0  0  0  0  0  0  0
  186.6380  177.0020  143.9960 C   0  0  0  0  0  0  0  0  0  0  0  0
  185.1630  178.9270  144.2270 C   0  0  0  0  0  3  0  0  0  0  0  0
  1 17  1  0  0  0  0
  2 15  2  0  0  0  0
  2  3  1  0  0  0  0
  3 22  1  0  0  0  0
  4  5  2  0  0  0  0
  5 16  1  0  0  0  0
  5 30  1  0  0  0  0
  6 18  2  0  0  0  0
  7  2  1  0  0  0  0
  8  1  2  0  0  0  0
  8 20  1  0  0  0  0
  9  3  2  0  0  0  0
  9  6  1  0  0  0  0
 10 16  1  0  0  0  0
 10 15  1  0  0  0  0
 11  1  1  0  0  0  0
 13  6  1  0  0  0  0
 14 10  2  0  0  0  0
 15 21  1  0  0  0  0
 17  7  2  0  0  0  0
 18 23  1  0  0  0  0
 19 14  1  0  0  0  0
 19  7  1  0  0  0  0
 20 19  2  0  0  0  0
 21 12  2  0  0  0  0
 22 12  1  0  0  0  0
 22 23  2  0  0  0  0
 24 28  1  0  0  0  0
 24 27  1  0  0  0  0
 25 28  2  0  0  0  0
 26 29  1  0  0  0  0
 29 30  2  0  0  0  0
 29 31  1  0  0  0  0
 30 25  1  0  0  0  0
 31 24  2  0  0  0  0
M  END
>  <MODEL>
8

>  <REMARK>
 VINA RESULT:      -7.9      3.148      9.125
  Name = 
  1 active torsions:
  status: ('A' for Active; 'I' for Inactive)
    1  A    between atoms: C_5  and  C_30
                            x       y       z     vdW  Elec       q    Type
                         _______ _______ _______ _____ _____    ______ ____

>  <TORSDO>
F 1

$$$$
=
 OpenBabel11112416573D

 31 35  0  0  0  0  0  0  0  0999 V2000
  192.3880  170.0550  142.6120 C   0  0  0  0  0  0  0  0  0  0  0  0
  192.5450  173.4610  144.2110 C   0  0  0  0  0  0  0  0  0  0  0  0
  193.8260  173.5760  144.8340 C   0  0  0  0  0  0  0  0  0  0  0  0
  187.6960  174.8010  142.6510 O   0  0  0  0  0  0  0  0  0  0  0  0
  188.1900  175.7610  143.3010 C   0  0  0  0  0  0  0  0  0  0  0  0
  196.0300  172.6960  145.4230 C   0  0  0  0  0  0  0  0  0  0  0  0
  192.0890  172.3140  143.4930 C   0  0  0  0  0  0  0  0  0  0  0  0
  191.1100  170.0890  142.0560 C   0  0  0  0  0  3  0  0  0  0  0  0
  194.7880  172.5500  144.8020 C   0  0  0  0  0  3  0  0  0  0  0  0
  190.3900  174.5270  143.7290 C   0  0  0  0  0  0  0  0  0  0  0  0
  193.1810  168.9270  142.4580 O   0  0  0  0  0  1  0  0  0  0  0  0
  193.2480  175.8130  145.5820 C   0  0  0  0  0  3  0  0  0  0  0  0
  196.9790  171.6400  145.3710 N   0  0  0  0  0  1  0  0  0  0  0  0
  189.9970  173.4180  143.0560 N   0  0  0  0  0  0  0  0  0  0  0  0
  191.6610  174.5730  144.3170 C   0  0  0  0  0  0  0  0  0  0  0  0
  189.5130  175.6570  143.8460 N   0  0  0  0  0  2  0  0  0  0  0  0
  192.8700  171.1570  143.3210 C   0  0  0  0  0  3  0  0  0  0  0  0
  196.3390  173.8800  146.0930 C   0  0  0  0  0  3  0  0  0  0  0  0
  190.7930  172.3290  142.9220 C   0  0  0  0  0  0  0  0  0  0  0  0
  190.3140  171.2240  142.2120 C   0  0  0  0  0  3  0  0  0  0  0  0
  192.0380  175.6940  144.9890 N   0  0  0  0  0  0  0  0  0  0  0  0
  194.1620  174.7700  145.5210 C   0  0  0  0  0  0  0  0  0  0  0  0
  195.4060  174.9160  146.1420 C   0  0  0  0  0  3  0  0  0  0  0  0
  185.9260  179.3400  144.0150 C   0  0  0  0  0  0  0  0  0  0  0  0
  187.0010  177.3290  144.8150 C   0  0  0  0  0  3  0  0  0  0  0  0
  187.4390  177.6040  141.1430 O   0  0  0  0  0  1  0  0  0  0  0  0
  185.1950  180.4930  144.2630 O   0  0  0  0  0  1  0  0  0  0  0  0
  186.2650  178.4880  145.0670 C   0  0  0  0  0  3  0  0  0  0  0  0
  187.0620  177.8730  142.4530 C   0  0  0  0  0  0  0  0  0  0  0  0
  187.4100  177.0030  143.5120 C   0  0  0  0  0  0  0  0  0  0  0  0
  186.3250  179.0320  142.7130 C   0  0  0  0  0  3  0  0  0  0  0  0
  1 17  1  0  0  0  0
  2 15  2  0  0  0  0
  2  3  1  0  0  0  0
  3 22  1  0  0  0  0
  4  5  2  0  0  0  0
  5 30  1  0  0  0  0
  5 16  1  0  0  0  0
  6 18  2  0  0  0  0
  7  2  1  0  0  0  0
  8 20  1  0  0  0  0
  8  1  2  0  0  0  0
  9  3  2  0  0  0  0
  9  6  1  0  0  0  0
 10 16  1  0  0  0  0
 10 15  1  0  0  0  0
 11  1  1  0  0  0  0
 13  6  1  0  0  0  0
 14 10  2  0  0  0  0
 15 21  1  0  0  0  0
 17  7  2  0  0  0  0
 18 23  1  0  0  0  0
 19 14  1  0  0  0  0
 19  7  1  0  0  0  0
 20 19  2  0  0  0  0
 21 12  2  0  0  0  0
 22 12  1  0  0  0  0
 22 23  2  0  0  0  0
 24 27  1  0  0  0  0
 24 28  1  0  0  0  0
 25 28  2  0  0  0  0
 26 29  1  0  0  0  0
 29 31  1  0  0  0  0
 29 30  2  0  0  0  0
 30 25  1  0  0  0  0
 31 24  2  0  0  0  0
M  END
>  <MODEL>
9

>  <REMARK>
 VINA RESULT:      -7.9      3.259      9.212
  Name = 
  1 active torsions:
  status: ('A' for Active; 'I' for Inactive)
    1  A    between atoms: C_5  and  C_30
                            x       y       z     vdW  Elec       q    Type
                         _______ _______ _______ _____ _____    ______ ____

>  <TORSDO>
F 1

$$$$
