=
 OpenBabel11112416593D

 31 35  0  0  1  0  0  0  0  0999 V2000
  184.5180  178.5770  146.2650 C   0  0  0  0  0  0  0  0  0  0  0  0
  187.4290  177.5200  144.1180 C   0  0  0  0  0  0  0  0  0  0  0  0
  186.9840  177.5690  142.7630 C   0  0  0  0  0  0  0  0  0  0  0  0
  185.2880  177.9840  141.0550 C   0  0  0  0  0  0  0  0  0  0  0  0
  186.6210  177.8500  145.2520 C   0  0  0  0  0  0  0  0  0  0  0  0
  185.0830  178.4860  147.5360 C   0  0  0  0  0  3  0  0  0  0  0  0
  185.6820  177.9510  142.3930 C   0  0  0  0  0  3  0  0  0  0  0  0
  189.3000  177.0370  145.6470 C   0  0  0  0  0  0  0  0  0  0  0  0
  183.1980  178.9800  146.1190 O   0  0  0  0  0  1  0  0  0  0  0  0
  189.1500  176.8420  142.0380 N   0  0  0  0  0  0  0  0  0  0  0  0
  183.9960  178.3660  140.7210 O   0  0  0  0  0  1  0  0  0  0  0  0
  188.4930  177.3640  146.7360 C   0  0  0  0  0  3  0  0  0  0  0  0
  188.7740  177.1150  144.3470 C   0  0  0  0  0  0  0  0  0  0  0  0
  185.2800  178.2620  145.1390 C   0  0  0  0  0  3  0  0  0  0  0  0
  186.1920  177.6340  140.0530 C   0  0  0  0  0  3  0  0  0  0  0  0
  187.1750  177.7650  146.5540 C   0  0  0  0  0  0  0  0  0  0  0  0
  186.4090  178.0810  147.6800 C   0  0  0  0  0  3  0  0  0  0  0  0
  189.5750  176.7930  143.2970 N   0  0  0  0  0  0  0  0  0  0  0  0
  187.8870  177.2170  141.7320 C   0  0  0  0  0  0  0  0  0  0  0  0
  187.4890  177.2510  140.3920 C   0  0  0  0  0  3  0  0  0  0  0  0
  190.3110  174.5850  146.9430 O   0  0  0  0  0  0  0  0  0  0  0  0
  191.1230  175.4240  146.4680 C   0  0  0  0  0  0  0  0  0  0  0  0
  190.6640  176.6240  145.8320 N   0  0  0  0  0  2  0  0  0  0  0  0
  194.7130  176.2210  144.9060 C   0  0  0  0  0  0  0  0  0  0  0  0
  193.3190  176.4670  146.8800 C   0  0  0  0  0  3  0  0  0  0  0  0
  192.5530  173.2120  145.0150 O   0  0  0  0  0  1  0  0  0  0  0  0
  195.6160  176.6880  144.1660 O   0  0  0  0  0  0  0  0  0  0  0  0
  194.2940  176.9500  146.1070 C   0  0  0  0  0  3  0  0  0  0  0  0
  193.1070  174.4420  145.3460 C   0  0  0  0  0  0  0  0  0  0  0  0
  192.5930  175.1780  146.5680 C   0  0  2  0  0  3  0  0  0  0  0  0
  194.0820  174.9380  144.5800 C   0  0  0  0  0  3  0  0  0  0  0  0
  1  6  1  0  0  0  0
  2 13  2  0  0  0  0
  2  5  1  0  0  0  0
  3  2  1  0  0  0  0
  4  7  1  0  0  0  0
  5 16  2  0  0  0  0
  6 17  2  0  0  0  0
  7  3  2  0  0  0  0
  8 23  1  0  0  0  0
  8 12  2  0  0  0  0
  9  1  1  0  0  0  0
 10 18  2  0  0  0  0
 11  4  1  0  0  0  0
 13  8  1  0  0  0  0
 14  5  1  0  0  0  0
 14  1  2  0  0  0  0
 15 20  1  0  0  0  0
 15  4  2  0  0  0  0
 16 12  1  0  0  0  0
 16 17  1  0  0  0  0
 18 13  1  0  0  0  0
 19 10  1  0  0  0  0
 19  3  1  0  0  0  0
 20 19  2  0  0  0  0
 22 21  2  0  0  0  0
 23 22  1  0  0  0  0
 24 28  1  0  0  0  0
 26 29  1  0  0  0  0
 27 24  2  0  0  0  0
 28 25  2  0  0  0  0
 29 30  1  0  0  0  0
 30 22  1  6  0  0  0
 30 25  1  0  0  0  0
 31 24  1  0  0  0  0
 31 29  2  0  0  0  0
M  END
>  <MODEL>
1

>  <REMARK>
 VINA RESULT:      -9.7      0.000      0.000
  Name = 
  2 active torsions:
  status: ('A' for Active; 'I' for Inactive)
    1  A    between atoms: C_5  and  C_30
    2  A    between atoms: C_10  and  N_16
                            x       y       z     vdW  Elec       q    Type
                         _______ _______ _______ _____ _____    ______ ____

>  <TORSDO>
F 2

$$$$
=
 OpenBabel11112416593D

 31 35  0  0  1  0  0  0  0  0999 V2000
  184.9710  178.1280  146.7810 C   0  0  0  0  0  0  0  0  0  0  0  0
  187.3570  177.8180  143.8810 C   0  0  0  0  0  0  0  0  0  0  0  0
  186.5750  177.8960  142.6910 C   0  0  0  0  0  0  0  0  0  0  0  0
  184.4510  178.1300  141.5060 C   0  0  0  0  0  0  0  0  0  0  0  0
  186.8280  177.8950  145.2090 C   0  0  0  0  0  0  0  0  0  0  0  0
  185.8520  178.0380  147.8570 C   0  0  0  0  0  3  0  0  0  0  0  0
  185.1780  178.0590  142.6950 C   0  0  0  0  0  3  0  0  0  0  0  0
  189.6120  177.5660  144.8420 C   0  0  0  0  0  0  0  0  0  0  0  0
  183.6100  178.2890  147.0090 O   0  0  0  0  0  1  0  0  0  0  0  0
  188.5670  177.6500  141.3800 N   0  0  0  0  0  0  0  0  0  0  0  0
  183.0730  178.2910  141.5430 O   0  0  0  0  0  1  0  0  0  0  0  0
  189.0720  177.6430  146.1250 C   0  0  0  0  0  3  0  0  0  0  0  0
  188.7630  177.6530  143.7270 C   0  0  0  0  0  0  0  0  0  0  0  0
  185.4560  178.0570  145.4740 C   0  0  0  0  0  3  0  0  0  0  0  0
  185.1100  178.0400  140.2800 C   0  0  0  0  0  3  0  0  0  0  0  0
  187.7060  177.8050  146.3180 C   0  0  0  0  0  0  0  0  0  0  0  0
  187.2170  177.8770  147.6260 C   0  0  0  0  0  3  0  0  0  0  0  0
  189.3060  177.5760  142.4840 N   0  0  0  0  0  0  0  0  0  0  0  0
  187.2250  177.8070  141.4370 C   0  0  0  0  0  0  0  0  0  0  0  0
  186.4950  177.8790  140.2470 C   0  0  0  0  0  3  0  0  0  0  0  0
  191.2630  175.1660  145.3280 O   0  0  0  0  0  0  0  0  0  0  0  0
  191.7990  176.2190  144.8870 C   0  0  0  0  0  0  0  0  0  0  0  0
  191.0250  177.4000  144.6400 N   0  0  0  0  0  2  0  0  0  0  0  0
  195.2390  174.2040  145.1370 C   0  0  0  0  0  0  0  0  0  0  0  0
  193.6370  175.1930  143.6030 C   0  0  0  0  0  3  0  0  0  0  0  0
  193.8470  177.1620  146.8810 O   0  0  0  0  0  1  0  0  0  0  0  0
  196.0780  173.2960  145.3750 O   0  0  0  0  0  0  0  0  0  0  0  0
  194.5440  174.2450  143.8480 C   0  0  0  0  0  3  0  0  0  0  0  0
  194.0600  176.1910  145.9100 C   0  0  0  0  0  0  0  0  0  0  0  0
  193.2690  176.2510  144.6190 C   0  0  2  0  0  3  0  0  0  0  0  0
  194.9630  175.2350  146.1430 C   0  0  0  0  0  3  0  0  0  0  0  0
  1  9  1  0  0  0  0
  1  6  1  0  0  0  0
  2  5  1  0  0  0  0
  3  7  2  0  0  0  0
  3  2  1  0  0  0  0
  4 11  1  0  0  0  0
  4  7  1  0  0  0  0
  5 14  1  0  0  0  0
  5 16  2  0  0  0  0
  8 12  2  0  0  0  0
 10 19  1  0  0  0  0
 10 18  2  0  0  0  0
 12 16  1  0  0  0  0
 13  2  2  0  0  0  0
 13  8  1  0  0  0  0
 14  1  2  0  0  0  0
 15  4  2  0  0  0  0
 16 17  1  0  0  0  0
 17  6  2  0  0  0  0
 18 13  1  0  0  0  0
 19  3  1  0  0  0  0
 20 15  1  0  0  0  0
 20 19  2  0  0  0  0
 22 21  2  0  0  0  0
 23  8  1  0  0  0  0
 23 22  1  0  0  0  0
 24 27  2  0  0  0  0
 24 31  1  0  0  0  0
 25 28  2  0  0  0  0
 25 30  1  0  0  0  0
 28 24  1  0  0  0  0
 29 31  2  0  0  0  0
 29 26  1  0  0  0  0
 30 22  1  1  0  0  0
 30 29  1  0  0  0  0
M  END
>  <MODEL>
2

>  <REMARK>
 VINA RESULT:      -9.1      1.345      1.817
  Name = 
  2 active torsions:
  status: ('A' for Active; 'I' for Inactive)
    1  A    between atoms: C_5  and  C_30
    2  A    between atoms: C_10  and  N_16
                            x       y       z     vdW  Elec       q    Type
                         _______ _______ _______ _____ _____    ______ ____

>  <TORSDO>
F 2

$$$$
=
 OpenBabel11112416593D

 31 35  0  0  1  0  0  0  0  0999 V2000
  185.7560  177.6870  140.9520 C   0  0  0  0  0  0  0  0  0  0  0  0
  187.3270  176.6670  144.2210 C   0  0  0  0  0  0  0  0  0  0  0  0
  186.4930  177.1770  145.2590 C   0  0  0  0  0  0  0  0  0  0  0  0
  184.5330  178.3970  146.0600 C   0  0  0  0  0  0  0  0  0  0  0  0
  187.0800  176.8360  142.8210 C   0  0  0  0  0  0  0  0  0  0  0  0
  186.6550  177.1330  140.0430 C   0  0  0  0  0  3  0  0  0  0  0  0
  185.3200  177.9150  145.0130 C   0  0  0  0  0  3  0  0  0  0  0  0
  189.3630  175.3970  143.6630 C   0  0  0  0  0  0  0  0  0  0  0  0
  184.6480  178.3870  140.4920 O   0  0  0  0  0  1  0  0  0  0  0  0
  187.9700  176.2340  146.8940 N   0  0  0  0  0  0  0  0  0  0  0  0
  183.3820  179.1220  145.7850 O   0  0  0  0  0  1  0  0  0  0  0  0
  189.1020  175.5750  142.3050 C   0  0  0  0  0  3  0  0  0  0  0  0
  188.4840  175.9370  144.6150 C   0  0  0  0  0  0  0  0  0  0  0  0
  185.9680  177.5390  142.3230 C   0  0  0  0  0  3  0  0  0  0  0  0
  184.9030  178.1500  147.3820 C   0  0  0  0  0  3  0  0  0  0  0  0
  187.9830  176.2800  141.8800 C   0  0  0  0  0  0  0  0  0  0  0  0
  187.7670  176.4310  140.5070 C   0  0  0  0  0  3  0  0  0  0  0  0
  188.7540  175.7520  145.9340 N   0  0  0  0  0  0  0  0  0  0  0  0
  186.8510  176.9370  146.6070 C   0  0  0  0  0  0  0  0  0  0  0  0
  186.0610  177.4220  147.6530 C   0  0  0  0  0  3  0  0  0  0  0  0
  192.1020  176.4020  144.1210 O   0  0  0  0  0  0  0  0  0  0  0  0
  191.8380  175.1840  144.3180 C   0  0  0  0  0  0  0  0  0  0  0  0
  190.5190  174.6660  144.1060 N   0  0  0  0  0  2  0  0  0  0  0  0
  195.7760  174.6410  144.7180 C   0  0  0  0  0  0  0  0  0  0  0  0
  193.6820  174.8680  145.9260 C   0  0  0  0  0  3  0  0  0  0  0  0
  193.1720  173.1580  142.5380 O   0  0  0  0  0  1  0  0  0  0  0  0
  197.0190  174.8340  144.6790 O   0  0  0  0  0  0  0  0  0  0  0  0
  195.0030  175.0510  145.8930 C   0  0  0  0  0  3  0  0  0  0  0  0
  193.7730  173.8000  143.6130 C   0  0  0  0  0  0  0  0  0  0  0  0
  192.9140  174.2540  144.7760 C   0  0  2  0  0  3  0  0  0  0  0  0
  195.0950  173.9910  143.5930 C   0  0  0  0  0  3  0  0  0  0  0  0
  1 14  1  0  0  0  0
  2 13  2  0  0  0  0
  2  3  1  0  0  0  0
  3 19  1  0  0  0  0
  4 15  2  0  0  0  0
  5  2  1  0  0  0  0
  6 17  1  0  0  0  0
  6  1  2  0  0  0  0
  7  3  2  0  0  0  0
  7  4  1  0  0  0  0
  8 23  1  0  0  0  0
  8 13  1  0  0  0  0
  9  1  1  0  0  0  0
 11  4  1  0  0  0  0
 12  8  2  0  0  0  0
 13 18  1  0  0  0  0
 14  5  2  0  0  0  0
 15 20  1  0  0  0  0
 16 12  1  0  0  0  0
 16  5  1  0  0  0  0
 17 16  2  0  0  0  0
 18 10  2  0  0  0  0
 19 10  1  0  0  0  0
 19 20  2  0  0  0  0
 21 22  2  0  0  0  0
 23 22  1  0  0  0  0
 24 28  1  0  0  0  0
 26 29  1  0  0  0  0
 27 24  2  0  0  0  0
 28 25  2  0  0  0  0
 29 30  1  0  0  0  0
 30 22  1  6  0  0  0
 30 25  1  0  0  0  0
 31 29  2  0  0  0  0
 31 24  1  0  0  0  0
M  END
>  <MODEL>
3

>  <REMARK>
 VINA RESULT:      -8.9      1.623      4.214
  Name = 
  2 active torsions:
  status: ('A' for Active; 'I' for Inactive)
    1  A    between atoms: C_5  and  C_30
    2  A    between atoms: C_10  and  N_16
                            x       y       z     vdW  Elec       q    Type
                         _______ _______ _______ _____ _____    ______ ____

>  <TORSDO>
F 2

$$$$
=
 OpenBabel11112416593D

 31 35  0  0  1  0  0  0  0  0999 V2000
  185.2710  177.9400  141.0580 C   0  0  0  0  0  0  0  0  0  0  0  0
  187.2460  177.3350  144.2100 C   0  0  0  0  0  0  0  0  0  0  0  0
  186.4080  177.7090  145.3020 C   0  0  0  0  0  0  0  0  0  0  0  0
  184.3150  178.5560  146.2350 C   0  0  0  0  0  0  0  0  0  0  0  0
  186.8680  177.4130  142.8310 C   0  0  0  0  0  0  0  0  0  0  0  0
  186.1910  177.5400  140.0910 C   0  0  0  0  0  3  0  0  0  0  0  0
  185.1010  178.2020  145.1380 C   0  0  0  0  0  3  0  0  0  0  0  0
  189.4410  176.4600  143.5130 C   0  0  0  0  0  0  0  0  0  0  0  0
  184.0180  178.4020  140.6770 O   0  0  0  0  0  1  0  0  0  0  0  0
  188.1550  177.1130  146.8310 N   0  0  0  0  0  0  0  0  0  0  0  0
  183.0290  179.0400  146.0400 O   0  0  0  0  0  1  0  0  0  0  0  0
  189.0510  176.5450  142.1780 C   0  0  0  0  0  3  0  0  0  0  0  0
  188.5470  176.8510  144.5230 C   0  0  0  0  0  0  0  0  0  0  0  0
  185.6080  177.8760  142.4110 C   0  0  0  0  0  3  0  0  0  0  0  0
  184.8230  178.4240  147.5280 C   0  0  0  0  0  3  0  0  0  0  0  0
  187.7890  177.0110  141.8310 C   0  0  0  0  0  0  0  0  0  0  0  0
  187.4470  177.0770  140.4760 C   0  0  0  0  0  3  0  0  0  0  0  0
  188.9450  176.7610  145.8200 N   0  0  0  0  0  0  0  0  0  0  0  0
  186.9050  177.5810  146.6210 C   0  0  0  0  0  0  0  0  0  0  0  0
  186.1150  177.9380  147.7190 C   0  0  0  0  0  3  0  0  0  0  0  0
  191.9350  178.0020  143.8650 O   0  0  0  0  0  0  0  0  0  0  0  0
  191.9390  176.7530  144.0380 C   0  0  0  0  0  0  0  0  0  0  0  0
  190.7460  175.9760  143.8760 N   0  0  0  0  0  2  0  0  0  0  0  0
  193.6070  173.2770  145.0840 C   0  0  0  0  0  0  0  0  0  0  0  0
  193.5530  175.0070  143.3810 C   0  0  0  0  0  3  0  0  0  0  0  0
  192.9060  176.4470  146.8700 O   0  0  0  0  0  1  0  0  0  0  0  0
  193.7520  172.0610  145.3740 O   0  0  0  0  0  0  0  0  0  0  0  0
  193.7310  173.7220  143.6930 C   0  0  0  0  0  3  0  0  0  0  0  0
  193.1470  175.5470  145.8390 C   0  0  0  0  0  0  0  0  0  0  0  0
  193.2070  176.0570  144.4130 C   0  0  2  0  0  3  0  0  0  0  0  0
  193.3250  174.2570  146.1370 C   0  0  0  0  0  3  0  0  0  0  0  0
  1 14  1  0  0  0  0
  2 13  2  0  0  0  0
  2  3  1  0  0  0  0
  3 19  1  0  0  0  0
  4 15  2  0  0  0  0
  5  2  1  0  0  0  0
  6 17  1  0  0  0  0
  6  1  2  0  0  0  0
  7  3  2  0  0  0  0
  7  4  1  0  0  0  0
  8 23  1  0  0  0  0
  8 13  1  0  0  0  0
  9  1  1  0  0  0  0
 11  4  1  0  0  0  0
 12  8  2  0  0  0  0
 13 18  1  0  0  0  0
 14  5  2  0  0  0  0
 15 20  1  0  0  0  0
 16 12  1  0  0  0  0
 16  5  1  0  0  0  0
 17 16  2  0  0  0  0
 18 10  2  0  0  0  0
 19 10  1  0  0  0  0
 19 20  2  0  0  0  0
 21 22  2  0  0  0  0
 23 22  1  0  0  0  0
 24 27  2  0  0  0  0
 24 31  1  0  0  0  0
 25 28  2  0  0  0  0
 25 30  1  0  0  0  0
 28 24  1  0  0  0  0
 29 31  2  0  0  0  0
 29 26  1  0  0  0  0
 30 22  1  6  0  0  0
 30 29  1  0  0  0  0
M  END
>  <MODEL>
4

>  <REMARK>
 VINA RESULT:      -8.8      1.431      4.419
  Name = 
  2 active torsions:
  status: ('A' for Active; 'I' for Inactive)
    1  A    between atoms: C_5  and  C_30
    2  A    between atoms: C_10  and  N_16
                            x       y       z     vdW  Elec       q    Type
                         _______ _______ _______ _____ _____    ______ ____

>  <TORSDO>
F 2

$$$$
=
 OpenBabel11112416593D

 31 35  0  0  1  0  0  0  0  0999 V2000
  190.7980  176.6310  147.0250 C   0  0  0  0  0  0  0  0  0  0  0  0
  188.2040  176.5050  144.2950 C   0  0  0  0  0  0  0  0  0  0  0  0
  187.0880  177.2700  144.7480 C   0  0  0  0  0  0  0  0  0  0  0  0
  185.9390  178.6540  146.4010 C   0  0  0  0  0  0  0  0  0  0  0  0
  189.4080  176.3020  145.0420 C   0  0  0  0  0  0  0  0  0  0  0  0
  191.8120  175.8600  146.4600 C   0  0  0  0  0  3  0  0  0  0  0  0
  187.0520  177.9160  145.9980 C   0  0  0  0  0  3  0  0  0  0  0  0
  189.1510  175.1360  142.4790 C   0  0  0  0  0  0  0  0  0  0  0  0
  190.9680  177.1840  148.2880 O   0  0  0  0  0  1  0  0  0  0  0  0
  185.9420  176.7910  142.6980 N   0  0  0  0  0  0  0  0  0  0  0  0
  185.9330  179.2800  147.6400 O   0  0  0  0  0  1  0  0  0  0  0  0
  190.3140  174.9530  143.2260 C   0  0  0  0  0  3  0  0  0  0  0  0
  188.1030  175.9070  143.0070 C   0  0  0  0  0  0  0  0  0  0  0  0
  189.6120  176.8480  146.3230 C   0  0  0  0  0  3  0  0  0  0  0  0
  184.8320  178.7630  145.5590 C   0  0  0  0  0  3  0  0  0  0  0  0
  190.4520  175.5210  144.4860 C   0  0  0  0  0  0  0  0  0  0  0  0
  191.6390  175.3060  145.1930 C   0  0  0  0  0  3  0  0  0  0  0  0
  186.9770  176.0760  142.2660 N   0  0  0  0  0  0  0  0  0  0  0  0
  185.9550  177.3930  143.9080 C   0  0  0  0  0  0  0  0  0  0  0  0
  184.8410  178.1340  144.3160 C   0  0  0  0  0  3  0  0  0  0  0  0
  187.7200  172.6650  141.7280 O   0  0  0  0  0  0  0  0  0  0  0  0
  188.3050  173.3460  140.8420 C   0  0  0  0  0  0  0  0  0  0  0  0
  189.0070  174.5510  141.1740 N   0  0  0  0  0  2  0  0  0  0  0  0
  190.3540  173.1030  137.4210 C   0  0  0  0  0  0  0  0  0  0  0  0
  189.3050  171.8120  139.1900 C   0  0  0  0  0  3  0  0  0  0  0  0
  187.4410  175.0960  138.5510 O   0  0  0  0  0  1  0  0  0  0  0  0
  191.2750  173.2060  136.5710 O   0  0  0  0  0  0  0  0  0  0  0  0
  190.2670  171.9120  138.2720 C   0  0  0  0  0  3  0  0  0  0  0  0
  188.3830  174.0770  138.4720 C   0  0  0  0  0  0  0  0  0  0  0  0
  188.2760  172.8970  139.4170 C   0  0  2  0  0  3  0  0  0  0  0  0
  189.3530  174.1660  137.5580 C   0  0  0  0  0  3  0  0  0  0  0  0
  1  9  1  0  0  0  0
  2  3  1  0  0  0  0
  2  5  1  0  0  0  0
  3  7  2  0  0  0  0
  4 11  1  0  0  0  0
  5 14  1  0  0  0  0
  6  1  1  0  0  0  0
  7  4  1  0  0  0  0
  8 13  1  0  0  0  0
  8 12  2  0  0  0  0
 10 19  1  0  0  0  0
 12 16  1  0  0  0  0
 13  2  2  0  0  0  0
 14  1  2  0  0  0  0
 15  4  2  0  0  0  0
 16  5  2  0  0  0  0
 16 17  1  0  0  0  0
 17  6  2  0  0  0  0
 18 10  2  0  0  0  0
 18 13  1  0  0  0  0
 19 20  2  0  0  0  0
 19  3  1  0  0  0  0
 20 15  1  0  0  0  0
 22 23  1  0  0  0  0
 22 21  2  0  0  0  0
 23  8  1  0  0  0  0
 24 31  1  0  0  0  0
 24 28  1  0  0  0  0
 25 30  1  0  0  0  0
 27 24  2  0  0  0  0
 28 25  2  0  0  0  0
 29 26  1  0  0  0  0
 29 30  1  0  0  0  0
 30 22  1  1  0  0  0
 31 29  2  0  0  0  0
M  END
>  <MODEL>
5

>  <REMARK>
 VINA RESULT:      -8.4      3.560      6.367
  Name = 
  2 active torsions:
  status: ('A' for Active; 'I' for Inactive)
    1  A    between atoms: C_5  and  C_30
    2  A    between atoms: C_10  and  N_16
                            x       y       z     vdW  Elec       q    Type
                         _______ _______ _______ _____ _____    ______ ____

>  <TORSDO>
F 2

$$$$
=
 OpenBabel11112416593D

 31 35  0  0  1  0  0  0  0  0999 V2000
  194.8990  175.3370  145.3790 C   0  0  0  0  0  0  0  0  0  0  0  0
  191.5550  175.1240  143.6550 C   0  0  0  0  0  0  0  0  0  0  0  0
  191.7540  174.3780  142.4550 C   0  0  0  0  0  0  0  0  0  0  0  0
  193.1540  173.1340  140.8850 C   0  0  0  0  0  0  0  0  0  0  0  0
  192.5840  175.4310  144.6020 C   0  0  0  0  0  0  0  0  0  0  0  0
  194.5630  176.0750  146.5130 C   0  0  0  0  0  3  0  0  0  0  0  0
  193.0030  173.8580  142.0690 C   0  0  0  0  0  3  0  0  0  0  0  0
  189.9460  176.3310  145.0770 C   0  0  0  0  0  0  0  0  0  0  0  0
  196.2080  174.9160  145.1870 O   0  0  0  0  0  1  0  0  0  0  0  0
  189.4280  174.6220  141.9310 N   0  0  0  0  0  0  0  0  0  0  0  0
  194.3990  172.6340  140.5310 O   0  0  0  0  0  1  0  0  0  0  0  0
  190.9640  176.6180  145.9840 C   0  0  0  0  0  3  0  0  0  0  0  0
  190.2360  175.5890  143.9210 C   0  0  0  0  0  0  0  0  0  0  0  0
  193.9190  175.0210  144.4370 C   0  0  0  0  0  3  0  0  0  0  0  0
  192.0520  172.9130  140.0580 C   0  0  0  0  0  3  0  0  0  0  0  0
  192.2640  176.1810  145.7620 C   0  0  0  0  0  0  0  0  0  0  0  0
  193.2480  176.4960  146.7030 C   0  0  0  0  0  3  0  0  0  0  0  0
  189.2310  175.3180  143.0470 N   0  0  0  0  0  0  0  0  0  0  0  0
  190.6490  174.1430  141.6030 C   0  0  0  0  0  0  0  0  0  0  0  0
  190.8030  173.4170  140.4180 C   0  0  0  0  0  3  0  0  0  0  0  0
  188.1090  175.5770  147.2630 O   0  0  0  0  0  0  0  0  0  0  0  0
  187.7310  176.3940  146.3780 C   0  0  0  0  0  0  0  0  0  0  0  0
  188.5990  176.7810  145.3050 N   0  0  0  0  0  2  0  0  0  0  0  0
  185.2620  179.1810  144.9320 C   0  0  0  0  0  0  0  0  0  0  0  0
  185.6550  176.7920  145.1080 C   0  0  0  0  0  3  0  0  0  0  0  0
  186.9410  178.6600  148.1940 O   0  0  0  0  0  1  0  0  0  0  0  0
  184.8120  180.1490  144.2640 O   0  0  0  0  0  0  0  0  0  0  0  0
  185.1570  177.8150  144.4120 C   0  0  0  0  0  3  0  0  0  0  0  0
  186.3840  178.3980  146.9480 C   0  0  0  0  0  0  0  0  0  0  0  0
  186.3550  176.9710  146.4370 C   0  0  2  0  0  3  0  0  0  0  0  0
  185.8830  179.4140  146.2400 C   0  0  0  0  0  3  0  0  0  0  0  0
  1  6  1  0  0  0  0
  2 13  2  0  0  0  0
  2  5  1  0  0  0  0
  3  2  1  0  0  0  0
  4  7  1  0  0  0  0
  5 16  2  0  0  0  0
  6 17  2  0  0  0  0
  7  3  2  0  0  0  0
  8 23  1  0  0  0  0
  8 12  2  0  0  0  0
  9  1  1  0  0  0  0
 10 18  2  0  0  0  0
 11  4  1  0  0  0  0
 13  8  1  0  0  0  0
 14  5  1  0  0  0  0
 14  1  2  0  0  0  0
 15 20  1  0  0  0  0
 15  4  2  0  0  0  0
 16 12  1  0  0  0  0
 16 17  1  0  0  0  0
 18 13  1  0  0  0  0
 19 10  1  0  0  0  0
 19  3  1  0  0  0  0
 20 19  2  0  0  0  0
 22 21  2  0  0  0  0
 23 22  1  0  0  0  0
 24 31  1  0  0  0  0
 25 30  1  0  0  0  0
 27 24  2  0  0  0  0
 28 24  1  0  0  0  0
 28 25  2  0  0  0  0
 29 26  1  0  0  0  0
 30 22  1  6  0  0  0
 30 29  1  0  0  0  0
 31 29  2  0  0  0  0
M  END
>  <MODEL>
6

>  <REMARK>
 VINA RESULT:      -8.3      2.590      7.509
  Name = 
  2 active torsions:
  status: ('A' for Active; 'I' for Inactive)
    1  A    between atoms: C_5  and  C_30
    2  A    between atoms: C_10  and  N_16
                            x       y       z     vdW  Elec       q    Type
                         _______ _______ _______ _____ _____    ______ ____

>  <TORSDO>
F 2

$$$$
=
 OpenBabel11112416593D

 31 35  0  0  1  0  0  0  0  0999 V2000
  186.3570  177.9680  146.1310 C   0  0  0  0  0  0  0  0  0  0  0  0
  189.1880  176.0680  144.5260 C   0  0  0  0  0  0  0  0  0  0  0  0
  190.2820  176.1030  145.4410 C   0  0  0  0  0  0  0  0  0  0  0  0
  191.3180  176.7620  147.5530 C   0  0  0  0  0  0  0  0  0  0  0  0
  187.9130  176.6770  144.7580 C   0  0  0  0  0  0  0  0  0  0  0  0
  185.3740  177.8550  145.1490 C   0  0  0  0  0  3  0  0  0  0  0  0
  190.2230  176.7520  146.6880 C   0  0  0  0  0  3  0  0  0  0  0  0
  188.3670  175.2880  142.3380 C   0  0  0  0  0  0  0  0  0  0  0  0
  186.0890  178.6610  147.3050 O   0  0  0  0  0  1  0  0  0  0  0  0
  191.5960  174.8220  143.9000 N   0  0  0  0  0  0  0  0  0  0  0  0
  191.2300  177.4110  148.7770 O   0  0  0  0  0  1  0  0  0  0  0  0
  187.1340  175.8890  142.5870 C   0  0  0  0  0  3  0  0  0  0  0  0
  189.3870  175.3750  143.2990 C   0  0  0  0  0  0  0  0  0  0  0  0
  187.6100  177.3850  145.9350 C   0  0  0  0  0  3  0  0  0  0  0  0
  192.5020  176.1210  147.1870 C   0  0  0  0  0  3  0  0  0  0  0  0
  186.8990  176.5740  143.7720 C   0  0  0  0  0  0  0  0  0  0  0  0
  185.6450  177.1590  143.9720 C   0  0  0  0  0  3  0  0  0  0  0  0
  190.5830  174.7830  143.0400 N   0  0  0  0  0  0  0  0  0  0  0  0
  191.4910  175.4580  145.0880 C   0  0  0  0  0  0  0  0  0  0  0  0
  192.5870  175.4710  145.9560 C   0  0  0  0  0  3  0  0  0  0  0  0
  187.5010  172.5650  141.5950 O   0  0  0  0  0  0  0  0  0  0  0  0
  188.1770  173.2520  140.7820 C   0  0  0  0  0  0  0  0  0  0  0  0
  188.6120  174.5770  141.1120 N   0  0  0  0  0  2  0  0  0  0  0  0
  190.9940  173.0200  137.9590 C   0  0  0  0  0  0  0  0  0  0  0  0
  189.7210  171.7460  139.5870 C   0  0  0  0  0  3  0  0  0  0  0  0
  187.6740  174.6540  138.1680 O   0  0  0  0  0  1  0  0  0  0  0  0
  192.0710  173.1850  137.3290 O   0  0  0  0  0  0  0  0  0  0  0  0
  190.8540  171.9070  138.9020 C   0  0  0  0  0  3  0  0  0  0  0  0
  188.7260  173.7820  138.4210 C   0  0  0  0  0  0  0  0  0  0  0  0
  188.5430  172.6840  139.4500 C   0  0  2  0  0  3  0  0  0  0  0  0
  189.8660  173.9330  137.7430 C   0  0  0  0  0  3  0  0  0  0  0  0
  1  9  1  0  0  0  0
  2  5  1  0  0  0  0
  2  3  1  0  0  0  0
  3  7  1  0  0  0  0
  4 11  1  0  0  0  0
  5 14  2  0  0  0  0
  6  1  2  0  0  0  0
  7  4  2  0  0  0  0
  8 12  2  0  0  0  0
  8 13  1  0  0  0  0
 10 19  1  0  0  0  0
 12 16  1  0  0  0  0
 13  2  2  0  0  0  0
 14  1  1  0  0  0  0
 15  4  1  0  0  0  0
 16 17  2  0  0  0  0
 16  5  1  0  0  0  0
 17  6  1  0  0  0  0
 18 13  1  0  0  0  0
 18 10  2  0  0  0  0
 19  3  2  0  0  0  0
 19 20  1  0  0  0  0
 20 15  2  0  0  0  0
 22 23  1  0  0  0  0
 22 21  2  0  0  0  0
 23  8  1  0  0  0  0
 24 28  1  0  0  0  0
 26 29  1  0  0  0  0
 27 24  2  0  0  0  0
 28 25  2  0  0  0  0
 29 30  1  0  0  0  0
 30 25  1  0  0  0  0
 30 22  1  1  0  0  0
 31 24  1  0  0  0  0
 31 29  2  0  0  0  0
M  END
>  <MODEL>
7

>  <REMARK>
 VINA RESULT:      -8.1      3.578      6.416
  Name = 
  2 active torsions:
  status: ('A' for Active; 'I' for Inactive)
    1  A    between atoms: C_5  and  C_30
    2  A    between atoms: C_10  and  N_16
                            x       y       z     vdW  Elec       q    Type
                         _______ _______ _______ _____ _____    ______ ____

>  <TORSDO>
F 2

$$$$
=
 OpenBabel11112416593D

 31 35  0  0  1  0  0  0  0  0999 V2000
  191.2410  171.6610  141.9900 C   0  0  0  0  0  0  0  0  0  0  0  0
  190.7800  174.9100  143.8430 C   0  0  0  0  0  0  0  0  0  0  0  0
  191.9370  175.0900  144.6580 C   0  0  0  0  0  0  0  0  0  0  0  0
  194.1150  174.3860  145.5110 C   0  0  0  0  0  0  0  0  0  0  0  0
  190.5610  173.7910  142.9760 C   0  0  0  0  0  0  0  0  0  0  0  0
  190.0630  171.6130  141.2470 C   0  0  0  0  0  3  0  0  0  0  0  0
  193.0020  174.1710  144.6980 C   0  0  0  0  0  3  0  0  0  0  0  0
  188.6060  175.8280  143.1340 C   0  0  0  0  0  0  0  0  0  0  0  0
  192.1730  170.6370  141.8810 O   0  0  0  0  0  1  0  0  0  0  0  0
  191.0310  177.1560  145.4670 N   0  0  0  0  0  0  0  0  0  0  0  0
  195.1500  173.4620  145.5300 O   0  0  0  0  0  1  0  0  0  0  0  0
  188.4160  174.7290  142.2970 C   0  0  0  0  0  3  0  0  0  0  0  0
  189.7790  175.9200  143.9010 C   0  0  0  0  0  0  0  0  0  0  0  0
  191.4840  172.7380  142.8430 C   0  0  0  0  0  3  0  0  0  0  0  0
  194.1880  175.5310  146.3060 C   0  0  0  0  0  3  0  0  0  0  0  0
  189.3690  173.7220  142.2120 C   0  0  0  0  0  0  0  0  0  0  0  0
  189.1290  172.6410  141.3580 C   0  0  0  0  0  3  0  0  0  0  0  0
  189.9480  176.9980  144.7100 N   0  0  0  0  0  0  0  0  0  0  0  0
  192.0290  176.2450  145.4710 C   0  0  0  0  0  0  0  0  0  0  0  0
  193.1460  176.4570  146.2840 C   0  0  0  0  0  3  0  0  0  0  0  0
  187.9570  177.9090  141.1420 O   0  0  0  0  0  0  0  0  0  0  0  0
  187.3310  177.8700  142.2360 C   0  0  0  0  0  0  0  0  0  0  0  0
  187.6220  176.8720  143.2230 N   0  0  0  0  0  2  0  0  0  0  0  0
  184.2670  178.8490  144.6050 C   0  0  0  0  0  0  0  0  0  0  0  0
  186.4920  179.5020  143.8840 C   0  0  0  0  0  3  0  0  0  0  0  0
  184.5580  177.7590  141.0750 O   0  0  0  0  0  1  0  0  0  0  0  0
  183.4040  178.8090  145.5200 O   0  0  0  0  0  0  0  0  0  0  0  0
  185.5680  179.4810  144.8460 C   0  0  0  0  0  3  0  0  0  0  0  0
  184.8870  178.2920  142.3160 C   0  0  0  0  0  0  0  0  0  0  0  0
  186.2690  178.8800  142.5230 C   0  0  2  0  0  3  0  0  0  0  0  0
  183.9720  178.2750  143.2880 C   0  0  0  0  0  3  0  0  0  0  0  0
  1 14  1  0  0  0  0
  2 13  2  0  0  0  0
  2  3  1  0  0  0  0
  3  7  2  0  0  0  0
  3 19  1  0  0  0  0
  4 11  1  0  0  0  0
  4 15  2  0  0  0  0
  5  2  1  0  0  0  0
  6 17  1  0  0  0  0
  6  1  2  0  0  0  0
  7  4  1  0  0  0  0
  8 23  1  0  0  0  0
  8 13  1  0  0  0  0
  9  1  1  0  0  0  0
 10 19  1  0  0  0  0
 12  8  2  0  0  0  0
 13 18  1  0  0  0  0
 14  5  2  0  0  0  0
 16 12  1  0  0  0  0
 16  5  1  0  0  0  0
 17 16  2  0  0  0  0
 18 10  2  0  0  0  0
 19 20  2  0  0  0  0
 20 15  1  0  0  0  0
 21 22  2  0  0  0  0
 22 23  1  0  0  0  0
 24 28  1  0  0  0  0
 24 27  2  0  0  0  0
 25 28  2  0  0  0  0
 26 29  1  0  0  0  0
 29 30  1  0  0  0  0
 29 31  2  0  0  0  0
 30 22  1  1  0  0  0
 30 25  1  0  0  0  0
 31 24  1  0  0  0  0
M  END
>  <MODEL>
8

>  <REMARK>
 VINA RESULT:      -8.0      2.590      8.407
  Name = 
  2 active torsions:
  status: ('A' for Active; 'I' for Inactive)
    1  A    between atoms: C_5  and  C_30
    2  A    between atoms: C_10  and  N_16
                            x       y       z     vdW  Elec       q    Type
                         _______ _______ _______ _____ _____    ______ ____

>  <TORSDO>
F 2

$$$$
=
 OpenBabel11112416593D

 31 35  0  0  1  0  0  0  0  0999 V2000
  191.6270  170.7260  142.6800 C   0  0  0  0  0  0  0  0  0  0  0  0
  192.1610  174.0290  144.4130 C   0  0  0  0  0  0  0  0  0  0  0  0
  193.5070  174.0350  144.8860 C   0  0  0  0  0  0  0  0  0  0  0  0
  195.7060  173.0100  145.1760 C   0  0  0  0  0  0  0  0  0  0  0  0
  191.5570  172.9480  143.6950 C   0  0  0  0  0  0  0  0  0  0  0  0
  190.2990  170.8530  142.2750 C   0  0  0  0  0  3  0  0  0  0  0  0
  194.3970  172.9620  144.6960 C   0  0  0  0  0  3  0  0  0  0  0  0
  190.0380  175.2670  144.2490 C   0  0  0  0  0  0  0  0  0  0  0  0
  192.3340  169.5670  142.3860 O   0  0  0  0  0  1  0  0  0  0  0  0
  193.1650  176.2280  145.7920 N   0  0  0  0  0  0  0  0  0  0  0  0
  196.5600  171.9360  144.9720 O   0  0  0  0  0  1  0  0  0  0  0  0
  189.4710  174.2010  143.5520 C   0  0  0  0  0  3  0  0  0  0  0  0
  191.3730  175.1840  144.6770 C   0  0  0  0  0  0  0  0  0  0  0  0
  192.2450  171.7620  143.3810 C   0  0  0  0  0  3  0  0  0  0  0  0
  196.1560  174.1390  145.8620 C   0  0  0  0  0  3  0  0  0  0  0  0
  190.2070  173.0570  143.2740 C   0  0  0  0  0  0  0  0  0  0  0  0
  189.5910  172.0170  142.5710 C   0  0  0  0  0  3  0  0  0  0  0  0
  191.9090  176.2320  145.3550 N   0  0  0  0  0  0  0  0  0  0  0  0
  193.9820  175.1710  145.5840 C   0  0  0  0  0  0  0  0  0  0  0  0
  195.2950  175.2170  146.0640 C   0  0  0  0  0  3  0  0  0  0  0  0
  188.0000  175.6730  146.3470 O   0  0  0  0  0  0  0  0  0  0  0  0
  188.2930  176.6180  145.5650 C   0  0  0  0  0  0  0  0  0  0  0  0
  189.2780  176.4530  144.5370 N   0  0  0  0  0  2  0  0  0  0  0  0
  184.7880  178.4700  146.0610 C   0  0  0  0  0  0  0  0  0  0  0  0
  186.9610  178.0550  147.0630 C   0  0  0  0  0  3  0  0  0  0  0  0
  187.1720  178.1650  143.2410 O   0  0  0  0  0  1  0  0  0  0  0  0
  183.5560  178.6750  146.2170 O   0  0  0  0  0  0  0  0  0  0  0  0
  185.6590  178.2960  147.2270 C   0  0  0  0  0  3  0  0  0  0  0  0
  186.6640  178.1810  144.5340 C   0  0  0  0  0  0  0  0  0  0  0  0
  187.6030  177.9370  145.6990 C   0  0  2  0  0  3  0  0  0  0  0  0
  185.3620  178.4190  144.7130 C   0  0  0  0  0  3  0  0  0  0  0  0
  1 14  1  0  0  0  0
  2 13  2  0  0  0  0
  2  3  1  0  0  0  0
  3 19  1  0  0  0  0
  4 15  2  0  0  0  0
  5  2  1  0  0  0  0
  6 17  1  0  0  0  0
  6  1  2  0  0  0  0
  7  3  2  0  0  0  0
  7  4  1  0  0  0  0
  8 23  1  0  0  0  0
  8 13  1  0  0  0  0
  9  1  1  0  0  0  0
 11  4  1  0  0  0  0
 12  8  2  0  0  0  0
 13 18  1  0  0  0  0
 14  5  2  0  0  0  0
 15 20  1  0  0  0  0
 16 12  1  0  0  0  0
 16  5  1  0  0  0  0
 17 16  2  0  0  0  0
 18 10  2  0  0  0  0
 19 10  1  0  0  0  0
 19 20  2  0  0  0  0
 22 21  2  0  0  0  0
 23 22  1  0  0  0  0
 24 27  2  0  0  0  0
 24 28  1  0  0  0  0
 25 28  2  0  0  0  0
 26 29  1  0  0  0  0
 29 31  2  0  0  0  0
 29 30  1  0  0  0  0
 30 22  1  6  0  0  0
 30 25  1  0  0  0  0
 31 24  1  0  0  0  0
M  END
>  <MODEL>
9

>  <REMARK>
 VINA RESULT:      -7.7      2.724      8.543
  Name = 
  2 active torsions:
  status: ('A' for Active; 'I' for Inactive)
    1  A    between atoms: C_5  and  C_30
    2  A    between atoms: C_10  and  N_16
                            x       y       z     vdW  Elec       q    Type
                         _______ _______ _______ _____ _____    ______ ____

>  <TORSDO>
F 2

$$$$
