=
 OpenBabel11112417363D

 28 32  0  0  1  0  0  0  0  0999 V2000
  186.1110  178.4140  144.6610 C   0  0  0  0  0  0  0  0  0  0  0  0
  189.1280  178.0800  147.6130 O   0  0  0  0  0  0  0  0  0  0  0  0
  187.4660  173.4290  141.7710 O   0  0  0  0  0  0  0  0  0  0  0  0
  185.3430  176.8610  146.8580 C   0  0  0  0  0  3  0  0  0  0  0  0
  189.7100  174.4580  142.6510 C   0  0  2  0  0  3  0  0  0  0  0  0
  186.3970  179.1150  143.3680 C   0  0  0  0  0  2  0  0  0  0  0  0
  188.9130  175.6320  147.3410 O   0  0  0  0  0  0  0  0  0  0  0  0
  189.6490  176.8660  146.8980 S   0  0  0  0  0  0  0  0  0  0  0  0
  192.2110  176.2950  145.9830 C   0  0  0  0  0  0  0  0  0  0  0  0
  189.5740  177.0780  145.1830 N   0  0  1  0  0  0  0  0  0  0  0  0
  185.9430  177.5000  139.9010 C   0  0  0  0  0  1  0  0  0  0  0  0
  188.3160  176.0200  143.5030 C   0  0  2  0  0  3  0  0  0  0  0  0
  191.6680  175.9570  144.7940 C   0  0  0  0  0  3  0  0  0  0  0  0
  191.3970  176.6280  147.2310 C   0  0  0  0  0  2  0  0  0  0  0  0
  186.7000  178.1280  141.0530 C   0  0  2  0  0  3  0  0  0  0  0  0
  186.9950  177.4370  145.1680 C   0  0  0  0  0  0  0  0  0  0  0  0
  188.3950  174.5790  141.4060 S   0  0  2  0  0  0  0  0  0  0  0  0
  193.6950  176.3330  146.0920 C   0  0  0  0  0  1  0  0  0  0  0  0
  187.9350  177.2840  141.3880 C   0  0  0  0  0  2  0  0  0  0  0  0
  186.5730  176.6370  146.2390 C   0  0  0  0  0  3  0  0  0  0  0  0
  184.8770  178.6330  145.2830 C   0  0  0  0  0  3  0  0  0  0  0  0
  184.4990  177.8690  146.3890 C   0  0  0  0  0  3  0  0  0  0  0  0
  185.7530  178.3290  142.2340 C   0  0  0  0  0  2  0  0  0  0  0  0
  189.7180  175.7700  143.2700 N   0  0  1  0  0  0  0  0  0  0  0  0
  187.6040  176.0120  142.1710 C   0  0  2  0  0  3  0  0  0  0  0  0
  190.1810  175.8660  144.6410 C   0  0  2  0  0  3  0  0  0  0  0  0
  191.0340  174.2060  141.9570 C   0  0  0  0  0  1  0  0  0  0  0  0
  188.2990  177.1900  144.4460 C   0  0  1  0  0  3  0  0  0  0  0  0
  1 16  2  0  0  0  0
  1 21  1  0  0  0  0
  5 27  1  6  0  0  0
  5 24  1  0  0  0  0
  6  1  1  0  0  0  0
  8 14  1  0  0  0  0
  8  7  2  0  0  0  0
  8  2  2  0  0  0  0
  9 18  1  0  0  0  0
  9 14  1  0  0  0  0
 10  8  1  1  0  0  0
 11 15  1  0  0  0  0
 12 28  1  0  0  0  0
 13  9  2  0  0  0  0
 15 19  1  0  0  0  0
 15 23  1  0  0  0  0
 16 20  1  0  0  0  0
 17  3  2  0  0  0  0
 17 25  1  0  0  0  0
 17  5  1  0  0  0  0
 19 25  1  0  0  0  0
 20  4  2  0  0  0  0
 21 22  2  0  0  0  0
 22  4  1  0  0  0  0
 23  6  1  0  0  0  0
 24 12  1  0  0  0  0
 24 26  1  0  0  0  0
 25 12  1  0  0  0  0
 26 13  1  0  0  0  0
 26 10  1  0  0  0  0
 28 16  1  0  0  0  0
 28 10  1  0  0  0  0
M  END
>  <MODEL>
1

>  <REMARK>
 VINA RESULT:      -9.8      0.000      0.000
  Name = 
  0 active torsions:
  status: ('A' for Active; 'I' for Inactive)
                            x       y       z     vdW  Elec       q    Type
                         _______ _______ _______ _____ _____    ______ ____

>  <TORSDO>
F 0

$$$$
=
 OpenBabel11112417363D

 28 32  0  0  1  0  0  0  0  0999 V2000
  190.4140  176.9220  145.6700 C   0  0  0  0  0  0  0  0  0  0  0  0
  194.4810  176.5830  144.5420 O   0  0  0  0  0  0  0  0  0  0  0  0
  188.4990  172.2100  142.6400 O   0  0  0  0  0  0  0  0  0  0  0  0
  191.8790  175.1950  147.3130 C   0  0  0  0  0  3  0  0  0  0  0  0
  190.4220  173.3120  141.2410 C   0  0  2  0  0  3  0  0  0  0  0  0
  189.4630  177.7160  144.8280 C   0  0  0  0  0  2  0  0  0  0  0  0
  194.0800  174.1480  144.3900 O   0  0  0  0  0  0  0  0  0  0  0  0
  194.1020  175.4480  143.6340 S   0  0  0  0  0  0  0  0  0  0  0  0
  194.6040  175.0850  140.9240 C   0  0  0  0  0  0  0  0  0  0  0  0
  192.5930  175.7600  142.8490 N   0  0  1  0  0  0  0  0  0  0  0  0
  186.2090  176.2930  143.3360 C   0  0  0  0  0  1  0  0  0  0  0  0
  190.4820  174.7350  142.9960 C   0  0  2  0  0  3  0  0  0  0  0  0
  193.2960  174.7890  140.7630 C   0  0  0  0  0  3  0  0  0  0  0  0
  195.2720  175.2920  142.2810 C   0  0  0  0  0  2  0  0  0  0  0  0
  187.6010  176.8920  143.3180 C   0  0  2  0  0  3  0  0  0  0  0  0
  191.2770  175.9690  145.0870 C   0  0  0  0  0  0  0  0  0  0  0  0
  188.6840  173.4330  141.7520 S   0  0  2  0  0  0  0  0  0  0  0  0
  195.4530  175.2020  139.7070 C   0  0  0  0  0  1  0  0  0  0  0  0
  188.4970  176.1020  142.3570 C   0  0  0  0  0  2  0  0  0  0  0  0
  191.9660  175.0810  145.9250 C   0  0  0  0  0  3  0  0  0  0  0  0
  190.3270  177.0290  147.0630 C   0  0  0  0  0  3  0  0  0  0  0  0
  191.0700  176.1790  147.8830 C   0  0  0  0  0  3  0  0  0  0  0  0
  188.1410  176.9650  144.7450 C   0  0  0  0  0  2  0  0  0  0  0  0
  190.9890  174.5820  141.6530 N   0  0  1  0  0  0  0  0  0  0  0  0
  188.9740  174.7680  142.9340 C   0  0  2  0  0  3  0  0  0  0  0  0
  192.4070  174.6210  141.9550 C   0  0  2  0  0  3  0  0  0  0  0  0
  190.4910  173.1810  139.7320 C   0  0  0  0  0  1  0  0  0  0  0  0
  191.3120  175.8430  143.5820 C   0  0  1  0  0  3  0  0  0  0  0  0
  1 21  1  0  0  0  0
  4 22  1  0  0  0  0
  5 27  1  6  0  0  0
  5 24  1  0  0  0  0
  5 17  1  0  0  0  0
  6  1  1  0  0  0  0
  8  7  2  0  0  0  0
  8  2  2  0  0  0  0
  9 14  1  0  0  0  0
 10 28  1  0  0  0  0
 10  8  1  1  0  0  0
 12 28  1  0  0  0  0
 13  9  2  0  0  0  0
 13 26  1  0  0  0  0
 14  8  1  0  0  0  0
 15 11  1  0  0  0  0
 15 23  1  0  0  0  0
 16  1  2  0  0  0  0
 16 20  1  0  0  0  0
 17  3  2  0  0  0  0
 17 25  1  0  0  0  0
 18  9  1  0  0  0  0
 19 25  1  0  0  0  0
 19 15  1  0  0  0  0
 20  4  2  0  0  0  0
 21 22  2  0  0  0  0
 23  6  1  0  0  0  0
 24 26  1  0  0  0  0
 24 12  1  0  0  0  0
 25 12  1  0  0  0  0
 26 10  1  0  0  0  0
 28 16  1  0  0  0  0
M  END
>  <MODEL>
2

>  <REMARK>
 VINA RESULT:      -7.9      2.885      4.539
  Name = 
  0 active torsions:
  status: ('A' for Active; 'I' for Inactive)
                            x       y       z     vdW  Elec       q    Type
                         _______ _______ _______ _____ _____    ______ ____

>  <TORSDO>
F 0

$$$$
=
 OpenBabel11112417363D

 28 32  0  0  1  0  0  0  0  0999 V2000
  188.3260  176.4920  144.9690 C   0  0  0  0  0  0  0  0  0  0  0  0
  187.7420  173.4770  142.0530 O   0  0  0  0  0  0  0  0  0  0  0  0
  194.2320  176.6330  144.5920 O   0  0  0  0  0  0  0  0  0  0  0  0
  188.1950  177.4880  142.3570 C   0  0  0  0  0  3  0  0  0  0  0  0
  193.4820  174.1500  144.2140 C   0  0  2  0  0  3  0  0  0  0  0  0
  188.5330  176.1200  146.4050 C   0  0  0  0  0  2  0  0  0  0  0  0
  189.8030  174.3240  140.9830 O   0  0  0  0  0  0  0  0  0  0  0  0
  189.2330  173.3280  141.9540 S   0  0  0  0  0  0  0  0  0  0  0  0
  190.8200  171.0580  142.1930 C   0  0  0  0  0  0  0  0  0  0  0  0
  189.9720  173.4550  143.5130 N   0  0  1  0  0  0  0  0  0  0  0  0
  191.5960  177.1890  148.4820 C   0  0  0  0  0  1  0  0  0  0  0  0
  191.4220  175.0450  144.4610 C   0  0  2  0  0  3  0  0  0  0  0  0
  191.6010  171.7440  143.0550 C   0  0  0  0  0  3  0  0  0  0  0  0
  189.6760  171.6800  141.3960 C   0  0  0  0  0  2  0  0  0  0  0  0
  190.6540  176.2250  147.7890 C   0  0  2  0  0  3  0  0  0  0  0  0
  189.0550  175.8540  143.9420 C   0  0  0  0  0  0  0  0  0  0  0  0
  193.7340  175.4670  145.4360 S   0  0  2  0  0  0  0  0  0  0  0  0
  191.0970  169.6100  141.9940 C   0  0  0  0  0  1  0  0  0  0  0  0
  191.4570  175.2260  146.9470 C   0  0  0  0  0  2  0  0  0  0  0  0
  189.0140  176.3970  142.6500 C   0  0  0  0  0  3  0  0  0  0  0  0
  187.5080  177.5880  144.6710 C   0  0  0  0  0  3  0  0  0  0  0  0
  187.4310  178.0760  143.3660 C   0  0  0  0  0  3  0  0  0  0  0  0
  189.6190  177.0130  146.9890 C   0  0  0  0  0  2  0  0  0  0  0  0
  192.0940  173.7700  144.4000 N   0  0  1  0  0  0  0  0  0  0  0  0
  191.9730  175.8190  145.6350 C   0  0  2  0  0  3  0  0  0  0  0  0
  191.3900  173.2120  143.2620 C   0  0  2  0  0  3  0  0  0  0  0  0
  194.3870  172.9800  144.5460 C   0  0  0  0  0  1  0  0  0  0  0  0
  189.9670  174.7050  144.3010 C   0  0  1  0  0  3  0  0  0  0  0  0
  1  6  1  0  0  0  0
  3 17  2  0  0  0  0
  4 20  2  0  0  0  0
  4 22  1  0  0  0  0
  5 24  1  0  0  0  0
  5 27  1  1  0  0  0
  5 17  1  0  0  0  0
  6 23  1  0  0  0  0
  7  8  2  0  0  0  0
  8  2  2  0  0  0  0
  9 13  2  0  0  0  0
 10  8  1  6  0  0  0
 10 28  1  0  0  0  0
 12 25  1  0  0  0  0
 13 26  1  0  0  0  0
 14  8  1  0  0  0  0
 14  9  1  0  0  0  0
 15 11  1  0  0  0  0
 16 28  1  0  0  0  0
 16  1  2  0  0  0  0
 17 25  1  0  0  0  0
 18  9  1  0  0  0  0
 19 15  1  0  0  0  0
 20 16  1  0  0  0  0
 21  1  1  0  0  0  0
 22 21  2  0  0  0  0
 23 15  1  0  0  0  0
 24 12  1  0  0  0  0
 25 19  1  0  0  0  0
 26 10  1  0  0  0  0
 26 24  1  0  0  0  0
 28 12  1  0  0  0  0
M  END
>  <MODEL>
3

>  <REMARK>
 VINA RESULT:      -7.7      2.630      5.776
  Name = 
  0 active torsions:
  status: ('A' for Active; 'I' for Inactive)
                            x       y       z     vdW  Elec       q    Type
                         _______ _______ _______ _____ _____    ______ ____

>  <TORSDO>
F 0

$$$$
=
 OpenBabel11112417363D

 28 32  0  0  1  0  0  0  0  0999 V2000
  191.6690  174.8520  142.0320 C   0  0  0  0  0  0  0  0  0  0  0  0
  187.8270  175.9930  140.6650 O   0  0  0  0  0  0  0  0  0  0  0  0
  190.3260  174.8050  147.7970 O   0  0  0  0  0  0  0  0  0  0  0  0
  189.9340  172.6860  141.6710 C   0  0  0  0  0  3  0  0  0  0  0  0
  188.9460  176.7370  146.6870 C   0  0  2  0  0  3  0  0  0  0  0  0
  192.6830  175.8960  142.3850 C   0  0  0  0  0  2  0  0  0  0  0  0
  186.9370  174.8190  142.6510 O   0  0  0  0  0  0  0  0  0  0  0  0
  187.3960  176.1390  142.0960 S   0  0  0  0  0  0  0  0  0  0  0  0
  186.2170  178.2970  143.3930 C   0  0  0  0  0  0  0  0  0  0  0  0
  188.6570  176.8360  143.0540 N   0  0  1  0  0  0  0  0  0  0  0  0
  194.4140  176.1360  145.8190 C   0  0  0  0  0  1  0  0  0  0  0  0
  189.9670  175.9920  144.8140 C   0  0  2  0  0  3  0  0  0  0  0  0
  187.1410  178.1650  144.3680 C   0  0  0  0  0  3  0  0  0  0  0  0
  186.0430  177.3120  142.2400 C   0  0  0  0  0  2  0  0  0  0  0  0
  193.5290  176.5860  144.6730 C   0  0  2  0  0  3  0  0  0  0  0  0
  190.3480  174.9280  142.5230 C   0  0  0  0  0  0  0  0  0  0  0  0
  190.5810  176.2130  147.2740 S   0  0  2  0  0  0  0  0  0  0  0  0
  185.2980  179.4670  143.4500 C   0  0  0  0  0  1  0  0  0  0  0  0
  192.1790  177.0700  145.2150 C   0  0  0  0  0  2  0  0  0  0  0  0
  189.5090  173.8140  142.3750 C   0  0  0  0  0  3  0  0  0  0  0  0
  192.0920  173.7170  141.3300 C   0  0  0  0  0  3  0  0  0  0  0  0
  191.2220  172.6430  141.1360 C   0  0  0  0  0  3  0  0  0  0  0  0
  193.4130  175.4590  143.6490 C   0  0  0  0  0  2  0  0  0  0  0  0
  189.1780  177.0970  145.3010 N   0  0  1  0  0  0  0  0  0  0  0  0
  191.2440  175.9280  145.6180 C   0  0  2  0  0  3  0  0  0  0  0  0
  188.0640  176.9860  144.3800 C   0  0  2  0  0  3  0  0  0  0  0  0
  188.5010  177.9560  147.4700 C   0  0  0  0  0  1  0  0  0  0  0  0
  189.9350  176.1430  143.3190 C   0  0  1  0  0  3  0  0  0  0  0  0
  1  6  1  0  0  0  0
  1 16  1  0  0  0  0
  2  8  2  0  0  0  0
  4 20  1  0  0  0  0
  5 17  1  0  0  0  0
  5 27  1  1  0  0  0
  6 23  1  0  0  0  0
  8 14  1  0  0  0  0
  8  7  2  0  0  0  0
  9 18  1  0  0  0  0
  9 13  2  0  0  0  0
 10  8  1  6  0  0  0
 10 28  1  0  0  0  0
 10 26  1  0  0  0  0
 12 24  1  0  0  0  0
 12 25  1  0  0  0  0
 13 26  1  0  0  0  0
 14  9  1  0  0  0  0
 15 19  1  0  0  0  0
 15 11  1  0  0  0  0
 16 28  1  0  0  0  0
 17  3  2  0  0  0  0
 19 25  1  0  0  0  0
 20 16  2  0  0  0  0
 21  1  2  0  0  0  0
 22 21  1  0  0  0  0
 22  4  2  0  0  0  0
 23 15  1  0  0  0  0
 24  5  1  0  0  0  0
 25 17  1  0  0  0  0
 26 24  1  0  0  0  0
 28 12  1  0  0  0  0
M  END
>  <MODEL>
4

>  <REMARK>
 VINA RESULT:      -7.6      1.773      6.610
  Name = 
  0 active torsions:
  status: ('A' for Active; 'I' for Inactive)
                            x       y       z     vdW  Elec       q    Type
                         _______ _______ _______ _____ _____    ______ ____

>  <TORSDO>
F 0

$$$$
=
 OpenBabel11112417363D

 28 32  0  0  1  0  0  0  0  0999 V2000
  188.7110  176.7080  145.5410 C   0  0  0  0  0  0  0  0  0  0  0  0
  192.7770  175.7390  146.2250 O   0  0  0  0  0  0  0  0  0  0  0  0
  187.8560  172.8660  141.1200 O   0  0  0  0  0  0  0  0  0  0  0  0
  189.0560  174.5420  147.2780 C   0  0  0  0  0  3  0  0  0  0  0  0
  190.3180  173.7440  140.9280 C   0  0  2  0  0  3  0  0  0  0  0  0
  188.3480  177.7690  144.5480 C   0  0  0  0  0  2  0  0  0  0  0  0
  192.2100  173.4640  145.4390 O   0  0  0  0  0  0  0  0  0  0  0  0
  192.7240  174.8190  145.0380 S   0  0  0  0  0  0  0  0  0  0  0  0
  194.3590  174.7070  142.7930 C   0  0  0  0  0  0  0  0  0  0  0  0
  191.7860  175.5110  143.7600 N   0  0  1  0  0  0  0  0  0  0  0  0
  185.9910  177.1920  141.5550 C   0  0  0  0  0  1  0  0  0  0  0  0
  189.7370  174.8990  142.7820 C   0  0  2  0  0  3  0  0  0  0  0  0
  193.2440  174.6900  142.0320 C   0  0  0  0  0  3  0  0  0  0  0  0
  194.3550  174.6120  144.3160 C   0  0  0  0  0  2  0  0  0  0  0  0
  187.2970  177.5110  142.2550 C   0  0  2  0  0  3  0  0  0  0  0  0
  189.6290  175.6880  145.2100 C   0  0  0  0  0  0  0  0  0  0  0  0
  188.5660  174.1310  140.6570 S   0  0  2  0  0  0  0  0  0  0  0  0
  195.6760  174.8100  142.1080 C   0  0  0  0  0  1  0  0  0  0  0  0
  188.4340  176.6900  141.6370 C   0  0  0  0  0  2  0  0  0  0  0  0
  189.7530  174.5870  146.0690 C   0  0  0  0  0  3  0  0  0  0  0  0
  188.0140  176.6570  146.7530 C   0  0  0  0  0  3  0  0  0  0  0  0
  188.1970  175.5840  147.6270 C   0  0  0  0  0  3  0  0  0  0  0  0
  187.1320  177.3010  143.7590 C   0  0  0  0  0  2  0  0  0  0  0  0
  190.7780  174.8200  141.7860 N   0  0  1  0  0  0  0  0  0  0  0  0
  188.4370  175.2280  142.0870 C   0  0  2  0  0  3  0  0  0  0  0  0
  191.8960  174.5480  142.6680 C   0  0  2  0  0  3  0  0  0  0  0  0
  191.0520  173.7910  139.6030 C   0  0  0  0  0  1  0  0  0  0  0  0
  190.3310  175.7450  143.8730 C   0  0  1  0  0  3  0  0  0  0  0  0
  1 21  1  0  0  0  0
  4 22  1  0  0  0  0
  5 27  1  6  0  0  0
  5 24  1  0  0  0  0
  6  1  1  0  0  0  0
  8  7  2  0  0  0  0
  8  2  2  0  0  0  0
  9 14  1  0  0  0  0
 10 28  1  0  0  0  0
 10  8  1  1  0  0  0
 11 15  1  0  0  0  0
 12 28  1  0  0  0  0
 13 26  1  0  0  0  0
 13  9  2  0  0  0  0
 14  8  1  0  0  0  0
 15 23  1  0  0  0  0
 16  1  2  0  0  0  0
 16 20  1  0  0  0  0
 17  5  1  0  0  0  0
 17  3  2  0  0  0  0
 17 25  1  0  0  0  0
 18  9  1  0  0  0  0
 19 25  1  0  0  0  0
 19 15  1  0  0  0  0
 20  4  2  0  0  0  0
 21 22  2  0  0  0  0
 23  6  1  0  0  0  0
 24 26  1  0  0  0  0
 24 12  1  0  0  0  0
 25 12  1  0  0  0  0
 26 10  1  0  0  0  0
 28 16  1  0  0  0  0
M  END
>  <MODEL>
5

>  <REMARK>
 VINA RESULT:      -7.5      2.310      3.179
  Name = 
  0 active torsions:
  status: ('A' for Active; 'I' for Inactive)
                            x       y       z     vdW  Elec       q    Type
                         _______ _______ _______ _____ _____    ______ ____

>  <TORSDO>
F 0

$$$$
=
 OpenBabel11112417363D

 28 32  0  0  1  0  0  0  0  0999 V2000
  191.6450  174.2740  144.5490 C   0  0  0  0  0  0  0  0  0  0  0  0
  189.7520  174.2070  140.7620 O   0  0  0  0  0  0  0  0  0  0  0  0
  186.8730  175.9250  147.6380 O   0  0  0  0  0  0  0  0  0  0  0  0
  190.3700  171.8460  143.9920 C   0  0  0  0  0  3  0  0  0  0  0  0
  186.7380  177.1040  145.3010 C   0  0  2  0  0  3  0  0  0  0  0  0
  192.2760  175.5360  145.0520 C   0  0  0  0  0  2  0  0  0  0  0  0
  187.6770  173.6290  141.9770 O   0  0  0  0  0  0  0  0  0  0  0  0
  188.5080  174.7460  141.4090 S   0  0  0  0  0  0  0  0  0  0  0  0
  186.9780  176.9730  140.7560 C   0  0  0  0  0  0  0  0  0  0  0  0
  188.8980  175.9300  142.6080 N   0  0  1  0  0  0  0  0  0  0  0  0
  191.3630  177.2070  148.4010 C   0  0  0  0  0  1  0  0  0  0  0  0
  188.6580  175.9650  144.9460 C   0  0  2  0  0  3  0  0  0  0  0  0
  187.0260  177.3370  142.0550 C   0  0  0  0  0  3  0  0  0  0  0  0
  187.5060  175.6450  140.2210 C   0  0  0  0  0  2  0  0  0  0  0  0
  191.4860  177.0870  146.8960 C   0  0  2  0  0  3  0  0  0  0  0  0
  190.3370  174.2790  144.0160 C   0  0  0  0  0  0  0  0  0  0  0  0
  187.5380  177.0980  146.9300 S   0  0  2  0  0  0  0  0  0  0  0  0
  186.3590  177.9160  139.7850 C   0  0  0  0  0  1  0  0  0  0  0  0
  190.1630  177.4820  146.2310 C   0  0  0  0  0  2  0  0  0  0  0  0
  189.6980  173.0530  143.7890 C   0  0  0  0  0  3  0  0  0  0  0  0
  192.3140  173.0620  144.7540 C   0  0  0  0  0  3  0  0  0  0  0  0
  191.6840  171.8510  144.4610 C   0  0  0  0  0  3  0  0  0  0  0  0
  191.9610  175.6810  146.5350 C   0  0  0  0  0  2  0  0  0  0  0  0
  187.8510  177.0140  144.3730 N   0  0  1  0  0  0  0  0  0  0  0  0
  189.0890  176.3960  146.3280 C   0  0  2  0  0  3  0  0  0  0  0  0
  187.6020  176.4090  143.0790 C   0  0  2  0  0  3  0  0  0  0  0  0
  186.0080  178.4180  145.1070 C   0  0  0  0  0  1  0  0  0  0  0  0
  189.6220  175.6000  143.8530 C   0  0  1  0  0  3  0  0  0  0  0  0
  1 21  1  0  0  0  0
  1  6  1  0  0  0  0
  2  8  2  0  0  0  0
  4 22  1  0  0  0  0
  5 27  1  6  0  0  0
  5 17  1  0  0  0  0
  6 23  1  0  0  0  0
  8  7  2  0  0  0  0
  9 13  2  0  0  0  0
 10  8  1  6  0  0  0
 10 26  1  0  0  0  0
 10 28  1  0  0  0  0
 12 25  1  0  0  0  0
 13 26  1  0  0  0  0
 14  9  1  0  0  0  0
 14  8  1  0  0  0  0
 15 11  1  0  0  0  0
 16  1  2  0  0  0  0
 17  3  2  0  0  0  0
 18  9  1  0  0  0  0
 19 25  1  0  0  0  0
 19 15  1  0  0  0  0
 20  4  2  0  0  0  0
 20 16  1  0  0  0  0
 22 21  2  0  0  0  0
 23 15  1  0  0  0  0
 24 12  1  0  0  0  0
 24  5  1  0  0  0  0
 25 17  1  0  0  0  0
 26 24  1  0  0  0  0
 28 16  1  0  0  0  0
 28 12  1  0  0  0  0
M  END
>  <MODEL>
6

>  <REMARK>
 VINA RESULT:      -7.1      1.704      6.609
  Name = 
  0 active torsions:
  status: ('A' for Active; 'I' for Inactive)
                            x       y       z     vdW  Elec       q    Type
                         _______ _______ _______ _____ _____    ______ ____

>  <TORSDO>
F 0

$$$$
=
 OpenBabel11112417363D

 28 32  0  0  1  0  0  0  0  0999 V2000
  186.5470  176.2900  143.0270 C   0  0  0  0  0  0  0  0  0  0  0  0
  187.5510  172.9980  140.5600 O   0  0  0  0  0  0  0  0  0  0  0  0
  192.0850  177.5980  144.6590 O   0  0  0  0  0  0  0  0  0  0  0  0
  187.2080  177.0290  140.4100 C   0  0  0  0  0  3  0  0  0  0  0  0
  191.9350  174.9920  144.4160 C   0  0  2  0  0  3  0  0  0  0  0  0
  186.2790  176.0830  144.4860 C   0  0  0  0  0  2  0  0  0  0  0  0
  189.6930  174.1580  140.1410 O   0  0  0  0  0  0  0  0  0  0  0  0
  188.9800  173.1480  140.9950 S   0  0  0  0  0  0  0  0  0  0  0  0
  190.7190  171.2740  142.0870 C   0  0  0  0  0  0  0  0  0  0  0  0
  189.0760  173.5450  142.6760 N   0  0  1  0  0  0  0  0  0  0  0  0
  188.1700  177.9130  147.2990 C   0  0  0  0  0  1  0  0  0  0  0  0
  189.8080  175.4670  143.8160 C   0  0  2  0  0  3  0  0  0  0  0  0
  191.0140  172.1700  143.0530 C   0  0  0  0  0  3  0  0  0  0  0  0
  189.8550  171.5850  140.8680 C   0  0  0  0  0  2  0  0  0  0  0  0
  187.7120  176.7260  146.4760 C   0  0  2  0  0  3  0  0  0  0  0  0
  187.6900  175.7340  142.4130 C   0  0  0  0  0  0  0  0  0  0  0  0
  191.5110  176.4260  145.4450 S   0  0  2  0  0  0  0  0  0  0  0  0
  191.2800  169.9000  142.2080 C   0  0  0  0  0  1  0  0  0  0  0  0
  188.9140  175.8480  146.1120 C   0  0  0  0  0  2  0  0  0  0  0  0
  188.0310  176.1530  141.1190 C   0  0  0  0  0  3  0  0  0  0  0  0
  185.7260  177.1700  142.3130 C   0  0  0  0  0  3  0  0  0  0  0  0
  186.0470  177.5270  141.0020 C   0  0  0  0  0  3  0  0  0  0  0  0
  186.9220  177.2220  145.2660 C   0  0  0  0  0  2  0  0  0  0  0  0
  190.6540  174.3540  144.1740 N   0  0  1  0  0  0  0  0  0  0  0  0
  189.7660  176.4270  144.9810 C   0  0  2  0  0  3  0  0  0  0  0  0
  190.5080  173.5760  142.9600 C   0  0  2  0  0  3  0  0  0  0  0  0
  192.8360  174.0610  145.2030 C   0  0  0  0  0  1  0  0  0  0  0  0
  188.5840  174.8260  143.2240 C   0  0  1  0  0  3  0  0  0  0  0  0
  1  6  1  0  0  0  0
  2  8  2  0  0  0  0
  3 17  2  0  0  0  0
  4 22  2  0  0  0  0
  4 20  1  0  0  0  0
  5 27  1  1  0  0  0
  5 17  1  0  0  0  0
  6 23  1  0  0  0  0
  7  8  2  0  0  0  0
  9 18  1  0  0  0  0
  9 13  2  0  0  0  0
 10  8  1  6  0  0  0
 10 26  1  0  0  0  0
 10 28  1  0  0  0  0
 12 24  1  0  0  0  0
 12 25  1  0  0  0  0
 14  8  1  0  0  0  0
 14  9  1  0  0  0  0
 15 11  1  0  0  0  0
 16  1  1  0  0  0  0
 16 28  1  0  0  0  0
 19 15  1  0  0  0  0
 20 16  2  0  0  0  0
 21  1  2  0  0  0  0
 22 21  1  0  0  0  0
 23 15  1  0  0  0  0
 24  5  1  0  0  0  0
 25 17  1  0  0  0  0
 25 19  1  0  0  0  0
 26 13  1  0  0  0  0
 26 24  1  0  0  0  0
 28 12  1  0  0  0  0
M  END
>  <MODEL>
7

>  <REMARK>
 VINA RESULT:      -7.0      2.095      5.345
  Name = 
  0 active torsions:
  status: ('A' for Active; 'I' for Inactive)
                            x       y       z     vdW  Elec       q    Type
                         _______ _______ _______ _____ _____    ______ ____

>  <TORSDO>
F 0

$$$$
=
 OpenBabel11112417363D

 28 32  0  0  1  0  0  0  0  0999 V2000
  194.3650  173.1080  145.2980 C   0  0  0  0  0  0  0  0  0  0  0  0
  192.3930  176.3030  147.2580 O   0  0  0  0  0  0  0  0  0  0  0  0
  191.3710  173.5120  140.2090 O   0  0  0  0  0  0  0  0  0  0  0  0
  195.5010  175.6080  144.7590 C   0  0  0  0  0  3  0  0  0  0  0  0
  189.7130  174.1280  142.1430 C   0  0  2  0  0  3  0  0  0  0  0  0
  193.8170  171.7170  145.3880 C   0  0  0  0  0  2  0  0  0  0  0  0
  192.1010  177.2990  145.0140 O   0  0  0  0  0  0  0  0  0  0  0  0
  191.4820  176.4270  146.0700 S   0  0  0  0  0  0  0  0  0  0  0  0
  188.7050  176.4240  145.9430 C   0  0  0  0  0  0  0  0  0  0  0  0
  191.0590  174.8680  145.4500 N   0  0  1  0  0  0  0  0  0  0  0  0
  192.9030  169.5670  142.3250 C   0  0  0  0  0  1  0  0  0  0  0  0
  191.5430  173.7790  143.4230 C   0  0  2  0  0  3  0  0  0  0  0  0
  188.7910  175.5050  144.9590 C   0  0  0  0  0  3  0  0  0  0  0  0
  189.9070  177.1480  146.5440 C   0  0  0  0  0  2  0  0  0  0  0  0
  192.6540  170.3460  143.6010 C   0  0  2  0  0  3  0  0  0  0  0  0
  193.5300  174.1990  144.9730 C   0  0  0  0  0  0  0  0  0  0  0  0
  190.5810  172.7830  141.2880 S   0  0  2  0  0  0  0  0  0  0  0  0
  187.3550  176.7670  146.4690 C   0  0  0  0  0  1  0  0  0  0  0  0
  191.4590  171.2870  143.4130 C   0  0  0  0  0  2  0  0  0  0  0  0
  194.1210  175.4300  144.6590 C   0  0  0  0  0  3  0  0  0  0  0  0
  195.7500  173.2900  145.3950 C   0  0  0  0  0  3  0  0  0  0  0  0
  196.3160  174.5410  145.1410 C   0  0  0  0  0  3  0  0  0  0  0  0
  193.9390  171.0560  144.0210 C   0  0  0  0  0  2  0  0  0  0  0  0
  190.1160  173.9700  143.5280 N   0  0  1  0  0  0  0  0  0  0  0  0
  191.7980  172.5380  142.6010 C   0  0  2  0  0  3  0  0  0  0  0  0
  190.1200  175.1520  144.3670 C   0  0  2  0  0  3  0  0  0  0  0  0
  188.2170  173.9190  142.0140 C   0  0  0  0  0  1  0  0  0  0  0  0
  192.0450  173.9600  144.8280 C   0  0  1  0  0  3  0  0  0  0  0  0
  1  6  1  0  0  0  0
  1 21  1  0  0  0  0
  3 17  2  0  0  0  0
  4 22  1  0  0  0  0
  5 27  1  1  0  0  0
  5 24  1  0  0  0  0
  7  8  2  0  0  0  0
  8 14  1  0  0  0  0
  8  2  2  0  0  0  0
  9 18  1  0  0  0  0
  9 14  1  0  0  0  0
 10  8  1  6  0  0  0
 11 15  1  0  0  0  0
 12 24  1  0  0  0  0
 12 28  1  0  0  0  0
 13  9  2  0  0  0  0
 15 23  1  0  0  0  0
 16  1  2  0  0  0  0
 17  5  1  0  0  0  0
 17 25  1  0  0  0  0
 19 15  1  0  0  0  0
 20  4  2  0  0  0  0
 20 16  1  0  0  0  0
 22 21  2  0  0  0  0
 23  6  1  0  0  0  0
 24 26  1  0  0  0  0
 25 19  1  0  0  0  0
 25 12  1  0  0  0  0
 26 13  1  0  0  0  0
 26 10  1  0  0  0  0
 28 16  1  0  0  0  0
 28 10  1  0  0  0  0
M  END
>  <MODEL>
8

>  <REMARK>
 VINA RESULT:      -6.9      2.952      6.929
  Name = 
  0 active torsions:
  status: ('A' for Active; 'I' for Inactive)
                            x       y       z     vdW  Elec       q    Type
                         _______ _______ _______ _____ _____    ______ ____

>  <TORSDO>
F 0

$$$$
=
 OpenBabel11112417363D

 28 32  0  0  1  0  0  0  0  0999 V2000
  189.6600  175.3990  145.1090 C   0  0  0  0  0  0  0  0  0  0  0  0
  187.2810  173.6740  142.0600 O   0  0  0  0  0  0  0  0  0  0  0  0
  194.2550  176.7900  141.6460 O   0  0  0  0  0  0  0  0  0  0  0  0
  188.1190  177.2730  143.7140 C   0  0  0  0  0  3  0  0  0  0  0  0
  193.2460  174.5460  140.7430 C   0  0  2  0  0  3  0  0  0  0  0  0
  190.6300  174.5540  145.8750 C   0  0  0  0  0  2  0  0  0  0  0  0
  188.4010  175.2400  140.5090 O   0  0  0  0  0  0  0  0  0  0  0  0
  188.4250  173.8600  141.1050 S   0  0  0  0  0  0  0  0  0  0  0  0
  189.6870  172.0160  139.4520 C   0  0  0  0  0  0  0  0  0  0  0  0
  189.9360  173.5200  141.8770 N   0  0  1  0  0  0  0  0  0  0  0  0
  194.3990  175.3080  146.1380 C   0  0  0  0  0  1  0  0  0  0  0  0
  191.7780  174.8710  142.4310 C   0  0  2  0  0  3  0  0  0  0  0  0
  190.8700  172.4550  139.9320 C   0  0  0  0  0  3  0  0  0  0  0  0
  188.3430  172.6660  139.7670 C   0  0  0  0  0  2  0  0  0  0  0  0
  193.1620  174.5230  145.7510 C   0  0  2  0  0  3  0  0  0  0  0  0
  189.6130  175.3530  143.6990 C   0  0  0  0  0  0  0  0  0  0  0  0
  194.2530  175.3190  142.0400 S   0  0  2  0  0  0  0  0  0  0  0  0
  189.6910  170.8340  138.5470 C   0  0  0  0  0  1  0  0  0  0  0  0
  193.2550  174.0920  144.2820 C   0  0  0  0  0  2  0  0  0  0  0  0
  188.8740  176.3290  143.0160 C   0  0  0  0  0  3  0  0  0  0  0  0
  188.9040  176.3500  145.8040 C   0  0  0  0  0  3  0  0  0  0  0  0
  188.1230  177.2750  145.1090 C   0  0  0  0  0  3  0  0  0  0  0  0
  191.9160  175.3450  146.0740 C   0  0  0  0  0  2  0  0  0  0  0  0
  192.1970  173.8680  141.4820 N   0  0  1  0  0  0  0  0  0  0  0  0
  192.9610  175.2270  143.3000 C   0  0  2  0  0  3  0  0  0  0  0  0
  190.9260  173.6640  140.8140 C   0  0  2  0  0  3  0  0  0  0  0  0
  194.0870  173.5330  139.9940 C   0  0  0  0  0  1  0  0  0  0  0  0
  190.4780  174.3480  142.9740 C   0  0  1  0  0  3  0  0  0  0  0  0
  1 21  1  0  0  0  0
  1  6  1  0  0  0  0
  3 17  2  0  0  0  0
  4 22  1  0  0  0  0
  5 27  1  1  0  0  0
  5 24  1  0  0  0  0
  5 17  1  0  0  0  0
  6 23  1  0  0  0  0
  7  8  2  0  0  0  0
  8  2  2  0  0  0  0
  9 14  1  0  0  0  0
  9 13  2  0  0  0  0
 10  8  1  6  0  0  0
 10 28  1  0  0  0  0
 12 28  1  0  0  0  0
 12 25  1  0  0  0  0
 13 26  1  0  0  0  0
 14  8  1  0  0  0  0
 15 23  1  0  0  0  0
 15 11  1  0  0  0  0
 16  1  2  0  0  0  0
 17 25  1  0  0  0  0
 18  9  1  0  0  0  0
 19 15  1  0  0  0  0
 20 16  1  0  0  0  0
 20  4  2  0  0  0  0
 22 21  2  0  0  0  0
 24 12  1  0  0  0  0
 25 19  1  0  0  0  0
 26 24  1  0  0  0  0
 26 10  1  0  0  0  0
 28 16  1  0  0  0  0
M  END
>  <MODEL>
9

>  <REMARK>
 VINA RESULT:      -6.9      3.140      6.333
  Name = 
  0 active torsions:
  status: ('A' for Active; 'I' for Inactive)
                            x       y       z     vdW  Elec       q    Type
                         _______ _______ _______ _____ _____    ______ ____

>  <TORSDO>
F 0

$$$$
