=
 OpenBabel11112417093D

 37 43  0  0  1  0  0  0  0  0999 V2000
  188.5980  174.3550  140.5030 C   0  0  0  0  0  2  0  0  0  0  0  0
  185.9100  177.6640  142.6850 C   0  0  0  0  0  0  0  0  0  0  0  0
  188.8560  175.8500  144.9990 C   0  0  0  0  0  0  0  0  0  0  0  0
  189.0570  173.1810  139.6600 C   0  0  2  0  0  3  0  0  0  0  0  0
  192.0980  175.4100  143.2690 O   0  0  0  0  0  0  0  0  0  0  0  0
  186.6610  176.8680  144.9660 C   0  0  0  0  0  0  0  0  0  0  0  0
  189.7240  175.4580  144.0720 C   0  0  0  0  0  0  0  0  0  0  0  0
  191.4690  173.7590  139.9560 C   0  0  0  0  0  0  0  0  0  0  0  0
  187.6210  176.1760  144.3690 C   0  0  0  0  0  0  0  0  0  0  0  0
  191.1820  175.2210  144.3200 C   0  0  0  0  0  0  0  0  0  0  0  0
  186.7800  177.1230  146.4200 C   0  0  0  0  0  3  0  0  0  0  0  0
  190.3620  173.4370  139.1590 O   0  0  0  0  0  0  0  0  0  0  0  0
  187.6950  175.9650  142.9810 N   0  0  0  0  0  0  0  0  0  0  0  0
  186.7420  178.9340  142.6440 C   0  0  0  0  0  1  0  0  0  0  0  0
  189.7560  175.1590  147.1420 C   0  0  0  0  0  3  0  0  0  0  0  0
  187.9150  176.8240  147.0850 C   0  0  0  0  0  3  0  0  0  0  0  0
  186.7060  176.5040  142.0480 C   0  0  0  0  0  2  0  0  0  0  0  0
  191.3840  173.9980  141.4430 C   0  0  1  0  0  3  0  0  0  0  0  0
  191.7660  175.4120  141.8850 C   0  0  0  0  0  2  0  0  0  0  0  0
  189.1590  176.2900  146.3900 C   0  0  2  0  0  3  0  0  0  0  0  0
  189.0660  175.5430  142.6940 C   0  0  2  0  0  3  0  0  0  0  0  0
  185.4980  177.3510  144.1430 C   0  0  0  0  0  2  0  0  0  0  0  0
  191.6810  174.8120  145.5250 C   0  0  0  0  0  0  0  0  0  0  0  0
  184.6550  177.8910  141.8680 C   0  0  0  0  0  1  0  0  0  0  0  0
  190.2600  173.4330  142.1020 O   0  0  0  0  0  0  0  0  0  0  0  0
  192.5920  173.8710  139.4010 O   0  0  0  0  0  0  0  0  0  0  0  0
  189.0710  174.1990  141.9480 C   0  0  2  0  0  3  0  0  0  0  0  0
  190.8710  174.5420  146.7470 C   0  0  0  0  0  3  0  0  0  0  0  0
  194.0360  175.4660  146.0470 C   0  0  0  0  0  3  0  0  0  0  0  0
  193.1190  174.4750  145.6620 C   0  0  0  0  0  0  0  0  0  0  0  0
  193.5810  173.1620  145.4660 C   0  0  0  0  0  3  0  0  0  0  0  0
  195.3670  171.5860  145.4290 F   0  0  0  0  0  0  0  0  0  0  0  0
  195.8380  173.8520  146.0000 C   0  0  0  0  0  3  0  0  0  0  0  0
  194.9340  172.8540  145.6290 C   0  0  0  0  0  0  0  0  0  0  0  0
  195.3890  175.1580  146.2100 C   0  0  0  0  0  3  0  0  0  0  0  0
  188.1180  173.7700  137.5790 O   0  0  0  0  0  0  0  0  0  0  0  0
  188.1240  172.9840  138.5130 C   0  0  0  0  0  3  0  0  0  0  0  0
  2 22  1  0  0  0  0
  3 20  1  0  0  0  0
  4 37  1  6  0  0  0
  4  1  1  0  0  0  0
  5 10  1  0  0  0  0
  6 11  1  0  0  0  0
  7 10  1  0  0  0  0
  7  3  2  0  0  0  0
  8 18  1  0  0  0  0
  9  6  2  0  0  0  0
  9  3  1  0  0  0  0
 10 23  2  0  0  0  0
 11 16  2  0  0  0  0
 12  4  1  0  0  0  0
 12  8  1  0  0  0  0
 13  9  1  0  0  0  0
 14  2  1  0  0  0  0
 17  2  1  0  0  0  0
 17 13  1  0  0  0  0
 18 19  1  6  0  0  0
 18 25  1  0  0  0  0
 19  5  1  0  0  0  0
 20 16  1  1  0  0  0
 20 15  1  0  0  0  0
 21 13  1  0  0  0  0
 21  7  1  1  0  0  0
 22  6  1  0  0  0  0
 23 30  1  0  0  0  0
 23 28  1  0  0  0  0
 24  2  1  0  0  0  0
 26  8  2  0  0  0  0
 27  1  1  6  0  0  0
 27 25  1  0  0  0  0
 27 21  1  0  0  0  0
 28 15  2  0  0  0  0
 29 35  1  0  0  0  0
 30 29  2  0  0  0  0
 31 34  2  0  0  0  0
 31 30  1  0  0  0  0
 32 34  1  0  0  0  0
 33 35  2  0  0  0  0
 34 33  1  0  0  0  0
 36 37  2  0  0  0  0
M  END
>  <MODEL>
1

>  <REMARK>
 VINA RESULT:      -9.2      0.000      0.000
  Name = 
  2 active torsions:
  status: ('A' for Active; 'I' for Inactive)
    1  A    between atoms: C_4  and  C_37
    2  A    between atoms: C_23  and  C_30
                            x       y       z     vdW  Elec       q    Type
                         _______ _______ _______ _____ _____    ______ ____

>  <TORSDO>
F 2

$$$$
=
 OpenBabel11112417093D

 37 43  0  0  1  0  0  0  0  0999 V2000
  190.8830  176.4200  145.8620 C   0  0  0  0  0  2  0  0  0  0  0  0
  186.5890  178.1700  147.0560 C   0  0  0  0  0  0  0  0  0  0  0  0
  187.1200  177.1280  143.0610 C   0  0  0  0  0  0  0  0  0  0  0  0
  192.3780  176.1990  145.7340 C   0  0  2  0  0  3  0  0  0  0  0  0
  188.9220  173.9380  142.5430 O   0  0  0  0  0  0  0  0  0  0  0  0
  186.0160  178.6030  144.6300 C   0  0  0  0  0  0  0  0  0  0  0  0
  188.0910  176.2250  143.1440 C   0  0  0  0  0  0  0  0  0  0  0  0
  192.0770  174.0060  144.5780 C   0  0  0  0  0  0  0  0  0  0  0  0
  187.0500  177.8490  144.2880 C   0  0  1  0  0  3  0  0  0  0  0  0
  188.3400  175.1510  142.1310 C   0  0  0  0  0  0  0  0  0  0  0  0
  184.9870  178.8920  143.6050 C   0  0  0  0  0  3  0  0  0  0  0  0
  192.6430  174.8120  145.5750 O   0  0  0  0  0  0  0  0  0  0  0  0
  188.0320  177.4010  145.1890 N   0  0  1  0  0  0  0  0  0  0  0  0
  185.7060  176.9470  147.2440 C   0  0  0  0  0  1  0  0  0  0  0  0
  186.5620  177.3480  140.7120 C   0  0  0  0  0  3  0  0  0  0  0  0
  185.0000  178.2590  142.4130 C   0  0  0  0  0  3  0  0  0  0  0  0
  188.0000  177.7240  146.6150 C   0  0  0  0  0  2  0  0  0  0  0  0
  191.0140  174.4860  143.6220 C   0  0  1  0  0  3  0  0  0  0  0  0
  189.6740  173.7570  143.7380 C   0  0  0  0  0  2  0  0  0  0  0  0
  186.0040  177.1660  142.0730 C   0  0  0  0  0  0  0  0  0  0  0  0
  188.7270  176.2930  144.5330 C   0  0  2  0  0  3  0  0  0  0  0  0
  185.9410  179.1360  146.0350 C   0  0  0  0  0  2  0  0  0  0  0  0
  188.0420  175.2880  140.8040 C   0  0  0  0  0  0  0  0  0  0  0  0
  186.7040  178.8810  148.3880 C   0  0  0  0  0  1  0  0  0  0  0  0
  190.9330  175.8910  143.4350 O   0  0  0  0  0  0  0  0  0  0  0  0
  192.4630  172.8120  144.4850 O   0  0  0  0  0  0  0  0  0  0  0  0
  190.2400  176.5600  144.4830 C   0  0  2  0  0  3  0  0  0  0  0  0
  187.4410  176.5000  140.1750 C   0  0  0  0  0  3  0  0  0  0  0  0
  188.1910  174.4160  138.4670 C   0  0  0  0  0  3  0  0  0  0  0  0
  188.4330  174.2330  139.8380 C   0  0  0  0  0  0  0  0  0  0  0  0
  189.0940  173.0660  140.2610 C   0  0  0  0  0  3  0  0  0  0  0  0
  190.1120  170.9720  139.7570 F   0  0  0  0  0  0  0  0  0  0  0  0
  189.2250  172.2830  137.9750 C   0  0  0  0  0  3  0  0  0  0  0  0
  189.4830  172.0940  139.3350 C   0  0  0  0  0  0  0  0  0  0  0  0
  188.5810  173.4440  137.5410 C   0  0  0  0  0  3  0  0  0  0  0  0
  194.1930  177.1660  146.8890 O   0  0  0  0  0  0  0  0  0  0  0  0
  193.0710  176.6900  146.9620 C   0  0  0  0  0  3  0  0  0  0  0  0
  2 14  1  0  0  0  0
  2 24  1  0  0  0  0
  3  7  2  0  0  0  0
  4  1  1  0  0  0  0
  4 37  1  1  0  0  0
  5 19  1  0  0  0  0
  6 22  1  0  0  0  0
  8 12  1  0  0  0  0
  9  3  1  1  0  0  0
  9  6  1  0  0  0  0
  9 13  1  0  0  0  0
 10  5  1  0  0  0  0
 10  7  1  0  0  0  0
 11  6  2  0  0  0  0
 12  4  1  0  0  0  0
 13 17  1  1  0  0  0
 15 20  1  0  0  0  0
 16 11  1  0  0  0  0
 17  2  1  0  0  0  0
 18 19  1  1  0  0  0
 18  8  1  0  0  0  0
 20 16  2  0  0  0  0
 20  3  1  0  0  0  0
 21  7  1  6  0  0  0
 21 13  1  0  0  0  0
 22  2  1  0  0  0  0
 23 10  2  0  0  0  0
 25 18  1  0  0  0  0
 25 27  1  0  0  0  0
 26  8  2  0  0  0  0
 27 21  1  0  0  0  0
 27  1  1  1  0  0  0
 28 15  2  0  0  0  0
 28 23  1  0  0  0  0
 29 30  1  0  0  0  0
 30 31  2  0  0  0  0
 30 23  1  0  0  0  0
 33 34  2  0  0  0  0
 34 32  1  0  0  0  0
 34 31  1  0  0  0  0
 35 33  1  0  0  0  0
 35 29  2  0  0  0  0
 36 37  2  0  0  0  0
M  END
>  <MODEL>
2

>  <REMARK>
 VINA RESULT:      -9.0      2.484      6.245
  Name = 
  2 active torsions:
  status: ('A' for Active; 'I' for Inactive)
    1  A    between atoms: C_4  and  C_37
    2  A    between atoms: C_23  and  C_30
                            x       y       z     vdW  Elec       q    Type
                         _______ _______ _______ _____ _____    ______ ____

>  <TORSDO>
F 2

$$$$
=
 OpenBabel11112417093D

 37 43  0  0  1  0  0  0  0  0999 V2000
  190.8840  176.4240  145.8550 C   0  0  0  0  0  2  0  0  0  0  0  0
  186.5800  178.1480  147.0550 C   0  0  0  0  0  0  0  0  0  0  0  0
  187.1160  177.1210  143.0570 C   0  0  0  0  0  0  0  0  0  0  0  0
  192.3800  176.2120  145.7270 C   0  0  2  0  0  3  0  0  0  0  0  0
  188.9360  173.9420  142.5290 O   0  0  0  0  0  0  0  0  0  0  0  0
  186.0050  178.5850  144.6300 C   0  0  0  0  0  0  0  0  0  0  0  0
  188.0920  176.2230  143.1370 C   0  0  0  0  0  0  0  0  0  0  0  0
  192.0900  174.0210  144.5640 C   0  0  0  0  0  0  0  0  0  0  0  0
  187.0430  177.8380  144.2860 C   0  0  1  0  0  3  0  0  0  0  0  0
  188.3470  175.1540  142.1200 C   0  0  0  0  0  0  0  0  0  0  0  0
  184.9740  178.8720  143.6050 C   0  0  0  0  0  3  0  0  0  0  0  0
  192.6520  174.8260  145.5640 O   0  0  0  0  0  0  0  0  0  0  0  0
  188.0270  177.3920  145.1850 N   0  0  1  0  0  0  0  0  0  0  0  0
  185.7040  176.9200  147.2380 C   0  0  0  0  0  1  0  0  0  0  0  0
  186.5580  177.3450  140.7070 C   0  0  0  0  0  3  0  0  0  0  0  0
  184.9910  178.2420  142.4120 C   0  0  0  0  0  3  0  0  0  0  0  0
  187.9940  177.7110  146.6120 C   0  0  0  0  0  2  0  0  0  0  0  0
  191.0250  174.4980  143.6090 C   0  0  1  0  0  3  0  0  0  0  0  0
  189.6890  173.7610  143.7230 C   0  0  0  0  0  2  0  0  0  0  0  0
  186.0000  177.1560  142.0690 C   0  0  0  0  0  0  0  0  0  0  0  0
  188.7280  176.2900  144.5260 C   0  0  2  0  0  3  0  0  0  0  0  0
  185.9270  179.1140  146.0360 C   0  0  0  0  0  2  0  0  0  0  0  0
  188.0490  175.2920  140.7940 C   0  0  0  0  0  0  0  0  0  0  0  0
  186.6910  178.8570  148.3880 C   0  0  0  0  0  1  0  0  0  0  0  0
  190.9360  175.9030  143.4270 O   0  0  0  0  0  0  0  0  0  0  0  0
  192.4820  172.8290  144.4670 O   0  0  0  0  0  0  0  0  0  0  0  0
  190.2390  176.5650  144.4760 C   0  0  2  0  0  3  0  0  0  0  0  0
  187.4420  176.5030  140.1690 C   0  0  0  0  0  3  0  0  0  0  0  0
  188.7020  172.9370  140.2740 C   0  0  0  0  0  3  0  0  0  0  0  0
  188.4450  174.2420  139.8240 C   0  0  0  0  0  0  0  0  0  0  0  0
  188.5190  174.5130  138.4470 C   0  0  0  0  0  3  0  0  0  0  0  0
  188.9400  173.7830  136.2190 F   0  0  0  0  0  0  0  0  0  0  0  0
  189.1300  172.2150  138.0030 C   0  0  0  0  0  3  0  0  0  0  0  0
  188.8650  173.5060  137.5430 C   0  0  0  0  0  0  0  0  0  0  0  0
  189.0480  171.9290  139.3680 C   0  0  0  0  0  3  0  0  0  0  0  0
  194.1970  177.1660  146.8880 O   0  0  0  0  0  0  0  0  0  0  0  0
  193.0700  176.7030  146.9560 C   0  0  0  0  0  3  0  0  0  0  0  0
  2 14  1  0  0  0  0
  2 24  1  0  0  0  0
  3  7  2  0  0  0  0
  4  1  1  0  0  0  0
  4 37  1  1  0  0  0
  5 19  1  0  0  0  0
  6 22  1  0  0  0  0
  8 12  1  0  0  0  0
  9  3  1  1  0  0  0
  9  6  1  0  0  0  0
  9 13  1  0  0  0  0
 10  5  1  0  0  0  0
 10  7  1  0  0  0  0
 11  6  2  0  0  0  0
 12  4  1  0  0  0  0
 13 17  1  1  0  0  0
 15 20  1  0  0  0  0
 16 11  1  0  0  0  0
 17  2  1  0  0  0  0
 18 19  1  1  0  0  0
 18  8  1  0  0  0  0
 20 16  2  0  0  0  0
 20  3  1  0  0  0  0
 21  7  1  6  0  0  0
 21 13  1  0  0  0  0
 22  2  1  0  0  0  0
 23 10  2  0  0  0  0
 25 18  1  0  0  0  0
 25 27  1  0  0  0  0
 26  8  2  0  0  0  0
 27 21  1  0  0  0  0
 27  1  1  1  0  0  0
 28 15  2  0  0  0  0
 28 23  1  0  0  0  0
 30 29  1  0  0  0  0
 30 23  1  0  0  0  0
 31 30  2  0  0  0  0
 32 34  1  0  0  0  0
 33 35  1  0  0  0  0
 34 33  2  0  0  0  0
 34 31  1  0  0  0  0
 35 29  2  0  0  0  0
 36 37  2  0  0  0  0
M  END
>  <MODEL>
3

>  <REMARK>
 VINA RESULT:      -8.8      2.854      6.419
  Name = 
  2 active torsions:
  status: ('A' for Active; 'I' for Inactive)
    1  A    between atoms: C_4  and  C_37
    2  A    between atoms: C_23  and  C_30
                            x       y       z     vdW  Elec       q    Type
                         _______ _______ _______ _____ _____    ______ ____

>  <TORSDO>
F 2

$$$$
=
 OpenBabel11112417093D

 37 43  0  0  1  0  0  0  0  0999 V2000
  189.5870  173.5470  140.4940 C   0  0  0  0  0  2  0  0  0  0  0  0
  187.5900  177.5770  142.1380 C   0  0  0  0  0  0  0  0  0  0  0  0
  190.3480  175.7190  144.6430 C   0  0  0  0  0  0  0  0  0  0  0  0
  189.8050  172.1880  139.8570 C   0  0  2  0  0  3  0  0  0  0  0  0
  193.3700  174.4610  142.9170 O   0  0  0  0  0  0  0  0  0  0  0  0
  188.3430  177.0660  144.5000 C   0  0  0  0  0  0  0  0  0  0  0  0
  191.0860  175.0370  143.7730 C   0  0  0  0  0  0  0  0  0  0  0  0
  192.2900  172.4000  139.9700 C   0  0  0  0  0  0  0  0  0  0  0  0
  189.1430  176.1330  144.0050 C   0  0  0  0  0  0  0  0  0  0  0  0
  192.5000  174.6080  144.0130 C   0  0  0  0  0  0  0  0  0  0  0  0
  188.5870  177.5410  145.8810 C   0  0  0  0  0  3  0  0  0  0  0  0
  191.1010  172.1360  139.2780 O   0  0  0  0  0  0  0  0  0  0  0  0
  189.1000  175.6810  142.6740 N   0  0  0  0  0  0  0  0  0  0  0  0
  188.6090  178.6660  141.8470 C   0  0  0  0  0  1  0  0  0  0  0  0
  191.2540  175.2620  146.8450 C   0  0  0  0  0  3  0  0  0  0  0  0
  189.6980  177.1750  146.5530 C   0  0  0  0  0  3  0  0  0  0  0  0
  188.1540  176.2110  141.6920 C   0  0  0  0  0  2  0  0  0  0  0  0
  192.3340  172.8980  141.3930 C   0  0  1  0  0  3  0  0  0  0  0  0
  192.9600  174.2830  141.5660 C   0  0  0  0  0  2  0  0  0  0  0  0
  190.7990  176.3320  145.9240 C   0  0  2  0  0  3  0  0  0  0  0  0
  190.3680  174.9950  142.4240 C   0  0  2  0  0  3  0  0  0  0  0  0
  187.2220  177.5880  143.6420 C   0  0  0  0  0  2  0  0  0  0  0  0
  193.0000  174.3320  145.2540 C   0  0  0  0  0  0  0  0  0  0  0  0
  186.3410  177.8680  141.3340 C   0  0  0  0  0  1  0  0  0  0  0  0
  191.1770  172.6470  142.1770 O   0  0  0  0  0  0  0  0  0  0  0  0
  193.3820  172.2290  139.3680 O   0  0  0  0  0  0  0  0  0  0  0  0
  190.1160  173.5630  141.9270 C   0  0  2  0  0  3  0  0  0  0  0  0
  192.2320  174.4110  146.5310 C   0  0  0  0  0  3  0  0  0  0  0  0
  195.4500  174.6640  145.6200 C   0  0  0  0  0  3  0  0  0  0  0  0
  194.3730  173.7900  145.4040 C   0  0  0  0  0  0  0  0  0  0  0  0
  194.6140  172.4050  145.3880 C   0  0  0  0  0  3  0  0  0  0  0  0
  196.1280  170.5710  145.5350 F   0  0  0  0  0  0  0  0  0  0  0  0
  196.9740  172.7880  145.7620 C   0  0  0  0  0  3  0  0  0  0  0  0
  195.9080  171.9070  145.5600 C   0  0  0  0  0  0  0  0  0  0  0  0
  196.7450  174.1660  145.7930 C   0  0  0  0  0  3  0  0  0  0  0  0
  188.2780  172.9000  138.2070 O   0  0  0  0  0  0  0  0  0  0  0  0
  188.7850  171.9560  138.7930 C   0  0  0  0  0  3  0  0  0  0  0  0
  2 22  1  0  0  0  0
  3 20  1  0  0  0  0
  4 37  1  6  0  0  0
  4  1  1  0  0  0  0
  5 10  1  0  0  0  0
  6 11  1  0  0  0  0
  7 10  1  0  0  0  0
  7  3  2  0  0  0  0
  8 18  1  0  0  0  0
  9  6  2  0  0  0  0
  9  3  1  0  0  0  0
 10 23  2  0  0  0  0
 11 16  2  0  0  0  0
 12  4  1  0  0  0  0
 12  8  1  0  0  0  0
 13  9  1  0  0  0  0
 14  2  1  0  0  0  0
 17  2  1  0  0  0  0
 17 13  1  0  0  0  0
 18 19  1  6  0  0  0
 18 25  1  0  0  0  0
 19  5  1  0  0  0  0
 20 16  1  1  0  0  0
 20 15  1  0  0  0  0
 21 13  1  0  0  0  0
 21  7  1  1  0  0  0
 22  6  1  0  0  0  0
 23 30  1  0  0  0  0
 23 28  1  0  0  0  0
 24  2  1  0  0  0  0
 26  8  2  0  0  0  0
 27  1  1  6  0  0  0
 27 25  1  0  0  0  0
 27 21  1  0  0  0  0
 28 15  2  0  0  0  0
 29 35  1  0  0  0  0
 30 29  2  0  0  0  0
 31 30  1  0  0  0  0
 31 34  2  0  0  0  0
 32 34  1  0  0  0  0
 33 35  2  0  0  0  0
 34 33  1  0  0  0  0
 36 37  2  0  0  0  0
M  END
>  <MODEL>
4

>  <REMARK>
 VINA RESULT:      -8.5      1.342      1.552
  Name = 
  2 active torsions:
  status: ('A' for Active; 'I' for Inactive)
    1  A    between atoms: C_4  and  C_37
    2  A    between atoms: C_23  and  C_30
                            x       y       z     vdW  Elec       q    Type
                         _______ _______ _______ _____ _____    ______ ____

>  <TORSDO>
F 2

$$$$
=
 OpenBabel11112417093D

 37 43  0  0  1  0  0  0  0  0999 V2000
  194.7900  174.2010  144.0400 C   0  0  0  0  0  2  0  0  0  0  0  0
  194.3320  173.6690  139.3030 C   0  0  0  0  0  0  0  0  0  0  0  0
  190.8080  174.1660  141.4610 C   0  0  0  0  0  0  0  0  0  0  0  0
  195.2180  174.0380  145.4850 C   0  0  2  0  0  3  0  0  0  0  0  0
  190.9860  176.7580  144.0970 O   0  0  0  0  0  0  0  0  0  0  0  0
  191.8640  173.1600  139.5310 C   0  0  0  0  0  0  0  0  0  0  0  0
  191.2400  174.8090  142.5400 C   0  0  0  0  0  0  0  0  0  0  0  0
  194.0330  176.1180  146.1960 C   0  0  0  0  0  0  0  0  0  0  0  0
  191.9240  173.6030  140.7780 C   0  0  1  0  0  3  0  0  0  0  0  0
  190.3890  175.6890  143.4020 C   0  0  0  0  0  0  0  0  0  0  0  0
  190.5340  173.0340  138.8930 C   0  0  0  0  0  3  0  0  0  0  0  0
  195.1670  175.2980  146.1420 O   0  0  0  0  0  0  0  0  0  0  0  0
  193.1220  173.8830  141.4590 N   0  0  1  0  0  0  0  0  0  0  0  0
  194.1850  175.0820  138.7630 C   0  0  0  0  0  1  0  0  0  0  0  0
  188.4170  173.8660  141.7320 C   0  0  0  0  0  3  0  0  0  0  0  0
  189.4300  173.5290  139.4910 C   0  0  0  0  0  3  0  0  0  0  0  0
  194.4370  173.7140  140.8430 C   0  0  0  0  0  2  0  0  0  0  0  0
  192.7540  175.8220  145.4530 C   0  0  1  0  0  3  0  0  0  0  0  0
  192.3730  176.8630  144.3980 C   0  0  0  0  0  2  0  0  0  0  0  0
  189.4810  174.3070  140.7970 C   0  0  0  0  0  0  0  0  0  0  0  0
  192.7660  174.7210  142.6040 C   0  0  2  0  0  3  0  0  0  0  0  0
  193.1450  172.7970  138.8290 C   0  0  0  0  0  2  0  0  0  0  0  0
  189.0450  175.5040  143.5670 C   0  0  0  0  0  0  0  0  0  0  0  0
  195.6130  173.0810  138.7500 C   0  0  0  0  0  1  0  0  0  0  0  0
  192.5500  174.4680  145.0780 O   0  0  0  0  0  0  0  0  0  0  0  0
  194.0880  177.1680  146.8870 O   0  0  0  0  0  0  0  0  0  0  0  0
  193.2710  174.0900  143.9110 C   0  0  2  0  0  3  0  0  0  0  0  0
  188.2390  174.4200  142.9330 C   0  0  0  0  0  3  0  0  0  0  0  0
  188.2820  175.9920  145.8960 C   0  0  0  0  0  3  0  0  0  0  0  0
  188.2890  176.3350  144.5350 C   0  0  0  0  0  0  0  0  0  0  0  0
  187.6160  177.4990  144.1250 C   0  0  0  0  0  3  0  0  0  0  0  0
  186.2830  179.4040  144.6440 F   0  0  0  0  0  0  0  0  0  0  0  0
  186.9230  177.9300  146.4030 C   0  0  0  0  0  3  0  0  0  0  0  0
  186.9330  178.2890  145.0530 C   0  0  0  0  0  0  0  0  0  0  0  0
  187.5990  176.7820  146.8250 C   0  0  0  0  0  3  0  0  0  0  0  0
  197.1910  173.4170  146.6170 O   0  0  0  0  0  0  0  0  0  0  0  0
  196.6140  173.5120  145.5460 C   0  0  0  0  0  3  0  0  0  0  0  0
  1  4  1  0  0  0  0
  2 17  1  0  0  0  0
  3  7  2  0  0  0  0
  4 37  1  6  0  0  0
  4 12  1  0  0  0  0
  5 19  1  0  0  0  0
  7 10  1  0  0  0  0
  8 26  2  0  0  0  0
  9  6  1  6  0  0  0
  9 13  1  0  0  0  0
  9  3  1  0  0  0  0
 10 23  2  0  0  0  0
 10  5  1  0  0  0  0
 11 16  1  0  0  0  0
 11  6  2  0  0  0  0
 12  8  1  0  0  0  0
 13 17  1  6  0  0  0
 13 21  1  0  0  0  0
 14  2  1  0  0  0  0
 15 28  2  0  0  0  0
 16 20  2  0  0  0  0
 18 19  1  6  0  0  0
 18  8  1  0  0  0  0
 20  3  1  0  0  0  0
 20 15  1  0  0  0  0
 21  7  1  1  0  0  0
 21 27  1  0  0  0  0
 22  2  1  0  0  0  0
 22  6  1  0  0  0  0
 23 30  1  0  0  0  0
 24  2  1  0  0  0  0
 25 18  1  0  0  0  0
 27  1  1  1  0  0  0
 27 25  1  0  0  0  0
 28 23  1  0  0  0  0
 29 35  1  0  0  0  0
 30 29  2  0  0  0  0
 31 30  1  0  0  0  0
 31 34  2  0  0  0  0
 32 34  1  0  0  0  0
 33 35  2  0  0  0  0
 34 33  1  0  0  0  0
 37 36  2  0  0  0  0
M  END
>  <MODEL>
5

>  <REMARK>
 VINA RESULT:      -8.4      3.287      7.620
  Name = 
  2 active torsions:
  status: ('A' for Active; 'I' for Inactive)
    1  A    between atoms: C_4  and  C_37
    2  A    between atoms: C_23  and  C_30
                            x       y       z     vdW  Elec       q    Type
                         _______ _______ _______ _____ _____    ______ ____

>  <TORSDO>
F 2

$$$$
=
 OpenBabel11112417093D

 37 43  0  0  1  0  0  0  0  0999 V2000
  191.8930  173.0580  140.6720 C   0  0  0  0  0  2  0  0  0  0  0  0
  194.8460  172.4650  144.3950 C   0  0  0  0  0  0  0  0  0  0  0  0
  192.0020  175.4830  144.7480 C   0  0  0  0  0  0  0  0  0  0  0  0
  191.3330  173.2010  139.2700 C   0  0  2  0  0  3  0  0  0  0  0  0
  188.6330  174.5560  143.5270 O   0  0  0  0  0  0  0  0  0  0  0  0
  194.2250  174.7310  145.3340 C   0  0  0  0  0  0  0  0  0  0  0  0
  191.0580  175.0640  143.9120 C   0  0  0  0  0  0  0  0  0  0  0  0
  188.9710  173.1150  140.0750 C   0  0  0  0  0  0  0  0  0  0  0  0
  193.2020  174.7590  144.4930 C   0  0  0  0  0  0  0  0  0  0  0  0
  189.6130  175.4480  144.0010 C   0  0  0  0  0  0  0  0  0  0  0  0
  194.2180  175.6660  146.4830 C   0  0  0  0  0  3  0  0  0  0  0  0
  190.0060  172.6920  139.2320 O   0  0  0  0  0  0  0  0  0  0  0  0
  193.0240  173.8510  143.4350 N   0  0  0  0  0  0  0  0  0  0  0  0
  194.0600  171.6260  145.3880 C   0  0  0  0  0  1  0  0  0  0  0  0
  191.2280  177.5800  145.6880 C   0  0  0  0  0  3  0  0  0  0  0  0
  193.1210  176.3960  146.7730 C   0  0  0  0  0  3  0  0  0  0  0  0
  193.9650  172.7650  143.1620 C   0  0  0  0  0  2  0  0  0  0  0  0
  189.1670  174.0800  141.2180 C   0  0  1  0  0  3  0  0  0  0  0  0
  188.8690  173.5000  142.6020 C   0  0  0  0  0  2  0  0  0  0  0  0
  191.8130  176.2550  146.0090 C   0  0  2  0  0  3  0  0  0  0  0  0
  191.6210  173.9490  143.0300 C   0  0  2  0  0  3  0  0  0  0  0  0
  195.3460  173.7600  145.0780 C   0  0  0  0  0  2  0  0  0  0  0  0
  189.1840  176.6390  144.5140 C   0  0  0  0  0  0  0  0  0  0  0  0
  196.0480  171.6630  143.9420 C   0  0  0  0  0  1  0  0  0  0  0  0
  190.3120  174.9160  141.1380 O   0  0  0  0  0  0  0  0  0  0  0  0
  187.8170  172.6540  139.8810 O   0  0  0  0  0  0  0  0  0  0  0  0
  191.5150  174.2640  141.5300 C   0  0  2  0  0  3  0  0  0  0  0  0
  190.0670  177.7180  145.0460 C   0  0  0  0  0  3  0  0  0  0  0  0
  187.2150  177.5580  143.2790 C   0  0  0  0  0  3  0  0  0  0  0  0
  187.7470  177.0050  144.4540 C   0  0  0  0  0  0  0  0  0  0  0  0
  186.8880  176.7590  145.5390 C   0  0  0  0  0  3  0  0  0  0  0  0
  184.7150  176.8460  146.5130 F   0  0  0  0  0  0  0  0  0  0  0  0
  185.0160  177.6430  144.2870 C   0  0  0  0  0  3  0  0  0  0  0  0
  185.5310  177.0810  145.4580 C   0  0  0  0  0  0  0  0  0  0  0  0
  185.8570  177.8800  143.1970 C   0  0  0  0  0  3  0  0  0  0  0  0
  191.8540  171.3110  137.9600 O   0  0  0  0  0  0  0  0  0  0  0  0
  192.1760  172.4370  138.3050 C   0  0  0  0  0  3  0  0  0  0  0  0
  2 22  1  0  0  0  0
  2 14  1  0  0  0  0
  3 20  1  0  0  0  0
  4 37  1  6  0  0  0
  4  1  1  0  0  0  0
  5 10  1  0  0  0  0
  6 11  1  0  0  0  0
  7 10  1  0  0  0  0
  7  3  2  0  0  0  0
  8 18  1  0  0  0  0
  9  3  1  0  0  0  0
  9  6  2  0  0  0  0
 10 23  2  0  0  0  0
 11 16  2  0  0  0  0
 12  4  1  0  0  0  0
 12  8  1  0  0  0  0
 13  9  1  0  0  0  0
 17 13  1  0  0  0  0
 17  2  1  0  0  0  0
 18 19  1  1  0  0  0
 19  5  1  0  0  0  0
 20 15  1  6  0  0  0
 20 16  1  0  0  0  0
 21 13  1  0  0  0  0
 21  7  1  1  0  0  0
 22  6  1  0  0  0  0
 23 28  1  0  0  0  0
 24  2  1  0  0  0  0
 25 18  1  0  0  0  0
 25 27  1  0  0  0  0
 26  8  2  0  0  0  0
 27  1  1  6  0  0  0
 27 21  1  0  0  0  0
 28 15  2  0  0  0  0
 29 30  1  0  0  0  0
 30 23  1  0  0  0  0
 30 31  2  0  0  0  0
 33 34  2  0  0  0  0
 34 31  1  0  0  0  0
 34 32  1  0  0  0  0
 35 29  2  0  0  0  0
 35 33  1  0  0  0  0
 36 37  2  0  0  0  0
M  END
>  <MODEL>
6

>  <REMARK>
 VINA RESULT:      -8.4      2.617      6.625
  Name = 
  2 active torsions:
  status: ('A' for Active; 'I' for Inactive)
    1  A    between atoms: C_4  and  C_37
    2  A    between atoms: C_23  and  C_30
                            x       y       z     vdW  Elec       q    Type
                         _______ _______ _______ _____ _____    ______ ____

>  <TORSDO>
F 2

$$$$
=
 OpenBabel11112417093D

 37 43  0  0  1  0  0  0  0  0999 V2000
  191.9860  172.7030  140.4430 C   0  0  0  0  0  2  0  0  0  0  0  0
  195.6290  171.5230  143.3190 C   0  0  0  0  0  0  0  0  0  0  0  0
  193.2210  174.6770  144.5770 C   0  0  0  0  0  0  0  0  0  0  0  0
  191.1430  173.0300  139.2250 C   0  0  2  0  0  3  0  0  0  0  0  0
  189.5950  174.1160  144.0900 O   0  0  0  0  0  0  0  0  0  0  0  0
  195.4420  173.7160  144.5670 C   0  0  0  0  0  0  0  0  0  0  0  0
  192.0810  174.4140  143.9480 C   0  0  0  0  0  0  0  0  0  0  0  0
  189.0220  173.0240  140.5440 C   0  0  0  0  0  0  0  0  0  0  0  0
  194.2640  173.9030  143.9900 C   0  0  0  0  0  0  0  0  0  0  0  0
  190.7330  174.8840  144.4010 C   0  0  0  0  0  0  0  0  0  0  0  0
  195.7750  174.5250  145.7620 C   0  0  0  0  0  3  0  0  0  0  0  0
  189.8010  172.6200  139.4510 O   0  0  0  0  0  0  0  0  0  0  0  0
  193.7730  173.1240  142.9280 N   0  0  0  0  0  0  0  0  0  0  0  0
  195.0120  170.6420  144.3910 C   0  0  0  0  0  1  0  0  0  0  0  0
  192.8700  176.7130  145.8460 C   0  0  0  0  0  3  0  0  0  0  0  0
  194.8420  175.2950  146.3600 C   0  0  0  0  0  3  0  0  0  0  0  0
  194.5260  172.0100  142.3530 C   0  0  0  0  0  2  0  0  0  0  0  0
  189.5550  173.8480  141.6890 C   0  0  1  0  0  3  0  0  0  0  0  0
  189.5220  173.1480  143.0490 C   0  0  0  0  0  2  0  0  0  0  0  0
  193.3890  175.3250  145.9080 C   0  0  2  0  0  3  0  0  0  0  0  0
  192.3300  173.3600  142.8680 C   0  0  2  0  0  3  0  0  0  0  0  0
  196.3840  172.7030  143.9760 C   0  0  0  0  0  2  0  0  0  0  0  0
  190.5390  176.0430  145.0990 C   0  0  0  0  0  0  0  0  0  0  0  0
  196.6220  170.6920  142.5340 C   0  0  0  0  0  1  0  0  0  0  0  0
  190.7240  174.6070  141.4190 O   0  0  0  0  0  0  0  0  0  0  0  0
  187.8170  172.6650  140.5820 O   0  0  0  0  0  0  0  0  0  0  0  0
  191.9200  173.8370  141.4650 C   0  0  2  0  0  3  0  0  0  0  0  0
  191.6120  176.9960  145.5040 C   0  0  0  0  0  3  0  0  0  0  0  0
  188.5170  176.0660  146.5680 C   0  0  0  0  0  3  0  0  0  0  0  0
  189.1640  176.5100  145.4040 C   0  0  0  0  0  0  0  0  0  0  0  0
  188.5100  177.4370  144.5740 C   0  0  0  0  0  3  0  0  0  0  0  0
  186.6040  178.7790  144.0790 F   0  0  0  0  0  0  0  0  0  0  0  0
  186.5890  177.4320  146.0450 C   0  0  0  0  0  3  0  0  0  0  0  0
  187.2270  177.8910  144.8910 C   0  0  0  0  0  0  0  0  0  0  0  0
  187.2340  176.5210  146.8850 C   0  0  0  0  0  3  0  0  0  0  0  0
  191.3580  171.1580  137.8090 O   0  0  0  0  0  0  0  0  0  0  0  0
  191.6770  172.3150  138.0300 C   0  0  0  0  0  3  0  0  0  0  0  0
  2 22  1  0  0  0  0
  2 14  1  0  0  0  0
  3 20  1  0  0  0  0
  4 37  1  6  0  0  0
  4 12  1  0  0  0  0
  4  1  1  0  0  0  0
  5 10  1  0  0  0  0
  6 11  1  0  0  0  0
  7 10  1  0  0  0  0
  7  3  2  0  0  0  0
  8 26  2  0  0  0  0
  8 18  1  0  0  0  0
  9  6  2  0  0  0  0
  9  3  1  0  0  0  0
 10 23  2  0  0  0  0
 11 16  2  0  0  0  0
 12  8  1  0  0  0  0
 13  9  1  0  0  0  0
 17 13  1  0  0  0  0
 17  2  1  0  0  0  0
 18 19  1  1  0  0  0
 19  5  1  0  0  0  0
 20 15  1  6  0  0  0
 20 16  1  0  0  0  0
 21 13  1  0  0  0  0
 21  7  1  1  0  0  0
 22  6  1  0  0  0  0
 23 30  1  0  0  0  0
 23 28  1  0  0  0  0
 24  2  1  0  0  0  0
 25 27  1  0  0  0  0
 25 18  1  0  0  0  0
 27  1  1  6  0  0  0
 27 21  1  0  0  0  0
 28 15  2  0  0  0  0
 29 35  1  0  0  0  0
 30 29  2  0  0  0  0
 31 34  2  0  0  0  0
 31 30  1  0  0  0  0
 32 34  1  0  0  0  0
 33 35  2  0  0  0  0
 34 33  1  0  0  0  0
 36 37  2  0  0  0  0
M  END
>  <MODEL>
7

>  <REMARK>
 VINA RESULT:      -8.2      2.794      6.765
  Name = 
  2 active torsions:
  status: ('A' for Active; 'I' for Inactive)
    1  A    between atoms: C_4  and  C_37
    2  A    between atoms: C_23  and  C_30
                            x       y       z     vdW  Elec       q    Type
                         _______ _______ _______ _____ _____    ______ ____

>  <TORSDO>
F 2

$$$$
=
 OpenBabel11112417093D

 37 43  0  0  1  0  0  0  0  0999 V2000
  193.9690  175.8620  143.8010 C   0  0  0  0  0  2  0  0  0  0  0  0
  190.5740  176.5060  147.1170 C   0  0  0  0  0  0  0  0  0  0  0  0
  189.2600  175.7330  143.2440 C   0  0  0  0  0  0  0  0  0  0  0  0
  195.2180  176.0070  142.9530 C   0  0  2  0  0  3  0  0  0  0  0  0
  191.1520  173.0790  141.4910 O   0  0  0  0  0  0  0  0  0  0  0  0
  188.8100  176.8580  145.3380 C   0  0  0  0  0  0  0  0  0  0  0  0
  190.2990  175.0850  142.7300 C   0  0  0  0  0  0  0  0  0  0  0  0
  194.8180  173.8390  141.7800 C   0  0  0  0  0  0  0  0  0  0  0  0
  189.6650  176.3820  144.4450 C   0  0  0  0  0  0  0  0  0  0  0  0
  190.2200  174.1300  141.5790 C   0  0  0  0  0  0  0  0  0  0  0  0
  187.3760  176.9230  144.9730 C   0  0  0  0  0  3  0  0  0  0  0  0
  195.6330  174.7270  142.4940 O   0  0  0  0  0  0  0  0  0  0  0  0
  191.0280  176.1550  144.7020 N   0  0  0  0  0  0  0  0  0  0  0  0
  190.1550  175.1040  147.5250 C   0  0  0  0  0  1  0  0  0  0  0  0
  187.5870  175.8800  141.4940 C   0  0  0  0  0  3  0  0  0  0  0  0
  186.9230  176.3450  143.8410 C   0  0  0  0  0  3  0  0  0  0  0  0
  191.6410  176.4210  146.0030 C   0  0  0  0  0  2  0  0  0  0  0  0
  193.3520  174.0780  141.5180 C   0  0  1  0  0  3  0  0  0  0  0  0
  192.4130  173.0490  142.1500 C   0  0  0  0  0  2  0  0  0  0  0  0
  187.8190  175.5320  142.9170 C   0  0  2  0  0  3  0  0  0  0  0  0
  191.5100  175.2630  143.6460 C   0  0  2  0  0  3  0  0  0  0  0  0
  189.3350  177.3180  146.6710 C   0  0  0  0  0  2  0  0  0  0  0  0
  189.2880  174.2290  140.5850 C   0  0  0  0  0  0  0  0  0  0  0  0
  191.1900  177.1870  148.3210 C   0  0  0  0  0  1  0  0  0  0  0  0
  192.9190  175.4280  141.5930 O   0  0  0  0  0  0  0  0  0  0  0  0
  195.3300  172.7740  141.3490 O   0  0  0  0  0  0  0  0  0  0  0  0
  192.7170  175.8840  142.9260 C   0  0  2  0  0  3  0  0  0  0  0  0
  188.2330  175.2810  140.4920 C   0  0  0  0  0  3  0  0  0  0  0  0
  189.3410  173.8620  138.1140 C   0  0  0  0  0  3  0  0  0  0  0  0
  189.3480  173.3250  139.4100 C   0  0  0  0  0  0  0  0  0  0  0  0
  189.4660  171.9330  139.5690 C   0  0  0  0  0  3  0  0  0  0  0  0
  189.6570  169.7560  138.6190 F   0  0  0  0  0  0  0  0  0  0  0  0
  189.5310  171.6420  137.1670 C   0  0  0  0  0  3  0  0  0  0  0  0
  189.5510  171.0960  138.4530 C   0  0  0  0  0  0  0  0  0  0  0  0
  189.4280  173.0250  136.9970 C   0  0  0  0  0  3  0  0  0  0  0  0
  197.2870  177.1080  143.2140 O   0  0  0  0  0  0  0  0  0  0  0  0
  196.3150  176.6130  143.7630 C   0  0  0  0  0  3  0  0  0  0  0  0
  2 14  1  0  0  0  0
  2 24  1  0  0  0  0
  3  9  1  0  0  0  0
  4 37  1  1  0  0  0
  4  1  1  0  0  0  0
  5 10  1  0  0  0  0
  5 19  1  0  0  0  0
  6 22  1  0  0  0  0
  7  3  2  0  0  0  0
  8 12  1  0  0  0  0
  9 13  1  0  0  0  0
  9  6  2  0  0  0  0
 10  7  1  0  0  0  0
 11  6  1  0  0  0  0
 12  4  1  0  0  0  0
 13 17  1  0  0  0  0
 16 11  2  0  0  0  0
 17  2  1  0  0  0  0
 18 25  1  0  0  0  0
 18  8  1  0  0  0  0
 18 19  1  1  0  0  0
 20 15  1  6  0  0  0
 20  3  1  0  0  0  0
 20 16  1  0  0  0  0
 21  7  1  6  0  0  0
 21 13  1  0  0  0  0
 22  2  1  0  0  0  0
 23 10  2  0  0  0  0
 25 27  1  0  0  0  0
 26  8  2  0  0  0  0
 27 21  1  0  0  0  0
 27  1  1  1  0  0  0
 28 23  1  0  0  0  0
 28 15  2  0  0  0  0
 29 30  1  0  0  0  0
 30 31  2  0  0  0  0
 30 23  1  0  0  0  0
 33 34  2  0  0  0  0
 34 32  1  0  0  0  0
 34 31  1  0  0  0  0
 35 33  1  0  0  0  0
 35 29  2  0  0  0  0
 36 37  2  0  0  0  0
M  END
>  <MODEL>
8

>  <REMARK>
 VINA RESULT:      -8.1      2.603      6.335
  Name = 
  2 active torsions:
  status: ('A' for Active; 'I' for Inactive)
    1  A    between atoms: C_4  and  C_37
    2  A    between atoms: C_23  and  C_30
                            x       y       z     vdW  Elec       q    Type
                         _______ _______ _______ _____ _____    ______ ____

>  <TORSDO>
F 2

$$$$
=
 OpenBabel11112417093D

 37 43  0  0  1  0  0  0  0  0999 V2000
  192.9800  172.2820  140.5600 C   0  0  0  0  0  2  0  0  0  0  0  0
  195.2480  172.2190  144.7770 C   0  0  0  0  0  0  0  0  0  0  0  0
  192.4080  175.2160  144.2440 C   0  0  0  0  0  0  0  0  0  0  0  0
  192.6700  172.2350  139.0760 C   0  0  2  0  0  3  0  0  0  0  0  0
  189.2920  174.0880  142.5970 O   0  0  0  0  0  0  0  0  0  0  0  0
  194.4920  174.5780  145.2950 C   0  0  0  0  0  0  0  0  0  0  0  0
  191.6180  174.6780  143.3210 C   0  0  0  0  0  0  0  0  0  0  0  0
  190.2040  172.2190  139.4700 C   0  0  0  0  0  0  0  0  0  0  0  0
  193.6290  174.4830  144.2940 C   0  0  0  0  0  0  0  0  0  0  0  0
  190.1820  175.0490  143.1120 C   0  0  0  0  0  0  0  0  0  0  0  0
  194.2950  175.6540  146.2930 C   0  0  0  0  0  3  0  0  0  0  0  0
  191.3660  171.7050  138.8790 O   0  0  0  0  0  0  0  0  0  0  0  0
  193.6280  173.4430  143.3490 N   0  0  0  0  0  0  0  0  0  0  0  0
  194.2970  171.5050  145.7230 C   0  0  0  0  0  1  0  0  0  0  0  0
  191.5010  177.4050  144.7570 C   0  0  0  0  0  3  0  0  0  0  0  0
  193.1710  176.3990  146.2950 C   0  0  0  0  0  3  0  0  0  0  0  0
  194.5930  172.3450  143.3840 C   0  0  0  0  0  2  0  0  0  0  0  0
  190.2090  173.3260  140.4950 C   0  0  1  0  0  3  0  0  0  0  0  0
  189.6740  172.9250  141.8710 C   0  0  0  0  0  2  0  0  0  0  0  0
  192.0110  176.1420  145.3430 C   0  0  2  0  0  3  0  0  0  0  0  0
  192.3160  173.4670  142.7010 C   0  0  2  0  0  3  0  0  0  0  0  0
  195.6330  173.6000  145.3620 C   0  0  0  0  0  2  0  0  0  0  0  0
  189.6810  176.2900  143.3840 C   0  0  0  0  0  0  0  0  0  0  0  0
  196.5030  171.3840  144.6450 C   0  0  0  0  0  1  0  0  0  0  0  0
  191.3570  174.1610  140.5040 O   0  0  0  0  0  0  0  0  0  0  0  0
  189.0970  171.7190  139.1440 O   0  0  0  0  0  0  0  0  0  0  0  0
  192.4700  173.5840  141.1770 C   0  0  2  0  0  3  0  0  0  0  0  0
  190.4670  177.4410  143.9140 C   0  0  0  0  0  3  0  0  0  0  0  0
  187.2660  176.4890  143.9960 C   0  0  0  0  0  3  0  0  0  0  0  0
  188.2780  176.6240  143.0330 C   0  0  0  0  0  0  0  0  0  0  0  0
  187.9450  177.1250  141.7630 C   0  0  0  0  0  3  0  0  0  0  0  0
  186.3160  177.9390  140.2260 F   0  0  0  0  0  0  0  0  0  0  0  0
  185.6240  177.3130  142.4190 C   0  0  0  0  0  3  0  0  0  0  0  0
  186.6250  177.4630  141.4560 C   0  0  0  0  0  0  0  0  0  0  0  0
  185.9450  176.8280  143.6900 C   0  0  0  0  0  3  0  0  0  0  0  0
  194.5340  171.8590  137.6830 O   0  0  0  0  0  0  0  0  0  0  0  0
  193.6600  171.3650  138.3770 C   0  0  0  0  0  3  0  0  0  0  0  0
  2 22  1  0  0  0  0
  2 14  1  0  0  0  0
  3  9  1  0  0  0  0
  3 20  1  0  0  0  0
  4 37  1  6  0  0  0
  4  1  1  0  0  0  0
  5 10  1  0  0  0  0
  6 22  1  0  0  0  0
  6 11  1  0  0  0  0
  7  3  2  0  0  0  0
  8 18  1  0  0  0  0
  9  6  2  0  0  0  0
 10  7  1  0  0  0  0
 10 23  2  0  0  0  0
 11 16  2  0  0  0  0
 12  4  1  0  0  0  0
 12  8  1  0  0  0  0
 13 17  1  0  0  0  0
 13  9  1  0  0  0  0
 17  2  1  0  0  0  0
 18 25  1  0  0  0  0
 18 19  1  1  0  0  0
 19  5  1  0  0  0  0
 20 15  1  6  0  0  0
 20 16  1  0  0  0  0
 21  7  1  1  0  0  0
 21 13  1  0  0  0  0
 23 28  1  0  0  0  0
 24  2  1  0  0  0  0
 25 27  1  0  0  0  0
 26  8  2  0  0  0  0
 27  1  1  6  0  0  0
 27 21  1  0  0  0  0
 28 15  2  0  0  0  0
 30 23  1  0  0  0  0
 30 29  2  0  0  0  0
 31 30  1  0  0  0  0
 32 34  1  0  0  0  0
 33 35  2  0  0  0  0
 34 31  2  0  0  0  0
 34 33  1  0  0  0  0
 35 29  1  0  0  0  0
 36 37  2  0  0  0  0
M  END
>  <MODEL>
9

>  <REMARK>
 VINA RESULT:      -7.9      2.864      6.910
  Name = 
  2 active torsions:
  status: ('A' for Active; 'I' for Inactive)
    1  A    between atoms: C_4  and  C_37
    2  A    between atoms: C_23  and  C_30
                            x       y       z     vdW  Elec       q    Type
                         _______ _______ _______ _____ _____    ______ ____

>  <TORSDO>
F 2

$$$$
