=
 OpenBabel11112417583D

 34 40  0  0  1  0  0  0  0  0999 V2000
  193.3380  176.0960  144.8630 C   0  0  0  0  0  0  0  0  0  0  0  0
  191.6670  177.6590  143.8510 C   0  0  0  0  0  2  0  0  0  0  0  0
  193.7300  169.4670  144.7160 C   0  0  2  0  0  3  0  0  0  0  0  0
  194.3190  173.9180  144.4220 C   0  0  0  0  0  0  0  0  0  0  0  0
  192.9210  171.9240  144.3670 C   0  0  0  0  0  0  0  0  0  0  0  0
  192.4620  170.1640  142.6680 C   0  0  0  0  0  1  0  0  0  0  0  0
  193.0240  168.2510  145.2790 C   0  0  0  0  0  1  0  0  0  0  0  0
  195.7960  170.8550  145.1840 C   0  0  0  0  0  2  0  0  0  0  0  0
  190.9650  176.3250  145.7460 C   0  0  2  0  0  3  0  0  0  0  0  0
  187.9880  175.9280  146.6120 C   0  0  0  0  0  2  0  0  0  0  0  0
  191.8110  172.7120  144.6720 C   0  0  0  0  0  3  0  0  0  0  0  0
  195.4030  171.6930  143.9650 C   0  0  0  0  0  2  0  0  0  0  0  0
  190.6810  174.9030  145.1890 C   0  0  1  0  0  3  0  0  0  0  0  0
  190.2110  177.9920  144.1200 C   0  0  0  0  0  2  0  0  0  0  0  0
  194.1900  172.5310  144.2440 C   0  0  0  0  0  0  0  0  0  0  0  0
  194.6240  170.0770  145.7930 C   0  0  0  0  0  2  0  0  0  0  0  0
  188.4120  176.6560  145.3320 C   0  0  2  0  0  3  0  0  0  0  0  0
  193.1810  174.7060  144.7240 C   0  0  0  0  0  0  0  0  0  0  0  0
  192.6840  170.4460  144.1430 C   0  0  1  0  0  3  0  0  0  0  0  0
  191.9240  174.0930  144.8850 C   0  0  0  0  0  0  0  0  0  0  0  0
  195.7020  175.8550  144.4430 C   0  0  0  0  0  3  0  0  0  0  0  0
  189.0090  174.9330  147.1660 C   0  0  0  0  0  2  0  0  0  0  0  0
  195.5380  174.5150  144.2970 N   0  0  0  0  0  0  0  0  0  0  0  0
  189.7010  174.1050  146.0810 C   0  0  0  0  0  2  0  0  0  0  0  0
  189.8170  177.2970  145.4230 C   0  0  1  0  0  3  0  0  0  0  0  0
  194.6050  176.6660  144.7230 C   0  0  0  0  0  3  0  0  0  0  0  0
  192.1720  177.0000  145.1150 C   0  0  1  0  0  3  0  0  0  0  0  0
  187.3610  177.6720  145.0160 C   0  0  0  0  0  3  0  0  0  0  0  0
  186.6010  178.1900  145.9790 C   0  0  0  0  0  3  0  0  0  0  0  0
  184.9320  179.1780  143.3770 O   0  0  0  0  0  0  0  0  0  0  0  0
  184.2110  178.5350  145.5280 C   0  0  0  0  0  2  0  0  0  0  0  0
  185.5490  179.2030  145.6650 C   0  0  2  0  0  3  0  0  0  0  0  0
  183.7860  178.8590  144.1170 C   0  0  0  0  0  2  0  0  0  0  0  0
  185.8040  179.7860  144.2930 C   0  0  0  0  0  2  0  0  0  0  0  0
  1 27  1  0  0  0  0
  2 14  1  0  0  0  0
  2 27  1  0  0  0  0
  3  7  1  1  0  0  0
  3 16  1  0  0  0  0
  4 18  1  0  0  0  0
  5 11  2  0  0  0  0
  6 19  1  0  0  0  0
  8 16  1  0  0  0  0
 10 22  1  0  0  0  0
 11 20  1  0  0  0  0
 12 15  1  0  0  0  0
 12  8  1  0  0  0  0
 13  9  1  0  0  0  0
 13 24  1  0  0  0  0
 14 25  1  0  0  0  0
 15  5  1  0  0  0  0
 15  4  2  0  0  0  0
 17 25  1  0  0  0  0
 17 10  1  0  0  0  0
 18  1  1  0  0  0  0
 18 20  2  0  0  0  0
 19  5  1  0  0  0  0
 19  3  1  0  0  0  0
 20 13  1  0  0  0  0
 21 26  1  0  0  0  0
 23  4  1  0  0  0  0
 23 21  2  0  0  0  0
 24 22  1  0  0  0  0
 25  9  1  0  0  0  0
 26  1  2  0  0  0  0
 27  9  1  0  0  0  0
 28 17  1  0  0  0  0
 28 29  2  0  0  0  0
 30 33  1  0  0  0  0
 30 34  1  0  0  0  0
 31 32  1  0  0  0  0
 32 29  1  0  0  0  0
 33 31  1  0  0  0  0
 34 32  1  0  0  0  0
M  END
>  <MODEL>
1

>  <REMARK>
 VINA RESULT:     -10.0      0.000      0.000
  Name = 
  2 active torsions:
  status: ('A' for Active; 'I' for Inactive)
    1  A    between atoms: C_17  and  C_28
    2  A    between atoms: C_29  and  C_32
                            x       y       z     vdW  Elec       q    Type
                         _______ _______ _______ _____ _____    ______ ____

>  <TORSDO>
F 2

$$$$
=
 OpenBabel11112417583D

 34 40  0  0  1  0  0  0  0  0999 V2000
  193.3230  175.9730  143.0150 C   0  0  0  0  0  0  0  0  0  0  0  0
  190.9050  176.5660  142.7680 C   0  0  0  0  0  2  0  0  0  0  0  0
  196.2360  170.6000  145.6140 C   0  0  2  0  0  3  0  0  0  0  0  0
  194.7340  173.9970  143.0750 C   0  0  0  0  0  0  0  0  0  0  0  0
  194.4470  172.3300  144.8280 C   0  0  0  0  0  0  0  0  0  0  0  0
  193.9570  169.8900  144.8480 C   0  0  0  0  0  1  0  0  0  0  0  0
  196.4720  169.9450  146.9600 C   0  0  0  0  0  1  0  0  0  0  0  0
  197.4860  172.0510  143.9570 C   0  0  0  0  0  2  0  0  0  0  0  0
  191.8610  176.6170  144.9920 C   0  0  2  0  0  3  0  0  0  0  0  0
  190.1830  176.7340  147.6270 C   0  0  0  0  0  2  0  0  0  0  0  0
  193.4320  173.1100  145.3830 C   0  0  0  0  0  3  0  0  0  0  0  0
  196.2340  171.9760  143.0800 C   0  0  0  0  0  2  0  0  0  0  0  0
  191.9410  175.1390  145.4600 C   0  0  1  0  0  3  0  0  0  0  0  0
  189.7920  176.9510  143.7270 C   0  0  0  0  0  2  0  0  0  0  0  0
  195.1080  172.7780  143.6630 C   0  0  0  0  0  0  0  0  0  0  0  0
  197.2130  171.7600  145.4370 C   0  0  0  0  0  2  0  0  0  0  0  0
  189.5690  176.5580  146.2340 C   0  0  2  0  0  3  0  0  0  0  0  0
  193.6960  174.7740  143.6470 C   0  0  0  0  0  0  0  0  0  0  0  0
  194.7530  171.0070  145.4970 C   0  0  1  0  0  3  0  0  0  0  0  0
  193.0660  174.3450  144.8300 C   0  0  0  0  0  0  0  0  0  0  0  0
  195.0150  175.5980  141.3360 C   0  0  0  0  0  3  0  0  0  0  0  0
  191.6440  176.3010  147.7550 C   0  0  0  0  0  2  0  0  0  0  0  0
  195.3600  174.4350  141.9460 N   0  0  0  0  0  0  0  0  0  0  0  0
  191.9640  175.0080  147.0020 C   0  0  0  0  0  2  0  0  0  0  0  0
  190.4280  177.1670  145.1000 C   0  0  1  0  0  3  0  0  0  0  0  0
  193.9890  176.3820  141.8570 C   0  0  0  0  0  3  0  0  0  0  0  0
  192.1920  176.8130  143.5220 C   0  0  1  0  0  3  0  0  0  0  0  0
  188.1950  177.1500  146.2630 C   0  0  0  0  0  3  0  0  0  0  0  0
  187.1630  176.4560  146.7410 C   0  0  0  0  0  3  0  0  0  0  0  0
  185.8300  179.4120  146.8770 O   0  0  0  0  0  0  0  0  0  0  0  0
  185.4380  177.6000  145.4200 C   0  0  0  0  0  2  0  0  0  0  0  0
  185.7900  177.0450  146.7690 C   0  0  2  0  0  3  0  0  0  0  0  0
  185.1830  179.0640  145.6850 C   0  0  0  0  0  2  0  0  0  0  0  0
  185.7800  178.2570  147.6730 C   0  0  0  0  0  2  0  0  0  0  0  0
  1 27  1  0  0  0  0
  1 18  1  0  0  0  0
  2 27  1  0  0  0  0
  2 14  1  0  0  0  0
  3  7  1  1  0  0  0
  4 18  2  0  0  0  0
  4 15  1  0  0  0  0
  5 11  1  0  0  0  0
  5 19  1  0  0  0  0
  6 19  1  0  0  0  0
  8 16  1  0  0  0  0
  9 25  1  0  0  0  0
  9 13  1  0  0  0  0
 10 22  1  0  0  0  0
 12 15  1  0  0  0  0
 12  8  1  0  0  0  0
 13 24  1  0  0  0  0
 14 25  1  0  0  0  0
 15  5  2  0  0  0  0
 16  3  1  0  0  0  0
 17 28  1  0  0  0  0
 17 10  1  0  0  0  0
 18 20  1  0  0  0  0
 19  3  1  0  0  0  0
 20 11  2  0  0  0  0
 20 13  1  0  0  0  0
 21 26  1  0  0  0  0
 21 23  2  0  0  0  0
 23  4  1  0  0  0  0
 24 22  1  0  0  0  0
 25 17  1  0  0  0  0
 26  1  2  0  0  0  0
 27  9  1  0  0  0  0
 28 29  2  0  0  0  0
 29 32  1  0  0  0  0
 30 34  1  0  0  0  0
 31 33  1  0  0  0  0
 31 32  1  0  0  0  0
 32 34  1  0  0  0  0
 33 30  1  0  0  0  0
M  END
>  <MODEL>
2

>  <REMARK>
 VINA RESULT:      -9.2      1.680      2.286
  Name = 
  2 active torsions:
  status: ('A' for Active; 'I' for Inactive)
    1  A    between atoms: C_17  and  C_28
    2  A    between atoms: C_29  and  C_32
                            x       y       z     vdW  Elec       q    Type
                         _______ _______ _______ _____ _____    ______ ____

>  <TORSDO>
F 2

$$$$
=
 OpenBabel11112417583D

 34 40  0  0  1  0  0  0  0  0999 V2000
  192.4620  175.8370  145.3460 C   0  0  0  0  0  0  0  0  0  0  0  0
  190.6210  177.5280  145.2420 C   0  0  0  0  0  2  0  0  0  0  0  0
  196.3930  173.3950  140.5820 C   0  0  2  0  0  3  0  0  0  0  0  0
  194.5420  175.3130  144.2070 C   0  0  0  0  0  0  0  0  0  0  0  0
  194.5410  174.7350  141.8410 C   0  0  0  0  0  0  0  0  0  0  0  0
  195.6540  175.6660  139.8190 C   0  0  0  0  0  1  0  0  0  0  0  0
  196.3230  172.4800  139.3760 C   0  0  0  0  0  1  0  0  0  0  0  0
  197.1180  173.2960  143.0070 C   0  0  0  0  0  2  0  0  0  0  0  0
  190.2080  175.3440  144.2800 C   0  0  2  0  0  3  0  0  0  0  0  0
  187.8230  174.6850  142.3700 C   0  0  0  0  0  2  0  0  0  0  0  0
  193.1520  174.8650  141.8250 C   0  0  0  0  0  3  0  0  0  0  0  0
  196.7340  174.7750  143.0910 C   0  0  0  0  0  2  0  0  0  0  0  0
  190.9240  175.3380  142.9020 C   0  0  1  0  0  3  0  0  0  0  0  0
  189.2170  177.5500  144.6640 C   0  0  0  0  0  2  0  0  0  0  0  0
  195.2450  174.9580  143.0440 C   0  0  0  0  0  0  0  0  0  0  0  0
  196.4330  172.5520  141.8550 C   0  0  0  0  0  2  0  0  0  0  0  0
  188.1570  176.0990  142.8590 C   0  0  2  0  0  3  0  0  0  0  0  0
  193.1320  175.4480  144.1730 C   0  0  0  0  0  0  0  0  0  0  0  0
  195.2220  174.3970  140.5320 C   0  0  1  0  0  3  0  0  0  0  0  0
  192.4290  175.1860  142.9830 C   0  0  0  0  0  0  0  0  0  0  0  0
  194.5730  175.9020  146.5130 C   0  0  0  0  0  3  0  0  0  0  0  0
  188.9890  173.6960  142.3880 C   0  0  0  0  0  2  0  0  0  0  0  0
  195.2130  175.5380  145.3720 N   0  0  0  0  0  0  0  0  0  0  0  0
  190.3120  174.3080  141.9230 C   0  0  0  0  0  2  0  0  0  0  0  0
  188.8830  176.1240  144.2240 C   0  0  1  0  0  3  0  0  0  0  0  0
  193.1900  176.0620  146.5170 C   0  0  0  0  0  3  0  0  0  0  0  0
  190.9820  176.0650  145.3710 C   0  0  1  0  0  3  0  0  0  0  0  0
  186.8810  176.8800  142.8970 C   0  0  0  0  0  3  0  0  0  0  0  0
  186.8750  178.1880  142.6450 C   0  0  0  0  0  3  0  0  0  0  0  0
  184.0660  178.1060  144.2690 O   0  0  0  0  0  0  0  0  0  0  0  0
  185.5860  179.8690  143.8880 C   0  0  0  0  0  2  0  0  0  0  0  0
  185.6030  178.9710  142.6850 C   0  0  2  0  0  3  0  0  0  0  0  0
  184.3730  179.4160  144.6630 C   0  0  0  0  0  2  0  0  0  0  0  0
  184.4410  178.0320  142.9190 C   0  0  0  0  0  2  0  0  0  0  0  0
  1 27  1  0  0  0  0
  1 26  1  0  0  0  0
  2 27  1  0  0  0  0
  3  7  1  6  0  0  0
  3 16  1  0  0  0  0
  4 23  2  0  0  0  0
  5 15  2  0  0  0  0
  6 19  1  0  0  0  0
  8 12  1  0  0  0  0
  9 27  1  0  0  0  0
 10 22  1  0  0  0  0
 10 17  1  0  0  0  0
 11  5  1  0  0  0  0
 11 20  2  0  0  0  0
 13 20  1  0  0  0  0
 13  9  1  0  0  0  0
 14  2  1  0  0  0  0
 15 12  1  0  0  0  0
 15  4  1  0  0  0  0
 16  8  1  0  0  0  0
 17 28  1  0  0  0  0
 17 25  1  0  0  0  0
 18  4  1  0  0  0  0
 18  1  2  0  0  0  0
 19  3  1  0  0  0  0
 19  5  1  0  0  0  0
 20 18  1  0  0  0  0
 21 26  2  0  0  0  0
 23 21  1  0  0  0  0
 24 22  1  0  0  0  0
 24 13  1  0  0  0  0
 25  9  1  0  0  0  0
 25 14  1  0  0  0  0
 29 32  1  0  0  0  0
 29 28  2  0  0  0  0
 30 33  1  0  0  0  0
 31 33  1  0  0  0  0
 32 34  1  0  0  0  0
 32 31  1  0  0  0  0
 34 30  1  0  0  0  0
M  END
>  <MODEL>
3

>  <REMARK>
 VINA RESULT:      -8.1      2.704      3.551
  Name = 
  2 active torsions:
  status: ('A' for Active; 'I' for Inactive)
    1  A    between atoms: C_17  and  C_28
    2  A    between atoms: C_29  and  C_32
                            x       y       z     vdW  Elec       q    Type
                         _______ _______ _______ _____ _____    ______ ____

>  <TORSDO>
F 2

$$$$
=
 OpenBabel11112417583D

 34 40  0  0  1  0  0  0  0  0999 V2000
  191.1040  173.0010  144.2550 C   0  0  0  0  0  0  0  0  0  0  0  0
  189.6920  174.0630  146.0270 C   0  0  0  0  0  2  0  0  0  0  0  0
  196.7980  174.9820  141.4680 C   0  0  2  0  0  3  0  0  0  0  0  0
  193.4380  172.8760  143.5940 C   0  0  0  0  0  0  0  0  0  0  0  0
  194.6420  174.8890  142.9360 C   0  0  0  0  0  0  0  0  0  0  0  0
  196.7020  176.0290  143.7430 C   0  0  0  0  0  1  0  0  0  0  0  0
  197.3170  176.0410  140.5170 C   0  0  0  0  0  1  0  0  0  0  0  0
  196.1380  172.5370  141.4180 C   0  0  0  0  0  2  0  0  0  0  0  0
  189.7180  175.0900  143.8330 C   0  0  2  0  0  3  0  0  0  0  0  0
  188.6530  177.9640  143.2230 C   0  0  0  0  0  2  0  0  0  0  0  0
  193.4770  175.6310  143.1310 C   0  0  0  0  0  3  0  0  0  0  0  0
  195.8530  172.6730  142.9160 C   0  0  0  0  0  2  0  0  0  0  0  0
  191.0480  175.8860  143.7470 C   0  0  1  0  0  3  0  0  0  0  0  0
  188.8030  175.2920  146.0950 C   0  0  0  0  0  2  0  0  0  0  0  0
  194.6240  173.4960  143.1670 C   0  0  0  0  0  0  0  0  0  0  0  0
  196.1160  173.8740  140.6680 C   0  0  0  0  0  2  0  0  0  0  0  0
  188.7630  177.3790  144.6350 C   0  0  2  0  0  3  0  0  0  0  0  0
  192.2650  173.6460  143.7950 C   0  0  0  0  0  0  0  0  0  0  0  0
  195.8870  175.6440  142.5220 C   0  0  1  0  0  3  0  0  0  0  0  0
  192.2760  175.0270  143.5260 C   0  0  0  0  0  0  0  0  0  0  0  0
  192.2910  170.9000  144.2600 C   0  0  0  0  0  3  0  0  0  0  0  0
  189.5770  177.3330  142.1810 C   0  0  0  0  0  2  0  0  0  0  0  0
  193.4110  171.5330  143.8270 N   0  0  0  0  0  0  0  0  0  0  0  0
  190.9810  177.0360  142.7130 C   0  0  0  0  0  2  0  0  0  0  0  0
  188.6670  175.8360  144.6730 C   0  0  1  0  0  3  0  0  0  0  0  0
  191.1220  171.6230  144.4850 C   0  0  0  0  0  3  0  0  0  0  0  0
  189.8470  173.7580  144.5540 C   0  0  1  0  0  3  0  0  0  0  0  0
  187.7050  178.0190  145.4770 C   0  0  0  0  0  3  0  0  0  0  0  0
  186.6840  178.6650  144.9160 C   0  0  0  0  0  3  0  0  0  0  0  0
  184.0120  177.7470  146.5140 O   0  0  0  0  0  0  0  0  0  0  0  0
  185.8740  179.0170  147.2080 C   0  0  0  0  0  2  0  0  0  0  0  0
  185.6280  179.3070  145.7550 C   0  0  2  0  0  3  0  0  0  0  0  0
  184.6290  178.2880  147.6500 C   0  0  0  0  0  2  0  0  0  0  0  0
  184.2950  178.6500  145.4770 C   0  0  0  0  0  2  0  0  0  0  0  0
  1 26  1  0  0  0  0
  1 27  1  0  0  0  0
  2 14  1  0  0  0  0
  3  7  1  6  0  0  0
  3 19  1  0  0  0  0
  4 18  1  0  0  0  0
  4 23  2  0  0  0  0
  5 11  1  0  0  0  0
  5 15  2  0  0  0  0
  8 12  1  0  0  0  0
  9 27  1  0  0  0  0
  9 25  1  0  0  0  0
 10 17  1  0  0  0  0
 11 20  2  0  0  0  0
 12 15  1  0  0  0  0
 13  9  1  0  0  0  0
 15  4  1  0  0  0  0
 16  8  1  0  0  0  0
 16  3  1  0  0  0  0
 17 25  1  0  0  0  0
 17 28  1  0  0  0  0
 18  1  2  0  0  0  0
 19  5  1  0  0  0  0
 19  6  1  0  0  0  0
 20 13  1  0  0  0  0
 20 18  1  0  0  0  0
 21 26  2  0  0  0  0
 22 24  1  0  0  0  0
 22 10  1  0  0  0  0
 23 21  1  0  0  0  0
 24 13  1  0  0  0  0
 25 14  1  0  0  0  0
 27  2  1  0  0  0  0
 29 28  2  0  0  0  0
 29 32  1  0  0  0  0
 30 33  1  0  0  0  0
 31 33  1  0  0  0  0
 32 31  1  0  0  0  0
 34 32  1  0  0  0  0
 34 30  1  0  0  0  0
M  END
>  <MODEL>
4

>  <REMARK>
 VINA RESULT:      -8.0      1.985      4.276
  Name = 
  2 active torsions:
  status: ('A' for Active; 'I' for Inactive)
    1  A    between atoms: C_17  and  C_28
    2  A    between atoms: C_29  and  C_32
                            x       y       z     vdW  Elec       q    Type
                         _______ _______ _______ _____ _____    ______ ____

>  <TORSDO>
F 2

$$$$
=
 OpenBabel11112417583D

 34 40  0  0  1  0  0  0  0  0999 V2000
  191.1560  173.7710  141.4240 C   0  0  0  0  0  0  0  0  0  0  0  0
  188.7810  174.1170  142.1290 C   0  0  0  0  0  2  0  0  0  0  0  0
  196.2620  170.9460  144.5950 C   0  0  2  0  0  3  0  0  0  0  0  0
  192.9720  172.2020  141.7940 C   0  0  0  0  0  0  0  0  0  0  0  0
  193.8960  171.8890  144.0260 C   0  0  0  0  0  0  0  0  0  0  0  0
  194.1720  169.9330  145.5400 C   0  0  0  0  0  1  0  0  0  0  0  0
  197.1910  171.2090  145.7620 C   0  0  0  0  0  1  0  0  0  0  0  0
  196.2780  171.1340  142.0690 C   0  0  0  0  0  2  0  0  0  0  0  0
  190.4860  175.4640  143.1970 C   0  0  2  0  0  3  0  0  0  0  0  0
  190.0410  177.1210  145.8110 C   0  0  0  0  0  2  0  0  0  0  0  0
  193.0110  172.8530  144.5110 C   0  0  0  0  0  3  0  0  0  0  0  0
  194.8580  170.5640  142.1050 C   0  0  0  0  0  2  0  0  0  0  0  0
  191.1640  174.5450  144.2500 C   0  0  1  0  0  3  0  0  0  0  0  0
  188.0830  174.9990  143.1500 C   0  0  0  0  0  2  0  0  0  0  0  0
  193.8810  171.5610  142.6530 C   0  0  0  0  0  0  0  0  0  0  0  0
  196.7130  171.7730  143.3930 C   0  0  0  0  0  2  0  0  0  0  0  0
  189.0000  176.1610  145.2230 C   0  0  2  0  0  3  0  0  0  0  0  0
  192.0750  173.1730  142.3030 C   0  0  0  0  0  0  0  0  0  0  0  0
  194.8070  171.2140  145.0300 C   0  0  1  0  0  3  0  0  0  0  0  0
  192.1200  173.5260  143.6650 C   0  0  0  0  0  0  0  0  0  0  0  0
  192.0680  172.4690  139.6090 C   0  0  0  0  0  3  0  0  0  0  0  0
  191.4890  176.8390  145.4080 C   0  0  0  0  0  2  0  0  0  0  0  0
  192.9440  171.8870  140.4680 N   0  0  0  0  0  0  0  0  0  0  0  0
  191.8360  175.3480  145.3890 C   0  0  0  0  0  2  0  0  0  0  0  0
  189.1240  175.9790  143.6920 C   0  0  1  0  0  3  0  0  0  0  0  0
  191.1580  173.4150  140.0730 C   0  0  0  0  0  3  0  0  0  0  0  0
  190.1320  174.7540  141.9010 C   0  0  1  0  0  3  0  0  0  0  0  0
  187.6460  176.6640  145.6120 C   0  0  0  0  0  3  0  0  0  0  0  0
  187.2690  176.6910  146.8890 C   0  0  0  0  0  3  0  0  0  0  0  0
  185.5370  179.4160  146.5530 O   0  0  0  0  0  0  0  0  0  0  0  0
  184.9940  177.1670  146.0940 C   0  0  0  0  0  2  0  0  0  0  0  0
  185.9160  177.1910  147.2790 C   0  0  2  0  0  3  0  0  0  0  0  0
  184.5780  178.6080  145.9280 C   0  0  0  0  0  2  0  0  0  0  0  0
  186.0050  178.6580  147.6380 C   0  0  0  0  0  2  0  0  0  0  0  0
  1 27  1  0  0  0  0
  1 18  1  0  0  0  0
  2 14  1  0  0  0  0
  3 19  1  0  0  0  0
  3  7  1  1  0  0  0
  4 18  2  0  0  0  0
  4 15  1  0  0  0  0
  5 11  1  0  0  0  0
  5 19  1  0  0  0  0
  8 12  1  0  0  0  0
  8 16  1  0  0  0  0
  9 25  1  0  0  0  0
  9 13  1  0  0  0  0
 12 15  1  0  0  0  0
 13 24  1  0  0  0  0
 14 25  1  0  0  0  0
 15  5  2  0  0  0  0
 16  3  1  0  0  0  0
 17 28  1  0  0  0  0
 17 10  1  0  0  0  0
 18 20  1  0  0  0  0
 19  6  1  0  0  0  0
 20 13  1  0  0  0  0
 20 11  2  0  0  0  0
 21 26  1  0  0  0  0
 21 23  2  0  0  0  0
 22 10  1  0  0  0  0
 23  4  1  0  0  0  0
 24 22  1  0  0  0  0
 25 17  1  0  0  0  0
 26  1  2  0  0  0  0
 27  2  1  0  0  0  0
 27  9  1  0  0  0  0
 28 29  2  0  0  0  0
 29 32  1  0  0  0  0
 30 34  1  0  0  0  0
 31 32  1  0  0  0  0
 32 34  1  0  0  0  0
 33 31  1  0  0  0  0
 33 30  1  0  0  0  0
M  END
>  <MODEL>
5

>  <REMARK>
 VINA RESULT:      -7.9      2.266      3.392
  Name = 
  2 active torsions:
  status: ('A' for Active; 'I' for Inactive)
    1  A    between atoms: C_17  and  C_28
    2  A    between atoms: C_29  and  C_32
                            x       y       z     vdW  Elec       q    Type
                         _______ _______ _______ _____ _____    ______ ____

>  <TORSDO>
F 2

$$$$
=
 OpenBabel11112417583D

 34 40  0  0  1  0  0  0  0  0999 V2000
  190.2990  175.6900  145.9670 C   0  0  0  0  0  0  0  0  0  0  0  0
  188.7860  177.5990  145.3940 C   0  0  0  0  0  2  0  0  0  0  0  0
  195.9750  173.6590  143.1800 C   0  0  2  0  0  3  0  0  0  0  0  0
  192.6550  175.1140  145.8460 C   0  0  0  0  0  0  0  0  0  0  0  0
  193.7830  174.9790  143.6910 C   0  0  0  0  0  0  0  0  0  0  0  0
  195.7610  176.1070  142.6860 C   0  0  0  0  0  1  0  0  0  0  0  0
  196.4720  172.9950  141.9120 C   0  0  0  0  0  1  0  0  0  0  0  0
  195.4330  173.0280  145.5730 C   0  0  0  0  0  2  0  0  0  0  0  0
  188.8290  175.6990  143.8930 C   0  0  2  0  0  3  0  0  0  0  0  0
  187.6490  175.7150  140.9990 C   0  0  0  0  0  2  0  0  0  0  0  0
  192.5790  175.2910  143.0590 C   0  0  0  0  0  3  0  0  0  0  0  0
  195.0970  174.5050  145.7940 C   0  0  0  0  0  2  0  0  0  0  0  0
  190.1220  175.8490  143.0460 C   0  0  1  0  0  3  0  0  0  0  0  0
  187.8380  177.9090  144.2490 C   0  0  0  0  0  2  0  0  0  0  0  0
  193.8230  174.8860  145.0990 C   0  0  0  0  0  0  0  0  0  0  0  0
  195.3710  172.6010  144.1010 C   0  0  0  0  0  2  0  0  0  0  0  0
  187.7440  176.9610  141.8870 C   0  0  2  0  0  3  0  0  0  0  0  0
  191.4420  175.4360  145.1890 C   0  0  0  0  0  0  0  0  0  0  0  0
  195.0030  174.7980  142.8130 C   0  0  1  0  0  3  0  0  0  0  0  0
  191.3960  175.4890  143.7840 C   0  0  0  0  0  0  0  0  0  0  0  0
  191.5830  175.2650  147.9650 C   0  0  0  0  0  3  0  0  0  0  0  0
  188.6330  174.5950  141.3390 C   0  0  0  0  0  2  0  0  0  0  0  0
  192.6850  175.0340  147.2060 N   0  0  0  0  0  0  0  0  0  0  0  0
  190.0320  175.1020  141.6940 C   0  0  0  0  0  2  0  0  0  0  0  0
  187.7190  176.6430  143.4010 C   0  0  1  0  0  3  0  0  0  0  0  0
  190.3760  175.6020  147.3590 C   0  0  0  0  0  3  0  0  0  0  0  0
  188.9990  176.1030  145.3490 C   0  0  1  0  0  3  0  0  0  0  0  0
  186.6320  177.8830  141.4980 C   0  0  0  0  0  3  0  0  0  0  0  0
  185.4200  177.7560  142.0380 C   0  0  0  0  0  3  0  0  0  0  0  0
  182.7270  177.6210  140.2310 O   0  0  0  0  0  0  0  0  0  0  0  0
  183.0740  178.3590  142.4440 C   0  0  0  0  0  2  0  0  0  0  0  0
  184.3080  178.6750  141.6490 C   0  0  2  0  0  3  0  0  0  0  0  0
  182.0480  178.0000  141.3970 C   0  0  0  0  0  2  0  0  0  0  0  0
  183.8980  178.3940  140.2210 C   0  0  0  0  0  2  0  0  0  0  0  0
  1 26  1  0  0  0  0
  3  7  1  6  0  0  0
  3 16  1  0  0  0  0
  4 23  2  0  0  0  0
  5 15  2  0  0  0  0
  6 19  1  0  0  0  0
  8 12  1  0  0  0  0
  9 27  1  0  0  0  0
 10 22  1  0  0  0  0
 10 17  1  0  0  0  0
 11  5  1  0  0  0  0
 11 20  2  0  0  0  0
 13 20  1  0  0  0  0
 13  9  1  0  0  0  0
 14  2  1  0  0  0  0
 15 12  1  0  0  0  0
 15  4  1  0  0  0  0
 16  8  1  0  0  0  0
 17 25  1  0  0  0  0
 18  4  1  0  0  0  0
 18  1  2  0  0  0  0
 19  3  1  0  0  0  0
 19  5  1  0  0  0  0
 20 18  1  0  0  0  0
 22 24  1  0  0  0  0
 23 21  1  0  0  0  0
 24 13  1  0  0  0  0
 25  9  1  0  0  0  0
 25 14  1  0  0  0  0
 26 21  2  0  0  0  0
 27  2  1  0  0  0  0
 27  1  1  0  0  0  0
 28 17  1  0  0  0  0
 28 29  2  0  0  0  0
 30 33  1  0  0  0  0
 32 29  1  0  0  0  0
 32 31  1  0  0  0  0
 33 31  1  0  0  0  0
 34 30  1  0  0  0  0
 34 32  1  0  0  0  0
M  END
>  <MODEL>
6

>  <REMARK>
 VINA RESULT:      -7.9      2.512      4.025
  Name = 
  2 active torsions:
  status: ('A' for Active; 'I' for Inactive)
    1  A    between atoms: C_17  and  C_28
    2  A    between atoms: C_29  and  C_32
                            x       y       z     vdW  Elec       q    Type
                         _______ _______ _______ _____ _____    ______ ____

>  <TORSDO>
F 2

$$$$
=
 OpenBabel11112417583D

 34 40  0  0  1  0  0  0  0  0999 V2000
  193.0570  175.8910  144.4540 C   0  0  0  0  0  0  0  0  0  0  0  0
  191.3050  177.6760  144.4380 C   0  0  0  0  0  2  0  0  0  0  0  0
  196.1090  172.7560  139.4570 C   0  0  2  0  0  3  0  0  0  0  0  0
  194.9160  175.1290  143.0880 C   0  0  0  0  0  0  0  0  0  0  0  0
  194.5320  174.3260  140.8210 C   0  0  0  0  0  0  0  0  0  0  0  0
  195.3740  174.9840  138.5730 C   0  0  0  0  0  1  0  0  0  0  0  0
  195.8160  171.7350  138.3760 C   0  0  0  0  0  1  0  0  0  0  0  0
  197.1830  172.8470  141.7490 C   0  0  0  0  0  2  0  0  0  0  0  0
  190.6480  175.4400  143.7810 C   0  0  2  0  0  3  0  0  0  0  0  0
  187.9750  174.7500  142.3140 C   0  0  0  0  0  2  0  0  0  0  0  0
  193.1650  174.5400  140.9920 C   0  0  0  0  0  3  0  0  0  0  0  0
  196.8870  174.3490  141.7310 C   0  0  0  0  0  2  0  0  0  0  0  0
  191.1490  175.2560  142.3220 C   0  0  1  0  0  3  0  0  0  0  0  0
  189.8330  177.7300  144.0690 C   0  0  0  0  0  2  0  0  0  0  0  0
  195.4190  174.6190  141.8800 C   0  0  0  0  0  0  0  0  0  0  0  0
  196.2990  172.0400  140.7910 C   0  0  0  0  0  2  0  0  0  0  0  0
  188.4460  176.1810  142.5980 C   0  0  2  0  0  3  0  0  0  0  0  0
  193.5250  175.3480  143.2440 C   0  0  0  0  0  0  0  0  0  0  0  0
  194.9930  173.8200  139.4700 C   0  0  1  0  0  3  0  0  0  0  0  0
  192.6400  175.0180  142.2010 C   0  0  0  0  0  0  0  0  0  0  0  0
  195.3200  175.9350  145.2910 C   0  0  0  0  0  3  0  0  0  0  0  0
  189.0820  173.6960  142.2680 C   0  0  0  0  0  2  0  0  0  0  0  0
  195.7640  175.4230  144.1140 N   0  0  0  0  0  0  0  0  0  0  0  0
  190.3480  174.1760  141.5560 C   0  0  0  0  0  2  0  0  0  0  0  0
  189.3690  176.2930  143.8340 C   0  0  1  0  0  3  0  0  0  0  0  0
  193.9620  176.1820  145.4770 C   0  0  0  0  0  3  0  0  0  0  0  0
  191.6110  176.2130  144.6670 C   0  0  1  0  0  3  0  0  0  0  0  0
  187.2300  177.0420  142.7370 C   0  0  0  0  0  3  0  0  0  0  0  0
  186.2920  176.7570  143.6400 C   0  0  0  0  0  3  0  0  0  0  0  0
  185.3110  179.2360  145.4920 O   0  0  0  0  0  0  0  0  0  0  0  0
  185.3150  178.9570  143.1500 C   0  0  0  0  0  2  0  0  0  0  0  0
  185.0760  177.6140  143.7780 C   0  0  2  0  0  3  0  0  0  0  0  0
  185.1280  179.9300  144.2880 C   0  0  0  0  0  2  0  0  0  0  0  0
  184.8490  177.9350  145.2390 C   0  0  0  0  0  2  0  0  0  0  0  0
  1 27  1  0  0  0  0
  1 26  1  0  0  0  0
  2 27  1  0  0  0  0
  3  7  1  6  0  0  0
  3 19  1  0  0  0  0
  3 16  1  0  0  0  0
  4 18  1  0  0  0  0
  4 23  2  0  0  0  0
  5 11  1  0  0  0  0
  5 15  2  0  0  0  0
  6 19  1  0  0  0  0
  9 25  1  0  0  0  0
  9 27  1  0  0  0  0
 10 17  1  0  0  0  0
 11 20  2  0  0  0  0
 12  8  1  0  0  0  0
 12 15  1  0  0  0  0
 13  9  1  0  0  0  0
 14  2  1  0  0  0  0
 15  4  1  0  0  0  0
 16  8  1  0  0  0  0
 17 28  1  0  0  0  0
 17 25  1  0  0  0  0
 18  1  2  0  0  0  0
 19  5  1  0  0  0  0
 20 13  1  0  0  0  0
 20 18  1  0  0  0  0
 21 26  2  0  0  0  0
 22 10  1  0  0  0  0
 23 21  1  0  0  0  0
 24 22  1  0  0  0  0
 24 13  1  0  0  0  0
 25 14  1  0  0  0  0
 28 29  2  0  0  0  0
 29 32  1  0  0  0  0
 31 32  1  0  0  0  0
 31 33  1  0  0  0  0
 32 34  1  0  0  0  0
 33 30  1  0  0  0  0
 34 30  1  0  0  0  0
M  END
>  <MODEL>
7

>  <REMARK>
 VINA RESULT:      -7.9      2.886      3.694
  Name = 
  2 active torsions:
  status: ('A' for Active; 'I' for Inactive)
    1  A    between atoms: C_17  and  C_28
    2  A    between atoms: C_29  and  C_32
                            x       y       z     vdW  Elec       q    Type
                         _______ _______ _______ _____ _____    ______ ____

>  <TORSDO>
F 2

$$$$
=
 OpenBabel11112417583D

 34 40  0  0  1  0  0  0  0  0999 V2000
  195.0360  174.3970  145.3200 C   0  0  0  0  0  0  0  0  0  0  0  0
  193.7560  176.3200  146.2810 C   0  0  0  0  0  2  0  0  0  0  0  0
  196.4120  172.8100  139.0190 C   0  0  2  0  0  3  0  0  0  0  0  0
  196.4170  173.8920  143.3870 C   0  0  0  0  0  0  0  0  0  0  0  0
  195.4850  174.0160  141.1390 C   0  0  0  0  0  0  0  0  0  0  0  0
  196.0620  175.2910  139.0820 C   0  0  0  0  0  1  0  0  0  0  0  0
  195.7180  172.2970  137.7740 C   0  0  0  0  0  1  0  0  0  0  0  0
  197.8500  171.9130  140.9020 C   0  0  0  0  0  2  0  0  0  0  0  0
  192.5090  174.5930  145.1280 C   0  0  2  0  0  3  0  0  0  0  0  0
  189.5410  174.8920  144.1930 C   0  0  0  0  0  2  0  0  0  0  0  0
  194.2500  174.3650  141.6870 C   0  0  0  0  0  3  0  0  0  0  0  0
  197.9030  173.3500  141.4290 C   0  0  0  0  0  2  0  0  0  0  0  0
  192.7020  174.8640  143.6110 C   0  0  1  0  0  3  0  0  0  0  0  0
  192.2940  176.7290  146.3060 C   0  0  0  0  0  2  0  0  0  0  0  0
  196.5800  173.7740  141.9960 C   0  0  0  0  0  0  0  0  0  0  0  0
  196.6580  171.6460  139.9770 C   0  0  0  0  0  2  0  0  0  0  0  0
  190.3640  176.0370  144.7930 C   0  0  2  0  0  3  0  0  0  0  0  0
  195.1580  174.2550  143.9270 C   0  0  0  0  0  0  0  0  0  0  0  0
  195.5840  173.9590  139.6300 C   0  0  1  0  0  3  0  0  0  0  0  0
  194.0580  174.4570  143.0730 C   0  0  0  0  0  0  0  0  0  0  0  0
  197.3580  173.7910  145.5700 C   0  0  0  0  0  3  0  0  0  0  0  0
  190.3570  173.7650  143.5580 C   0  0  0  0  0  2  0  0  0  0  0  0
  197.4700  173.6680  144.2220 N   0  0  0  0  0  0  0  0  0  0  0  0
  191.5610  174.2640  142.7550 C   0  0  0  0  0  2  0  0  0  0  0  0
  191.4840  175.5590  145.7470 C   0  0  1  0  0  3  0  0  0  0  0  0
  196.1430  174.1620  146.1390 C   0  0  0  0  0  3  0  0  0  0  0  0
  193.7570  174.8430  145.9590 C   0  0  1  0  0  3  0  0  0  0  0  0
  189.4160  176.9690  145.4780 C   0  0  0  0  0  3  0  0  0  0  0  0
  188.1350  176.6400  145.6430 C   0  0  0  0  0  3  0  0  0  0  0  0
  185.0910  177.6840  145.2230 O   0  0  0  0  0  0  0  0  0  0  0  0
  186.1760  176.7910  147.1170 C   0  0  0  0  0  2  0  0  0  0  0  0
  187.1860  177.5710  146.3260 C   0  0  2  0  0  3  0  0  0  0  0  0
  184.8520  177.1930  146.5140 C   0  0  0  0  0  2  0  0  0  0  0  0
  186.3540  178.2910  145.2890 C   0  0  0  0  0  2  0  0  0  0  0  0
  1 27  1  0  0  0  0
  1 26  1  0  0  0  0
  2 14  1  0  0  0  0
  3  7  1  6  0  0  0
  3 19  1  0  0  0  0
  3 16  1  0  0  0  0
  4 18  1  0  0  0  0
  4 23  2  0  0  0  0
  5 11  1  0  0  0  0
  5 15  2  0  0  0  0
  6 19  1  0  0  0  0
  8 12  1  0  0  0  0
  9 25  1  0  0  0  0
  9 27  1  0  0  0  0
 10 17  1  0  0  0  0
 11 20  2  0  0  0  0
 12 15  1  0  0  0  0
 13  9  1  0  0  0  0
 15  4  1  0  0  0  0
 16  8  1  0  0  0  0
 17 28  1  0  0  0  0
 17 25  1  0  0  0  0
 18  1  2  0  0  0  0
 19  5  1  0  0  0  0
 20 13  1  0  0  0  0
 20 18  1  0  0  0  0
 21 26  2  0  0  0  0
 22 10  1  0  0  0  0
 23 21  1  0  0  0  0
 24 22  1  0  0  0  0
 24 13  1  0  0  0  0
 25 14  1  0  0  0  0
 27  2  1  0  0  0  0
 28 29  2  0  0  0  0
 29 32  1  0  0  0  0
 30 34  1  0  0  0  0
 30 33  1  0  0  0  0
 32 31  1  0  0  0  0
 33 31  1  0  0  0  0
 34 32  1  0  0  0  0
M  END
>  <MODEL>
8

>  <REMARK>
 VINA RESULT:      -7.8      2.768      3.984
  Name = 
  2 active torsions:
  status: ('A' for Active; 'I' for Inactive)
    1  A    between atoms: C_17  and  C_28
    2  A    between atoms: C_29  and  C_32
                            x       y       z     vdW  Elec       q    Type
                         _______ _______ _______ _____ _____    ______ ____

>  <TORSDO>
F 2

$$$$
=
 OpenBabel11112417583D

 34 40  0  0  1  0  0  0  0  0999 V2000
  189.0560  174.0980  140.6520 C   0  0  0  0  0  0  0  0  0  0  0  0
  187.1460  174.8730  142.0710 C   0  0  0  0  0  2  0  0  0  0  0  0
  194.5570  170.7290  142.2370 C   0  0  2  0  0  3  0  0  0  0  0  0
  190.6750  172.2890  140.5800 C   0  0  0  0  0  0  0  0  0  0  0  0
  192.2800  171.9970  142.3890 C   0  0  0  0  0  0  0  0  0  0  0  0
  192.8260  170.1390  143.9520 C   0  0  0  0  0  1  0  0  0  0  0  0
  195.8630  170.9250  142.9780 C   0  0  0  0  0  1  0  0  0  0  0  0
  193.7030  170.7260  139.8520 C   0  0  0  0  0  2  0  0  0  0  0  0
  189.2730  176.0030  142.3210 C   0  0  2  0  0  3  0  0  0  0  0  0
  189.9910  177.8980  144.7020 C   0  0  0  0  0  2  0  0  0  0  0  0
  191.7510  173.1230  143.0200 C   0  0  0  0  0  3  0  0  0  0  0  0
  192.3280  170.3960  140.4370 C   0  0  0  0  0  2  0  0  0  0  0  0
  190.1580  175.0670  143.1890 C   0  0  1  0  0  3  0  0  0  0  0  0
  186.9700  175.9290  143.1480 C   0  0  0  0  0  2  0  0  0  0  0  0
  191.7400  171.5750  141.1540 C   0  0  0  0  0  0  0  0  0  0  0  0
  194.6540  171.3820  140.8600 C   0  0  0  0  0  2  0  0  0  0  0  0
  188.6980  177.0780  144.6260 C   0  0  2  0  0  3  0  0  0  0  0  0
  190.1440  173.4260  141.2370 C   0  0  0  0  0  0  0  0  0  0  0  0
  193.3940  171.2600  143.1010 C   0  0  1  0  0  3  0  0  0  0  0  0
  190.7100  173.8670  142.4470 C   0  0  0  0  0  0  0  0  0  0  0  0
  189.0980  172.5360  138.8140 C   0  0  0  0  0  3  0  0  0  0  0  0
  191.1560  177.3580  143.8720 C   0  0  0  0  0  2  0  0  0  0  0  0
  190.1410  171.8850  139.3930 N   0  0  0  0  0  0  0  0  0  0  0  0
  191.2840  175.8340  143.9240 C   0  0  0  0  0  2  0  0  0  0  0  0
  188.2490  176.7660  143.1790 C   0  0  1  0  0  3  0  0  0  0  0  0
  188.5370  173.6480  139.4370 C   0  0  0  0  0  3  0  0  0  0  0  0
  188.3990  175.2660  141.3210 C   0  0  1  0  0  3  0  0  0  0  0  0
  187.6420  177.8190  145.3840 C   0  0  0  0  0  3  0  0  0  0  0  0
  186.6970  178.5050  144.7430 C   0  0  0  0  0  3  0  0  0  0  0  0
  184.0070  177.8000  146.4170 O   0  0  0  0  0  0  0  0  0  0  0  0
  185.8790  179.1210  146.9760 C   0  0  0  0  0  2  0  0  0  0  0  0
  185.6430  179.2480  145.4980 C   0  0  2  0  0  3  0  0  0  0  0  0
  184.6230  178.4600  147.4880 C   0  0  0  0  0  2  0  0  0  0  0  0
  184.3040  178.5780  145.2870 C   0  0  0  0  0  2  0  0  0  0  0  0
  1 18  1  0  0  0  0
  1 27  1  0  0  0  0
  2 14  1  0  0  0  0
  3  7  1  1  0  0  0
  3 19  1  0  0  0  0
  4 15  2  0  0  0  0
  4 18  1  0  0  0  0
  5 11  2  0  0  0  0
  5 19  1  0  0  0  0
  8 12  1  0  0  0  0
  8 16  1  0  0  0  0
  9 25  1  0  0  0  0
  9 13  1  0  0  0  0
 12 15  1  0  0  0  0
 13 24  1  0  0  0  0
 14 25  1  0  0  0  0
 15  5  1  0  0  0  0
 16  3  1  0  0  0  0
 17 10  1  0  0  0  0
 17 28  1  0  0  0  0
 18 20  2  0  0  0  0
 19  6  1  0  0  0  0
 20 11  1  0  0  0  0
 20 13  1  0  0  0  0
 21 23  2  0  0  0  0
 21 26  1  0  0  0  0
 22 24  1  0  0  0  0
 22 10  1  0  0  0  0
 23  4  1  0  0  0  0
 25 17  1  0  0  0  0
 26  1  2  0  0  0  0
 27  2  1  0  0  0  0
 27  9  1  0  0  0  0
 29 28  2  0  0  0  0
 29 32  1  0  0  0  0
 30 33  1  0  0  0  0
 31 33  1  0  0  0  0
 32 31  1  0  0  0  0
 34 32  1  0  0  0  0
 34 30  1  0  0  0  0
M  END
>  <MODEL>
9

>  <REMARK>
 VINA RESULT:      -7.7      3.037      4.359
  Name = 
  2 active torsions:
  status: ('A' for Active; 'I' for Inactive)
    1  A    between atoms: C_17  and  C_28
    2  A    between atoms: C_29  and  C_32
                            x       y       z     vdW  Elec       q    Type
                         _______ _______ _______ _____ _____    ______ ____

>  <TORSDO>
F 2

$$$$
