=
 OpenBabel11112417573D

 34 40  0  0  1  0  0  0  0  0999 V2000
  192.1070  176.2450  145.8100 C   0  0  0  0  0  0  0  0  0  0  0  0
  189.9010  177.0970  146.6910 C   0  0  0  0  0  2  0  0  0  0  0  0
  195.7990  175.3000  140.4280 C   0  0  2  0  0  3  0  0  0  0  0  0
  194.1440  175.9260  144.5050 C   0  0  0  0  0  0  0  0  0  0  0  0
  193.9620  175.0950  142.2190 C   0  0  0  0  0  0  0  0  0  0  0  0
  193.4320  174.5390  139.8170 C   0  0  0  0  0  1  0  0  0  0  0  0
  196.0030  175.2990  138.9180 C   0  0  0  0  0  1  0  0  0  0  0  0
  196.9210  174.4710  142.5640 C   0  0  0  0  0  2  0  0  0  0  0  0
  189.8880  175.3740  144.9790 C   0  0  2  0  0  3  0  0  0  0  0  0
  187.6180  175.8600  142.7750 C   0  0  0  0  0  2  0  0  0  0  0  0
  192.6110  175.0230  142.4000 N   0  0  0  0  0  0  0  0  0  0  0  0
  196.2740  175.6810  143.2070 C   0  0  0  0  0  2  0  0  0  0  0  0
  190.5380  175.2750  143.6460 N   0  0  0  0  0  0  0  0  0  0  0  0
  188.4620  176.8870  146.2660 C   0  0  0  0  0  2  0  0  0  0  0  0
  194.7740  175.5350  143.3050 C   0  0  0  0  0  0  0  0  0  0  0  0
  197.0430  174.6740  141.0590 C   0  0  0  0  0  2  0  0  0  0  0  0
  188.2280  176.7680  143.7510 N   0  0  0  0  0  0  0  0  0  0  0  0
  192.7400  175.8420  144.6280 C   0  0  0  0  0  0  0  0  0  0  0  0
  194.5180  174.5730  140.8950 C   0  0  1  0  0  3  0  0  0  0  0  0
  191.9780  175.3810  143.5490 C   0  0  0  0  0  0  0  0  0  0  0  0
  194.2570  176.8200  146.7690 C   0  0  0  0  0  3  0  0  0  0  0  0
  188.3560  174.5290  142.6480 C   0  0  0  0  0  2  0  0  0  0  0  0
  194.8900  176.4140  145.5930 C   0  0  0  0  0  3  0  0  0  0  0  0
  189.8470  174.7510  142.4550 C   0  0  0  0  0  2  0  0  0  0  0  0
  188.4860  176.0180  144.9980 C   0  0  1  0  0  3  0  0  0  0  0  0
  192.8680  176.7400  146.8760 C   0  0  0  0  0  3  0  0  0  0  0  0
  190.6830  176.1740  145.8970 N   0  0  0  0  0  0  0  0  0  0  0  0
  187.2380  177.8190  143.9540 C   0  0  0  0  0  2  0  0  0  0  0  0
  185.8460  177.2150  143.9280 C   0  0  0  0  0  2  0  0  0  0  0  0
  184.8740  178.1730  147.2070 O   0  0  0  0  0  0  0  0  0  0  0  0
  185.5190  179.3020  145.2370 C   0  0  0  0  0  2  0  0  0  0  0  0
  184.9150  177.9820  144.8490 C   0  0  2  0  0  3  0  0  0  0  0  0
  185.7170  179.1860  146.7290 C   0  0  0  0  0  2  0  0  0  0  0  0
  184.7860  177.2430  146.1610 C   0  0  0  0  0  2  0  0  0  0  0  0
  1 27  1  0  0  0  0
  1 26  1  0  0  0  0
  3  7  1  6  0  0  0
  3 19  1  0  0  0  0
  3 16  1  0  0  0  0
  4 18  1  0  0  0  0
  4 23  2  0  0  0  0
  5 11  1  0  0  0  0
  5 15  2  0  0  0  0
  8 12  1  0  0  0  0
  9 13  1  6  0  0  0
  9 25  1  0  0  0  0
  9 27  1  0  0  0  0
 10 17  1  0  0  0  0
 11 20  2  0  0  0  0
 12 15  1  0  0  0  0
 14  2  1  0  0  0  0
 15  4  1  0  0  0  0
 16  8  1  0  0  0  0
 17 28  1  0  0  0  0
 17 25  1  0  0  0  0
 18  1  2  0  0  0  0
 19  6  1  6  0  0  0
 19  5  1  0  0  0  0
 20 13  1  0  0  0  0
 20 18  1  0  0  0  0
 21 26  2  0  0  0  0
 22 10  1  0  0  0  0
 23 21  1  0  0  0  0
 24 22  1  0  0  0  0
 24 13  1  0  0  0  0
 25 14  1  1  0  0  0
 27  2  1  0  0  0  0
 29 28  1  0  0  0  0
 31 33  1  0  0  0  0
 32 29  1  6  0  0  0
 32 31  1  0  0  0  0
 32 34  1  0  0  0  0
 33 30  1  0  0  0  0
 34 30  1  0  0  0  0
M  END
>  <MODEL>
1

>  <REMARK>
 VINA RESULT:      -8.5      0.000      0.000
  Name = 
  3 active torsions:
  status: ('A' for Active; 'I' for Inactive)
    1  A    between atoms: N_17  and  C_28
    2  A    between atoms: C_28  and  C_29
    3  A    between atoms: C_29  and  C_32
                            x       y       z     vdW  Elec       q    Type
                         _______ _______ _______ _____ _____    ______ ____

>  <TORSDO>
F 3

$$$$
=
 OpenBabel11112417573D

 34 40  0  0  1  0  0  0  0  0999 V2000
  192.1530  176.0700  145.5270 C   0  0  0  0  0  0  0  0  0  0  0  0
  189.8860  176.9780  146.1640 C   0  0  0  0  0  2  0  0  0  0  0  0
  196.4840  175.2460  140.6220 C   0  0  2  0  0  3  0  0  0  0  0  0
  194.3300  175.7260  144.4800 C   0  0  0  0  0  0  0  0  0  0  0  0
  194.4190  175.0320  142.1430 C   0  0  0  0  0  0  0  0  0  0  0  0
  194.1890  174.6340  139.6640 C   0  0  0  0  0  1  0  0  0  0  0  0
  196.8850  175.3180  139.1540 C   0  0  0  0  0  1  0  0  0  0  0  0
  197.2790  174.2480  142.8320 C   0  0  0  0  0  2  0  0  0  0  0  0
  190.0300  175.3540  144.3640 C   0  0  2  0  0  3  0  0  0  0  0  0
  188.0930  176.0680  141.9170 C   0  0  0  0  0  2  0  0  0  0  0  0
  193.0540  175.0150  142.1430 N   0  0  0  0  0  0  0  0  0  0  0  0
  196.6010  175.4510  143.4580 C   0  0  0  0  0  2  0  0  0  0  0  0
  190.8460  175.2960  143.1220 N   0  0  0  0  0  0  0  0  0  0  0  0
  188.5090  176.8610  145.5440 C   0  0  0  0  0  2  0  0  0  0  0  0
  195.0970  175.3720  143.3500 C   0  0  0  0  0  0  0  0  0  0  0  0
  197.6070  174.5280  141.3700 C   0  0  0  0  0  2  0  0  0  0  0  0
  188.6050  176.8910  143.0170 N   0  0  0  0  0  0  0  0  0  0  0  0
  192.9200  175.7030  144.4140 C   0  0  0  0  0  0  0  0  0  0  0  0
  195.1240  174.5560  140.8740 C   0  0  1  0  0  3  0  0  0  0  0  0
  192.2890  175.3390  143.2200 C   0  0  0  0  0  0  0  0  0  0  0  0
  194.1780  176.4880  146.7890 C   0  0  0  0  0  3  0  0  0  0  0  0
  188.7870  174.7120  141.8060 C   0  0  0  0  0  2  0  0  0  0  0  0
  194.9450  176.1170  145.6830 C   0  0  0  0  0  3  0  0  0  0  0  0
  190.2980  174.8730  141.8220 C   0  0  0  0  0  2  0  0  0  0  0  0
  188.6650  176.0620  144.2390 C   0  0  1  0  0  3  0  0  0  0  0  0
  192.7860  176.4690  146.7100 C   0  0  0  0  0  3  0  0  0  0  0  0
  190.7280  176.0630  145.4230 N   0  0  0  0  0  0  0  0  0  0  0  0
  187.6400  177.9760  143.1530 C   0  0  0  0  0  2  0  0  0  0  0  0
  186.4130  177.6700  142.3130 C   0  0  0  0  0  2  0  0  0  0  0  0
  183.3220  178.8260  143.6270 O   0  0  0  0  0  0  0  0  0  0  0  0
  185.5760  179.5180  143.7480 C   0  0  0  0  0  2  0  0  0  0  0  0
  185.3800  178.7720  142.4600 C   0  0  2  0  0  3  0  0  0  0  0  0
  184.3160  179.2320  144.5290 C   0  0  0  0  0  2  0  0  0  0  0  0
  184.0070  178.1560  142.6030 C   0  0  0  0  0  2  0  0  0  0  0  0
  1 26  1  0  0  0  0
  3  7  1  6  0  0  0
  3 19  1  0  0  0  0
  3 16  1  0  0  0  0
  4 23  2  0  0  0  0
  5 11  1  0  0  0  0
  5 15  2  0  0  0  0
  8 12  1  0  0  0  0
  9 13  1  6  0  0  0
  9 27  1  0  0  0  0
 10 17  1  0  0  0  0
 11 20  2  0  0  0  0
 13 20  1  0  0  0  0
 14  2  1  0  0  0  0
 15 12  1  0  0  0  0
 15  4  1  0  0  0  0
 16  8  1  0  0  0  0
 17 28  1  0  0  0  0
 17 25  1  0  0  0  0
 18  4  1  0  0  0  0
 18  1  2  0  0  0  0
 19  6  1  6  0  0  0
 19  5  1  0  0  0  0
 20 18  1  0  0  0  0
 22 24  1  0  0  0  0
 22 10  1  0  0  0  0
 23 21  1  0  0  0  0
 24 13  1  0  0  0  0
 25  9  1  0  0  0  0
 25 14  1  1  0  0  0
 26 21  2  0  0  0  0
 27  1  1  0  0  0  0
 27  2  1  0  0  0  0
 29 28  1  0  0  0  0
 30 33  1  0  0  0  0
 31 33  1  0  0  0  0
 32 29  1  1  0  0  0
 32 34  1  0  0  0  0
 32 31  1  0  0  0  0
 34 30  1  0  0  0  0
M  END
>  <MODEL>
2

>  <REMARK>
 VINA RESULT:      -8.3      1.183      1.325
  Name = 
  3 active torsions:
  status: ('A' for Active; 'I' for Inactive)
    1  A    between atoms: N_17  and  C_28
    2  A    between atoms: C_28  and  C_29
    3  A    between atoms: C_29  and  C_32
                            x       y       z     vdW  Elec       q    Type
                         _______ _______ _______ _____ _____    ______ ____

>  <TORSDO>
F 3

$$$$
=
 OpenBabel11112417573D

 34 40  0  0  1  0  0  0  0  0999 V2000
  190.3730  172.9520  142.2050 C   0  0  0  0  0  0  0  0  0  0  0  0
  188.0240  173.8770  142.2290 C   0  0  0  0  0  2  0  0  0  0  0  0
  196.1850  172.8290  145.3180 C   0  0  2  0  0  3  0  0  0  0  0  0
  192.5560  172.0840  142.8620 C   0  0  0  0  0  0  0  0  0  0  0  0
  194.1460  173.5860  143.9420 C   0  0  0  0  0  0  0  0  0  0  0  0
  195.4290  175.2750  145.3060 C   0  0  0  0  0  1  0  0  0  0  0  0
  197.1430  173.3100  146.4000 C   0  0  0  0  0  1  0  0  0  0  0  0
  196.1760  171.4540  143.1680 C   0  0  0  0  0  2  0  0  0  0  0  0
  189.8910  175.4290  142.2710 C   0  0  2  0  0  3  0  0  0  0  0  0
  189.3940  177.8820  144.2680 C   0  0  0  0  0  2  0  0  0  0  0  0
  193.2270  174.5860  143.8030 N   0  0  0  0  0  0  0  0  0  0  0  0
  194.7540  171.1060  143.5620 C   0  0  0  0  0  2  0  0  0  0  0  0
  191.0900  175.5390  143.1440 N   0  0  0  0  0  0  0  0  0  0  0  0
  187.4570  175.2660  142.4350 C   0  0  0  0  0  2  0  0  0  0  0  0
  193.8270  172.2910  143.4380 C   0  0  0  0  0  0  0  0  0  0  0  0
  196.9690  171.9000  144.3910 C   0  0  0  0  0  2  0  0  0  0  0  0
  188.7530  176.5670  144.1730 N   0  0  0  0  0  0  0  0  0  0  0  0
  191.6420  173.1550  142.7600 C   0  0  0  0  0  0  0  0  0  0  0  0
  195.5090  173.9650  144.5180 C   0  0  1  0  0  3  0  0  0  0  0  0
  192.0000  174.4190  143.2420 C   0  0  0  0  0  0  0  0  0  0  0  0
  190.9000  170.6150  141.8450 C   0  0  0  0  0  3  0  0  0  0  0  0
  190.6560  177.9990  143.4150 C   0  0  0  0  0  2  0  0  0  0  0  0
  192.1680  170.8160  142.3920 C   0  0  0  0  0  3  0  0  0  0  0  0
  191.5890  176.8250  143.6620 C   0  0  0  0  0  2  0  0  0  0  0  0
  188.6410  176.1970  142.7470 C   0  0  1  0  0  3  0  0  0  0  0  0
  190.0020  171.6790  141.7560 C   0  0  0  0  0  3  0  0  0  0  0  0
  189.4590  174.0480  142.1380 N   0  0  0  0  0  0  0  0  0  0  0  0
  187.4410  176.7450  144.7860 C   0  0  0  0  0  2  0  0  0  0  0  0
  187.6080  176.9880  146.2750 C   0  0  0  0  0  2  0  0  0  0  0  0
  184.7120  178.5670  147.5950 O   0  0  0  0  0  0  0  0  0  0  0  0
  185.1410  176.8900  145.9890 C   0  0  0  0  0  2  0  0  0  0  0  0
  186.2680  176.8930  146.9820 C   0  0  2  0  0  3  0  0  0  0  0  0
  184.3880  178.1630  146.2920 C   0  0  0  0  0  2  0  0  0  0  0  0
  186.0370  178.1490  147.7900 C   0  0  0  0  0  2  0  0  0  0  0  0
  1 18  1  0  0  0  0
  2 14  1  0  0  0  0
  3  7  1  1  0  0  0
  4 15  1  0  0  0  0
  5 19  1  0  0  0  0
  8 12  1  0  0  0  0
  8 16  1  0  0  0  0
  9 27  1  1  0  0  0
  9 25  1  0  0  0  0
  9 13  1  0  0  0  0
 11  5  1  0  0  0  0
 13 20  1  0  0  0  0
 13 24  1  0  0  0  0
 15 12  1  0  0  0  0
 15  5  2  0  0  0  0
 16  3  1  0  0  0  0
 17 10  1  0  0  0  0
 17 28  1  0  0  0  0
 18  4  2  0  0  0  0
 18 20  1  0  0  0  0
 19  6  1  1  0  0  0
 19  3  1  0  0  0  0
 20 11  2  0  0  0  0
 21 23  2  0  0  0  0
 22 24  1  0  0  0  0
 22 10  1  0  0  0  0
 23  4  1  0  0  0  0
 25 14  1  1  0  0  0
 25 17  1  0  0  0  0
 26 21  1  0  0  0  0
 26  1  2  0  0  0  0
 27  1  1  0  0  0  0
 27  2  1  0  0  0  0
 28 29  1  0  0  0  0
 30 34  1  0  0  0  0
 31 33  1  0  0  0  0
 31 32  1  0  0  0  0
 32 29  1  6  0  0  0
 32 34  1  0  0  0  0
 33 30  1  0  0  0  0
M  END
>  <MODEL>
3

>  <REMARK>
 VINA RESULT:      -8.1      2.369      4.235
  Name = 
  3 active torsions:
  status: ('A' for Active; 'I' for Inactive)
    1  A    between atoms: N_17  and  C_28
    2  A    between atoms: C_28  and  C_29
    3  A    between atoms: C_29  and  C_32
                            x       y       z     vdW  Elec       q    Type
                         _______ _______ _______ _____ _____    ______ ____

>  <TORSDO>
F 3

$$$$
=
 OpenBabel11112417573D

 34 40  0  0  1  0  0  0  0  0999 V2000
  188.5750  176.6030  146.6120 C   0  0  0  0  0  0  0  0  0  0  0  0
  190.5510  175.3050  147.4950 C   0  0  0  0  0  2  0  0  0  0  0  0
  184.7800  177.7930  141.3520 C   0  0  2  0  0  3  0  0  0  0  0  0
  186.5820  177.2890  145.3830 C   0  0  0  0  0  0  0  0  0  0  0  0
  186.7640  177.7250  142.9900 C   0  0  0  0  0  0  0  0  0  0  0  0
  187.1970  177.7900  140.5070 C   0  0  0  0  0  1  0  0  0  0  0  0
  184.4450  177.6480  139.8730 C   0  0  0  0  0  1  0  0  0  0  0  0
  184.1170  179.1750  143.3920 C   0  0  0  0  0  2  0  0  0  0  0  0
  190.8580  176.7150  145.5410 C   0  0  2  0  0  3  0  0  0  0  0  0
  192.7070  175.3370  143.3200 C   0  0  0  0  0  2  0  0  0  0  0  0
  188.0970  177.4490  143.0870 N   0  0  0  0  0  0  0  0  0  0  0  0
  184.4810  177.9310  144.1780 C   0  0  0  0  0  2  0  0  0  0  0  0
  190.1370  176.8090  144.2440 N   0  0  0  0  0  0  0  0  0  0  0  0
  191.9490  175.0550  146.9670 C   0  0  0  0  0  2  0  0  0  0  0  0
  185.9680  177.6730  144.1720 C   0  0  0  0  0  0  0  0  0  0  0  0
  183.8080  178.8130  141.9440 C   0  0  0  0  0  2  0  0  0  0  0  0
  191.9730  174.7700  144.4550 N   0  0  0  0  0  0  0  0  0  0  0  0
  187.9640  177.0010  145.4170 C   0  0  0  0  0  0  0  0  0  0  0  0
  186.2440  178.1980  141.6340 C   0  0  1  0  0  3  0  0  0  0  0  0
  188.7170  177.0880  144.2410 C   0  0  0  0  0  0  0  0  0  0  0  0
  186.4480  176.7700  147.7600 C   0  0  0  0  0  3  0  0  0  0  0  0
  192.3360  176.7910  143.0300 C   0  0  0  0  0  2  0  0  0  0  0  0
  185.8370  177.1730  146.5710 C   0  0  0  0  0  3  0  0  0  0  0  0
  190.8280  176.9610  142.9520 C   0  0  0  0  0  2  0  0  0  0  0  0
  192.0370  175.7210  145.5840 C   0  0  1  0  0  3  0  0  0  0  0  0
  187.8120  176.4810  147.7800 C   0  0  0  0  0  3  0  0  0  0  0  0
  189.9690  176.2930  146.6110 N   0  0  0  0  0  0  0  0  0  0  0  0
  192.6670  173.5240  144.7640 C   0  0  0  0  0  2  0  0  0  0  0  0
  194.1160  173.6310  144.3250 C   0  0  0  0  0  2  0  0  0  0  0  0
  197.2770  172.5190  145.5060 O   0  0  0  0  0  0  0  0  0  0  0  0
  195.9640  174.4650  145.7630 C   0  0  0  0  0  2  0  0  0  0  0  0
  195.0470  173.3090  145.4810 C   0  0  2  0  0  3  0  0  0  0  0  0
  197.3380  173.9190  145.4590 C   0  0  0  0  0  2  0  0  0  0  0  0
  195.9820  172.1940  145.0760 C   0  0  0  0  0  2  0  0  0  0  0  0
  1 26  1  0  0  0  0
  3  7  1  6  0  0  0
  3 19  1  0  0  0  0
  3 16  1  0  0  0  0
  4 18  1  0  0  0  0
  4 23  2  0  0  0  0
  5 11  1  0  0  0  0
  5 15  2  0  0  0  0
  8 12  1  0  0  0  0
  9 13  1  6  0  0  0
  9 25  1  0  0  0  0
  9 27  1  0  0  0  0
 10 17  1  0  0  0  0
 11 20  2  0  0  0  0
 14  2  1  0  0  0  0
 15 12  1  0  0  0  0
 15  4  1  0  0  0  0
 16  8  1  0  0  0  0
 17 28  1  0  0  0  0
 17 25  1  0  0  0  0
 18  1  2  0  0  0  0
 19  6  1  6  0  0  0
 19  5  1  0  0  0  0
 20 13  1  0  0  0  0
 20 18  1  0  0  0  0
 21 26  2  0  0  0  0
 22 10  1  0  0  0  0
 23 21  1  0  0  0  0
 24 22  1  0  0  0  0
 24 13  1  0  0  0  0
 25 14  1  1  0  0  0
 27  1  1  0  0  0  0
 27  2  1  0  0  0  0
 29 28  1  0  0  0  0
 32 29  1  6  0  0  0
 32 31  1  0  0  0  0
 33 30  1  0  0  0  0
 33 31  1  0  0  0  0
 34 32  1  0  0  0  0
 34 30  1  0  0  0  0
M  END
>  <MODEL>
4

>  <REMARK>
 VINA RESULT:      -7.8      3.314      8.372
  Name = 
  3 active torsions:
  status: ('A' for Active; 'I' for Inactive)
    1  A    between atoms: N_17  and  C_28
    2  A    between atoms: C_28  and  C_29
    3  A    between atoms: C_29  and  C_32
                            x       y       z     vdW  Elec       q    Type
                         _______ _______ _______ _____ _____    ______ ____

>  <TORSDO>
F 3

$$$$
=
 OpenBabel11112417573D

 34 40  0  0  1  0  0  0  0  0999 V2000
  188.1790  175.3910  141.0270 C   0  0  0  0  0  0  0  0  0  0  0  0
  190.1730  174.2160  140.0200 C   0  0  0  0  0  2  0  0  0  0  0  0
  185.9750  178.9180  146.1450 C   0  0  2  0  0  3  0  0  0  0  0  0
  186.7400  176.9480  142.2350 C   0  0  0  0  0  0  0  0  0  0  0  0
  186.8310  176.9880  144.6720 C   0  0  0  0  0  0  0  0  0  0  0  0
  187.3780  177.0170  147.1340 C   0  0  0  0  0  1  0  0  0  0  0  0
  186.1430  179.5300  147.5300 C   0  0  0  0  0  1  0  0  0  0  0  0
  184.1640  178.4330  144.4150 C   0  0  0  0  0  2  0  0  0  0  0  0
  189.4480  173.5860  142.2510 C   0  0  2  0  0  3  0  0  0  0  0  0
  191.9090  173.0940  144.2390 C   0  0  0  0  0  2  0  0  0  0  0  0
  187.7500  175.9800  144.6100 N   0  0  0  0  0  0  0  0  0  0  0  0
  185.2780  178.6140  143.4030 C   0  0  0  0  0  2  0  0  0  0  0  0
  189.1850  174.3730  143.4840 N   0  0  0  0  0  0  0  0  0  0  0  0
  191.1970  173.2480  140.5750 C   0  0  0  0  0  2  0  0  0  0  0  0
  186.2780  177.4840  143.4550 C   0  0  0  0  0  0  0  0  0  0  0  0
  184.5210  179.1270  145.7240 C   0  0  0  0  0  2  0  0  0  0  0  0
  191.8270  173.8050  142.9610 N   0  0  0  0  0  0  0  0  0  0  0  0
  187.7030  175.9150  142.2350 C   0  0  0  0  0  0  0  0  0  0  0  0
  186.3650  177.4250  146.0600 C   0  0  1  0  0  3  0  0  0  0  0  0
  188.2040  175.4360  143.4500 C   0  0  0  0  0  0  0  0  0  0  0  0
  186.7460  176.9110  139.7990 C   0  0  0  0  0  3  0  0  0  0  0  0
  190.5410  172.7290  144.8140 C   0  0  0  0  0  2  0  0  0  0  0  0
  186.2660  177.4320  141.0020 C   0  0  0  0  0  3  0  0  0  0  0  0
  189.6170  173.9350  144.8220 C   0  0  0  0  0  2  0  0  0  0  0  0
  190.8940  173.0780  142.0740 C   0  0  1  0  0  3  0  0  0  0  0  0
  187.7040  175.8970  139.8100 C   0  0  0  0  0  3  0  0  0  0  0  0
  189.1730  174.3650  141.0560 N   0  0  0  0  0  0  0  0  0  0  0  0
  193.1870  173.7890  142.4360 C   0  0  0  0  0  2  0  0  0  0  0  0
  194.1450  174.3010  143.4970 C   0  0  0  0  0  2  0  0  0  0  0  0
  196.4790  176.9110  142.8990 O   0  0  0  0  0  0  0  0  0  0  0  0
  194.5500  176.0870  141.8160 C   0  0  0  0  0  2  0  0  0  0  0  0
  194.4390  175.7750  143.2810 C   0  0  2  0  0  3  0  0  0  0  0  0
  195.9850  176.5220  141.6460 C   0  0  0  0  0  2  0  0  0  0  0  0
  195.8110  176.0970  143.8250 C   0  0  0  0  0  2  0  0  0  0  0  0
  1 27  1  0  0  0  0
  1 18  1  0  0  0  0
  2 14  1  0  0  0  0
  2 27  1  0  0  0  0
  3  7  1  1  0  0  0
  4 15  1  0  0  0  0
  5 19  1  0  0  0  0
  8 16  1  0  0  0  0
  9 27  1  6  0  0  0
  9 13  1  0  0  0  0
 10 22  1  0  0  0  0
 11  5  1  0  0  0  0
 12 15  1  0  0  0  0
 12  8  1  0  0  0  0
 13 24  1  0  0  0  0
 15  5  2  0  0  0  0
 16  3  1  0  0  0  0
 17 10  1  0  0  0  0
 18  4  2  0  0  0  0
 18 20  1  0  0  0  0
 19  3  1  0  0  0  0
 19  6  1  1  0  0  0
 20 13  1  0  0  0  0
 20 11  2  0  0  0  0
 21 26  1  0  0  0  0
 21 23  2  0  0  0  0
 22 24  1  0  0  0  0
 23  4  1  0  0  0  0
 25 14  1  6  0  0  0
 25  9  1  0  0  0  0
 25 17  1  0  0  0  0
 26  1  2  0  0  0  0
 28 17  1  0  0  0  0
 28 29  1  0  0  0  0
 30 34  1  0  0  0  0
 31 32  1  0  0  0  0
 32 29  1  6  0  0  0
 32 34  1  0  0  0  0
 33 31  1  0  0  0  0
 33 30  1  0  0  0  0
M  END
>  <MODEL>
5

>  <REMARK>
 VINA RESULT:      -7.8      2.902      8.786
  Name = 
  3 active torsions:
  status: ('A' for Active; 'I' for Inactive)
    1  A    between atoms: N_17  and  C_28
    2  A    between atoms: C_28  and  C_29
    3  A    between atoms: C_29  and  C_32
                            x       y       z     vdW  Elec       q    Type
                         _______ _______ _______ _____ _____    ______ ____

>  <TORSDO>
F 3

$$$$
=
 OpenBabel11112417573D

 34 40  0  0  1  0  0  0  0  0999 V2000
  189.2650  174.2500  141.5460 C   0  0  0  0  0  0  0  0  0  0  0  0
  187.2550  175.7160  141.9730 C   0  0  0  0  0  2  0  0  0  0  0  0
  194.0340  170.6400  144.3240 C   0  0  2  0  0  3  0  0  0  0  0  0
  190.9790  172.5200  141.6990 C   0  0  0  0  0  0  0  0  0  0  0  0
  192.5920  172.6170  143.5270 C   0  0  0  0  0  0  0  0  0  0  0  0
  193.8950  172.8090  145.6770 C   0  0  0  0  0  1  0  0  0  0  0  0
  194.8100  170.1370  145.5350 C   0  0  0  0  0  1  0  0  0  0  0  0
  194.1860  170.7030  141.7770 C   0  0  0  0  0  2  0  0  0  0  0  0
  189.3750  176.3140  142.9950 C   0  0  2  0  0  3  0  0  0  0  0  0
  189.0310  177.3400  146.0080 C   0  0  0  0  0  2  0  0  0  0  0  0
  191.9880  173.7700  143.9390 N   0  0  0  0  0  0  0  0  0  0  0  0
  192.6710  170.6770  141.8260 C   0  0  0  0  0  2  0  0  0  0  0  0
  190.3390  175.5530  143.8340 N   0  0  0  0  0  0  0  0  0  0  0  0
  186.9980  176.8790  142.9080 C   0  0  0  0  0  2  0  0  0  0  0  0
  192.1000  171.9700  142.3560 C   0  0  0  0  0  0  0  0  0  0  0  0
  194.7650  170.1500  143.0750 C   0  0  0  0  0  2  0  0  0  0  0  0
  188.1380  176.5640  145.1440 N   0  0  0  0  0  0  0  0  0  0  0  0
  190.3880  173.7080  142.1820 C   0  0  0  0  0  0  0  0  0  0  0  0
  193.8410  172.1720  144.2860 C   0  0  1  0  0  3  0  0  0  0  0  0
  190.9150  174.3300  143.3200 C   0  0  0  0  0  0  0  0  0  0  0  0
  189.2960  172.4370  139.9390 C   0  0  0  0  0  3  0  0  0  0  0  0
  190.4440  177.4790  145.4440 C   0  0  0  0  0  2  0  0  0  0  0  0
  190.4200  171.8980  140.5680 C   0  0  0  0  0  3  0  0  0  0  0  0
  190.9950  176.1280  145.0210 C   0  0  0  0  0  2  0  0  0  0  0  0
  188.2660  177.0650  143.7590 C   0  0  1  0  0  3  0  0  0  0  0  0
  188.7170  173.6070  140.4290 C   0  0  0  0  0  3  0  0  0  0  0  0
  188.6720  175.4390  142.0720 N   0  0  0  0  0  0  0  0  0  0  0  0
  186.8020  176.7990  145.6780 C   0  0  0  0  0  2  0  0  0  0  0  0
  186.8920  177.7370  146.8690 C   0  0  0  0  0  2  0  0  0  0  0  0
  184.5890  179.5770  144.8860 O   0  0  0  0  0  0  0  0  0  0  0  0
  184.4860  178.3610  146.9070 C   0  0  0  0  0  2  0  0  0  0  0  0
  185.8890  178.8680  146.7320 C   0  0  2  0  0  3  0  0  0  0  0  0
  183.8430  178.6020  145.5630 C   0  0  0  0  0  2  0  0  0  0  0  0
  185.9120  179.3890  145.3140 C   0  0  0  0  0  2  0  0  0  0  0  0
  1 27  1  0  0  0  0
  1 18  1  0  0  0  0
  2 27  1  0  0  0  0
  2 14  1  0  0  0  0
  3  7  1  1  0  0  0
  4 18  2  0  0  0  0
  4 15  1  0  0  0  0
  5 11  1  0  0  0  0
  5 19  1  0  0  0  0
  8 12  1  0  0  0  0
  8 16  1  0  0  0  0
  9 27  1  6  0  0  0
  9 25  1  0  0  0  0
  9 13  1  0  0  0  0
 12 15  1  0  0  0  0
 13 24  1  0  0  0  0
 15  5  2  0  0  0  0
 16  3  1  0  0  0  0
 17 28  1  0  0  0  0
 17 10  1  0  0  0  0
 18 20  1  0  0  0  0
 19  3  1  0  0  0  0
 19  6  1  1  0  0  0
 20 13  1  0  0  0  0
 20 11  2  0  0  0  0
 21 26  1  0  0  0  0
 21 23  2  0  0  0  0
 22 10  1  0  0  0  0
 23  4  1  0  0  0  0
 24 22  1  0  0  0  0
 25 14  1  6  0  0  0
 25 17  1  0  0  0  0
 26  1  2  0  0  0  0
 28 29  1  0  0  0  0
 30 34  1  0  0  0  0
 30 33  1  0  0  0  0
 32 29  1  6  0  0  0
 32 31  1  0  0  0  0
 33 31  1  0  0  0  0
 34 32  1  0  0  0  0
M  END
>  <MODEL>
6

>  <REMARK>
 VINA RESULT:      -7.7      2.774      4.725
  Name = 
  3 active torsions:
  status: ('A' for Active; 'I' for Inactive)
    1  A    between atoms: N_17  and  C_28
    2  A    between atoms: C_28  and  C_29
    3  A    between atoms: C_29  and  C_32
                            x       y       z     vdW  Elec       q    Type
                         _______ _______ _______ _____ _____    ______ ____

>  <TORSDO>
F 3

$$$$
=
 OpenBabel11112417573D

 34 40  0  0  1  0  0  0  0  0999 V2000
  189.5980  174.1260  141.1570 C   0  0  0  0  0  0  0  0  0  0  0  0
  187.4360  174.7990  142.2720 C   0  0  0  0  0  2  0  0  0  0  0  0
  196.0350  172.9980  142.0390 C   0  0  2  0  0  3  0  0  0  0  0  0
  191.8030  173.1930  140.6920 C   0  0  0  0  0  0  0  0  0  0  0  0
  193.7500  174.1590  141.8020 C   0  0  0  0  0  0  0  0  0  0  0  0
  195.5000  175.1470  143.3240 C   0  0  0  0  0  1  0  0  0  0  0  0
  197.3000  173.0110  142.8870 C   0  0  0  0  0  1  0  0  0  0  0  0
  195.2970  172.7150  139.6120 C   0  0  0  0  0  2  0  0  0  0  0  0
  189.3500  176.2850  142.4410 C   0  0  2  0  0  3  0  0  0  0  0  0
  189.6440  177.5680  145.3580 C   0  0  0  0  0  2  0  0  0  0  0  0
  192.9100  175.0580  142.3920 N   0  0  0  0  0  0  0  0  0  0  0  0
  194.0280  172.1430  140.2120 C   0  0  0  0  0  2  0  0  0  0  0  0
  190.7540  176.0720  142.8780 N   0  0  0  0  0  0  0  0  0  0  0  0
  187.0620  175.9170  143.2230 C   0  0  0  0  0  2  0  0  0  0  0  0
  193.1990  173.2020  140.8990 C   0  0  0  0  0  0  0  0  0  0  0  0
  196.4420  172.6230  140.6140 C   0  0  0  0  0  2  0  0  0  0  0  0
  188.9030  176.3940  144.8900 N   0  0  0  0  0  0  0  0  0  0  0  0
  190.9850  174.1410  141.3440 C   0  0  0  0  0  0  0  0  0  0  0  0
  195.2460  174.3270  142.0560 C   0  0  1  0  0  3  0  0  0  0  0  0
  191.5640  175.0810  142.2030 C   0  0  0  0  0  0  0  0  0  0  0  0
  189.8150  172.2250  139.6700 C   0  0  0  0  0  3  0  0  0  0  0  0
  190.6100  178.1270  144.3150 C   0  0  0  0  0  2  0  0  0  0  0  0
  191.1990  172.2410  139.8510 C   0  0  0  0  0  3  0  0  0  0  0  0
  191.4800  177.0240  143.7350 C   0  0  0  0  0  2  0  0  0  0  0  0
  188.3540  176.6860  143.5490 C   0  0  1  0  0  3  0  0  0  0  0  0
  189.0150  173.1620  140.3250 C   0  0  0  0  0  3  0  0  0  0  0  0
  188.7910  175.0800  141.8480 N   0  0  0  0  0  0  0  0  0  0  0  0
  187.8430  176.2030  145.8730 C   0  0  0  0  0  2  0  0  0  0  0  0
  187.7450  177.4330  146.7560 C   0  0  0  0  0  2  0  0  0  0  0  0
  184.5740  179.0320  146.8110 O   0  0  0  0  0  0  0  0  0  0  0  0
  185.3500  176.8250  146.4920 C   0  0  0  0  0  2  0  0  0  0  0  0
  186.3500  177.5600  147.3390 C   0  0  2  0  0  3  0  0  0  0  0  0
  184.4440  177.9150  145.9740 C   0  0  0  0  0  2  0  0  0  0  0  0
  185.9020  179.0010  147.2600 C   0  0  0  0  0  2  0  0  0  0  0  0
  1 18  1  0  0  0  0
  1 27  1  0  0  0  0
  2 14  1  0  0  0  0
  3 19  1  0  0  0  0
  3  7  1  1  0  0  0
  4 15  2  0  0  0  0
  4 18  1  0  0  0  0
  5 19  1  0  0  0  0
  5 11  2  0  0  0  0
  8 12  1  0  0  0  0
  8 16  1  0  0  0  0
  9 27  1  1  0  0  0
  9 13  1  0  0  0  0
  9 25  1  0  0  0  0
 12 15  1  0  0  0  0
 13 24  1  0  0  0  0
 15  5  1  0  0  0  0
 16  3  1  0  0  0  0
 17 10  1  0  0  0  0
 17 28  1  0  0  0  0
 18 20  2  0  0  0  0
 19  6  1  1  0  0  0
 20 11  1  0  0  0  0
 20 13  1  0  0  0  0
 21 23  2  0  0  0  0
 21 26  1  0  0  0  0
 22 10  1  0  0  0  0
 23  4  1  0  0  0  0
 24 22  1  0  0  0  0
 25 14  1  6  0  0  0
 25 17  1  0  0  0  0
 26  1  2  0  0  0  0
 27  2  1  0  0  0  0
 28 29  1  0  0  0  0
 30 34  1  0  0  0  0
 31 32  1  0  0  0  0
 32 29  1  6  0  0  0
 33 31  1  0  0  0  0
 33 30  1  0  0  0  0
 34 32  1  0  0  0  0
M  END
>  <MODEL>
7

>  <REMARK>
 VINA RESULT:      -7.4      1.796      4.134
  Name = 
  3 active torsions:
  status: ('A' for Active; 'I' for Inactive)
    1  A    between atoms: N_17  and  C_28
    2  A    between atoms: C_28  and  C_29
    3  A    between atoms: C_29  and  C_32
                            x       y       z     vdW  Elec       q    Type
                         _______ _______ _______ _____ _____    ______ ____

>  <TORSDO>
F 3

$$$$
=
 OpenBabel11112417573D

 34 40  0  0  1  0  0  0  0  0999 V2000
  190.8810  175.2350  146.1540 C   0  0  0  0  0  0  0  0  0  0  0  0
  192.9740  173.8240  146.1340 C   0  0  0  0  0  2  0  0  0  0  0  0
  186.0560  177.8330  142.4860 C   0  0  2  0  0  3  0  0  0  0  0  0
  188.6830  176.1740  145.6640 C   0  0  0  0  0  0  0  0  0  0  0  0
  188.3480  177.3500  143.5530 C   0  0  0  0  0  0  0  0  0  0  0  0
  188.2300  178.2160  141.1880 C   0  0  0  0  0  1  0  0  0  0  0  0
  185.4030  178.1450  141.1450 C   0  0  0  0  0  1  0  0  0  0  0  0
  185.8850  178.4670  144.9520 C   0  0  0  0  0  2  0  0  0  0  0  0
  192.8770  175.7910  144.7130 C   0  0  2  0  0  3  0  0  0  0  0  0
  194.1670  175.2770  141.8280 C   0  0  0  0  0  2  0  0  0  0  0  0
  189.6640  177.1240  143.2690 N   0  0  0  0  0  0  0  0  0  0  0  0
  186.3840  177.0580  145.2040 C   0  0  0  0  0  2  0  0  0  0  0  0
  191.8930  176.2540  143.6990 N   0  0  0  0  0  0  0  0  0  0  0  0
  194.2170  173.8230  145.2690 C   0  0  0  0  0  2  0  0  0  0  0  0
  187.8290  176.8890  144.7980 C   0  0  0  0  0  0  0  0  0  0  0  0
  185.2590  178.5650  143.5650 C   0  0  0  0  0  2  0  0  0  0  0  0
  193.6860  174.3450  142.8520 N   0  0  0  0  0  0  0  0  0  0  0  0
  190.0330  175.9590  145.3080 C   0  0  0  0  0  0  0  0  0  0  0  0
  187.5550  178.2000  142.5620 C   0  0  1  0  0  3  0  0  0  0  0  0
  190.5130  176.4490  144.0890 C   0  0  0  0  0  0  0  0  0  0  0  0
  189.0600  174.9260  147.7220 C   0  0  0  0  0  3  0  0  0  0  0  0
  193.7730  176.7270  142.1010 C   0  0  0  0  0  2  0  0  0  0  0  0
  188.2140  175.6530  146.8830 C   0  0  0  0  0  3  0  0  0  0  0  0
  192.2880  176.8380  142.4060 C   0  0  0  0  0  2  0  0  0  0  0  0
  194.0160  174.8940  144.1840 C   0  0  1  0  0  3  0  0  0  0  0  0
  190.3900  174.7130  147.3570 C   0  0  0  0  0  3  0  0  0  0  0  0
  192.2350  175.0100  145.7570 N   0  0  0  0  0  0  0  0  0  0  0  0
  194.4030  173.1010  142.5930 C   0  0  0  0  0  2  0  0  0  0  0  0
  193.4120  172.0160  142.2150 C   0  0  0  0  0  2  0  0  0  0  0  0
  190.0200  171.8160  141.1800 O   0  0  0  0  0  0  0  0  0  0  0  0
  191.1620  171.7820  143.2460 C   0  0  0  0  0  2  0  0  0  0  0  0
  191.9930  172.5520  142.2590 C   0  0  2  0  0  3  0  0  0  0  0  0
  190.1090  171.1180  142.3930 C   0  0  0  0  0  2  0  0  0  0  0  0
  191.3160  172.2900  140.9340 C   0  0  0  0  0  2  0  0  0  0  0  0
  1 26  1  0  0  0  0
  3  7  1  6  0  0  0
  3 19  1  0  0  0  0
  3 16  1  0  0  0  0
  4 23  2  0  0  0  0
  5 15  2  0  0  0  0
  8 12  1  0  0  0  0
  9 13  1  6  0  0  0
  9 27  1  0  0  0  0
 10 22  1  0  0  0  0
 10 17  1  0  0  0  0
 11  5  1  0  0  0  0
 11 20  2  0  0  0  0
 13 20  1  0  0  0  0
 14  2  1  0  0  0  0
 15 12  1  0  0  0  0
 15  4  1  0  0  0  0
 16  8  1  0  0  0  0
 17 25  1  0  0  0  0
 18  4  1  0  0  0  0
 18  1  2  0  0  0  0
 19  6  1  6  0  0  0
 19  5  1  0  0  0  0
 20 18  1  0  0  0  0
 22 24  1  0  0  0  0
 23 21  1  0  0  0  0
 24 13  1  0  0  0  0
 25  9  1  0  0  0  0
 25 14  1  1  0  0  0
 26 21  2  0  0  0  0
 27  2  1  0  0  0  0
 27  1  1  0  0  0  0
 28 17  1  0  0  0  0
 29 28  1  0  0  0  0
 30 33  1  0  0  0  0
 32 29  1  6  0  0  0
 32 31  1  0  0  0  0
 33 31  1  0  0  0  0
 34 30  1  0  0  0  0
 34 32  1  0  0  0  0
M  END
>  <MODEL>
8

>  <REMARK>
 VINA RESULT:      -7.4      2.665      7.404
  Name = 
  3 active torsions:
  status: ('A' for Active; 'I' for Inactive)
    1  A    between atoms: N_17  and  C_28
    2  A    between atoms: C_28  and  C_29
    3  A    between atoms: C_29  and  C_32
                            x       y       z     vdW  Elec       q    Type
                         _______ _______ _______ _____ _____    ______ ____

>  <TORSDO>
F 3

$$$$
=
 OpenBabel11112417573D

 34 40  0  0  1  0  0  0  0  0999 V2000
  191.8810  173.6910  143.1520 C   0  0  0  0  0  0  0  0  0  0  0  0
  192.6220  171.9410  141.4910 C   0  0  0  0  0  2  0  0  0  0  0  0
  186.7070  176.5860  146.0380 C   0  0  2  0  0  3  0  0  0  0  0  0
  190.6610  174.9310  144.8620 C   0  0  0  0  0  0  0  0  0  0  0  0
  188.4690  175.8510  144.3120 C   0  0  0  0  0  0  0  0  0  0  0  0
  186.1270  176.3950  143.5510 C   0  0  0  0  0  1  0  0  0  0  0  0
  185.2100  176.8240  146.1910 C   0  0  0  0  0  1  0  0  0  0  0  0
  188.9410  177.5680  146.7820 C   0  0  0  0  0  2  0  0  0  0  0  0
  191.0980  173.6820  140.7520 C   0  0  2  0  0  3  0  0  0  0  0  0
  188.8070  172.5590  138.8180 C   0  0  0  0  0  2  0  0  0  0  0  0
  188.6280  175.3580  143.0500 N   0  0  0  0  0  0  0  0  0  0  0  0
  189.4410  176.1400  146.6870 C   0  0  0  0  0  2  0  0  0  0  0  0
  189.7960  174.1700  141.2780 N   0  0  0  0  0  0  0  0  0  0  0  0
  192.1900  171.6000  140.0800 C   0  0  0  0  0  2  0  0  0  0  0  0
  189.5210  175.6630  145.2560 C   0  0  0  0  0  0  0  0  0  0  0  0
  187.4260  177.5870  146.9420 C   0  0  0  0  0  2  0  0  0  0  0  0
  189.6970  171.8760  139.7620 N   0  0  0  0  0  0  0  0  0  0  0  0
  190.7610  174.4330  143.5450 C   0  0  0  0  0  0  0  0  0  0  0  0
  187.2200  176.6870  144.5840 C   0  0  1  0  0  3  0  0  0  0  0  0
  189.7200  174.6590  142.6380 C   0  0  0  0  0  0  0  0  0  0  0  0
  192.8210  173.9270  145.3730 C   0  0  0  0  0  3  0  0  0  0  0  0
  188.8350  174.0800  138.9590 C   0  0  0  0  0  2  0  0  0  0  0  0
  191.7080  174.6730  145.7650 C   0  0  0  0  0  3  0  0  0  0  0  0
  188.6520  174.4940  140.4100 C   0  0  0  0  0  2  0  0  0  0  0  0
  191.0200  172.5330  139.7260 C   0  0  1  0  0  3  0  0  0  0  0  0
  192.9060  173.4340  144.0710 C   0  0  0  0  0  3  0  0  0  0  0  0
  191.9450  173.1770  141.8210 N   0  0  0  0  0  0  0  0  0  0  0  0
  189.7680  170.5010  139.2800 C   0  0  0  0  0  2  0  0  0  0  0  0
  189.6990  170.4930  137.7630 C   0  0  0  0  0  2  0  0  0  0  0  0
  192.6880  168.7740  136.9070 O   0  0  0  0  0  0  0  0  0  0  0  0
  190.8400  168.3550  138.3160 C   0  0  0  0  0  2  0  0  0  0  0  0
  190.3920  169.2630  137.2060 C   0  0  2  0  0  3  0  0  0  0  0  0
  192.3460  168.3590  138.2020 C   0  0  0  0  0  2  0  0  0  0  0  0
  191.6800  169.6740  136.5320 C   0  0  0  0  0  2  0  0  0  0  0  0
  1 18  2  0  0  0  0
  1 26  1  0  0  0  0
  2 27  1  0  0  0  0
  3  7  1  6  0  0  0
  3 16  1  0  0  0  0
  4 15  1  0  0  0  0
  4 23  2  0  0  0  0
  5 19  1  0  0  0  0
  5 15  2  0  0  0  0
  8 16  1  0  0  0  0
  9 13  1  1  0  0  0
  9 27  1  0  0  0  0
 10 22  1  0  0  0  0
 10 17  1  0  0  0  0
 11  5  1  0  0  0  0
 12  8  1  0  0  0  0
 13 20  1  0  0  0  0
 14  2  1  0  0  0  0
 15 12  1  0  0  0  0
 18  4  1  0  0  0  0
 19  6  1  6  0  0  0
 19  3  1  0  0  0  0
 20 11  2  0  0  0  0
 20 18  1  0  0  0  0
 21 23  1  0  0  0  0
 22 24  1  0  0  0  0
 24 13  1  0  0  0  0
 25 17  1  0  0  0  0
 25 14  1  1  0  0  0
 25  9  1  0  0  0  0
 26 21  2  0  0  0  0
 27  1  1  0  0  0  0
 28 17  1  0  0  0  0
 29 28  1  0  0  0  0
 30 33  1  0  0  0  0
 32 29  1  1  0  0  0
 32 31  1  0  0  0  0
 33 31  1  0  0  0  0
 34 30  1  0  0  0  0
 34 32  1  0  0  0  0
M  END
>  <MODEL>
9

>  <REMARK>
 VINA RESULT:      -7.4      4.307      8.478
  Name = 
  3 active torsions:
  status: ('A' for Active; 'I' for Inactive)
    1  A    between atoms: N_17  and  C_28
    2  A    between atoms: C_28  and  C_29
    3  A    between atoms: C_29  and  C_32
                            x       y       z     vdW  Elec       q    Type
                         _______ _______ _______ _____ _____    ______ ____

>  <TORSDO>
F 3

$$$$
