=
 OpenBabel11112416273D

 32 37  0  0  1  0  0  0  0  0999 V2000
  195.1150  176.6250  144.7700 C   0  0  0  0  0  2  0  0  0  0  0  0
  190.1220  175.7180  145.5610 C   0  0  1  0  0  3  0  0  0  0  0  0
  189.1120  174.5210  140.8400 C   0  0  0  0  0  3  0  0  0  0  0  0
  187.8100  174.9830  141.0180 C   0  0  0  0  0  3  0  0  0  0  0  0
  188.4250  177.1200  146.8390 C   0  0  2  0  0  3  0  0  0  0  0  0
  187.1010  177.7950  146.7120 C   0  0  0  0  0  0  0  0  0  0  0  0
  192.5430  175.4770  146.1490 C   0  0  1  0  0  3  0  0  0  0  0  0
  191.7440  174.3580  144.2170 C   0  0  0  0  0  2  0  0  0  0  0  0
  185.1390  178.5090  145.8510 C   0  0  0  0  0  0  0  0  0  0  0  0
  194.0440  174.2950  144.6770 C   0  0  0  0  0  2  0  0  0  0  0  0
  190.0030  174.5740  141.9100 C   0  0  0  0  0  3  0  0  0  0  0  0
  190.5100  175.1440  144.2610 N   0  0  0  0  0  0  0  0  0  0  0  0
  189.5960  175.0910  143.1480 C   0  0  0  0  0  0  0  0  0  0  0  0
  187.7960  176.0730  144.6090 C   0  0  2  0  0  3  0  0  0  0  0  0
  184.9730  178.3740  147.1260 N   0  0  0  0  0  0  0  0  0  0  0  0
  194.4990  177.1600  146.0730 C   0  0  0  0  0  2  0  0  0  0  0  0
  192.8530  175.1430  144.7490 N   0  0  2  0  0  0  0  0  0  0  0  0
  186.1970  177.8970  147.6720 C   0  0  0  0  0  3  0  0  0  0  0  0
  193.7230  176.1210  146.8930 C   0  0  0  0  0  2  0  0  0  0  0  0
  195.3480  175.1070  144.7720 C   0  0  1  0  0  3  0  0  0  0  0  0
  187.4250  175.4850  142.2210 N   0  0  0  0  0  0  0  0  0  0  0  0
  188.2820  175.5710  143.2780 C   0  0  0  0  0  0  0  0  0  0  0  0
  186.5490  176.9800  144.4540 C   0  0  0  0  0  2  0  0  0  0  0  0
  191.3350  176.4060  146.1940 C   0  0  0  0  0  2  0  0  0  0  0  0
  189.3210  177.9960  147.4530 O   0  0  0  0  0  1  0  0  0  0  0  0
  184.0610  179.0140  144.9570 C   0  0  0  0  0  1  0  0  0  0  0  0
  188.9420  176.7040  145.4420 C   0  0  2  0  0  3  0  0  0  0  0  0
  186.5220  178.1810  145.4020 C   0  0  2  0  0  3  0  0  0  0  0  0
  196.2220  174.7380  143.6690 N   0  0  0  0  0  2  0  0  0  0  0  0
  197.1980  173.6960  143.7570 C   0  0  0  0  0  0  0  0  0  0  0  0
  197.3460  172.8760  144.9930 C   0  0  0  0  0  1  0  0  0  0  0  0
  197.9410  173.4590  142.7700 O   0  0  0  0  0  0  0  0  0  0  0  0
  1 20  1  0  0  0  0
  1 16  1  0  0  0  0
  2 24  1  6  0  0  0
  3  4  2  0  0  0  0
  3 11  1  0  0  0  0
  4 21  1  0  0  0  0
  5 25  1  6  0  0  0
  6  5  1  0  0  0  0
  6 18  2  0  0  0  0
  7 24  1  6  0  0  0
  7 19  1  0  0  0  0
  8 12  1  0  0  0  0
  9 15  2  0  0  0  0
 10 17  1  0  0  0  0
 10 20  1  0  0  0  0
 11 13  2  0  0  0  0
 12  2  1  0  0  0  0
 13 22  1  0  0  0  0
 13 12  1  0  0  0  0
 14 23  1  6  0  0  0
 14 27  1  0  0  0  0
 15 18  1  0  0  0  0
 16 19  1  0  0  0  0
 17  8  1  1  0  0  0
 17  7  1  0  0  0  0
 20 29  1  6  0  0  0
 21 22  2  0  0  0  0
 22 14  1  0  0  0  0
 23 28  1  0  0  0  0
 26  9  1  0  0  0  0
 27  2  1  0  0  0  0
 27  5  1  0  0  0  0
 28  9  1  0  0  0  0
 28  6  1  0  0  0  0
 29 30  1  0  0  0  0
 30 31  1  0  0  0  0
 32 30  2  0  0  0  0
M  END
>  <MODEL>
1

>  <REMARK>
 VINA RESULT:      -9.2      0.000      0.000
  Name = 
  1 active torsions:
  status: ('A' for Active; 'I' for Inactive)
    1  A    between atoms: C_20  and  N_29
                            x       y       z     vdW  Elec       q    Type
                         _______ _______ _______ _____ _____    ______ ____

>  <TORSDO>
F 1

$$$$
=
 OpenBabel11112416273D

 32 37  0  0  1  0  0  0  0  0999 V2000
  194.8620  175.9500  145.1020 C   0  0  0  0  0  2  0  0  0  0  0  0
  189.7940  175.1830  144.7810 C   0  0  1  0  0  3  0  0  0  0  0  0
  189.8630  173.5820  140.0710 C   0  0  0  0  0  3  0  0  0  0  0  0
  188.5710  174.0750  139.9020 C   0  0  0  0  0  3  0  0  0  0  0  0
  187.8970  176.7150  145.5060 C   0  0  2  0  0  3  0  0  0  0  0  0
  186.6610  177.3940  145.0180 C   0  0  0  0  0  0  0  0  0  0  0  0
  192.0050  174.9640  145.9350 C   0  0  1  0  0  3  0  0  0  0  0  0
  191.6360  173.6870  143.9710 C   0  0  0  0  0  2  0  0  0  0  0  0
  184.9760  178.0540  143.6670 C   0  0  0  0  0  0  0  0  0  0  0  0
  193.7640  173.6350  144.9580 C   0  0  0  0  0  2  0  0  0  0  0  0
  190.4840  173.7190  141.3120 C   0  0  0  0  0  3  0  0  0  0  0  0
  190.4530  174.4900  143.6600 N   0  0  0  0  0  0  0  0  0  0  0  0
  189.8200  174.3500  142.3730 C   0  0  0  0  0  0  0  0  0  0  0  0
  187.7650  175.4810  143.2870 C   0  0  2  0  0  3  0  0  0  0  0  0
  184.5150  178.0360  144.8750 N   0  0  0  0  0  0  0  0  0  0  0  0
  193.9810  176.6070  146.1760 C   0  0  0  0  0  2  0  0  0  0  0  0
  192.6190  174.5010  144.6780 N   0  0  2  0  0  0  0  0  0  0  0  0
  185.5640  177.5930  145.7290 C   0  0  0  0  0  3  0  0  0  0  0  0
  193.0020  175.6560  146.8770 C   0  0  0  0  0  2  0  0  0  0  0  0
  195.0380  174.4350  145.2860 C   0  0  1  0  0  3  0  0  0  0  0  0
  187.9360  174.6870  140.9360 N   0  0  0  0  0  0  0  0  0  0  0  0
  188.5280  174.8560  142.1520 C   0  0  0  0  0  0  0  0  0  0  0  0
  186.6190  176.3870  142.7700 C   0  0  0  0  0  2  0  0  0  0  0  0
  190.8510  175.9080  145.6200 C   0  0  0  0  0  2  0  0  0  0  0  0
  188.6560  177.6310  146.2360 O   0  0  0  0  0  1  0  0  0  0  0  0
  184.1520  178.4900  142.5070 C   0  0  0  0  0  1  0  0  0  0  0  0
  188.7080  176.1690  144.3080 C   0  0  2  0  0  3  0  0  0  0  0  0
  186.4130  177.6690  143.5810 C   0  0  2  0  0  3  0  0  0  0  0  0
  196.1300  173.9570  144.4520 N   0  0  0  0  0  2  0  0  0  0  0  0
  196.9910  172.8790  144.8290 C   0  0  0  0  0  0  0  0  0  0  0  0
  196.7840  172.1330  146.1030 C   0  0  0  0  0  1  0  0  0  0  0  0
  197.9370  172.5470  144.0680 O   0  0  0  0  0  0  0  0  0  0  0  0
  1 20  1  0  0  0  0
  1 16  1  0  0  0  0
  2 24  1  6  0  0  0
  3 11  1  0  0  0  0
  4  3  2  0  0  0  0
  4 21  1  0  0  0  0
  5 25  1  6  0  0  0
  6  5  1  0  0  0  0
  6 18  2  0  0  0  0
  7 24  1  6  0  0  0
  7 19  1  0  0  0  0
  9 15  2  0  0  0  0
 10 20  1  0  0  0  0
 11 13  2  0  0  0  0
 12  8  1  0  0  0  0
 12  2  1  0  0  0  0
 13 12  1  0  0  0  0
 14 23  1  6  0  0  0
 14 27  1  0  0  0  0
 15 18  1  0  0  0  0
 16 19  1  0  0  0  0
 17  8  1  6  0  0  0
 17 10  1  0  0  0  0
 17  7  1  0  0  0  0
 20 29  1  6  0  0  0
 21 22  2  0  0  0  0
 22 13  1  0  0  0  0
 22 14  1  0  0  0  0
 23 28  1  0  0  0  0
 26  9  1  0  0  0  0
 27  2  1  0  0  0  0
 27  5  1  0  0  0  0
 28  9  1  0  0  0  0
 28  6  1  0  0  0  0
 29 30  1  0  0  0  0
 30 31  1  0  0  0  0
 32 30  2  0  0  0  0
M  END
>  <MODEL>
2

>  <REMARK>
 VINA RESULT:      -8.7      1.227      1.434
  Name = 
  1 active torsions:
  status: ('A' for Active; 'I' for Inactive)
    1  A    between atoms: C_20  and  N_29
                            x       y       z     vdW  Elec       q    Type
                         _______ _______ _______ _____ _____    ______ ____

>  <TORSDO>
F 1

$$$$
=
 OpenBabel11112416273D

 32 37  0  0  1  0  0  0  0  0999 V2000
  183.8550  177.9160  142.9060 C   0  0  0  0  0  2  0  0  0  0  0  0
  188.9210  177.1030  142.6760 C   0  0  1  0  0  3  0  0  0  0  0  0
  188.6200  173.1200  139.7110 C   0  0  0  0  0  3  0  0  0  0  0  0
  189.7950  172.6310  140.2760 C   0  0  0  0  0  3  0  0  0  0  0  0
  190.6220  177.0720  144.5680 C   0  0  2  0  0  3  0  0  0  0  0  0
  191.6810  176.2360  145.2040 C   0  0  0  0  0  0  0  0  0  0  0  0
  186.9010  178.5770  142.5640 C   0  0  1  0  0  3  0  0  0  0  0  0
  187.2600  177.0360  140.7990 C   0  0  0  0  0  2  0  0  0  0  0  0
  193.0970  174.5230  145.6100 C   0  0  0  0  0  0  0  0  0  0  0  0
  185.2780  178.2910  140.8040 C   0  0  0  0  0  2  0  0  0  0  0  0
  188.1150  174.3440  140.1480 C   0  0  0  0  0  3  0  0  0  0  0  0
  188.2670  176.3380  141.6010 N   0  0  0  0  0  0  0  0  0  0  0  0
  188.7790  175.0690  141.1470 C   0  0  0  0  0  0  0  0  0  0  0  0
  190.7160  175.3110  142.7370 C   0  0  2  0  0  3  0  0  0  0  0  0
  193.6750  175.6050  146.0170 N   0  0  0  0  0  0  0  0  0  0  0  0
  184.7290  178.6150  143.9600 C   0  0  0  0  0  2  0  0  0  0  0  0
  186.2410  177.6110  141.6700 N   0  0  2  0  0  0  0  0  0  0  0  0
  192.8010  176.6920  145.7380 C   0  0  0  0  0  3  0  0  0  0  0  0
  185.9100  179.4120  143.3900 C   0  0  0  0  0  2  0  0  0  0  0  0
  183.9360  178.5530  141.5110 C   0  0  1  0  0  3  0  0  0  0  0  0
  190.4300  173.3400  141.2460 N   0  0  0  0  0  0  0  0  0  0  0  0
  189.9470  174.5280  141.7090 C   0  0  0  0  0  0  0  0  0  0  0  0
  191.6490  174.3940  143.5680 C   0  0  0  0  0  2  0  0  0  0  0  0
  187.8560  177.8390  143.4950 C   0  0  0  0  0  2  0  0  0  0  0  0
  189.8090  177.6070  145.5680 O   0  0  0  0  0  1  0  0  0  0  0  0
  193.7200  173.1800  145.7630 C   0  0  0  0  0  1  0  0  0  0  0  0
  189.7870  176.2130  143.5900 C   0  0  2  0  0  3  0  0  0  0  0  0
  191.7350  174.7610  145.0520 C   0  0  2  0  0  3  0  0  0  0  0  0
  182.8510  178.0600  140.6760 N   0  0  0  0  0  2  0  0  0  0  0  0
  181.4810  178.4120  140.8810 C   0  0  0  0  0  0  0  0  0  0  0  0
  181.0800  179.3660  141.9550 C   0  0  0  0  0  1  0  0  0  0  0  0
  180.5960  177.9160  140.1380 O   0  0  0  0  0  0  0  0  0  0  0  0
  1 16  1  0  0  0  0
  2 24  1  1  0  0  0
  2 27  1  0  0  0  0
  3 11  2  0  0  0  0
  3  4  1  0  0  0  0
  4 21  2  0  0  0  0
  5  6  1  0  0  0  0
  5 25  1  1  0  0  0
  6 18  2  0  0  0  0
  7 19  1  1  0  0  0
  7 24  1  0  0  0  0
  8 12  1  0  0  0  0
  9 26  1  0  0  0  0
  9 15  2  0  0  0  0
 10 20  1  0  0  0  0
 10 17  1  0  0  0  0
 11 13  1  0  0  0  0
 12  2  1  0  0  0  0
 13 12  1  0  0  0  0
 13 22  2  0  0  0  0
 14 23  1  1  0  0  0
 14 27  1  0  0  0  0
 17  8  1  6  0  0  0
 17  7  1  0  0  0  0
 18 15  1  0  0  0  0
 19 16  1  0  0  0  0
 20 29  1  6  0  0  0
 20  1  1  0  0  0  0
 21 22  1  0  0  0  0
 22 14  1  0  0  0  0
 23 28  1  0  0  0  0
 27  5  1  0  0  0  0
 28  6  1  0  0  0  0
 28  9  1  0  0  0  0
 29 30  1  0  0  0  0
 30 31  1  0  0  0  0
 32 30  2  0  0  0  0
M  END
>  <MODEL>
3

>  <REMARK>
 VINA RESULT:      -8.5      3.117      8.684
  Name = 
  1 active torsions:
  status: ('A' for Active; 'I' for Inactive)
    1  A    between atoms: C_20  and  N_29
                            x       y       z     vdW  Elec       q    Type
                         _______ _______ _______ _____ _____    ______ ____

>  <TORSDO>
F 1

$$$$
=
 OpenBabel11112416273D

 32 37  0  0  1  0  0  0  0  0999 V2000
  191.8570  171.1890  142.2100 C   0  0  0  0  0  2  0  0  0  0  0  0
  189.6720  175.7230  143.2360 C   0  0  1  0  0  3  0  0  0  0  0  0
  192.0270  176.4050  147.5650 C   0  0  0  0  0  3  0  0  0  0  0  0
  190.9420  177.1520  148.0180 C   0  0  0  0  0  3  0  0  0  0  0  0
  187.2210  176.3880  143.0790 C   0  0  2  0  0  3  0  0  0  0  0  0
  186.0920  176.9670  143.8620 C   0  0  0  0  0  0  0  0  0  0  0  0
  190.8410  174.1140  141.7160 C   0  0  1  0  0  3  0  0  0  0  0  0
  192.0820  175.0770  143.4910 C   0  0  0  0  0  2  0  0  0  0  0  0
  184.9140  177.8840  145.5580 C   0  0  0  0  0  0  0  0  0  0  0  0
  193.1080  173.4300  142.1730 C   0  0  0  0  0  2  0  0  0  0  0  0
  191.9940  175.8760  146.2760 C   0  0  0  0  0  3  0  0  0  0  0  0
  190.8430  175.5490  144.1130 N   0  0  0  0  0  0  0  0  0  0  0  0
  190.8820  176.0880  145.4490 C   0  0  0  0  0  0  0  0  0  0  0  0
  188.6190  177.1240  145.0710 C   0  0  2  0  0  3  0  0  0  0  0  0
  184.4000  178.3190  144.4530 N   0  0  0  0  0  0  0  0  0  0  0  0
  190.5990  171.5620  141.4100 C   0  0  0  0  0  2  0  0  0  0  0  0
  191.8330  173.8360  142.7670 N   0  0  2  0  0  0  0  0  0  0  0  0
  185.1560  177.7680  143.3810 C   0  0  0  0  0  3  0  0  0  0  0  0
  190.6460  172.9420  140.7410 C   0  0  0  0  0  2  0  0  0  0  0  0
  193.1200  171.9450  141.7680 C   0  0  1  0  0  3  0  0  0  0  0  0
  189.8670  177.3510  147.2110 N   0  0  0  0  0  0  0  0  0  0  0  0
  189.7990  176.8260  145.9550 C   0  0  0  0  0  0  0  0  0  0  0  0
  187.3660  177.4960  145.9030 C   0  0  0  0  0  2  0  0  0  0  0  0
  189.5080  174.4790  142.3580 C   0  0  0  0  0  2  0  0  0  0  0  0
  186.7610  175.2680  142.3850 O   0  0  0  0  0  1  0  0  0  0  0  0
  184.3580  178.2440  146.8900 C   0  0  0  0  0  1  0  0  0  0  0  0
  188.3790  176.0010  144.0280 C   0  0  2  0  0  3  0  0  0  0  0  0
  186.0520  176.9450  145.3450 C   0  0  2  0  0  3  0  0  0  0  0  0
  194.3010  171.3070  142.3270 N   0  0  0  0  0  2  0  0  0  0  0  0
  195.4800  171.0330  141.5640 C   0  0  0  0  0  0  0  0  0  0  0  0
  195.5880  171.4400  140.1350 C   0  0  0  0  0  1  0  0  0  0  0  0
  196.4490  170.4460  142.1120 O   0  0  0  0  0  0  0  0  0  0  0  0
  2 24  1  1  0  0  0
  2 27  1  0  0  0  0
  2 12  1  0  0  0  0
  3  4  1  0  0  0  0
  5 25  1  1  0  0  0
  5  6  1  0  0  0  0
  5 27  1  0  0  0  0
  6 28  1  0  0  0  0
  7 19  1  6  0  0  0
  7 24  1  0  0  0  0
  7 17  1  0  0  0  0
  8 12  1  0  0  0  0
  9 26  1  0  0  0  0
 11  3  2  0  0  0  0
 12 13  1  0  0  0  0
 13 22  2  0  0  0  0
 13 11  1  0  0  0  0
 14 23  1  1  0  0  0
 14 22  1  0  0  0  0
 15  9  2  0  0  0  0
 16  1  1  0  0  0  0
 17 10  1  6  0  0  0
 17  8  1  0  0  0  0
 18  6  2  0  0  0  0
 18 15  1  0  0  0  0
 19 16  1  0  0  0  0
 20 10  1  0  0  0  0
 20  1  1  0  0  0  0
 20 29  1  1  0  0  0
 21  4  2  0  0  0  0
 22 21  1  0  0  0  0
 27 14  1  0  0  0  0
 28  9  1  0  0  0  0
 28 23  1  0  0  0  0
 30 32  2  0  0  0  0
 30 29  1  0  0  0  0
 31 30  1  0  0  0  0
M  END
>  <MODEL>
4

>  <REMARK>
 VINA RESULT:      -8.3      2.522      4.482
  Name = 
  1 active torsions:
  status: ('A' for Active; 'I' for Inactive)
    1  A    between atoms: C_20  and  N_29
                            x       y       z     vdW  Elec       q    Type
                         _______ _______ _______ _____ _____    ______ ____

>  <TORSDO>
F 1

$$$$
=
 OpenBabel11112416273D

 32 37  0  0  1  0  0  0  0  0999 V2000
  187.5570  176.8560  145.2120 C   0  0  0  0  0  2  0  0  0  0  0  0
  192.1790  175.0970  143.8290 C   0  0  1  0  0  3  0  0  0  0  0  0
  190.4410  171.3430  141.0660 C   0  0  0  0  0  3  0  0  0  0  0  0
  191.5980  170.6200  141.3510 C   0  0  0  0  0  3  0  0  0  0  0  0
  194.2300  174.6810  145.2770 C   0  0  2  0  0  3  0  0  0  0  0  0
  195.2240  173.6380  145.6610 C   0  0  0  0  0  0  0  0  0  0  0  0
  190.5120  176.9330  144.1670 C   0  0  1  0  0  3  0  0  0  0  0  0
  190.1510  175.4090  142.3880 C   0  0  0  0  0  2  0  0  0  0  0  0
  196.3360  171.6730  145.7520 C   0  0  0  0  0  0  0  0  0  0  0  0
  188.5040  177.0190  142.8340 C   0  0  0  0  0  2  0  0  0  0  0  0
  190.2970  172.6250  141.5920 C   0  0  0  0  0  3  0  0  0  0  0  0
  191.1610  174.5060  142.9440 N   0  0  0  0  0  0  0  0  0  0  0  0
  191.3000  173.1780  142.4020 C   0  0  0  0  0  0  0  0  0  0  0  0
  193.5590  172.9940  143.4970 C   0  0  2  0  0  3  0  0  0  0  0  0
  197.1910  172.6110  146.0000 N   0  0  0  0  0  0  0  0  0  0  0  0
  188.7670  177.3410  146.0260 C   0  0  0  0  0  2  0  0  0  0  0  0
  189.4900  176.1400  143.4630 N   0  0  2  0  0  0  0  0  0  0  0  0
  196.5040  173.8540  145.9160 C   0  0  0  0  0  3  0  0  0  0  0  0
  189.9180  177.9160  145.1890 C   0  0  0  0  0  2  0  0  0  0  0  0
  187.4370  177.5110  143.8280 C   0  0  1  0  0  3  0  0  0  0  0  0
  192.5630  171.1630  142.1380 N   0  0  0  0  0  0  0  0  0  0  0  0
  192.4380  172.4060  142.6850 C   0  0  0  0  0  0  0  0  0  0  0  0
  194.4620  171.8890  144.1020 C   0  0  0  0  0  2  0  0  0  0  0  0
  191.4940  175.9970  144.8620 C   0  0  0  0  0  2  0  0  0  0  0  0
  193.7870  175.3290  146.4300 O   0  0  0  0  0  1  0  0  0  0  0  0
  196.7060  170.2320  145.7740 C   0  0  0  0  0  1  0  0  0  0  0  0
  193.0430  174.0290  144.5290 C   0  0  2  0  0  3  0  0  0  0  0  0
  194.9560  172.1850  145.5200 C   0  0  2  0  0  3  0  0  0  0  0  0
  186.1160  177.2610  143.2730 N   0  0  0  0  0  2  0  0  0  0  0  0
  185.0550  178.2200  143.3110 C   0  0  0  0  0  0  0  0  0  0  0  0
  185.2610  179.5790  143.8880 C   0  0  0  0  0  1  0  0  0  0  0  0
  183.9290  177.9160  142.8410 O   0  0  0  0  0  0  0  0  0  0  0  0
  1 16  1  0  0  0  0
  2 27  1  0  0  0  0
  2 24  1  1  0  0  0
  3  4  2  0  0  0  0
  3 11  1  0  0  0  0
  4 21  1  0  0  0  0
  5  6  1  0  0  0  0
  5 25  1  1  0  0  0
  6 18  2  0  0  0  0
  7 24  1  1  0  0  0
  7 19  1  0  0  0  0
  8 12  1  0  0  0  0
  9 26  1  0  0  0  0
  9 15  2  0  0  0  0
 10 17  1  0  0  0  0
 10 20  1  0  0  0  0
 11 13  2  0  0  0  0
 12  2  1  0  0  0  0
 13 22  1  0  0  0  0
 13 12  1  0  0  0  0
 14 23  1  1  0  0  0
 14 27  1  0  0  0  0
 17  8  1  6  0  0  0
 17  7  1  0  0  0  0
 18 15  1  0  0  0  0
 19 16  1  0  0  0  0
 20 29  1  6  0  0  0
 20  1  1  0  0  0  0
 21 22  2  0  0  0  0
 22 14  1  0  0  0  0
 23 28  1  0  0  0  0
 27  5  1  0  0  0  0
 28  6  1  0  0  0  0
 28  9  1  0  0  0  0
 29 30  1  0  0  0  0
 30 31  1  0  0  0  0
 32 30  2  0  0  0  0
M  END
>  <MODEL>
5

>  <REMARK>
 VINA RESULT:      -8.1      2.645      8.325
  Name = 
  1 active torsions:
  status: ('A' for Active; 'I' for Inactive)
    1  A    between atoms: C_20  and  N_29
                            x       y       z     vdW  Elec       q    Type
                         _______ _______ _______ _____ _____    ______ ____

>  <TORSDO>
F 1

$$$$
=
 OpenBabel11112416273D

 32 37  0  0  1  0  0  0  0  0999 V2000
  192.5340  171.0230  143.9960 C   0  0  0  0  0  2  0  0  0  0  0  0
  190.3740  175.5840  143.0420 C   0  0  1  0  0  3  0  0  0  0  0  0
  190.4440  177.1300  147.7700 C   0  0  0  0  0  3  0  0  0  0  0  0
  189.3160  177.9070  147.5150 C   0  0  0  0  0  3  0  0  0  0  0  0
  188.3270  176.1190  141.6280 C   0  0  2  0  0  3  0  0  0  0  0  0
  186.9950  176.7900  141.6670 C   0  0  0  0  0  0  0  0  0  0  0  0
  192.0310  173.7690  142.5680 C   0  0  1  0  0  3  0  0  0  0  0  0
  192.3400  175.0850  144.5160 C   0  0  0  0  0  2  0  0  0  0  0  0
  185.2090  177.9560  142.4100 C   0  0  0  0  0  0  0  0  0  0  0  0
  193.7740  173.2630  144.1570 C   0  0  0  0  0  2  0  0  0  0  0  0
  190.9940  176.3740  146.7360 C   0  0  0  0  0  3  0  0  0  0  0  0
  190.9820  175.6160  144.3830 N   0  0  0  0  0  0  0  0  0  0  0  0
  190.4160  176.3910  145.4590 C   0  0  0  0  0  0  0  0  0  0  0  0
  188.6580  177.2570  143.8780 C   0  0  2  0  0  3  0  0  0  0  0  0
  185.3010  178.1630  141.1370 N   0  0  0  0  0  0  0  0  0  0  0  0
  191.8230  171.1970  142.6440 C   0  0  0  0  0  2  0  0  0  0  0  0
  192.3940  173.7240  143.9950 N   0  0  2  0  0  0  0  0  0  0  0  0
  186.4410  177.4550  140.6670 C   0  0  0  0  0  3  0  0  0  0  0  0
  192.2550  172.4330  141.8430 C   0  0  0  0  0  2  0  0  0  0  0  0
  193.8940  171.7310  144.0770 C   0  0  1  0  0  3  0  0  0  0  0  0
  188.7620  177.9160  146.2740 N   0  0  0  0  0  0  0  0  0  0  0  0
  189.2640  177.1680  145.2510 C   0  0  0  0  0  0  0  0  0  0  0  0
  187.1830  177.7280  143.9370 C   0  0  0  0  0  2  0  0  0  0  0  0
  190.5750  174.1960  142.4270 C   0  0  0  0  0  2  0  0  0  0  0  0
  188.1870  174.8750  141.0110 O   0  0  0  0  0  1  0  0  0  0  0  0
  184.1110  178.5330  143.2330 C   0  0  0  0  0  1  0  0  0  0  0  0
  188.8770  175.9550  143.0640 C   0  0  2  0  0  3  0  0  0  0  0  0
  186.2590  177.0370  142.9320 C   0  0  2  0  0  3  0  0  0  0  0  0
  194.6360  171.2490  145.2320 N   0  0  0  0  0  2  0  0  0  0  0  0
  195.9710  170.7410  145.1500 C   0  0  0  0  0  0  0  0  0  0  0  0
  196.7140  170.7220  143.8580 C   0  0  0  0  0  1  0  0  0  0  0  0
  196.5330  170.3100  146.1900 O   0  0  0  0  0  0  0  0  0  0  0  0
  1 20  1  0  0  0  0
  2 24  1  1  0  0  0
  2 27  1  0  0  0  0
  2 12  1  0  0  0  0
  4  3  1  0  0  0  0
  5 25  1  1  0  0  0
  5  6  1  0  0  0  0
  5 27  1  0  0  0  0
  6 28  1  0  0  0  0
  7 19  1  1  0  0  0
  7 17  1  0  0  0  0
  9 28  1  0  0  0  0
  9 26  1  0  0  0  0
 11  3  2  0  0  0  0
 12  8  1  0  0  0  0
 12 13  1  0  0  0  0
 13 11  1  0  0  0  0
 14 23  1  1  0  0  0
 14 22  1  0  0  0  0
 15  9  2  0  0  0  0
 16  1  1  0  0  0  0
 17 10  1  6  0  0  0
 17  8  1  0  0  0  0
 18 15  1  0  0  0  0
 18  6  2  0  0  0  0
 19 16  1  0  0  0  0
 20 10  1  0  0  0  0
 20 29  1  1  0  0  0
 21  4  2  0  0  0  0
 22 13  2  0  0  0  0
 22 21  1  0  0  0  0
 24  7  1  0  0  0  0
 27 14  1  0  0  0  0
 28 23  1  0  0  0  0
 30 29  1  0  0  0  0
 30 32  2  0  0  0  0
 31 30  1  0  0  0  0
M  END
>  <MODEL>
6

>  <REMARK>
 VINA RESULT:      -7.6      2.643      4.532
  Name = 
  1 active torsions:
  status: ('A' for Active; 'I' for Inactive)
    1  A    between atoms: C_20  and  N_29
                            x       y       z     vdW  Elec       q    Type
                         _______ _______ _______ _____ _____    ______ ____

>  <TORSDO>
F 1

$$$$
=
 OpenBabel11112416273D

 32 37  0  0  1  0  0  0  0  0999 V2000
  187.2740  177.8390  143.0660 C   0  0  0  0  0  2  0  0  0  0  0  0
  191.1800  174.5380  142.5960 C   0  0  1  0  0  3  0  0  0  0  0  0
  194.3490  177.1660  145.3890 C   0  0  0  0  0  3  0  0  0  0  0  0
  195.4080  176.6390  144.6540 C   0  0  0  0  0  3  0  0  0  0  0  0
  192.0740  173.4070  140.4980 C   0  0  2  0  0  3  0  0  0  0  0  0
  193.3110  173.2000  139.6920 C   0  0  0  0  0  0  0  0  0  0  0  0
  188.7790  175.0880  143.0370 C   0  0  1  0  0  3  0  0  0  0  0  0
  190.3860  175.7040  144.6680 C   0  0  0  0  0  2  0  0  0  0  0  0
  195.4690  173.2820  139.0270 C   0  0  0  0  0  0  0  0  0  0  0  0
  188.1600  176.3770  144.9800 C   0  0  0  0  0  2  0  0  0  0  0  0
  193.0470  176.7760  145.0780 C   0  0  0  0  0  3  0  0  0  0  0  0
  191.4650  175.4570  143.7110 N   0  0  0  0  0  0  0  0  0  0  0  0
  192.8080  175.8700  144.0350 C   0  0  0  0  0  0  0  0  0  0  0  0
  193.6840  174.3630  142.2190 C   0  0  2  0  0  3  0  0  0  0  0  0
  194.9760  172.1670  138.5980 N   0  0  0  0  0  0  0  0  0  0  0  0
  187.1830  176.7950  141.9400 C   0  0  0  0  0  2  0  0  0  0  0  0
  189.1900  176.1560  143.9650 N   0  0  2  0  0  0  0  0  0  0  0  0
  193.6250  172.0950  139.0380 C   0  0  0  0  0  3  0  0  0  0  0  0
  187.4110  175.3450  142.3870 C   0  0  0  0  0  2  0  0  0  0  0  0
  187.0120  177.2640  144.4660 C   0  0  1  0  0  3  0  0  0  0  0  0
  195.1660  175.7640  143.6430 N   0  0  0  0  0  0  0  0  0  0  0  0
  193.9020  175.3830  143.3010 C   0  0  0  0  0  0  0  0  0  0  0  0
  194.8780  174.3170  141.2320 C   0  0  0  0  0  2  0  0  0  0  0  0
  189.8400  174.9150  141.9570 C   0  0  0  0  0  2  0  0  0  0  0  0
  191.0260  173.7390  139.6380 O   0  0  0  0  0  1  0  0  0  0  0  0
  196.8660  173.7010  138.7330 C   0  0  0  0  0  1  0  0  0  0  0  0
  192.3010  174.5310  141.5370 C   0  0  2  0  0  3  0  0  0  0  0  0
  194.4780  174.1130  139.7680 C   0  0  2  0  0  3  0  0  0  0  0  0
  186.7850  178.3470  145.4120 N   0  0  0  0  0  2  0  0  0  0  0  0
  185.7320  178.3350  146.3800 C   0  0  0  0  0  0  0  0  0  0  0  0
  184.8160  177.1660  146.5130 C   0  0  0  0  0  1  0  0  0  0  0  0
  185.5790  179.3260  147.1400 O   0  0  0  0  0  0  0  0  0  0  0  0
  1 20  1  0  0  0  0
  2 24  1  6  0  0  0
  2 12  1  0  0  0  0
  4  3  2  0  0  0  0
  5 25  1  6  0  0  0
  5 27  1  0  0  0  0
  6 28  1  0  0  0  0
  6  5  1  0  0  0  0
  7 24  1  6  0  0  0
  7 17  1  0  0  0  0
  9 28  1  0  0  0  0
 11  3  1  0  0  0  0
 12 13  1  0  0  0  0
 12  8  1  0  0  0  0
 13 11  2  0  0  0  0
 14 23  1  6  0  0  0
 14 22  1  0  0  0  0
 15  9  2  0  0  0  0
 15 18  1  0  0  0  0
 16 19  1  0  0  0  0
 16  1  1  0  0  0  0
 17  8  1  1  0  0  0
 17 10  1  0  0  0  0
 18  6  2  0  0  0  0
 19  7  1  0  0  0  0
 20 10  1  0  0  0  0
 20 29  1  1  0  0  0
 21  4  1  0  0  0  0
 22 21  2  0  0  0  0
 22 13  1  0  0  0  0
 26  9  1  0  0  0  0
 27 14  1  0  0  0  0
 27  2  1  0  0  0  0
 28 23  1  0  0  0  0
 29 30  1  0  0  0  0
 30 31  1  0  0  0  0
 30 32  2  0  0  0  0
M  END
>  <MODEL>
7

>  <REMARK>
 VINA RESULT:      -7.5      3.050      9.037
  Name = 
  1 active torsions:
  status: ('A' for Active; 'I' for Inactive)
    1  A    between atoms: C_20  and  N_29
                            x       y       z     vdW  Elec       q    Type
                         _______ _______ _______ _____ _____    ______ ____

>  <TORSDO>
F 1

$$$$
=
 OpenBabel11112416273D

 32 37  0  0  1  0  0  0  0  0999 V2000
  187.3840  176.4250  146.2000 C   0  0  0  0  0  2  0  0  0  0  0  0
  191.2570  174.8980  143.1920 C   0  0  1  0  0  3  0  0  0  0  0  0
  188.3690  173.4970  139.3910 C   0  0  0  0  0  3  0  0  0  0  0  0
  189.3260  172.5490  139.0350 C   0  0  0  0  0  3  0  0  0  0  0  0
  193.2620  173.4470  143.7810 C   0  0  2  0  0  3  0  0  0  0  0  0
  193.9910  172.2060  143.3890 C   0  0  0  0  0  0  0  0  0  0  0  0
  190.1490  176.5370  144.7260 C   0  0  1  0  0  3  0  0  0  0  0  0
  189.2470  176.2540  142.5520 C   0  0  0  0  0  2  0  0  0  0  0  0
  194.5720  170.3300  142.2730 C   0  0  0  0  0  0  0  0  0  0  0  0
  188.1130  177.6450  144.0630 C   0  0  0  0  0  2  0  0  0  0  0  0
  188.6050  174.3190  140.4920 C   0  0  0  0  0  3  0  0  0  0  0  0
  190.0420  175.0380  142.3700 N   0  0  0  0  0  0  0  0  0  0  0  0
  189.7880  174.1880  141.2340 C   0  0  0  0  0  0  0  0  0  0  0  0
  192.0190  173.0800  141.5940 C   0  0  2  0  0  3  0  0  0  0  0  0
  195.6560  170.8390  142.7590 N   0  0  0  0  0  0  0  0  0  0  0  0
  188.7500  176.2010  146.8690 C   0  0  0  0  0  2  0  0  0  0  0  0
  188.8980  176.4150  143.9590 N   0  0  2  0  0  0  0  0  0  0  0  0
  195.3020  172.0380  143.4390 C   0  0  0  0  0  3  0  0  0  0  0  0
  189.9240  176.9240  146.1960 C   0  0  0  0  0  2  0  0  0  0  0  0
  187.3040  177.7160  145.3710 C   0  0  1  0  0  3  0  0  0  0  0  0
  190.4680  172.4280  139.7620 N   0  0  0  0  0  0  0  0  0  0  0  0
  190.7140  173.2020  140.8570 C   0  0  0  0  0  0  0  0  0  0  0  0
  192.6660  171.6890  141.3770 C   0  0  0  0  0  2  0  0  0  0  0  0
  190.9230  175.2260  144.6500 C   0  0  0  0  0  2  0  0  0  0  0  0
  193.1100  173.4610  145.1680 O   0  0  0  0  0  1  0  0  0  0  0  0
  194.5640  169.0510  141.5120 C   0  0  0  0  0  1  0  0  0  0  0  0
  191.8830  173.4940  143.0820 C   0  0  2  0  0  3  0  0  0  0  0  0
  193.3510  171.1120  142.6190 C   0  0  2  0  0  3  0  0  0  0  0  0
  185.9160  178.0200  145.0590 N   0  0  0  0  0  2  0  0  0  0  0  0
  185.0290  178.6630  145.9780 C   0  0  0  0  0  0  0  0  0  0  0  0
  185.4980  179.1140  147.3200 C   0  0  0  0  0  1  0  0  0  0  0  0
  183.8310  178.8600  145.6470 O   0  0  0  0  0  0  0  0  0  0  0  0
  1 16  1  0  0  0  0
  2 24  1  1  0  0  0
  3 11  1  0  0  0  0
  4  3  2  0  0  0  0
  4 21  1  0  0  0  0
  5 25  1  1  0  0  0
  6 18  2  0  0  0  0
  6  5  1  0  0  0  0
  7 24  1  1  0  0  0
  7 19  1  0  0  0  0
  9 28  1  0  0  0  0
  9 15  2  0  0  0  0
 10 20  1  0  0  0  0
 11 13  2  0  0  0  0
 12  8  1  0  0  0  0
 12  2  1  0  0  0  0
 13 12  1  0  0  0  0
 14 23  1  1  0  0  0
 14 27  1  0  0  0  0
 15 18  1  0  0  0  0
 17  8  1  6  0  0  0
 17 10  1  0  0  0  0
 17  7  1  0  0  0  0
 19 16  1  0  0  0  0
 20 29  1  6  0  0  0
 20  1  1  0  0  0  0
 21 22  2  0  0  0  0
 22 13  1  0  0  0  0
 22 14  1  0  0  0  0
 23 28  1  0  0  0  0
 26  9  1  0  0  0  0
 27  2  1  0  0  0  0
 27  5  1  0  0  0  0
 28  6  1  0  0  0  0
 29 30  1  0  0  0  0
 30 31  1  0  0  0  0
 32 30  2  0  0  0  0
M  END
>  <MODEL>
8

>  <REMARK>
 VINA RESULT:      -7.5      2.836      8.293
  Name = 
  1 active torsions:
  status: ('A' for Active; 'I' for Inactive)
    1  A    between atoms: C_20  and  N_29
                            x       y       z     vdW  Elec       q    Type
                         _______ _______ _______ _____ _____    ______ ____

>  <TORSDO>
F 1

$$$$
=
 OpenBabel11112416273D

 32 37  0  0  1  0  0  0  0  0999 V2000
  195.8270  176.0530  143.7430 C   0  0  0  0  0  2  0  0  0  0  0  0
  190.8440  174.9270  144.2670 C   0  0  1  0  0  3  0  0  0  0  0  0
  190.2100  173.4220  139.5680 C   0  0  0  0  0  3  0  0  0  0  0  0
  188.8780  173.8240  139.6370 C   0  0  0  0  0  3  0  0  0  0  0  0
  189.0000  176.3040  145.3520 C   0  0  2  0  0  3  0  0  0  0  0  0
  187.6550  176.9000  145.1030 C   0  0  0  0  0  0  0  0  0  0  0  0
  193.2300  174.8470  145.0200 C   0  0  1  0  0  3  0  0  0  0  0  0
  192.6170  173.5830  143.1100 C   0  0  0  0  0  2  0  0  0  0  0  0
  185.7210  177.4610  144.0790 C   0  0  0  0  0  0  0  0  0  0  0  0
  194.8810  173.6680  143.7170 C   0  0  0  0  0  2  0  0  0  0  0  0
  191.0250  173.5810  140.6870 C   0  0  0  0  0  3  0  0  0  0  0  0
  191.3450  174.3050  143.0300 N   0  0  0  0  0  0  0  0  0  0  0  0
  190.5110  174.1430  141.8650 C   0  0  0  0  0  0  0  0  0  0  0  0
  188.5720  175.1050  143.1510 C   0  0  2  0  0  3  0  0  0  0  0  0
  185.4780  177.3870  145.3470 N   0  0  0  0  0  0  0  0  0  0  0  0
  195.1010  176.6250  144.9720 C   0  0  0  0  0  2  0  0  0  0  0  0
  193.6480  174.4540  143.6640 N   0  0  2  0  0  0  0  0  0  0  0  0
  186.6850  177.0060  145.9950 C   0  0  0  0  0  3  0  0  0  0  0  0
  194.3250  175.5920  145.7990 C   0  0  0  0  0  2  0  0  0  0  0  0
  196.1350  174.5510  143.8480 C   0  0  1  0  0  3  0  0  0  0  0  0
  188.3900  174.3690  140.7820 N   0  0  0  0  0  0  0  0  0  0  0  0
  189.1690  174.5580  141.8840 C   0  0  0  0  0  0  0  0  0  0  0  0
  187.2950  175.9350  142.8650 C   0  0  0  0  0  2  0  0  0  0  0  0
  191.9770  175.7110  144.9350 C   0  0  0  0  0  2  0  0  0  0  0  0
  189.8090  177.2590  145.9690 O   0  0  0  0  0  1  0  0  0  0  0  0
  184.6820  177.8580  143.0900 C   0  0  0  0  0  1  0  0  0  0  0  0
  189.6280  175.8410  144.0160 C   0  0  2  0  0  3  0  0  0  0  0  0
  187.1450  177.1830  143.7380 C   0  0  2  0  0  3  0  0  0  0  0  0
  197.0970  174.1700  142.8260 N   0  0  0  0  0  2  0  0  0  0  0  0
  196.9150  174.4470  141.4340 C   0  0  0  0  0  0  0  0  0  0  0  0
  195.7280  175.2040  140.9450 C   0  0  0  0  0  1  0  0  0  0  0  0
  197.7770  174.0520  140.6070 O   0  0  0  0  0  0  0  0  0  0  0  0
  1 20  1  0  0  0  0
  1 16  1  0  0  0  0
  2 24  1  6  0  0  0
  3  4  2  0  0  0  0
  3 11  1  0  0  0  0
  4 21  1  0  0  0  0
  5 25  1  6  0  0  0
  6  5  1  0  0  0  0
  6 18  2  0  0  0  0
  7 24  1  6  0  0  0
  7 19  1  0  0  0  0
  9 15  2  0  0  0  0
 10 20  1  0  0  0  0
 11 13  2  0  0  0  0
 12  8  1  0  0  0  0
 12  2  1  0  0  0  0
 13 22  1  0  0  0  0
 13 12  1  0  0  0  0
 14 23  1  6  0  0  0
 14 27  1  0  0  0  0
 15 18  1  0  0  0  0
 16 19  1  0  0  0  0
 17  8  1  1  0  0  0
 17 10  1  0  0  0  0
 17  7  1  0  0  0  0
 20 29  1  6  0  0  0
 21 22  2  0  0  0  0
 22 14  1  0  0  0  0
 23 28  1  0  0  0  0
 26  9  1  0  0  0  0
 27  2  1  0  0  0  0
 27  5  1  0  0  0  0
 28  9  1  0  0  0  0
 28  6  1  0  0  0  0
 30 29  1  0  0  0  0
 31 30  1  0  0  0  0
 32 30  2  0  0  0  0
M  END
>  <MODEL>
9

>  <REMARK>
 VINA RESULT:      -7.4      1.576      2.003
  Name = 
  1 active torsions:
  status: ('A' for Active; 'I' for Inactive)
    1  A    between atoms: C_20  and  N_29
                            x       y       z     vdW  Elec       q    Type
                         _______ _______ _______ _____ _____    ______ ____

>  <TORSDO>
F 1

$$$$
