=
 OpenBabel11112417113D

 37 43  0  0  1  0  0  0  0  0999 V2000
  191.5610  173.2240  142.9550 C   0  0  0  0  0  2  0  0  0  0  0  0
  195.7790  175.6340  142.7940 C   0  0  0  0  0  0  0  0  0  0  0  0
  192.1990  176.1730  144.8960 C   0  0  0  0  0  0  0  0  0  0  0  0
  190.8980  171.9800  142.3690 C   0  0  2  0  0  3  0  0  0  0  0  0
  189.1720  176.6300  142.8500 O   0  0  0  0  0  0  0  0  0  0  0  0
  194.6170  176.2030  144.9200 C   0  0  0  0  0  0  0  0  0  0  0  0
  191.2520  176.0820  143.9620 C   0  0  0  0  0  0  0  0  0  0  0  0
  188.6900  173.2320  143.0040 C   0  0  2  0  0  3  0  0  0  0  0  0
  193.4110  175.9600  144.3030 C   0  0  0  0  0  0  0  0  0  0  0  0
  189.8400  176.4890  144.0700 C   0  0  0  0  0  0  0  0  0  0  0  0
  194.6060  176.5770  146.2680 C   0  0  0  0  0  3  0  0  0  0  0  0
  189.3770  171.9180  142.6060 C   0  0  0  0  0  2  0  0  0  0  0  0
  193.3180  175.6760  142.9370 N   0  0  0  0  0  0  0  0  0  0  0  0
  195.9880  174.1300  142.8040 C   0  0  0  0  0  1  0  0  0  0  0  0
  191.0270  176.6280  146.9590 C   0  0  0  0  0  3  0  0  0  0  0  0
  193.3690  176.7180  146.9330 C   0  0  0  0  0  3  0  0  0  0  0  0
  194.4510  175.9550  142.0600 C   0  0  0  0  0  2  0  0  0  0  0  0
  188.8210  174.3730  141.9780 C   0  0  1  0  0  3  0  0  0  0  0  0
  188.1900  175.6950  142.4120 C   0  0  0  0  0  2  0  0  0  0  0  0
  192.1450  176.5290  146.2500 C   0  0  0  0  0  0  0  0  0  0  0  0
  191.9000  175.7630  142.6130 C   0  0  1  0  0  3  0  0  0  0  0  0
  195.7870  176.1210  144.1530 O   0  0  0  0  0  0  0  0  0  0  0  0
  189.1730  176.6950  145.2320 C   0  0  0  0  0  0  0  0  0  0  0  0
  196.9230  176.2710  142.0360 C   0  0  0  0  0  1  0  0  0  0  0  0
  190.1360  174.5170  141.1950 C   0  0  0  0  0  2  0  0  0  0  0  0
  189.0730  173.6240  144.2890 O   0  0  0  0  0  1  0  0  0  0  0  0
  191.4330  174.4280  142.0130 C   0  0  2  0  0  3  0  0  0  0  0  0
  189.7120  176.4860  146.5090 O   0  0  0  0  0  0  0  0  0  0  0  0
  186.8050  176.3760  145.9330 C   0  0  0  0  0  3  0  0  0  0  0  0
  187.7550  177.1240  145.2220 C   0  0  0  0  0  0  0  0  0  0  0  0
  187.3500  178.3080  144.5810 C   0  0  0  0  0  3  0  0  0  0  0  0
  185.6320  179.8510  143.9920 F   0  0  0  0  0  0  0  0  0  0  0  0
  185.0730  177.9510  145.3190 C   0  0  0  0  0  3  0  0  0  0  0  0
  186.0140  178.7140  144.6230 C   0  0  0  0  0  0  0  0  0  0  0  0
  185.4690  176.7840  145.9760 C   0  0  0  0  0  3  0  0  0  0  0  0
  192.1620  171.2770  144.0420 C   0  0  0  0  0  1  0  0  0  0  0  0
  191.4960  170.8360  142.8980 O   0  0  0  0  0  0  0  0  0  0  0  0
  2 14  1  0  0  0  0
  2 22  1  0  0  0  0
  3 20  1  0  0  0  0
  4 12  1  0  0  0  0
  4 37  1  1  0  0  0
  4  1  1  0  0  0  0
  5 10  1  0  0  0  0
  6 11  1  0  0  0  0
  7 10  1  0  0  0  0
  7  3  2  0  0  0  0
  8 26  1  1  0  0  0
  9  3  1  0  0  0  0
  9  6  2  0  0  0  0
 10 23  2  0  0  0  0
 11 16  2  0  0  0  0
 12  8  1  0  0  0  0
 13  9  1  0  0  0  0
 17  2  1  0  0  0  0
 17 13  1  0  0  0  0
 18 25  1  1  0  0  0
 18 19  1  0  0  0  0
 18  8  1  0  0  0  0
 19  5  1  0  0  0  0
 20 16  1  0  0  0  0
 20 15  2  0  0  0  0
 21 13  1  0  0  0  0
 21  7  1  1  0  0  0
 22  6  1  0  0  0  0
 23 28  1  0  0  0  0
 24  2  1  0  0  0  0
 27 25  1  1  0  0  0
 27 21  1  0  0  0  0
 27  1  1  0  0  0  0
 28 15  1  0  0  0  0
 29 35  1  0  0  0  0
 30 23  1  0  0  0  0
 30 29  2  0  0  0  0
 31 34  2  0  0  0  0
 31 30  1  0  0  0  0
 32 34  1  0  0  0  0
 33 35  2  0  0  0  0
 34 33  1  0  0  0  0
 37 36  1  0  0  0  0
M  END
>  <MODEL>
1

>  <REMARK>
 VINA RESULT:      -9.3      0.000      0.000
  Name = 
  2 active torsions:
  status: ('A' for Active; 'I' for Inactive)
    1  A    between atoms: C_4  and  O_37
    2  A    between atoms: C_23  and  C_30
                            x       y       z     vdW  Elec       q    Type
                         _______ _______ _______ _____ _____    ______ ____

>  <TORSDO>
F 2

$$$$
=
 OpenBabel11112417113D

 37 43  0  0  1  0  0  0  0  0999 V2000
  191.9110  175.1690  143.3170 C   0  0  0  0  0  2  0  0  0  0  0  0
  191.1440  170.7420  141.4660 C   0  0  0  0  0  0  0  0  0  0  0  0
  188.9170  174.2850  141.5500 C   0  0  0  0  0  0  0  0  0  0  0  0
  192.9830  175.9570  144.0670 C   0  0  2  0  0  3  0  0  0  0  0  0
  188.0810  175.5950  144.8880 O   0  0  0  0  0  0  0  0  0  0  0  0
  189.6690  172.3640  140.2880 C   0  0  0  0  0  0  0  0  0  0  0  0
  188.9480  174.6630  142.8280 C   0  0  0  0  0  0  0  0  0  0  0  0
  190.9580  177.4670  144.7520 C   0  0  2  0  0  3  0  0  0  0  0  0
  189.6670  173.1510  141.4180 C   0  0  0  0  0  0  0  0  0  0  0  0
  188.0910  175.6620  143.4920 C   0  0  0  0  0  0  0  0  0  0  0  0
  188.9570  172.8110  139.1700 C   0  0  0  0  0  3  0  0  0  0  0  0
  192.4800  177.2960  144.6410 C   0  0  0  0  0  2  0  0  0  0  0  0
  190.2670  172.7410  142.6120 N   0  0  0  0  0  0  0  0  0  0  0  0
  192.5710  171.2090  141.2390 C   0  0  0  0  0  1  0  0  0  0  0  0
  187.5590  175.9360  140.4230 C   0  0  0  0  0  3  0  0  0  0  0  0
  188.2460  174.0280  139.2480 C   0  0  0  0  0  3  0  0  0  0  0  0
  190.6230  171.3370  142.7990 C   0  0  0  0  0  2  0  0  0  0  0  0
  190.2490  176.4330  145.6470 C   0  0  1  0  0  3  0  0  0  0  0  0
  188.7280  176.5720  145.6970 C   0  0  0  0  0  2  0  0  0  0  0  0
  188.2070  174.7770  140.4460 C   0  0  0  0  0  0  0  0  0  0  0  0
  189.8170  173.6870  143.6240 C   0  0  1  0  0  3  0  0  0  0  0  0
  190.3330  171.1310  140.3370 O   0  0  0  0  0  0  0  0  0  0  0  0
  187.3700  176.6180  142.8570 C   0  0  0  0  0  0  0  0  0  0  0  0
  191.1460  169.2320  141.5730 C   0  0  0  0  0  1  0  0  0  0  0  0
  190.7600  174.9830  145.6500 C   0  0  0  0  0  2  0  0  0  0  0  0
  190.3750  177.5660  143.4860 O   0  0  0  0  0  1  0  0  0  0  0  0
  191.0380  174.3520  144.2770 C   0  0  2  0  0  3  0  0  0  0  0  0
  187.3840  176.8410  141.4720 O   0  0  0  0  0  0  0  0  0  0  0  0
  186.5390  178.9240  143.2970 C   0  0  0  0  0  3  0  0  0  0  0  0
  186.5230  177.5600  143.6260 C   0  0  0  0  0  0  0  0  0  0  0  0
  185.6460  177.1100  144.6270 C   0  0  0  0  0  3  0  0  0  0  0  0
  183.9920  177.5690  146.2790 F   0  0  0  0  0  0  0  0  0  0  0  0
  184.8630  179.3710  144.9850 C   0  0  0  0  0  3  0  0  0  0  0  0
  184.8260  178.0120  145.3090 C   0  0  0  0  0  0  0  0  0  0  0  0
  185.7170  179.8250  143.9770 C   0  0  0  0  0  3  0  0  0  0  0  0
  195.1930  175.9030  143.9960 C   0  0  0  0  0  1  0  0  0  0  0  0
  194.0680  176.1950  143.2230 O   0  0  0  0  0  0  0  0  0  0  0  0
  1  4  1  0  0  0  0
  2 24  1  0  0  0  0
  2 17  1  0  0  0  0
  3  7  2  0  0  0  0
  4 37  1  6  0  0  0
  4 12  1  0  0  0  0
  5 19  1  0  0  0  0
  6 22  1  0  0  0  0
  6  9  2  0  0  0  0
  7 10  1  0  0  0  0
  8 26  1  6  0  0  0
  8 18  1  0  0  0  0
  9  3  1  0  0  0  0
  9 13  1  0  0  0  0
 10  5  1  0  0  0  0
 11 16  2  0  0  0  0
 11  6  1  0  0  0  0
 12  8  1  0  0  0  0
 13 17  1  0  0  0  0
 13 21  1  0  0  0  0
 14  2  1  0  0  0  0
 15 20  2  0  0  0  0
 15 28  1  0  0  0  0
 16 20  1  0  0  0  0
 18 25  1  6  0  0  0
 18 19  1  0  0  0  0
 20  3  1  0  0  0  0
 21  7  1  6  0  0  0
 21 27  1  0  0  0  0
 22  2  1  0  0  0  0
 23 10  2  0  0  0  0
 23 30  1  0  0  0  0
 27  1  1  6  0  0  0
 27 25  1  0  0  0  0
 28 23  1  0  0  0  0
 29 30  2  0  0  0  0
 29 35  1  0  0  0  0
 30 31  1  0  0  0  0
 31 34  2  0  0  0  0
 33 34  1  0  0  0  0
 34 32  1  0  0  0  0
 35 33  2  0  0  0  0
 37 36  1  0  0  0  0
M  END
>  <MODEL>
2

>  <REMARK>
 VINA RESULT:      -8.7      1.902      5.323
  Name = 
  2 active torsions:
  status: ('A' for Active; 'I' for Inactive)
    1  A    between atoms: C_4  and  O_37
    2  A    between atoms: C_23  and  C_30
                            x       y       z     vdW  Elec       q    Type
                         _______ _______ _______ _____ _____    ______ ____

>  <TORSDO>
F 2

$$$$
=
 OpenBabel11112417113D

 37 43  0  0  1  0  0  0  0  0999 V2000
  192.1520  175.1570  143.4680 C   0  0  0  0  0  2  0  0  0  0  0  0
  190.9990  171.5690  140.3990 C   0  0  0  0  0  0  0  0  0  0  0  0
  188.8840  174.7890  142.0350 C   0  0  0  0  0  0  0  0  0  0  0  0
  193.3500  175.6940  144.2470 C   0  0  2  0  0  3  0  0  0  0  0  0
  188.6560  174.8800  145.7090 O   0  0  0  0  0  0  0  0  0  0  0  0
  189.3730  173.4290  140.0970 C   0  0  0  0  0  0  0  0  0  0  0  0
  189.1400  174.7220  143.3410 C   0  0  0  0  0  0  0  0  0  0  0  0
  191.5000  176.8070  145.7270 C   0  0  2  0  0  3  0  0  0  0  0  0
  189.5790  173.7950  141.4080 C   0  0  0  0  0  0  0  0  0  0  0  0
  188.4280  175.4080  144.4350 C   0  0  0  0  0  0  0  0  0  0  0  0
  188.4880  174.1930  139.3280 C   0  0  0  0  0  3  0  0  0  0  0  0
  192.9770  176.7440  145.3120 C   0  0  0  0  0  2  0  0  0  0  0  0
  190.3680  173.0360  142.2780 N   0  0  0  0  0  0  0  0  0  0  0  0
  192.3740  172.1430  140.1060 C   0  0  0  0  0  1  0  0  0  0  0  0
  187.3820  176.6640  141.7700 C   0  0  0  0  0  3  0  0  0  0  0  0
  187.8230  175.2840  139.9270 C   0  0  0  0  0  3  0  0  0  0  0  0
  190.7250  171.6660  141.9220 C   0  0  0  0  0  2  0  0  0  0  0  0
  190.9370  175.5060  146.3300 C   0  0  1  0  0  3  0  0  0  0  0  0
  189.4500  175.5590  146.6780 C   0  0  0  0  0  2  0  0  0  0  0  0
  188.0040  175.5910  141.2950 C   0  0  0  0  0  0  0  0  0  0  0  0
  190.1150  173.5730  143.6080 C   0  0  1  0  0  3  0  0  0  0  0  0
  190.0140  172.2780  139.6180 O   0  0  0  0  0  0  0  0  0  0  0  0
  187.6260  176.4900  144.2870 C   0  0  0  0  0  0  0  0  0  0  0  0
  190.9930  170.1110  139.9930 C   0  0  0  0  0  1  0  0  0  0  0  0
  191.4150  174.1590  145.7630 C   0  0  0  0  0  2  0  0  0  0  0  0
  190.7110  177.2970  144.6830 O   0  0  0  0  0  1  0  0  0  0  0  0
  191.4420  174.0320  144.2320 C   0  0  2  0  0  3  0  0  0  0  0  0
  187.4060  177.1610  143.0750 O   0  0  0  0  0  0  0  0  0  0  0  0
  185.5880  176.7910  145.6860 C   0  0  0  0  0  3  0  0  0  0  0  0
  186.9400  177.0880  145.4560 C   0  0  0  0  0  0  0  0  0  0  0  0
  187.6320  177.8840  146.3860 C   0  0  0  0  0  3  0  0  0  0  0  0
  187.6460  179.1750  148.3880 F   0  0  0  0  0  0  0  0  0  0  0  0
  185.6210  178.1130  147.7130 C   0  0  0  0  0  3  0  0  0  0  0  0
  186.9730  178.4010  147.5040 C   0  0  0  0  0  0  0  0  0  0  0  0
  184.9310  177.3070  146.8060 C   0  0  0  0  0  3  0  0  0  0  0  0
  195.4370  176.4160  144.1210 C   0  0  0  0  0  1  0  0  0  0  0  0
  194.2780  176.2430  143.3620 O   0  0  0  0  0  0  0  0  0  0  0  0
  1  4  1  0  0  0  0
  2 17  1  0  0  0  0
  3  7  2  0  0  0  0
  4 37  1  6  0  0  0
  4 12  1  0  0  0  0
  5 19  1  0  0  0  0
  6  9  2  0  0  0  0
  7 10  1  0  0  0  0
  8 26  1  6  0  0  0
  8 18  1  0  0  0  0
  9  3  1  0  0  0  0
  9 13  1  0  0  0  0
 10  5  1  0  0  0  0
 11 16  2  0  0  0  0
 11  6  1  0  0  0  0
 12  8  1  0  0  0  0
 13 21  1  0  0  0  0
 14  2  1  0  0  0  0
 15 28  1  0  0  0  0
 16 20  1  0  0  0  0
 17 13  1  0  0  0  0
 18 25  1  6  0  0  0
 18 19  1  0  0  0  0
 20 15  2  0  0  0  0
 20  3  1  0  0  0  0
 21  7  1  6  0  0  0
 21 27  1  0  0  0  0
 22  6  1  0  0  0  0
 22  2  1  0  0  0  0
 23 10  2  0  0  0  0
 23 30  1  0  0  0  0
 24  2  1  0  0  0  0
 27  1  1  6  0  0  0
 27 25  1  0  0  0  0
 28 23  1  0  0  0  0
 29 35  1  0  0  0  0
 30 29  2  0  0  0  0
 30 31  1  0  0  0  0
 31 34  2  0  0  0  0
 34 33  1  0  0  0  0
 34 32  1  0  0  0  0
 35 33  2  0  0  0  0
 37 36  1  0  0  0  0
M  END
>  <MODEL>
3

>  <REMARK>
 VINA RESULT:      -8.4      2.027      5.165
  Name = 
  2 active torsions:
  status: ('A' for Active; 'I' for Inactive)
    1  A    between atoms: C_4  and  O_37
    2  A    between atoms: C_23  and  C_30
                            x       y       z     vdW  Elec       q    Type
                         _______ _______ _______ _____ _____    ______ ____

>  <TORSDO>
F 2

$$$$
=
 OpenBabel11112417113D

 37 43  0  0  1  0  0  0  0  0999 V2000
  189.6430  175.7420  145.4000 C   0  0  0  0  0  2  0  0  0  0  0  0
  187.3030  176.7260  141.2560 C   0  0  0  0  0  0  0  0  0  0  0  0
  190.7300  174.5200  142.2070 C   0  0  0  0  0  0  0  0  0  0  0  0
  189.5300  176.0020  146.9000 C   0  0  2  0  0  3  0  0  0  0  0  0
  193.4510  176.3810  143.8480 O   0  0  0  0  0  0  0  0  0  0  0  0
  188.6880  174.6850  140.9230 C   0  0  0  0  0  0  0  0  0  0  0  0
  191.4460  175.3390  142.9780 C   0  0  0  0  0  0  0  0  0  0  0  0
  192.0940  175.4790  146.8720 C   0  0  2  0  0  3  0  0  0  0  0  0
  189.5590  175.1450  141.8850 C   0  0  0  0  0  0  0  0  0  0  0  0
  192.8660  175.2130  143.3520 C   0  0  0  0  0  0  0  0  0  0  0  0
  188.9560  173.4490  140.3240 C   0  0  0  0  0  3  0  0  0  0  0  0
  190.8040  175.6420  147.6890 C   0  0  0  0  0  2  0  0  0  0  0  0
  189.4270  176.4090  142.4660 N   0  0  0  0  0  0  0  0  0  0  0  0
  186.3400  176.4160  142.3880 C   0  0  0  0  0  1  0  0  0  0  0  0
  192.0630  172.5160  141.9880 C   0  0  0  0  0  3  0  0  0  0  0  0
  190.1140  172.7370  140.7040 C   0  0  0  0  0  3  0  0  0  0  0  0
  188.5670  177.4080  141.8390 C   0  0  0  0  0  2  0  0  0  0  0  0
  192.5310  176.7290  146.0860 C   0  0  1  0  0  3  0  0  0  0  0  0
  193.7780  176.5360  145.2260 C   0  0  0  0  0  2  0  0  0  0  0  0
  191.0250  173.2700  141.6450 C   0  0  0  0  0  0  0  0  0  0  0  0
  190.6640  176.6360  143.2010 C   0  0  1  0  0  3  0  0  0  0  0  0
  187.6130  175.5040  140.5510 O   0  0  0  0  0  0  0  0  0  0  0  0
  193.5950  174.0730  143.2730 C   0  0  0  0  0  0  0  0  0  0  0  0
  186.6260  177.6850  140.3010 C   0  0  0  0  0  1  0  0  0  0  0  0
  191.4500  177.6220  145.4560 C   0  0  0  0  0  2  0  0  0  0  0  0
  192.0330  174.3380  146.0680 O   0  0  0  0  0  1  0  0  0  0  0  0
  190.3370  176.9040  144.6780 C   0  0  2  0  0  3  0  0  0  0  0  0
  193.0870  172.8240  142.8870 O   0  0  0  0  0  0  0  0  0  0  0  0
  195.9800  174.5740  142.7610 C   0  0  0  0  0  3  0  0  0  0  0  0
  195.0270  174.0650  143.6560 C   0  0  0  0  0  0  0  0  0  0  0  0
  195.4460  173.6310  144.9250 C   0  0  0  0  0  3  0  0  0  0  0  0
  197.1910  173.2420  146.4990 F   0  0  0  0  0  0  0  0  0  0  0  0
  197.7400  174.1660  144.3720 C   0  0  0  0  0  3  0  0  0  0  0  0
  196.7970  173.6730  145.2780 C   0  0  0  0  0  0  0  0  0  0  0  0
  197.3310  174.6180  143.1160 C   0  0  0  0  0  3  0  0  0  0  0  0
  187.3300  176.0710  147.1220 C   0  0  0  0  0  1  0  0  0  0  0  0
  188.4490  175.2910  147.4200 O   0  0  0  0  0  0  0  0  0  0  0  0
  1  4  1  0  0  0  0
  2 17  1  0  0  0  0
  2 14  1  0  0  0  0
  3  7  2  0  0  0  0
  4 37  1  1  0  0  0
  4 12  1  0  0  0  0
  5 19  1  0  0  0  0
  6  9  2  0  0  0  0
  7 10  1  0  0  0  0
  8 26  1  6  0  0  0
  8 12  1  0  0  0  0
  9  3  1  0  0  0  0
  9 13  1  0  0  0  0
 10  5  1  0  0  0  0
 11 16  2  0  0  0  0
 11  6  1  0  0  0  0
 13 21  1  0  0  0  0
 15 28  1  0  0  0  0
 16 20  1  0  0  0  0
 17 13  1  0  0  0  0
 18 19  1  6  0  0  0
 18  8  1  0  0  0  0
 20 15  2  0  0  0  0
 20  3  1  0  0  0  0
 21  7  1  1  0  0  0
 21 27  1  0  0  0  0
 22  6  1  0  0  0  0
 22  2  1  0  0  0  0
 23 10  2  0  0  0  0
 23 30  1  0  0  0  0
 24  2  1  0  0  0  0
 25 18  1  0  0  0  0
 27  1  1  1  0  0  0
 27 25  1  0  0  0  0
 28 23  1  0  0  0  0
 29 35  2  0  0  0  0
 29 30  1  0  0  0  0
 30 31  2  0  0  0  0
 31 34  1  0  0  0  0
 33 34  2  0  0  0  0
 34 32  1  0  0  0  0
 35 33  1  0  0  0  0
 36 37  1  0  0  0  0
M  END
>  <MODEL>
4

>  <REMARK>
 VINA RESULT:      -8.4      2.979      7.527
  Name = 
  2 active torsions:
  status: ('A' for Active; 'I' for Inactive)
    1  A    between atoms: C_4  and  O_37
    2  A    between atoms: C_23  and  C_30
                            x       y       z     vdW  Elec       q    Type
                         _______ _______ _______ _____ _____    ______ ____

>  <TORSDO>
F 2

$$$$
=
 OpenBabel11112417113D

 37 43  0  0  1  0  0  0  0  0999 V2000
  195.7820  173.9160  143.9220 C   0  0  0  0  0  2  0  0  0  0  0  0
  196.1150  169.2580  145.2690 C   0  0  0  0  0  0  0  0  0  0  0  0
  192.9270  171.7650  144.2330 C   0  0  0  0  0  0  0  0  0  0  0  0
  196.6750  175.1210  143.6390 C   0  0  2  0  0  3  0  0  0  0  0  0
  192.4860  174.7700  146.3150 O   0  0  0  0  0  0  0  0  0  0  0  0
  193.9620  169.5860  144.0640 C   0  0  0  0  0  0  0  0  0  0  0  0
  193.1200  172.8630  144.9640 C   0  0  0  0  0  0  0  0  0  0  0  0
  194.4770  176.4680  144.0900 C   0  0  2  0  0  3  0  0  0  0  0  0
  193.9570  170.9010  144.4730 C   0  0  0  0  0  0  0  0  0  0  0  0
  192.1580  173.9450  145.2360 C   0  0  0  0  0  0  0  0  0  0  0  0
  192.9090  169.1410  143.2580 C   0  0  0  0  0  3  0  0  0  0  0  0
  195.9040  176.4500  143.5220 C   0  0  0  0  0  2  0  0  0  0  0  0
  194.9130  171.4090  145.3580 N   0  0  0  0  0  0  0  0  0  0  0  0
  197.2180  169.6460  144.3000 C   0  0  0  0  0  1  0  0  0  0  0  0
  190.8840  172.1620  143.0060 C   0  0  0  0  0  3  0  0  0  0  0  0
  191.8750  170.0390  142.9180 C   0  0  0  0  0  3  0  0  0  0  0  0
  195.7430  170.4910  146.1320 C   0  0  0  0  0  2  0  0  0  0  0  0
  194.3700  176.1520  145.5930 C   0  0  1  0  0  3  0  0  0  0  0  0
  192.9420  176.1070  146.1330 C   0  0  0  0  0  2  0  0  0  0  0  0
  191.8640  171.3640  143.4130 C   0  0  0  0  0  0  0  0  0  0  0  0
  194.4180  172.7180  145.7620 C   0  0  1  0  0  3  0  0  0  0  0  0
  194.9880  168.7490  144.5240 O   0  0  0  0  0  0  0  0  0  0  0  0
  191.0380  174.1930  144.5130 C   0  0  0  0  0  0  0  0  0  0  0  0
  196.6380  168.1660  146.1770 C   0  0  0  0  0  1  0  0  0  0  0  0
  195.3160  175.1010  146.1980 C   0  0  0  0  0  2  0  0  0  0  0  0
  193.6240  175.6780  143.3160 O   0  0  0  0  0  1  0  0  0  0  0  0
  195.4680  173.7860  145.4180 C   0  0  2  0  0  3  0  0  0  0  0  0
  190.6640  173.4960  143.3550 O   0  0  0  0  0  0  0  0  0  0  0  0
  190.1330  176.4830  144.1370 C   0  0  0  0  0  3  0  0  0  0  0  0
  190.1260  175.2980  144.8900 C   0  0  0  0  0  0  0  0  0  0  0  0
  189.1990  175.1610  145.9380 C   0  0  0  0  0  3  0  0  0  0  0  0
  187.4380  176.0640  147.2650 F   0  0  0  0  0  0  0  0  0  0  0  0
  188.3480  177.3840  145.5010 C   0  0  0  0  0  3  0  0  0  0  0  0
  188.3200  176.2020  146.2460 C   0  0  0  0  0  0  0  0  0  0  0  0
  189.2520  177.5220  144.4460 C   0  0  0  0  0  3  0  0  0  0  0  0
  197.0160  175.9370  141.6120 C   0  0  0  0  0  1  0  0  0  0  0  0
  197.4000  174.9030  142.4670 O   0  0  0  0  0  0  0  0  0  0  0  0
  2 17  1  0  0  0  0
  2 24  1  0  0  0  0
  3  9  1  0  0  0  0
  3  7  2  0  0  0  0
  4 37  1  6  0  0  0
  4  1  1  0  0  0  0
  6  9  2  0  0  0  0
  6 22  1  0  0  0  0
  7 10  1  0  0  0  0
  8 26  1  6  0  0  0
  8 18  1  0  0  0  0
  9 13  1  0  0  0  0
 10  5  1  0  0  0  0
 11  6  1  0  0  0  0
 12  4  1  0  0  0  0
 12  8  1  0  0  0  0
 13 21  1  0  0  0  0
 13 17  1  0  0  0  0
 14  2  1  0  0  0  0
 15 28  1  0  0  0  0
 15 20  2  0  0  0  0
 16 11  2  0  0  0  0
 16 20  1  0  0  0  0
 18 19  1  6  0  0  0
 18 25  1  0  0  0  0
 19  5  1  0  0  0  0
 20  3  1  0  0  0  0
 21  7  1  6  0  0  0
 22  2  1  0  0  0  0
 23 30  1  0  0  0  0
 23 10  2  0  0  0  0
 27  1  1  6  0  0  0
 27 21  1  0  0  0  0
 27 25  1  0  0  0  0
 28 23  1  0  0  0  0
 29 35  2  0  0  0  0
 29 30  1  0  0  0  0
 30 31  2  0  0  0  0
 31 34  1  0  0  0  0
 33 34  2  0  0  0  0
 34 32  1  0  0  0  0
 35 33  1  0  0  0  0
 36 37  1  0  0  0  0
M  END
>  <MODEL>
5

>  <REMARK>
 VINA RESULT:      -8.2      2.682      5.838
  Name = 
  2 active torsions:
  status: ('A' for Active; 'I' for Inactive)
    1  A    between atoms: C_4  and  O_37
    2  A    between atoms: C_23  and  C_30
                            x       y       z     vdW  Elec       q    Type
                         _______ _______ _______ _____ _____    ______ ____

>  <TORSDO>
F 2

$$$$
=
 OpenBabel11112417113D

 37 43  0  0  1  0  0  0  0  0999 V2000
  189.9320  174.6850  142.2150 C   0  0  0  0  0  2  0  0  0  0  0  0
  194.6220  175.7410  142.9290 C   0  0  0  0  0  0  0  0  0  0  0  0
  191.2120  175.8550  145.3550 C   0  0  0  0  0  0  0  0  0  0  0  0
  189.0020  174.1540  141.1260 C   0  0  2  0  0  3  0  0  0  0  0  0
  188.4780  178.0380  144.2050 O   0  0  0  0  0  0  0  0  0  0  0  0
  193.5580  175.3080  145.1370 C   0  0  0  0  0  0  0  0  0  0  0  0
  190.3100  176.5100  144.6240 C   0  0  0  0  0  0  0  0  0  0  0  0
  187.1550  175.3270  142.5630 C   0  0  2  0  0  3  0  0  0  0  0  0
  192.3540  175.7270  144.6160 C   0  0  0  0  0  0  0  0  0  0  0  0
  189.0410  177.1050  145.0810 C   0  0  0  0  0  0  0  0  0  0  0  0
  193.5880  174.8780  146.4680 C   0  0  0  0  0  3  0  0  0  0  0  0
  187.5060  174.3260  141.4520 C   0  0  0  0  0  2  0  0  0  0  0  0
  192.2470  176.2650  143.3310 N   0  0  0  0  0  0  0  0  0  0  0  0
  194.4470  174.4760  142.1080 C   0  0  0  0  0  1  0  0  0  0  0  0
  190.1120  175.3680  147.4500 C   0  0  0  0  0  3  0  0  0  0  0  0
  192.4010  174.9140  147.2300 C   0  0  0  0  0  3  0  0  0  0  0  0
  193.4470  176.7060  142.6270 C   0  0  0  0  0  2  0  0  0  0  0  0
  187.6070  176.7750  142.3010 C   0  0  1  0  0  3  0  0  0  0  0  0
  187.3120  177.7490  143.4400 C   0  0  0  0  0  2  0  0  0  0  0  0
  191.1960  175.4160  146.6860 C   0  0  0  0  0  0  0  0  0  0  0  0
  190.9090  176.8390  143.2550 C   0  0  1  0  0  3  0  0  0  0  0  0
  194.6990  175.3910  144.3280 O   0  0  0  0  0  0  0  0  0  0  0  0
  188.4020  176.7910  146.2340 C   0  0  0  0  0  0  0  0  0  0  0  0
  195.9180  176.4040  142.5160 C   0  0  0  0  0  1  0  0  0  0  0  0
  188.9460  177.0150  141.5840 C   0  0  0  0  0  2  0  0  0  0  0  0
  187.5730  174.8540  143.8090 O   0  0  0  0  0  1  0  0  0  0  0  0
  190.1470  176.1980  142.0850 C   0  0  2  0  0  3  0  0  0  0  0  0
  188.8220  175.8010  147.1350 O   0  0  0  0  0  0  0  0  0  0  0  0
  185.9140  176.8590  146.2970 C   0  0  0  0  0  3  0  0  0  0  0  0
  187.1390  177.4690  146.6060 C   0  0  0  0  0  0  0  0  0  0  0  0
  187.1370  178.6740  147.3290 C   0  0  0  0  0  3  0  0  0  0  0  0
  185.9420  180.4390  148.3930 F   0  0  0  0  0  0  0  0  0  0  0  0
  184.7180  178.6650  147.3770 C   0  0  0  0  0  3  0  0  0  0  0  0
  185.9320  179.2730  147.7060 C   0  0  0  0  0  0  0  0  0  0  0  0
  184.7090  177.4570  146.6760 C   0  0  0  0  0  3  0  0  0  0  0  0
  189.3670  172.2350  142.1630 C   0  0  0  0  0  1  0  0  0  0  0  0
  189.2730  172.8060  140.8920 O   0  0  0  0  0  0  0  0  0  0  0  0
  2 22  1  0  0  0  0
  3 20  1  0  0  0  0
  4 37  1  1  0  0  0
  4 12  1  0  0  0  0
  4  1  1  0  0  0  0
  5 10  1  0  0  0  0
  6 11  1  0  0  0  0
  7 10  1  0  0  0  0
  7  3  2  0  0  0  0
  8 26  1  1  0  0  0
  9  6  2  0  0  0  0
  9  3  1  0  0  0  0
 10 23  2  0  0  0  0
 11 16  2  0  0  0  0
 12  8  1  0  0  0  0
 13  9  1  0  0  0  0
 14  2  1  0  0  0  0
 17  2  1  0  0  0  0
 17 13  1  0  0  0  0
 18 25  1  1  0  0  0
 18  8  1  0  0  0  0
 18 19  1  0  0  0  0
 19  5  1  0  0  0  0
 20 16  1  0  0  0  0
 20 15  2  0  0  0  0
 21 13  1  0  0  0  0
 21  7  1  1  0  0  0
 22  6  1  0  0  0  0
 23 30  1  0  0  0  0
 23 28  1  0  0  0  0
 24  2  1  0  0  0  0
 27 25  1  1  0  0  0
 27  1  1  0  0  0  0
 27 21  1  0  0  0  0
 28 15  1  0  0  0  0
 29 30  2  0  0  0  0
 29 35  1  0  0  0  0
 30 31  1  0  0  0  0
 31 34  2  0  0  0  0
 33 34  1  0  0  0  0
 34 32  1  0  0  0  0
 35 33  2  0  0  0  0
 37 36  1  0  0  0  0
M  END
>  <MODEL>
6

>  <REMARK>
 VINA RESULT:      -8.1      1.723      2.190
  Name = 
  2 active torsions:
  status: ('A' for Active; 'I' for Inactive)
    1  A    between atoms: C_4  and  O_37
    2  A    between atoms: C_23  and  C_30
                            x       y       z     vdW  Elec       q    Type
                         _______ _______ _______ _____ _____    ______ ____

>  <TORSDO>
F 2

$$$$
=
 OpenBabel11112417113D

 37 43  0  0  1  0  0  0  0  0999 V2000
  192.8360  174.7340  143.7790 C   0  0  0  0  0  2  0  0  0  0  0  0
  191.7700  170.8980  140.9920 C   0  0  0  0  0  0  0  0  0  0  0  0
  189.5970  174.2160  142.3290 C   0  0  0  0  0  0  0  0  0  0  0  0
  194.0170  175.3450  144.5310 C   0  0  2  0  0  3  0  0  0  0  0  0
  189.3070  174.6000  145.9790 O   0  0  0  0  0  0  0  0  0  0  0  0
  190.1310  172.7090  140.5140 C   0  0  0  0  0  0  0  0  0  0  0  0
  189.8310  174.2570  143.6400 C   0  0  0  0  0  0  0  0  0  0  0  0
  192.1310  176.5530  145.8860 C   0  0  2  0  0  3  0  0  0  0  0  0
  190.3120  173.1820  141.7950 C   0  0  0  0  0  0  0  0  0  0  0  0
  189.0950  175.0200  144.6630 C   0  0  0  0  0  0  0  0  0  0  0  0
  189.2520  173.3990  139.6730 C   0  0  0  0  0  3  0  0  0  0  0  0
  193.6150  176.4730  145.5010 C   0  0  0  0  0  2  0  0  0  0  0  0
  191.0930  172.5040  142.7350 N   0  0  0  0  0  0  0  0  0  0  0  0
  193.1440  171.4610  140.6750 C   0  0  0  0  0  1  0  0  0  0  0  0
  188.0820  176.0460  141.8890 C   0  0  0  0  0  3  0  0  0  0  0  0
  188.5660  174.5270  140.1700 C   0  0  0  0  0  3  0  0  0  0  0  0
  191.4700  171.1140  142.4980 C   0  0  0  0  0  2  0  0  0  0  0  0
  191.5700  175.2990  146.5830 C   0  0  1  0  0  3  0  0  0  0  0  0
  190.0780  175.3630  146.9020 C   0  0  0  0  0  2  0  0  0  0  0  0
  188.7210  174.9450  141.5120 C   0  0  0  0  0  0  0  0  0  0  0  0
  190.8130  173.1440  144.0140 C   0  0  1  0  0  3  0  0  0  0  0  0
  190.7910  171.5300  140.1400 O   0  0  0  0  0  0  0  0  0  0  0  0
  188.2850  176.0780  144.4150 C   0  0  0  0  0  0  0  0  0  0  0  0
  191.7850  169.4110  140.7050 C   0  0  0  0  0  1  0  0  0  0  0  0
  192.0710  173.9160  146.1350 C   0  0  0  0  0  2  0  0  0  0  0  0
  191.3540  176.9480  144.7940 O   0  0  0  0  0  1  0  0  0  0  0  0
  192.1250  173.6660  144.6190 C   0  0  2  0  0  3  0  0  0  0  0  0
  188.0790  176.6470  143.1500 O   0  0  0  0  0  0  0  0  0  0  0  0
  188.2870  177.6210  146.3700 C   0  0  0  0  0  3  0  0  0  0  0  0
  187.5740  176.7610  145.5220 C   0  0  0  0  0  0  0  0  0  0  0  0
  186.1860  176.6260  145.6970 C   0  0  0  0  0  3  0  0  0  0  0  0
  184.1950  177.1690  146.8880 F   0  0  0  0  0  0  0  0  0  0  0  0
  186.2550  178.1550  147.5720 C   0  0  0  0  0  3  0  0  0  0  0  0
  185.5310  177.3140  146.7220 C   0  0  0  0  0  0  0  0  0  0  0  0
  187.6320  178.3100  147.3930 C   0  0  0  0  0  3  0  0  0  0  0  0
  194.2280  176.0600  142.4490 C   0  0  0  0  0  1  0  0  0  0  0  0
  194.9540  175.8310  143.6190 O   0  0  0  0  0  0  0  0  0  0  0  0
  1  4  1  0  0  0  0
  2 17  1  0  0  0  0
  3  7  2  0  0  0  0
  4 37  1  6  0  0  0
  4 12  1  0  0  0  0
  5 19  1  0  0  0  0
  6  9  2  0  0  0  0
  7 10  1  0  0  0  0
  8 26  1  6  0  0  0
  8 18  1  0  0  0  0
  9  3  1  0  0  0  0
  9 13  1  0  0  0  0
 10  5  1  0  0  0  0
 11 16  2  0  0  0  0
 11  6  1  0  0  0  0
 12  8  1  0  0  0  0
 13 21  1  0  0  0  0
 14  2  1  0  0  0  0
 15 28  1  0  0  0  0
 16 20  1  0  0  0  0
 17 13  1  0  0  0  0
 18 25  1  6  0  0  0
 18 19  1  0  0  0  0
 20 15  2  0  0  0  0
 20  3  1  0  0  0  0
 21  7  1  6  0  0  0
 21 27  1  0  0  0  0
 22  6  1  0  0  0  0
 22  2  1  0  0  0  0
 23 10  2  0  0  0  0
 23 30  1  0  0  0  0
 24  2  1  0  0  0  0
 27  1  1  6  0  0  0
 27 25  1  0  0  0  0
 28 23  1  0  0  0  0
 29 35  1  0  0  0  0
 30 31  1  0  0  0  0
 30 29  2  0  0  0  0
 31 34  2  0  0  0  0
 34 32  1  0  0  0  0
 34 33  1  0  0  0  0
 35 33  2  0  0  0  0
 36 37  1  0  0  0  0
M  END
>  <MODEL>
7

>  <REMARK>
 VINA RESULT:      -8.1      1.909      5.056
  Name = 
  2 active torsions:
  status: ('A' for Active; 'I' for Inactive)
    1  A    between atoms: C_4  and  O_37
    2  A    between atoms: C_23  and  C_30
                            x       y       z     vdW  Elec       q    Type
                         _______ _______ _______ _____ _____    ______ ____

>  <TORSDO>
F 2

$$$$
=
 OpenBabel11112417113D

 37 43  0  0  1  0  0  0  0  0999 V2000
  193.1170  172.4560  142.3240 C   0  0  0  0  0  2  0  0  0  0  0  0
  196.5680  175.0880  140.1370 C   0  0  0  0  0  0  0  0  0  0  0  0
  193.8920  175.8280  143.2690 C   0  0  0  0  0  0  0  0  0  0  0  0
  192.5060  171.0570  142.2820 C   0  0  2  0  0  3  0  0  0  0  0  0
  190.3140  175.5290  142.4490 O   0  0  0  0  0  0  0  0  0  0  0  0
  196.1320  176.0590  142.3860 C   0  0  0  0  0  0  0  0  0  0  0  0
  192.7100  175.4370  142.7920 C   0  0  0  0  0  0  0  0  0  0  0  0
  190.4770  172.2430  143.4350 C   0  0  2  0  0  3  0  0  0  0  0  0
  194.8440  175.5760  142.3220 C   0  0  0  0  0  0  0  0  0  0  0  0
  191.3740  175.7420  143.3360 C   0  0  0  0  0  0  0  0  0  0  0  0
  196.5230  176.7460  143.5400 C   0  0  0  0  0  3  0  0  0  0  0  0
  191.1910  170.9310  143.0760 C   0  0  0  0  0  2  0  0  0  0  0  0
  194.3340  174.9640  141.1730 N   0  0  0  0  0  0  0  0  0  0  0  0
  197.0100  173.6530  140.3630 C   0  0  0  0  0  1  0  0  0  0  0  0
  193.4430  176.6730  145.4880 C   0  0  0  0  0  3  0  0  0  0  0  0
  195.5850  176.9430  144.5760 C   0  0  0  0  0  3  0  0  0  0  0  0
  195.0360  175.1130  139.9020 C   0  0  0  0  0  2  0  0  0  0  0  0
  190.0590  173.1080  142.2310 C   0  0  1  0  0  3  0  0  0  0  0  0
  189.4100  174.4400  142.6010 C   0  0  0  0  0  2  0  0  0  0  0  0
  194.2500  176.4950  144.4490 C   0  0  0  0  0  0  0  0  0  0  0  0
  192.8980  174.8550  141.3900 C   0  0  1  0  0  3  0  0  0  0  0  0
  196.9630  175.8880  141.2710 O   0  0  0  0  0  0  0  0  0  0  0  0
  191.1240  176.1690  144.5980 C   0  0  0  0  0  0  0  0  0  0  0  0
  197.2610  175.6130  138.8980 C   0  0  0  0  0  1  0  0  0  0  0  0
  190.9820  173.1640  141.0030 C   0  0  0  0  0  2  0  0  0  0  0  0
  191.2090  172.9640  144.3820 O   0  0  0  0  0  1  0  0  0  0  0  0
  192.4780  173.3810  141.2810 C   0  0  2  0  0  3  0  0  0  0  0  0
  192.0950  176.3200  145.5980 O   0  0  0  0  0  0  0  0  0  0  0  0
  189.1860  175.7510  146.1050 C   0  0  0  0  0  3  0  0  0  0  0  0
  189.7390  176.4670  145.0320 C   0  0  0  0  0  0  0  0  0  0  0  0
  188.9920  177.5030  144.4460 C   0  0  0  0  0  3  0  0  0  0  0  0
  186.9880  178.7870  144.3230 F   0  0  0  0  0  0  0  0  0  0  0  0
  187.1560  177.0620  145.9600 C   0  0  0  0  0  3  0  0  0  0  0  0
  187.7040  177.7930  144.9020 C   0  0  0  0  0  0  0  0  0  0  0  0
  187.8980  176.0440  146.5620 C   0  0  0  0  0  3  0  0  0  0  0  0
  193.9700  170.7200  143.9050 C   0  0  0  0  0  1  0  0  0  0  0  0
  193.4270  170.1270  142.7640 O   0  0  0  0  0  0  0  0  0  0  0  0
  2 14  1  0  0  0  0
  2 22  1  0  0  0  0
  3 20  1  0  0  0  0
  4  1  1  0  0  0  0
  4 37  1  1  0  0  0
  4 12  1  0  0  0  0
  5 19  1  0  0  0  0
  5 10  1  0  0  0  0
  6 11  1  0  0  0  0
  7  3  2  0  0  0  0
  7 10  1  0  0  0  0
  8 26  1  1  0  0  0
  9  6  2  0  0  0  0
  9  3  1  0  0  0  0
 10 23  2  0  0  0  0
 11 16  2  0  0  0  0
 12  8  1  0  0  0  0
 13 21  1  0  0  0  0
 13  9  1  0  0  0  0
 15 28  1  0  0  0  0
 17  2  1  0  0  0  0
 17 13  1  0  0  0  0
 18 25  1  1  0  0  0
 18 19  1  0  0  0  0
 18  8  1  0  0  0  0
 20 16  1  0  0  0  0
 20 15  2  0  0  0  0
 21  7  1  1  0  0  0
 22  6  1  0  0  0  0
 23 30  1  0  0  0  0
 23 28  1  0  0  0  0
 24  2  1  0  0  0  0
 27 25  1  1  0  0  0
 27 21  1  0  0  0  0
 27  1  1  0  0  0  0
 29 35  1  0  0  0  0
 30 29  2  0  0  0  0
 31 34  2  0  0  0  0
 31 30  1  0  0  0  0
 32 34  1  0  0  0  0
 33 35  2  0  0  0  0
 34 33  1  0  0  0  0
 37 36  1  0  0  0  0
M  END
>  <MODEL>
8

>  <REMARK>
 VINA RESULT:      -8.0      1.684      2.331
  Name = 
  2 active torsions:
  status: ('A' for Active; 'I' for Inactive)
    1  A    between atoms: C_4  and  O_37
    2  A    between atoms: C_23  and  C_30
                            x       y       z     vdW  Elec       q    Type
                         _______ _______ _______ _____ _____    ______ ____

>  <TORSDO>
F 2

$$$$
=
 OpenBabel11112417113D

 37 43  0  0  1  0  0  0  0  0999 V2000
  193.9240  172.1330  142.5290 C   0  0  0  0  0  2  0  0  0  0  0  0
  196.6350  174.8030  139.5060 C   0  0  0  0  0  0  0  0  0  0  0  0
  194.5630  175.6250  143.0490 C   0  0  0  0  0  0  0  0  0  0  0  0
  193.4450  170.6950  142.7140 C   0  0  2  0  0  3  0  0  0  0  0  0
  190.9350  174.9920  142.9880 O   0  0  0  0  0  0  0  0  0  0  0  0
  196.5590  175.9390  141.7190 C   0  0  0  0  0  0  0  0  0  0  0  0
  193.3510  175.1070  142.8490 C   0  0  0  0  0  0  0  0  0  0  0  0
  191.5800  171.8290  144.1600 C   0  0  2  0  0  3  0  0  0  0  0  0
  195.3310  175.3590  141.9510 C   0  0  0  0  0  0  0  0  0  0  0  0
  192.1240  175.3610  143.6250 C   0  0  0  0  0  0  0  0  0  0  0  0
  197.1030  176.7540  142.7180 C   0  0  0  0  0  3  0  0  0  0  0  0
  192.3250  170.5460  143.7630 C   0  0  0  0  0  2  0  0  0  0  0  0
  194.6650  174.6110  140.9760 N   0  0  0  0  0  0  0  0  0  0  0  0
  197.2400  173.4310  139.7430 C   0  0  0  0  0  1  0  0  0  0  0  0
  194.4780  176.6300  145.2440 C   0  0  0  0  0  3  0  0  0  0  0  0
  196.3700  176.9740  143.9030 C   0  0  0  0  0  3  0  0  0  0  0  0
  195.0910  174.6960  139.5820 C   0  0  0  0  0  2  0  0  0  0  0  0
  190.8600  172.5480  143.0050 C   0  0  1  0  0  3  0  0  0  0  0  0
  190.1790  173.8580  143.3980 C   0  0  0  0  0  2  0  0  0  0  0  0
  195.0810  176.4200  144.0800 C   0  0  0  0  0  0  0  0  0  0  0  0
  193.3140  174.4160  141.4840 C   0  0  1  0  0  3  0  0  0  0  0  0
  197.1700  175.7300  140.4760 O   0  0  0  0  0  0  0  0  0  0  0  0
  192.0850  175.8800  144.8770 C   0  0  0  0  0  0  0  0  0  0  0  0
  197.0250  175.2640  138.1180 C   0  0  0  0  0  1  0  0  0  0  0  0
  191.5190  172.5620  141.6150 C   0  0  0  0  0  2  0  0  0  0  0  0
  192.4140  172.6840  144.8850 O   0  0  0  0  0  1  0  0  0  0  0  0
  193.0150  172.9120  141.5700 C   0  0  2  0  0  3  0  0  0  0  0  0
  193.2150  176.1910  145.6470 O   0  0  0  0  0  0  0  0  0  0  0  0
  190.0180  177.2300  145.2000 C   0  0  0  0  0  3  0  0  0  0  0  0
  190.7900  176.1140  145.5570 C   0  0  0  0  0  0  0  0  0  0  0  0
  190.2800  175.2040  146.4990 C   0  0  0  0  0  3  0  0  0  0  0  0
  188.5580  174.5470  148.0090 F   0  0  0  0  0  0  0  0  0  0  0  0
  188.2830  176.5490  146.7450 C   0  0  0  0  0  3  0  0  0  0  0  0
  189.0350  175.4250  147.0950 C   0  0  0  0  0  0  0  0  0  0  0  0
  188.7730  177.4490  145.7960 C   0  0  0  0  0  3  0  0  0  0  0  0
  195.5640  170.2850  142.2320 C   0  0  0  0  0  1  0  0  0  0  0  0
  194.5220  169.8830  143.0690 O   0  0  0  0  0  0  0  0  0  0  0  0
  1  4  1  0  0  0  0
  2 17  1  0  0  0  0
  2 14  1  0  0  0  0
  2 22  1  0  0  0  0
  3 20  1  0  0  0  0
  4 37  1  1  0  0  0
  4 12  1  0  0  0  0
  5 19  1  0  0  0  0
  5 10  1  0  0  0  0
  6  9  2  0  0  0  0
  6 11  1  0  0  0  0
  7  3  2  0  0  0  0
  7 10  1  0  0  0  0
  8 26  1  6  0  0  0
  9  3  1  0  0  0  0
 10 23  2  0  0  0  0
 11 16  2  0  0  0  0
 12  8  1  0  0  0  0
 13 21  1  0  0  0  0
 13  9  1  0  0  0  0
 15 28  1  0  0  0  0
 16 20  1  0  0  0  0
 17 13  1  0  0  0  0
 18 25  1  6  0  0  0
 18 19  1  0  0  0  0
 18  8  1  0  0  0  0
 20 15  2  0  0  0  0
 21 27  1  0  0  0  0
 21  7  1  1  0  0  0
 22  6  1  0  0  0  0
 23 30  1  0  0  0  0
 23 28  1  0  0  0  0
 24  2  1  0  0  0  0
 27 25  1  1  0  0  0
 27  1  1  0  0  0  0
 29 30  2  0  0  0  0
 29 35  1  0  0  0  0
 30 31  1  0  0  0  0
 31 34  2  0  0  0  0
 33 34  1  0  0  0  0
 34 32  1  0  0  0  0
 35 33  2  0  0  0  0
 36 37  1  0  0  0  0
M  END
>  <MODEL>
9

>  <REMARK>
 VINA RESULT:      -7.8      2.430      3.559
  Name = 
  2 active torsions:
  status: ('A' for Active; 'I' for Inactive)
    1  A    between atoms: C_4  and  O_37
    2  A    between atoms: C_23  and  C_30
                            x       y       z     vdW  Elec       q    Type
                         _______ _______ _______ _____ _____    ______ ____

>  <TORSDO>
F 2

$$$$
