=
 OpenBabel11112417553D

 34 41  0  0  1  0  0  0  0  0999 V2000
  191.9980  176.5190  145.3890 C   0  0  2  0  0  3  0  0  0  0  0  0
  189.9420  176.5590  146.6870 C   0  0  0  0  0  2  0  0  0  0  0  0
  195.4160  175.3900  139.8090 C   0  0  2  0  0  3  0  0  0  0  0  0
  194.0640  176.3050  143.9410 C   0  0  1  0  0  3  0  0  0  0  0  0
  193.7700  175.4860  141.5690 C   0  0  1  0  0  3  0  0  0  0  0  0
  193.7030  174.5320  139.1570 C   0  0  0  0  0  2  0  0  0  0  0  0
  194.8430  175.1620  138.4930 N   0  0  0  0  0  2  0  0  0  0  0  0
  197.2170  174.7340  141.8270 S   0  0  0  0  0  0  0  0  0  0  0  0
  189.8730  176.1880  144.4610 C   0  0  1  0  0  3  0  0  0  0  0  0
  187.2610  175.5220  142.7990 C   0  0  0  0  0  3  0  0  0  0  0  0
  192.3900  174.9860  141.9860 C   0  0  0  0  0  2  0  0  0  0  0  0
  196.1030  176.0610  142.4540 C   0  0  0  0  0  2  0  0  0  0  0  0
  190.4140  175.4890  143.2040 C   0  0  2  0  0  3  0  0  0  0  0  0
  188.4660  176.4200  146.3150 C   0  0  0  0  0  2  0  0  0  0  0  0
  194.7080  175.5070  142.8000 C   0  0  1  0  0  3  0  0  0  0  0  0
  196.7900  174.7890  140.0300 C   0  0  0  0  0  2  0  0  0  0  0  0
  187.4190  176.4290  143.9850 C   0  0  2  0  0  3  0  0  0  0  0  0
  192.6370  175.7820  144.1970 C   0  0  2  0  0  3  0  0  0  0  0  0
  194.3710  174.5770  140.5140 C   0  0  1  0  0  3  0  0  0  0  0  0
  191.8150  175.8980  142.9760 N   0  0  1  0  0  0  0  0  0  0  0  0
  194.2040  175.7040  146.4330 C   0  0  0  0  0  2  0  0  0  0  0  0
  188.2390  175.2920  141.9140 C   0  0  0  0  0  3  0  0  0  0  0  0
  194.9370  176.2620  145.2110 C   0  0  0  0  0  2  0  0  0  0  0  0
  189.5890  175.9420  141.9920 C   0  0  0  0  0  2  0  0  0  0  0  0
  188.4780  175.8340  144.9100 C   0  0  1  0  0  3  0  0  0  0  0  0
  192.8800  176.4390  146.6530 C   0  0  0  0  0  2  0  0  0  0  0  0
  190.6960  175.9070  145.6190 N   0  0  1  0  0  0  0  0  0  0  0  0
  186.1900  176.5210  144.6440 O   0  0  0  0  0  0  0  0  0  0  0  0
  185.6470  177.7360  144.2190 C   0  0  0  0  0  2  0  0  0  0  0  0
  185.5750  177.7120  147.4700 O   0  0  0  0  0  0  0  0  0  0  0  0
  185.5100  179.5060  145.9370 C   0  0  0  0  0  2  0  0  0  0  0  0
  184.7960  178.3370  145.3220 C   0  0  2  0  0  3  0  0  0  0  0  0
  185.6790  179.1080  147.3840 C   0  0  0  0  0  2  0  0  0  0  0  0
  184.6730  177.3490  146.4590 C   0  0  0  0  0  2  0  0  0  0  0  0
  1 27  1  0  0  0  0
  1 26  1  1  0  0  0
  3 16  1  6  0  0  0
  3 19  1  0  0  0  0
  4 18  1  0  0  0  0
  4 23  1  1  0  0  0
  5 11  1  1  0  0  0
  5 15  1  0  0  0  0
  6 19  1  0  0  0  0
  7  6  1  0  0  0  0
  7  3  1  0  0  0  0
  8 12  1  0  0  0  0
  9 25  1  0  0  0  0
  9 27  1  0  0  0  0
 10 17  1  0  0  0  0
 11 20  1  0  0  0  0
 12 15  1  0  0  0  0
 13  9  1  0  0  0  0
 14  2  1  0  0  0  0
 15  4  1  0  0  0  0
 16  8  1  0  0  0  0
 17 28  1  0  0  0  0
 17 25  1  0  0  0  0
 18  1  1  0  0  0  0
 19  5  1  0  0  0  0
 20 13  1  0  0  0  0
 20 18  1  0  0  0  0
 21 26  1  0  0  0  0
 22 24  1  0  0  0  0
 22 10  2  0  0  0  0
 23 21  1  0  0  0  0
 24 13  1  0  0  0  0
 25 14  1  0  0  0  0
 27  2  1  0  0  0  0
 29 28  1  0  0  0  0
 29 32  1  0  0  0  0
 31 33  1  0  0  0  0
 32 31  1  0  0  0  0
 32 34  1  0  0  0  0
 33 30  1  0  0  0  0
 34 30  1  0  0  0  0
M  END
>  <MODEL>
1

>  <REMARK>
 VINA RESULT:      -8.3      0.000      0.000
  Name = 
  3 active torsions:
  status: ('A' for Active; 'I' for Inactive)
    1  A    between atoms: C_17  and  O_28
    2  A    between atoms: O_28  and  C_29
    3  A    between atoms: C_29  and  C_32
                            x       y       z     vdW  Elec       q    Type
                         _______ _______ _______ _____ _____    ______ ____

>  <TORSDO>
F 3

$$$$
=
 OpenBabel11112417553D

 34 41  0  0  1  0  0  0  0  0999 V2000
  189.6560  174.1760  142.3260 C   0  0  2  0  0  3  0  0  0  0  0  0
  187.4350  175.1650  142.3160 C   0  0  0  0  0  2  0  0  0  0  0  0
  195.7940  173.5150  144.7690 C   0  0  2  0  0  3  0  0  0  0  0  0
  192.0430  173.3350  142.3960 C   0  0  1  0  0  3  0  0  0  0  0  0
  193.5650  174.2380  144.2000 C   0  0  1  0  0  3  0  0  0  0  0  0
  195.3240  175.1410  145.8800 C   0  0  0  0  0  2  0  0  0  0  0  0
  196.2610  174.0310  146.0450 N   0  0  0  0  0  2  0  0  0  0  0  0
  196.1290  173.1190  142.0350 S   0  0  0  0  0  0  0  0  0  0  0  0
  188.8470  175.5650  144.0300 C   0  0  1  0  0  3  0  0  0  0  0  0
  188.2660  177.5050  146.4650 C   0  0  0  0  0  3  0  0  0  0  0  0
  192.5540  175.3630  144.3940 C   0  0  0  0  0  2  0  0  0  0  0  0
  194.4450  172.5340  142.5030 C   0  0  0  0  0  2  0  0  0  0  0  0
  190.2490  175.9150  144.5550 C   0  0  2  0  0  3  0  0  0  0  0  0
  186.6750  176.0460  143.3090 C   0  0  0  0  0  2  0  0  0  0  0  0
  193.4880  173.7150  142.7450 C   0  0  1  0  0  3  0  0  0  0  0  0
  196.8680  173.3260  143.7160 C   0  0  0  0  0  2  0  0  0  0  0  0
  187.3130  176.6200  145.7140 C   0  0  2  0  0  3  0  0  0  0  0  0
  191.1030  174.5070  142.7370 C   0  0  2  0  0  3  0  0  0  0  0  0
  194.9730  174.7330  144.4650 C   0  0  1  0  0  3  0  0  0  0  0  0
  191.2000  174.8530  144.1690 N   0  0  1  0  0  0  0  0  0  0  0  0
  190.9120  173.7290  140.1250 C   0  0  0  0  0  2  0  0  0  0  0  0
  189.5660  177.2210  146.6180 C   0  0  0  0  0  3  0  0  0  0  0  0
  191.9220  172.9010  140.9220 C   0  0  0  0  0  2  0  0  0  0  0  0
  190.2040  175.9710  146.0880 C   0  0  0  0  0  2  0  0  0  0  0  0
  187.7480  176.5720  144.2520 C   0  0  1  0  0  3  0  0  0  0  0  0
  189.5600  173.7690  140.8400 C   0  0  0  0  0  2  0  0  0  0  0  0
  188.8540  175.3620  142.5960 N   0  0  1  0  0  0  0  0  0  0  0  0
  186.0260  177.1550  145.8250 O   0  0  0  0  0  0  0  0  0  0  0  0
  186.2210  178.4750  146.2370 C   0  0  0  0  0  2  0  0  0  0  0  0
  185.2060  179.1460  143.2210 O   0  0  0  0  0  0  0  0  0  0  0  0
  183.9970  178.5780  145.1670 C   0  0  0  0  0  2  0  0  0  0  0  0
  185.1970  179.3810  145.5790 C   0  0  2  0  0  3  0  0  0  0  0  0
  183.9350  178.7580  143.6700 C   0  0  0  0  0  2  0  0  0  0  0  0
  185.7510  179.9000  144.2710 C   0  0  0  0  0  2  0  0  0  0  0  0
  1 26  1  6  0  0  0
  1 27  1  0  0  0  0
  1 18  1  0  0  0  0
  2 27  1  0  0  0  0
  2 14  1  0  0  0  0
  3 16  1  6  0  0  0
  3  7  1  0  0  0  0
  4 23  1  6  0  0  0
  4 18  1  0  0  0  0
  4 15  1  0  0  0  0
  5 11  1  6  0  0  0
  5 19  1  0  0  0  0
  6  7  1  0  0  0  0
  8 12  1  0  0  0  0
  8 16  1  0  0  0  0
  9 25  1  0  0  0  0
  9 13  1  0  0  0  0
 10 22  2  0  0  0  0
 12 15  1  0  0  0  0
 13 24  1  0  0  0  0
 14 25  1  0  0  0  0
 15  5  1  0  0  0  0
 17 28  1  0  0  0  0
 17 10  1  0  0  0  0
 18 20  1  0  0  0  0
 19  3  1  0  0  0  0
 19  6  1  0  0  0  0
 20 11  1  0  0  0  0
 20 13  1  0  0  0  0
 21 26  1  0  0  0  0
 21 23  1  0  0  0  0
 24 22  1  0  0  0  0
 25 17  1  0  0  0  0
 27  9  1  0  0  0  0
 28 29  1  0  0  0  0
 30 33  1  0  0  0  0
 30 34  1  0  0  0  0
 31 32  1  0  0  0  0
 32 29  1  0  0  0  0
 33 31  1  0  0  0  0
 34 32  1  0  0  0  0
M  END
>  <MODEL>
2

>  <REMARK>
 VINA RESULT:      -8.3      2.178      4.138
  Name = 
  3 active torsions:
  status: ('A' for Active; 'I' for Inactive)
    1  A    between atoms: C_17  and  O_28
    2  A    between atoms: O_28  and  C_29
    3  A    between atoms: C_29  and  C_32
                            x       y       z     vdW  Elec       q    Type
                         _______ _______ _______ _____ _____    ______ ____

>  <TORSDO>
F 3

$$$$
=
 OpenBabel11112417553D

 34 41  0  0  1  0  0  0  0  0999 V2000
  193.7800  176.0220  145.3030 C   0  0  2  0  0  3  0  0  0  0  0  0
  192.2990  176.4270  147.1890 C   0  0  0  0  0  2  0  0  0  0  0  0
  194.9300  174.7060  138.8980 C   0  0  2  0  0  3  0  0  0  0  0  0
  195.1790  175.4620  143.2680 C   0  0  1  0  0  3  0  0  0  0  0  0
  193.9770  175.0120  141.0910 C   0  0  1  0  0  3  0  0  0  0  0  0
  192.9350  174.3810  138.8010 C   0  0  0  0  0  2  0  0  0  0  0  0
  193.9500  174.7770  137.8270 N   0  0  0  0  0  2  0  0  0  0  0  0
  197.0020  173.4010  140.2180 S   0  0  0  0  0  0  0  0  0  0  0  0
  191.4690  176.3360  145.0920 C   0  0  1  0  0  3  0  0  0  0  0  0
  188.4010  176.5320  144.3290 C   0  0  0  0  0  3  0  0  0  0  0  0
  192.7040  174.8290  141.9120 C   0  0  0  0  0  2  0  0  0  0  0  0
  196.5320  174.8850  141.2040 C   0  0  0  0  0  2  0  0  0  0  0  0
  191.3970  175.6690  143.7090 C   0  0  2  0  0  3  0  0  0  0  0  0
  190.7990  176.7030  147.3030 C   0  0  0  0  0  2  0  0  0  0  0  0
  195.2090  174.6610  141.9600 C   0  0  1  0  0  3  0  0  0  0  0  0
  196.0890  173.7610  138.6530 C   0  0  0  0  0  2  0  0  0  0  0  0
  189.1470  177.2330  145.4280 C   0  0  2  0  0  3  0  0  0  0  0  0
  193.8080  175.2870  143.9500 C   0  0  2  0  0  3  0  0  0  0  0  0
  193.9650  174.1060  139.8760 C   0  0  1  0  0  3  0  0  0  0  0  0
  192.7220  175.7390  143.0590 N   0  0  1  0  0  0  0  0  0  0  0  0
  195.8890  174.5710  145.5690 C   0  0  0  0  0  2  0  0  0  0  0  0
  188.9690  176.1650  143.1730 C   0  0  0  0  0  3  0  0  0  0  0  0
  196.3450  175.0610  144.1940 C   0  0  0  0  0  2  0  0  0  0  0  0
  190.4030  176.4460  142.8350 C   0  0  0  0  0  2  0  0  0  0  0  0
  190.2310  176.2940  145.9510 C   0  0  1  0  0  3  0  0  0  0  0  0
  194.9430  175.5830  146.2190 C   0  0  0  0  0  2  0  0  0  0  0  0
  192.4920  175.7320  145.9200 N   0  0  1  0  0  0  0  0  0  0  0  0
  188.2450  177.5550  146.4450 O   0  0  0  0  0  0  0  0  0  0  0  0
  187.2740  176.5520  146.3930 C   0  0  0  0  0  2  0  0  0  0  0  0
  185.5100  179.2250  146.9600 O   0  0  0  0  0  0  0  0  0  0  0  0
  184.8500  177.0320  146.3860 C   0  0  0  0  0  2  0  0  0  0  0  0
  186.0790  176.9430  147.2440 C   0  0  2  0  0  3  0  0  0  0  0  0
  184.4090  178.4690  146.5320 C   0  0  0  0  0  2  0  0  0  0  0  0
  186.2660  178.3530  147.7570 C   0  0  0  0  0  2  0  0  0  0  0  0
  1 27  1  0  0  0  0
  1 26  1  1  0  0  0
  2 14  1  0  0  0  0
  3 16  1  6  0  0  0
  3 19  1  0  0  0  0
  4 18  1  0  0  0  0
  4 23  1  1  0  0  0
  5 11  1  1  0  0  0
  5 15  1  0  0  0  0
  6 19  1  0  0  0  0
  7  6  1  0  0  0  0
  7  3  1  0  0  0  0
  8 12  1  0  0  0  0
  9 27  1  0  0  0  0
  9 25  1  0  0  0  0
 10 17  1  0  0  0  0
 11 20  1  0  0  0  0
 12 15  1  0  0  0  0
 13  9  1  0  0  0  0
 15  4  1  0  0  0  0
 16  8  1  0  0  0  0
 17 25  1  0  0  0  0
 17 28  1  0  0  0  0
 18  1  1  0  0  0  0
 19  5  1  0  0  0  0
 20 13  1  0  0  0  0
 20 18  1  0  0  0  0
 21 26  1  0  0  0  0
 22 10  2  0  0  0  0
 23 21  1  0  0  0  0
 24 22  1  0  0  0  0
 24 13  1  0  0  0  0
 25 14  1  0  0  0  0
 27  2  1  0  0  0  0
 29 28  1  0  0  0  0
 29 32  1  0  0  0  0
 30 34  1  0  0  0  0
 31 33  1  0  0  0  0
 31 32  1  0  0  0  0
 32 34  1  0  0  0  0
 33 30  1  0  0  0  0
M  END
>  <MODEL>
3

>  <REMARK>
 VINA RESULT:      -8.2      1.339      1.891
  Name = 
  3 active torsions:
  status: ('A' for Active; 'I' for Inactive)
    1  A    between atoms: C_17  and  O_28
    2  A    between atoms: O_28  and  C_29
    3  A    between atoms: C_29  and  C_32
                            x       y       z     vdW  Elec       q    Type
                         _______ _______ _______ _____ _____    ______ ____

>  <TORSDO>
F 3

$$$$
=
 OpenBabel11112417553D

 34 41  0  0  1  0  0  0  0  0999 V2000
  190.7810  175.7240  146.0600 C   0  0  2  0  0  3  0  0  0  0  0  0
  193.0200  174.8310  146.3810 C   0  0  0  0  0  2  0  0  0  0  0  0
  185.7400  177.7370  142.2380 C   0  0  2  0  0  3  0  0  0  0  0  0
  188.5250  176.7560  145.5560 C   0  0  1  0  0  3  0  0  0  0  0  0
  187.8700  177.0490  143.1330 C   0  0  1  0  0  3  0  0  0  0  0  0
  187.0690  177.5650  140.7200 C   0  0  0  0  0  2  0  0  0  0  0  0
  185.6110  177.5030  140.8090 N   0  0  0  0  0  2  0  0  0  0  0  0
  185.5970  179.4160  144.4510 S   0  0  0  0  0  0  0  0  0  0  0  0
  192.0960  174.8630  144.3230 C   0  0  1  0  0  3  0  0  0  0  0  0
  193.5450  173.9690  141.6520 C   0  0  0  0  0  3  0  0  0  0  0  0
  189.3420  176.8520  142.7830 C   0  0  0  0  0  2  0  0  0  0  0  0
  186.2810  177.7950  144.9980 C   0  0  0  0  0  2  0  0  0  0  0  0
  191.3050  175.5890  143.2220 C   0  0  2  0  0  3  0  0  0  0  0  0
  194.0360  174.1850  145.4380 C   0  0  0  0  0  2  0  0  0  0  0  0
  187.7500  177.6300  144.5620 C   0  0  1  0  0  3  0  0  0  0  0  0
  185.0060  178.9540  142.7620 C   0  0  0  0  0  2  0  0  0  0  0  0
  193.6780  173.3990  143.0350 C   0  0  2  0  0  3  0  0  0  0  0  0
  189.9610  176.5370  145.0420 C   0  0  2  0  0  3  0  0  0  0  0  0
  187.2130  178.0080  142.1610 C   0  0  1  0  0  3  0  0  0  0  0  0
  189.9450  175.8950  143.7130 N   0  0  1  0  0  0  0  0  0  0  0  0
  189.8930  177.6280  147.5460 C   0  0  0  0  0  2  0  0  0  0  0  0
  192.4250  174.5470  141.2000 C   0  0  0  0  0  3  0  0  0  0  0  0
  188.5000  177.3650  146.9720 C   0  0  0  0  0  2  0  0  0  0  0  0
  191.1690  174.6540  142.0120 C   0  0  0  0  0  2  0  0  0  0  0  0
  193.5410  174.5370  144.0430 C   0  0  1  0  0  3  0  0  0  0  0  0
  190.7600  176.3700  147.4620 C   0  0  0  0  0  2  0  0  0  0  0  0
  192.1410  175.6410  145.5430 N   0  0  1  0  0  0  0  0  0  0  0  0
  194.9310  172.7920  143.1500 O   0  0  0  0  0  0  0  0  0  0  0  0
  195.6720  173.2950  142.0770 C   0  0  0  0  0  2  0  0  0  0  0  0
  197.1330  175.2900  144.1900 O   0  0  0  0  0  0  0  0  0  0  0  0
  197.3540  172.9640  143.8570 C   0  0  0  0  0  2  0  0  0  0  0  0
  197.0880  173.6050  142.5250 C   0  0  2  0  0  3  0  0  0  0  0  0
  197.6680  174.1280  144.7650 C   0  0  0  0  0  2  0  0  0  0  0  0
  197.2160  175.0850  142.8050 C   0  0  0  0  0  2  0  0  0  0  0  0
  1 26  1  1  0  0  0
  3 16  1  6  0  0  0
  4 23  1  1  0  0  0
  5 11  1  6  0  0  0
  5 15  1  0  0  0  0
  6  7  1  0  0  0  0
  6 19  1  0  0  0  0
  7  3  1  0  0  0  0
  8 12  1  0  0  0  0
  9 27  1  0  0  0  0
 10 17  1  0  0  0  0
 11 20  1  0  0  0  0
 13 20  1  0  0  0  0
 13  9  1  0  0  0  0
 14  2  1  0  0  0  0
 15 12  1  0  0  0  0
 15  4  1  0  0  0  0
 16  8  1  0  0  0  0
 17 28  1  0  0  0  0
 17 25  1  0  0  0  0
 18  4  1  0  0  0  0
 18  1  1  0  0  0  0
 19  3  1  0  0  0  0
 19  5  1  0  0  0  0
 20 18  1  0  0  0  0
 22 10  2  0  0  0  0
 22 24  1  0  0  0  0
 23 21  1  0  0  0  0
 24 13  1  0  0  0  0
 25  9  1  0  0  0  0
 25 14  1  0  0  0  0
 26 21  1  0  0  0  0
 27  1  1  0  0  0  0
 27  2  1  0  0  0  0
 29 32  1  0  0  0  0
 29 28  1  0  0  0  0
 30 33  1  0  0  0  0
 31 33  1  0  0  0  0
 32 34  1  0  0  0  0
 32 31  1  0  0  0  0
 34 30  1  0  0  0  0
M  END
>  <MODEL>
4

>  <REMARK>
 VINA RESULT:      -8.1      3.953      8.185
  Name = 
  3 active torsions:
  status: ('A' for Active; 'I' for Inactive)
    1  A    between atoms: C_17  and  O_28
    2  A    between atoms: O_28  and  C_29
    3  A    between atoms: C_29  and  C_32
                            x       y       z     vdW  Elec       q    Type
                         _______ _______ _______ _____ _____    ______ ____

>  <TORSDO>
F 3

$$$$
=
 OpenBabel11112417553D

 34 41  0  0  1  0  0  0  0  0999 V2000
  191.6880  175.3430  144.7440 C   0  0  2  0  0  3  0  0  0  0  0  0
  190.4300  176.8670  146.1610 C   0  0  0  0  0  2  0  0  0  0  0  0
  192.2440  171.2230  139.5670 C   0  0  2  0  0  3  0  0  0  0  0  0
  192.8200  173.6440  143.2470 C   0  0  1  0  0  3  0  0  0  0  0  0
  191.4760  172.6530  141.3510 C   0  0  1  0  0  3  0  0  0  0  0  0
  190.2320  171.4150  139.4400 C   0  0  0  0  0  2  0  0  0  0  0  0
  191.2870  171.0900  138.4810 N   0  0  0  0  0  2  0  0  0  0  0  0
  193.9240  170.1030  141.4810 S   0  0  0  0  0  0  0  0  0  0  0  0
  189.5430  176.1260  144.2230 C   0  0  1  0  0  3  0  0  0  0  0  0
  186.6210  176.7700  143.1840 C   0  0  0  0  0  3  0  0  0  0  0  0
  190.2260  173.1650  142.0610 C   0  0  0  0  0  2  0  0  0  0  0  0
  193.9040  171.9300  141.7260 C   0  0  0  0  0  2  0  0  0  0  0  0
  189.2510  174.9850  143.2340 C   0  0  2  0  0  3  0  0  0  0  0  0
  189.0650  177.5420  146.0210 C   0  0  0  0  0  2  0  0  0  0  0  0
  192.5930  172.3920  142.3900 C   0  0  1  0  0  3  0  0  0  0  0  0
  193.0950  169.9980  139.8330 C   0  0  0  0  0  2  0  0  0  0  0  0
  187.5620  177.6470  143.9590 C   0  0  2  0  0  3  0  0  0  0  0  0
  191.4750  174.1300  143.8190 C   0  0  2  0  0  3  0  0  0  0  0  0
  191.1820  171.3590  140.6180 C   0  0  1  0  0  3  0  0  0  0  0  0
  190.5250  174.4320  142.7300 N   0  0  1  0  0  0  0  0  0  0  0  0
  193.3330  173.6460  145.7630 C   0  0  0  0  0  2  0  0  0  0  0  0
  187.0330  175.8210  142.3340 C   0  0  0  0  0  3  0  0  0  0  0  0
  193.8620  173.3810  144.3520 C   0  0  0  0  0  2  0  0  0  0  0  0
  188.4790  175.5540  142.0360 C   0  0  0  0  0  2  0  0  0  0  0  0
  188.3670  176.7680  144.9130 C   0  0  1  0  0  3  0  0  0  0  0  0
  192.7170  175.0440  145.8560 C   0  0  0  0  0  2  0  0  0  0  0  0
  190.3890  175.6810  145.3110 N   0  0  1  0  0  0  0  0  0  0  0  0
  186.8120  178.5850  144.6730 O   0  0  0  0  0  0  0  0  0  0  0  0
  185.4880  178.1610  144.5410 C   0  0  0  0  0  2  0  0  0  0  0  0
  185.9370  176.7920  147.4560 O   0  0  0  0  0  0  0  0  0  0  0  0
  185.5660  179.0420  146.8480 C   0  0  0  0  0  2  0  0  0  0  0  0
  184.8040  178.1680  145.8950 C   0  0  2  0  0  3  0  0  0  0  0  0
  185.9780  178.1020  147.9550 C   0  0  0  0  0  2  0  0  0  0  0  0
  184.8980  176.7910  146.5130 C   0  0  0  0  0  2  0  0  0  0  0  0
  1 27  1  0  0  0  0
  1 26  1  1  0  0  0
  3 16  1  1  0  0  0
  3 19  1  0  0  0  0
  4 18  1  0  0  0  0
  4 23  1  1  0  0  0
  5 11  1  1  0  0  0
  5 15  1  0  0  0  0
  6 19  1  0  0  0  0
  7  6  1  0  0  0  0
  7  3  1  0  0  0  0
  8 12  1  0  0  0  0
  9 25  1  0  0  0  0
  9 27  1  0  0  0  0
 10 17  1  0  0  0  0
 11 20  1  0  0  0  0
 12 15  1  0  0  0  0
 13  9  1  0  0  0  0
 14  2  1  0  0  0  0
 15  4  1  0  0  0  0
 16  8  1  0  0  0  0
 17 28  1  0  0  0  0
 17 25  1  0  0  0  0
 18  1  1  0  0  0  0
 19  5  1  0  0  0  0
 20 13  1  0  0  0  0
 20 18  1  0  0  0  0
 21 26  1  0  0  0  0
 22 10  2  0  0  0  0
 23 21  1  0  0  0  0
 24 22  1  0  0  0  0
 24 13  1  0  0  0  0
 25 14  1  0  0  0  0
 27  2  1  0  0  0  0
 29 28  1  0  0  0  0
 29 32  1  0  0  0  0
 30 33  1  0  0  0  0
 31 33  1  0  0  0  0
 32 34  1  0  0  0  0
 32 31  1  0  0  0  0
 34 30  1  0  0  0  0
M  END
>  <MODEL>
5

>  <REMARK>
 VINA RESULT:      -8.1      2.474      2.895
  Name = 
  3 active torsions:
  status: ('A' for Active; 'I' for Inactive)
    1  A    between atoms: C_17  and  O_28
    2  A    between atoms: O_28  and  C_29
    3  A    between atoms: C_29  and  C_32
                            x       y       z     vdW  Elec       q    Type
                         _______ _______ _______ _____ _____    ______ ____

>  <TORSDO>
F 3

$$$$
=
 OpenBabel11112417553D

 34 41  0  0  1  0  0  0  0  0999 V2000
  192.6920  175.9740  144.5560 C   0  0  2  0  0  3  0  0  0  0  0  0
  190.9350  177.6480  144.4210 C   0  0  0  0  0  2  0  0  0  0  0  0
  194.9770  169.7730  143.9110 C   0  0  2  0  0  3  0  0  0  0  0  0
  194.3740  174.0920  144.7580 C   0  0  1  0  0  3  0  0  0  0  0  0
  193.6320  171.7640  144.1120 C   0  0  1  0  0  3  0  0  0  0  0  0
  193.0310  169.2860  143.6350 C   0  0  0  0  0  2  0  0  0  0  0  0
  194.2990  168.6850  143.2250 N   0  0  0  0  0  2  0  0  0  0  0  0
  196.3900  170.7700  146.0900 S   0  0  0  0  0  0  0  0  0  0  0  0
  190.6000  175.5820  143.5780 C   0  0  1  0  0  3  0  0  0  0  0  0
  187.8890  174.5360  142.3190 C   0  0  0  0  0  3  0  0  0  0  0  0
  192.1960  172.2700  144.2090 C   0  0  0  0  0  2  0  0  0  0  0  0
  196.0170  172.1710  144.9530 C   0  0  0  0  0  2  0  0  0  0  0  0
  190.7120  174.0530  143.6990 C   0  0  2  0  0  3  0  0  0  0  0  0
  189.5350  177.6510  143.8060 C   0  0  0  0  0  2  0  0  0  0  0  0
  194.5390  172.5950  145.0510 C   0  0  1  0  0  3  0  0  0  0  0  0
  195.9470  169.3490  144.9950 C   0  0  0  0  0  2  0  0  0  0  0  0
  188.4910  175.9100  142.2550 C   0  0  2  0  0  3  0  0  0  0  0  0
  192.8780  174.4610  144.7750 C   0  0  2  0  0  3  0  0  0  0  0  0
  193.7140  170.3070  144.5200 C   0  0  1  0  0  3  0  0  0  0  0  0
  192.1360  173.6670  143.7750 N   0  0  1  0  0  0  0  0  0  0  0  0
  194.3510  175.9560  146.5230 C   0  0  0  0  0  2  0  0  0  0  0  0
  188.6180  173.4180  142.4170 C   0  0  0  0  0  3  0  0  0  0  0  0
  195.1960  174.9470  145.7430 C   0  0  0  0  0  2  0  0  0  0  0  0
  190.1180  173.4120  142.4370 C   0  0  0  0  0  2  0  0  0  0  0  0
  189.2180  176.1820  143.5700 C   0  0  1  0  0  3  0  0  0  0  0  0
  193.5060  176.8050  145.5720 C   0  0  0  0  0  2  0  0  0  0  0  0
  191.2670  176.2500  144.6770 N   0  0  1  0  0  0  0  0  0  0  0  0
  187.4660  176.8390  142.0620 O   0  0  0  0  0  0  0  0  0  0  0  0
  186.3560  176.2870  142.7070 C   0  0  0  0  0  2  0  0  0  0  0  0
  186.0420  178.6880  144.8780 O   0  0  0  0  0  0  0  0  0  0  0  0
  185.8490  178.6990  142.5250 C   0  0  0  0  0  2  0  0  0  0  0  0
  185.3500  177.3760  143.0310 C   0  0  2  0  0  3  0  0  0  0  0  0
  185.9610  179.5450  143.7700 C   0  0  0  0  0  2  0  0  0  0  0  0
  185.2780  177.5650  144.5290 C   0  0  0  0  0  2  0  0  0  0  0  0
  1 27  1  0  0  0  0
  1 18  1  0  0  0  0
  1 26  1  1  0  0  0
  2 27  1  0  0  0  0
  3 19  1  0  0  0  0
  3 16  1  1  0  0  0
  4 18  1  0  0  0  0
  4 15  1  0  0  0  0
  4 23  1  1  0  0  0
  5 11  1  1  0  0  0
  5 19  1  0  0  0  0
  5 15  1  0  0  0  0
  6 19  1  0  0  0  0
  7  6  1  0  0  0  0
  7  3  1  0  0  0  0
  9 13  1  0  0  0  0
  9 27  1  0  0  0  0
 10 22  2  0  0  0  0
 12 15  1  0  0  0  0
 12  8  1  0  0  0  0
 13 20  1  0  0  0  0
 14  2  1  0  0  0  0
 16  8  1  0  0  0  0
 17 10  1  0  0  0  0
 17 25  1  0  0  0  0
 20 11  1  0  0  0  0
 20 18  1  0  0  0  0
 22 24  1  0  0  0  0
 23 21  1  0  0  0  0
 24 13  1  0  0  0  0
 25  9  1  0  0  0  0
 25 14  1  0  0  0  0
 26 21  1  0  0  0  0
 28 17  1  0  0  0  0
 28 29  1  0  0  0  0
 29 32  1  0  0  0  0
 31 32  1  0  0  0  0
 31 33  1  0  0  0  0
 32 34  1  0  0  0  0
 33 30  1  0  0  0  0
 34 30  1  0  0  0  0
M  END
>  <MODEL>
6

>  <REMARK>
 VINA RESULT:      -8.0      3.242      3.720
  Name = 
  3 active torsions:
  status: ('A' for Active; 'I' for Inactive)
    1  A    between atoms: C_17  and  O_28
    2  A    between atoms: O_28  and  C_29
    3  A    between atoms: C_29  and  C_32
                            x       y       z     vdW  Elec       q    Type
                         _______ _______ _______ _____ _____    ______ ____

>  <TORSDO>
F 3

$$$$
=
 OpenBabel11112417553D

 34 41  0  0  1  0  0  0  0  0999 V2000
  188.1320  176.4690  145.6570 C   0  0  2  0  0  3  0  0  0  0  0  0
  185.8440  177.2900  145.7180 C   0  0  0  0  0  2  0  0  0  0  0  0
  193.5400  174.3500  142.4410 C   0  0  2  0  0  3  0  0  0  0  0  0
  190.4570  175.4930  145.4270 C   0  0  1  0  0  3  0  0  0  0  0  0
  191.3200  175.0210  143.1000 C   0  0  1  0  0  3  0  0  0  0  0  0
  192.3360  174.3350  140.8130 C   0  0  0  0  0  2  0  0  0  0  0  0
  193.7790  174.4650  141.0110 N   0  0  0  0  0  2  0  0  0  0  0  0
  193.5590  172.8740  144.7990 S   0  0  0  0  0  0  0  0  0  0  0  0
  186.9360  177.1200  143.7510 C   0  0  1  0  0  3  0  0  0  0  0  0
  185.6820  177.7190  140.9050 C   0  0  0  0  0  3  0  0  0  0  0  0
  189.8760  175.1240  142.6180 C   0  0  0  0  0  2  0  0  0  0  0  0
  192.7740  174.5060  145.1440 C   0  0  0  0  0  2  0  0  0  0  0  0
  187.8400  176.3370  142.7850 C   0  0  2  0  0  3  0  0  0  0  0  0
  184.8870  177.8090  144.6440 C   0  0  0  0  0  2  0  0  0  0  0  0
  191.3420  174.5700  144.5800 C   0  0  1  0  0  3  0  0  0  0  0  0
  194.2710  173.2140  143.1290 C   0  0  0  0  0  2  0  0  0  0  0  0
  185.4160  178.4000  142.2160 C   0  0  2  0  0  3  0  0  0  0  0  0
  189.0620  175.6060  144.7830 C   0  0  2  0  0  3  0  0  0  0  0  0
  192.0890  174.0110  142.2720 C   0  0  1  0  0  3  0  0  0  0  0  0
  189.1640  176.1310  143.4080 N   0  0  1  0  0  0  0  0  0  0  0  0
  188.9600  174.7380  147.3720 C   0  0  0  0  0  2  0  0  0  0  0  0
  186.8550  177.1530  140.5960 C   0  0  0  0  0  3  0  0  0  0  0  0
  190.3860  175.0100  146.8890 C   0  0  0  0  0  2  0  0  0  0  0  0
  188.0430  177.1690  141.5120 C   0  0  0  0  0  2  0  0  0  0  0  0
  185.5090  177.3600  143.3300 C   0  0  1  0  0  3  0  0  0  0  0  0
  188.0600  175.9470  147.1080 C   0  0  0  0  0  2  0  0  0  0  0  0
  186.8170  176.4490  145.0280 N   0  0  1  0  0  0  0  0  0  0  0  0
  184.1360  178.9610  142.1760 O   0  0  0  0  0  0  0  0  0  0  0  0
  183.5240  178.3780  141.0640 C   0  0  0  0  0  2  0  0  0  0  0  0
  180.6120  179.7950  141.3630 O   0  0  0  0  0  0  0  0  0  0  0  0
  181.2790  177.8750  140.1630 C   0  0  0  0  0  2  0  0  0  0  0  0
  182.1080  177.9580  141.4120 C   0  0  2  0  0  3  0  0  0  0  0  0
  180.1790  178.8840  140.3880 C   0  0  0  0  0  2  0  0  0  0  0  0
  181.4410  179.0520  142.2160 C   0  0  0  0  0  2  0  0  0  0  0  0
  1 26  1  1  0  0  0
  3 16  1  6  0  0  0
  4 23  1  1  0  0  0
  5 11  1  6  0  0  0
  5 15  1  0  0  0  0
  6  7  1  0  0  0  0
  6 19  1  0  0  0  0
  7  3  1  0  0  0  0
  8 12  1  0  0  0  0
  9 27  1  0  0  0  0
 10 17  1  0  0  0  0
 11 20  1  0  0  0  0
 13 20  1  0  0  0  0
 13  9  1  0  0  0  0
 14  2  1  0  0  0  0
 15 12  1  0  0  0  0
 15  4  1  0  0  0  0
 16  8  1  0  0  0  0
 17 25  1  0  0  0  0
 18  4  1  0  0  0  0
 18  1  1  0  0  0  0
 19  3  1  0  0  0  0
 19  5  1  0  0  0  0
 20 18  1  0  0  0  0
 22 10  2  0  0  0  0
 22 24  1  0  0  0  0
 23 21  1  0  0  0  0
 24 13  1  0  0  0  0
 25  9  1  0  0  0  0
 25 14  1  0  0  0  0
 26 21  1  0  0  0  0
 27  1  1  0  0  0  0
 27  2  1  0  0  0  0
 28 17  1  0  0  0  0
 29 32  1  0  0  0  0
 29 28  1  0  0  0  0
 30 34  1  0  0  0  0
 31 33  1  0  0  0  0
 31 32  1  0  0  0  0
 32 34  1  0  0  0  0
 33 30  1  0  0  0  0
M  END
>  <MODEL>
7

>  <REMARK>
 VINA RESULT:      -7.9      3.086      4.399
  Name = 
  3 active torsions:
  status: ('A' for Active; 'I' for Inactive)
    1  A    between atoms: C_17  and  O_28
    2  A    between atoms: O_28  and  C_29
    3  A    between atoms: C_29  and  C_32
                            x       y       z     vdW  Elec       q    Type
                         _______ _______ _______ _____ _____    ______ ____

>  <TORSDO>
F 3

$$$$
=
 OpenBabel11112417553D

 34 41  0  0  1  0  0  0  0  0999 V2000
  190.3710  172.4930  143.0860 C   0  0  2  0  0  3  0  0  0  0  0  0
  188.3990  173.6600  142.2700 C   0  0  0  0  0  2  0  0  0  0  0  0
  196.4440  172.3600  145.7650 C   0  0  2  0  0  3  0  0  0  0  0  0
  192.5390  171.4390  143.8590 C   0  0  1  0  0  3  0  0  0  0  0  0
  194.3630  172.9670  144.7100 C   0  0  1  0  0  3  0  0  0  0  0  0
  196.4060  174.3650  145.4840 C   0  0  0  0  0  2  0  0  0  0  0  0
  197.1140  173.4790  146.4070 N   0  0  0  0  0  2  0  0  0  0  0  0
  196.4530  170.2000  144.0120 S   0  0  0  0  0  0  0  0  0  0  0  0
  190.0080  174.7880  143.3810 C   0  0  1  0  0  3  0  0  0  0  0  0
  190.0410  177.9170  143.8720 C   0  0  0  0  0  3  0  0  0  0  0  0
  193.6170  174.1170  144.0390 C   0  0  0  0  0  2  0  0  0  0  0  0
  194.7330  170.4340  144.6330 C   0  0  0  0  0  2  0  0  0  0  0  0
  191.4910  175.0980  143.6360 C   0  0  2  0  0  3  0  0  0  0  0  0
  187.9200  175.1080  142.3750 C   0  0  0  0  0  2  0  0  0  0  0  0
  194.0550  171.6450  143.9660 C   0  0  1  0  0  3  0  0  0  0  0  0
  197.3620  171.3070  145.1790 C   0  0  0  0  0  2  0  0  0  0  0  0
  188.8680  176.9790  143.8320 C   0  0  2  0  0  3  0  0  0  0  0  0
  191.8850  172.7040  143.2710 C   0  0  2  0  0  3  0  0  0  0  0  0
  195.8590  173.2080  144.6750 C   0  0  1  0  0  3  0  0  0  0  0  0
  192.1740  173.8790  144.1170 N   0  0  1  0  0  0  0  0  0  0  0  0
  191.3150  170.4570  141.8260 C   0  0  0  0  0  2  0  0  0  0  0  0
  191.2660  177.5450  144.2630 C   0  0  0  0  0  3  0  0  0  0  0  0
  192.2050  170.1770  143.0390 C   0  0  0  0  0  2  0  0  0  0  0  0
  191.5930  176.1600  144.7390 C   0  0  0  0  0  2  0  0  0  0  0  0
  189.1550  175.8890  142.8040 C   0  0  1  0  0  3  0  0  0  0  0  0
  190.0660  171.2380  142.2400 C   0  0  0  0  0  2  0  0  0  0  0  0
  189.8480  173.6930  142.4460 N   0  0  1  0  0  0  0  0  0  0  0  0
  187.7290  177.7040  143.4730 O   0  0  0  0  0  0  0  0  0  0  0  0
  187.1430  178.0760  144.6850 C   0  0  0  0  0  2  0  0  0  0  0  0
  184.7780  177.7240  146.8890 O   0  0  0  0  0  0  0  0  0  0  0  0
  184.8180  178.8990  144.8430 C   0  0  0  0  0  2  0  0  0  0  0  0
  185.6790  177.6770  144.6990 C   0  0  2  0  0  3  0  0  0  0  0  0
  184.0670  178.6640  146.1300 C   0  0  0  0  0  2  0  0  0  0  0  0
  185.3870  176.8790  145.9490 C   0  0  0  0  0  2  0  0  0  0  0  0
  1 26  1  6  0  0  0
  1 18  1  0  0  0  0
  2 14  1  0  0  0  0
  2 27  1  0  0  0  0
  3 16  1  6  0  0  0
  3  7  1  0  0  0  0
  4 23  1  6  0  0  0
  4 15  1  0  0  0  0
  5 11  1  6  0  0  0
  6  7  1  0  0  0  0
  8 12  1  0  0  0  0
  8 16  1  0  0  0  0
  9 13  1  0  0  0  0
 10 22  2  0  0  0  0
 11 20  1  0  0  0  0
 13 20  1  0  0  0  0
 13 24  1  0  0  0  0
 14 25  1  0  0  0  0
 15 12  1  0  0  0  0
 15  5  1  0  0  0  0
 17 10  1  0  0  0  0
 18  4  1  0  0  0  0
 18 20  1  0  0  0  0
 19  5  1  0  0  0  0
 19  6  1  0  0  0  0
 19  3  1  0  0  0  0
 21 26  1  0  0  0  0
 21 23  1  0  0  0  0
 22 24  1  0  0  0  0
 25  9  1  0  0  0  0
 25 17  1  0  0  0  0
 27  1  1  0  0  0  0
 27  9  1  0  0  0  0
 28 17  1  0  0  0  0
 28 29  1  0  0  0  0
 29 32  1  0  0  0  0
 31 33  1  0  0  0  0
 32 31  1  0  0  0  0
 32 34  1  0  0  0  0
 33 30  1  0  0  0  0
 34 30  1  0  0  0  0
M  END
>  <MODEL>
8

>  <REMARK>
 VINA RESULT:      -7.9      3.130      4.520
  Name = 
  3 active torsions:
  status: ('A' for Active; 'I' for Inactive)
    1  A    between atoms: C_17  and  O_28
    2  A    between atoms: O_28  and  C_29
    3  A    between atoms: C_29  and  C_32
                            x       y       z     vdW  Elec       q    Type
                         _______ _______ _______ _____ _____    ______ ____

>  <TORSDO>
F 3

$$$$
=
 OpenBabel11112417553D

 34 41  0  0  1  0  0  0  0  0999 V2000
  190.6300  173.8190  141.4060 C   0  0  2  0  0  3  0  0  0  0  0  0
  188.2810  174.2500  141.8660 C   0  0  0  0  0  2  0  0  0  0  0  0
  197.1020  175.1080  142.1300 C   0  0  2  0  0  3  0  0  0  0  0  0
  193.1060  173.5790  140.9360 C   0  0  1  0  0  3  0  0  0  0  0  0
  194.6920  175.1650  142.1000 C   0  0  1  0  0  3  0  0  0  0  0  0
  196.4710  176.7800  143.0800 C   0  0  0  0  0  2  0  0  0  0  0  0
  197.6890  175.9740  143.1400 N   0  0  0  0  0  2  0  0  0  0  0  0
  196.8980  174.2300  139.4980 S   0  0  0  0  0  0  0  0  0  0  0  0
  189.8830  175.3140  143.0470 C   0  0  1  0  0  3  0  0  0  0  0  0
  189.3650  177.5400  145.2410 C   0  0  0  0  0  3  0  0  0  0  0  0
  193.4820  176.0450  142.4000 C   0  0  0  0  0  2  0  0  0  0  0  0
  195.5940  173.3880  140.4910 C   0  0  0  0  0  2  0  0  0  0  0  0
  191.2150  176.0780  143.1090 C   0  0  2  0  0  3  0  0  0  0  0  0
  187.5570  175.1240  142.8910 C   0  0  0  0  0  2  0  0  0  0  0  0
  194.4300  174.3440  140.8140 C   0  0  1  0  0  3  0  0  0  0  0  0
  197.9160  174.9510  140.8610 C   0  0  0  0  0  2  0  0  0  0  0  0
  188.5460  176.3230  144.9180 C   0  0  2  0  0  3  0  0  0  0  0  0
  191.9830  174.5510  141.3500 C   0  0  2  0  0  3  0  0  0  0  0  0
  195.9310  176.0130  141.8910 C   0  0  1  0  0  3  0  0  0  0  0  0
  192.3070  175.2030  142.6330 N   0  0  1  0  0  0  0  0  0  0  0  0
  191.4210  173.2160  139.0330 C   0  0  0  0  0  2  0  0  0  0  0  0
  190.6910  177.5990  145.0690 C   0  0  0  0  0  3  0  0  0  0  0  0
  192.7740  172.8270  139.6320 C   0  0  0  0  0  2  0  0  0  0  0  0
  191.5090  176.4450  144.5700 C   0  0  0  0  0  2  0  0  0  0  0  0
  188.6300  176.0670  143.4160 C   0  0  1  0  0  3  0  0  0  0  0  0
  190.3110  173.0960  140.0790 C   0  0  0  0  0  2  0  0  0  0  0  0
  189.6160  174.8200  141.7120 N   0  0  1  0  0  0  0  0  0  0  0  0
  187.2230  176.5610  145.3010 O   0  0  0  0  0  0  0  0  0  0  0  0
  187.2590  176.6240  146.6960 C   0  0  0  0  0  2  0  0  0  0  0  0
  185.5660  179.3970  146.5470 O   0  0  0  0  0  0  0  0  0  0  0  0
  184.9170  177.1670  146.1280 C   0  0  0  0  0  2  0  0  0  0  0  0
  185.9410  177.1580  147.2250 C   0  0  2  0  0  3  0  0  0  0  0  0
  184.5340  178.6210  145.9980 C   0  0  0  0  0  2  0  0  0  0  0  0
  186.0980  178.6180  147.5850 C   0  0  0  0  0  2  0  0  0  0  0  0
  1 26  1  6  0  0  0
  1 27  1  0  0  0  0
  2 14  1  0  0  0  0
  3 16  1  6  0  0  0
  3  7  1  0  0  0  0
  4 23  1  6  0  0  0
  4 18  1  0  0  0  0
  5 11  1  6  0  0  0
  6  7  1  0  0  0  0
  8 12  1  0  0  0  0
  8 16  1  0  0  0  0
  9 13  1  0  0  0  0
  9 25  1  0  0  0  0
 11 20  1  0  0  0  0
 12 15  1  0  0  0  0
 13 24  1  0  0  0  0
 14 25  1  0  0  0  0
 15  4  1  0  0  0  0
 15  5  1  0  0  0  0
 17 10  1  0  0  0  0
 17 28  1  0  0  0  0
 18  1  1  0  0  0  0
 18 20  1  0  0  0  0
 19  5  1  0  0  0  0
 19  3  1  0  0  0  0
 19  6  1  0  0  0  0
 20 13  1  0  0  0  0
 21 23  1  0  0  0  0
 21 26  1  0  0  0  0
 22 10  2  0  0  0  0
 24 22  1  0  0  0  0
 25 17  1  0  0  0  0
 27  2  1  0  0  0  0
 27  9  1  0  0  0  0
 28 29  1  0  0  0  0
 29 32  1  0  0  0  0
 30 34  1  0  0  0  0
 31 32  1  0  0  0  0
 32 34  1  0  0  0  0
 33 31  1  0  0  0  0
 33 30  1  0  0  0  0
M  END
>  <MODEL>
9

>  <REMARK>
 VINA RESULT:      -7.9      1.790      3.778
  Name = 
  3 active torsions:
  status: ('A' for Active; 'I' for Inactive)
    1  A    between atoms: C_17  and  O_28
    2  A    between atoms: O_28  and  C_29
    3  A    between atoms: C_29  and  C_32
                            x       y       z     vdW  Elec       q    Type
                         _______ _______ _______ _____ _____    ______ ____

>  <TORSDO>
F 3

$$$$
