=
 OpenBabel11112416533D

 31 35  0  0  1  0  0  0  0  0999 V2000
  184.9540  177.9880  146.9090 C   0  0  0  0  0  0  0  0  0  0  0  0
  187.5200  175.7690  145.1830 C   0  0  2  0  0  3  0  0  0  0  0  0
  187.4790  176.1410  143.7060 C   0  0  0  0  0  0  0  0  0  0  0  0
  186.3540  177.1520  141.8000 C   0  0  0  0  0  0  0  0  0  0  0  0
  186.9160  176.8320  146.0650 C   0  0  0  0  0  0  0  0  0  0  0  0
  185.7750  178.8640  147.6250 C   0  0  0  0  0  3  0  0  0  0  0  0
  186.3900  176.8390  143.1610 C   0  0  0  0  0  3  0  0  0  0  0  0
  189.7320  176.7050  145.7410 N   0  0  0  0  0  0  0  0  0  0  0  0
  183.6080  178.1240  146.9630 F   0  0  0  0  0  0  0  0  0  0  0  0
  189.5890  174.9790  143.3470 O   0  0  0  0  0  0  0  0  0  0  0  0
  184.9970  178.0400  141.1450 Cl  0  0  0  0  0  0  0  0  0  0  0  0
  189.2220  177.4920  146.8680 C   0  0  0  0  0  2  0  0  0  0  0  0
  188.9590  175.4520  145.6500 C   0  0  2  0  0  3  0  0  0  0  0  0
  185.5230  176.9740  146.1340 C   0  0  0  0  0  3  0  0  0  0  0  0
  187.4000  176.7570  140.9650 C   0  0  0  0  0  3  0  0  0  0  0  0
  187.7390  177.7160  146.7900 C   0  0  0  0  0  0  0  0  0  0  0  0
  187.1630  178.7200  147.5750 C   0  0  0  0  0  3  0  0  0  0  0  0
  189.5810  174.4480  144.6690 C   0  0  0  0  0  2  0  0  0  0  0  0
  188.5130  175.7140  142.8470 C   0  0  0  0  0  0  0  0  0  0  0  0
  188.4770  176.0380  141.4880 C   0  0  0  0  0  3  0  0  0  0  0  0
  191.1220  176.4050  146.0730 C   0  0  0  0  0  2  0  0  0  0  0  0
  191.5120  177.4880  143.9970 O   0  0  0  0  0  0  0  0  0  0  0  0
  192.0040  176.8010  144.9330 C   0  0  0  0  0  0  0  0  0  0  0  0
  196.0130  175.2590  144.5730 C   0  0  1  0  0  3  0  0  0  0  0  0
  193.9990  176.2730  143.5300 C   0  0  0  0  0  2  0  0  0  0  0  0
  193.8210  176.5240  147.1420 O   0  0  0  0  0  0  0  0  0  0  0  0
  197.0640  174.1770  144.4400 C   0  0  0  0  0  1  0  0  0  0  0  0
  194.9920  175.1170  143.4530 C   0  0  0  0  0  2  0  0  0  0  0  0
  194.1450  176.0490  146.0210 C   0  0  0  0  0  0  0  0  0  0  0  0
  193.3590  176.3300  144.8450 N   0  0  0  0  0  0  0  0  0  0  0  0
  195.3320  175.1400  145.9310 C   0  0  0  0  0  2  0  0  0  0  0  0
  1  9  1  0  0  0  0
  1  6  1  0  0  0  0
  2  3  1  6  0  0  0
  2 13  1  0  0  0  0
  2  5  1  0  0  0  0
  4  7  2  0  0  0  0
  5 14  1  0  0  0  0
  5 16  2  0  0  0  0
  7  3  1  0  0  0  0
  8 21  1  0  0  0  0
  8 12  1  0  0  0  0
 10 18  1  0  0  0  0
 11  4  1  0  0  0  0
 13 18  1  6  0  0  0
 13  8  1  0  0  0  0
 14  1  2  0  0  0  0
 15 20  2  0  0  0  0
 15  4  1  0  0  0  0
 16 12  1  0  0  0  0
 16 17  1  0  0  0  0
 17  6  2  0  0  0  0
 19 10  1  0  0  0  0
 19  3  2  0  0  0  0
 20 19  1  0  0  0  0
 22 23  2  0  0  0  0
 23 21  1  0  0  0  0
 24 27  1  6  0  0  0
 24 31  1  0  0  0  0
 25 30  1  0  0  0  0
 28 25  1  0  0  0  0
 28 24  1  0  0  0  0
 29 26  2  0  0  0  0
 30 23  1  0  0  0  0
 30 29  1  0  0  0  0
 31 29  1  0  0  0  0
M  END
>  <MODEL>
1

>  <REMARK>
 VINA RESULT:      -8.8      0.000      0.000
  Name = 
  2 active torsions:
  status: ('A' for Active; 'I' for Inactive)
    1  A    between atoms: C_5  and  C_16
    2  A    between atoms: N_10  and  C_16
                            x       y       z     vdW  Elec       q    Type
                         _______ _______ _______ _____ _____    ______ ____

>  <TORSDO>
F 2

$$$$
=
 OpenBabel11112416533D

 31 35  0  0  1  0  0  0  0  0999 V2000
  193.5990  170.6790  144.5190 C   0  0  0  0  0  0  0  0  0  0  0  0
  194.1280  174.2460  145.7390 C   0  0  2  0  0  3  0  0  0  0  0  0
  195.0570  174.9070  144.7290 C   0  0  0  0  0  0  0  0  0  0  0  0
  196.6950  174.7610  142.9360 C   0  0  0  0  0  0  0  0  0  0  0  0
  193.4620  173.0080  145.1910 C   0  0  0  0  0  0  0  0  0  0  0  0
  192.2710  170.7230  144.0850 C   0  0  0  0  0  3  0  0  0  0  0  0
  195.8290  174.1430  143.8400 C   0  0  0  0  0  3  0  0  0  0  0  0
  192.0580  175.4750  145.2020 N   0  0  0  0  0  0  0  0  0  0  0  0
  194.3130  169.5350  144.4010 F   0  0  0  0  0  0  0  0  0  0  0  0
  194.4910  177.0970  145.6310 O   0  0  0  0  0  0  0  0  0  0  0  0
  197.6340  173.7910  141.8230 Cl  0  0  0  0  0  0  0  0  0  0  0  0
  191.2690  174.2550  145.0130 C   0  0  0  0  0  2  0  0  0  0  0  0
  193.0590  175.2320  146.2600 C   0  0  2  0  0  3  0  0  0  0  0  0
  194.1920  171.8170  145.0720 C   0  0  0  0  0  3  0  0  0  0  0  0
  196.8110  176.1520  142.9200 C   0  0  0  0  0  3  0  0  0  0  0  0
  192.1240  173.0480  144.7530 C   0  0  0  0  0  0  0  0  0  0  0  0
  191.5330  171.9020  144.2130 C   0  0  0  0  0  3  0  0  0  0  0  0
  193.7600  176.5210  146.7110 C   0  0  0  0  0  2  0  0  0  0  0  0
  195.2090  176.3090  144.7310 C   0  0  0  0  0  0  0  0  0  0  0  0
  196.0700  176.9250  143.8170 C   0  0  0  0  0  3  0  0  0  0  0  0
  191.1070  176.4900  145.6440 C   0  0  0  0  0  2  0  0  0  0  0  0
  190.3710  176.7440  143.4020 O   0  0  0  0  0  0  0  0  0  0  0  0
  190.0370  176.6530  144.6140 C   0  0  0  0  0  0  0  0  0  0  0  0
  185.9240  177.2750  145.7490 C   0  0  1  0  0  3  0  0  0  0  0  0
  187.7440  177.4760  144.0690 C   0  0  0  0  0  2  0  0  0  0  0  0
  188.7280  175.2390  146.7460 O   0  0  0  0  0  0  0  0  0  0  0  0
  184.7780  177.9990  146.4230 C   0  0  0  0  0  1  0  0  0  0  0  0
  186.6600  178.2360  144.8250 C   0  0  0  0  0  2  0  0  0  0  0  0
  188.1270  176.1940  146.1880 C   0  0  0  0  0  0  0  0  0  0  0  0
  188.6580  176.8040  144.9940 N   0  0  0  0  0  0  0  0  0  0  0  0
  186.8730  176.7280  146.8090 C   0  0  0  0  0  2  0  0  0  0  0  0
  1 14  1  0  0  0  0
  2  3  1  6  0  0  0
  2 13  1  0  0  0  0
  3 19  1  0  0  0  0
  4  7  1  0  0  0  0
  5  2  1  0  0  0  0
  6 17  1  0  0  0  0
  6  1  2  0  0  0  0
  7  3  2  0  0  0  0
  8 21  1  0  0  0  0
  8 13  1  0  0  0  0
  9  1  1  0  0  0  0
 10 18  1  0  0  0  0
 11  4  1  0  0  0  0
 12  8  1  0  0  0  0
 13 18  1  6  0  0  0
 14  5  2  0  0  0  0
 15  4  2  0  0  0  0
 15 20  1  0  0  0  0
 16 12  1  0  0  0  0
 16  5  1  0  0  0  0
 17 16  2  0  0  0  0
 19 10  1  0  0  0  0
 20 19  2  0  0  0  0
 22 23  2  0  0  0  0
 23 30  1  0  0  0  0
 23 21  1  0  0  0  0
 24 27  1  1  0  0  0
 24 31  1  0  0  0  0
 25 28  1  0  0  0  0
 25 30  1  0  0  0  0
 28 24  1  0  0  0  0
 29 26  2  0  0  0  0
 29 31  1  0  0  0  0
 30 29  1  0  0  0  0
M  END
>  <MODEL>
2

>  <REMARK>
 VINA RESULT:      -8.2      4.075      8.234
  Name = 
  2 active torsions:
  status: ('A' for Active; 'I' for Inactive)
    1  A    between atoms: C_5  and  C_16
    2  A    between atoms: N_10  and  C_16
                            x       y       z     vdW  Elec       q    Type
                         _______ _______ _______ _____ _____    ______ ____

>  <TORSDO>
F 2

$$$$
=
 OpenBabel11112416533D

 31 35  0  0  1  0  0  0  0  0999 V2000
  195.4100  175.5850  144.0670 C   0  0  0  0  0  0  0  0  0  0  0  0
  191.8370  176.8470  143.7040 C   0  0  2  0  0  3  0  0  0  0  0  0
  191.0820  175.7670  142.9390 C   0  0  0  0  0  0  0  0  0  0  0  0
  191.0550  173.8150  141.4880 C   0  0  0  0  0  0  0  0  0  0  0  0
  193.1140  176.3330  144.3210 C   0  0  0  0  0  0  0  0  0  0  0  0
  195.4670  175.2890  145.4320 C   0  0  0  0  0  3  0  0  0  0  0  0
  191.7610  174.7830  142.2050 C   0  0  0  0  0  3  0  0  0  0  0  0
  190.7730  176.5570  145.9090 N   0  0  0  0  0  0  0  0  0  0  0  0
  196.4890  175.3620  143.2800 F   0  0  0  0  0  0  0  0  0  0  0  0
  188.9640  176.7850  143.5840 O   0  0  0  0  0  0  0  0  0  0  0  0
  191.9210  172.5860  140.5940 Cl  0  0  0  0  0  0  0  0  0  0  0  0
  192.0500  176.4140  146.6140 C   0  0  0  0  0  2  0  0  0  0  0  0
  190.9540  177.5010  144.7890 C   0  0  2  0  0  3  0  0  0  0  0  0
  194.2390  176.1080  143.5140 C   0  0  0  0  0  3  0  0  0  0  0  0
  189.6590  173.8270  141.4870 C   0  0  0  0  0  3  0  0  0  0  0  0
  193.1770  176.0350  145.6960 C   0  0  0  0  0  0  0  0  0  0  0  0
  194.3570  175.5240  146.2460 C   0  0  0  0  0  3  0  0  0  0  0  0
  189.6210  177.9150  144.1500 C   0  0  0  0  0  2  0  0  0  0  0  0
  189.6720  175.7940  142.9010 C   0  0  0  0  0  0  0  0  0  0  0  0
  188.9690  174.8160  142.1910 C   0  0  0  0  0  3  0  0  0  0  0  0
  189.8490  177.1220  146.8880 C   0  0  0  0  0  2  0  0  0  0  0  0
  188.6690  175.0630  146.9110 O   0  0  0  0  0  0  0  0  0  0  0  0
  188.5870  176.3210  146.9030 C   0  0  0  0  0  0  0  0  0  0  0  0
  184.7390  178.2110  146.4540 C   0  0  1  0  0  3  0  0  0  0  0  0
  186.1700  176.1850  146.2980 C   0  0  0  0  0  2  0  0  0  0  0  0
  187.8500  178.7860  148.1840 O   0  0  0  0  0  0  0  0  0  0  0  0
  183.6880  179.0410  145.7480 C   0  0  0  0  0  1  0  0  0  0  0  0
  185.1930  177.0790  145.5420 C   0  0  0  0  0  2  0  0  0  0  0  0
  187.0700  178.2830  147.3330 C   0  0  0  0  0  0  0  0  0  0  0  0
  187.3030  176.9590  146.8090 N   0  0  0  0  0  0  0  0  0  0  0  0
  185.9210  179.0980  146.8270 C   0  0  0  0  0  2  0  0  0  0  0  0
  1  6  1  0  0  0  0
  2  3  1  1  0  0  0
  2  5  1  0  0  0  0
  2 13  1  0  0  0  0
  4  7  1  0  0  0  0
  5 16  2  0  0  0  0
  6 17  2  0  0  0  0
  7  3  2  0  0  0  0
  8 12  1  0  0  0  0
  8 21  1  0  0  0  0
  9  1  1  0  0  0  0
 10 18  1  0  0  0  0
 11  4  1  0  0  0  0
 13 18  1  6  0  0  0
 13  8  1  0  0  0  0
 14  1  2  0  0  0  0
 14  5  1  0  0  0  0
 15  4  2  0  0  0  0
 15 20  1  0  0  0  0
 16 17  1  0  0  0  0
 16 12  1  0  0  0  0
 19  3  1  0  0  0  0
 19 10  1  0  0  0  0
 20 19  2  0  0  0  0
 21 23  1  0  0  0  0
 23 22  2  0  0  0  0
 24 27  1  6  0  0  0
 24 31  1  0  0  0  0
 25 30  1  0  0  0  0
 28 25  1  0  0  0  0
 28 24  1  0  0  0  0
 29 26  2  0  0  0  0
 30 23  1  0  0  0  0
 30 29  1  0  0  0  0
 31 29  1  0  0  0  0
M  END
>  <MODEL>
3

>  <REMARK>
 VINA RESULT:      -8.1      3.518      7.363
  Name = 
  2 active torsions:
  status: ('A' for Active; 'I' for Inactive)
    1  A    between atoms: C_5  and  C_16
    2  A    between atoms: N_10  and  C_16
                            x       y       z     vdW  Elec       q    Type
                         _______ _______ _______ _____ _____    ______ ____

>  <TORSDO>
F 2

$$$$
=
 OpenBabel11112416533D

 31 35  0  0  1  0  0  0  0  0999 V2000
  185.7950  178.9870  143.0010 C   0  0  0  0  0  0  0  0  0  0  0  0
  189.1000  177.2390  143.7140 C   0  0  2  0  0  3  0  0  0  0  0  0
  188.8970  176.4590  145.0070 C   0  0  0  0  0  0  0  0  0  0  0  0
  187.6760  176.0460  147.0710 C   0  0  0  0  0  0  0  0  0  0  0  0
  187.7970  177.6150  143.0540 C   0  0  0  0  0  0  0  0  0  0  0  0
  185.3260  178.2660  141.8990 C   0  0  0  0  0  3  0  0  0  0  0  0
  187.8350  176.7530  145.8770 C   0  0  0  0  0  3  0  0  0  0  0  0
  189.2310  175.3390  142.1480 N   0  0  0  0  0  0  0  0  0  0  0  0
  185.0530  179.9970  143.5140 F   0  0  0  0  0  0  0  0  0  0  0  0
  190.9250  175.1850  144.5640 O   0  0  0  0  0  0  0  0  0  0  0  0
  186.3350  176.4160  148.1320 Cl  0  0  0  0  0  0  0  0  0  0  0  0
  188.1910  175.8720  141.2640 C   0  0  0  0  0  2  0  0  0  0  0  0
  189.9930  176.4670  142.7180 C   0  0  2  0  0  3  0  0  0  0  0  0
  187.0270  178.6640  143.5740 C   0  0  0  0  0  3  0  0  0  0  0  0
  188.5860  175.0460  147.4160 C   0  0  0  0  0  3  0  0  0  0  0  0
  187.3220  176.8910  141.9430 C   0  0  0  0  0  0  0  0  0  0  0  0
  186.0940  177.2280  141.3650 C   0  0  0  0  0  3  0  0  0  0  0  0
  191.2610  176.0080  143.4510 C   0  0  0  0  0  2  0  0  0  0  0  0
  189.8320  175.4730  145.3830 C   0  0  0  0  0  0  0  0  0  0  0  0
  189.6630  174.7610  146.5750 C   0  0  0  0  0  3  0  0  0  0  0  0
  190.0990  174.5370  141.2910 C   0  0  0  0  0  2  0  0  0  0  0  0
  189.9510  172.7720  142.8710 O   0  0  0  0  0  0  0  0  0  0  0  0
  189.9610  173.0930  141.6520 C   0  0  0  0  0  0  0  0  0  0  0  0
  190.0690  170.0190  138.6320 C   0  0  1  0  0  3  0  0  0  0  0  0
  190.3400  170.7130  141.0020 C   0  0  0  0  0  2  0  0  0  0  0  0
  188.6370  173.2940  139.1090 O   0  0  0  0  0  0  0  0  0  0  0  0
  190.6820  169.2260  137.4970 C   0  0  0  0  0  1  0  0  0  0  0  0
  191.0100  170.0060  139.8290 C   0  0  0  0  0  2  0  0  0  0  0  0
  189.4090  172.3220  139.3210 C   0  0  0  0  0  0  0  0  0  0  0  0
  189.9410  172.0740  140.6380 N   0  0  0  0  0  0  0  0  0  0  0  0
  189.8130  171.4490  138.1720 C   0  0  0  0  0  2  0  0  0  0  0  0
  1  9  1  0  0  0  0
  1 14  1  0  0  0  0
  2  5  1  6  0  0  0
  2  3  1  0  0  0  0
  3 19  2  0  0  0  0
  3  7  1  0  0  0  0
  4 15  1  0  0  0  0
  4 11  1  0  0  0  0
  5 14  2  0  0  0  0
  6  1  2  0  0  0  0
  7  4  2  0  0  0  0
  8 13  1  0  0  0  0
 10 19  1  0  0  0  0
 12 16  1  0  0  0  0
 12  8  1  0  0  0  0
 13 18  1  1  0  0  0
 13  2  1  0  0  0  0
 16  5  1  0  0  0  0
 17  6  1  0  0  0  0
 17 16  2  0  0  0  0
 18 10  1  0  0  0  0
 19 20  1  0  0  0  0
 20 15  2  0  0  0  0
 21 23  1  0  0  0  0
 21  8  1  0  0  0  0
 23 22  2  0  0  0  0
 24 27  1  6  0  0  0
 24 28  1  0  0  0  0
 26 29  2  0  0  0  0
 28 25  1  0  0  0  0
 29 30  1  0  0  0  0
 30 25  1  0  0  0  0
 30 23  1  0  0  0  0
 31 24  1  0  0  0  0
 31 29  1  0  0  0  0
M  END
>  <MODEL>
4

>  <REMARK>
 VINA RESULT:      -7.9      3.830      6.087
  Name = 
  2 active torsions:
  status: ('A' for Active; 'I' for Inactive)
    1  A    between atoms: C_5  and  C_16
    2  A    between atoms: N_10  and  C_16
                            x       y       z     vdW  Elec       q    Type
                         _______ _______ _______ _____ _____    ______ ____

>  <TORSDO>
F 2

$$$$
=
 OpenBabel11112416533D

 31 35  0  0  1  0  0  0  0  0999 V2000
  185.1260  179.2100  143.5150 C   0  0  0  0  0  0  0  0  0  0  0  0
  188.5310  177.5180  143.6870 C   0  0  2  0  0  3  0  0  0  0  0  0
  188.5200  176.6710  144.9540 C   0  0  0  0  0  0  0  0  0  0  0  0
  187.5990  176.1280  147.1390 C   0  0  0  0  0  0  0  0  0  0  0  0
  187.1430  177.8900  143.2280 C   0  0  0  0  0  0  0  0  0  0  0  0
  184.5260  178.5310  142.4500 C   0  0  0  0  0  3  0  0  0  0  0  0
  187.5810  176.8950  145.9720 C   0  0  0  0  0  3  0  0  0  0  0  0
  188.4850  175.6990  142.0230 N   0  0  0  0  0  0  0  0  0  0  0  0
  184.4410  180.1740  144.1740 F   0  0  0  0  0  0  0  0  0  0  0  0
  190.4940  175.4740  144.1780 O   0  0  0  0  0  0  0  0  0  0  0  0
  186.4070  176.4100  148.3880 Cl  0  0  0  0  0  0  0  0  0  0  0  0
  187.3250  176.2470  141.3140 C   0  0  0  0  0  2  0  0  0  0  0  0
  189.2950  176.8180  142.5410 C   0  0  2  0  0  3  0  0  0  0  0  0
  186.4300  178.8930  143.9000 C   0  0  0  0  0  3  0  0  0  0  0  0
  188.5660  175.1360  147.3070 C   0  0  0  0  0  3  0  0  0  0  0  0
  186.5360  177.2080  142.1550 C   0  0  0  0  0  0  0  0  0  0  0  0
  185.2350  177.5400  141.7650 C   0  0  0  0  0  3  0  0  0  0  0  0
  190.6600  176.3580  143.0730 C   0  0  0  0  0  2  0  0  0  0  0  0
  189.5170  175.6930  145.1500 C   0  0  0  0  0  0  0  0  0  0  0  0
  189.5250  174.9200  146.3150 C   0  0  0  0  0  3  0  0  0  0  0  0
  189.2440  174.9630  141.0160 C   0  0  0  0  0  2  0  0  0  0  0  0
  188.1620  172.8550  141.1560 O   0  0  0  0  0  0  0  0  0  0  0  0
  189.2250  173.5050  141.3450 C   0  0  0  0  0  0  0  0  0  0  0  0
  192.5530  171.6250  143.3400 C   0  0  1  0  0  3  0  0  0  0  0  0
  190.1430  171.6460  142.7360 C   0  0  0  0  0  2  0  0  0  0  0  0
  191.9800  174.0310  140.7150 O   0  0  0  0  0  0  0  0  0  0  0  0
  193.5450  171.4200  144.4650 C   0  0  0  0  0  1  0  0  0  0  0  0
  191.1350  171.5470  143.8890 C   0  0  0  0  0  2  0  0  0  0  0  0
  191.7080  173.3170  141.7170 C   0  0  0  0  0  0  0  0  0  0  0  0
  190.3590  172.8680  141.9600 N   0  0  0  0  0  0  0  0  0  0  0  0
  192.7970  172.9810  142.6890 C   0  0  0  0  0  2  0  0  0  0  0  0
  1 14  1  0  0  0  0
  1  9  1  0  0  0  0
  2  5  1  6  0  0  0
  2  3  1  0  0  0  0
  3 19  2  0  0  0  0
  3  7  1  0  0  0  0
  4 15  1  0  0  0  0
  4 11  1  0  0  0  0
  5 14  2  0  0  0  0
  6  1  2  0  0  0  0
  7  4  2  0  0  0  0
  8 13  1  0  0  0  0
 10 19  1  0  0  0  0
 12  8  1  0  0  0  0
 12 16  1  0  0  0  0
 13 18  1  1  0  0  0
 13  2  1  0  0  0  0
 16  5  1  0  0  0  0
 17 16  2  0  0  0  0
 17  6  1  0  0  0  0
 18 10  1  0  0  0  0
 19 20  1  0  0  0  0
 20 15  2  0  0  0  0
 21 23  1  0  0  0  0
 21  8  1  0  0  0  0
 22 23  2  0  0  0  0
 23 30  1  0  0  0  0
 24 28  1  0  0  0  0
 24 27  1  1  0  0  0
 25 28  1  0  0  0  0
 26 29  2  0  0  0  0
 29 30  1  0  0  0  0
 29 31  1  0  0  0  0
 30 25  1  0  0  0  0
 31 24  1  0  0  0  0
M  END
>  <MODEL>
5

>  <REMARK>
 VINA RESULT:      -7.9      3.113      4.884
  Name = 
  2 active torsions:
  status: ('A' for Active; 'I' for Inactive)
    1  A    between atoms: C_5  and  C_16
    2  A    between atoms: N_10  and  C_16
                            x       y       z     vdW  Elec       q    Type
                         _______ _______ _______ _____ _____    ______ ____

>  <TORSDO>
F 2

$$$$
=
 OpenBabel11112416533D

 31 35  0  0  1  0  0  0  0  0999 V2000
  187.4410  177.2060  140.8880 C   0  0  0  0  0  0  0  0  0  0  0  0
  188.6340  177.7200  144.4660 C   0  0  2  0  0  3  0  0  0  0  0  0
  187.3790  177.9160  145.3070 C   0  0  0  0  0  0  0  0  0  0  0  0
  185.0140  178.4540  145.5030 C   0  0  0  0  0  0  0  0  0  0  0  0
  188.3440  177.0670  143.1370 C   0  0  0  0  0  0  0  0  0  0  0  0
  187.7100  175.8490  140.6930 C   0  0  0  0  0  3  0  0  0  0  0  0
  186.1510  178.2530  144.7170 C   0  0  0  0  0  3  0  0  0  0  0  0
  189.2990  175.4970  145.3000 N   0  0  0  0  0  0  0  0  0  0  0  0
  186.8700  177.9330  139.8980 F   0  0  0  0  0  0  0  0  0  0  0  0
  188.6740  177.5450  147.3370 O   0  0  0  0  0  0  0  0  0  0  0  0
  183.4890  178.8550  144.7470 Cl  0  0  0  0  0  0  0  0  0  0  0  0
  189.3830  174.9130  143.9580 C   0  0  0  0  0  2  0  0  0  0  0  0
  189.7090  176.9130  145.2260 C   0  0  2  0  0  3  0  0  0  0  0  0
  187.7600  177.8140  142.1050 C   0  0  0  0  0  3  0  0  0  0  0  0
  185.0960  178.3340  146.8920 C   0  0  0  0  0  3  0  0  0  0  0  0
  188.6150  175.6990  142.9370 C   0  0  0  0  0  0  0  0  0  0  0  0
  188.3060  175.1010  141.7110 C   0  0  0  0  0  3  0  0  0  0  0  0
  189.9020  177.5410  146.6140 C   0  0  0  0  0  2  0  0  0  0  0  0
  187.4590  177.8340  146.7130 C   0  0  0  0  0  0  0  0  0  0  0  0
  186.3170  178.0260  147.4960 C   0  0  0  0  0  3  0  0  0  0  0  0
  190.2530  174.7470  146.1120 C   0  0  0  0  0  2  0  0  0  0  0  0
  190.3040  172.8840  144.6430 O   0  0  0  0  0  0  0  0  0  0  0  0
  190.9740  173.7610  145.2510 C   0  0  0  0  0  0  0  0  0  0  0  0
  195.2810  173.5830  145.1920 C   0  0  1  0  0  3  0  0  0  0  0  0
  193.0800  172.4970  144.8050 C   0  0  0  0  0  2  0  0  0  0  0  0
  192.6760  176.0760  145.2170 O   0  0  0  0  0  0  0  0  0  0  0  0
  196.6590  173.4060  145.7940 C   0  0  0  0  0  1  0  0  0  0  0  0
  194.4280  172.3610  145.5040 C   0  0  0  0  0  2  0  0  0  0  0  0
  193.1960  174.9380  145.3600 C   0  0  0  0  0  0  0  0  0  0  0  0
  192.4100  173.7410  145.1910 N   0  0  0  0  0  0  0  0  0  0  0  0
  194.6360  174.8400  145.7620 C   0  0  0  0  0  2  0  0  0  0  0  0
  1 14  1  0  0  0  0
  2  5  1  6  0  0  0
  2 13  1  0  0  0  0
  2  3  1  0  0  0  0
  3 19  1  0  0  0  0
  4 15  2  0  0  0  0
  6  1  2  0  0  0  0
  6 17  1  0  0  0  0
  7  3  2  0  0  0  0
  7  4  1  0  0  0  0
  8 21  1  0  0  0  0
  9  1  1  0  0  0  0
 11  4  1  0  0  0  0
 12  8  1  0  0  0  0
 13  8  1  0  0  0  0
 13 18  1  1  0  0  0
 14  5  2  0  0  0  0
 15 20  1  0  0  0  0
 16  5  1  0  0  0  0
 16 12  1  0  0  0  0
 17 16  2  0  0  0  0
 18 10  1  0  0  0  0
 19 10  1  0  0  0  0
 19 20  2  0  0  0  0
 22 23  2  0  0  0  0
 23 21  1  0  0  0  0
 24 28  1  0  0  0  0
 24 31  1  0  0  0  0
 24 27  1  1  0  0  0
 25 30  1  0  0  0  0
 25 28  1  0  0  0  0
 26 29  2  0  0  0  0
 29 31  1  0  0  0  0
 30 23  1  0  0  0  0
 30 29  1  0  0  0  0
M  END
>  <MODEL>
6

>  <REMARK>
 VINA RESULT:      -7.8      2.384      4.279
  Name = 
  2 active torsions:
  status: ('A' for Active; 'I' for Inactive)
    1  A    between atoms: C_5  and  C_16
    2  A    between atoms: N_10  and  C_16
                            x       y       z     vdW  Elec       q    Type
                         _______ _______ _______ _____ _____    ______ ____

>  <TORSDO>
F 2

$$$$
=
 OpenBabel11112416533D

 31 35  0  0  1  0  0  0  0  0999 V2000
  186.4680  177.9440  147.2670 C   0  0  0  0  0  0  0  0  0  0  0  0
  189.1500  177.6070  144.5860 C   0  0  2  0  0  3  0  0  0  0  0  0
  190.2130  176.6810  145.1650 C   0  0  0  0  0  0  0  0  0  0  0  0
  191.2870  175.6020  147.0620 C   0  0  0  0  0  0  0  0  0  0  0  0
  187.8300  177.4930  145.3080 C   0  0  0  0  0  0  0  0  0  0  0  0
  185.4160  177.2130  146.7070 C   0  0  0  0  0  3  0  0  0  0  0  0
  190.2910  176.4330  146.5440 C   0  0  0  0  0  3  0  0  0  0  0  0
  188.2290  176.0910  142.8720 N   0  0  0  0  0  0  0  0  0  0  0  0
  186.3240  178.5120  148.4870 F   0  0  0  0  0  0  0  0  0  0  0  0
  191.1690  176.3820  142.9440 O   0  0  0  0  0  0  0  0  0  0  0  0
  191.3550  175.2900  148.7820 Cl  0  0  0  0  0  0  0  0  0  0  0  0
  186.8480  176.2510  143.3360 C   0  0  0  0  0  2  0  0  0  0  0  0
  188.9460  177.3650  143.0740 C   0  0  2  0  0  3  0  0  0  0  0  0
  187.6690  178.0850  146.5680 C   0  0  0  0  0  3  0  0  0  0  0  0
  192.2260  175.0210  146.2090 C   0  0  0  0  0  3  0  0  0  0  0  0
  186.7670  176.7590  144.7460 C   0  0  0  0  0  0  0  0  0  0  0  0
  185.5620  176.6330  145.4450 C   0  0  0  0  0  3  0  0  0  0  0  0
  190.3190  177.3810  142.3870 C   0  0  0  0  0  2  0  0  0  0  0  0
  191.1890  176.1200  144.3150 C   0  0  0  0  0  0  0  0  0  0  0  0
  192.1780  175.2810  144.8370 C   0  0  0  0  0  3  0  0  0  0  0  0
  188.1300  175.7990  141.4460 C   0  0  0  0  0  2  0  0  0  0  0  0
  188.1480  173.5560  142.2220 O   0  0  0  0  0  0  0  0  0  0  0  0
  188.2530  174.3250  141.2290 C   0  0  0  0  0  0  0  0  0  0  0  0
  189.4060  172.7230  137.3960 C   0  0  1  0  0  3  0  0  0  0  0  0
  189.2070  172.4690  139.8600 C   0  0  0  0  0  2  0  0  0  0  0  0
  187.2680  175.3100  138.7140 O   0  0  0  0  0  0  0  0  0  0  0  0
  190.3190  172.5330  136.2030 C   0  0  0  0  0  1  0  0  0  0  0  0
  190.1610  172.3800  138.6740 C   0  0  0  0  0  2  0  0  0  0  0  0
  188.1920  174.4540  138.7160 C   0  0  0  0  0  0  0  0  0  0  0  0
  188.5830  173.7910  139.9350 N   0  0  0  0  0  0  0  0  0  0  0  0
  188.9200  174.1670  137.4390 C   0  0  0  0  0  2  0  0  0  0  0  0
  1  9  1  0  0  0  0
  2  3  1  1  0  0  0
  2  5  1  0  0  0  0
  3  7  1  0  0  0  0
  4 11  1  0  0  0  0
  5 14  1  0  0  0  0
  6  1  1  0  0  0  0
  7  4  2  0  0  0  0
  8 13  1  0  0  0  0
  8 12  1  0  0  0  0
 10 19  1  0  0  0  0
 12 16  1  0  0  0  0
 13 18  1  6  0  0  0
 13  2  1  0  0  0  0
 14  1  2  0  0  0  0
 15  4  1  0  0  0  0
 16  5  2  0  0  0  0
 16 17  1  0  0  0  0
 17  6  2  0  0  0  0
 18 10  1  0  0  0  0
 19 20  1  0  0  0  0
 19  3  2  0  0  0  0
 20 15  2  0  0  0  0
 21  8  1  0  0  0  0
 23 21  1  0  0  0  0
 23 22  2  0  0  0  0
 24 27  1  6  0  0  0
 24 31  1  0  0  0  0
 24 28  1  0  0  0  0
 25 30  1  0  0  0  0
 26 29  2  0  0  0  0
 28 25  1  0  0  0  0
 29 30  1  0  0  0  0
 30 23  1  0  0  0  0
 31 29  1  0  0  0  0
M  END
>  <MODEL>
7

>  <REMARK>
 VINA RESULT:      -7.8      3.516      6.182
  Name = 
  2 active torsions:
  status: ('A' for Active; 'I' for Inactive)
    1  A    between atoms: C_5  and  C_16
    2  A    between atoms: N_10  and  C_16
                            x       y       z     vdW  Elec       q    Type
                         _______ _______ _______ _____ _____    ______ ____

>  <TORSDO>
F 2

$$$$
=
 OpenBabel11112416533D

 31 35  0  0  1  0  0  0  0  0999 V2000
  188.0460  176.2670  146.3950 C   0  0  0  0  0  0  0  0  0  0  0  0
  191.0750  174.1920  145.3910 C   0  0  2  0  0  3  0  0  0  0  0  0
  191.0950  174.1810  143.8670 C   0  0  0  0  0  0  0  0  0  0  0  0
  189.9820  174.4800  141.7250 C   0  0  0  0  0  0  0  0  0  0  0  0
  190.2330  175.3120  145.9500 C   0  0  0  0  0  0  0  0  0  0  0  0
  188.6500  177.4230  146.8980 C   0  0  0  0  0  3  0  0  0  0  0  0
  189.9560  174.5190  143.1210 C   0  0  0  0  0  3  0  0  0  0  0  0
  193.0500  175.6160  145.7800 N   0  0  0  0  0  0  0  0  0  0  0  0
  186.6960  176.1680  146.3600 F   0  0  0  0  0  0  0  0  0  0  0  0
  193.3900  173.3630  143.8980 O   0  0  0  0  0  0  0  0  0  0  0  0
  188.5570  174.9230  140.8120 Cl  0  0  0  0  0  0  0  0  0  0  0  0
  192.3250  176.5480  146.6490 C   0  0  0  0  0  2  0  0  0  0  0  0
  192.5020  174.2610  145.9790 C   0  0  2  0  0  3  0  0  0  0  0  0
  188.8350  175.2140  145.9250 C   0  0  0  0  0  3  0  0  0  0  0  0
  191.1450  174.0880  141.0590 C   0  0  0  0  0  3  0  0  0  0  0  0
  190.8380  176.4780  146.4590 C   0  0  0  0  0  0  0  0  0  0  0  0
  190.0420  177.5220  146.9400 C   0  0  0  0  0  3  0  0  0  0  0  0
  193.3590  173.1770  145.3110 C   0  0  0  0  0  2  0  0  0  0  0  0
  192.2530  173.7500  143.1860 C   0  0  0  0  0  0  0  0  0  0  0  0
  192.2780  173.7220  141.7890 C   0  0  0  0  0  3  0  0  0  0  0  0
  194.4370  175.6600  146.2320 C   0  0  0  0  0  2  0  0  0  0  0  0
  195.0990  177.7850  145.4060 O   0  0  0  0  0  0  0  0  0  0  0  0
  195.2320  176.5350  145.3160 C   0  0  0  0  0  0  0  0  0  0  0  0
  197.5780  174.8600  142.1100 C   0  0  1  0  0  3  0  0  0  0  0  0
  196.3760  176.7900  143.1130 C   0  0  0  0  0  2  0  0  0  0  0  0
  196.8410  174.1670  145.5710 O   0  0  0  0  0  0  0  0  0  0  0  0
  197.8040  174.0680  140.8400 C   0  0  0  0  0  1  0  0  0  0  0  0
  196.5210  175.9280  141.8630 C   0  0  0  0  0  2  0  0  0  0  0  0
  196.6900  174.6830  144.4320 C   0  0  0  0  0  0  0  0  0  0  0  0
  196.0570  175.9700  144.2830 N   0  0  0  0  0  0  0  0  0  0  0  0
  197.1310  173.9180  143.2220 C   0  0  0  0  0  2  0  0  0  0  0  0
  1  6  1  0  0  0  0
  2  3  1  6  0  0  0
  2  5  1  0  0  0  0
  2 13  1  0  0  0  0
  4  7  1  0  0  0  0
  5 16  2  0  0  0  0
  6 17  2  0  0  0  0
  7  3  2  0  0  0  0
  8 13  1  0  0  0  0
  8 21  1  0  0  0  0
  8 12  1  0  0  0  0
  9  1  1  0  0  0  0
 10 18  1  0  0  0  0
 11  4  1  0  0  0  0
 13 18  1  6  0  0  0
 14  5  1  0  0  0  0
 14  1  2  0  0  0  0
 15  4  2  0  0  0  0
 15 20  1  0  0  0  0
 16 12  1  0  0  0  0
 16 17  1  0  0  0  0
 19  3  1  0  0  0  0
 19 10  1  0  0  0  0
 20 19  2  0  0  0  0
 23 22  2  0  0  0  0
 23 21  1  0  0  0  0
 24 27  1  6  0  0  0
 24 31  1  0  0  0  0
 25 30  1  0  0  0  0
 28 24  1  0  0  0  0
 28 25  1  0  0  0  0
 29 26  2  0  0  0  0
 30 29  1  0  0  0  0
 30 23  1  0  0  0  0
 31 29  1  0  0  0  0
M  END
>  <MODEL>
8

>  <REMARK>
 VINA RESULT:      -7.7      2.590      3.714
  Name = 
  2 active torsions:
  status: ('A' for Active; 'I' for Inactive)
    1  A    between atoms: C_5  and  C_16
    2  A    between atoms: N_10  and  C_16
                            x       y       z     vdW  Elec       q    Type
                         _______ _______ _______ _____ _____    ______ ____

>  <TORSDO>
F 2

$$$$
=
 OpenBabel11112416533D

 31 35  0  0  1  0  0  0  0  0999 V2000
  185.6750  177.4930  142.3340 C   0  0  0  0  0  0  0  0  0  0  0  0
  188.4670  175.0130  143.0730 C   0  0  2  0  0  3  0  0  0  0  0  0
  188.9760  174.5320  141.7200 C   0  0  0  0  0  0  0  0  0  0  0  0
  188.6830  174.2300  139.3240 C   0  0  0  0  0  0  0  0  0  0  0  0
  187.6930  176.3040  142.9740 C   0  0  0  0  0  0  0  0  0  0  0  0
  186.2720  178.7040  142.6940 C   0  0  0  0  0  3  0  0  0  0  0  0
  188.2140  174.6990  140.5530 C   0  0  0  0  0  3  0  0  0  0  0  0
  190.4220  176.3530  143.7530 N   0  0  0  0  0  0  0  0  0  0  0  0
  184.4130  177.4780  141.8440 F   0  0  0  0  0  0  0  0  0  0  0  0
  190.9640  173.6130  142.7880 O   0  0  0  0  0  0  0  0  0  0  0  0
  187.7270  174.4650  137.8780 Cl  0  0  0  0  0  0  0  0  0  0  0  0
  189.6250  177.5540  144.0230 C   0  0  0  0  0  2  0  0  0  0  0  0
  189.6170  175.1650  144.0930 C   0  0  2  0  0  3  0  0  0  0  0  0
  186.3830  176.2970  142.4760 C   0  0  0  0  0  3  0  0  0  0  0  0
  189.9140  173.5760  139.2490 C   0  0  0  0  0  3  0  0  0  0  0  0
  188.2900  177.5270  143.3380 C   0  0  0  0  0  0  0  0  0  0  0  0
  187.5710  178.7190  143.2060 C   0  0  0  0  0  3  0  0  0  0  0  0
  190.4470  173.8730  144.0900 C   0  0  0  0  0  2  0  0  0  0  0  0
  190.2010  173.8370  141.6400 C   0  0  0  0  0  0  0  0  0  0  0  0
  190.6710  173.3780  140.4060 C   0  0  0  0  0  3  0  0  0  0  0  0
  191.5750  176.4420  144.6430 C   0  0  0  0  0  2  0  0  0  0  0  0
  192.8010  176.8260  142.6470 O   0  0  0  0  0  0  0  0  0  0  0  0
  192.8330  176.4060  143.8360 C   0  0  0  0  0  0  0  0  0  0  0  0
  196.3920  174.4880  145.3330 C   0  0  1  0  0  3  0  0  0  0  0  0
  195.0400  175.3180  143.4200 C   0  0  0  0  0  2  0  0  0  0  0  0
  193.7630  176.6390  146.5450 O   0  0  0  0  0  0  0  0  0  0  0  0
  197.2130  173.3290  145.8570 C   0  0  0  0  0  1  0  0  0  0  0  0
  195.7750  174.1110  143.9920 C   0  0  0  0  0  2  0  0  0  0  0  0
  194.3360  175.8280  145.7700 C   0  0  0  0  0  0  0  0  0  0  0  0
  194.0340  175.8150  144.3600 N   0  0  0  0  0  0  0  0  0  0  0  0
  195.3010  174.8350  146.3400 C   0  0  0  0  0  2  0  0  0  0  0  0
  1 14  2  0  0  0  0
  1  6  1  0  0  0  0
  2  3  1  6  0  0  0
  2 13  1  0  0  0  0
  4  7  1  0  0  0  0
  5  2  1  0  0  0  0
  5 16  2  0  0  0  0
  6 17  2  0  0  0  0
  7  3  2  0  0  0  0
  8 12  1  0  0  0  0
  8 13  1  0  0  0  0
  8 21  1  0  0  0  0
  9  1  1  0  0  0  0
 10 18  1  0  0  0  0
 11  4  1  0  0  0  0
 13 18  1  6  0  0  0
 14  5  1  0  0  0  0
 15  4  2  0  0  0  0
 15 20  1  0  0  0  0
 16 12  1  0  0  0  0
 17 16  1  0  0  0  0
 19  3  1  0  0  0  0
 19 10  1  0  0  0  0
 20 19  2  0  0  0  0
 22 23  2  0  0  0  0
 23 30  1  0  0  0  0
 23 21  1  0  0  0  0
 24 27  1  1  0  0  0
 24 31  1  0  0  0  0
 25 28  1  0  0  0  0
 25 30  1  0  0  0  0
 28 24  1  0  0  0  0
 29 31  1  0  0  0  0
 29 26  2  0  0  0  0
 30 29  1  0  0  0  0
M  END
>  <MODEL>
9

>  <REMARK>
 VINA RESULT:      -7.7      2.559      3.058
  Name = 
  2 active torsions:
  status: ('A' for Active; 'I' for Inactive)
    1  A    between atoms: C_5  and  C_16
    2  A    between atoms: N_10  and  C_16
                            x       y       z     vdW  Elec       q    Type
                         _______ _______ _______ _____ _____    ______ ____

>  <TORSDO>
F 2

$$$$
