=
 OpenBabel11112416393D

 32 37  0  0  1  0  0  0  0  0999 V2000
  188.0310  177.4250  143.7370 C   0  0  0  0  0  0  0  0  0  0  0  0
  185.9930  178.1350  148.1850 C   0  0  0  0  0  3  0  0  0  0  0  0
  184.7510  178.3480  147.5890 C   0  0  0  0  0  3  0  0  0  0  0  0
  186.5070  177.5920  141.6760 C   0  0  0  0  0  0  0  0  0  0  0  0
  185.2250  177.8180  141.1930 C   0  0  0  0  0  0  0  0  0  0  0  0
  190.3940  176.9470  143.6410 N   0  0  0  0  0  0  0  0  0  0  0  0
  189.4250  177.2760  145.8040 C   0  0  0  0  0  3  0  0  0  0  0  0
  183.0760  178.2600  141.3260 N   0  0  0  0  0  0  0  0  0  0  0  0
  187.1070  177.8550  147.3910 C   0  0  0  0  0  3  0  0  0  0  0  0
  188.1470  177.4950  145.1770 N   0  0  0  0  0  0  0  0  0  0  0  0
  186.9930  177.7840  145.9910 C   0  0  0  0  0  0  0  0  0  0  0  0
  185.5800  177.9320  143.9250 C   0  0  0  0  0  0  0  0  0  0  0  0
  183.3640  178.1150  140.0380 N   0  0  0  0  0  0  0  0  0  0  0  0
  190.5080  176.9930  145.0760 C   0  0  0  0  0  0  0  0  0  0  0  0
  184.6910  177.8380  139.9150 C   0  0  0  0  0  3  0  0  0  0  0  0
  184.6220  178.2810  146.2010 C   0  0  0  0  0  3  0  0  0  0  0  0
  185.7350  178.0000  145.3930 C   0  0  0  0  0  0  0  0  0  0  0  0
  184.3430  178.1440  143.3750 N   0  0  0  0  0  2  0  0  0  0  0  0
  189.1240  177.1630  143.0120 C   0  0  0  0  0  3  0  0  0  0  0  0
  187.4450  177.3460  140.8710 O   0  0  0  0  0  0  0  0  0  0  0  0
  181.7520  178.5630  141.8440 C   0  0  0  0  0  1  0  0  0  0  0  0
  186.7050  177.6480  143.0890 C   0  0  0  0  0  0  0  0  0  0  0  0
  184.1960  178.0830  142.0320 C   0  0  0  0  0  0  0  0  0  0  0  0
  191.6450  176.2870  147.0560 O   0  0  0  0  0  0  0  0  0  0  0  0
  191.8330  176.8150  145.7610 C   0  0  1  0  0  3  0  0  0  0  0  0
  192.0710  175.3840  146.0670 C   0  0  1  0  0  3  0  0  0  0  0  0
  193.5570  175.1330  146.2350 C   0  0  0  0  0  2  0  0  0  0  0  0
  193.9940  174.0380  145.3290 C   0  0  0  0  0  0  0  0  0  0  0  0
  194.5020  174.3100  144.2100 O   0  0  0  0  0  0  0  0  0  0  0  0
  193.8770  172.7150  145.7330 O   0  0  0  0  0  1  0  0  0  0  0  0
  191.5800  175.2290  142.3800 C   0  0  0  0  0  1  0  0  0  0  0  0
  191.5510  176.6890  142.7940 C   0  0  0  0  0  2  0  0  0  0  0  0
  1 10  1  0  0  0  0
  3  2  1  0  0  0  0
  4 22  1  0  0  0  0
  5  4  1  0  0  0  0
  5 23  2  0  0  0  0
  6 14  1  0  0  0  0
  8 21  1  0  0  0  0
  8 23  1  0  0  0  0
  9  2  2  0  0  0  0
 10  7  1  0  0  0  0
 10 11  1  0  0  0  0
 11  9  1  0  0  0  0
 12 17  1  0  0  0  0
 13  8  1  0  0  0  0
 14  7  2  0  0  0  0
 15 13  2  0  0  0  0
 15  5  1  0  0  0  0
 16  3  2  0  0  0  0
 17 11  2  0  0  0  0
 17 16  1  0  0  0  0
 18 12  1  0  0  0  0
 19  6  1  0  0  0  0
 19  1  2  0  0  0  0
 20  4  2  0  0  0  0
 22  1  1  0  0  0  0
 22 12  2  0  0  0  0
 23 18  1  0  0  0  0
 25 14  1  6  0  0  0
 25 26  1  0  0  0  0
 25 24  1  0  0  0  0
 26 27  1  1  0  0  0
 26 24  1  0  0  0  0
 28 30  1  0  0  0  0
 28 27  1  0  0  0  0
 29 28  2  0  0  0  0
 31 32  1  0  0  0  0
 32  6  1  0  0  0  0
M  END
>  <MODEL>
1

>  <REMARK>
 VINA RESULT:      -8.4      0.000      0.000
  Name = 
  4 active torsions:
  status: ('A' for Active; 'I' for Inactive)
    1  A    between atoms: N_7  and  C_19
    2  A    between atoms: C_10  and  C_17
    3  A    between atoms: C_20  and  C_29
    4  A    between atoms: C_29  and  C_30
                            x       y       z     vdW  Elec       q    Type
                         _______ _______ _______ _____ _____    ______ ____

>  <TORSDO>
F 4

$$$$
=
 OpenBabel11112416393D

 32 37  0  0  1  0  0  0  0  0999 V2000
  186.8750  177.2190  142.9730 C   0  0  0  0  0  0  0  0  0  0  0  0
  184.3080  178.5140  146.9950 C   0  0  0  0  0  3  0  0  0  0  0  0
  185.3490  178.0730  147.8100 C   0  0  0  0  0  3  0  0  0  0  0  0
  189.2030  176.1880  143.3140 C   0  0  0  0  0  0  0  0  0  0  0  0
  190.1740  175.7840  144.2200 C   0  0  0  0  0  0  0  0  0  0  0  0
  185.8610  177.5940  140.8160 N   0  0  0  0  0  0  0  0  0  0  0  0
  184.6060  178.2380  142.7500 C   0  0  0  0  0  3  0  0  0  0  0  0
  191.0600  175.4560  146.2050 N   0  0  0  0  0  0  0  0  0  0  0  0
  184.4210  178.4170  145.6060 C   0  0  0  0  0  3  0  0  0  0  0  0
  185.6880  177.7780  143.5810 N   0  0  0  0  0  0  0  0  0  0  0  0
  185.5770  177.8760  145.0150 C   0  0  0  0  0  0  0  0  0  0  0  0
  187.8560  176.8590  145.2560 C   0  0  0  0  0  0  0  0  0  0  0  0
  191.9430  175.0290  145.3100 N   0  0  0  0  0  0  0  0  0  0  0  0
  184.6870  178.1720  141.4180 C   0  0  0  0  0  0  0  0  0  0  0  0
  191.4290  175.2170  144.0640 C   0  0  0  0  0  3  0  0  0  0  0  0
  186.5020  177.5350  147.2380 C   0  0  0  0  0  3  0  0  0  0  0  0
  186.6270  177.4320  145.8440 C   0  0  0  0  0  0  0  0  0  0  0  0
  188.8600  176.4380  146.0880 N   0  0  0  0  0  2  0  0  0  0  0  0
  186.9410  177.1360  141.6400 C   0  0  0  0  0  3  0  0  0  0  0  0
  189.4060  176.0560  142.0770 O   0  0  0  0  0  0  0  0  0  0  0  0
  191.2610  175.4150  147.6440 C   0  0  0  0  0  1  0  0  0  0  0  0
  187.9980  176.7470  143.8360 C   0  0  0  0  0  0  0  0  0  0  0  0
  189.9870  175.9140  145.5540 C   0  0  0  0  0  0  0  0  0  0  0  0
  182.8320  177.5030  140.0680 O   0  0  0  0  0  0  0  0  0  0  0  0
  183.5210  178.6210  140.5840 C   0  0  1  0  0  3  0  0  0  0  0  0
  182.2470  178.1440  141.1730 C   0  0  1  0  0  3  0  0  0  0  0  0
  181.1000  179.0100  140.6910 C   0  0  0  0  0  2  0  0  0  0  0  0
  179.8400  178.2200  140.6670 C   0  0  0  0  0  0  0  0  0  0  0  0
  179.2200  178.0530  139.5850 O   0  0  0  0  0  0  0  0  0  0  0  0
  179.3660  177.6340  141.8340 O   0  0  0  0  0  1  0  0  0  0  0  0
  186.9830  176.3610  139.0360 C   0  0  0  0  0  1  0  0  0  0  0  0
  185.9840  177.4530  139.3710 C   0  0  0  0  0  2  0  0  0  0  0  0
  1 10  1  0  0  0  0
  1 22  1  0  0  0  0
  2  3  1  0  0  0  0
  4 22  1  0  0  0  0
  4  5  1  0  0  0  0
  5 23  2  0  0  0  0
  6 14  1  0  0  0  0
  6 19  1  0  0  0  0
  7 10  1  0  0  0  0
  8 21  1  0  0  0  0
  9  2  2  0  0  0  0
 10 11  1  0  0  0  0
 11  9  1  0  0  0  0
 11 17  2  0  0  0  0
 12 17  1  0  0  0  0
 12 18  1  0  0  0  0
 13  8  1  0  0  0  0
 14  7  2  0  0  0  0
 15  5  1  0  0  0  0
 15 13  2  0  0  0  0
 16  3  2  0  0  0  0
 17 16  1  0  0  0  0
 19  1  2  0  0  0  0
 20  4  2  0  0  0  0
 22 12  2  0  0  0  0
 23 18  1  0  0  0  0
 23  8  1  0  0  0  0
 24 25  1  0  0  0  0
 24 26  1  0  0  0  0
 25 26  1  0  0  0  0
 25 14  1  1  0  0  0
 26 27  1  6  0  0  0
 28 27  1  0  0  0  0
 28 30  1  0  0  0  0
 29 28  2  0  0  0  0
 31 32  1  0  0  0  0
 32  6  1  0  0  0  0
M  END
>  <MODEL>
2

>  <REMARK>
 VINA RESULT:      -8.1      2.700      8.108
  Name = 
  4 active torsions:
  status: ('A' for Active; 'I' for Inactive)
    1  A    between atoms: N_7  and  C_19
    2  A    between atoms: C_10  and  C_17
    3  A    between atoms: C_20  and  C_29
    4  A    between atoms: C_29  and  C_30
                            x       y       z     vdW  Elec       q    Type
                         _______ _______ _______ _____ _____    ______ ____

>  <TORSDO>
F 4

$$$$
=
 OpenBabel11112416393D

 32 37  0  0  1  0  0  0  0  0999 V2000
  189.4040  175.9300  144.8610 C   0  0  0  0  0  0  0  0  0  0  0  0
  189.7130  173.8790  140.3730 C   0  0  0  0  0  3  0  0  0  0  0  0
  188.4860  174.4410  140.0240 C   0  0  0  0  0  3  0  0  0  0  0  0
  187.3330  177.3530  145.3920 C   0  0  0  0  0  0  0  0  0  0  0  0
  186.1240  177.8620  144.9360 C   0  0  0  0  0  0  0  0  0  0  0  0
  191.2080  175.5270  146.4130 N   0  0  0  0  0  0  0  0  0  0  0  0
  191.3820  174.5350  144.2420 C   0  0  0  0  0  3  0  0  0  0  0  0
  184.5010  178.1990  143.4930 N   0  0  0  0  0  0  0  0  0  0  0  0
  190.2460  174.1030  141.6440 C   0  0  0  0  0  3  0  0  0  0  0  0
  190.1130  175.1210  143.8940 N   0  0  0  0  0  0  0  0  0  0  0  0
  189.5580  174.8930  142.5830 C   0  0  0  0  0  0  0  0  0  0  0  0
  187.5680  176.2940  143.1880 C   0  0  0  0  0  0  0  0  0  0  0  0
  184.1760  178.8510  144.6030 N   0  0  0  0  0  0  0  0  0  0  0  0
  191.9260  174.7410  145.4440 C   0  0  0  0  0  0  0  0  0  0  0  0
  185.1610  178.6660  145.5240 C   0  0  0  0  0  3  0  0  0  0  0  0
  187.7920  175.2260  140.9450 C   0  0  0  0  0  3  0  0  0  0  0  0
  188.3170  175.4590  142.2260 C   0  0  0  0  0  0  0  0  0  0  0  0
  186.3670  176.8330  142.8100 N   0  0  0  0  0  2  0  0  0  0  0  0
  189.9450  176.1140  146.0710 C   0  0  0  0  0  3  0  0  0  0  0  0
  187.7230  177.6170  146.5610 O   0  0  0  0  0  0  0  0  0  0  0  0
  183.6870  178.1670  142.2900 C   0  0  0  0  0  1  0  0  0  0  0  0
  188.0910  176.5390  144.4970 C   0  0  0  0  0  0  0  0  0  0  0  0
  185.6780  177.5980  143.6870 C   0  0  0  0  0  0  0  0  0  0  0  0
  193.8560  173.6000  144.6170 O   0  0  0  0  0  0  0  0  0  0  0  0
  193.2300  174.0780  145.7870 C   0  0  1  0  0  3  0  0  0  0  0  0
  194.3610  174.7970  145.1530 C   0  0  1  0  0  3  0  0  0  0  0  0
  195.6450  174.5000  145.9010 C   0  0  0  0  0  2  0  0  0  0  0  0
  196.8060  174.5810  144.9740 C   0  0  0  0  0  0  0  0  0  0  0  0
  197.7960  173.8210  145.1340 O   0  0  0  0  0  1  0  0  0  0  0  0
  196.7810  175.4710  143.9080 O   0  0  0  0  0  0  0  0  0  0  0  0
  191.2030  177.0540  148.3140 C   0  0  0  0  0  1  0  0  0  0  0  0
  191.7320  175.7460  147.7550 C   0  0  0  0  0  2  0  0  0  0  0  0
  1 19  2  0  0  0  0
  2  9  1  0  0  0  0
  3  2  2  0  0  0  0
  3 16  1  0  0  0  0
  4 20  2  0  0  0  0
  5  4  1  0  0  0  0
  5 15  1  0  0  0  0
  6 32  1  0  0  0  0
  7 14  2  0  0  0  0
  8 23  1  0  0  0  0
  8 13  1  0  0  0  0
  9 11  2  0  0  0  0
 10  7  1  0  0  0  0
 10  1  1  0  0  0  0
 11 10  1  0  0  0  0
 12 22  2  0  0  0  0
 13 15  2  0  0  0  0
 14  6  1  0  0  0  0
 16 17  2  0  0  0  0
 17 11  1  0  0  0  0
 17 12  1  0  0  0  0
 18 12  1  0  0  0  0
 18 23  1  0  0  0  0
 19  6  1  0  0  0  0
 21  8  1  0  0  0  0
 22  1  1  0  0  0  0
 22  4  1  0  0  0  0
 23  5  2  0  0  0  0
 24 26  1  0  0  0  0
 24 25  1  0  0  0  0
 25 14  1  6  0  0  0
 26 25  1  0  0  0  0
 26 27  1  1  0  0  0
 28 29  1  0  0  0  0
 28 27  1  0  0  0  0
 30 28  2  0  0  0  0
 32 31  1  0  0  0  0
M  END
>  <MODEL>
3

>  <REMARK>
 VINA RESULT:      -7.6      2.177      4.628
  Name = 
  4 active torsions:
  status: ('A' for Active; 'I' for Inactive)
    1  A    between atoms: N_7  and  C_19
    2  A    between atoms: C_10  and  C_17
    3  A    between atoms: C_20  and  C_29
    4  A    between atoms: C_29  and  C_30
                            x       y       z     vdW  Elec       q    Type
                         _______ _______ _______ _____ _____    ______ ____

>  <TORSDO>
F 4

$$$$
=
 OpenBabel11112416393D

 32 37  0  0  1  0  0  0  0  0999 V2000
  188.8660  175.3460  143.0950 C   0  0  0  0  0  0  0  0  0  0  0  0
  192.0630  174.9250  146.8420 C   0  0  0  0  0  3  0  0  0  0  0  0
  191.2470  175.7270  147.6380 C   0  0  0  0  0  3  0  0  0  0  0  0
  186.7490  176.7520  143.4730 C   0  0  0  0  0  0  0  0  0  0  0  0
  186.0170  177.5370  144.3540 C   0  0  0  0  0  0  0  0  0  0  0  0
  189.3940  174.2200  141.0270 N   0  0  0  0  0  0  0  0  0  0  0  0
  190.9490  173.9940  142.8320 C   0  0  0  0  0  3  0  0  0  0  0  0
  185.5770  178.5510  146.2540 N   0  0  0  0  0  0  0  0  0  0  0  0
  191.6840  174.6290  145.5310 C   0  0  0  0  0  3  0  0  0  0  0  0
  190.0980  174.8250  143.6440 N   0  0  0  0  0  0  0  0  0  0  0  0
  190.4840  175.1330  144.9980 C   0  0  0  0  0  0  0  0  0  0  0  0
  188.3940  176.4900  145.2790 C   0  0  0  0  0  0  0  0  0  0  0  0
  184.5730  178.8200  145.4280 N   0  0  0  0  0  0  0  0  0  0  0  0
  190.6100  173.6810  141.5790 C   0  0  0  0  0  0  0  0  0  0  0  0
  184.8100  178.2070  144.2360 C   0  0  0  0  0  3  0  0  0  0  0  0
  190.0540  176.2340  147.1230 C   0  0  0  0  0  3  0  0  0  0  0  0
  189.6620  175.9450  145.8070 C   0  0  0  0  0  0  0  0  0  0  0  0
  187.6160  177.2730  146.0900 N   0  0  0  0  0  2  0  0  0  0  0  0
  188.5430  175.0460  141.8320 C   0  0  0  0  0  3  0  0  0  0  0  0
  186.3160  176.5470  142.3080 O   0  0  0  0  0  0  0  0  0  0  0  0
  185.6700  179.0360  147.6200 C   0  0  0  0  0  1  0  0  0  0  0  0
  187.9830  176.2040  143.9390 C   0  0  0  0  0  0  0  0  0  0  0  0
  186.4540  177.7750  145.6120 C   0  0  0  0  0  0  0  0  0  0  0  0
  192.3800  172.0750  141.5810 O   0  0  0  0  0  0  0  0  0  0  0  0
  191.5440  172.8470  140.7480 C   0  0  1  0  0  3  0  0  0  0  0  0
  191.3000  171.4040  140.9820 C   0  0  1  0  0  3  0  0  0  0  0  0
  191.8120  170.5980  139.8050 C   0  0  0  0  0  2  0  0  0  0  0  0
  190.8160  169.5590  139.4280 C   0  0  0  0  0  0  0  0  0  0  0  0
  190.7240  168.4990  140.1000 O   0  0  0  0  0  1  0  0  0  0  0  0
  189.9610  169.7740  138.3550 O   0  0  0  0  0  0  0  0  0  0  0  0
  188.1910  172.6660  139.5830 C   0  0  0  0  0  1  0  0  0  0  0  0
  188.9980  173.9500  139.6510 C   0  0  0  0  0  2  0  0  0  0  0  0
  1 10  1  0  0  0  0
  1 22  1  0  0  0  0
  2  3  1  0  0  0  0
  4 22  1  0  0  0  0
  4  5  1  0  0  0  0
  5 23  2  0  0  0  0
  6 14  1  0  0  0  0
  6 19  1  0  0  0  0
  7 10  1  0  0  0  0
  8 21  1  0  0  0  0
  9  2  2  0  0  0  0
 10 11  1  0  0  0  0
 11  9  1  0  0  0  0
 11 17  2  0  0  0  0
 12 17  1  0  0  0  0
 12 18  1  0  0  0  0
 13  8  1  0  0  0  0
 14  7  2  0  0  0  0
 15  5  1  0  0  0  0
 15 13  2  0  0  0  0
 16  3  2  0  0  0  0
 17 16  1  0  0  0  0
 19  1  2  0  0  0  0
 20  4  2  0  0  0  0
 22 12  2  0  0  0  0
 23 18  1  0  0  0  0
 23  8  1  0  0  0  0
 25 26  1  0  0  0  0
 25 14  1  1  0  0  0
 25 24  1  0  0  0  0
 26 27  1  6  0  0  0
 26 24  1  0  0  0  0
 28 27  1  0  0  0  0
 28 29  1  0  0  0  0
 30 28  2  0  0  0  0
 31 32  1  0  0  0  0
 32  6  1  0  0  0  0
M  END
>  <MODEL>
4

>  <REMARK>
 VINA RESULT:      -7.4      3.342      5.444
  Name = 
  4 active torsions:
  status: ('A' for Active; 'I' for Inactive)
    1  A    between atoms: N_7  and  C_19
    2  A    between atoms: C_10  and  C_17
    3  A    between atoms: C_20  and  C_29
    4  A    between atoms: C_29  and  C_30
                            x       y       z     vdW  Elec       q    Type
                         _______ _______ _______ _____ _____    ______ ____

>  <TORSDO>
F 4

$$$$
=
 OpenBabel11112416393D

 32 37  0  0  1  0  0  0  0  0999 V2000
  189.1720  176.4010  144.4890 C   0  0  0  0  0  0  0  0  0  0  0  0
  188.7320  174.1600  140.1050 C   0  0  0  0  0  3  0  0  0  0  0  0
  190.0640  173.7530  140.1710 C   0  0  0  0  0  3  0  0  0  0  0  0
  191.4470  176.2840  145.6760 C   0  0  0  0  0  0  0  0  0  0  0  0
  192.7570  175.8250  145.6360 C   0  0  0  0  0  0  0  0  0  0  0  0
  187.2360  177.5370  145.3760 N   0  0  0  0  0  0  0  0  0  0  0  0
  186.9990  176.4490  143.2580 C   0  0  0  0  0  3  0  0  0  0  0  0
  194.4970  174.7820  144.7890 N   0  0  0  0  0  0  0  0  0  0  0  0
  188.1790  174.9090  141.1450 C   0  0  0  0  0  3  0  0  0  0  0  0
  188.3760  176.0350  143.3380 N   0  0  0  0  0  0  0  0  0  0  0  0
  188.9520  175.2620  142.2660 C   0  0  0  0  0  0  0  0  0  0  0  0
  191.1390  175.2010  143.4930 C   0  0  0  0  0  0  0  0  0  0  0  0
  194.8770  175.2890  145.9550 N   0  0  0  0  0  0  0  0  0  0  0  0
  186.4360  177.1540  144.2420 C   0  0  0  0  0  0  0  0  0  0  0  0
  193.8220  175.9440  146.5130 C   0  0  0  0  0  3  0  0  0  0  0  0
  190.8420  174.0960  141.2770 C   0  0  0  0  0  3  0  0  0  0  0  0
  190.2980  174.8480  142.3290 C   0  0  0  0  0  0  0  0  0  0  0  0
  192.4430  174.7820  143.5250 N   0  0  0  0  0  2  0  0  0  0  0  0
  188.6070  177.1260  145.4610 C   0  0  0  0  0  3  0  0  0  0  0  0
  191.0480  176.9540  146.6650 O   0  0  0  0  0  0  0  0  0  0  0  0
  195.3580  174.0150  143.9060 C   0  0  0  0  0  1  0  0  0  0  0  0
  190.5980  175.9680  144.5720 C   0  0  0  0  0  0  0  0  0  0  0  0
  193.2160  175.1020  144.5880 C   0  0  0  0  0  0  0  0  0  0  0  0
  184.9480  179.0130  144.0400 O   0  0  0  0  0  0  0  0  0  0  0  0
  185.0090  177.6050  144.1040 C   0  0  1  0  0  3  0  0  0  0  0  0
  184.8140  178.3250  142.8230 C   0  0  1  0  0  3  0  0  0  0  0  0
  183.3490  178.2930  142.4320 C   0  0  0  0  0  2  0  0  0  0  0  0
  183.2170  178.2910  140.9510 C   0  0  0  0  0  0  0  0  0  0  0  0
  184.2450  178.3130  140.2250 O   0  0  0  0  0  0  0  0  0  0  0  0
  181.9590  178.2260  140.3670 O   0  0  0  0  0  1  0  0  0  0  0  0
  186.2470  177.4540  147.6040 C   0  0  0  0  0  1  0  0  0  0  0  0
  186.6870  178.3460  146.4570 C   0  0  0  0  0  2  0  0  0  0  0  0
  1 22  1  0  0  0  0
  1 19  2  0  0  0  0
  2  3  2  0  0  0  0
  2  9  1  0  0  0  0
  3 16  1  0  0  0  0
  4 20  2  0  0  0  0
  5  4  1  0  0  0  0
  5 15  1  0  0  0  0
  6 19  1  0  0  0  0
  6 32  1  0  0  0  0
  7 10  1  0  0  0  0
  7 14  2  0  0  0  0
  8 13  1  0  0  0  0
  9 11  2  0  0  0  0
 10  1  1  0  0  0  0
 11 17  1  0  0  0  0
 11 10  1  0  0  0  0
 12 18  1  0  0  0  0
 12 22  2  0  0  0  0
 13 15  2  0  0  0  0
 14  6  1  0  0  0  0
 16 17  2  0  0  0  0
 17 12  1  0  0  0  0
 18 23  1  0  0  0  0
 21  8  1  0  0  0  0
 22  4  1  0  0  0  0
 23  8  1  0  0  0  0
 23  5  2  0  0  0  0
 24 25  1  0  0  0  0
 25 14  1  6  0  0  0
 26 27  1  1  0  0  0
 26 24  1  0  0  0  0
 26 25  1  0  0  0  0
 28 27  1  0  0  0  0
 29 28  2  0  0  0  0
 30 28  1  0  0  0  0
 32 31  1  0  0  0  0
M  END
>  <MODEL>
5

>  <REMARK>
 VINA RESULT:      -7.2      2.511      8.699
  Name = 
  4 active torsions:
  status: ('A' for Active; 'I' for Inactive)
    1  A    between atoms: N_7  and  C_19
    2  A    between atoms: C_10  and  C_17
    3  A    between atoms: C_20  and  C_29
    4  A    between atoms: C_29  and  C_30
                            x       y       z     vdW  Elec       q    Type
                         _______ _______ _______ _____ _____    ______ ____

>  <TORSDO>
F 4

$$$$
=
 OpenBabel11112416393D

 32 37  0  0  1  0  0  0  0  0999 V2000
  190.4510  176.2860  145.1910 C   0  0  0  0  0  0  0  0  0  0  0  0
  188.7040  174.5960  140.8870 C   0  0  0  0  0  3  0  0  0  0  0  0
  187.4390  175.0950  141.1960 C   0  0  0  0  0  3  0  0  0  0  0  0
  188.8220  177.5180  146.7500 C   0  0  0  0  0  0  0  0  0  0  0  0
  187.5260  177.9730  146.9510 C   0  0  0  0  0  0  0  0  0  0  0  0
  192.7790  175.8980  145.6960 N   0  0  0  0  0  0  0  0  0  0  0  0
  191.9560  175.0820  143.6020 C   0  0  0  0  0  3  0  0  0  0  0  0
  185.4100  178.3000  146.4540 N   0  0  0  0  0  0  0  0  0  0  0  0
  189.7580  174.7630  141.7860 C   0  0  0  0  0  3  0  0  0  0  0  0
  190.6540  175.6010  143.9340 N   0  0  0  0  0  0  0  0  0  0  0  0
  189.5620  175.4320  143.0080 C   0  0  0  0  0  0  0  0  0  0  0  0
  188.0400  176.6430  144.5920 C   0  0  0  0  0  0  0  0  0  0  0  0
  185.6180  178.8450  147.6470 N   0  0  0  0  0  0  0  0  0  0  0  0
  192.9890  175.2360  144.4340 C   0  0  0  0  0  0  0  0  0  0  0  0
  186.9230  178.6630  147.9900 C   0  0  0  0  0  3  0  0  0  0  0  0
  187.2290  175.7610  142.4040 C   0  0  0  0  0  3  0  0  0  0  0  0
  188.2810  175.9350  143.3170 C   0  0  0  0  0  0  0  0  0  0  0  0
  186.7850  177.1220  144.8610 N   0  0  0  0  0  2  0  0  0  0  0  0
  191.4860  176.4180  146.0300 C   0  0  0  0  0  3  0  0  0  0  0  0
  189.7020  177.7210  147.6280 O   0  0  0  0  0  0  0  0  0  0  0  0
  184.1330  178.3000  145.7620 C   0  0  0  0  0  1  0  0  0  0  0  0
  189.1030  176.8270  145.5320 C   0  0  0  0  0  0  0  0  0  0  0  0
  186.5590  177.7710  146.0260 C   0  0  0  0  0  0  0  0  0  0  0  0
  194.4000  174.4290  142.6820 O   0  0  0  0  0  0  0  0  0  0  0  0
  194.3220  174.6430  144.0740 C   0  0  1  0  0  3  0  0  0  0  0  0
  195.0730  175.5570  143.1820 C   0  0  1  0  0  3  0  0  0  0  0  0
  196.5560  175.2520  143.2620 C   0  0  0  0  0  2  0  0  0  0  0  0
  197.1180  175.0930  141.8930 C   0  0  0  0  0  0  0  0  0  0  0  0
  197.1660  176.0790  141.1130 O   0  0  0  0  0  0  0  0  0  0  0  0
  197.6250  173.8650  141.4890 O   0  0  0  0  0  1  0  0  0  0  0  0
  194.5620  177.3810  146.4490 C   0  0  0  0  0  1  0  0  0  0  0  0
  193.8580  176.0530  146.6620 C   0  0  0  0  0  2  0  0  0  0  0  0
  1 22  1  0  0  0  0
  1 19  2  0  0  0  0
  2  3  2  0  0  0  0
  2  9  1  0  0  0  0
  3 16  1  0  0  0  0
  4  5  1  0  0  0  0
  4 20  2  0  0  0  0
  5 15  1  0  0  0  0
  6 19  1  0  0  0  0
  6 32  1  0  0  0  0
  7 10  1  0  0  0  0
  7 14  2  0  0  0  0
  8 13  1  0  0  0  0
  9 11  2  0  0  0  0
 10  1  1  0  0  0  0
 11 17  1  0  0  0  0
 11 10  1  0  0  0  0
 12 18  1  0  0  0  0
 12 22  2  0  0  0  0
 13 15  2  0  0  0  0
 14  6  1  0  0  0  0
 16 17  2  0  0  0  0
 17 12  1  0  0  0  0
 18 23  1  0  0  0  0
 21  8  1  0  0  0  0
 22  4  1  0  0  0  0
 23  8  1  0  0  0  0
 23  5  2  0  0  0  0
 24 26  1  0  0  0  0
 24 25  1  0  0  0  0
 25 14  1  6  0  0  0
 26 27  1  1  0  0  0
 26 25  1  0  0  0  0
 28 27  1  0  0  0  0
 29 28  2  0  0  0  0
 30 28  1  0  0  0  0
 31 32  1  0  0  0  0
M  END
>  <MODEL>
6

>  <REMARK>
 VINA RESULT:      -7.0      2.772      5.247
  Name = 
  4 active torsions:
  status: ('A' for Active; 'I' for Inactive)
    1  A    between atoms: N_7  and  C_19
    2  A    between atoms: C_10  and  C_17
    3  A    between atoms: C_20  and  C_29
    4  A    between atoms: C_29  and  C_30
                            x       y       z     vdW  Elec       q    Type
                         _______ _______ _______ _____ _____    ______ ____

>  <TORSDO>
F 4

$$$$
=
 OpenBabel11112416393D

 32 37  0  0  1  0  0  0  0  0999 V2000
  191.4630  175.9340  144.4430 C   0  0  0  0  0  0  0  0  0  0  0  0
  188.9960  173.5820  140.8630 C   0  0  0  0  0  3  0  0  0  0  0  0
  190.1760  173.4330  140.1370 C   0  0  0  0  0  3  0  0  0  0  0  0
  193.9930  176.2640  144.1420 C   0  0  0  0  0  0  0  0  0  0  0  0
  195.1040  176.0590  143.3360 C   0  0  0  0  0  0  0  0  0  0  0  0
  190.2140  176.7000  146.3600 N   0  0  0  0  0  0  0  0  0  0  0  0
  189.0030  175.5540  144.6440 C   0  0  0  0  0  3  0  0  0  0  0  0
  196.2030  175.3480  141.5690 N   0  0  0  0  0  0  0  0  0  0  0  0
  189.0150  174.2300  142.0990 C   0  0  0  0  0  3  0  0  0  0  0  0
  190.2290  175.4080  143.9030 N   0  0  0  0  0  0  0  0  0  0  0  0
  190.2160  174.7390  142.6260 C   0  0  0  0  0  0  0  0  0  0  0  0
  192.6870  175.1090  142.4120 C   0  0  0  0  0  0  0  0  0  0  0  0
  197.0870  175.9360  142.3670 N   0  0  0  0  0  0  0  0  0  0  0  0
  188.9880  176.1560  145.8350 C   0  0  0  0  0  0  0  0  0  0  0  0
  196.4420  176.3900  143.4760 C   0  0  0  0  0  3  0  0  0  0  0  0
  191.3750  173.9330  140.6460 C   0  0  0  0  0  3  0  0  0  0  0  0
  191.4070  174.5860  141.8880 C   0  0  0  0  0  0  0  0  0  0  0  0
  193.8280  174.9420  141.6720 N   0  0  0  0  0  2  0  0  0  0  0  0
  191.4380  176.5560  145.6270 C   0  0  0  0  0  3  0  0  0  0  0  0
  194.1200  176.8630  145.2430 O   0  0  0  0  0  0  0  0  0  0  0  0
  196.5250  174.7420  140.2890 C   0  0  0  0  0  1  0  0  0  0  0  0
  192.7340  175.7780  143.6760 C   0  0  0  0  0  0  0  0  0  0  0  0
  195.0010  175.4180  142.1480 C   0  0  0  0  0  0  0  0  0  0  0  0
  187.4060  177.7010  146.7420 O   0  0  0  0  0  0  0  0  0  0  0  0
  187.6830  176.3300  146.5590 C   0  0  1  0  0  3  0  0  0  0  0  0
  186.7090  177.0530  145.7080 C   0  0  1  0  0  3  0  0  0  0  0  0
  185.2980  176.7570  146.1740 C   0  0  0  0  0  2  0  0  0  0  0  0
  184.5170  178.0200  146.2720 C   0  0  0  0  0  0  0  0  0  0  0  0
  184.2690  178.5230  147.3980 O   0  0  0  0  0  1  0  0  0  0  0  0
  184.0940  178.6650  145.1170 O   0  0  0  0  0  0  0  0  0  0  0  0
  191.4900  177.0160  148.4150 C   0  0  0  0  0  1  0  0  0  0  0  0
  190.2490  177.4080  147.6330 C   0  0  0  0  0  2  0  0  0  0  0  0
  1 19  2  0  0  0  0
  2  9  1  0  0  0  0
  3 16  1  0  0  0  0
  3  2  2  0  0  0  0
  4 20  2  0  0  0  0
  5 15  1  0  0  0  0
  5  4  1  0  0  0  0
  6 32  1  0  0  0  0
  7 14  2  0  0  0  0
  8 23  1  0  0  0  0
  8 13  1  0  0  0  0
  9 11  2  0  0  0  0
 10  1  1  0  0  0  0
 10  7  1  0  0  0  0
 11 10  1  0  0  0  0
 12 22  2  0  0  0  0
 13 15  2  0  0  0  0
 14  6  1  0  0  0  0
 16 17  2  0  0  0  0
 17 12  1  0  0  0  0
 17 11  1  0  0  0  0
 18 23  1  0  0  0  0
 18 12  1  0  0  0  0
 19  6  1  0  0  0  0
 21  8  1  0  0  0  0
 22  4  1  0  0  0  0
 22  1  1  0  0  0  0
 23  5  2  0  0  0  0
 25 14  1  6  0  0  0
 25 24  1  0  0  0  0
 26 27  1  1  0  0  0
 26 25  1  0  0  0  0
 26 24  1  0  0  0  0
 27 28  1  0  0  0  0
 28 29  1  0  0  0  0
 30 28  2  0  0  0  0
 32 31  1  0  0  0  0
M  END
>  <MODEL>
7

>  <REMARK>
 VINA RESULT:      -6.9      3.675      8.620
  Name = 
  4 active torsions:
  status: ('A' for Active; 'I' for Inactive)
    1  A    between atoms: N_7  and  C_19
    2  A    between atoms: C_10  and  C_17
    3  A    between atoms: C_20  and  C_29
    4  A    between atoms: C_29  and  C_30
                            x       y       z     vdW  Elec       q    Type
                         _______ _______ _______ _____ _____    ______ ____

>  <TORSDO>
F 4

$$$$
=
 OpenBabel11112416393D

 32 37  0  0  1  0  0  0  0  0999 V2000
  187.9930  175.4790  141.1360 C   0  0  0  0  0  0  0  0  0  0  0  0
  190.0300  173.8890  145.3510 C   0  0  0  0  0  3  0  0  0  0  0  0
  190.6480  172.8450  144.6670 C   0  0  0  0  0  3  0  0  0  0  0  0
  188.5060  174.1700  138.9860 C   0  0  0  0  0  0  0  0  0  0  0  0
  189.1700  173.0960  138.4090 C   0  0  0  0  0  0  0  0  0  0  0  0
  186.5790  177.4320  141.2310 N   0  0  0  0  0  0  0  0  0  0  0  0
  187.5650  176.6860  143.2800 C   0  0  0  0  0  3  0  0  0  0  0  0
  190.4610  171.3180  138.3680 N   0  0  0  0  0  0  0  0  0  0  0  0
  189.2250  174.7970  144.6590 C   0  0  0  0  0  3  0  0  0  0  0  0
  188.1980  175.6100  142.5620 N   0  0  0  0  0  0  0  0  0  0  0  0
  189.0290  174.6700  143.2710 C   0  0  0  0  0  0  0  0  0  0  0  0
  189.4730  173.4510  141.1260 C   0  0  0  0  0  0  0  0  0  0  0  0
  190.0500  171.5280  137.1230 N   0  0  0  0  0  0  0  0  0  0  0  0
  186.8000  177.5790  142.6460 C   0  0  0  0  0  0  0  0  0  0  0  0
  189.2460  172.6260  137.1080 C   0  0  0  0  0  3  0  0  0  0  0  0
  190.4630  172.7070  143.2910 C   0  0  0  0  0  3  0  0  0  0  0  0
  189.6570  173.6120  142.5840 C   0  0  0  0  0  0  0  0  0  0  0  0
  190.0990  172.4140  140.4860 N   0  0  0  0  0  2  0  0  0  0  0  0
  187.2090  176.3640  140.5110 C   0  0  0  0  0  3  0  0  0  0  0  0
  187.8030  174.9310  138.2680 O   0  0  0  0  0  0  0  0  0  0  0  0
  191.3380  170.2320  138.7720 C   0  0  0  0  0  1  0  0  0  0  0  0
  188.6530  174.3660  140.3920 C   0  0  0  0  0  0  0  0  0  0  0  0
  189.9330  172.2620  139.1520 C   0  0  0  0  0  0  0  0  0  0  0  0
  184.8340  178.2400  143.8330 O   0  0  0  0  0  0  0  0  0  0  0  0
  186.1200  178.6610  143.4350 C   0  0  1  0  0  3  0  0  0  0  0  0
  185.8380  178.1990  144.8150 C   0  0  1  0  0  3  0  0  0  0  0  0
  185.6770  179.3930  145.7350 C   0  0  0  0  0  2  0  0  0  0  0  0
  185.5190  178.9350  147.1420 C   0  0  0  0  0  0  0  0  0  0  0  0
  184.4790  178.3190  147.4920 O   0  0  0  0  0  0  0  0  0  0  0  0
  186.5370  179.1530  148.0610 O   0  0  0  0  0  1  0  0  0  0  0  0
  184.2930  177.8250  140.4790 C   0  0  0  0  0  1  0  0  0  0  0  0
  185.7180  178.3490  140.4960 C   0  0  0  0  0  2  0  0  0  0  0  0
  1 10  1  0  0  0  0
  3  2  1  0  0  0  0
  4 22  1  0  0  0  0
  5  4  1  0  0  0  0
  5 23  2  0  0  0  0
  6 14  1  0  0  0  0
  8 21  1  0  0  0  0
  8 23  1  0  0  0  0
  9  2  2  0  0  0  0
 10 11  1  0  0  0  0
 10  7  1  0  0  0  0
 11  9  1  0  0  0  0
 12 17  1  0  0  0  0
 13  8  1  0  0  0  0
 14  7  2  0  0  0  0
 15 13  2  0  0  0  0
 15  5  1  0  0  0  0
 16  3  2  0  0  0  0
 17 11  2  0  0  0  0
 17 16  1  0  0  0  0
 18 12  1  0  0  0  0
 19  1  2  0  0  0  0
 19  6  1  0  0  0  0
 20  4  2  0  0  0  0
 22 12  2  0  0  0  0
 22  1  1  0  0  0  0
 23 18  1  0  0  0  0
 24 26  1  0  0  0  0
 25 14  1  6  0  0  0
 25 24  1  0  0  0  0
 25 26  1  0  0  0  0
 26 27  1  1  0  0  0
 27 28  1  0  0  0  0
 28 29  2  0  0  0  0
 28 30  1  0  0  0  0
 31 32  1  0  0  0  0
 32  6  1  0  0  0  0
M  END
>  <MODEL>
8

>  <REMARK>
 VINA RESULT:      -6.8      4.075      7.397
  Name = 
  4 active torsions:
  status: ('A' for Active; 'I' for Inactive)
    1  A    between atoms: N_7  and  C_19
    2  A    between atoms: C_10  and  C_17
    3  A    between atoms: C_20  and  C_29
    4  A    between atoms: C_29  and  C_30
                            x       y       z     vdW  Elec       q    Type
                         _______ _______ _______ _____ _____    ______ ____

>  <TORSDO>
F 4

$$$$
=
 OpenBabel11112416393D

 32 37  0  0  1  0  0  0  0  0999 V2000
  190.6600  175.5160  143.3240 C   0  0  0  0  0  0  0  0  0  0  0  0
  190.9330  177.0690  148.0090 C   0  0  0  0  0  3  0  0  0  0  0  0
  192.2990  176.7910  148.0290 C   0  0  0  0  0  3  0  0  0  0  0  0
  192.8180  174.6870  142.2050 C   0  0  0  0  0  0  0  0  0  0  0  0
  194.1800  174.4510  142.3370 C   0  0  0  0  0  0  0  0  0  0  0  0
  188.5070  175.5820  142.2360 N   0  0  0  0  0  0  0  0  0  0  0  0
  188.6200  176.3490  144.5000 C   0  0  0  0  0  3  0  0  0  0  0  0
  196.1210  174.4030  143.3680 N   0  0  0  0  0  0  0  0  0  0  0  0
  190.1890  176.8270  146.8520 C   0  0  0  0  0  3  0  0  0  0  0  0
  190.0300  176.0560  144.5080 N   0  0  0  0  0  0  0  0  0  0  0  0
  190.8030  176.3040  145.7000 C   0  0  0  0  0  0  0  0  0  0  0  0
  192.8600  175.4750  144.5310 C   0  0  0  0  0  0  0  0  0  0  0  0
  196.3210  173.9410  142.1400 N   0  0  0  0  0  0  0  0  0  0  0  0
  187.8820  176.1420  143.4060 C   0  0  0  0  0  0  0  0  0  0  0  0
  195.1380  173.9560  141.4680 C   0  0  0  0  0  3  0  0  0  0  0  0
  192.9210  176.2720  146.8930 C   0  0  0  0  0  3  0  0  0  0  0  0
  192.1840  176.0250  145.7250 C   0  0  0  0  0  0  0  0  0  0  0  0
  194.2050  175.2170  144.5860 N   0  0  0  0  0  2  0  0  0  0  0  0
  189.9100  175.2910  142.2380 C   0  0  0  0  0  3  0  0  0  0  0  0
  192.2410  174.4330  141.1130 O   0  0  0  0  0  0  0  0  0  0  0  0
  197.1580  174.5340  144.3770 C   0  0  0  0  0  1  0  0  0  0  0  0
  192.1220  175.2170  143.3330 C   0  0  0  0  0  0  0  0  0  0  0  0
  194.8280  174.7140  143.4960 C   0  0  0  0  0  0  0  0  0  0  0  0
  186.1300  177.4590  144.3590 O   0  0  0  0  0  0  0  0  0  0  0  0
  186.4050  176.4170  143.4480 C   0  0  1  0  0  3  0  0  0  0  0  0
  186.1210  177.7990  142.9950 C   0  0  1  0  0  3  0  0  0  0  0  0
  184.6850  177.9020  142.5210 C   0  0  0  0  0  2  0  0  0  0  0  0
  184.6490  178.2910  141.0860 C   0  0  0  0  0  0  0  0  0  0  0  0
  185.6940  178.2260  140.3880 O   0  0  0  0  0  0  0  0  0  0  0  0
  183.4530  178.6930  140.5060 O   0  0  0  0  0  1  0  0  0  0  0  0
  188.4800  174.2780  140.1750 C   0  0  0  0  0  1  0  0  0  0  0  0
  187.7420  175.2920  141.0300 C   0  0  0  0  0  2  0  0  0  0  0  0
  1 22  1  0  0  0  0
  1 10  1  0  0  0  0
  2  3  1  0  0  0  0
  4  5  1  0  0  0  0
  4 22  1  0  0  0  0
  5 23  2  0  0  0  0
  6 19  1  0  0  0  0
  6 14  1  0  0  0  0
  7 10  1  0  0  0  0
  8 23  1  0  0  0  0
  8 21  1  0  0  0  0
  9  2  2  0  0  0  0
 10 11  1  0  0  0  0
 11 17  2  0  0  0  0
 11  9  1  0  0  0  0
 12 18  1  0  0  0  0
 12 17  1  0  0  0  0
 13  8  1  0  0  0  0
 14  7  2  0  0  0  0
 15 13  2  0  0  0  0
 15  5  1  0  0  0  0
 16  3  2  0  0  0  0
 17 16  1  0  0  0  0
 19  1  2  0  0  0  0
 20  4  2  0  0  0  0
 22 12  2  0  0  0  0
 23 18  1  0  0  0  0
 25 14  1  1  0  0  0
 25 24  1  0  0  0  0
 26 27  1  6  0  0  0
 26 25  1  0  0  0  0
 26 24  1  0  0  0  0
 28 27  1  0  0  0  0
 29 28  2  0  0  0  0
 30 28  1  0  0  0  0
 31 32  1  0  0  0  0
 32  6  1  0  0  0  0
M  END
>  <MODEL>
9

>  <REMARK>
 VINA RESULT:      -6.8      3.099      8.299
  Name = 
  4 active torsions:
  status: ('A' for Active; 'I' for Inactive)
    1  A    between atoms: N_7  and  C_19
    2  A    between atoms: C_10  and  C_17
    3  A    between atoms: C_20  and  C_29
    4  A    between atoms: C_29  and  C_30
                            x       y       z     vdW  Elec       q    Type
                         _______ _______ _______ _____ _____    ______ ____

>  <TORSDO>
F 4

$$$$
