=
 OpenBabel11112417213D

 37 42  0  0  1  0  0  0  0  0999 V2000
  195.6220  175.9000  143.5540 C   0  0  0  0  0  0  0  0  0  0  0  0
  191.8410  176.0350  145.2510 C   0  0  0  0  0  0  0  0  0  0  0  0
  189.7450  173.4570  144.6950 C   0  0  0  0  0  2  0  0  0  0  0  0
  194.1630  176.6350  145.5110 C   0  0  0  0  0  0  0  0  0  0  0  0
  191.0760  175.5520  144.2000 C   0  0  0  0  0  0  0  0  0  0  0  0
  190.6160  171.5000  141.6870 C   0  0  0  0  0  0  0  0  0  0  0  0
  193.0840  176.2400  144.7540 C   0  0  0  0  0  0  0  0  0  0  0  0
  189.7020  174.9430  144.3360 C   0  0  2  0  0  3  0  0  0  0  0  0
  193.9340  176.8830  146.8780 C   0  0  0  0  0  3  0  0  0  0  0  0
  190.4290  171.5210  140.2680 N   0  0  0  0  0  2  0  0  0  0  0  0
  193.1040  175.8570  143.4570 C   0  0  0  0  0  0  0  0  0  0  0  0
  195.9110  174.4710  143.9850 C   0  0  0  0  0  1  0  0  0  0  0  0
  190.2060  176.0150  147.1670 C   0  0  0  0  0  2  0  0  0  0  0  0
  192.6360  176.6870  147.4230 C   0  0  0  0  0  3  0  0  0  0  0  0
  194.3640  175.9120  142.6400 C   0  0  0  0  0  2  0  0  0  0  0  0
  190.5310  172.7170  142.4430 N   0  0  0  0  0  0  0  0  0  0  0  0
  190.7930  172.6850  143.8840 C   0  0  0  0  0  2  0  0  0  0  0  0
  191.5680  176.2500  146.6040 C   0  0  0  0  0  0  0  0  0  0  0  0
  191.8770  175.4120  143.0960 N   0  0  0  0  0  0  0  0  0  0  0  0
  195.4920  176.7990  144.8200 C   0  0  0  0  0  2  0  0  0  0  0  0
  188.6540  175.7070  145.1680 C   0  0  1  0  0  3  0  0  0  0  0  0
  196.8020  176.3900  142.7420 C   0  0  0  0  0  1  0  0  0  0  0  0
  190.3150  173.9820  141.7350 C   0  0  0  0  0  2  0  0  0  0  0  0
  190.8490  170.4070  142.2730 O   0  0  0  0  0  0  0  0  0  0  0  0
  191.5530  174.8810  141.7650 C   0  0  0  0  0  2  0  0  0  0  0  0
  189.1590  176.6550  146.2650 C   0  0  0  0  0  2  0  0  0  0  0  0
  187.4450  175.9130  142.9920 C   0  0  0  0  0  3  0  0  0  0  0  0
  187.7120  176.4290  144.2630 C   0  0  0  0  0  0  0  0  0  0  0  0
  187.1240  177.5900  144.6630 N   0  0  0  0  0  0  0  0  0  0  0  0
  185.6470  179.5360  144.3300 C   0  0  0  0  0  1  0  0  0  0  0  0
  185.9760  177.7880  142.5780 C   0  0  0  0  0  3  0  0  0  0  0  0
  186.2700  178.2720  143.8550 C   0  0  0  0  0  0  0  0  0  0  0  0
  186.5700  176.6000  142.1480 C   0  0  0  0  0  3  0  0  0  0  0  0
  191.9800  170.0920  139.0250 C   0  0  0  0  0  1  0  0  0  0  0  0
  190.5350  170.3270  139.4380 C   0  0  2  0  0  3  0  0  0  0  0  0
  190.3040  169.9560  136.9440 C   0  0  0  0  0  1  0  0  0  0  0  0
  189.6270  170.4400  138.2170 C   0  0  0  0  0  2  0  0  0  0  0  0
  1 12  1  0  0  0  0
  1 20  1  0  0  0  0
  2 18  1  0  0  0  0
  4  9  2  0  0  0  0
  5  8  1  0  0  0  0
  5  2  2  0  0  0  0
  6 24  2  0  0  0  0
  6 16  1  0  0  0  0
  7  2  1  0  0  0  0
  7  4  1  0  0  0  0
  8  3  1  1  0  0  0
  8 21  1  0  0  0  0
  9 14  1  0  0  0  0
 10  6  1  0  0  0  0
 11  7  2  0  0  0  0
 15 11  1  0  0  0  0
 15  1  1  0  0  0  0
 16 17  1  0  0  0  0
 17  3  1  0  0  0  0
 18 13  1  0  0  0  0
 18 14  2  0  0  0  0
 19 11  1  0  0  0  0
 19  5  1  0  0  0  0
 20  4  1  0  0  0  0
 21 28  1  6  0  0  0
 21 26  1  0  0  0  0
 22  1  1  0  0  0  0
 23 25  1  0  0  0  0
 23 16  1  0  0  0  0
 25 19  1  0  0  0  0
 26 13  1  0  0  0  0
 27 28  1  0  0  0  0
 28 29  2  0  0  0  0
 31 32  2  0  0  0  0
 32 30  1  0  0  0  0
 32 29  1  0  0  0  0
 33 31  1  0  0  0  0
 33 27  2  0  0  0  0
 35 34  1  6  0  0  0
 35 10  1  0  0  0  0
 36 37  1  0  0  0  0
 37 35  1  0  0  0  0
M  END
>  <MODEL>
1

>  <REMARK>
 VINA RESULT:      -9.0      0.000      0.000
  Name = 
  3 active torsions:
  status: ('A' for Active; 'I' for Inactive)
    1  A    between atoms: C_4  and  N_12
    2  A    between atoms: C_4  and  C_37
    3  A    between atoms: C_23  and  C_30
                            x       y       z     vdW  Elec       q    Type
                         _______ _______ _______ _____ _____    ______ ____

>  <TORSDO>
F 3

$$$$
=
 OpenBabel11112417213D

 37 42  0  0  1  0  0  0  0  0999 V2000
  189.3480  176.1040  146.0980 C   0  0  0  0  0  0  0  0  0  0  0  0
  193.2140  174.6750  145.6380 C   0  0  0  0  0  0  0  0  0  0  0  0
  194.2060  173.7060  142.5680 C   0  0  0  0  0  2  0  0  0  0  0  0
  191.7890  176.2150  146.8280 C   0  0  0  0  0  0  0  0  0  0  0  0
  192.9880  173.6060  144.7840 C   0  0  0  0  0  0  0  0  0  0  0  0
  191.3920  172.8760  140.3270 C   0  0  0  0  0  0  0  0  0  0  0  0
  191.9950  175.1070  146.0380 C   0  0  0  0  0  0  0  0  0  0  0  0
  194.0290  172.9690  143.8970 C   0  0  2  0  0  3  0  0  0  0  0  0
  192.9310  176.9050  147.2790 C   0  0  0  0  0  3  0  0  0  0  0  0
  190.5140  171.7880  140.0190 N   0  0  0  0  0  2  0  0  0  0  0  0
  191.0450  174.3670  145.4230 C   0  0  0  0  0  0  0  0  0  0  0  0
  189.4060  177.0350  144.8990 C   0  0  0  0  0  1  0  0  0  0  0  0
  195.7240  174.8780  145.6000 C   0  0  0  0  0  2  0  0  0  0  0  0
  194.2230  176.4650  146.8830 C   0  0  0  0  0  3  0  0  0  0  0  0
  189.5820  174.6420  145.6210 C   0  0  0  0  0  2  0  0  0  0  0  0
  192.0280  172.9470  141.6110 N   0  0  0  0  0  0  0  0  0  0  0  0
  192.8690  174.1040  141.9310 C   0  0  0  0  0  2  0  0  0  0  0  0
  194.3750  175.3360  146.0450 C   0  0  0  0  0  0  0  0  0  0  0  0
  191.6350  173.4420  144.6280 N   0  0  0  0  0  0  0  0  0  0  0  0
  190.3700  176.5870  147.1710 C   0  0  0  0  0  2  0  0  0  0  0  0
  195.3810  172.5890  144.5310 C   0  0  1  0  0  3  0  0  0  0  0  0
  187.9590  176.1920  146.6920 C   0  0  0  0  0  1  0  0  0  0  0  0
  191.7170  171.9290  142.6180 C   0  0  0  0  0  2  0  0  0  0  0  0
  191.6100  173.7700  139.4630 O   0  0  0  0  0  0  0  0  0  0  0  0
  190.8980  172.4950  143.7800 C   0  0  0  0  0  2  0  0  0  0  0  0
  195.8380  173.3690  145.7710 C   0  0  0  0  0  2  0  0  0  0  0  0
  194.8340  170.2350  143.9000 C   0  0  0  0  0  3  0  0  0  0  0  0
  195.4200  171.1230  144.8050 C   0  0  0  0  0  0  0  0  0  0  0  0
  196.0130  170.6480  145.9360 N   0  0  0  0  0  0  0  0  0  0  0  0
  196.7100  168.8410  147.4600 C   0  0  0  0  0  1  0  0  0  0  0  0
  195.4800  168.3990  145.3340 C   0  0  0  0  0  3  0  0  0  0  0  0
  196.0540  169.3180  146.2150 C   0  0  0  0  0  0  0  0  0  0  0  0
  194.8670  168.8660  144.1690 C   0  0  0  0  0  3  0  0  0  0  0  0
  188.4470  172.3440  138.8300 C   0  0  0  0  0  1  0  0  0  0  0  0
  189.8100  171.6750  138.7480 C   0  0  2  0  0  3  0  0  0  0  0  0
  190.1560  169.9640  136.9120 C   0  0  0  0  0  1  0  0  0  0  0  0
  189.6790  170.2110  138.3360 C   0  0  0  0  0  2  0  0  0  0  0  0
  1 22  1  0  0  0  0
  1 20  1  0  0  0  0
  2  7  1  0  0  0  0
  2 18  1  0  0  0  0
  4 20  1  0  0  0  0
  4  9  2  0  0  0  0
  5  2  2  0  0  0  0
  6 16  1  0  0  0  0
  7  4  1  0  0  0  0
  8  3  1  6  0  0  0
  8 21  1  0  0  0  0
  8  5  1  0  0  0  0
 10  6  1  0  0  0  0
 11 15  1  0  0  0  0
 11  7  2  0  0  0  0
 12  1  1  0  0  0  0
 13 26  1  0  0  0  0
 13 18  1  0  0  0  0
 14  9  1  0  0  0  0
 15  1  1  0  0  0  0
 16 17  1  0  0  0  0
 16 23  1  0  0  0  0
 17  3  1  0  0  0  0
 18 14  2  0  0  0  0
 19  5  1  0  0  0  0
 19 11  1  0  0  0  0
 21 28  1  1  0  0  0
 21 26  1  0  0  0  0
 23 25  1  0  0  0  0
 24  6  2  0  0  0  0
 25 19  1  0  0  0  0
 27 33  2  0  0  0  0
 27 28  1  0  0  0  0
 28 29  2  0  0  0  0
 29 32  1  0  0  0  0
 31 32  2  0  0  0  0
 32 30  1  0  0  0  0
 33 31  1  0  0  0  0
 35 34  1  1  0  0  0
 35 10  1  0  0  0  0
 36 37  1  0  0  0  0
 37 35  1  0  0  0  0
M  END
>  <MODEL>
2

>  <REMARK>
 VINA RESULT:      -8.1      2.915      6.630
  Name = 
  3 active torsions:
  status: ('A' for Active; 'I' for Inactive)
    1  A    between atoms: C_4  and  N_12
    2  A    between atoms: C_4  and  C_37
    3  A    between atoms: C_23  and  C_30
                            x       y       z     vdW  Elec       q    Type
                         _______ _______ _______ _____ _____    ______ ____

>  <TORSDO>
F 3

$$$$
=
 OpenBabel11112417213D

 37 42  0  0  1  0  0  0  0  0999 V2000
  189.7130  172.4420  139.7400 C   0  0  0  0  0  0  0  0  0  0  0  0
  187.8060  175.9490  140.8660 C   0  0  0  0  0  0  0  0  0  0  0  0
  189.4860  178.1310  142.8060 C   0  0  0  0  0  2  0  0  0  0  0  0
  188.0590  174.2870  139.1360 C   0  0  0  0  0  0  0  0  0  0  0  0
  188.2040  176.0380  142.1910 C   0  0  0  0  0  0  0  0  0  0  0  0
  192.2670  176.5750  144.6700 C   0  0  0  0  0  0  0  0  0  0  0  0
  188.1940  174.7250  140.4330 C   0  0  0  0  0  0  0  0  0  0  0  0
  188.2150  177.3040  143.0110 C   0  0  2  0  0  3  0  0  0  0  0  0
  187.4340  175.1570  138.2230 C   0  0  0  0  0  3  0  0  0  0  0  0
  192.5100  175.8370  145.8720 N   0  0  0  0  0  2  0  0  0  0  0  0
  188.8480  174.0940  141.4350 C   0  0  0  0  0  0  0  0  0  0  0  0
  191.0060  173.1220  139.3190 C   0  0  0  0  0  1  0  0  0  0  0  0
  186.7770  178.2110  140.4550 C   0  0  0  0  0  2  0  0  0  0  0  0
  187.0060  176.4430  138.6540 C   0  0  0  0  0  3  0  0  0  0  0  0
  189.4510  172.7320  141.2450 C   0  0  0  0  0  2  0  0  0  0  0  0
  190.9650  176.5640  144.0680 N   0  0  0  0  0  0  0  0  0  0  0  0
  190.7550  177.2700  142.8010 C   0  0  0  0  0  2  0  0  0  0  0  0
  187.1970  176.8540  139.9940 C   0  0  0  0  0  0  0  0  0  0  0  0
  188.8810  174.8930  142.5280 N   0  0  0  0  0  0  0  0  0  0  0  0
  188.5610  172.9060  138.7990 C   0  0  0  0  0  2  0  0  0  0  0  0
  186.9480  178.1810  142.9990 C   0  0  1  0  0  3  0  0  0  0  0  0
  189.8940  170.9490  139.5700 C   0  0  0  0  0  1  0  0  0  0  0  0
  189.9110  175.7390  144.6650 C   0  0  0  0  0  2  0  0  0  0  0  0
  193.2010  177.2420  144.1440 O   0  0  0  0  0  0  0  0  0  0  0  0
  189.5500  174.5380  143.7870 C   0  0  0  0  0  2  0  0  0  0  0  0
  186.0260  178.0960  141.7750 C   0  0  0  0  0  2  0  0  0  0  0  0
  184.8710  178.4790  144.3530 C   0  0  0  0  0  3  0  0  0  0  0  0
  186.1630  177.9580  144.2470 C   0  0  0  0  0  0  0  0  0  0  0  0
  186.7030  177.2630  145.2870 N   0  0  0  0  0  0  0  0  0  0  0  0
  186.6380  176.2880  147.5500 C   0  0  0  0  0  1  0  0  0  0  0  0
  184.7180  177.5570  146.5820 C   0  0  0  0  0  3  0  0  0  0  0  0
  186.0130  177.0530  146.4400 C   0  0  0  0  0  0  0  0  0  0  0  0
  184.1470  178.2740  145.5290 C   0  0  0  0  0  3  0  0  0  0  0  0
  194.3690  177.1790  146.7300 C   0  0  0  0  0  1  0  0  0  0  0  0
  193.8170  175.7780  146.5150 C   0  0  2  0  0  3  0  0  0  0  0  0
  194.2910  173.4980  145.5200 C   0  0  0  0  0  1  0  0  0  0  0  0
  194.7810  174.9290  145.6920 C   0  0  0  0  0  2  0  0  0  0  0  0
  1 15  1  0  0  0  0
  2  5  2  0  0  0  0
  4  7  1  0  0  0  0
  5 19  1  0  0  0  0
  5  8  1  0  0  0  0
  6 10  1  0  0  0  0
  7  2  1  0  0  0  0
  7 11  2  0  0  0  0
  8  3  1  6  0  0  0
  9 14  1  0  0  0  0
  9  4  2  0  0  0  0
 10 35  1  0  0  0  0
 11 19  1  0  0  0  0
 12  1  1  0  0  0  0
 13 26  1  0  0  0  0
 14 18  2  0  0  0  0
 15 11  1  0  0  0  0
 16 23  1  0  0  0  0
 16  6  1  0  0  0  0
 17  3  1  0  0  0  0
 17 16  1  0  0  0  0
 18 13  1  0  0  0  0
 18  2  1  0  0  0  0
 19 25  1  0  0  0  0
 20  4  1  0  0  0  0
 20  1  1  0  0  0  0
 21  8  1  0  0  0  0
 21 28  1  1  0  0  0
 22  1  1  0  0  0  0
 24  6  2  0  0  0  0
 25 23  1  0  0  0  0
 26 21  1  0  0  0  0
 27 33  1  0  0  0  0
 28 27  2  0  0  0  0
 28 29  1  0  0  0  0
 29 32  2  0  0  0  0
 32 31  1  0  0  0  0
 32 30  1  0  0  0  0
 33 31  2  0  0  0  0
 35 34  1  6  0  0  0
 36 37  1  0  0  0  0
 37 35  1  0  0  0  0
M  END
>  <MODEL>
3

>  <REMARK>
 VINA RESULT:      -8.0      2.489      6.746
  Name = 
  3 active torsions:
  status: ('A' for Active; 'I' for Inactive)
    1  A    between atoms: C_4  and  N_12
    2  A    between atoms: C_4  and  C_37
    3  A    between atoms: C_23  and  C_30
                            x       y       z     vdW  Elec       q    Type
                         _______ _______ _______ _____ _____    ______ ____

>  <TORSDO>
F 3

$$$$
=
 OpenBabel11112417213D

 37 42  0  0  1  0  0  0  0  0999 V2000
  187.6480  176.3620  143.2310 C   0  0  0  0  0  0  0  0  0  0  0  0
  191.3490  174.9930  144.5080 C   0  0  0  0  0  0  0  0  0  0  0  0
  193.6280  174.1380  142.1780 C   0  0  0  0  0  2  0  0  0  0  0  0
  189.5050  176.4770  144.9750 C   0  0  0  0  0  0  0  0  0  0  0  0
  191.5530  173.9510  143.6160 C   0  0  0  0  0  0  0  0  0  0  0  0
  192.1270  173.3510  138.8980 C   0  0  0  0  0  0  0  0  0  0  0  0
  190.0680  175.3980  144.3330 C   0  0  0  0  0  0  0  0  0  0  0  0
  192.8960  173.3550  143.2700 C   0  0  2  0  0  3  0  0  0  0  0  0
  190.3090  177.1650  145.9040 C   0  0  0  0  0  3  0  0  0  0  0  0
  191.5050  172.2630  138.2040 N   0  0  0  0  0  2  0  0  0  0  0  0
  189.5110  174.6670  143.3400 C   0  0  0  0  0  0  0  0  0  0  0  0
  188.2100  177.3330  142.2070 C   0  0  0  0  0  1  0  0  0  0  0  0
  193.6080  175.2260  145.5970 C   0  0  0  0  0  2  0  0  0  0  0  0
  191.6530  176.7530  146.1150 C   0  0  0  0  0  3  0  0  0  0  0  0
  188.1060  174.9190  142.8720 C   0  0  0  0  0  2  0  0  0  0  0  0
  192.1230  173.3860  140.3320 N   0  0  0  0  0  0  0  0  0  0  0  0
  192.7040  174.5410  141.0220 C   0  0  0  0  0  2  0  0  0  0  0  0
  192.1900  175.6540  145.4050 C   0  0  0  0  0  0  0  0  0  0  0  0
  190.4160  173.7770  142.8690 N   0  0  0  0  0  0  0  0  0  0  0  0
  188.0730  176.8210  144.6590 C   0  0  0  0  0  2  0  0  0  0  0  0
  193.8330  172.9700  144.4310 C   0  0  1  0  0  3  0  0  0  0  0  0
  186.1380  176.4140  143.1450 C   0  0  0  0  0  1  0  0  0  0  0  0
  191.4220  172.3320  141.0700 C   0  0  0  0  0  2  0  0  0  0  0  0
  192.6840  174.2750  138.2450 O   0  0  0  0  0  0  0  0  0  0  0  0
  190.1570  172.8500  141.7590 C   0  0  0  0  0  2  0  0  0  0  0  0
  193.6700  173.7140  145.7640 C   0  0  0  0  0  2  0  0  0  0  0  0
  192.9630  170.7010  143.8540 C   0  0  0  0  0  3  0  0  0  0  0  0
  193.7830  171.4970  144.6580 C   0  0  0  0  0  0  0  0  0  0  0  0
  194.5220  170.9250  145.6500 N   0  0  0  0  0  0  0  0  0  0  0  0
  195.3090  169.0030  146.9760 C   0  0  0  0  0  1  0  0  0  0  0  0
  193.6810  168.7590  145.1010 C   0  0  0  0  0  3  0  0  0  0  0  0
  194.4880  169.5870  145.8840 C   0  0  0  0  0  0  0  0  0  0  0  0
  192.9140  169.3240  144.0790 C   0  0  0  0  0  3  0  0  0  0  0  0
  190.3130  173.0490  136.2160 C   0  0  0  0  0  1  0  0  0  0  0  0
  191.4440  172.1840  136.7500 C   0  0  2  0  0  3  0  0  0  0  0  0
  190.2070  169.9990  137.0770 C   0  0  0  0  0  1  0  0  0  0  0  0
  191.2880  170.7350  136.2980 C   0  0  0  0  0  2  0  0  0  0  0  0
  1 20  1  0  0  0  0
  2 18  1  0  0  0  0
  4  9  2  0  0  0  0
  5  2  2  0  0  0  0
  6 16  1  0  0  0  0
  7  2  1  0  0  0  0
  7  4  1  0  0  0  0
  8  3  1  6  0  0  0
  8  5  1  0  0  0  0
  8 21  1  0  0  0  0
  9 14  1  0  0  0  0
 10  6  1  0  0  0  0
 11  7  2  0  0  0  0
 12  1  1  0  0  0  0
 13 26  1  0  0  0  0
 15  1  1  0  0  0  0
 15 11  1  0  0  0  0
 16 17  1  0  0  0  0
 16 23  1  0  0  0  0
 17  3  1  0  0  0  0
 18 13  1  0  0  0  0
 18 14  2  0  0  0  0
 19 11  1  0  0  0  0
 19  5  1  0  0  0  0
 20  4  1  0  0  0  0
 21 28  1  1  0  0  0
 21 26  1  0  0  0  0
 22  1  1  0  0  0  0
 23 25  1  0  0  0  0
 24  6  2  0  0  0  0
 25 19  1  0  0  0  0
 27 33  2  0  0  0  0
 27 28  1  0  0  0  0
 28 29  2  0  0  0  0
 29 32  1  0  0  0  0
 31 32  2  0  0  0  0
 32 30  1  0  0  0  0
 33 31  1  0  0  0  0
 35 34  1  1  0  0  0
 35 10  1  0  0  0  0
 37 35  1  0  0  0  0
 37 36  1  0  0  0  0
M  END
>  <MODEL>
4

>  <REMARK>
 VINA RESULT:      -7.3      2.746      6.326
  Name = 
  3 active torsions:
  status: ('A' for Active; 'I' for Inactive)
    1  A    between atoms: C_4  and  N_12
    2  A    between atoms: C_4  and  C_37
    3  A    between atoms: C_23  and  C_30
                            x       y       z     vdW  Elec       q    Type
                         _______ _______ _______ _____ _____    ______ ____

>  <TORSDO>
F 3

$$$$
=
 OpenBabel11112417213D

 37 42  0  0  1  0  0  0  0  0999 V2000
  196.5380  175.0930  141.3030 C   0  0  0  0  0  0  0  0  0  0  0  0
  193.4850  175.0100  144.1080 C   0  0  0  0  0  0  0  0  0  0  0  0
  191.3140  172.4350  144.0340 C   0  0  0  0  0  2  0  0  0  0  0  0
  195.7710  175.6420  143.6720 C   0  0  0  0  0  0  0  0  0  0  0  0
  192.4260  174.5920  143.3160 C   0  0  0  0  0  0  0  0  0  0  0  0
  191.1880  170.7360  140.7580 C   0  0  0  0  0  0  0  0  0  0  0  0
  194.5080  175.2820  143.2630 C   0  0  0  0  0  0  0  0  0  0  0  0
  191.1640  173.9430  143.8270 C   0  0  2  0  0  3  0  0  0  0  0  0
  195.9860  175.7790  145.0570 C   0  0  0  0  0  3  0  0  0  0  0  0
  190.5630  170.8610  139.4760 N   0  0  0  0  0  2  0  0  0  0  0  0
  194.1170  175.0010  141.9990 C   0  0  0  0  0  0  0  0  0  0  0  0
  196.9440  173.6430  141.5040 C   0  0  0  0  0  1  0  0  0  0  0  0
  192.5370  174.8050  146.4320 C   0  0  0  0  0  2  0  0  0  0  0  0
  194.9250  175.5120  145.9650 C   0  0  0  0  0  3  0  0  0  0  0  0
  195.0550  175.1470  140.8350 C   0  0  0  0  0  2  0  0  0  0  0  0
  191.3480  171.8880  141.5970 N   0  0  0  0  0  0  0  0  0  0  0  0
  192.0520  171.7520  142.8760 C   0  0  0  0  0  2  0  0  0  0  0  0
  193.6530  175.1150  145.4900 C   0  0  0  0  0  0  0  0  0  0  0  0
  192.8380  174.5560  142.0080 N   0  0  0  0  0  0  0  0  0  0  0  0
  196.8150  175.8890  142.6130 C   0  0  0  0  0  2  0  0  0  0  0  0
  190.4330  174.6170  145.0050 C   0  0  1  0  0  3  0  0  0  0  0  0
  197.4020  175.6720  140.2030 C   0  0  0  0  0  1  0  0  0  0  0  0
  190.9230  173.1990  141.0970 C   0  0  0  0  0  2  0  0  0  0  0  0
  191.5920  169.6070  141.1520 O   0  0  0  0  0  0  0  0  0  0  0  0
  192.1100  174.1210  140.8080 C   0  0  0  0  0  2  0  0  0  0  0  0
  191.2610  175.4880  145.9600 C   0  0  0  0  0  2  0  0  0  0  0  0
  188.4520  176.0840  145.4050 C   0  0  0  0  0  3  0  0  0  0  0  0
  189.2560  175.3830  144.5030 C   0  0  0  0  0  0  0  0  0  0  0  0
  188.9550  175.3940  143.1740 N   0  0  0  0  0  0  0  0  0  0  0  0
  187.5900  176.0630  141.2340 C   0  0  0  0  0  1  0  0  0  0  0  0
  187.0560  176.7890  143.5620 C   0  0  0  0  0  3  0  0  0  0  0  0
  187.8830  176.0760  142.6910 C   0  0  0  0  0  0  0  0  0  0  0  0
  187.3460  176.7910  144.9280 C   0  0  0  0  0  3  0  0  0  0  0  0
  191.7200  169.4040  137.8850 C   0  0  0  0  0  1  0  0  0  0  0  0
  190.4000  169.7380  138.5620 C   0  0  2  0  0  3  0  0  0  0  0  0
  189.7830  171.0220  136.4690 C   0  0  0  0  0  1  0  0  0  0  0  0
  189.3150  170.0380  137.5310 C   0  0  0  0  0  2  0  0  0  0  0  0
  1 12  1  0  0  0  0
  1 20  1  0  0  0  0
  2 18  1  0  0  0  0
  4  9  2  0  0  0  0
  5  8  1  0  0  0  0
  5  2  2  0  0  0  0
  6 24  2  0  0  0  0
  6 16  1  0  0  0  0
  7  4  1  0  0  0  0
  7  2  1  0  0  0  0
  8  3  1  1  0  0  0
  8 21  1  0  0  0  0
  9 14  1  0  0  0  0
 10  6  1  0  0  0  0
 11 19  1  0  0  0  0
 11  7  2  0  0  0  0
 15  1  1  0  0  0  0
 15 11  1  0  0  0  0
 16 17  1  0  0  0  0
 17  3  1  0  0  0  0
 18 14  2  0  0  0  0
 18 13  1  0  0  0  0
 19  5  1  0  0  0  0
 20  4  1  0  0  0  0
 21 28  1  6  0  0  0
 21 26  1  0  0  0  0
 22  1  1  0  0  0  0
 23 16  1  0  0  0  0
 25 23  1  0  0  0  0
 25 19  1  0  0  0  0
 26 13  1  0  0  0  0
 28 27  2  0  0  0  0
 29 28  1  0  0  0  0
 30 32  1  0  0  0  0
 31 33  2  0  0  0  0
 32 29  2  0  0  0  0
 32 31  1  0  0  0  0
 33 27  1  0  0  0  0
 35 34  1  6  0  0  0
 35 10  1  0  0  0  0
 36 37  1  0  0  0  0
 37 35  1  0  0  0  0
M  END
>  <MODEL>
5

>  <REMARK>
 VINA RESULT:      -7.2      1.449      2.303
  Name = 
  3 active torsions:
  status: ('A' for Active; 'I' for Inactive)
    1  A    between atoms: C_4  and  N_12
    2  A    between atoms: C_4  and  C_37
    3  A    between atoms: C_23  and  C_30
                            x       y       z     vdW  Elec       q    Type
                         _______ _______ _______ _____ _____    ______ ____

>  <TORSDO>
F 3

$$$$
=
 OpenBabel11112417213D

 37 42  0  0  1  0  0  0  0  0999 V2000
  189.1170  172.9960  139.3240 C   0  0  0  0  0  0  0  0  0  0  0  0
  191.4550  172.8660  142.7480 C   0  0  0  0  0  0  0  0  0  0  0  0
  190.1980  174.1590  145.5930 C   0  0  0  0  0  2  0  0  0  0  0  0
  190.8690  171.7460  140.6930 C   0  0  0  0  0  0  0  0  0  0  0  0
  191.2050  174.1250  143.2710 C   0  0  0  0  0  0  0  0  0  0  0  0
  187.4850  176.5950  145.0070 C   0  0  0  0  0  0  0  0  0  0  0  0
  190.9100  172.8540  141.5080 C   0  0  0  0  0  0  0  0  0  0  0  0
  191.3980  174.5180  144.7150 C   0  0  2  0  0  3  0  0  0  0  0  0
  191.4780  170.5710  141.1720 C   0  0  0  0  0  3  0  0  0  0  0  0
  187.2970  177.9790  144.6910 N   0  0  0  0  0  2  0  0  0  0  0  0
  190.3050  174.0430  141.2850 C   0  0  0  0  0  0  0  0  0  0  0  0
  187.8590  172.4770  140.0020 C   0  0  0  0  0  1  0  0  0  0  0  0
  192.6470  171.7160  144.6450 C   0  0  0  0  0  2  0  0  0  0  0  0
  192.0680  170.5600  142.4660 C   0  0  0  0  0  3  0  0  0  0  0  0
  189.5580  174.3190  140.0110 C   0  0  0  0  0  2  0  0  0  0  0  0
  188.7120  175.9380  144.6600 N   0  0  0  0  0  0  0  0  0  0  0  0
  188.8580  174.5040  144.9300 C   0  0  0  0  0  2  0  0  0  0  0  0
  192.0550  171.7210  143.2740 C   0  0  0  0  0  0  0  0  0  0  0  0
  190.4590  174.8410  142.3690 N   0  0  0  0  0  0  0  0  0  0  0  0
  190.2060  171.8810  139.3460 C   0  0  0  0  0  2  0  0  0  0  0  0
  192.7350  174.1530  145.3890 C   0  0  1  0  0  3  0  0  0  0  0  0
  188.7790  173.3010  137.8810 C   0  0  0  0  0  1  0  0  0  0  0  0
  189.7380  176.6830  143.9260 C   0  0  0  0  0  2  0  0  0  0  0  0
  186.5700  175.9560  145.5960 O   0  0  0  0  0  0  0  0  0  0  0  0
  189.8920  176.1910  142.4850 C   0  0  0  0  0  2  0  0  0  0  0  0
  193.5150  172.9530  144.8340 C   0  0  0  0  0  2  0  0  0  0  0  0
  193.4400  176.2910  146.4710 C   0  0  0  0  0  3  0  0  0  0  0  0
  193.6180  175.3530  145.4510 C   0  0  0  0  0  0  0  0  0  0  0  0
  194.5880  175.5460  144.5130 N   0  0  0  0  0  0  0  0  0  0  0  0
  196.4460  176.8090  143.4980 C   0  0  0  0  0  1  0  0  0  0  0  0
  195.2530  177.5940  145.5450 C   0  0  0  0  0  3  0  0  0  0  0  0
  195.4000  176.6360  144.5400 C   0  0  0  0  0  0  0  0  0  0  0  0
  194.2640  177.4170  146.5160 C   0  0  0  0  0  3  0  0  0  0  0  0
  185.8460  179.8180  143.9800 C   0  0  0  0  0  1  0  0  0  0  0  0
  186.0640  178.6970  144.9840 C   0  0  2  0  0  3  0  0  0  0  0  0
  185.0440  178.5660  147.2990 C   0  0  0  0  0  1  0  0  0  0  0  0
  186.0830  179.2360  146.4120 C   0  0  0  0  0  2  0  0  0  0  0  0
  1 20  1  0  0  0  0
  1 12  1  0  0  0  0
  1 15  1  0  0  0  0
  2  5  2  0  0  0  0
  2 18  1  0  0  0  0
  4  9  2  0  0  0  0
  4  7  1  0  0  0  0
  5  8  1  0  0  0  0
  6 24  2  0  0  0  0
  7  2  1  0  0  0  0
  8 21  1  0  0  0  0
  8  3  1  1  0  0  0
  9 14  1  0  0  0  0
 10 35  1  0  0  0  0
 10  6  1  0  0  0  0
 11  7  2  0  0  0  0
 11 19  1  0  0  0  0
 13 26  1  0  0  0  0
 14 18  2  0  0  0  0
 15 11  1  0  0  0  0
 16 17  1  0  0  0  0
 16  6  1  0  0  0  0
 17  3  1  0  0  0  0
 18 13  1  0  0  0  0
 19 25  1  0  0  0  0
 19  5  1  0  0  0  0
 20  4  1  0  0  0  0
 21 28  1  6  0  0  0
 22  1  1  0  0  0  0
 23 16  1  0  0  0  0
 25 23  1  0  0  0  0
 26 21  1  0  0  0  0
 27 33  1  0  0  0  0
 28 27  2  0  0  0  0
 29 32  2  0  0  0  0
 29 28  1  0  0  0  0
 30 32  1  0  0  0  0
 31 33  2  0  0  0  0
 32 31  1  0  0  0  0
 35 34  1  6  0  0  0
 35 37  1  0  0  0  0
 37 36  1  0  0  0  0
M  END
>  <MODEL>
6

>  <REMARK>
 VINA RESULT:      -7.2      2.199      7.617
  Name = 
  3 active torsions:
  status: ('A' for Active; 'I' for Inactive)
    1  A    between atoms: C_4  and  N_12
    2  A    between atoms: C_4  and  C_37
    3  A    between atoms: C_23  and  C_30
                            x       y       z     vdW  Elec       q    Type
                         _______ _______ _______ _____ _____    ______ ____

>  <TORSDO>
F 3

$$$$
=
 OpenBabel11112417213D

 37 42  0  0  1  0  0  0  0  0999 V2000
  189.6050  172.3410  139.0160 C   0  0  0  0  0  0  0  0  0  0  0  0
  188.3690  175.6940  141.1220 C   0  0  0  0  0  0  0  0  0  0  0  0
  190.6790  177.4420  142.8430 C   0  0  0  0  0  2  0  0  0  0  0  0
  188.0200  174.3350  139.1600 C   0  0  0  0  0  0  0  0  0  0  0  0
  189.1020  175.5420  142.2900 C   0  0  0  0  0  0  0  0  0  0  0  0
  193.6980  175.4710  143.6370 C   0  0  0  0  0  0  0  0  0  0  0  0
  188.5230  174.5440  140.4240 C   0  0  0  0  0  0  0  0  0  0  0  0
  189.4360  176.6520  143.2550 C   0  0  2  0  0  3  0  0  0  0  0  0
  187.2600  175.3730  138.5900 C   0  0  0  0  0  3  0  0  0  0  0  0
  194.1760  174.5320  144.6070 N   0  0  0  0  0  2  0  0  0  0  0  0
  189.3550  173.7250  141.1080 C   0  0  0  0  0  0  0  0  0  0  0  0
  190.8000  173.0220  138.3700 C   0  0  0  0  0  1  0  0  0  0  0  0
  187.4740  178.0370  141.3450 C   0  0  0  0  0  2  0  0  0  0  0  0
  187.0730  176.5870  139.3060 C   0  0  0  0  0  3  0  0  0  0  0  0
  189.7660  172.3870  140.5620 C   0  0  0  0  0  2  0  0  0  0  0  0
  192.2890  175.6200  143.4130 N   0  0  0  0  0  0  0  0  0  0  0  0
  191.8220  176.5370  142.3690 C   0  0  0  0  0  2  0  0  0  0  0  0
  187.6390  176.7590  140.5910 C   0  0  0  0  0  0  0  0  0  0  0  0
  189.7390  174.3280  142.2580 N   0  0  0  0  0  0  0  0  0  0  0  0
  188.2950  173.0080  138.4990 C   0  0  0  0  0  2  0  0  0  0  0  0
  188.2910  177.5760  143.7150 C   0  0  1  0  0  3  0  0  0  0  0  0
  189.6020  170.8910  138.5830 C   0  0  0  0  0  1  0  0  0  0  0  0
  191.3550  174.7560  144.1410 C   0  0  0  0  0  2  0  0  0  0  0  0
  194.5190  176.1730  142.9850 O   0  0  0  0  0  0  0  0  0  0  0  0
  190.6760  173.7360  143.2240 C   0  0  0  0  0  2  0  0  0  0  0  0
  187.0800  177.7380  142.7850 C   0  0  0  0  0  2  0  0  0  0  0  0
  188.5150  176.1740  145.7710 C   0  0  0  0  0  3  0  0  0  0  0  0
  187.8380  177.1830  145.0810 C   0  0  0  0  0  0  0  0  0  0  0  0
  186.7630  177.7930  145.6540 N   0  0  0  0  0  0  0  0  0  0  0  0
  185.1460  178.1390  147.4820 C   0  0  0  0  0  1  0  0  0  0  0  0
  186.9750  176.4450  147.6130 C   0  0  0  0  0  3  0  0  0  0  0  0
  186.3230  177.4490  146.8930 C   0  0  0  0  0  0  0  0  0  0  0  0
  188.0780  175.8060  147.0440 C   0  0  0  0  0  3  0  0  0  0  0  0
  196.3220  173.9880  143.5620 C   0  0  0  0  0  1  0  0  0  0  0  0
  195.5940  174.3070  144.8580 C   0  0  2  0  0  3  0  0  0  0  0  0
  194.9320  171.9720  145.5810 C   0  0  0  0  0  1  0  0  0  0  0  0
  195.7860  173.1940  145.8840 C   0  0  0  0  0  2  0  0  0  0  0  0
  1 15  1  0  0  0  0
  2  5  2  0  0  0  0
  4  7  1  0  0  0  0
  5  8  1  0  0  0  0
  6 10  1  0  0  0  0
  7 11  2  0  0  0  0
  7  2  1  0  0  0  0
  8  3  1  6  0  0  0
  8 21  1  0  0  0  0
  9  4  2  0  0  0  0
  9 14  1  0  0  0  0
 10 35  1  0  0  0  0
 11 19  1  0  0  0  0
 12  1  1  0  0  0  0
 13 26  1  0  0  0  0
 14 18  2  0  0  0  0
 15 11  1  0  0  0  0
 16  6  1  0  0  0  0
 16 23  1  0  0  0  0
 17  3  1  0  0  0  0
 17 16  1  0  0  0  0
 18  2  1  0  0  0  0
 18 13  1  0  0  0  0
 19  5  1  0  0  0  0
 19 25  1  0  0  0  0
 20  1  1  0  0  0  0
 20  4  1  0  0  0  0
 21 28  1  1  0  0  0
 22  1  1  0  0  0  0
 24  6  2  0  0  0  0
 25 23  1  0  0  0  0
 26 21  1  0  0  0  0
 27 33  1  0  0  0  0
 28 29  1  0  0  0  0
 28 27  2  0  0  0  0
 29 32  2  0  0  0  0
 32 30  1  0  0  0  0
 32 31  1  0  0  0  0
 33 31  2  0  0  0  0
 35 34  1  6  0  0  0
 35 37  1  0  0  0  0
 36 37  1  0  0  0  0
M  END
>  <MODEL>
7

>  <REMARK>
 VINA RESULT:      -7.1      2.372      6.371
  Name = 
  3 active torsions:
  status: ('A' for Active; 'I' for Inactive)
    1  A    between atoms: C_4  and  N_12
    2  A    between atoms: C_4  and  C_37
    3  A    between atoms: C_23  and  C_30
                            x       y       z     vdW  Elec       q    Type
                         _______ _______ _______ _____ _____    ______ ____

>  <TORSDO>
F 3

$$$$
=
 OpenBabel11112417213D

 37 42  0  0  1  0  0  0  0  0999 V2000
  191.1570  170.3790  137.9080 C   0  0  0  0  0  0  0  0  0  0  0  0
  192.2730  170.6780  141.8910 C   0  0  0  0  0  0  0  0  0  0  0  0
  190.3110  172.4590  143.9720 C   0  0  0  0  0  2  0  0  0  0  0  0
  192.2610  169.2790  139.9270 C   0  0  0  0  0  0  0  0  0  0  0  0
  191.9900  172.0140  142.1320 C   0  0  0  0  0  0  0  0  0  0  0  0
  188.1660  174.8960  142.2150 C   0  0  0  0  0  0  0  0  0  0  0  0
  192.1480  170.4980  140.5550 C   0  0  0  0  0  0  0  0  0  0  0  0
  191.7550  172.6190  143.4940 C   0  0  2  0  0  3  0  0  0  0  0  0
  192.5740  168.1660  140.7310 C   0  0  0  0  0  3  0  0  0  0  0  0
  188.2190  176.2210  141.6750 N   0  0  0  0  0  2  0  0  0  0  0  0
  191.7600  171.6640  139.9910 C   0  0  0  0  0  0  0  0  0  0  0  0
  189.7070  170.0320  138.2010 C   0  0  0  0  0  1  0  0  0  0  0  0
  192.6910  169.7850  144.2090 C   0  0  0  0  0  2  0  0  0  0  0  0
  192.7220  168.3300  142.1350 C   0  0  0  0  0  3  0  0  0  0  0  0
  191.4820  171.7720  138.5190 C   0  0  0  0  0  2  0  0  0  0  0  0
  189.3710  174.1360  142.3790 N   0  0  0  0  0  0  0  0  0  0  0  0
  189.2880  172.7570  142.8700 C   0  0  0  0  0  2  0  0  0  0  0  0
  192.5650  169.6020  142.7330 C   0  0  0  0  0  0  0  0  0  0  0  0
  191.6390  172.6130  140.9500 N   0  0  0  0  0  0  0  0  0  0  0  0
  192.0730  169.2320  138.4320 C   0  0  0  0  0  2  0  0  0  0  0  0
  192.7700  172.3010  144.6090 C   0  0  1  0  0  3  0  0  0  0  0  0
  191.3220  170.4700  136.4070 C   0  0  0  0  0  1  0  0  0  0  0  0
  190.6420  174.7090  141.9260 C   0  0  0  0  0  2  0  0  0  0  0  0
  187.0550  174.4010  142.5540 O   0  0  0  0  0  0  0  0  0  0  0  0
  191.1950  173.9900  140.6930 C   0  0  0  0  0  2  0  0  0  0  0  0
  193.5680  170.9940  144.5040 C   0  0  0  0  0  2  0  0  0  0  0  0
  194.9220  173.4720  144.1200 C   0  0  0  0  0  3  0  0  0  0  0  0
  193.6990  173.4540  144.7950 C   0  0  0  0  0  0  0  0  0  0  0  0
  193.3670  174.4810  145.6260 N   0  0  0  0  0  0  0  0  0  0  0  0
  193.7980  176.6390  146.7370 C   0  0  0  0  0  1  0  0  0  0  0  0
  195.4300  175.5920  145.1630 C   0  0  0  0  0  3  0  0  0  0  0  0
  194.1980  175.5390  145.8210 C   0  0  0  0  0  0  0  0  0  0  0  0
  195.7900  174.5490  144.3080 C   0  0  0  0  0  3  0  0  0  0  0  0
  186.8510  177.3220  139.9690 C   0  0  0  0  0  1  0  0  0  0  0  0
  187.0300  177.0330  141.4510 C   0  0  2  0  0  3  0  0  0  0  0  0
  186.8290  178.1040  143.7370 C   0  0  0  0  0  1  0  0  0  0  0  0
  187.1040  178.3270  142.2570 C   0  0  0  0  0  2  0  0  0  0  0  0
  1 12  1  0  0  0  0
  1 20  1  0  0  0  0
  1 15  1  0  0  0  0
  2  5  2  0  0  0  0
  2 18  1  0  0  0  0
  4  7  1  0  0  0  0
  4  9  2  0  0  0  0
  5  8  1  0  0  0  0
  6 16  1  0  0  0  0
  6 24  2  0  0  0  0
  7  2  1  0  0  0  0
  8  3  1  1  0  0  0
  8 21  1  0  0  0  0
  9 14  1  0  0  0  0
 10  6  1  0  0  0  0
 11  7  2  0  0  0  0
 11 19  1  0  0  0  0
 13 26  1  0  0  0  0
 14 18  2  0  0  0  0
 15 11  1  0  0  0  0
 16 17  1  0  0  0  0
 17  3  1  0  0  0  0
 18 13  1  0  0  0  0
 19  5  1  0  0  0  0
 20  4  1  0  0  0  0
 21 28  1  6  0  0  0
 22  1  1  0  0  0  0
 23 16  1  0  0  0  0
 25 19  1  0  0  0  0
 25 23  1  0  0  0  0
 26 21  1  0  0  0  0
 27 33  2  0  0  0  0
 27 28  1  0  0  0  0
 28 29  2  0  0  0  0
 29 32  1  0  0  0  0
 31 32  2  0  0  0  0
 32 30  1  0  0  0  0
 33 31  1  0  0  0  0
 35 34  1  6  0  0  0
 35 10  1  0  0  0  0
 35 37  1  0  0  0  0
 37 36  1  0  0  0  0
M  END
>  <MODEL>
8

>  <REMARK>
 VINA RESULT:      -6.8      2.162      7.426
  Name = 
  3 active torsions:
  status: ('A' for Active; 'I' for Inactive)
    1  A    between atoms: C_4  and  N_12
    2  A    between atoms: C_4  and  C_37
    3  A    between atoms: C_23  and  C_30
                            x       y       z     vdW  Elec       q    Type
                         _______ _______ _______ _____ _____    ______ ____

>  <TORSDO>
F 3

$$$$
=
 OpenBabel11112417213D

 37 42  0  0  1  0  0  0  0  0999 V2000
  189.8670  176.3970  146.3230 C   0  0  0  0  0  0  0  0  0  0  0  0
  189.4720  174.7550  142.5360 C   0  0  0  0  0  0  0  0  0  0  0  0
  190.8870  171.7570  141.9360 C   0  0  0  0  0  2  0  0  0  0  0  0
  188.4300  176.1100  144.2370 C   0  0  0  0  0  0  0  0  0  0  0  0
  190.7500  174.2510  142.3450 C   0  0  0  0  0  0  0  0  0  0  0  0
  193.6060  170.9370  144.2950 C   0  0  0  0  0  0  0  0  0  0  0  0
  189.5240  175.5080  143.6600 C   0  0  0  0  0  0  0  0  0  0  0  0
  191.1150  173.1590  141.3690 C   0  0  2  0  0  3  0  0  0  0  0  0
  187.1930  175.9660  143.5790 C   0  0  0  0  0  3  0  0  0  0  0  0
  195.0040  171.1800  144.4920 N   0  0  0  0  0  2  0  0  0  0  0  0
  190.7730  175.4390  144.1750 C   0  0  0  0  0  0  0  0  0  0  0  0
  189.4880  175.1240  147.0610 C   0  0  0  0  0  1  0  0  0  0  0  0
  188.1930  173.7290  140.6240 C   0  0  0  0  0  2  0  0  0  0  0  0
  187.1140  175.1910  142.3900 C   0  0  0  0  0  3  0  0  0  0  0  0
  191.1330  176.1280  145.4600 C   0  0  0  0  0  2  0  0  0  0  0  0
  192.8200  171.8480  143.5150 N   0  0  0  0  0  0  0  0  0  0  0  0
  191.3780  171.6180  143.3820 C   0  0  0  0  0  2  0  0  0  0  0  0
  188.2660  174.5680  141.8570 C   0  0  0  0  0  0  0  0  0  0  0  0
  191.5450  174.6530  143.3880 N   0  0  0  0  0  0  0  0  0  0  0  0
  188.6410  176.8980  145.5040 C   0  0  0  0  0  2  0  0  0  0  0  0
  190.6030  173.2860  139.9210 C   0  0  1  0  0  3  0  0  0  0  0  0
  190.2120  177.4490  147.3550 C   0  0  0  0  0  1  0  0  0  0  0  0
  193.4510  173.0590  142.9810 C   0  0  0  0  0  2  0  0  0  0  0  0
  193.0700  169.9140  144.8040 O   0  0  0  0  0  0  0  0  0  0  0  0
  192.9490  174.3270  143.6740 C   0  0  0  0  0  2  0  0  0  0  0  0
  189.3270  174.1040  139.6790 C   0  0  0  0  0  2  0  0  0  0  0  0
  191.5040  173.8150  137.6520 C   0  0  0  0  0  3  0  0  0  0  0  0
  191.7000  173.7750  139.0350 C   0  0  0  0  0  0  0  0  0  0  0  0
  192.8910  174.1690  139.5650 N   0  0  0  0  0  0  0  0  0  0  0  0
  195.1940  175.0320  139.3970 C   0  0  0  0  0  1  0  0  0  0  0  0
  193.7520  174.6650  137.3930 C   0  0  0  0  0  3  0  0  0  0  0  0
  193.9100  174.6100  138.7800 C   0  0  0  0  0  0  0  0  0  0  0  0
  192.5390  174.2640  136.8290 C   0  0  0  0  0  3  0  0  0  0  0  0
  196.8160  171.1390  146.1380 C   0  0  0  0  0  1  0  0  0  0  0  0
  195.8510  170.3130  145.3000 C   0  0  2  0  0  3  0  0  0  0  0  0
  197.8800  168.8150  145.0700 C   0  0  0  0  0  1  0  0  0  0  0  0
  196.6030  169.3220  144.4160 C   0  0  0  0  0  2  0  0  0  0  0  0
  1 12  1  0  0  0  0
  1 22  1  0  0  0  0
  2  7  1  0  0  0  0
  3 17  1  0  0  0  0
  4 20  1  0  0  0  0
  5  2  2  0  0  0  0
  5 19  1  0  0  0  0
  6 10  1  0  0  0  0
  6 24  2  0  0  0  0
  7 11  2  0  0  0  0
  7  4  1  0  0  0  0
  8  3  1  1  0  0  0
  8  5  1  0  0  0  0
  9  4  2  0  0  0  0
 10 35  1  0  0  0  0
 11 15  1  0  0  0  0
 13 18  1  0  0  0  0
 14  9  1  0  0  0  0
 15  1  1  0  0  0  0
 16  6  1  0  0  0  0
 17 16  1  0  0  0  0
 18 14  2  0  0  0  0
 18  2  1  0  0  0  0
 19 25  1  0  0  0  0
 19 11  1  0  0  0  0
 20  1  1  0  0  0  0
 21 28  1  6  0  0  0
 21  8  1  0  0  0  0
 23 16  1  0  0  0  0
 23 25  1  0  0  0  0
 26 21  1  0  0  0  0
 26 13  1  0  0  0  0
 27 28  1  0  0  0  0
 28 29  2  0  0  0  0
 31 32  2  0  0  0  0
 32 30  1  0  0  0  0
 32 29  1  0  0  0  0
 33 31  1  0  0  0  0
 33 27  2  0  0  0  0
 35 34  1  6  0  0  0
 37 36  1  0  0  0  0
 37 35  1  0  0  0  0
M  END
>  <MODEL>
9

>  <REMARK>
 VINA RESULT:      -6.7      2.899      6.639
  Name = 
  3 active torsions:
  status: ('A' for Active; 'I' for Inactive)
    1  A    between atoms: C_4  and  N_12
    2  A    between atoms: C_4  and  C_37
    3  A    between atoms: C_23  and  C_30
                            x       y       z     vdW  Elec       q    Type
                         _______ _______ _______ _____ _____    ______ ____

>  <TORSDO>
F 3

$$$$
