=
 OpenBabel11112417073D

 31 35  0  0  1  0  0  0  0  0999 V2000
  191.9260  170.4160  142.4030 C   0  0  2  0  0  3  0  0  0  0  0  0
  191.6480  173.0280  144.9060 C   0  0  2  0  0  3  0  0  0  0  0  0
  192.6780  174.0270  145.3950 C   0  0  0  0  0  0  0  0  0  0  0  0
  194.9910  174.6970  145.7150 C   0  0  0  0  0  0  0  0  0  0  0  0
  192.0720  172.3210  143.6100 C   0  0  1  0  0  3  0  0  0  0  0  0
  191.7010  171.1180  141.0640 C   0  0  0  0  0  2  0  0  0  0  0  0
  194.0510  173.7840  145.2320 C   0  0  0  0  0  3  0  0  0  0  0  0
  190.1210  174.5530  143.5400 C   0  0  2  0  0  3  0  0  0  0  0  0
  191.3810  169.1470  142.3520 F   0  0  0  0  0  0  0  0  0  0  0  0
  190.8990  175.4180  146.3090 O   0  0  0  0  0  0  0  0  0  0  0  0
  196.6990  174.3930  145.4890 Cl  0  0  0  0  0  0  0  0  0  0  0  0
  190.5010  173.7850  142.2770 C   0  0  0  0  0  2  0  0  0  0  0  0
  190.2370  173.6480  144.7760 C   0  0  2  0  0  3  0  0  0  0  0  0
  191.3090  171.1490  143.4320 O   0  0  0  0  0  0  0  0  0  0  0  0
  194.5680  175.8530  146.3770 C   0  0  0  0  0  3  0  0  0  0  0  0
  191.9280  173.2560  142.3910 C   0  0  2  0  0  3  0  0  0  0  0  0
  192.3310  172.5100  141.1180 C   0  0  0  0  0  2  0  0  0  0  0  0
  189.9090  174.4210  146.0540 C   0  0  0  0  0  2  0  0  0  0  0  0
  192.2590  175.1750  146.0960 C   0  0  0  0  0  0  0  0  0  0  0  0
  193.2050  176.0900  146.5680 C   0  0  0  0  0  3  0  0  0  0  0  0
  189.3310  177.2870  143.7580 O   0  0  0  0  0  0  0  0  0  0  0  0
  188.4320  176.4360  143.5210 C   0  0  0  0  0  0  0  0  0  0  0  0
  188.7570  175.0490  143.4120 N   0  0  0  0  0  2  0  0  0  0  0  0
  185.6050  179.4280  143.9560 C   0  0  2  0  0  3  0  0  0  0  0  0
  186.9340  178.0090  142.4530 N   0  0  0  0  0  2  0  0  0  0  0  0
  186.8940  176.4190  145.7900 O   0  0  0  0  0  1  0  0  0  0  0  0
  184.2180  179.6600  144.3200 N   0  0  0  0  0  1  0  0  0  0  0  0
  185.6620  178.7140  142.6000 C   0  0  0  0  0  2  0  0  0  0  0  0
  186.3190  177.1440  144.7430 C   0  0  2  0  0  3  0  0  0  0  0  0
  187.0050  176.8660  143.3790 C   0  0  2  0  0  3  0  0  0  0  0  0
  186.3070  178.6340  145.0650 C   0  0  0  0  0  2  0  0  0  0  0  0
  1  9  1  6  0  0  0
  1 14  1  0  0  0  0
  2  3  1  6  0  0  0
  3 19  1  0  0  0  0
  4 15  2  0  0  0  0
  5 14  1  6  0  0  0
  5  2  1  0  0  0  0
  6 17  1  0  0  0  0
  6  1  1  0  0  0  0
  7  3  2  0  0  0  0
  7  4  1  0  0  0  0
  8 23  1  6  0  0  0
  8 13  1  0  0  0  0
 11  4  1  0  0  0  0
 12 16  1  0  0  0  0
 12  8  1  0  0  0  0
 13  2  1  0  0  0  0
 13 18  1  1  0  0  0
 15 20  1  0  0  0  0
 16 17  1  6  0  0  0
 16  5  1  0  0  0  0
 18 10  1  0  0  0  0
 19 10  1  0  0  0  0
 19 20  2  0  0  0  0
 22 21  2  0  0  0  0
 23 22  1  0  0  0  0
 24 27  1  1  0  0  0
 24 31  1  0  0  0  0
 25 28  1  0  0  0  0
 25 30  1  0  0  0  0
 28 24  1  0  0  0  0
 29 31  1  0  0  0  0
 29 26  1  1  0  0  0
 30 22  1  1  0  0  0
 30 29  1  0  0  0  0
M  END
>  <MODEL>
1

>  <REMARK>
 VINA RESULT:      -7.7      0.000      0.000
  Name = 
  2 active torsions:
  status: ('A' for Active; 'I' for Inactive)
    1  A    between atoms: C_5  and  C_30
    2  A    between atoms: C_10  and  N_16
                            x       y       z     vdW  Elec       q    Type
                         _______ _______ _______ _____ _____    ______ ____

>  <TORSDO>
F 2

$$$$
=
 OpenBabel11112417073D

 31 35  0  0  1  0  0  0  0  0999 V2000
  188.2570  174.3820  140.4980 C   0  0  2  0  0  3  0  0  0  0  0  0
  189.3600  176.4090  143.2980 C   0  0  2  0  0  3  0  0  0  0  0  0
  188.6650  176.7310  144.6060 C   0  0  0  0  0  0  0  0  0  0  0  0
  186.6390  176.9500  145.9280 C   0  0  0  0  0  0  0  0  0  0  0  0
  188.6940  175.2530  142.5370 C   0  0  1  0  0  3  0  0  0  0  0  0
  188.5910  172.9430  140.8880 C   0  0  0  0  0  2  0  0  0  0  0  0
  187.2710  176.6200  144.7270 C   0  0  0  0  0  3  0  0  0  0  0  0
  191.1670  174.7960  144.1060 C   0  0  2  0  0  3  0  0  0  0  0  0
  188.4350  174.5410  139.1370 F   0  0  0  0  0  0  0  0  0  0  0  0
  190.7990  177.3850  145.5820 O   0  0  0  0  0  0  0  0  0  0  0  0
  184.9020  176.7900  146.0730 Cl  0  0  0  0  0  0  0  0  0  0  0  0
  190.5280  173.6820  143.2810 C   0  0  0  0  0  2  0  0  0  0  0  0
  190.8770  176.1670  143.4770 C   0  0  2  0  0  3  0  0  0  0  0  0
  189.1010  175.2690  141.1870 O   0  0  0  0  0  0  0  0  0  0  0  0
  187.3920  177.4050  147.0140 C   0  0  0  0  0  3  0  0  0  0  0  0
  189.0200  173.8930  143.1890 C   0  0  2  0  0  3  0  0  0  0  0  0
  188.3640  172.7670  142.3890 C   0  0  0  0  0  2  0  0  0  0  0  0
  191.4680  177.2950  144.3240 C   0  0  0  0  0  2  0  0  0  0  0  0
  189.4140  177.2260  145.6910 C   0  0  0  0  0  0  0  0  0  0  0  0
  188.7770  177.5440  146.8940 C   0  0  0  0  0  3  0  0  0  0  0  0
  192.6980  174.6910  146.5130 O   0  0  0  0  0  0  0  0  0  0  0  0
  193.3100  174.5240  145.4230 C   0  0  0  0  0  0  0  0  0  0  0  0
  192.6060  174.5760  144.1820 N   0  0  0  0  0  2  0  0  0  0  0  0
  196.6790  173.3830  143.3070 C   0  0  2  0  0  3  0  0  0  0  0  0
  195.4090  175.1750  144.4080 N   0  0  0  0  0  2  0  0  0  0  0  0
  194.1760  171.9370  145.7000 O   0  0  0  0  0  1  0  0  0  0  0  0
  197.9410  172.6770  143.4410 N   0  0  0  0  0  1  0  0  0  0  0  0
  196.7530  174.7080  144.0740 C   0  0  0  0  0  2  0  0  0  0  0  0
  195.1720  172.8030  145.2400 C   0  0  2  0  0  3  0  0  0  0  0  0
  194.7890  174.2970  145.4160 C   0  0  2  0  0  3  0  0  0  0  0  0
  195.5310  172.4890  143.7920 C   0  0  0  0  0  2  0  0  0  0  0  0
  1  9  1  6  0  0  0
  1  6  1  0  0  0  0
  1 14  1  0  0  0  0
  2 13  1  0  0  0  0
  2  3  1  1  0  0  0
  3  7  2  0  0  0  0
  3 19  1  0  0  0  0
  4 11  1  0  0  0  0
  4 15  2  0  0  0  0
  5 14  1  6  0  0  0
  5 16  1  0  0  0  0
  5  2  1  0  0  0  0
  6 17  1  0  0  0  0
  7  4  1  0  0  0  0
  8 23  1  6  0  0  0
 10 19  1  0  0  0  0
 12  8  1  0  0  0  0
 13  8  1  0  0  0  0
 13 18  1  1  0  0  0
 16 17  1  6  0  0  0
 16 12  1  0  0  0  0
 18 10  1  0  0  0  0
 19 20  2  0  0  0  0
 20 15  1  0  0  0  0
 22 21  2  0  0  0  0
 23 22  1  0  0  0  0
 24 27  1  1  0  0  0
 24 31  1  0  0  0  0
 24 28  1  0  0  0  0
 25 30  1  0  0  0  0
 28 25  1  0  0  0  0
 29 30  1  0  0  0  0
 29 26  1  6  0  0  0
 30 22  1  6  0  0  0
 31 29  1  0  0  0  0
M  END
>  <MODEL>
2

>  <REMARK>
 VINA RESULT:      -7.5      3.974      7.330
  Name = 
  2 active torsions:
  status: ('A' for Active; 'I' for Inactive)
    1  A    between atoms: C_5  and  C_30
    2  A    between atoms: C_10  and  N_16
                            x       y       z     vdW  Elec       q    Type
                         _______ _______ _______ _____ _____    ______ ____

>  <TORSDO>
F 2

$$$$
=
 OpenBabel11112417073D

 31 35  0  0  1  0  0  0  0  0999 V2000
  195.2260  176.1430  144.2740 C   0  0  2  0  0  3  0  0  0  0  0  0
  192.1190  174.9220  142.8530 C   0  0  2  0  0  3  0  0  0  0  0  0
  191.5850  173.5080  142.7360 C   0  0  0  0  0  0  0  0  0  0  0  0
  191.9530  171.1080  142.6500 C   0  0  0  0  0  0  0  0  0  0  0  0
  193.3120  175.0330  143.8130 C   0  0  1  0  0  3  0  0  0  0  0  0
  194.9660  176.2470  145.7760 C   0  0  0  0  0  2  0  0  0  0  0  0
  192.4520  172.4050  142.7900 C   0  0  0  0  0  3  0  0  0  0  0  0
  190.5990  175.8520  144.6830 C   0  0  2  0  0  3  0  0  0  0  0  0
  196.0610  177.1700  143.8800 F   0  0  0  0  0  0  0  0  0  0  0  0
  189.3380  174.3810  142.3880 O   0  0  0  0  0  0  0  0  0  0  0  0
  193.0400  169.7400  142.7370 Cl  0  0  0  0  0  0  0  0  0  0  0  0
  191.8140  176.0220  145.5910 C   0  0  0  0  0  2  0  0  0  0  0  0
  191.0130  175.9450  143.2060 C   0  0  2  0  0  3  0  0  0  0  0  0
  194.0100  176.2340  143.5740 O   0  0  0  0  0  0  0  0  0  0  0  0
  190.5860  170.9030  142.4410 C   0  0  0  0  0  3  0  0  0  0  0  0
  192.8550  174.9500  145.2840 C   0  0  2  0  0  3  0  0  0  0  0  0
  194.0650  175.0910  146.2090 C   0  0  0  0  0  2  0  0  0  0  0  0
  189.8120  175.7240  142.2860 C   0  0  0  0  0  2  0  0  0  0  0  0
  190.2140  173.2970  142.4880 C   0  0  0  0  0  0  0  0  0  0  0  0
  189.7190  171.9960  142.3590 C   0  0  0  0  0  3  0  0  0  0  0  0
  188.2470  175.4770  146.2560 O   0  0  0  0  0  0  0  0  0  0  0  0
  188.4650  176.6300  145.7960 C   0  0  0  0  0  0  0  0  0  0  0  0
  189.6170  176.8830  144.9910 N   0  0  0  0  0  2  0  0  0  0  0  0
  184.5430  177.8170  146.3820 C   0  0  2  0  0  3  0  0  0  0  0  0
  186.7860  177.4710  147.3240 N   0  0  0  0  0  2  0  0  0  0  0  0
  187.1040  177.6480  143.6440 O   0  0  0  0  0  1  0  0  0  0  0  0
  183.6120  178.8980  146.1080 N   0  0  0  0  0  1  0  0  0  0  0  0
  185.5750  178.2840  147.4160 C   0  0  0  0  0  2  0  0  0  0  0  0
  186.5480  178.0210  144.8720 C   0  0  2  0  0  3  0  0  0  0  0  0
  187.5010  177.7430  146.0650 C   0  0  2  0  0  3  0  0  0  0  0  0
  185.1940  177.3500  145.0750 C   0  0  0  0  0  2  0  0  0  0  0  0
  1  9  1  6  0  0  0
  1  6  1  0  0  0  0
  2  3  1  1  0  0  0
  2 13  1  0  0  0  0
  2  5  1  0  0  0  0
  3  7  1  0  0  0  0
  4 11  1  0  0  0  0
  4  7  2  0  0  0  0
  5 14  1  1  0  0  0
  5 16  1  0  0  0  0
  6 17  1  0  0  0  0
  8 23  1  1  0  0  0
  8 12  1  0  0  0  0
 10 19  1  0  0  0  0
 13 18  1  6  0  0  0
 13  8  1  0  0  0  0
 14  1  1  0  0  0  0
 15  4  1  0  0  0  0
 16 12  1  1  0  0  0
 16 17  1  0  0  0  0
 18 10  1  0  0  0  0
 19  3  2  0  0  0  0
 20 15  2  0  0  0  0
 20 19  1  0  0  0  0
 22 21  2  0  0  0  0
 23 22  1  0  0  0  0
 24 27  1  6  0  0  0
 24 28  1  0  0  0  0
 25 28  1  0  0  0  0
 29 26  1  6  0  0  0
 29 31  1  0  0  0  0
 29 30  1  0  0  0  0
 30 22  1  6  0  0  0
 30 25  1  0  0  0  0
 31 24  1  0  0  0  0
M  END
>  <MODEL>
3

>  <REMARK>
 VINA RESULT:      -7.4      2.853      4.666
  Name = 
  2 active torsions:
  status: ('A' for Active; 'I' for Inactive)
    1  A    between atoms: C_5  and  C_30
    2  A    between atoms: C_10  and  N_16
                            x       y       z     vdW  Elec       q    Type
                         _______ _______ _______ _____ _____    ______ ____

>  <TORSDO>
F 2

$$$$
=
 OpenBabel11112417073D

 31 35  0  0  1  0  0  0  0  0999 V2000
  190.9050  171.2020  141.8570 C   0  0  2  0  0  3  0  0  0  0  0  0
  192.4200  173.5770  144.1440 C   0  0  2  0  0  3  0  0  0  0  0  0
  193.6680  174.4230  143.9900 C   0  0  0  0  0  0  0  0  0  0  0  0
  195.8290  174.8400  142.9620 C   0  0  0  0  0  0  0  0  0  0  0  0
  191.9500  172.9600  142.8190 C   0  0  1  0  0  3  0  0  0  0  0  0
  190.0660  172.0470  140.9000 C   0  0  0  0  0  2  0  0  0  0  0  0
  194.6690  174.0700  143.0720 C   0  0  0  0  0  3  0  0  0  0  0  0
  190.6070  175.3620  143.9230 C   0  0  2  0  0  3  0  0  0  0  0  0
  190.2640  170.0010  142.0910 F   0  0  0  0  0  0  0  0  0  0  0  0
  192.9050  175.8820  145.7860 O   0  0  0  0  0  0  0  0  0  0  0  0
  197.0610  174.4000  141.8000 Cl  0  0  0  0  0  0  0  0  0  0  0  0
  190.1110  174.6860  142.6480 C   0  0  0  0  0  2  0  0  0  0  0  0
  191.2740  174.3360  144.8530 C   0  0  2  0  0  3  0  0  0  0  0  0
  191.0720  171.8880  143.0730 O   0  0  0  0  0  0  0  0  0  0  0  0
  196.0050  175.9620  143.7760 C   0  0  0  0  0  3  0  0  0  0  0  0
  191.2740  174.0170  141.9200 C   0  0  2  0  0  3  0  0  0  0  0  0
  190.7950  173.3620  140.6240 C   0  0  0  0  0  2  0  0  0  0  0  0
  191.8200  175.0110  146.1110 C   0  0  0  0  0  2  0  0  0  0  0  0
  193.8680  175.5340  144.8350 C   0  0  0  0  0  0  0  0  0  0  0  0
  195.0260  176.3070  144.7120 C   0  0  0  0  0  3  0  0  0  0  0  0
  190.2980  178.1690  144.3440 O   0  0  0  0  0  0  0  0  0  0  0  0
  189.3860  177.4100  144.7690 C   0  0  0  0  0  0  0  0  0  0  0  0
  189.4840  175.9950  144.6030 N   0  0  0  0  0  2  0  0  0  0  0  0
  185.5790  176.8240  146.2860 C   0  0  2  0  0  3  0  0  0  0  0  0
  187.9650  177.2190  146.7200 N   0  0  0  0  0  2  0  0  0  0  0  0
  187.2610  178.1940  143.2240 O   0  0  0  0  0  1  0  0  0  0  0  0
  184.2970  177.4820  146.4690 N   0  0  0  0  0  1  0  0  0  0  0  0
  186.6140  177.4570  147.2240 C   0  0  0  0  0  2  0  0  0  0  0  0
  186.9410  178.0810  144.5800 C   0  0  2  0  0  3  0  0  0  0  0  0
  188.2000  177.9820  145.4820 C   0  0  2  0  0  3  0  0  0  0  0  0
  185.9970  176.9060  144.8130 C   0  0  0  0  0  2  0  0  0  0  0  0
  1  9  1  1  0  0  0
  1 14  1  0  0  0  0
  2  3  1  6  0  0  0
  2 13  1  0  0  0  0
  3 19  1  0  0  0  0
  4  7  1  0  0  0  0
  4 15  2  0  0  0  0
  5 14  1  1  0  0  0
  5  2  1  0  0  0  0
  6  1  1  0  0  0  0
  7  3  2  0  0  0  0
  8 23  1  1  0  0  0
  8 13  1  0  0  0  0
 10 18  1  0  0  0  0
 11  4  1  0  0  0  0
 12  8  1  0  0  0  0
 13 18  1  1  0  0  0
 15 20  1  0  0  0  0
 16 17  1  6  0  0  0
 16 12  1  0  0  0  0
 16  5  1  0  0  0  0
 17  6  1  0  0  0  0
 19 10  1  0  0  0  0
 20 19  2  0  0  0  0
 21 22  2  0  0  0  0
 23 22  1  0  0  0  0
 24 27  1  6  0  0  0
 24 28  1  0  0  0  0
 25 28  1  0  0  0  0
 29 26  1  6  0  0  0
 29 31  1  0  0  0  0
 29 30  1  0  0  0  0
 30 22  1  6  0  0  0
 30 25  1  0  0  0  0
 31 24  1  0  0  0  0
M  END
>  <MODEL>
4

>  <REMARK>
 VINA RESULT:      -7.4      1.940      2.362
  Name = 
  2 active torsions:
  status: ('A' for Active; 'I' for Inactive)
    1  A    between atoms: C_5  and  C_30
    2  A    between atoms: C_10  and  N_16
                            x       y       z     vdW  Elec       q    Type
                         _______ _______ _______ _____ _____    ______ ____

>  <TORSDO>
F 2

$$$$
=
 OpenBabel11112417073D

 31 35  0  0  1  0  0  0  0  0999 V2000
  190.3660  170.8360  138.9760 C   0  0  2  0  0  3  0  0  0  0  0  0
  191.2670  173.2060  141.5720 C   0  0  2  0  0  3  0  0  0  0  0  0
  192.3200  174.2960  141.5780 C   0  0  0  0  0  0  0  0  0  0  0  0
  194.3900  175.2440  140.7300 C   0  0  0  0  0  0  0  0  0  0  0  0
  190.9880  172.6540  140.1660 C   0  0  1  0  0  3  0  0  0  0  0  0
  189.4120  171.5940  138.0550 C   0  0  0  0  0  2  0  0  0  0  0  0
  193.4090  174.2500  140.6930 C   0  0  0  0  0  3  0  0  0  0  0  0
  189.1370  174.6070  141.4130 C   0  0  2  0  0  3  0  0  0  0  0  0
  189.9760  169.5130  139.0520 F   0  0  0  0  0  0  0  0  0  0  0  0
  191.2020  175.3720  143.4560 O   0  0  0  0  0  0  0  0  0  0  0  0
  195.7330  175.1860  139.6100 Cl  0  0  0  0  0  0  0  0  0  0  0  0
  188.8430  173.9870  140.0490 C   0  0  0  0  0  2  0  0  0  0  0  0
  189.9620  173.6410  142.2780 C   0  0  2  0  0  3  0  0  0  0  0  0
  190.3390  171.4070  140.2600 O   0  0  0  0  0  0  0  0  0  0  0  0
  194.2990  176.2840  141.6580 C   0  0  0  0  0  3  0  0  0  0  0  0
  190.1470  173.6450  139.3330 C   0  0  2  0  0  3  0  0  0  0  0  0
  189.8660  173.0500  137.9530 C   0  0  0  0  0  2  0  0  0  0  0  0
  190.3060  174.2730  143.6270 C   0  0  0  0  0  2  0  0  0  0  0  0
  192.2540  175.3270  142.5370 C   0  0  0  0  0  0  0  0  0  0  0  0
  193.2330  176.3240  142.5610 C   0  0  0  0  0  3  0  0  0  0  0  0
  188.1850  177.2390  141.9710 O   0  0  0  0  0  0  0  0  0  0  0  0
  187.4590  176.2690  142.3180 C   0  0  0  0  0  0  0  0  0  0  0  0
  187.8810  174.9260  142.0800 N   0  0  0  0  0  2  0  0  0  0  0  0
  184.9220  178.9540  144.1850 C   0  0  2  0  0  3  0  0  0  0  0  0
  185.3810  177.5090  142.2510 N   0  0  0  0  0  2  0  0  0  0  0  0
  187.5050  176.3760  145.0580 O   0  0  0  0  0  1  0  0  0  0  0  0
  183.9700  179.0750  145.2760 N   0  0  0  0  0  1  0  0  0  0  0  0
  184.3200  178.0800  143.0790 C   0  0  0  0  0  2  0  0  0  0  0  0
  186.3270  176.8890  144.5080 C   0  0  2  0  0  3  0  0  0  0  0  0
  186.1550  176.5130  143.0120 C   0  0  2  0  0  3  0  0  0  0  0  0
  186.2490  178.3980  144.7140 C   0  0  0  0  0  2  0  0  0  0  0  0
  1  9  1  1  0  0  0
  1 14  1  0  0  0  0
  2  3  1  6  0  0  0
  2 13  1  0  0  0  0
  3 19  1  0  0  0  0
  4 15  2  0  0  0  0
  5 14  1  1  0  0  0
  5  2  1  0  0  0  0
  6  1  1  0  0  0  0
  7  4  1  0  0  0  0
  7  3  2  0  0  0  0
  8 23  1  1  0  0  0
  8 13  1  0  0  0  0
 10 18  1  0  0  0  0
 11  4  1  0  0  0  0
 12  8  1  0  0  0  0
 13 18  1  1  0  0  0
 15 20  1  0  0  0  0
 16 17  1  6  0  0  0
 16 12  1  0  0  0  0
 16  5  1  0  0  0  0
 17  6  1  0  0  0  0
 19 20  2  0  0  0  0
 19 10  1  0  0  0  0
 21 22  2  0  0  0  0
 23 22  1  0  0  0  0
 24 31  1  0  0  0  0
 24 27  1  1  0  0  0
 25 30  1  0  0  0  0
 25 28  1  0  0  0  0
 28 24  1  0  0  0  0
 29 31  1  0  0  0  0
 29 26  1  6  0  0  0
 30 22  1  6  0  0  0
 30 29  1  0  0  0  0
M  END
>  <MODEL>
5

>  <REMARK>
 VINA RESULT:      -7.2      2.555      3.153
  Name = 
  2 active torsions:
  status: ('A' for Active; 'I' for Inactive)
    1  A    between atoms: C_5  and  C_30
    2  A    between atoms: C_10  and  N_16
                            x       y       z     vdW  Elec       q    Type
                         _______ _______ _______ _____ _____    ______ ____

>  <TORSDO>
F 2

$$$$
=
 OpenBabel11112417073D

 31 35  0  0  1  0  0  0  0  0999 V2000
  187.0660  176.8710  140.0420 C   0  0  2  0  0  3  0  0  0  0  0  0
  188.5690  177.7460  143.2260 C   0  0  2  0  0  3  0  0  0  0  0  0
  188.0720  177.5130  144.6390 C   0  0  0  0  0  0  0  0  0  0  0  0
  186.2610  177.1060  146.2060 C   0  0  0  0  0  0  0  0  0  0  0  0
  187.7970  176.9300  142.1800 C   0  0  1  0  0  3  0  0  0  0  0  0
  187.4510  175.4110  139.8050 C   0  0  0  0  0  2  0  0  0  0  0  0
  186.7110  177.2890  144.8960 C   0  0  0  0  0  3  0  0  0  0  0  0
  190.4720  176.0470  143.1060 C   0  0  2  0  0  3  0  0  0  0  0  0
  187.0450  177.5410  138.8350 F   0  0  0  0  0  0  0  0  0  0  0  0
  190.3270  177.8630  145.4940 O   0  0  0  0  0  0  0  0  0  0  0  0
  184.5640  176.8100  146.5120 Cl  0  0  0  0  0  0  0  0  0  0  0  0
  189.7170  175.2950  142.0130 C   0  0  0  0  0  2  0  0  0  0  0  0
  190.0960  177.5370  143.0930 C   0  0  2  0  0  3  0  0  0  0  0  0
  188.0040  177.4760  140.8970 O   0  0  0  0  0  0  0  0  0  0  0  0
  187.1640  177.1580  147.2710 C   0  0  0  0  0  3  0  0  0  0  0  0
  188.2120  175.4430  142.2140 C   0  0  2  0  0  3  0  0  0  0  0  0
  187.4450  174.6690  141.1410 C   0  0  0  0  0  2  0  0  0  0  0  0
  190.8060  178.2910  144.2180 C   0  0  0  0  0  2  0  0  0  0  0  0
  188.9730  177.6010  145.7200 C   0  0  0  0  0  0  0  0  0  0  0  0
  188.5180  177.4060  147.0270 C   0  0  0  0  0  3  0  0  0  0  0  0
  192.2340  174.5480  144.7780 O   0  0  0  0  0  0  0  0  0  0  0  0
  192.7290  175.1170  143.7680 C   0  0  0  0  0  0  0  0  0  0  0  0
  191.9060  175.8930  142.8970 N   0  0  0  0  0  2  0  0  0  0  0  0
  196.4570  173.8080  145.0020 C   0  0  2  0  0  3  0  0  0  0  0  0
  194.5760  173.5880  143.4360 N   0  0  0  0  0  2  0  0  0  0  0  0
  194.3730  176.9280  145.0080 O   0  0  0  0  0  1  0  0  0  0  0  0
  197.8650  174.1660  144.9970 N   0  0  0  0  0  1  0  0  0  0  0  0
  196.0230  173.4350  143.5790 C   0  0  0  0  0  2  0  0  0  0  0  0
  195.0630  175.8380  144.4720 C   0  0  2  0  0  3  0  0  0  0  0  0
  194.1950  175.0100  143.4870 C   0  0  2  0  0  3  0  0  0  0  0  0
  195.6310  174.9610  145.5830 C   0  0  0  0  0  2  0  0  0  0  0  0
  1  9  1  6  0  0  0
  1 14  1  0  0  0  0
  2  3  1  1  0  0  0
  3  7  2  0  0  0  0
  3 19  1  0  0  0  0
  4 11  1  0  0  0  0
  4 15  2  0  0  0  0
  5 14  1  6  0  0  0
  5 16  1  0  0  0  0
  5  2  1  0  0  0  0
  6  1  1  0  0  0  0
  6 17  1  0  0  0  0
  7  4  1  0  0  0  0
  8 23  1  6  0  0  0
 10 19  1  0  0  0  0
 12 16  1  0  0  0  0
 12  8  1  0  0  0  0
 13  8  1  0  0  0  0
 13  2  1  0  0  0  0
 13 18  1  1  0  0  0
 16 17  1  6  0  0  0
 18 10  1  0  0  0  0
 19 20  2  0  0  0  0
 20 15  1  0  0  0  0
 22 21  2  0  0  0  0
 23 22  1  0  0  0  0
 24 27  1  6  0  0  0
 24 31  1  0  0  0  0
 25 30  1  0  0  0  0
 25 28  1  0  0  0  0
 28 24  1  0  0  0  0
 29 26  1  1  0  0  0
 29 31  1  0  0  0  0
 30 22  1  1  0  0  0
 30 29  1  0  0  0  0
M  END
>  <MODEL>
6

>  <REMARK>
 VINA RESULT:      -7.0      4.254      7.614
  Name = 
  2 active torsions:
  status: ('A' for Active; 'I' for Inactive)
    1  A    between atoms: C_5  and  C_30
    2  A    between atoms: C_10  and  N_16
                            x       y       z     vdW  Elec       q    Type
                         _______ _______ _______ _____ _____    ______ ____

>  <TORSDO>
F 2

$$$$
=
 OpenBabel11112417073D

 31 35  0  0  1  0  0  0  0  0999 V2000
  195.9220  176.6430  144.1160 C   0  0  2  0  0  3  0  0  0  0  0  0
  193.1450  174.6470  142.9030 C   0  0  2  0  0  3  0  0  0  0  0  0
  192.6900  173.2580  143.3040 C   0  0  0  0  0  0  0  0  0  0  0  0
  193.1510  171.0750  144.2650 C   0  0  0  0  0  0  0  0  0  0  0  0
  194.1540  175.2530  143.8890 C   0  0  1  0  0  3  0  0  0  0  0  0
  195.4080  177.3130  145.3890 C   0  0  0  0  0  2  0  0  0  0  0  0
  193.5730  172.3630  143.9280 C   0  0  0  0  0  3  0  0  0  0  0  0
  191.3060  176.0720  143.9560 C   0  0  2  0  0  3  0  0  0  0  0  0
  196.7740  177.5060  143.4560 F   0  0  0  0  0  0  0  0  0  0  0  0
  190.5040  173.6850  142.3170 O   0  0  0  0  0  0  0  0  0  0  0  0
  194.2560  169.9740  145.0590 Cl  0  0  0  0  0  0  0  0  0  0  0  0
  192.3420  176.7130  144.8740 C   0  0  0  0  0  2  0  0  0  0  0  0
  191.9600  175.6070  142.6450 C   0  0  2  0  0  3  0  0  0  0  0  0
  194.8400  176.3230  143.2780 O   0  0  0  0  0  0  0  0  0  0  0  0
  191.8480  170.6660  143.9700 C   0  0  0  0  0  3  0  0  0  0  0  0
  193.4580  175.7200  145.1850 C   0  0  2  0  0  3  0  0  0  0  0  0
  194.4880  176.3420  146.1290 C   0  0  0  0  0  2  0  0  0  0  0  0
  190.9410  174.9160  141.7390 C   0  0  0  0  0  2  0  0  0  0  0  0
  191.3890  172.8270  142.9760 C   0  0  0  0  0  0  0  0  0  0  0  0
  190.9690  171.5400  143.3260 C   0  0  0  0  0  3  0  0  0  0  0  0
  188.5570  175.7660  144.6630 O   0  0  0  0  0  0  0  0  0  0  0  0
  188.8930  176.8240  144.0650 C   0  0  0  0  0  0  0  0  0  0  0  0
  190.2490  177.0350  143.6720 N   0  0  0  0  0  2  0  0  0  0  0  0
  184.9040  177.9320  144.0230 C   0  0  2  0  0  3  0  0  0  0  0  0
  187.1530  178.2470  144.9630 N   0  0  0  0  0  2  0  0  0  0  0  0
  187.5010  176.4970  141.7250 O   0  0  0  0  0  1  0  0  0  0  0  0
  183.9180  178.6600  143.2440 N   0  0  0  0  0  1  0  0  0  0  0  0
  185.8970  178.9230  144.6410 C   0  0  0  0  0  2  0  0  0  0  0  0
  186.9120  177.4250  142.5880 C   0  0  2  0  0  3  0  0  0  0  0  0
  187.8660  177.8610  143.7330 C   0  0  2  0  0  3  0  0  0  0  0  0
  185.5950  176.8870  143.1380 C   0  0  0  0  0  2  0  0  0  0  0  0
  1  9  1  6  0  0  0
  1  6  1  0  0  0  0
  2  3  1  1  0  0  0
  2  5  1  0  0  0  0
  3  7  1  0  0  0  0
  4 11  1  0  0  0  0
  5 14  1  6  0  0  0
  5 16  1  0  0  0  0
  6 17  1  0  0  0  0
  7  4  2  0  0  0  0
  8 23  1  6  0  0  0
  8 12  1  0  0  0  0
 10 19  1  0  0  0  0
 13 18  1  6  0  0  0
 13  2  1  0  0  0  0
 13  8  1  0  0  0  0
 14  1  1  0  0  0  0
 15  4  1  0  0  0  0
 16 12  1  6  0  0  0
 16 17  1  0  0  0  0
 18 10  1  0  0  0  0
 19  3  2  0  0  0  0
 19 20  1  0  0  0  0
 20 15  2  0  0  0  0
 22 21  2  0  0  0  0
 23 22  1  0  0  0  0
 24 27  1  6  0  0  0
 24 28  1  0  0  0  0
 28 25  1  0  0  0  0
 29 26  1  1  0  0  0
 29 31  1  0  0  0  0
 29 30  1  0  0  0  0
 30 22  1  1  0  0  0
 30 25  1  0  0  0  0
 31 24  1  0  0  0  0
M  END
>  <MODEL>
7

>  <REMARK>
 VINA RESULT:      -7.0      2.800      4.495
  Name = 
  2 active torsions:
  status: ('A' for Active; 'I' for Inactive)
    1  A    between atoms: C_5  and  C_30
    2  A    between atoms: C_10  and  N_16
                            x       y       z     vdW  Elec       q    Type
                         _______ _______ _______ _____ _____    ______ ____

>  <TORSDO>
F 2

$$$$
=
 OpenBabel11112417073D

 31 35  0  0  1  0  0  0  0  0999 V2000
  185.4380  177.1500  146.9760 C   0  0  2  0  0  3  0  0  0  0  0  0
  186.7270  176.1350  143.7400 C   0  0  2  0  0  3  0  0  0  0  0  0
  186.4500  176.6930  142.3580 C   0  0  0  0  0  0  0  0  0  0  0  0
  185.0280  177.9190  140.8160 C   0  0  0  0  0  0  0  0  0  0  0  0
  186.2400  177.0600  144.8650 C   0  0  1  0  0  3  0  0  0  0  0  0
  186.3170  178.3230  147.4070 C   0  0  0  0  0  2  0  0  0  0  0  0
  185.2870  177.4370  142.1010 C   0  0  0  0  0  3  0  0  0  0  0  0
  189.1090  176.9740  144.1200 C   0  0  2  0  0  3  0  0  0  0  0  0
  185.0880  176.4070  148.0860 F   0  0  0  0  0  0  0  0  0  0  0  0
  188.4690  175.6210  141.5160 O   0  0  0  0  0  0  0  0  0  0  0  0
  183.5850  178.8610  140.5130 Cl  0  0  0  0  0  0  0  0  0  0  0  0
  188.6120  177.8270  145.2840 C   0  0  0  0  0  2  0  0  0  0  0  0
  188.2100  175.7420  143.9330 C   0  0  2  0  0  3  0  0  0  0  0  0
  186.1430  176.3370  146.0710 O   0  0  0  0  0  0  0  0  0  0  0  0
  185.9200  177.6520  139.7740 C   0  0  0  0  0  3  0  0  0  0  0  0
  187.1750  178.2760  145.0320 C   0  0  2  0  0  3  0  0  0  0  0  0
  186.6760  179.1570  146.1780 C   0  0  0  0  0  2  0  0  0  0  0  0
  188.6680  174.9070  142.7360 C   0  0  0  0  0  2  0  0  0  0  0  0
  187.3260  176.3950  141.2950 C   0  0  0  0  0  0  0  0  0  0  0  0
  187.0660  176.8900  140.0140 C   0  0  0  0  0  3  0  0  0  0  0  0
  191.4160  178.6390  143.8880 O   0  0  0  0  0  0  0  0  0  0  0  0
  191.5910  177.4450  144.2550 C   0  0  0  0  0  0  0  0  0  0  0  0
  190.4810  176.5550  144.3790 N   0  0  0  0  0  2  0  0  0  0  0  0
  194.0720  174.1990  144.9150 C   0  0  2  0  0  3  0  0  0  0  0  0
  193.3900  176.0440  143.4430 N   0  0  0  0  0  2  0  0  0  0  0  0
  192.1720  176.7900  146.8530 O   0  0  0  0  0  1  0  0  0  0  0  0
  195.2250  173.7660  145.6860 N   0  0  0  0  0  1  0  0  0  0  0  0
  194.5200  175.2150  143.8580 C   0  0  0  0  0  2  0  0  0  0  0  0
  193.1010  176.2860  145.9390 C   0  0  2  0  0  3  0  0  0  0  0  0
  192.9700  176.9370  144.5360 C   0  0  2  0  0  3  0  0  0  0  0  0
  193.0030  174.7660  145.8560 C   0  0  0  0  0  2  0  0  0  0  0  0
  1  6  1  0  0  0  0
  1  9  1  1  0  0  0
  2  3  1  6  0  0  0
  2 13  1  0  0  0  0
  2  5  1  0  0  0  0
  4  7  2  0  0  0  0
  5 16  1  0  0  0  0
  5 14  1  1  0  0  0
  7  3  1  0  0  0  0
  8 23  1  1  0  0  0
  8 12  1  0  0  0  0
 10 18  1  0  0  0  0
 11  4  1  0  0  0  0
 13 18  1  6  0  0  0
 13  8  1  0  0  0  0
 14  1  1  0  0  0  0
 15 20  2  0  0  0  0
 15  4  1  0  0  0  0
 16 12  1  1  0  0  0
 16 17  1  0  0  0  0
 17  6  1  0  0  0  0
 19 10  1  0  0  0  0
 19  3  2  0  0  0  0
 20 19  1  0  0  0  0
 21 22  2  0  0  0  0
 22 23  1  0  0  0  0
 24 27  1  1  0  0  0
 24 31  1  0  0  0  0
 25 28  1  0  0  0  0
 25 30  1  0  0  0  0
 28 24  1  0  0  0  0
 29 26  1  1  0  0  0
 30 22  1  6  0  0  0
 30 29  1  0  0  0  0
 31 29  1  0  0  0  0
M  END
>  <MODEL>
8

>  <REMARK>
 VINA RESULT:      -7.0      4.388      8.239
  Name = 
  2 active torsions:
  status: ('A' for Active; 'I' for Inactive)
    1  A    between atoms: C_5  and  C_30
    2  A    between atoms: C_10  and  N_16
                            x       y       z     vdW  Elec       q    Type
                         _______ _______ _______ _____ _____    ______ ____

>  <TORSDO>
F 2

$$$$
=
 OpenBabel11112417073D

 31 35  0  0  1  0  0  0  0  0999 V2000
  188.7420  175.2850  147.2630 C   0  0  2  0  0  3  0  0  0  0  0  0
  187.9760  175.6120  143.7310 C   0  0  2  0  0  3  0  0  0  0  0  0
  187.0840  176.6030  143.0120 C   0  0  0  0  0  0  0  0  0  0  0  0
  185.2330  178.1770  143.0180 C   0  0  0  0  0  0  0  0  0  0  0  0
  188.2840  176.0260  145.1780 C   0  0  1  0  0  3  0  0  0  0  0  0
  189.8590  176.2940  147.5260 C   0  0  0  0  0  2  0  0  0  0  0  0
  186.0690  177.2890  143.6980 C   0  0  0  0  0  3  0  0  0  0  0  0
  190.2830  176.4550  143.0290 C   0  0  2  0  0  3  0  0  0  0  0  0
  188.9410  174.1660  148.0470 F   0  0  0  0  0  0  0  0  0  0  0  0
  188.1910  176.0790  140.9070 O   0  0  0  0  0  0  0  0  0  0  0  0
  183.9840  179.0410  143.8880 Cl  0  0  0  0  0  0  0  0  0  0  0  0
  190.5930  176.7880  144.4860 C   0  0  0  0  0  2  0  0  0  0  0  0
  189.2710  175.3010  142.9440 C   0  0  2  0  0  3  0  0  0  0  0  0
  188.7480  174.9130  145.9070 O   0  0  0  0  0  0  0  0  0  0  0  0
  185.3940  178.3780  141.6440 C   0  0  0  0  0  3  0  0  0  0  0  0
  189.3130  177.1760  145.2220 C   0  0  2  0  0  3  0  0  0  0  0  0
  189.6160  177.5410  146.6760 C   0  0  0  0  0  2  0  0  0  0  0  0
  188.9130  174.9930  141.4900 C   0  0  0  0  0  2  0  0  0  0  0  0
  187.2170  176.7810  141.6200 C   0  0  0  0  0  0  0  0  0  0  0  0
  186.3830  177.6800  140.9470 C   0  0  0  0  0  3  0  0  0  0  0  0
  192.1080  174.4310  143.8820 O   0  0  0  0  0  0  0  0  0  0  0  0
  192.3800  175.0550  142.8200 C   0  0  0  0  0  0  0  0  0  0  0  0
  191.5150  176.0880  142.3440 N   0  0  0  0  0  2  0  0  0  0  0  0
  195.9780  173.0140  142.6680 C   0  0  2  0  0  3  0  0  0  0  0  0
  193.6910  173.2890  141.8100 N   0  0  0  0  0  2  0  0  0  0  0  0
  194.6500  176.4160  143.5350 O   0  0  0  0  0  1  0  0  0  0  0  0
  197.3520  173.1330  142.2130 N   0  0  0  0  0  1  0  0  0  0  0  0
  195.0500  172.8840  141.4540 C   0  0  0  0  0  2  0  0  0  0  0  0
  194.9090  175.2950  142.7420 C   0  0  2  0  0  3  0  0  0  0  0  0
  193.6300  174.7390  142.0600 C   0  0  2  0  0  3  0  0  0  0  0  0
  195.6190  174.2150  143.5520 C   0  0  0  0  0  2  0  0  0  0  0  0
  1  6  1  0  0  0  0
  1  9  1  1  0  0  0
  2  3  1  6  0  0  0
  2  5  1  0  0  0  0
  3  7  1  0  0  0  0
  4  7  2  0  0  0  0
  4 11  1  0  0  0  0
  5 16  1  0  0  0  0
  5 14  1  1  0  0  0
  8 23  1  6  0  0  0
  8 12  1  0  0  0  0
 10 18  1  0  0  0  0
 10 19  1  0  0  0  0
 13 18  1  6  0  0  0
 13  8  1  0  0  0  0
 13  2  1  0  0  0  0
 14  1  1  0  0  0  0
 15  4  1  0  0  0  0
 16 12  1  1  0  0  0
 16 17  1  0  0  0  0
 17  6  1  0  0  0  0
 19  3  2  0  0  0  0
 20 19  1  0  0  0  0
 20 15  2  0  0  0  0
 22 21  2  0  0  0  0
 23 22  1  0  0  0  0
 24 27  1  6  0  0  0
 24 31  1  0  0  0  0
 25 30  1  0  0  0  0
 28 25  1  0  0  0  0
 28 24  1  0  0  0  0
 29 26  1  1  0  0  0
 29 31  1  0  0  0  0
 30 29  1  0  0  0  0
 30 22  1  1  0  0  0
M  END
>  <MODEL>
9

>  <REMARK>
 VINA RESULT:      -6.9      4.104      8.081
  Name = 
  2 active torsions:
  status: ('A' for Active; 'I' for Inactive)
    1  A    between atoms: C_5  and  C_30
    2  A    between atoms: C_10  and  N_16
                            x       y       z     vdW  Elec       q    Type
                         _______ _______ _______ _____ _____    ______ ____

>  <TORSDO>
F 2

$$$$
