=
 OpenBabel11112416473D

 31 35  0  0  1  0  0  0  0  0999 V2000
  184.5110  178.3220  146.2080 C   0  0  0  0  0  0  0  0  0  0  0  0
  186.9080  176.3720  143.9200 C   0  0  2  0  0  3  0  0  0  0  0  0
  186.5850  176.8880  142.5200 C   0  0  0  0  0  0  0  0  0  0  0  0
  185.0930  177.9390  140.9070 C   0  0  0  0  0  0  0  0  0  0  0  0
  186.2960  177.0730  145.1220 C   0  0  0  0  0  0  0  0  0  0  0  0
  185.0980  178.0910  147.4530 C   0  0  0  0  0  3  0  0  0  0  0  0
  185.3810  177.5400  142.2150 C   0  0  0  0  0  3  0  0  0  0  0  0
  188.8010  175.7120  145.4840 C   0  0  0  0  0  0  0  0  0  0  0  0
  183.3390  179.0600  146.1180 O   0  0  0  0  0  1  0  0  0  0  0  0
  188.6520  175.8670  141.7130 O   0  0  0  0  0  0  0  0  0  0  0  0
  183.9060  178.6030  140.6300 O   0  0  0  0  0  1  0  0  0  0  0  0
  188.0710  176.0590  146.5020 N   0  0  0  0  0  0  0  0  0  0  0  0
  188.4320  176.1980  144.0920 C   0  0  1  0  0  3  0  0  0  0  0  0
  190.0380  175.0360  145.7490 N   0  0  0  0  0  2  0  0  0  0  0  0
  185.0990  177.8020  145.0530 C   0  0  0  0  0  3  0  0  0  0  0  0
  185.9970  177.6670  139.8790 C   0  0  0  0  0  3  0  0  0  0  0  0
  186.8690  176.8290  146.3860 C   0  0  0  0  0  0  0  0  0  0  0  0
  186.2720  177.3420  147.5420 C   0  0  0  0  0  3  0  0  0  0  0  0
  188.9130  175.2700  142.9800 C   0  0  0  0  0  2  0  0  0  0  0  0
  187.4710  176.5760  141.4630 C   0  0  0  0  0  0  0  0  0  0  0  0
  187.1830  176.9830  140.1570 C   0  0  0  0  0  3  0  0  0  0  0  0
  192.0580  176.2140  145.1180 C   0  0  0  0  0  1  0  0  0  0  0  0
  191.1750  175.0070  144.8380 C   0  0  1  0  0  3  0  0  0  0  0  0
  192.1210  173.2150  142.2040 C   0  0  0  0  0  0  0  0  0  0  0  0
  193.3070  173.7740  144.2490 C   0  0  0  0  0  2  0  0  0  0  0  0
  189.9780  172.2940  145.0060 F   0  0  0  0  0  0  0  0  0  0  0  0
  191.9910  173.2920  140.7260 C   0  0  0  0  0  1  0  0  0  0  0  0
  193.1160  173.8070  142.7960 N   0  0  0  0  0  0  0  0  0  0  0  0
  191.2190  172.4790  144.4250 C   0  0  2  0  0  3  0  0  0  0  0  0
  191.9640  173.6960  144.9930 C   0  0  2  0  0  3  0  0  0  0  0  0
  191.0920  172.5860  142.9750 N   0  0  0  0  0  2  0  0  0  0  0  0
  1  6  1  0  0  0  0
  2  3  1  6  0  0  0
  2 13  1  0  0  0  0
  2  5  1  0  0  0  0
  4  7  2  0  0  0  0
  5 17  2  0  0  0  0
  6 18  2  0  0  0  0
  7  3  1  0  0  0  0
  8 14  1  0  0  0  0
  8 12  2  0  0  0  0
  9  1  1  0  0  0  0
 10 19  1  0  0  0  0
 11  4  1  0  0  0  0
 13 19  1  6  0  0  0
 13  8  1  0  0  0  0
 15  5  1  0  0  0  0
 15  1  2  0  0  0  0
 16 21  2  0  0  0  0
 16  4  1  0  0  0  0
 17 12  1  0  0  0  0
 17 18  1  0  0  0  0
 20 10  1  0  0  0  0
 20  3  2  0  0  0  0
 21 20  1  0  0  0  0
 23 22  1  1  0  0  0
 23 14  1  0  0  0  0
 24 28  2  0  0  0  0
 24 31  1  0  0  0  0
 25 30  1  0  0  0  0
 27 24  1  0  0  0  0
 28 25  1  0  0  0  0
 29 30  1  0  0  0  0
 29 26  1  1  0  0  0
 30 23  1  6  0  0  0
 31 29  1  0  0  0  0
M  END
>  <MODEL>
1

>  <REMARK>
 VINA RESULT:      -8.8      0.000      0.000
  Name = 
  2 active torsions:
  status: ('A' for Active; 'I' for Inactive)
    1  A    between atoms: C_5  and  N_16
    2  A    between atoms: C_5  and  C_30
                            x       y       z     vdW  Elec       q    Type
                         _______ _______ _______ _____ _____    ______ ____

>  <TORSDO>
F 2

$$$$
=
 OpenBabel11112416473D

 31 35  0  0  1  0  0  0  0  0999 V2000
  185.0410  178.0630  140.7840 C   0  0  0  0  0  0  0  0  0  0  0  0
  187.4040  177.4460  143.7530 C   0  0  2  0  0  3  0  0  0  0  0  0
  186.5050  177.5900  144.9780 C   0  0  0  0  0  0  0  0  0  0  0  0
  184.5050  178.4250  146.0910 C   0  0  0  0  0  0  0  0  0  0  0  0
  186.7680  177.4170  142.3730 C   0  0  0  0  0  0  0  0  0  0  0  0
  185.8100  177.5610  139.7330 C   0  0  0  0  0  3  0  0  0  0  0  0
  185.2690  178.2550  144.9340 C   0  0  0  0  0  3  0  0  0  0  0  0
  189.2810  176.0690  142.7300 C   0  0  0  0  0  0  0  0  0  0  0  0
  183.7990  178.6280  140.5280 O   0  0  0  0  0  1  0  0  0  0  0  0
  188.2530  176.5530  146.3320 O   0  0  0  0  0  0  0  0  0  0  0  0
  183.2760  179.0650  146.0220 O   0  0  0  0  0  1  0  0  0  0  0  0
  188.8350  176.3560  141.5440 N   0  0  0  0  0  0  0  0  0  0  0  0
  188.3840  176.2680  143.9410 C   0  0  1  0  0  3  0  0  0  0  0  0
  190.5440  175.3960  142.8230 N   0  0  0  0  0  2  0  0  0  0  0  0
  185.5250  178.0050  142.0930 C   0  0  0  0  0  3  0  0  0  0  0  0
  184.9790  177.9540  147.3160 C   0  0  0  0  0  3  0  0  0  0  0  0
  187.5450  176.9320  141.3030 C   0  0  0  0  0  0  0  0  0  0  0  0
  187.0620  177.0010  139.9920 C   0  0  0  0  0  3  0  0  0  0  0  0
  189.1570  176.5190  145.2320 C   0  0  0  0  0  2  0  0  0  0  0  0
  186.9960  177.1600  146.2330 C   0  0  0  0  0  0  0  0  0  0  0  0
  186.2250  177.3250  147.3870 C   0  0  0  0  0  3  0  0  0  0  0  0
  190.4690  173.1600  143.7530 C   0  0  0  0  0  1  0  0  0  0  0  0
  190.9650  174.5850  143.9580 C   0  0  1  0  0  3  0  0  0  0  0  0
  192.4190  175.9570  146.6130 C   0  0  0  0  0  0  0  0  0  0  0  0
  192.9290  173.9100  145.4070 C   0  0  0  0  0  2  0  0  0  0  0  0
  192.7290  176.8080  143.0810 F   0  0  0  0  0  0  0  0  0  0  0  0
  191.9930  176.6490  147.8560 C   0  0  0  0  0  1  0  0  0  0  0  0
  192.5160  174.6600  146.5970 N   0  0  0  0  0  0  0  0  0  0  0  0
  193.0560  176.0470  144.1890 C   0  0  2  0  0  3  0  0  0  0  0  0
  192.4950  174.6190  144.1150 C   0  0  2  0  0  3  0  0  0  0  0  0
  192.6120  176.7100  145.4110 N   0  0  0  0  0  2  0  0  0  0  0  0
  1 15  1  0  0  0  0
  2  5  1  6  0  0  0
  2 13  1  0  0  0  0
  2  3  1  0  0  0  0
  3 20  1  0  0  0  0
  4 16  2  0  0  0  0
  6 18  1  0  0  0  0
  6  1  2  0  0  0  0
  7  3  2  0  0  0  0
  7  4  1  0  0  0  0
  8 14  1  0  0  0  0
  8 13  1  0  0  0  0
  9  1  1  0  0  0  0
 11  4  1  0  0  0  0
 12  8  2  0  0  0  0
 13 19  1  1  0  0  0
 14 23  1  0  0  0  0
 15  5  2  0  0  0  0
 16 21  1  0  0  0  0
 17 12  1  0  0  0  0
 17  5  1  0  0  0  0
 18 17  2  0  0  0  0
 19 10  1  0  0  0  0
 20 10  1  0  0  0  0
 20 21  2  0  0  0  0
 23 22  1  6  0  0  0
 24 27  1  0  0  0  0
 25 28  1  0  0  0  0
 28 24  2  0  0  0  0
 29 26  1  6  0  0  0
 29 31  1  0  0  0  0
 30 23  1  1  0  0  0
 30 29  1  0  0  0  0
 30 25  1  0  0  0  0
 31 24  1  0  0  0  0
M  END
>  <MODEL>
2

>  <REMARK>
 VINA RESULT:      -8.5      2.020      4.737
  Name = 
  2 active torsions:
  status: ('A' for Active; 'I' for Inactive)
    1  A    between atoms: C_5  and  N_16
    2  A    between atoms: C_5  and  C_30
                            x       y       z     vdW  Elec       q    Type
                         _______ _______ _______ _____ _____    ______ ____

>  <TORSDO>
F 2

$$$$
=
 OpenBabel11112416473D

 31 35  0  0  1  0  0  0  0  0999 V2000
  184.4630  178.5680  146.3380 C   0  0  0  0  0  0  0  0  0  0  0  0
  187.0930  176.9800  144.0260 C   0  0  2  0  0  3  0  0  0  0  0  0
  186.5930  177.3010  142.6200 C   0  0  0  0  0  0  0  0  0  0  0  0
  184.8250  177.8830  141.0480 C   0  0  0  0  0  0  0  0  0  0  0  0
  186.4120  177.6350  145.2170 C   0  0  0  0  0  0  0  0  0  0  0  0
  185.1520  178.5670  147.5510 C   0  0  0  0  0  3  0  0  0  0  0  0
  185.2620  177.6610  142.3560 C   0  0  0  0  0  3  0  0  0  0  0  0
  189.1650  176.8610  145.4940 C   0  0  0  0  0  0  0  0  0  0  0  0
  183.1570  179.0350  146.2800 O   0  0  0  0  0  1  0  0  0  0  0  0
  188.7830  176.6720  141.7420 O   0  0  0  0  0  0  0  0  0  0  0  0
  183.5110  178.2590  140.8100 O   0  0  0  0  0  1  0  0  0  0  0  0
  188.4350  177.1300  146.5350 N   0  0  0  0  0  0  0  0  0  0  0  0
  188.6260  177.1430  144.1020 C   0  0  1  0  0  3  0  0  0  0  0  0
  190.5310  176.4820  145.7180 N   0  0  0  0  0  2  0  0  0  0  0  0
  185.0850  178.0890  145.1820 C   0  0  0  0  0  3  0  0  0  0  0  0
  185.7100  177.7220  139.9800 C   0  0  0  0  0  3  0  0  0  0  0  0
  187.0910  177.6190  146.4510 C   0  0  0  0  0  0  0  0  0  0  0  0
  186.4620  178.0890  147.6090 C   0  0  0  0  0  3  0  0  0  0  0  0
  189.2330  176.2490  143.0250 C   0  0  0  0  0  2  0  0  0  0  0  0
  187.4660  177.0960  141.5270 C   0  0  0  0  0  0  0  0  0  0  0  0
  187.0280  177.3260  140.2200 C   0  0  0  0  0  3  0  0  0  0  0  0
  191.5980  178.0440  144.2050 C   0  0  0  0  0  1  0  0  0  0  0  0
  191.5960  176.6170  144.7330 C   0  0  1  0  0  3  0  0  0  0  0  0
  193.4260  174.0970  143.5730 C   0  0  0  0  0  0  0  0  0  0  0  0
  194.0730  176.3240  144.2960 C   0  0  0  0  0  2  0  0  0  0  0  0
  192.0230  174.6270  146.8960 F   0  0  0  0  0  0  0  0  0  0  0  0
  193.3180  173.0670  142.5070 C   0  0  0  0  0  1  0  0  0  0  0  0
  193.9360  175.2610  143.2950 N   0  0  0  0  0  0  0  0  0  0  0  0
  192.9920  174.8320  145.9300 C   0  0  2  0  0  3  0  0  0  0  0  0
  192.9580  176.2540  145.3500 C   0  0  2  0  0  3  0  0  0  0  0  0
  192.8690  173.8410  144.8660 N   0  0  0  0  0  2  0  0  0  0  0  0
  1  6  1  0  0  0  0
  2  3  1  6  0  0  0
  2 13  1  0  0  0  0
  2  5  1  0  0  0  0
  4  7  2  0  0  0  0
  5 17  2  0  0  0  0
  6 18  2  0  0  0  0
  7  3  1  0  0  0  0
  8 14  1  0  0  0  0
  8 12  2  0  0  0  0
  9  1  1  0  0  0  0
 10 19  1  0  0  0  0
 11  4  1  0  0  0  0
 13 19  1  6  0  0  0
 13  8  1  0  0  0  0
 15  5  1  0  0  0  0
 15  1  2  0  0  0  0
 16 21  2  0  0  0  0
 16  4  1  0  0  0  0
 17 12  1  0  0  0  0
 17 18  1  0  0  0  0
 20 10  1  0  0  0  0
 20  3  2  0  0  0  0
 21 20  1  0  0  0  0
 23 22  1  1  0  0  0
 23 14  1  0  0  0  0
 24 31  1  0  0  0  0
 25 30  1  0  0  0  0
 27 24  1  0  0  0  0
 28 24  2  0  0  0  0
 28 25  1  0  0  0  0
 29 26  1  1  0  0  0
 30 23  1  6  0  0  0
 30 29  1  0  0  0  0
 31 29  1  0  0  0  0
M  END
>  <MODEL>
3

>  <REMARK>
 VINA RESULT:      -7.8      1.365      1.588
  Name = 
  2 active torsions:
  status: ('A' for Active; 'I' for Inactive)
    1  A    between atoms: C_5  and  N_16
    2  A    between atoms: C_5  and  C_30
                            x       y       z     vdW  Elec       q    Type
                         _______ _______ _______ _____ _____    ______ ____

>  <TORSDO>
F 2

$$$$
=
 OpenBabel11112416473D

 31 35  0  0  1  0  0  0  0  0999 V2000
  190.8350  172.7270  141.1840 C   0  0  0  0  0  0  0  0  0  0  0  0
  189.6290  174.7760  144.2060 C   0  0  2  0  0  3  0  0  0  0  0  0
  190.9080  175.0740  144.9850 C   0  0  0  0  0  0  0  0  0  0  0  0
  193.2180  174.5930  145.5920 C   0  0  0  0  0  0  0  0  0  0  0  0
  189.7390  174.1540  142.8230 C   0  0  0  0  0  0  0  0  0  0  0  0
  189.7180  172.8110  140.3530 C   0  0  0  0  0  3  0  0  0  0  0  0
  192.0880  174.3330  144.8130 C   0  0  0  0  0  3  0  0  0  0  0  0
  187.4330  175.7700  143.3980 C   0  0  0  0  0  0  0  0  0  0  0  0
  191.9410  171.9860  140.7900 O   0  0  0  0  0  1  0  0  0  0  0  0
  189.6850  176.7560  146.2650 O   0  0  0  0  0  0  0  0  0  0  0  0
  194.3810  173.8650  145.3910 O   0  0  0  0  0  1  0  0  0  0  0  0
  187.4520  174.9650  142.3780 N   0  0  0  0  0  0  0  0  0  0  0  0
  188.7080  176.0130  144.1890 C   0  0  1  0  0  3  0  0  0  0  0  0
  186.2440  176.5420  143.6170 N   0  0  0  0  0  2  0  0  0  0  0  0
  190.8380  173.3810  142.4180 C   0  0  0  0  0  3  0  0  0  0  0  0
  193.1750  175.5840  146.5750 C   0  0  0  0  0  3  0  0  0  0  0  0
  188.6080  174.2160  141.9850 C   0  0  0  0  0  0  0  0  0  0  0  0
  188.6050  173.5500  140.7550 C   0  0  0  0  0  3  0  0  0  0  0  0
  188.4520  176.4110  145.6400 C   0  0  0  0  0  2  0  0  0  0  0  0
  190.8620  176.0420  146.0150 C   0  0  0  0  0  0  0  0  0  0  0  0
  191.9970  176.3040  146.7870 C   0  0  0  0  0  3  0  0  0  0  0  0
  186.3770  178.9500  143.3840 C   0  0  0  0  0  1  0  0  0  0  0  0
  186.1990  177.7950  144.3590 C   0  0  1  0  0  3  0  0  0  0  0  0
  186.1060  178.8680  147.5030 C   0  0  0  0  0  0  0  0  0  0  0  0
  184.6600  179.3660  145.6150 C   0  0  0  0  0  2  0  0  0  0  0  0
  185.0110  175.6920  146.0870 F   0  0  0  0  0  0  0  0  0  0  0  0
  187.0780  179.3120  148.5360 C   0  0  0  0  0  1  0  0  0  0  0  0
  185.6220  179.7320  146.6600 N   0  0  0  0  0  0  0  0  0  0  0  0
  184.8220  177.0300  146.3800 C   0  0  2  0  0  3  0  0  0  0  0  0
  184.8750  177.9240  145.1310 C   0  0  2  0  0  3  0  0  0  0  0  0
  185.7950  177.4770  147.3720 N   0  0  0  0  0  2  0  0  0  0  0  0
  1 15  1  0  0  0  0
  2  5  1  6  0  0  0
  2  3  1  0  0  0  0
  3 20  1  0  0  0  0
  4 16  2  0  0  0  0
  6 18  1  0  0  0  0
  6  1  2  0  0  0  0
  7  3  2  0  0  0  0
  7  4  1  0  0  0  0
  8 14  1  0  0  0  0
  8 13  1  0  0  0  0
  9  1  1  0  0  0  0
 11  4  1  0  0  0  0
 12  8  2  0  0  0  0
 13  2  1  0  0  0  0
 13 19  1  1  0  0  0
 14 23  1  0  0  0  0
 15  5  2  0  0  0  0
 16 21  1  0  0  0  0
 17 12  1  0  0  0  0
 17  5  1  0  0  0  0
 18 17  2  0  0  0  0
 19 10  1  0  0  0  0
 20 10  1  0  0  0  0
 20 21  2  0  0  0  0
 23 22  1  6  0  0  0
 24 27  1  0  0  0  0
 25 28  1  0  0  0  0
 28 24  2  0  0  0  0
 29 26  1  6  0  0  0
 29 31  1  0  0  0  0
 30 23  1  1  0  0  0
 30 25  1  0  0  0  0
 30 29  1  0  0  0  0
 31 24  1  0  0  0  0
M  END
>  <MODEL>
4

>  <REMARK>
 VINA RESULT:      -7.7      3.241      7.850
  Name = 
  2 active torsions:
  status: ('A' for Active; 'I' for Inactive)
    1  A    between atoms: C_5  and  N_16
    2  A    between atoms: C_5  and  C_30
                            x       y       z     vdW  Elec       q    Type
                         _______ _______ _______ _____ _____    ______ ____

>  <TORSDO>
F 2

$$$$
=
 OpenBabel11112416473D

 31 35  0  0  1  0  0  0  0  0999 V2000
  190.0680  177.5200  147.4650 C   0  0  0  0  0  0  0  0  0  0  0  0
  188.9790  175.9900  144.1100 C   0  0  2  0  0  3  0  0  0  0  0  0
  187.9540  176.9820  143.5670 C   0  0  0  0  0  0  0  0  0  0  0  0
  186.3170  178.7620  143.8640 C   0  0  0  0  0  0  0  0  0  0  0  0
  189.7920  176.3700  145.3370 C   0  0  0  0  0  0  0  0  0  0  0  0
  191.2330  176.7920  147.7150 C   0  0  0  0  0  3  0  0  0  0  0  0
  187.2990  177.9150  144.3850 C   0  0  0  0  0  3  0  0  0  0  0  0
  190.9490  174.5130  143.4750 C   0  0  0  0  0  0  0  0  0  0  0  0
  189.6230  178.4570  148.3870 O   0  0  0  0  0  1  0  0  0  0  0  0
  188.1260  175.9000  141.3840 O   0  0  0  0  0  0  0  0  0  0  0  0
  185.6980  179.6930  144.6840 O   0  0  0  0  0  1  0  0  0  0  0  0
  191.4270  174.6460  144.6770 N   0  0  0  0  0  0  0  0  0  0  0  0
  189.8920  175.4820  142.9740 C   0  0  1  0  0  3  0  0  0  0  0  0
  191.5830  173.5640  142.6070 N   0  0  0  0  0  2  0  0  0  0  0  0
  189.3450  177.2970  146.2910 C   0  0  0  0  0  3  0  0  0  0  0  0
  185.9580  178.6670  142.5180 C   0  0  0  0  0  3  0  0  0  0  0  0
  190.9580  175.6270  145.6090 C   0  0  0  0  0  0  0  0  0  0  0  0
  191.6730  175.8440  146.7910 C   0  0  0  0  0  3  0  0  0  0  0  0
  188.9890  174.8880  141.8960 C   0  0  0  0  0  2  0  0  0  0  0  0
  187.5470  176.8640  142.2180 C   0  0  0  0  0  0  0  0  0  0  0  0
  186.5700  177.7170  141.6980 C   0  0  0  0  0  3  0  0  0  0  0  0
  192.7520  174.3640  140.6410 C   0  0  0  0  0  1  0  0  0  0  0  0
  191.5300  173.6130  141.1510 C   0  0  1  0  0  3  0  0  0  0  0  0
  189.5500  172.8780  138.5850 C   0  0  0  0  0  0  0  0  0  0  0  0
  191.8340  172.2070  139.0680 C   0  0  0  0  0  2  0  0  0  0  0  0
  189.6040  171.5030  141.9620 F   0  0  0  0  0  0  0  0  0  0  0  0
  188.5680  173.5860  137.7240 C   0  0  0  0  0  1  0  0  0  0  0  0
  190.8100  172.8830  138.2650 N   0  0  0  0  0  0  0  0  0  0  0  0
  190.0670  171.5680  140.6600 C   0  0  2  0  0  3  0  0  0  0  0  0
  191.4660  172.1950  140.5590 C   0  0  2  0  0  3  0  0  0  0  0  0
  189.1190  172.2900  139.8180 N   0  0  0  0  0  2  0  0  0  0  0  0
  1  6  1  0  0  0  0
  1  9  1  0  0  0  0
  2  3  1  6  0  0  0
  2  5  1  0  0  0  0
  3  7  1  0  0  0  0
  4  7  2  0  0  0  0
  4 11  1  0  0  0  0
  5 17  2  0  0  0  0
  5 15  1  0  0  0  0
  8 12  2  0  0  0  0
 10 19  1  0  0  0  0
 10 20  1  0  0  0  0
 12 17  1  0  0  0  0
 13 19  1  6  0  0  0
 13  8  1  0  0  0  0
 13  2  1  0  0  0  0
 14  8  1  0  0  0  0
 15  1  2  0  0  0  0
 16  4  1  0  0  0  0
 17 18  1  0  0  0  0
 18  6  2  0  0  0  0
 20  3  2  0  0  0  0
 21 20  1  0  0  0  0
 21 16  2  0  0  0  0
 23 22  1  6  0  0  0
 23 14  1  0  0  0  0
 24 31  1  0  0  0  0
 25 30  1  0  0  0  0
 27 24  1  0  0  0  0
 28 24  2  0  0  0  0
 28 25  1  0  0  0  0
 29 26  1  1  0  0  0
 30 29  1  0  0  0  0
 30 23  1  6  0  0  0
 31 29  1  0  0  0  0
M  END
>  <MODEL>
5

>  <REMARK>
 VINA RESULT:      -7.5      2.476      4.048
  Name = 
  2 active torsions:
  status: ('A' for Active; 'I' for Inactive)
    1  A    between atoms: C_5  and  N_16
    2  A    between atoms: C_5  and  C_30
                            x       y       z     vdW  Elec       q    Type
                         _______ _______ _______ _____ _____    ______ ____

>  <TORSDO>
F 2

$$$$
=
 OpenBabel11112416473D

 31 35  0  0  1  0  0  0  0  0999 V2000
  184.9660  177.8030  146.8370 C   0  0  0  0  0  0  0  0  0  0  0  0
  186.7960  176.6980  143.6420 C   0  0  2  0  0  3  0  0  0  0  0  0
  185.9750  177.3130  142.5130 C   0  0  0  0  0  0  0  0  0  0  0  0
  183.9070  178.2370  141.6150 C   0  0  0  0  0  0  0  0  0  0  0  0
  186.4910  177.0980  145.0770 C   0  0  0  0  0  0  0  0  0  0  0  0
  185.9410  177.5390  147.7990 C   0  0  0  0  0  3  0  0  0  0  0  0
  184.6490  177.7400  142.6890 C   0  0  0  0  0  3  0  0  0  0  0  0
  189.1630  176.2430  144.4530 C   0  0  0  0  0  0  0  0  0  0  0  0
  183.7240  178.2910  147.2220 O   0  0  0  0  0  1  0  0  0  0  0  0
  187.8160  176.8500  140.9780 O   0  0  0  0  0  0  0  0  0  0  0  0
  182.6060  178.6730  141.8140 O   0  0  0  0  0  1  0  0  0  0  0  0
  188.7450  176.2990  145.6820 N   0  0  0  0  0  0  0  0  0  0  0  0
  188.3050  176.8190  143.3390 C   0  0  1  0  0  3  0  0  0  0  0  0
  190.5100  175.8060  144.2260 N   0  0  0  0  0  2  0  0  0  0  0  0
  185.2350  177.5690  145.4870 C   0  0  0  0  0  3  0  0  0  0  0  0
  184.4750  178.2910  140.3400 C   0  0  0  0  0  3  0  0  0  0  0  0
  187.4620  176.8140  146.0580 C   0  0  0  0  0  0  0  0  0  0  0  0
  187.1850  177.0400  147.4100 C   0  0  0  0  0  3  0  0  0  0  0  0
  188.5510  176.1610  141.9850 C   0  0  0  0  0  2  0  0  0  0  0  0
  186.5220  177.3290  141.2090 C   0  0  0  0  0  0  0  0  0  0  0  0
  185.7790  177.8340  140.1380 C   0  0  0  0  0  3  0  0  0  0  0  0
  191.8430  177.5400  143.1850 C   0  0  0  0  0  1  0  0  0  0  0  0
  191.2930  176.1280  143.0410 C   0  0  1  0  0  3  0  0  0  0  0  0
  193.7730  175.8320  145.2340 C   0  0  0  0  0  0  0  0  0  0  0  0
  192.5080  174.1410  144.0330 C   0  0  0  0  0  2  0  0  0  0  0  0
  193.8790  176.6860  141.6900 F   0  0  0  0  0  0  0  0  0  0  0  0
  194.1850  176.4710  146.5100 C   0  0  0  0  0  1  0  0  0  0  0  0
  192.9580  174.8190  145.2530 N   0  0  0  0  0  0  0  0  0  0  0  0
  193.8110  175.7720  142.7270 C   0  0  2  0  0  3  0  0  0  0  0  0
  192.4300  175.1100  142.8440 C   0  0  2  0  0  3  0  0  0  0  0  0
  194.1860  176.4040  143.9880 N   0  0  0  0  0  2  0  0  0  0  0  0
  1  9  1  0  0  0  0
  1  6  1  0  0  0  0
  2  3  1  6  0  0  0
  2  5  1  0  0  0  0
  3  7  1  0  0  0  0
  4 11  1  0  0  0  0
  4  7  2  0  0  0  0
  5 15  1  0  0  0  0
  5 17  2  0  0  0  0
  8 12  2  0  0  0  0
 10 20  1  0  0  0  0
 10 19  1  0  0  0  0
 12 17  1  0  0  0  0
 13 19  1  6  0  0  0
 13  2  1  0  0  0  0
 13  8  1  0  0  0  0
 14  8  1  0  0  0  0
 15  1  2  0  0  0  0
 16  4  1  0  0  0  0
 17 18  1  0  0  0  0
 18  6  2  0  0  0  0
 20  3  2  0  0  0  0
 21 16  2  0  0  0  0
 21 20  1  0  0  0  0
 23 22  1  1  0  0  0
 23 14  1  0  0  0  0
 24 28  2  0  0  0  0
 24 27  1  0  0  0  0
 25 28  1  0  0  0  0
 29 26  1  6  0  0  0
 29 30  1  0  0  0  0
 29 31  1  0  0  0  0
 30 23  1  1  0  0  0
 30 25  1  0  0  0  0
 31 24  1  0  0  0  0
M  END
>  <MODEL>
6

>  <REMARK>
 VINA RESULT:      -7.3      1.937      2.624
  Name = 
  2 active torsions:
  status: ('A' for Active; 'I' for Inactive)
    1  A    between atoms: C_5  and  N_16
    2  A    between atoms: C_5  and  C_30
                            x       y       z     vdW  Elec       q    Type
                         _______ _______ _______ _____ _____    ______ ____

>  <TORSDO>
F 2

$$$$
=
 OpenBabel11112416473D

 31 35  0  0  1  0  0  0  0  0999 V2000
  186.1720  178.0810  146.3910 C   0  0  0  0  0  0  0  0  0  0  0  0
  189.0260  176.4100  144.4310 C   0  0  2  0  0  3  0  0  0  0  0  0
  190.1270  176.2200  145.4710 C   0  0  0  0  0  0  0  0  0  0  0  0
  191.2240  176.7910  147.5690 C   0  0  0  0  0  0  0  0  0  0  0  0
  187.6490  176.8570  144.8920 C   0  0  0  0  0  0  0  0  0  0  0  0
  185.1060  177.8860  145.5120 C   0  0  0  0  0  3  0  0  0  0  0  0
  190.1640  176.9430  146.6730 C   0  0  0  0  0  3  0  0  0  0  0  0
  187.8260  175.3060  142.4800 C   0  0  0  0  0  0  0  0  0  0  0  0
  185.9770  178.7770  147.5760 O   0  0  0  0  0  1  0  0  0  0  0  0
  191.2590  174.6980  143.9320 O   0  0  0  0  0  0  0  0  0  0  0  0
  191.2310  177.4990  148.7620 O   0  0  0  0  0  1  0  0  0  0  0  0
  186.7530  175.9790  142.7680 N   0  0  0  0  0  0  0  0  0  0  0  0
  188.9320  175.1720  143.5140 C   0  0  1  0  0  3  0  0  0  0  0  0
  187.8350  174.5570  141.2570 N   0  0  0  0  0  2  0  0  0  0  0  0
  187.4380  177.5830  146.0740 C   0  0  0  0  0  3  0  0  0  0  0  0
  192.2790  175.9280  147.2630 C   0  0  0  0  0  3  0  0  0  0  0  0
  186.5700  176.6840  144.0020 C   0  0  0  0  0  0  0  0  0  0  0  0
  185.3060  177.1930  144.3180 C   0  0  0  0  0  3  0  0  0  0  0  0
  190.3110  174.9540  142.9000 C   0  0  0  0  0  2  0  0  0  0  0  0
  191.2240  175.3860  145.1500 C   0  0  0  0  0  0  0  0  0  0  0  0
  192.2790  175.2300  146.0530 C   0  0  0  0  0  3  0  0  0  0  0  0
  188.4780  172.3820  142.1090 C   0  0  0  0  0  1  0  0  0  0  0  0
  188.6890  173.4040  141.0010 C   0  0  1  0  0  3  0  0  0  0  0  0
  191.0150  173.1790  138.6370 C   0  0  0  0  0  0  0  0  0  0  0  0
  189.3060  171.5990  139.3360 C   0  0  0  0  0  2  0  0  0  0  0  0
  187.8160  174.9300  138.6080 F   0  0  0  0  0  0  0  0  0  0  0  0
  192.4460  173.5440  138.4740 C   0  0  0  0  0  1  0  0  0  0  0  0
  190.6970  172.0250  139.1440 N   0  0  0  0  0  0  0  0  0  0  0  0
  188.5880  173.7910  138.4710 C   0  0  2  0  0  3  0  0  0  0  0  0
  188.3850  172.7950  139.6220 C   0  0  2  0  0  3  0  0  0  0  0  0
  189.9990  174.1430  138.3400 N   0  0  0  0  0  2  0  0  0  0  0  0
  1  9  1  0  0  0  0
  2  5  1  1  0  0  0
  2  3  1  0  0  0  0
  3  7  1  0  0  0  0
  4 11  1  0  0  0  0
  5 15  2  0  0  0  0
  6  1  2  0  0  0  0
  7  4  2  0  0  0  0
  8 12  2  0  0  0  0
  8 13  1  0  0  0  0
 10 20  1  0  0  0  0
 12 17  1  0  0  0  0
 13 19  1  6  0  0  0
 13  2  1  0  0  0  0
 14  8  1  0  0  0  0
 15  1  1  0  0  0  0
 16  4  1  0  0  0  0
 17 18  2  0  0  0  0
 17  5  1  0  0  0  0
 18  6  1  0  0  0  0
 19 10  1  0  0  0  0
 20  3  2  0  0  0  0
 20 21  1  0  0  0  0
 21 16  2  0  0  0  0
 23 14  1  0  0  0  0
 23 22  1  1  0  0  0
 24 28  2  0  0  0  0
 25 30  1  0  0  0  0
 27 24  1  0  0  0  0
 28 25  1  0  0  0  0
 29 26  1  1  0  0  0
 29 30  1  0  0  0  0
 30 23  1  1  0  0  0
 31 29  1  0  0  0  0
 31 24  1  0  0  0  0
M  END
>  <MODEL>
7

>  <REMARK>
 VINA RESULT:      -7.2      3.147      5.340
  Name = 
  2 active torsions:
  status: ('A' for Active; 'I' for Inactive)
    1  A    between atoms: C_5  and  N_16
    2  A    between atoms: C_5  and  C_30
                            x       y       z     vdW  Elec       q    Type
                         _______ _______ _______ _____ _____    ______ ____

>  <TORSDO>
F 2

$$$$
=
 OpenBabel11112416473D

 31 35  0  0  1  0  0  0  0  0999 V2000
  185.8800  178.4500  145.1290 C   0  0  0  0  0  0  0  0  0  0  0  0
  189.1070  176.5130  144.3440 C   0  0  2  0  0  3  0  0  0  0  0  0
  189.9050  176.5830  145.6430 C   0  0  0  0  0  0  0  0  0  0  0  0
  190.4450  177.6160  147.7820 C   0  0  0  0  0  0  0  0  0  0  0  0
  187.6660  176.9960  144.3400 C   0  0  0  0  0  0  0  0  0  0  0  0
  185.0680  178.0390  144.0710 C   0  0  0  0  0  3  0  0  0  0  0  0
  189.6500  177.5410  146.6370 C   0  0  0  0  0  3  0  0  0  0  0  0
  188.4200  174.9860  142.4310 C   0  0  0  0  0  0  0  0  0  0  0  0
  185.4040  179.3700  146.0530 O   0  0  0  0  0  1  0  0  0  0  0  0
  191.3620  174.8170  144.7930 O   0  0  0  0  0  0  0  0  0  0  0  0
  190.1630  178.5560  148.7630 O   0  0  0  0  0  1  0  0  0  0  0  0
  187.3210  175.6650  142.2920 N   0  0  0  0  0  0  0  0  0  0  0  0
  189.2260  175.1090  143.7140 C   0  0  1  0  0  3  0  0  0  0  0  0
  188.7250  174.0000  141.4350 N   0  0  0  0  0  2  0  0  0  0  0  0
  187.1760  177.9440  145.2520 C   0  0  0  0  0  3  0  0  0  0  0  0
  191.5270  176.7470  147.9390 C   0  0  0  0  0  3  0  0  0  0  0  0
  186.8450  176.6030  143.2640 C   0  0  0  0  0  0  0  0  0  0  0  0
  185.5520  177.1210  143.1380 C   0  0  0  0  0  3  0  0  0  0  0  0
  190.7110  174.8180  143.5260 C   0  0  0  0  0  2  0  0  0  0  0  0
  191.0320  175.7410  145.7910 C   0  0  0  0  0  0  0  0  0  0  0  0
  191.8210  175.8140  146.9430 C   0  0  0  0  0  3  0  0  0  0  0  0
  188.9340  171.9160  142.6520 C   0  0  0  0  0  1  0  0  0  0  0  0
  189.5960  172.8510  141.6500 C   0  0  1  0  0  3  0  0  0  0  0  0
  192.6820  172.5370  140.4580 C   0  0  0  0  0  0  0  0  0  0  0  0
  190.8450  170.9500  140.5370 C   0  0  0  0  0  2  0  0  0  0  0  0
  189.7650  174.1560  138.9870 F   0  0  0  0  0  0  0  0  0  0  0  0
  194.0550  172.9430  140.8570 C   0  0  0  0  0  1  0  0  0  0  0  0
  192.1910  171.4130  140.8890 N   0  0  0  0  0  0  0  0  0  0  0  0
  190.5310  173.0400  139.2720 C   0  0  2  0  0  3  0  0  0  0  0  0
  189.8810  172.1270  140.3230 C   0  0  2  0  0  3  0  0  0  0  0  0
  191.8710  173.4360  139.6940 N   0  0  0  0  0  2  0  0  0  0  0  0
  1 15  1  0  0  0  0
  1  9  1  0  0  0  0
  2  5  1  1  0  0  0
  2  3  1  0  0  0  0
  3 20  2  0  0  0  0
  3  7  1  0  0  0  0
  4 16  1  0  0  0  0
  4 11  1  0  0  0  0
  5 15  2  0  0  0  0
  6  1  2  0  0  0  0
  7  4  2  0  0  0  0
  8 13  1  0  0  0  0
 10 20  1  0  0  0  0
 12  8  2  0  0  0  0
 12 17  1  0  0  0  0
 13 19  1  6  0  0  0
 13  2  1  0  0  0  0
 14 23  1  0  0  0  0
 14  8  1  0  0  0  0
 17  5  1  0  0  0  0
 18 17  2  0  0  0  0
 18  6  1  0  0  0  0
 19 10  1  0  0  0  0
 20 21  1  0  0  0  0
 21 16  2  0  0  0  0
 23 22  1  1  0  0  0
 24 27  1  0  0  0  0
 24 28  2  0  0  0  0
 25 28  1  0  0  0  0
 29 26  1  1  0  0  0
 29 31  1  0  0  0  0
 29 30  1  0  0  0  0
 30 25  1  0  0  0  0
 30 23  1  1  0  0  0
 31 24  1  0  0  0  0
M  END
>  <MODEL>
8

>  <REMARK>
 VINA RESULT:      -7.1      2.802      5.006
  Name = 
  2 active torsions:
  status: ('A' for Active; 'I' for Inactive)
    1  A    between atoms: C_5  and  N_16
    2  A    between atoms: C_5  and  C_30
                            x       y       z     vdW  Elec       q    Type
                         _______ _______ _______ _____ _____    ______ ____

>  <TORSDO>
F 2

$$$$
=
 OpenBabel11112416473D

 31 35  0  0  1  0  0  0  0  0999 V2000
  192.5890  175.2310  146.0980 C   0  0  0  0  0  0  0  0  0  0  0  0
  189.4630  175.6660  143.9030 C   0  0  2  0  0  3  0  0  0  0  0  0
  189.4790  174.4430  142.9900 C   0  0  0  0  0  0  0  0  0  0  0  0
  190.6280  172.6080  141.8720 C   0  0  0  0  0  0  0  0  0  0  0  0
  190.4440  175.7310  145.0620 C   0  0  0  0  0  0  0  0  0  0  0  0
  192.3170  176.1420  147.1190 C   0  0  0  0  0  3  0  0  0  0  0  0
  190.6360  173.6820  142.7660 C   0  0  0  0  0  3  0  0  0  0  0  0
  187.9660  177.1650  145.3090 C   0  0  0  0  0  0  0  0  0  0  0  0
  193.7820  174.5200  146.1000 O   0  0  0  0  0  1  0  0  0  0  0  0
  187.1640  174.9230  142.3780 O   0  0  0  0  0  0  0  0  0  0  0  0
  191.7760  171.8550  141.6820 O   0  0  0  0  0  1  0  0  0  0  0  0
  188.9700  177.4160  146.0960 N   0  0  0  0  0  0  0  0  0  0  0  0
  188.0250  175.9690  144.3730 C   0  0  1  0  0  3  0  0  0  0  0  0
  186.7640  177.9240  145.4980 N   0  0  0  0  0  2  0  0  0  0  0  0
  191.6650  175.0400  145.0680 C   0  0  0  0  0  3  0  0  0  0  0  0
  189.4630  172.2970  141.1680 C   0  0  0  0  0  3  0  0  0  0  0  0
  190.1890  176.6640  146.0870 C   0  0  0  0  0  0  0  0  0  0  0  0
  191.1210  176.8610  147.1100 C   0  0  0  0  0  3  0  0  0  0  0  0
  187.1630  176.1360  143.1250 C   0  0  0  0  0  2  0  0  0  0  0  0
  188.3200  174.1470  142.2360 C   0  0  0  0  0  0  0  0  0  0  0  0
  188.3120  173.0680  141.3470 C   0  0  0  0  0  3  0  0  0  0  0  0
  184.8090  176.6890  146.2170 C   0  0  0  0  0  1  0  0  0  0  0  0
  185.4380  177.4860  145.0830 C   0  0  1  0  0  3  0  0  0  0  0  0
  185.2040  178.5520  141.9440 C   0  0  0  0  0  0  0  0  0  0  0  0
  183.5040  178.2900  143.6600 C   0  0  0  0  0  2  0  0  0  0  0  0
  186.3670  180.3020  144.9230 F   0  0  0  0  0  0  0  0  0  0  0  0
  185.7680  178.1830  140.6200 C   0  0  0  0  0  1  0  0  0  0  0  0
  184.1160  177.9760  142.3650 N   0  0  0  0  0  0  0  0  0  0  0  0
  185.3660  179.8450  144.0860 C   0  0  2  0  0  3  0  0  0  0  0  0
  184.5600  178.6900  144.7010 C   0  0  2  0  0  3  0  0  0  0  0  0
  185.9200  179.4530  142.7940 N   0  0  0  0  0  2  0  0  0  0  0  0
  1  9  1  0  0  0  0
  1  6  1  0  0  0  0
  2  3  1  1  0  0  0
  2 13  1  0  0  0  0
  2  5  1  0  0  0  0
  4  7  2  0  0  0  0
  5 15  1  0  0  0  0
  5 17  2  0  0  0  0
  7  3  1  0  0  0  0
  8 14  1  0  0  0  0
  8 12  2  0  0  0  0
 10 19  1  0  0  0  0
 11  4  1  0  0  0  0
 13 19  1  6  0  0  0
 13  8  1  0  0  0  0
 15  1  2  0  0  0  0
 16 21  2  0  0  0  0
 16  4  1  0  0  0  0
 17 12  1  0  0  0  0
 17 18  1  0  0  0  0
 18  6  2  0  0  0  0
 20 10  1  0  0  0  0
 20  3  2  0  0  0  0
 21 20  1  0  0  0  0
 23 14  1  0  0  0  0
 23 22  1  1  0  0  0
 24 28  2  0  0  0  0
 24 31  1  0  0  0  0
 25 30  1  0  0  0  0
 27 24  1  0  0  0  0
 28 25  1  0  0  0  0
 29 30  1  0  0  0  0
 29 26  1  1  0  0  0
 30 23  1  6  0  0  0
 31 29  1  0  0  0  0
M  END
>  <MODEL>
9

>  <REMARK>
 VINA RESULT:      -7.1      3.059      6.876
  Name = 
  2 active torsions:
  status: ('A' for Active; 'I' for Inactive)
    1  A    between atoms: C_5  and  N_16
    2  A    between atoms: C_5  and  C_30
                            x       y       z     vdW  Elec       q    Type
                         _______ _______ _______ _____ _____    ______ ____

>  <TORSDO>
F 2

$$$$
