=
 OpenBabel11112416303D

 32 37  0  0  1  0  0  0  0  0999 V2000
  192.7920  174.6020  144.5320 C   0  0  0  0  0  2  0  0  0  0  0  0
  188.2850  177.6680  143.8930 C   0  0  1  0  0  3  0  0  0  0  0  0
  186.2500  178.3720  148.3430 C   0  0  0  0  0  3  0  0  0  0  0  0
  185.0360  178.7090  147.7420 C   0  0  0  0  0  3  0  0  0  0  0  0
  186.7160  177.7180  141.8490 C   0  0  0  0  0  0  0  0  0  0  0  0
  185.4220  177.8160  141.3460 C   0  0  0  0  0  0  0  0  0  0  0  0
  190.6810  176.9430  143.6920 C   0  0  1  0  0  3  0  0  0  0  0  0
  189.6500  177.3220  145.9650 C   0  0  0  0  0  2  0  0  0  0  0  0
  183.1740  178.0850  141.3790 N   0  0  0  0  0  0  0  0  0  0  0  0
  192.0470  176.6590  145.8620 C   0  0  0  0  0  2  0  0  0  0  0  0
  187.3040  177.8940  147.5630 C   0  0  0  0  0  3  0  0  0  0  0  0
  188.2610  177.1470  145.3430 C   0  0  1  0  0  3  0  0  0  0  0  0
  187.1660  177.7710  146.1710 C   0  0  0  0  0  0  0  0  0  0  0  0
  185.7630  177.9390  144.1020 C   0  0  0  0  0  0  0  0  0  0  0  0
  183.5760  178.0470  139.9720 C   0  0  0  0  0  3  0  0  0  0  0  0
  191.8910  174.7180  143.2880 C   0  0  0  0  0  2  0  0  0  0  0  0
  190.6840  176.5220  145.1780 C   0  0  2  0  0  3  0  0  0  0  0  0
  185.0330  177.8510  139.9800 N   0  0  0  0  0  0  0  0  0  0  0  0
  191.6660  176.1570  142.8130 C   0  0  0  0  0  2  0  0  0  0  0  0
  193.1990  175.9520  145.1430 C   0  0  1  0  0  3  0  0  0  0  0  0
  184.8780  178.5650  146.3640 C   0  0  0  0  0  3  0  0  0  0  0  0
  185.9330  178.0880  145.5670 C   0  0  0  0  0  0  0  0  0  0  0  0
  184.4760  178.0540  143.5370 C   0  0  0  0  0  3  0  0  0  0  0  0
  189.2770  176.8050  143.1090 C   0  0  0  0  0  2  0  0  0  0  0  0
  187.7860  177.6470  140.9640 O   0  0  0  0  0  1  0  0  0  0  0  0
  181.8820  178.5430  141.8590 C   0  0  0  0  0  1  0  0  0  0  0  0
  186.8990  177.7180  143.2620 C   0  0  0  0  0  0  0  0  0  0  0  0
  184.3480  177.9620  142.1570 C   0  0  0  0  0  0  0  0  0  0  0  0
  194.3570  175.7710  146.1110 C   0  0  0  0  0  2  0  0  0  0  0  0
  195.5690  175.2740  145.4000 C   0  0  0  0  0  0  0  0  0  0  0  0
  196.1670  174.2490  145.8160 O   0  0  0  0  0  1  0  0  0  0  0  0
  196.0230  175.9270  144.2610 O   0  0  0  0  0  0  0  0  0  0  0  0
  1 20  1  0  0  0  0
  2 24  1  6  0  0  0
  2 12  1  0  0  0  0
  4  3  1  0  0  0  0
  5 27  1  0  0  0  0
  6  5  2  0  0  0  0
  6 28  1  0  0  0  0
  7 19  1  6  0  0  0
  7 17  1  0  0  0  0
  9 26  1  0  0  0  0
  9 28  1  0  0  0  0
 11  3  2  0  0  0  0
 12  8  1  1  0  0  0
 12 13  1  0  0  0  0
 13 11  1  0  0  0  0
 14 22  1  0  0  0  0
 15 18  2  0  0  0  0
 15  9  1  0  0  0  0
 16  1  1  0  0  0  0
 17 10  1  1  0  0  0
 17  8  1  0  0  0  0
 18  6  1  0  0  0  0
 19 16  1  0  0  0  0
 20 10  1  0  0  0  0
 20 29  1  1  0  0  0
 21  4  2  0  0  0  0
 22 13  2  0  0  0  0
 22 21  1  0  0  0  0
 23 14  1  0  0  0  0
 24  7  1  0  0  0  0
 25  5  1  0  0  0  0
 27  2  1  0  0  0  0
 27 14  2  0  0  0  0
 28 23  2  0  0  0  0
 30 31  1  0  0  0  0
 30 29  1  0  0  0  0
 32 30  2  0  0  0  0
M  END
>  <MODEL>
1

>  <REMARK>
 VINA RESULT:      -9.7      0.000      0.000
  Name = 
  2 active torsions:
  status: ('A' for Active; 'I' for Inactive)
    1  A    between atoms: C_20  and  C_29
    2  A    between atoms: C_29  and  C_30
                            x       y       z     vdW  Elec       q    Type
                         _______ _______ _______ _____ _____    ______ ____

>  <TORSDO>
F 2

$$$$
=
 OpenBabel11112416303D

 32 37  0  0  1  0  0  0  0  0999 V2000
  186.4620  178.6570  142.7960 C   0  0  0  0  0  2  0  0  0  0  0  0
  190.1580  174.6780  143.5870 C   0  0  1  0  0  3  0  0  0  0  0  0
  193.7080  176.4310  146.5490 C   0  0  0  0  0  3  0  0  0  0  0  0
  194.5680  175.4160  146.1280 C   0  0  0  0  0  3  0  0  0  0  0  0
  190.8050  172.8080  141.9370 C   0  0  0  0  0  0  0  0  0  0  0  0
  191.7930  171.9950  141.3890 C   0  0  0  0  0  0  0  0  0  0  0  0
  187.9240  175.8200  143.4670 C   0  0  1  0  0  3  0  0  0  0  0  0
  189.7280  176.7050  144.9960 C   0  0  0  0  0  2  0  0  0  0  0  0
  193.8560  171.1050  141.1030 N   0  0  0  0  0  0  0  0  0  0  0  0
  187.5270  177.8680  144.9860 C   0  0  0  0  0  2  0  0  0  0  0  0
  192.4670  176.5920  145.9290 C   0  0  0  0  0  3  0  0  0  0  0  0
  190.7760  175.9720  144.1520 C   0  0  1  0  0  3  0  0  0  0  0  0
  192.0620  175.7270  144.9000 C   0  0  0  0  0  0  0  0  0  0  0  0
  192.5400  173.8130  143.3550 C   0  0  0  0  0  0  0  0  0  0  0  0
  192.9440  170.3460  140.2450 C   0  0  0  0  0  3  0  0  0  0  0  0
  186.8010  177.4780  141.8650 C   0  0  0  0  0  2  0  0  0  0  0  0
  188.5250  177.0770  144.1350 C   0  0  2  0  0  3  0  0  0  0  0  0
  191.6200  170.9570  140.4350 N   0  0  0  0  0  0  0  0  0  0  0  0
  186.7300  176.1070  142.5460 C   0  0  0  0  0  2  0  0  0  0  0  0
  186.2350  178.2580  144.2620 C   0  0  1  0  0  3  0  0  0  0  0  0
  194.1890  174.5680  145.0880 C   0  0  0  0  0  3  0  0  0  0  0  0
  192.9410  174.7180  144.4590 C   0  0  0  0  0  0  0  0  0  0  0  0
  193.4980  172.9510  142.7810 C   0  0  0  0  0  3  0  0  0  0  0  0
  188.9980  175.0820  142.6730 C   0  0  0  0  0  2  0  0  0  0  0  0
  189.4830  172.6270  141.5470 O   0  0  0  0  0  1  0  0  0  0  0  0
  195.2000  170.6860  141.4580 C   0  0  0  0  0  1  0  0  0  0  0  0
  191.1850  173.7850  142.9010 C   0  0  0  0  0  0  0  0  0  0  0  0
  193.0860  172.0750  141.7850 C   0  0  0  0  0  0  0  0  0  0  0  0
  185.5580  179.3860  145.0230 C   0  0  0  0  0  2  0  0  0  0  0  0
  185.0530  178.9060  146.3410 C   0  0  0  0  0  0  0  0  0  0  0  0
  184.0790  178.1120  146.3890 O   0  0  0  0  0  0  0  0  0  0  0  0
  185.6740  179.3150  147.5140 O   0  0  0  0  0  1  0  0  0  0  0  0
  1 20  1  0  0  0  0
  2 24  1  6  0  0  0
  2 12  1  0  0  0  0
  4  3  1  0  0  0  0
  5 27  1  0  0  0  0
  6 28  1  0  0  0  0
  6  5  2  0  0  0  0
  7 19  1  6  0  0  0
  7 17  1  0  0  0  0
  9 26  1  0  0  0  0
  9 28  1  0  0  0  0
 11  3  2  0  0  0  0
 12 13  1  0  0  0  0
 12  8  1  1  0  0  0
 13 11  1  0  0  0  0
 14 22  1  0  0  0  0
 15 18  2  0  0  0  0
 15  9  1  0  0  0  0
 16 19  1  0  0  0  0
 16  1  1  0  0  0  0
 17 10  1  1  0  0  0
 17  8  1  0  0  0  0
 18  6  1  0  0  0  0
 20 10  1  0  0  0  0
 20 29  1  1  0  0  0
 21  4  2  0  0  0  0
 22 13  2  0  0  0  0
 22 21  1  0  0  0  0
 23 14  1  0  0  0  0
 24  7  1  0  0  0  0
 25  5  1  0  0  0  0
 27 14  2  0  0  0  0
 27  2  1  0  0  0  0
 28 23  2  0  0  0  0
 29 30  1  0  0  0  0
 30 31  2  0  0  0  0
 30 32  1  0  0  0  0
M  END
>  <MODEL>
2

>  <REMARK>
 VINA RESULT:      -8.4      3.792      8.365
  Name = 
  2 active torsions:
  status: ('A' for Active; 'I' for Inactive)
    1  A    between atoms: C_20  and  C_29
    2  A    between atoms: C_29  and  C_30
                            x       y       z     vdW  Elec       q    Type
                         _______ _______ _______ _____ _____    ______ ____

>  <TORSDO>
F 2

$$$$
=
 OpenBabel11112416303D

 32 37  0  0  1  0  0  0  0  0999 V2000
  185.9910  176.7850  146.8730 C   0  0  0  0  0  2  0  0  0  0  0  0
  190.6340  175.9100  144.0800 C   0  0  1  0  0  3  0  0  0  0  0  0
  189.4810  173.6700  139.8260 C   0  0  0  0  0  3  0  0  0  0  0  0
  190.8010  173.2370  139.6900 C   0  0  0  0  0  3  0  0  0  0  0  0
  192.9760  175.4670  145.0590 C   0  0  0  0  0  0  0  0  0  0  0  0
  194.1900  174.7900  144.9780 C   0  0  0  0  0  0  0  0  0  0  0  0
  188.8750  177.1360  145.3890 C   0  0  1  0  0  3  0  0  0  0  0  0
  188.2880  176.0100  143.2060 C   0  0  0  0  0  2  0  0  0  0  0  0
  195.7700  173.4140  144.1190 N   0  0  0  0  0  0  0  0  0  0  0  0
  186.4920  177.2470  144.4050 C   0  0  0  0  0  2  0  0  0  0  0  0
  189.0770  174.3070  141.0010 C   0  0  0  0  0  3  0  0  0  0  0  0
  189.5280  175.1220  143.3530 C   0  0  1  0  0  3  0  0  0  0  0  0
  189.9900  174.5400  142.0410 C   0  0  0  0  0  0  0  0  0  0  0  0
  192.2860  174.2960  143.0130 C   0  0  0  0  0  0  0  0  0  0  0  0
  196.3710  174.0780  145.2770 C   0  0  0  0  0  3  0  0  0  0  0  0
  187.4150  176.6080  147.4310 C   0  0  0  0  0  2  0  0  0  0  0  0
  187.7690  176.4210  144.5810 C   0  0  2  0  0  3  0  0  0  0  0  0
  195.3190  174.9470  145.8250 N   0  0  0  0  0  0  0  0  0  0  0  0
  188.4510  177.5490  146.8060 C   0  0  0  0  0  2  0  0  0  0  0  0
  185.8900  177.7820  145.7080 C   0  0  1  0  0  3  0  0  0  0  0  0
  191.7110  173.4380  140.7280 C   0  0  0  0  0  3  0  0  0  0  0  0
  191.3160  174.0810  141.9130 C   0  0  0  0  0  0  0  0  0  0  0  0
  193.5410  173.6530  142.9670 C   0  0  0  0  0  3  0  0  0  0  0  0
  190.1150  176.2510  145.4800 C   0  0  0  0  0  2  0  0  0  0  0  0
  192.7920  176.4150  146.0580 O   0  0  0  0  0  1  0  0  0  0  0  0
  196.5130  172.6880  143.1040 C   0  0  0  0  0  1  0  0  0  0  0  0
  191.9700  175.1770  144.0930 C   0  0  0  0  0  0  0  0  0  0  0  0
  194.4540  173.9100  143.9820 C   0  0  0  0  0  0  0  0  0  0  0  0
  184.4410  178.1720  145.4660 C   0  0  0  0  0  2  0  0  0  0  0  0
  184.3270  179.0650  144.2780 C   0  0  0  0  0  0  0  0  0  0  0  0
  184.9260  180.1720  144.2630 O   0  0  0  0  0  1  0  0  0  0  0  0
  183.5810  178.6650  143.1770 O   0  0  0  0  0  0  0  0  0  0  0  0
  1 16  1  0  0  0  0
  2 27  1  0  0  0  0
  2 24  1  1  0  0  0
  3 11  1  0  0  0  0
  4  3  2  0  0  0  0
  4 21  1  0  0  0  0
  5 25  1  0  0  0  0
  6  5  1  0  0  0  0
  6 18  1  0  0  0  0
  7 24  1  1  0  0  0
  7 19  1  0  0  0  0
  9 15  1  0  0  0  0
 10 17  1  0  0  0  0
 10 20  1  0  0  0  0
 11 13  2  0  0  0  0
 12  8  1  6  0  0  0
 12  2  1  0  0  0  0
 13 12  1  0  0  0  0
 14 27  1  0  0  0  0
 15 18  2  0  0  0  0
 17  8  1  6  0  0  0
 17  7  1  0  0  0  0
 19 16  1  0  0  0  0
 20 29  1  6  0  0  0
 20  1  1  0  0  0  0
 21 22  2  0  0  0  0
 22 13  1  0  0  0  0
 22 14  1  0  0  0  0
 23 14  2  0  0  0  0
 23 28  1  0  0  0  0
 26  9  1  0  0  0  0
 27  5  2  0  0  0  0
 28  9  1  0  0  0  0
 28  6  2  0  0  0  0
 30 29  1  0  0  0  0
 31 30  1  0  0  0  0
 32 30  2  0  0  0  0
M  END
>  <MODEL>
3

>  <REMARK>
 VINA RESULT:      -8.4      3.844      9.092
  Name = 
  2 active torsions:
  status: ('A' for Active; 'I' for Inactive)
    1  A    between atoms: C_20  and  C_29
    2  A    between atoms: C_29  and  C_30
                            x       y       z     vdW  Elec       q    Type
                         _______ _______ _______ _____ _____    ______ ____

>  <TORSDO>
F 2

$$$$
=
 OpenBabel11112416303D

 32 37  0  0  1  0  0  0  0  0999 V2000
  189.5670  171.6580  139.1290 C   0  0  0  0  0  2  0  0  0  0  0  0
  188.7700  175.6270  142.8350 C   0  0  1  0  0  3  0  0  0  0  0  0
  191.8130  174.8160  146.6470 C   0  0  0  0  0  3  0  0  0  0  0  0
  191.0270  175.6380  147.4560 C   0  0  0  0  0  3  0  0  0  0  0  0
  186.5740  176.8860  143.3160 C   0  0  0  0  0  0  0  0  0  0  0  0
  185.7200  177.4740  144.2440 C   0  0  0  0  0  0  0  0  0  0  0  0
  189.2010  174.5410  140.6110 C   0  0  1  0  0  3  0  0  0  0  0  0
  190.7680  174.1410  142.5510 C   0  0  0  0  0  2  0  0  0  0  0  0
  184.9970  178.1990  146.2640 N   0  0  0  0  0  0  0  0  0  0  0  0
  191.3060  173.0670  140.3710 C   0  0  0  0  0  2  0  0  0  0  0  0
  191.3820  174.4920  145.3590 C   0  0  0  0  0  3  0  0  0  0  0  0
  189.6520  174.5610  143.5130 C   0  0  1  0  0  3  0  0  0  0  0  0
  190.1740  175.0030  144.8570 C   0  0  0  0  0  0  0  0  0  0  0  0
  188.0800  176.3400  145.1780 C   0  0  0  0  0  0  0  0  0  0  0  0
  184.0280  178.6710  145.2730 C   0  0  0  0  0  3  0  0  0  0  0  0
  188.2920  172.4870  139.3720 C   0  0  0  0  0  2  0  0  0  0  0  0
  190.1700  173.5410  141.2820 C   0  0  2  0  0  3  0  0  0  0  0  0
  184.5100  178.1700  143.9770 N   0  0  0  0  0  0  0  0  0  0  0  0
  188.5190  174.0030  139.3450 C   0  0  0  0  0  2  0  0  0  0  0  0
  190.8520  172.4940  139.0250 C   0  0  1  0  0  3  0  0  0  0  0  0
  189.8120  176.1300  146.9790 C   0  0  0  0  0  3  0  0  0  0  0  0
  189.3700  175.8130  145.6830 C   0  0  0  0  0  0  0  0  0  0  0  0
  187.1880  176.9670  146.0730 C   0  0  0  0  0  3  0  0  0  0  0  0
  188.1290  174.9800  141.6040 C   0  0  0  0  0  2  0  0  0  0  0  0
  186.2620  176.9600  141.9630 O   0  0  0  0  0  1  0  0  0  0  0  0
  185.0890  178.6850  147.6290 C   0  0  0  0  0  1  0  0  0  0  0  0
  187.7570  176.2480  143.7880 C   0  0  0  0  0  0  0  0  0  0  0  0
  186.0080  177.4990  145.5670 C   0  0  0  0  0  0  0  0  0  0  0  0
  191.9790  171.6670  138.4290 C   0  0  0  0  0  2  0  0  0  0  0  0
  191.6680  171.2850  137.0220 C   0  0  0  0  0  0  0  0  0  0  0  0
  191.6650  170.0730  136.6850 O   0  0  0  0  0  1  0  0  0  0  0  0
  191.3540  172.2650  136.0890 O   0  0  0  0  0  0  0  0  0  0  0  0
  1 16  1  0  0  0  0
  2 24  1  6  0  0  0
  2 12  1  0  0  0  0
  2 27  1  0  0  0  0
  3  4  1  0  0  0  0
  5 27  2  0  0  0  0
  5  6  1  0  0  0  0
  6 28  2  0  0  0  0
  7 19  1  6  0  0  0
  7 17  1  0  0  0  0
  7 24  1  0  0  0  0
  9 26  1  0  0  0  0
 11  3  2  0  0  0  0
 12  8  1  6  0  0  0
 12 13  1  0  0  0  0
 13 11  1  0  0  0  0
 13 22  2  0  0  0  0
 14 22  1  0  0  0  0
 14 23  2  0  0  0  0
 15  9  1  0  0  0  0
 17 10  1  6  0  0  0
 17  8  1  0  0  0  0
 18  6  1  0  0  0  0
 18 15  2  0  0  0  0
 19 16  1  0  0  0  0
 20 29  1  1  0  0  0
 20  1  1  0  0  0  0
 20 10  1  0  0  0  0
 21  4  2  0  0  0  0
 22 21  1  0  0  0  0
 25  5  1  0  0  0  0
 27 14  1  0  0  0  0
 28 23  1  0  0  0  0
 28  9  1  0  0  0  0
 30 29  1  0  0  0  0
 31 30  1  0  0  0  0
 32 30  2  0  0  0  0
M  END
>  <MODEL>
4

>  <REMARK>
 VINA RESULT:      -8.3      3.812      5.771
  Name = 
  2 active torsions:
  status: ('A' for Active; 'I' for Inactive)
    1  A    between atoms: C_20  and  C_29
    2  A    between atoms: C_29  and  C_30
                            x       y       z     vdW  Elec       q    Type
                         _______ _______ _______ _____ _____    ______ ____

>  <TORSDO>
F 2

$$$$
=
 OpenBabel11112416303D

 32 37  0  0  1  0  0  0  0  0999 V2000
  186.0240  179.1990  143.1150 C   0  0  0  0  0  2  0  0  0  0  0  0
  189.7300  175.1510  143.0540 C   0  0  1  0  0  3  0  0  0  0  0  0
  193.1290  176.1130  146.5130 C   0  0  0  0  0  3  0  0  0  0  0  0
  194.0180  175.2360  145.8920 C   0  0  0  0  0  3  0  0  0  0  0  0
  190.4690  173.7510  141.0210 C   0  0  0  0  0  0  0  0  0  0  0  0
  191.4890  173.1010  140.3320 C   0  0  0  0  0  0  0  0  0  0  0  0
  187.4890  176.2840  143.1230 C   0  0  1  0  0  3  0  0  0  0  0  0
  189.2160  176.7620  144.9030 C   0  0  0  0  0  2  0  0  0  0  0  0
  193.5730  172.3120  139.9250 N   0  0  0  0  0  0  0  0  0  0  0  0
  187.0040  177.8900  145.0850 C   0  0  0  0  0  2  0  0  0  0  0  0
  191.9140  176.4230  145.8980 C   0  0  0  0  0  3  0  0  0  0  0  0
  190.3070  176.2630  143.9500 C   0  0  1  0  0  3  0  0  0  0  0  0
  191.5630  175.8410  144.6690 C   0  0  0  0  0  0  0  0  0  0  0  0
  192.1290  174.3730  142.7200 C   0  0  0  0  0  0  0  0  0  0  0  0
  192.7070  171.7900  138.8660 C   0  0  0  0  0  3  0  0  0  0  0  0
  186.4160  178.2890  141.9360 C   0  0  0  0  0  2  0  0  0  0  0  0
  188.0470  177.3360  144.1080 C   0  0  2  0  0  3  0  0  0  0  0  0
  191.3690  172.3340  139.1430 N   0  0  0  0  0  0  0  0  0  0  0  0
  186.3320  176.7910  142.2500 C   0  0  0  0  0  2  0  0  0  0  0  0
  185.7400  178.4470  144.4240 C   0  0  1  0  0  3  0  0  0  0  0  0
  193.6940  174.6740  144.6570 C   0  0  0  0  0  3  0  0  0  0  0  0
  192.4730  174.9740  144.0300 C   0  0  0  0  0  0  0  0  0  0  0  0
  193.1210  173.6820  141.9930 C   0  0  0  0  0  3  0  0  0  0  0  0
  188.6050  175.7680  142.2180 C   0  0  0  0  0  2  0  0  0  0  0  0
  189.1670  173.6720  140.5400 O   0  0  0  0  0  1  0  0  0  0  0  0
  194.9050  171.8190  140.2240 C   0  0  0  0  0  1  0  0  0  0  0  0
  190.7950  174.4580  142.2130 C   0  0  0  0  0  0  0  0  0  0  0  0
  192.7630  173.0810  140.7920 C   0  0  0  0  0  0  0  0  0  0  0  0
  185.0180  179.3490  145.4110 C   0  0  0  0  0  2  0  0  0  0  0  0
  184.8450  178.6650  146.7240 C   0  0  0  0  0  0  0  0  0  0  0  0
  184.0680  177.6810  146.8230 O   0  0  0  0  0  0  0  0  0  0  0  0
  185.5630  179.0970  147.8320 O   0  0  0  0  0  1  0  0  0  0  0  0
  1 20  1  0  0  0  0
  2 24  1  6  0  0  0
  2 12  1  0  0  0  0
  4  3  2  0  0  0  0
  5 27  1  0  0  0  0
  6 28  1  0  0  0  0
  6  5  2  0  0  0  0
  7 24  1  6  0  0  0
  7 17  1  0  0  0  0
  9 26  1  0  0  0  0
  9 28  1  0  0  0  0
 11  3  1  0  0  0  0
 12 13  1  0  0  0  0
 12  8  1  1  0  0  0
 13 11  2  0  0  0  0
 14 22  1  0  0  0  0
 15 18  2  0  0  0  0
 15  9  1  0  0  0  0
 16 19  1  0  0  0  0
 16  1  1  0  0  0  0
 17  8  1  1  0  0  0
 17 10  1  0  0  0  0
 18  6  1  0  0  0  0
 19  7  1  0  0  0  0
 20 10  1  0  0  0  0
 20 29  1  1  0  0  0
 21  4  1  0  0  0  0
 22 21  2  0  0  0  0
 22 13  1  0  0  0  0
 23 14  1  0  0  0  0
 25  5  1  0  0  0  0
 27 14  2  0  0  0  0
 27  2  1  0  0  0  0
 28 23  2  0  0  0  0
 29 30  1  0  0  0  0
 30 31  2  0  0  0  0
 30 32  1  0  0  0  0
M  END
>  <MODEL>
5

>  <REMARK>
 VINA RESULT:      -8.3      3.585      8.074
  Name = 
  2 active torsions:
  status: ('A' for Active; 'I' for Inactive)
    1  A    between atoms: C_20  and  C_29
    2  A    between atoms: C_29  and  C_30
                            x       y       z     vdW  Elec       q    Type
                         _______ _______ _______ _____ _____    ______ ____

>  <TORSDO>
F 2

$$$$
=
 OpenBabel11112416303D

 32 37  0  0  1  0  0  0  0  0999 V2000
  195.3150  176.3180  145.8020 C   0  0  0  0  0  2  0  0  0  0  0  0
  190.0170  175.7600  144.4870 C   0  0  1  0  0  3  0  0  0  0  0  0
  189.7450  173.6450  140.0260 C   0  0  0  0  0  3  0  0  0  0  0  0
  188.4330  174.0980  139.8840 C   0  0  0  0  0  3  0  0  0  0  0  0
  188.0700  177.2930  145.1940 C   0  0  0  0  0  0  0  0  0  0  0  0
  186.8670  177.9140  144.8690 C   0  0  0  0  0  0  0  0  0  0  0  0
  192.1300  175.6150  145.8360 C   0  0  1  0  0  3  0  0  0  0  0  0
  191.9870  174.5160  143.5670 C   0  0  0  0  0  2  0  0  0  0  0  0
  185.0560  178.4540  143.6220 N   0  0  0  0  0  0  0  0  0  0  0  0
  194.1040  174.2720  144.8550 C   0  0  0  0  0  2  0  0  0  0  0  0
  190.5090  174.0570  141.1190 C   0  0  0  0  0  3  0  0  0  0  0  0
  190.8220  175.4460  143.2120 C   0  0  1  0  0  3  0  0  0  0  0  0
  189.9640  174.9070  142.0950 C   0  0  0  0  0  0  0  0  0  0  0  0
  188.0660  176.3030  142.9460 C   0  0  0  0  0  0  0  0  0  0  0  0
  184.8590  179.0600  144.9400 C   0  0  0  0  0  3  0  0  0  0  0  0
  194.1240  177.1650  146.2850 C   0  0  0  0  0  2  0  0  0  0  0  0
  192.9130  175.1940  144.5720 C   0  0  2  0  0  3  0  0  0  0  0  0
  186.0560  178.7110  145.7190 N   0  0  0  0  0  0  0  0  0  0  0  0
  192.9780  176.3440  146.8880 C   0  0  0  0  0  2  0  0  0  0  0  0
  195.0910  174.8010  145.8990 C   0  0  1  0  0  3  0  0  0  0  0  0
  187.8890  174.9650  140.8320 C   0  0  0  0  0  3  0  0  0  0  0  0
  188.6470  175.3840  141.9390 C   0  0  0  0  0  0  0  0  0  0  0  0
  186.8350  176.9390  142.6770 C   0  0  0  0  0  3  0  0  0  0  0  0
  190.9480  176.5000  145.4510 C   0  0  0  0  0  2  0  0  0  0  0  0
  188.5810  177.4310  146.4800 O   0  0  0  0  0  1  0  0  0  0  0  0
  184.0160  178.2910  142.6220 C   0  0  0  0  0  1  0  0  0  0  0  0
  188.7250  176.5150  144.1970 C   0  0  0  0  0  0  0  0  0  0  0  0
  186.2840  177.7550  143.6570 C   0  0  0  0  0  0  0  0  0  0  0  0
  196.4090  174.0580  145.7620 C   0  0  0  0  0  2  0  0  0  0  0  0
  196.8840  174.0800  144.3490 C   0  0  0  0  0  0  0  0  0  0  0  0
  197.4350  175.1130  143.8880 O   0  0  0  0  0  1  0  0  0  0  0  0
  196.7430  172.9530  143.5500 O   0  0  0  0  0  0  0  0  0  0  0  0
  1 20  1  0  0  0  0
  1 16  1  0  0  0  0
  2 24  1  1  0  0  0
  3 11  1  0  0  0  0
  4  3  2  0  0  0  0
  4 21  1  0  0  0  0
  5 25  1  0  0  0  0
  6  5  1  0  0  0  0
  6 18  1  0  0  0  0
  7 24  1  6  0  0  0
  7 19  1  0  0  0  0
  9 28  1  0  0  0  0
  9 15  1  0  0  0  0
 10 20  1  0  0  0  0
 11 13  2  0  0  0  0
 12  8  1  1  0  0  0
 12  2  1  0  0  0  0
 13 12  1  0  0  0  0
 14 27  1  0  0  0  0
 15 18  2  0  0  0  0
 16 19  1  0  0  0  0
 17  8  1  6  0  0  0
 17 10  1  0  0  0  0
 17  7  1  0  0  0  0
 20 29  1  6  0  0  0
 21 22  2  0  0  0  0
 22 13  1  0  0  0  0
 22 14  1  0  0  0  0
 23 14  2  0  0  0  0
 23 28  1  0  0  0  0
 26  9  1  0  0  0  0
 27  2  1  0  0  0  0
 27  5  2  0  0  0  0
 28  6  2  0  0  0  0
 30 29  1  0  0  0  0
 31 30  1  0  0  0  0
 32 30  2  0  0  0  0
M  END
>  <MODEL>
6

>  <REMARK>
 VINA RESULT:      -8.1      2.278      4.672
  Name = 
  2 active torsions:
  status: ('A' for Active; 'I' for Inactive)
    1  A    between atoms: C_20  and  C_29
    2  A    between atoms: C_29  and  C_30
                            x       y       z     vdW  Elec       q    Type
                         _______ _______ _______ _____ _____    ______ ____

>  <TORSDO>
F 2

$$$$
=
 OpenBabel11112416303D

 32 37  0  0  1  0  0  0  0  0999 V2000
  186.2720  177.7470  145.7610 C   0  0  0  0  0  2  0  0  0  0  0  0
  190.1750  174.6980  143.3980 C   0  0  1  0  0  3  0  0  0  0  0  0
  188.3780  172.9000  139.1580 C   0  0  0  0  0  3  0  0  0  0  0  0
  189.3680  171.9160  139.1480 C   0  0  0  0  0  3  0  0  0  0  0  0
  192.0100  173.3310  144.5840 C   0  0  0  0  0  0  0  0  0  0  0  0
  192.7940  172.1820  144.6300 C   0  0  0  0  0  0  0  0  0  0  0  0
  189.0830  176.6700  144.5070 C   0  0  1  0  0  3  0  0  0  0  0  0
  188.1760  175.7660  142.3300 C   0  0  0  0  0  2  0  0  0  0  0  0
  193.6330  170.1880  143.9610 N   0  0  0  0  0  0  0  0  0  0  0  0
  187.0630  177.7570  143.3270 C   0  0  0  0  0  2  0  0  0  0  0  0
  188.2380  173.7340  140.2680 C   0  0  0  0  0  3  0  0  0  0  0  0
  188.8750  174.4330  142.6150 C   0  0  1  0  0  3  0  0  0  0  0  0
  189.0990  173.6120  141.3700 C   0  0  0  0  0  0  0  0  0  0  0  0
  190.9830  172.4440  142.5370 C   0  0  0  0  0  0  0  0  0  0  0  0
  194.4020  170.5980  145.1370 C   0  0  0  0  0  3  0  0  0  0  0  0
  187.4320  176.9970  146.4420 C   0  0  0  0  0  2  0  0  0  0  0  0
  187.8210  176.4640  143.6400 C   0  0  2  0  0  3  0  0  0  0  0  0
  193.8240  171.8820  145.5610 N   0  0  0  0  0  0  0  0  0  0  0  0
  188.8130  177.3300  145.8660 C   0  0  0  0  0  2  0  0  0  0  0  0
  186.6930  178.5970  144.5530 C   0  0  1  0  0  3  0  0  0  0  0  0
  190.2120  171.7670  140.2490 C   0  0  0  0  0  3  0  0  0  0  0  0
  190.0830  172.6030  141.3700 C   0  0  0  0  0  0  0  0  0  0  0  0
  191.8160  171.3080  142.6210 C   0  0  0  0  0  3  0  0  0  0  0  0
  189.7870  175.3350  144.7350 C   0  0  0  0  0  2  0  0  0  0  0  0
  192.2170  174.3330  145.5250 O   0  0  0  0  0  1  0  0  0  0  0  0
  194.0260  169.1360  143.0400 C   0  0  0  0  0  1  0  0  0  0  0  0
  191.0360  173.4500  143.5510 C   0  0  0  0  0  0  0  0  0  0  0  0
  192.6890  171.2060  143.6960 C   0  0  0  0  0  0  0  0  0  0  0  0
  185.5900  179.5720  144.1760 C   0  0  0  0  0  2  0  0  0  0  0  0
  184.2510  178.9300  144.3040 C   0  0  0  0  0  0  0  0  0  0  0  0
  183.6220  178.9980  145.3910 O   0  0  0  0  0  1  0  0  0  0  0  0
  183.6850  178.2810  143.2140 O   0  0  0  0  0  0  0  0  0  0  0  0
  1 16  1  0  0  0  0
  2 27  1  0  0  0  0
  2 24  1  1  0  0  0
  3 11  1  0  0  0  0
  4  3  2  0  0  0  0
  4 21  1  0  0  0  0
  5  6  1  0  0  0  0
  5 25  1  0  0  0  0
  6 18  1  0  0  0  0
  7 24  1  1  0  0  0
  7 19  1  0  0  0  0
  9 15  1  0  0  0  0
 10 17  1  0  0  0  0
 10 20  1  0  0  0  0
 11 13  2  0  0  0  0
 12  8  1  6  0  0  0
 12  2  1  0  0  0  0
 13 12  1  0  0  0  0
 14 23  2  0  0  0  0
 14 27  1  0  0  0  0
 15 18  2  0  0  0  0
 17  8  1  6  0  0  0
 17  7  1  0  0  0  0
 19 16  1  0  0  0  0
 20 29  1  6  0  0  0
 20  1  1  0  0  0  0
 21 22  2  0  0  0  0
 22 13  1  0  0  0  0
 22 14  1  0  0  0  0
 23 28  1  0  0  0  0
 26  9  1  0  0  0  0
 27  5  2  0  0  0  0
 28  9  1  0  0  0  0
 28  6  2  0  0  0  0
 29 30  1  0  0  0  0
 30 31  1  0  0  0  0
 32 30  2  0  0  0  0
M  END
>  <MODEL>
7

>  <REMARK>
 VINA RESULT:      -8.1      4.383      9.111
  Name = 
  2 active torsions:
  status: ('A' for Active; 'I' for Inactive)
    1  A    between atoms: C_20  and  C_29
    2  A    between atoms: C_29  and  C_30
                            x       y       z     vdW  Elec       q    Type
                         _______ _______ _______ _____ _____    ______ ____

>  <TORSDO>
F 2

$$$$
=
 OpenBabel11112416303D

 32 37  0  0  1  0  0  0  0  0999 V2000
  190.3330  171.1760  139.0710 C   0  0  0  0  0  2  0  0  0  0  0  0
  188.8320  175.4110  142.2220 C   0  0  1  0  0  3  0  0  0  0  0  0
  190.8610  174.8090  146.6900 C   0  0  0  0  0  3  0  0  0  0  0  0
  189.9380  175.7010  147.2370 C   0  0  0  0  0  3  0  0  0  0  0  0
  186.6320  176.7450  142.0880 C   0  0  0  0  0  0  0  0  0  0  0  0
  185.6050  177.4140  142.7470 C   0  0  0  0  0  0  0  0  0  0  0  0
  189.7340  174.1630  140.2380 C   0  0  1  0  0  3  0  0  0  0  0  0
  190.7850  173.8690  142.5150 C   0  0  0  0  0  2  0  0  0  0  0  0
  184.4540  178.2940  144.4880 N   0  0  0  0  0  0  0  0  0  0  0  0
  191.7820  172.6330  140.5980 C   0  0  0  0  0  2  0  0  0  0  0  0
  190.7340  174.4040  145.3610 C   0  0  0  0  0  3  0  0  0  0  0  0
  189.4900  174.3780  143.1570 C   0  0  1  0  0  3  0  0  0  0  0  0
  189.6980  174.9030  144.5550 C   0  0  0  0  0  0  0  0  0  0  0  0
  187.6360  176.3010  144.2840 C   0  0  0  0  0  0  0  0  0  0  0  0
  183.7640  178.7150  143.2680 C   0  0  0  0  0  3  0  0  0  0  0  0
  189.0680  172.0460  138.9520 C   0  0  0  0  0  2  0  0  0  0  0  0
  190.4810  173.1930  141.1820 C   0  0  2  0  0  3  0  0  0  0  0  0
  184.5180  178.1140  142.1580 N   0  0  0  0  0  0  0  0  0  0  0  0
  189.3500  173.5510  138.8830 C   0  0  0  0  0  2  0  0  0  0  0  0
  191.6360  171.9760  139.2220 C   0  0  1  0  0  3  0  0  0  0  0  0
  188.8870  176.1830  146.4550 C   0  0  0  0  0  3  0  0  0  0  0  0
  188.7510  175.7850  145.1140 C   0  0  0  0  0  0  0  0  0  0  0  0
  186.5820  177.0080  144.9000 C   0  0  0  0  0  3  0  0  0  0  0  0
  188.4750  174.6920  140.9190 C   0  0  0  0  0  2  0  0  0  0  0  0
  186.6500  176.7300  140.6970 O   0  0  0  0  0  1  0  0  0  0  0  0
  184.2400  178.8740  145.8020 C   0  0  0  0  0  1  0  0  0  0  0  0
  187.6460  176.1180  142.8670 C   0  0  0  0  0  0  0  0  0  0  0  0
  185.5750  177.5270  144.0970 C   0  0  0  0  0  0  0  0  0  0  0  0
  192.8410  171.0860  138.9640 C   0  0  0  0  0  2  0  0  0  0  0  0
  193.2560  170.3850  140.2120 C   0  0  0  0  0  0  0  0  0  0  0  0
  192.6080  169.3860  140.6170 O   0  0  0  0  0  0  0  0  0  0  0  0
  194.3750  170.8160  140.9130 O   0  0  0  0  0  1  0  0  0  0  0  0
  1 20  1  0  0  0  0
  2 24  1  6  0  0  0
  2 27  1  0  0  0  0
  2 12  1  0  0  0  0
  3  4  1  0  0  0  0
  5  6  2  0  0  0  0
  5 27  1  0  0  0  0
  6 28  1  0  0  0  0
  7 19  1  6  0  0  0
  7 24  1  0  0  0  0
  7 17  1  0  0  0  0
  9 26  1  0  0  0  0
 11  3  2  0  0  0  0
 12  8  1  6  0  0  0
 12 13  1  0  0  0  0
 13 22  2  0  0  0  0
 13 11  1  0  0  0  0
 14 23  1  0  0  0  0
 14 22  1  0  0  0  0
 15  9  1  0  0  0  0
 16  1  1  0  0  0  0
 17 10  1  6  0  0  0
 17  8  1  0  0  0  0
 18  6  1  0  0  0  0
 18 15  2  0  0  0  0
 19 16  1  0  0  0  0
 20 29  1  1  0  0  0
 20 10  1  0  0  0  0
 21  4  2  0  0  0  0
 22 21  1  0  0  0  0
 25  5  1  0  0  0  0
 27 14  2  0  0  0  0
 28  9  1  0  0  0  0
 28 23  2  0  0  0  0
 29 30  1  0  0  0  0
 30 31  2  0  0  0  0
 30 32  1  0  0  0  0
M  END
>  <MODEL>
8

>  <REMARK>
 VINA RESULT:      -7.6      3.491      4.918
  Name = 
  2 active torsions:
  status: ('A' for Active; 'I' for Inactive)
    1  A    between atoms: C_20  and  C_29
    2  A    between atoms: C_29  and  C_30
                            x       y       z     vdW  Elec       q    Type
                         _______ _______ _______ _____ _____    ______ ____

>  <TORSDO>
F 2

$$$$
=
 OpenBabel11112416303D

 32 37  0  0  1  0  0  0  0  0999 V2000
  187.1190  176.9660  146.3570 C   0  0  0  0  0  2  0  0  0  0  0  0
  190.9310  175.3480  142.7560 C   0  0  1  0  0  3  0  0  0  0  0  0
  188.6290  173.4550  138.8120 C   0  0  0  0  0  3  0  0  0  0  0  0
  189.8000  172.7970  138.4360 C   0  0  0  0  0  3  0  0  0  0  0  0
  193.2950  174.4700  143.2850 C   0  0  0  0  0  0  0  0  0  0  0  0
  194.3320  173.5900  142.9850 C   0  0  0  0  0  0  0  0  0  0  0  0
  189.6930  176.8340  144.3590 C   0  0  1  0  0  3  0  0  0  0  0  0
  188.5210  175.8850  142.3340 C   0  0  0  0  0  2  0  0  0  0  0  0
  195.4530  171.9760  141.8590 N   0  0  0  0  0  0  0  0  0  0  0  0
  187.2290  177.3930  143.8360 C   0  0  0  0  0  2  0  0  0  0  0  0
  188.5690  174.1250  140.0350 C   0  0  0  0  0  3  0  0  0  0  0  0
  189.5860  174.7870  142.2550 C   0  0  1  0  0  3  0  0  0  0  0  0
  189.6860  174.1660  140.8850 C   0  0  0  0  0  0  0  0  0  0  0  0
  192.0400  173.4920  141.4140 C   0  0  0  0  0  0  0  0  0  0  0  0
  196.3660  172.4940  142.8800 C   0  0  0  0  0  3  0  0  0  0  0  0
  188.5660  176.5250  146.6420 C   0  0  0  0  0  2  0  0  0  0  0  0
  188.3470  176.3480  143.7770 C   0  0  2  0  0  3  0  0  0  0  0  0
  195.6070  173.5220  143.6060 N   0  0  0  0  0  0  0  0  0  0  0  0
  189.6210  177.2810  145.8260 C   0  0  0  0  0  2  0  0  0  0  0  0
  186.9850  177.9930  145.2230 C   0  0  1  0  0  3  0  0  0  0  0  0
  190.9070  172.8070  139.2840 C   0  0  0  0  0  3  0  0  0  0  0  0
  190.8610  173.4810  140.5170 C   0  0  0  0  0  0  0  0  0  0  0  0
  193.1290  172.6370  141.1410 C   0  0  0  0  0  3  0  0  0  0  0  0
  190.7500  175.7400  144.2250 C   0  0  0  0  0  2  0  0  0  0  0  0
  193.4730  175.4110  144.2930 O   0  0  0  0  0  1  0  0  0  0  0  0
  195.8520  171.1550  140.7300 C   0  0  0  0  0  1  0  0  0  0  0  0
  192.0920  174.3880  142.5270 C   0  0  0  0  0  0  0  0  0  0  0  0
  194.2450  172.7020  141.9660 C   0  0  0  0  0  0  0  0  0  0  0  0
  185.6100  178.6420  145.2510 C   0  0  0  0  0  2  0  0  0  0  0  0
  185.1360  178.8150  146.6540 C   0  0  0  0  0  0  0  0  0  0  0  0
  184.0560  178.2840  147.0220 O   0  0  0  0  0  0  0  0  0  0  0  0
  185.8990  179.5380  147.5610 O   0  0  0  0  0  1  0  0  0  0  0  0
  1 16  1  0  0  0  0
  2 24  1  1  0  0  0
  3 11  1  0  0  0  0
  4  3  2  0  0  0  0
  4 21  1  0  0  0  0
  5 25  1  0  0  0  0
  6  5  1  0  0  0  0
  6 18  1  0  0  0  0
  7 24  1  1  0  0  0
  7 19  1  0  0  0  0
  9 28  1  0  0  0  0
  9 15  1  0  0  0  0
 10 20  1  0  0  0  0
 11 13  2  0  0  0  0
 12  8  1  6  0  0  0
 12  2  1  0  0  0  0
 13 12  1  0  0  0  0
 14 27  1  0  0  0  0
 15 18  2  0  0  0  0
 17  8  1  6  0  0  0
 17 10  1  0  0  0  0
 17  7  1  0  0  0  0
 19 16  1  0  0  0  0
 20 29  1  6  0  0  0
 20  1  1  0  0  0  0
 21 22  2  0  0  0  0
 22 13  1  0  0  0  0
 22 14  1  0  0  0  0
 23 14  2  0  0  0  0
 23 28  1  0  0  0  0
 26  9  1  0  0  0  0
 27  2  1  0  0  0  0
 27  5  2  0  0  0  0
 28  6  2  0  0  0  0
 29 30  1  0  0  0  0
 30 31  2  0  0  0  0
 30 32  1  0  0  0  0
M  END
>  <MODEL>
9

>  <REMARK>
 VINA RESULT:      -7.4      4.409      9.044
  Name = 
  2 active torsions:
  status: ('A' for Active; 'I' for Inactive)
    1  A    between atoms: C_20  and  C_29
    2  A    between atoms: C_29  and  C_30
                            x       y       z     vdW  Elec       q    Type
                         _______ _______ _______ _____ _____    ______ ____

>  <TORSDO>
F 2

$$$$
