=
 OpenBabel11112417353D

 28 32  0  0  1  0  0  0  0  0999 V2000
  185.4180  177.5350  145.4340 C   0  0  0  0  0  0  0  0  0  0  0  0
  185.9700  177.8160  140.7080 O   0  0  0  0  0  0  0  0  0  0  0  0
  191.4010  177.1870  145.6700 O   0  0  0  0  0  0  0  0  0  0  0  0
  184.6590  179.8090  143.9750 C   0  0  0  0  0  3  0  0  0  0  0  0
  190.3230  175.8150  144.0550 C   0  0  1  0  0  3  0  0  0  0  0  0
  185.7860  176.3570  146.2900 C   0  0  0  0  0  2  0  0  0  0  0  0
  188.3980  178.0920  141.0280 O   0  0  0  0  0  0  0  0  0  0  0  0
  187.2570  177.1150  141.0420 S   0  0  0  0  0  0  0  0  0  0  0  0
  188.2620  174.8410  140.2420 C   0  0  0  0  0  0  0  0  0  0  0  0
  187.1150  176.3040  142.6260 C   0  0  1  0  0  3  0  0  0  0  0  0
  187.5680  178.7960  147.9700 O   0  0  0  0  0  0  0  0  0  0  0  0
  188.0800  176.4170  144.8100 N   0  0  1  0  0  0  0  0  0  0  0  0
  188.9840  174.7850  141.5620 C   0  0  0  0  0  2  0  0  0  0  0  0
  187.5410  175.8560  139.9150 N   0  0  0  0  0  0  0  0  0  0  0  0
  187.5850  177.6100  147.5520 C   0  0  0  0  0  0  0  0  0  0  0  0
  186.1890  177.9450  144.3100 C   0  0  0  0  0  0  0  0  0  0  0  0
  190.3670  176.7740  145.1710 C   0  0  0  0  0  0  0  0  0  0  0  0
  188.4460  173.7300  139.2680 C   0  0  0  0  0  1  0  0  0  0  0  0
  188.7800  177.0810  146.9760 N   0  0  0  0  0  2  0  0  0  0  0  0
  185.7930  179.0870  143.6010 C   0  0  0  0  0  3  0  0  0  0  0  0
  184.2800  178.2680  145.7950 C   0  0  0  0  0  3  0  0  0  0  0  0
  183.9000  179.3970  145.0690 C   0  0  0  0  0  3  0  0  0  0  0  0
  186.3440  176.7750  147.6540 C   0  0  0  0  0  2  0  0  0  0  0  0
  188.8390  175.3970  144.0810 C   0  0  1  0  0  3  0  0  0  0  0  0
  189.0200  177.2490  145.5520 C   0  0  2  0  0  3  0  0  0  0  0  0
  188.0900  175.1300  142.7700 C   0  0  1  0  0  3  0  0  0  0  0  0
  190.6550  176.5060  142.8870 O   0  0  0  0  0  1  0  0  0  0  0  0
  187.4220  177.2290  143.7920 C   0  0  2  0  0  3  0  0  0  0  0  0
  1 21  1  0  0  0  0
  1  6  1  0  0  0  0
  2  8  2  0  0  0  0
  4 22  1  0  0  0  0
  5 27  1  6  0  0  0
  5 24  1  0  0  0  0
  5 17  1  0  0  0  0
  6 23  1  0  0  0  0
  7  8  2  0  0  0  0
  9 13  1  0  0  0  0
 10  8  1  6  0  0  0
 10 26  1  0  0  0  0
 10 28  1  0  0  0  0
 12 25  1  0  0  0  0
 13 26  1  0  0  0  0
 14  9  2  0  0  0  0
 14  8  1  0  0  0  0
 15 23  1  0  0  0  0
 15 11  2  0  0  0  0
 16  1  2  0  0  0  0
 17 25  1  0  0  0  0
 17  3  2  0  0  0  0
 18  9  1  0  0  0  0
 19 15  1  0  0  0  0
 20  4  2  0  0  0  0
 20 16  1  0  0  0  0
 22 21  2  0  0  0  0
 24 12  1  0  0  0  0
 25 19  1  0  0  0  0
 26 24  1  0  0  0  0
 28 16  1  0  0  0  0
 28 12  1  0  0  0  0
M  END
>  <MODEL>
1

>  <REMARK>
 VINA RESULT:      -8.3      0.000      0.000
  Name = 
  0 active torsions:
  status: ('A' for Active; 'I' for Inactive)
                            x       y       z     vdW  Elec       q    Type
                         _______ _______ _______ _____ _____    ______ ____

>  <TORSDO>
F 0

$$$$
=
 OpenBabel11112417353D

 28 32  0  0  1  0  0  0  0  0999 V2000
  186.4600  178.5970  145.2400 C   0  0  0  0  0  0  0  0  0  0  0  0
  189.8500  176.3940  147.7650 O   0  0  0  0  0  0  0  0  0  0  0  0
  188.0160  174.9150  140.7680 O   0  0  0  0  0  0  0  0  0  0  0  0
  185.8720  177.0980  147.5390 C   0  0  0  0  0  3  0  0  0  0  0  0
  189.7960  175.9740  141.9360 C   0  0  1  0  0  3  0  0  0  0  0  0
  186.6850  179.4240  144.0080 C   0  0  0  0  0  2  0  0  0  0  0  0
  190.0520  174.7040  145.9830 O   0  0  0  0  0  0  0  0  0  0  0  0
  190.3800  176.1140  146.3870 S   0  0  0  0  0  0  0  0  0  0  0  0
  192.6690  176.6600  145.2550 C   0  0  0  0  0  0  0  0  0  0  0  0
  189.7130  177.2950  145.2260 C   0  0  1  0  0  3  0  0  0  0  0  0
  184.3520  177.2160  142.7300 O   0  0  0  0  0  0  0  0  0  0  0  0
  188.2970  177.3380  143.3000 N   0  0  1  0  0  0  0  0  0  0  0  0
  191.9280  176.6760  143.9440 C   0  0  0  0  0  2  0  0  0  0  0  0
  192.0750  176.3600  146.3560 N   0  0  0  0  0  0  0  0  0  0  0  0
  185.4190  177.8400  142.4950 C   0  0  0  0  0  0  0  0  0  0  0  0
  187.2080  177.4200  145.5280 C   0  0  0  0  0  0  0  0  0  0  0  0
  188.3830  175.7030  141.6250 C   0  0  0  0  0  0  0  0  0  0  0  0
  194.1340  176.9290  145.2620 C   0  0  0  0  0  1  0  0  0  0  0  0
  186.4760  177.1890  141.7890 N   0  0  0  0  0  2  0  0  0  0  0  0
  186.8910  176.6860  146.6790 C   0  0  0  0  0  3  0  0  0  0  0  0
  185.4430  179.0000  146.1150 C   0  0  0  0  0  3  0  0  0  0  0  0
  185.1510  178.2580  147.2590 C   0  0  0  0  0  3  0  0  0  0  0  0
  185.5670  179.2530  142.9740 C   0  0  0  0  0  2  0  0  0  0  0  0
  189.6710  177.2480  142.7950 C   0  0  1  0  0  3  0  0  0  0  0  0
  187.4630  176.4220  142.5320 C   0  0  2  0  0  3  0  0  0  0  0  0
  190.6050  177.4670  143.9920 C   0  0  1  0  0  3  0  0  0  0  0  0
  190.2850  174.8900  142.6700 O   0  0  0  0  0  1  0  0  0  0  0  0
  188.3520  176.8880  144.6860 C   0  0  2  0  0  3  0  0  0  0  0  0
  1 16  2  0  0  0  0
  1 21  1  0  0  0  0
  3 17  2  0  0  0  0
  5 27  1  1  0  0  0
  5 24  1  0  0  0  0
  6  1  1  0  0  0  0
  7  8  2  0  0  0  0
  8  2  2  0  0  0  0
  9 18  1  0  0  0  0
  9 14  2  0  0  0  0
 10  8  1  1  0  0  0
 12 28  1  0  0  0  0
 13 26  1  0  0  0  0
 13  9  1  0  0  0  0
 14  8  1  0  0  0  0
 15 11  2  0  0  0  0
 15 23  1  0  0  0  0
 16 20  1  0  0  0  0
 17  5  1  0  0  0  0
 17 25  1  0  0  0  0
 19 15  1  0  0  0  0
 19 25  1  0  0  0  0
 20  4  2  0  0  0  0
 21 22  2  0  0  0  0
 22  4  1  0  0  0  0
 23  6  1  0  0  0  0
 24 12  1  0  0  0  0
 24 26  1  0  0  0  0
 25 12  1  0  0  0  0
 26 10  1  0  0  0  0
 28 10  1  0  0  0  0
 28 16  1  0  0  0  0
M  END
>  <MODEL>
2

>  <REMARK>
 VINA RESULT:      -8.3      2.282      4.883
  Name = 
  0 active torsions:
  status: ('A' for Active; 'I' for Inactive)
                            x       y       z     vdW  Elec       q    Type
                         _______ _______ _______ _____ _____    ______ ____

>  <TORSDO>
F 0

$$$$
=
 OpenBabel11112417353D

 28 32  0  0  1  0  0  0  0  0999 V2000
  185.8400  177.1100  144.3250 C   0  0  0  0  0  0  0  0  0  0  0  0
  189.3870  175.6600  141.4900 O   0  0  0  0  0  0  0  0  0  0  0  0
  190.1350  178.3650  148.3190 O   0  0  0  0  0  0  0  0  0  0  0  0
  186.4150  178.3760  141.8870 C   0  0  0  0  0  3  0  0  0  0  0  0
  190.2800  176.2540  147.2350 C   0  0  1  0  0  3  0  0  0  0  0  0
  185.4570  176.4880  145.6360 C   0  0  0  0  0  2  0  0  0  0  0  0
  191.0150  176.6260  143.0670 O   0  0  0  0  0  0  0  0  0  0  0  0
  190.0730  175.4830  142.8160 S   0  0  0  0  0  0  0  0  0  0  0  0
  191.1680  173.4000  143.9480 C   0  0  0  0  0  0  0  0  0  0  0  0
  188.8590  175.3430  144.1170 C   0  0  1  0  0  3  0  0  0  0  0  0
  185.8820  179.7450  146.7120 O   0  0  0  0  0  0  0  0  0  0  0  0
  188.1520  176.5310  146.0680 N   0  0  1  0  0  0  0  0  0  0  0  0
  190.8360  174.0410  145.2690 C   0  0  0  0  0  2  0  0  0  0  0  0
  190.9260  173.9970  142.8340 N   0  0  0  0  0  0  0  0  0  0  0  0
  186.0740  178.5340  146.9910 C   0  0  0  0  0  0  0  0  0  0  0  0
  187.1900  177.2270  143.8890 C   0  0  0  0  0  0  0  0  0  0  0  0
  189.6560  177.5500  147.5470 C   0  0  0  0  0  0  0  0  0  0  0  0
  191.8580  172.0800  143.9370 C   0  0  0  0  0  1  0  0  0  0  0  0
  187.3050  178.1350  147.5950 N   0  0  0  0  0  2  0  0  0  0  0  0
  187.4520  177.8690  142.6710 C   0  0  0  0  0  3  0  0  0  0  0  0
  184.8090  177.6210  143.5240 C   0  0  0  0  0  3  0  0  0  0  0  0
  185.0940  178.2490  142.3120 C   0  0  0  0  0  3  0  0  0  0  0  0
  185.0100  177.5270  146.6700 C   0  0  0  0  0  2  0  0  0  0  0  0
  189.1180  175.5280  146.5280 C   0  0  1  0  0  3  0  0  0  0  0  0
  188.4350  177.7890  146.7480 C   0  0  2  0  0  3  0  0  0  0  0  0
  189.3990  174.5970  145.3410 C   0  0  1  0  0  3  0  0  0  0  0  0
  191.3540  176.4960  146.3730 O   0  0  0  0  0  1  0  0  0  0  0  0
  188.3960  176.6940  144.6390 C   0  0  2  0  0  3  0  0  0  0  0  0
  1  6  1  0  0  0  0
  2  8  2  0  0  0  0
  4 22  2  0  0  0  0
  4 20  1  0  0  0  0
  5 27  1  6  0  0  0
  5 17  1  0  0  0  0
  6 23  1  0  0  0  0
  8 14  1  0  0  0  0
  8  7  2  0  0  0  0
  9 13  1  0  0  0  0
 10  8  1  6  0  0  0
 10 28  1  0  0  0  0
 10 26  1  0  0  0  0
 11 15  2  0  0  0  0
 12 24  1  0  0  0  0
 12 25  1  0  0  0  0
 13 26  1  0  0  0  0
 14  9  2  0  0  0  0
 15 19  1  0  0  0  0
 16  1  1  0  0  0  0
 16 28  1  0  0  0  0
 17  3  2  0  0  0  0
 18  9  1  0  0  0  0
 20 16  2  0  0  0  0
 21  1  2  0  0  0  0
 22 21  1  0  0  0  0
 23 15  1  0  0  0  0
 24  5  1  0  0  0  0
 25 17  1  0  0  0  0
 25 19  1  0  0  0  0
 26 24  1  0  0  0  0
 28 12  1  0  0  0  0
M  END
>  <MODEL>
3

>  <REMARK>
 VINA RESULT:      -8.2      2.360      3.059
  Name = 
  0 active torsions:
  status: ('A' for Active; 'I' for Inactive)
                            x       y       z     vdW  Elec       q    Type
                         _______ _______ _______ _____ _____    ______ ____

>  <TORSDO>
F 0

$$$$
=
 OpenBabel11112417353D

 28 32  0  0  1  0  0  0  0  0999 V2000
  191.6790  175.4020  142.6050 C   0  0  0  0  0  0  0  0  0  0  0  0
  187.3000  176.3360  140.9720 O   0  0  0  0  0  0  0  0  0  0  0  0
  189.0140  174.3680  147.8770 O   0  0  0  0  0  0  0  0  0  0  0  0
  190.4660  173.8450  140.6100 C   0  0  0  0  0  3  0  0  0  0  0  0
  188.3470  176.3350  146.7210 C   0  0  1  0  0  3  0  0  0  0  0  0
  192.4060  176.1850  143.6590 C   0  0  0  0  0  2  0  0  0  0  0  0
  186.3520  175.4640  143.0720 O   0  0  0  0  0  0  0  0  0  0  0  0
  187.0610  176.6220  142.4280 S   0  0  0  0  0  0  0  0  0  0  0  0
  186.2080  178.7550  143.6700 C   0  0  0  0  0  0  0  0  0  0  0  0
  188.6110  176.9700  143.2420 C   0  0  1  0  0  3  0  0  0  0  0  0
  192.6320  173.0500  145.0950 O   0  0  0  0  0  0  0  0  0  0  0  0
  190.0050  176.0460  144.9510 N   0  0  1  0  0  0  0  0  0  0  0  0
  187.0010  178.2840  144.8600 C   0  0  0  0  0  2  0  0  0  0  0  0
  186.1330  178.0520  142.5940 N   0  0  0  0  0  0  0  0  0  0  0  0
  192.4350  174.2730  145.3140 C   0  0  0  0  0  0  0  0  0  0  0  0
  190.2760  175.1650  142.6470 C   0  0  0  0  0  0  0  0  0  0  0  0
  189.1480  175.1170  146.9230 C   0  0  0  0  0  0  0  0  0  0  0  0
  185.4400  180.0270  143.7690 C   0  0  0  0  0  1  0  0  0  0  0  0
  191.4320  174.6690  146.2500 N   0  0  0  0  0  2  0  0  0  0  0  0
  189.6950  174.3790  141.6420 C   0  0  0  0  0  3  0  0  0  0  0  0
  192.4390  174.8620  141.5590 C   0  0  0  0  0  3  0  0  0  0  0  0
  191.8370  174.0890  140.5660 C   0  0  0  0  0  3  0  0  0  0  0  0
  193.2480  175.2940  144.5760 C   0  0  0  0  0  2  0  0  0  0  0  0
  189.1530  177.0400  145.6120 C   0  0  1  0  0  3  0  0  0  0  0  0
  190.0650  174.8570  145.7930 C   0  0  2  0  0  3  0  0  0  0  0  0
  188.4280  177.8170  144.5060 C   0  0  1  0  0  3  0  0  0  0  0  0
  187.0790  175.9420  146.2820 O   0  0  0  0  0  1  0  0  0  0  0  0
  189.3320  175.7130  143.7010 C   0  0  2  0  0  3  0  0  0  0  0  0
  1 16  1  0  0  0  0
  1  6  1  0  0  0  0
  2  8  2  0  0  0  0
  4 20  1  0  0  0  0
  5 27  1  6  0  0  0
  5 17  1  0  0  0  0
  6 23  1  0  0  0  0
  8 14  1  0  0  0  0
  8  7  2  0  0  0  0
  9 18  1  0  0  0  0
  9 13  1  0  0  0  0
 10  8  1  1  0  0  0
 10 28  1  0  0  0  0
 10 26  1  0  0  0  0
 11 15  2  0  0  0  0
 12 24  1  0  0  0  0
 12 25  1  0  0  0  0
 14  9  2  0  0  0  0
 15 19  1  0  0  0  0
 16 28  1  0  0  0  0
 17  3  2  0  0  0  0
 20 16  2  0  0  0  0
 21  1  2  0  0  0  0
 22  4  2  0  0  0  0
 22 21  1  0  0  0  0
 23 15  1  0  0  0  0
 24  5  1  0  0  0  0
 25 19  1  0  0  0  0
 25 17  1  0  0  0  0
 26 13  1  0  0  0  0
 26 24  1  0  0  0  0
 28 12  1  0  0  0  0
M  END
>  <MODEL>
4

>  <REMARK>
 VINA RESULT:      -7.8      2.454      5.664
  Name = 
  0 active torsions:
  status: ('A' for Active; 'I' for Inactive)
                            x       y       z     vdW  Elec       q    Type
                         _______ _______ _______ _____ _____    ______ ____

>  <TORSDO>
F 0

$$$$
=
 OpenBabel11112417353D

 28 32  0  0  1  0  0  0  0  0999 V2000
  189.0420  176.8260  144.7300 C   0  0  0  0  0  0  0  0  0  0  0  0
  192.6700  174.7280  146.9990 O   0  0  0  0  0  0  0  0  0  0  0  0
  190.2350  173.0340  140.2380 O   0  0  0  0  0  0  0  0  0  0  0  0
  188.6810  175.3880  147.1120 C   0  0  0  0  0  3  0  0  0  0  0  0
  192.0990  174.1430  141.2120 C   0  0  1  0  0  3  0  0  0  0  0  0
  189.1450  177.6210  143.4600 C   0  0  0  0  0  2  0  0  0  0  0  0
  192.7320  172.9900  145.2530 O   0  0  0  0  0  0  0  0  0  0  0  0
  193.0780  174.4140  145.5870 S   0  0  0  0  0  0  0  0  0  0  0  0
  195.2500  174.9500  144.2390 C   0  0  0  0  0  0  0  0  0  0  0  0
  192.2960  175.5550  144.4590 C   0  0  1  0  0  3  0  0  0  0  0  0
  186.7340  175.3550  142.4590 O   0  0  0  0  0  0  0  0  0  0  0  0
  190.7130  175.5310  142.6680 N   0  0  1  0  0  0  0  0  0  0  0  0
  194.3950  174.9210  143.0000 C   0  0  0  0  0  2  0  0  0  0  0  0
  194.7610  174.6750  145.3970 N   0  0  0  0  0  0  0  0  0  0  0  0
  187.7680  175.9820  142.1120 C   0  0  0  0  0  0  0  0  0  0  0  0
  189.8260  175.6650  144.9820 C   0  0  0  0  0  0  0  0  0  0  0  0
  190.6670  173.8500  141.0370 C   0  0  0  0  0  0  0  0  0  0  0  0
  196.7060  175.2320  144.1070 C   0  0  0  0  0  1  0  0  0  0  0  0
  188.7650  175.3220  141.3320 N   0  0  0  0  0  2  0  0  0  0  0  0
  189.6230  174.9610  146.1760 C   0  0  0  0  0  3  0  0  0  0  0  0
  188.1020  177.2440  145.6810 C   0  0  0  0  0  3  0  0  0  0  0  0
  187.9230  176.5320  146.8670 C   0  0  0  0  0  3  0  0  0  0  0  0
  187.9420  177.4100  142.5360 C   0  0  0  0  0  2  0  0  0  0  0  0
  192.0360  175.4400  142.0430 C   0  0  1  0  0  3  0  0  0  0  0  0
  189.8240  174.5850  142.0030 C   0  0  2  0  0  3  0  0  0  0  0  0
  193.0720  175.7010  143.1450 C   0  0  1  0  0  3  0  0  0  0  0  0
  192.6650  173.0840  141.9290 O   0  0  0  0  0  1  0  0  0  0  0  0
  190.8970  175.1200  144.0550 C   0  0  2  0  0  3  0  0  0  0  0  0
  1 16  2  0  0  0  0
  1 21  1  0  0  0  0
  3 17  2  0  0  0  0
  5 27  1  1  0  0  0
  5 24  1  0  0  0  0
  6  1  1  0  0  0  0
  7  8  2  0  0  0  0
  8  2  2  0  0  0  0
  9 14  2  0  0  0  0
 10  8  1  1  0  0  0
 12 28  1  0  0  0  0
 13 26  1  0  0  0  0
 13  9  1  0  0  0  0
 14  8  1  0  0  0  0
 15 11  2  0  0  0  0
 15 23  1  0  0  0  0
 16 20  1  0  0  0  0
 17  5  1  0  0  0  0
 17 25  1  0  0  0  0
 18  9  1  0  0  0  0
 19 25  1  0  0  0  0
 19 15  1  0  0  0  0
 20  4  2  0  0  0  0
 21 22  2  0  0  0  0
 22  4  1  0  0  0  0
 23  6  1  0  0  0  0
 24 12  1  0  0  0  0
 24 26  1  0  0  0  0
 25 12  1  0  0  0  0
 26 10  1  0  0  0  0
 28 10  1  0  0  0  0
 28 16  1  0  0  0  0
M  END
>  <MODEL>
5

>  <REMARK>
 VINA RESULT:      -7.7      3.475      6.085
  Name = 
  0 active torsions:
  status: ('A' for Active; 'I' for Inactive)
                            x       y       z     vdW  Elec       q    Type
                         _______ _______ _______ _____ _____    ______ ____

>  <TORSDO>
F 0

$$$$
=
 OpenBabel11112417353D

 28 32  0  0  1  0  0  0  0  0999 V2000
  188.3490  175.7660  146.6290 C   0  0  0  0  0  0  0  0  0  0  0  0
  186.7780  176.4830  142.1870 O   0  0  0  0  0  0  0  0  0  0  0  0
  193.8360  176.5880  144.3510 O   0  0  0  0  0  0  0  0  0  0  0  0
  186.7090  177.9430  145.9590 C   0  0  0  0  0  3  0  0  0  0  0  0
  192.3880  175.1480  143.1330 C   0  0  1  0  0  3  0  0  0  0  0  0
  189.2180  174.6280  147.0770 C   0  0  0  0  0  2  0  0  0  0  0  0
  189.0380  177.2080  141.5250 O   0  0  0  0  0  0  0  0  0  0  0  0
  188.1720  176.0260  141.8600 S   0  0  0  0  0  0  0  0  0  0  0  0
  189.0640  174.0570  140.3940 C   0  0  0  0  0  0  0  0  0  0  0  0
  188.8440  175.0940  143.2260 C   0  0  1  0  0  3  0  0  0  0  0  0
  191.1620  177.2460  148.2230 O   0  0  0  0  0  0  0  0  0  0  0  0
  190.6210  175.2420  144.8170 N   0  0  1  0  0  0  0  0  0  0  0  0
  190.2810  174.0520  141.2810 C   0  0  0  0  0  2  0  0  0  0  0  0
  188.1310  174.9310  140.5440 N   0  0  0  0  0  0  0  0  0  0  0  0
  191.1760  176.1180  147.6650 C   0  0  0  0  0  0  0  0  0  0  0  0
  188.4940  176.3980  145.3620 C   0  0  0  0  0  0  0  0  0  0  0  0
  192.7610  176.0160  144.2620 C   0  0  0  0  0  0  0  0  0  0  0  0
  188.9770  173.0760  139.2780 C   0  0  0  0  0  1  0  0  0  0  0  0
  192.0730  175.8770  146.5810 N   0  0  0  0  0  2  0  0  0  0  0  0
  187.6680  177.4870  145.0530 C   0  0  0  0  0  3  0  0  0  0  0  0
  187.3790  176.2330  147.5260 C   0  0  0  0  0  3  0  0  0  0  0  0
  186.5620  177.3140  147.1930 C   0  0  0  0  0  3  0  0  0  0  0  0
  190.2370  175.0500  148.1400 C   0  0  0  0  0  2  0  0  0  0  0  0
  191.1390  174.4450  143.7010 C   0  0  1  0  0  3  0  0  0  0  0  0
  191.6530  176.1890  145.2250 C   0  0  2  0  0  3  0  0  0  0  0  0
  189.9490  174.1280  142.7850 C   0  0  1  0  0  3  0  0  0  0  0  0
  192.0820  175.9710  142.0470 O   0  0  0  0  0  1  0  0  0  0  0  0
  189.4790  175.9770  144.2870 C   0  0  2  0  0  3  0  0  0  0  0  0
  1  6  1  0  0  0  0
  1 21  1  0  0  0  0
  4 22  1  0  0  0  0
  5 27  1  6  0  0  0
  5 24  1  0  0  0  0
  5 17  1  0  0  0  0
  6 23  1  0  0  0  0
  7  8  2  0  0  0  0
  8  2  2  0  0  0  0
  9 14  2  0  0  0  0
  9 13  1  0  0  0  0
 10  8  1  6  0  0  0
 10 28  1  0  0  0  0
 12 25  1  0  0  0  0
 13 26  1  0  0  0  0
 14  8  1  0  0  0  0
 15 23  1  0  0  0  0
 15 11  2  0  0  0  0
 16  1  2  0  0  0  0
 17  3  2  0  0  0  0
 17 25  1  0  0  0  0
 18  9  1  0  0  0  0
 19 15  1  0  0  0  0
 20 16  1  0  0  0  0
 20  4  2  0  0  0  0
 22 21  2  0  0  0  0
 24 12  1  0  0  0  0
 25 19  1  0  0  0  0
 26 10  1  0  0  0  0
 26 24  1  0  0  0  0
 28 12  1  0  0  0  0
 28 16  1  0  0  0  0
M  END
>  <MODEL>
6

>  <REMARK>
 VINA RESULT:      -7.7      2.034      2.849
  Name = 
  0 active torsions:
  status: ('A' for Active; 'I' for Inactive)
                            x       y       z     vdW  Elec       q    Type
                         _______ _______ _______ _____ _____    ______ ____

>  <TORSDO>
F 0

$$$$
=
 OpenBabel11112417353D

 28 32  0  0  1  0  0  0  0  0999 V2000
  189.5670  173.3000  142.8850 C   0  0  0  0  0  0  0  0  0  0  0  0
  190.0980  176.4630  146.4110 O   0  0  0  0  0  0  0  0  0  0  0  0
  187.0390  177.7960  139.8260 O   0  0  0  0  0  0  0  0  0  0  0  0
  192.0950  174.0900  143.8130 C   0  0  0  0  0  3  0  0  0  0  0  0
  186.3230  177.5120  142.0750 C   0  0  1  0  0  3  0  0  0  0  0  0
  188.2570  172.8140  142.3340 C   0  0  0  0  0  2  0  0  0  0  0  0
  189.4360  178.2650  144.8670 O   0  0  0  0  0  0  0  0  0  0  0  0
  188.9460  177.1130  145.6980 S   0  0  0  0  0  0  0  0  0  0  0  0
  186.5540  177.7870  146.5030 C   0  0  0  0  0  0  0  0  0  0  0  0
  188.0890  175.9080  144.6990 C   0  0  1  0  0  3  0  0  0  0  0  0
  189.6970  173.8840  139.3800 O   0  0  0  0  0  0  0  0  0  0  0  0
  187.6240  175.4690  142.3950 N   0  0  1  0  0  0  0  0  0  0  0  0
  186.1070  177.6000  145.0770 C   0  0  0  0  0  2  0  0  0  0  0  0
  187.7890  177.6560  146.8400 N   0  0  0  0  0  0  0  0  0  0  0  0
  188.6340  173.8360  140.0510 C   0  0  0  0  0  0  0  0  0  0  0  0
  189.7780  174.6420  143.3090 C   0  0  0  0  0  0  0  0  0  0  0  0
  187.0830  177.1580  140.8650 C   0  0  0  0  0  0  0  0  0  0  0  0
  185.5560  178.2020  147.5270 C   0  0  0  0  0  1  0  0  0  0  0  0
  187.7670  174.9690  140.0820 N   0  0  0  0  0  2  0  0  0  0  0  0
  191.0500  175.0140  143.7630 C   0  0  0  0  0  3  0  0  0  0  0  0
  190.6250  172.3830  142.9450 C   0  0  0  0  0  3  0  0  0  0  0  0
  191.8810  172.7740  143.4080 C   0  0  0  0  0  3  0  0  0  0  0  0
  188.3040  172.5910  140.8190 C   0  0  0  0  0  2  0  0  0  0  0  0
  186.4750  176.2230  142.9070 C   0  0  1  0  0  3  0  0  0  0  0  0
  187.9770  176.0010  141.0850 C   0  0  2  0  0  3  0  0  0  0  0  0
  186.6320  176.3020  144.4310 C   0  0  1  0  0  3  0  0  0  0  0  0
  186.9580  178.6030  142.6730 O   0  0  0  0  0  1  0  0  0  0  0  0
  188.7160  175.7260  143.3260 C   0  0  2  0  0  3  0  0  0  0  0  0
  1 21  2  0  0  0  0
  1 16  1  0  0  0  0
  3 17  2  0  0  0  0
  5 27  1  1  0  0  0
  5 24  1  0  0  0  0
  6  1  1  0  0  0  0
  7  8  2  0  0  0  0
  8  2  2  0  0  0  0
  8 14  1  0  0  0  0
  9 14  2  0  0  0  0
  9 18  1  0  0  0  0
 10  8  1  6  0  0  0
 11 15  2  0  0  0  0
 12 24  1  0  0  0  0
 12 28  1  0  0  0  0
 13  9  1  0  0  0  0
 15 19  1  0  0  0  0
 15 23  1  0  0  0  0
 16 28  1  0  0  0  0
 16 20  2  0  0  0  0
 17 25  1  0  0  0  0
 17  5  1  0  0  0  0
 19 25  1  0  0  0  0
 20  4  1  0  0  0  0
 21 22  1  0  0  0  0
 22  4  2  0  0  0  0
 23  6  1  0  0  0  0
 24 26  1  0  0  0  0
 25 12  1  0  0  0  0
 26 10  1  0  0  0  0
 26 13  1  0  0  0  0
 28 10  1  0  0  0  0
M  END
>  <MODEL>
7

>  <REMARK>
 VINA RESULT:      -7.7      2.173      6.594
  Name = 
  0 active torsions:
  status: ('A' for Active; 'I' for Inactive)
                            x       y       z     vdW  Elec       q    Type
                         _______ _______ _______ _____ _____    ______ ____

>  <TORSDO>
F 0

$$$$
=
 OpenBabel11112417353D

 28 32  0  0  1  0  0  0  0  0999 V2000
  192.0720  175.1890  144.7320 C   0  0  0  0  0  0  0  0  0  0  0  0
  189.4420  173.7050  141.0450 O   0  0  0  0  0  0  0  0  0  0  0  0
  186.8510  176.6210  147.3130 O   0  0  0  0  0  0  0  0  0  0  0  0
  192.0220  172.5040  143.9200 C   0  0  0  0  0  3  0  0  0  0  0  0
  187.1280  177.2820  145.0460 C   0  0  1  0  0  3  0  0  0  0  0  0
  192.1660  176.6030  145.2280 C   0  0  0  0  0  2  0  0  0  0  0  0
  187.4110  173.9540  142.4180 O   0  0  0  0  0  0  0  0  0  0  0  0
  188.4670  174.6840  141.6360 S   0  0  0  0  0  0  0  0  0  0  0  0
  187.2800  176.7840  140.6340 C   0  0  0  0  0  0  0  0  0  0  0  0
  189.3320  175.8660  142.6560 C   0  0  1  0  0  3  0  0  0  0  0  0
  191.2570  175.0750  148.1910 O   0  0  0  0  0  0  0  0  0  0  0  0
  189.4510  176.5330  144.9480 N   0  0  1  0  0  0  0  0  0  0  0  0
  187.2320  177.3290  142.0360 C   0  0  0  0  0  2  0  0  0  0  0  0
  187.7450  175.6090  140.3870 N   0  0  0  0  0  0  0  0  0  0  0  0
  191.0900  176.0830  147.4570 C   0  0  0  0  0  0  0  0  0  0  0  0
  190.8650  174.6230  144.2330 C   0  0  0  0  0  0  0  0  0  0  0  0
  187.5620  176.6930  146.3240 C   0  0  0  0  0  0  0  0  0  0  0  0
  186.7120  177.5950  139.5220 C   0  0  0  0  0  1  0  0  0  0  0  0
  189.7810  176.6290  147.2940 N   0  0  0  0  0  2  0  0  0  0  0  0
  190.8640  173.2780  143.8400 C   0  0  0  0  0  3  0  0  0  0  0  0
  193.2280  174.4000  144.8020 C   0  0  0  0  0  3  0  0  0  0  0  0
  193.2040  173.0660  144.3970 C   0  0  0  0  0  3  0  0  0  0  0  0
  192.2700  176.6850  146.7540 C   0  0  0  0  0  2  0  0  0  0  0  0
  188.4770  177.4260  144.3140 C   0  0  1  0  0  3  0  0  0  0  0  0
  188.9210  176.1160  146.2410 C   0  0  2  0  0  3  0  0  0  0  0  0
  188.5640  177.1840  142.8010 C   0  0  1  0  0  3  0  0  0  0  0  0
  186.2840  176.3610  144.4190 O   0  0  0  0  0  1  0  0  0  0  0  0
  189.5540  175.3700  144.0750 C   0  0  2  0  0  3  0  0  0  0  0  0
  1 21  1  0  0  0  0
  1  6  1  0  0  0  0
  2  8  2  0  0  0  0
  4 22  1  0  0  0  0
  5 27  1  6  0  0  0
  5 17  1  0  0  0  0
  6 23  1  0  0  0  0
  8  7  2  0  0  0  0
  9 13  1  0  0  0  0
 10  8  1  6  0  0  0
 10 26  1  0  0  0  0
 10 28  1  0  0  0  0
 12 25  1  0  0  0  0
 13 26  1  0  0  0  0
 14  9  2  0  0  0  0
 14  8  1  0  0  0  0
 15 11  2  0  0  0  0
 16  1  2  0  0  0  0
 17  3  2  0  0  0  0
 18  9  1  0  0  0  0
 19 15  1  0  0  0  0
 20  4  2  0  0  0  0
 20 16  1  0  0  0  0
 22 21  2  0  0  0  0
 23 15  1  0  0  0  0
 24 12  1  0  0  0  0
 24  5  1  0  0  0  0
 25 17  1  0  0  0  0
 25 19  1  0  0  0  0
 26 24  1  0  0  0  0
 28 16  1  0  0  0  0
 28 12  1  0  0  0  0
M  END
>  <MODEL>
8

>  <REMARK>
 VINA RESULT:      -7.6      2.470      5.271
  Name = 
  0 active torsions:
  status: ('A' for Active; 'I' for Inactive)
                            x       y       z     vdW  Elec       q    Type
                         _______ _______ _______ _____ _____    ______ ____

>  <TORSDO>
F 0

$$$$
=
 OpenBabel11112417353D

 28 32  0  0  1  0  0  0  0  0999 V2000
  189.3890  176.8270  144.3610 C   0  0  0  0  0  0  0  0  0  0  0  0
  192.6890  173.8360  146.0570 O   0  0  0  0  0  0  0  0  0  0  0  0
  188.4380  172.6810  140.1330 O   0  0  0  0  0  0  0  0  0  0  0  0
  189.1760  175.6540  146.9020 C   0  0  0  0  0  3  0  0  0  0  0  0
  190.7060  173.2220  140.5940 C   0  0  1  0  0  3  0  0  0  0  0  0
  189.4270  177.5050  143.0220 C   0  0  0  0  0  2  0  0  0  0  0  0
  191.8700  172.0920  144.5210 O   0  0  0  0  0  0  0  0  0  0  0  0
  192.6680  173.3600  144.6310 S   0  0  0  0  0  0  0  0  0  0  0  0
  194.5470  173.1740  142.8270 C   0  0  0  0  0  0  0  0  0  0  0  0
  192.0090  174.6380  143.5730 C   0  0  1  0  0  3  0  0  0  0  0  0
  186.3160  176.0200  142.7630 O   0  0  0  0  0  0  0  0  0  0  0  0
  190.1260  175.0150  142.1490 N   0  0  1  0  0  0  0  0  0  0  0  0
  193.4650  173.3530  141.7950 C   0  0  0  0  0  2  0  0  0  0  0  0
  194.2700  173.1020  144.0820 N   0  0  0  0  0  0  0  0  0  0  0  0
  187.3810  176.2980  142.1530 C   0  0  0  0  0  0  0  0  0  0  0  0
  189.8500  175.4960  144.5680 C   0  0  0  0  0  0  0  0  0  0  0  0
  189.2480  173.3610  140.7410 C   0  0  0  0  0  0  0  0  0  0  0  0
  195.9560  173.0060  142.3770 C   0  0  0  0  0  1  0  0  0  0  0  0
  187.9530  175.3420  141.2600 N   0  0  0  0  0  2  0  0  0  0  0  0
  189.7280  174.9300  145.8440 C   0  0  0  0  0  3  0  0  0  0  0  0
  188.8410  177.5420  145.4340 C   0  0  0  0  0  3  0  0  0  0  0  0
  188.7360  176.9610  146.6980 C   0  0  0  0  0  3  0  0  0  0  0  0
  188.0390  177.6250  142.3860 C   0  0  0  0  0  2  0  0  0  0  0  0
  191.1980  174.5110  141.2840 C   0  0  1  0  0  3  0  0  0  0  0  0
  188.8830  174.3510  141.7760 C   0  0  2  0  0  3  0  0  0  0  0  0
  192.4820  174.4950  142.1230 C   0  0  1  0  0  3  0  0  0  0  0  0
  191.0960  172.0720  141.2860 O   0  0  0  0  0  1  0  0  0  0  0  0
  190.4900  174.6220  143.5050 C   0  0  2  0  0  3  0  0  0  0  0  0
  1 16  2  0  0  0  0
  1 21  1  0  0  0  0
  3 17  2  0  0  0  0
  5 17  1  0  0  0  0
  5 24  1  0  0  0  0
  5 27  1  1  0  0  0
  6  1  1  0  0  0  0
  7  8  2  0  0  0  0
  8  2  2  0  0  0  0
  9 14  2  0  0  0  0
 10  8  1  1  0  0  0
 12 28  1  0  0  0  0
 13 26  1  0  0  0  0
 13  9  1  0  0  0  0
 14  8  1  0  0  0  0
 15 23  1  0  0  0  0
 15 11  2  0  0  0  0
 16 20  1  0  0  0  0
 17 25  1  0  0  0  0
 18  9  1  0  0  0  0
 19 25  1  0  0  0  0
 19 15  1  0  0  0  0
 20  4  2  0  0  0  0
 21 22  2  0  0  0  0
 22  4  1  0  0  0  0
 23  6  1  0  0  0  0
 24 26  1  0  0  0  0
 24 12  1  0  0  0  0
 25 12  1  0  0  0  0
 26 10  1  0  0  0  0
 28 10  1  0  0  0  0
 28 16  1  0  0  0  0
M  END
>  <MODEL>
9

>  <REMARK>
 VINA RESULT:      -7.1      3.560      5.965
  Name = 
  0 active torsions:
  status: ('A' for Active; 'I' for Inactive)
                            x       y       z     vdW  Elec       q    Type
                         _______ _______ _______ _____ _____    ______ ____

>  <TORSDO>
F 0

$$$$
