=
 OpenBabel11112417553D

 34 41  0  0  1  0  0  0  0  0999 V2000
  190.2840  175.5730  142.3880 C   0  0  2  0  0  3  0  0  0  0  0  0
  192.3970  174.3860  142.2730 C   0  0  0  0  0  2  0  0  0  0  0  0
  185.3940  178.7830  145.8580 C   0  0  0  0  0  0  0  0  0  0  0  0
  188.1290  176.8460  142.6920 C   0  0  1  0  0  3  0  0  0  0  0  0
  187.4690  177.5960  145.0470 C   0  0  1  0  0  3  0  0  0  0  0  0
  186.8150  178.1630  147.4050 C   0  0  0  0  0  2  0  0  0  0  0  0
  185.8780  179.3010  147.1930 C   0  0  0  0  0  2  0  0  0  0  0  0
  184.3740  178.1050  143.4600 S   0  0  0  0  0  0  0  0  0  0  0  0
  191.8140  175.4940  144.1510 C   0  0  1  0  0  3  0  0  0  0  0  0
  193.7630  175.8550  146.7630 C   0  0  0  0  0  2  0  0  0  0  0  0
  188.5550  176.6270  145.5310 C   0  0  0  0  0  2  0  0  0  0  0  0
  186.1220  178.2800  142.9920 C   0  0  0  0  0  2  0  0  0  0  0  0
  190.7580  175.8140  145.2150 C   0  0  2  0  0  3  0  0  0  0  0  0
  193.5570  174.2020  143.2500 C   0  0  0  0  0  2  0  0  0  0  0  0
  186.9630  177.1750  143.6370 C   0  0  1  0  0  3  0  0  0  0  0  0
  184.5800  179.1690  144.8830 C   0  0  0  0  0  3  0  0  0  0  0  0
  194.0320  175.6960  145.2590 C   0  0  2  0  0  3  0  0  0  0  0  0
  189.1580  175.9400  143.3780 C   0  0  2  0  0  3  0  0  0  0  0  0
  186.3390  177.6200  146.0940 C   0  0  1  0  0  3  0  0  0  0  0  0
  189.6730  176.5990  144.5930 N   0  0  1  0  0  0  0  0  0  0  0  0
  188.1940  174.8690  141.0560 C   0  0  0  0  0  2  0  0  0  0  0  0
  192.2970  175.7580  147.1930 C   0  0  0  0  0  2  0  0  0  0  0  0
  187.6230  176.2550  141.3600 C   0  0  0  0  0  2  0  0  0  0  0  0
  191.3890  176.6350  146.3450 C   0  0  0  0  0  2  0  0  0  0  0  0
  193.0460  174.7350  144.5820 C   0  0  1  0  0  3  0  0  0  0  0  0
  189.7240  174.8780  141.1280 C   0  0  0  0  0  2  0  0  0  0  0  0
  191.2310  174.7080  143.0840 N   0  0  1  0  0  0  0  0  0  0  0  0
  195.3520  175.2740  145.0820 O   0  0  0  0  0  0  0  0  0  0  0  0
  195.6280  174.4830  146.2010 C   0  0  0  0  0  2  0  0  0  0  0  0
  196.6670  171.8750  144.5590 O   0  0  0  0  0  0  0  0  0  0  0  0
  197.5120  174.0750  144.6550 C   0  0  0  0  0  2  0  0  0  0  0  0
  196.9340  173.7360  145.9980 C   0  0  2  0  0  3  0  0  0  0  0  0
  197.5720  172.7480  143.9400 C   0  0  0  0  0  2  0  0  0  0  0  0
  196.6570  172.2530  145.9090 C   0  0  0  0  0  2  0  0  0  0  0  0
  1 26  1  6  0  0  0
  1 27  1  0  0  0  0
  1 18  1  0  0  0  0
  2 27  1  0  0  0  0
  2 14  1  0  0  0  0
  3 19  1  0  0  0  0
  3  7  1  0  0  0  0
  4 23  1  6  0  0  0
  4 18  1  0  0  0  0
  4 15  1  0  0  0  0
  5 11  1  1  0  0  0
  5 19  1  0  0  0  0
  7  6  1  0  0  0  0
  8 16  1  0  0  0  0
  9 25  1  0  0  0  0
  9 13  1  0  0  0  0
 10 22  1  0  0  0  0
 12  8  1  0  0  0  0
 12 15  1  0  0  0  0
 13 24  1  0  0  0  0
 14 25  1  0  0  0  0
 15  5  1  0  0  0  0
 16  3  2  0  0  0  0
 17 10  1  0  0  0  0
 18 20  1  0  0  0  0
 19  6  1  0  0  0  0
 20 13  1  0  0  0  0
 20 11  1  0  0  0  0
 21 26  1  0  0  0  0
 21 23  1  0  0  0  0
 24 22  1  0  0  0  0
 25 17  1  0  0  0  0
 27  9  1  0  0  0  0
 28 17  1  0  0  0  0
 28 29  1  0  0  0  0
 30 34  1  0  0  0  0
 31 32  1  0  0  0  0
 32 29  1  0  0  0  0
 33 30  1  0  0  0  0
 33 31  1  0  0  0  0
 34 32  1  0  0  0  0
M  END
>  <MODEL>
1

>  <REMARK>
 VINA RESULT:      -8.8      0.000      0.000
  Name = 
  3 active torsions:
  status: ('A' for Active; 'I' for Inactive)
    1  A    between atoms: C_17  and  O_28
    2  A    between atoms: O_28  and  C_29
    3  A    between atoms: C_29  and  C_32
                            x       y       z     vdW  Elec       q    Type
                         _______ _______ _______ _____ _____    ______ ____

>  <TORSDO>
F 3

$$$$
=
 OpenBabel11112417553D

 34 41  0  0  1  0  0  0  0  0999 V2000
  192.1230  176.5400  145.4700 C   0  0  2  0  0  3  0  0  0  0  0  0
  190.0870  176.6560  146.7860 C   0  0  0  0  0  2  0  0  0  0  0  0
  195.4870  175.0300  139.7550 C   0  0  0  0  0  0  0  0  0  0  0  0
  194.1290  176.3740  143.9510 C   0  0  1  0  0  3  0  0  0  0  0  0
  193.7990  175.4740  141.5790 C   0  0  1  0  0  3  0  0  0  0  0  0
  193.4230  174.4400  139.3210 C   0  0  0  0  0  2  0  0  0  0  0  0
  194.5790  174.9740  138.5480 C   0  0  0  0  0  2  0  0  0  0  0  0
  197.3040  175.2530  141.7300 S   0  0  0  0  0  0  0  0  0  0  0  0
  189.9860  176.2930  144.5600 C   0  0  1  0  0  3  0  0  0  0  0  0
  187.1990  176.1450  142.8390 C   0  0  0  0  0  2  0  0  0  0  0  0
  192.4290  174.9990  142.0770 C   0  0  0  0  0  2  0  0  0  0  0  0
  196.0420  176.3980  142.3670 C   0  0  0  0  0  2  0  0  0  0  0  0
  190.4890  175.5350  143.3270 C   0  0  2  0  0  3  0  0  0  0  0  0
  188.6020  176.5560  146.4420 C   0  0  0  0  0  2  0  0  0  0  0  0
  194.7810  175.6300  142.7750 C   0  0  1  0  0  3  0  0  0  0  0  0
  196.7170  175.4360  140.0500 C   0  0  0  0  0  3  0  0  0  0  0  0
  187.6120  176.8900  144.1170 C   0  0  2  0  0  3  0  0  0  0  0  0
  192.7290  175.8200  144.2470 C   0  0  2  0  0  3  0  0  0  0  0  0
  194.3080  174.4700  140.5270 C   0  0  1  0  0  3  0  0  0  0  0  0
  191.8800  175.9410  143.0480 N   0  0  1  0  0  0  0  0  0  0  0  0
  194.3780  175.7370  146.4250 C   0  0  0  0  0  2  0  0  0  0  0  0
  188.2510  175.2040  142.2450 C   0  0  0  0  0  2  0  0  0  0  0  0
  195.0380  176.3650  145.1960 C   0  0  0  0  0  2  0  0  0  0  0  0
  189.6120  175.8700  142.1160 C   0  0  0  0  0  2  0  0  0  0  0  0
  188.5590  176.0660  144.9990 C   0  0  1  0  0  3  0  0  0  0  0  0
  193.0240  176.3930  146.7160 C   0  0  0  0  0  2  0  0  0  0  0  0
  190.8000  175.9730  145.7140 N   0  0  1  0  0  0  0  0  0  0  0  0
  186.4580  177.2530  144.8160 O   0  0  0  0  0  0  0  0  0  0  0  0
  186.1320  178.5240  144.3350 C   0  0  0  0  0  2  0  0  0  0  0  0
  183.9510  177.9120  146.6680 O   0  0  0  0  0  0  0  0  0  0  0  0
  186.0100  179.0620  146.7440 C   0  0  0  0  0  2  0  0  0  0  0  0
  185.3860  179.3060  145.4010 C   0  0  2  0  0  3  0  0  0  0  0  0
  184.8970  178.4450  147.5550 C   0  0  0  0  0  2  0  0  0  0  0  0
  183.9880  178.7510  145.5450 C   0  0  0  0  0  2  0  0  0  0  0  0
  1 27  1  0  0  0  0
  1 26  1  1  0  0  0
  3 16  2  0  0  0  0
  3 19  1  0  0  0  0
  4 18  1  0  0  0  0
  4 23  1  1  0  0  0
  5 11  1  1  0  0  0
  5 15  1  0  0  0  0
  6 19  1  0  0  0  0
  7  6  1  0  0  0  0
  7  3  1  0  0  0  0
  8 12  1  0  0  0  0
  9 25  1  0  0  0  0
  9 27  1  0  0  0  0
 10 17  1  0  0  0  0
 11 20  1  0  0  0  0
 12 15  1  0  0  0  0
 13  9  1  0  0  0  0
 14  2  1  0  0  0  0
 15  4  1  0  0  0  0
 16  8  1  0  0  0  0
 17 28  1  0  0  0  0
 17 25  1  0  0  0  0
 18  1  1  0  0  0  0
 19  5  1  0  0  0  0
 20 13  1  0  0  0  0
 20 18  1  0  0  0  0
 21 26  1  0  0  0  0
 22 10  1  0  0  0  0
 23 21  1  0  0  0  0
 24 22  1  0  0  0  0
 24 13  1  0  0  0  0
 25 14  1  0  0  0  0
 27  2  1  0  0  0  0
 29 28  1  0  0  0  0
 29 32  1  0  0  0  0
 30 33  1  0  0  0  0
 31 33  1  0  0  0  0
 32 34  1  0  0  0  0
 32 31  1  0  0  0  0
 34 30  1  0  0  0  0
M  END
>  <MODEL>
2

>  <REMARK>
 VINA RESULT:      -8.7      3.915      9.117
  Name = 
  3 active torsions:
  status: ('A' for Active; 'I' for Inactive)
    1  A    between atoms: C_17  and  O_28
    2  A    between atoms: O_28  and  C_29
    3  A    between atoms: C_29  and  C_32
                            x       y       z     vdW  Elec       q    Type
                         _______ _______ _______ _____ _____    ______ ____

>  <TORSDO>
F 3

$$$$
=
 OpenBabel11112417553D

 34 41  0  0  1  0  0  0  0  0999 V2000
  190.3780  176.2070  146.3090 C   0  0  2  0  0  3  0  0  0  0  0  0
  192.5810  175.3010  146.7660 C   0  0  0  0  0  2  0  0  0  0  0  0
  185.5210  178.2780  142.0220 C   0  0  0  0  0  0  0  0  0  0  0  0
  188.1180  177.1100  145.6480 C   0  0  1  0  0  3  0  0  0  0  0  0
  187.5710  177.3440  143.1600 C   0  0  1  0  0  3  0  0  0  0  0  0
  187.1670  177.6870  140.7040 C   0  0  0  0  0  2  0  0  0  0  0  0
  185.6790  177.6850  140.6400 C   0  0  0  0  0  2  0  0  0  0  0  0
  184.9510  179.3000  144.4470 S   0  0  0  0  0  0  0  0  0  0  0  0
  191.7240  175.2120  144.6810 C   0  0  1  0  0  3  0  0  0  0  0  0
  193.1570  173.6830  142.1590 C   0  0  0  0  0  2  0  0  0  0  0  0
  189.0750  177.1450  142.9320 C   0  0  0  0  0  2  0  0  0  0  0  0
  185.8290  177.7960  144.9660 C   0  0  0  0  0  2  0  0  0  0  0  0
  191.0150  175.9170  143.5190 C   0  0  2  0  0  3  0  0  0  0  0  0
  193.6290  174.5930  145.9090 C   0  0  0  0  0  2  0  0  0  0  0  0
  187.3120  177.8860  144.5940 C   0  0  1  0  0  3  0  0  0  0  0  0
  184.5380  178.5900  142.8580 C   0  0  0  0  0  3  0  0  0  0  0  0
  193.1670  173.4520  143.6770 C   0  0  2  0  0  3  0  0  0  0  0  0
  189.5770  176.9320  145.2070 C   0  0  2  0  0  3  0  0  0  0  0  0
  187.0370  178.2900  142.0670 C   0  0  1  0  0  3  0  0  0  0  0  0
  189.6260  176.2190  143.9170 N   0  0  1  0  0  0  0  0  0  0  0  0
  189.3520  178.1630  147.6360 C   0  0  0  0  0  2  0  0  0  0  0  0
  192.3890  174.9160  141.6760 C   0  0  0  0  0  2  0  0  0  0  0  0
  188.0020  177.7650  147.0390 C   0  0  0  0  0  2  0  0  0  0  0  0
  190.9990  175.0050  142.2870 C   0  0  0  0  0  2  0  0  0  0  0  0
  193.1510  174.7640  144.4720 C   0  0  1  0  0  3  0  0  0  0  0  0
  190.3200  176.9760  147.6480 C   0  0  0  0  0  2  0  0  0  0  0  0
  191.7550  176.0700  145.8460 N   0  0  1  0  0  0  0  0  0  0  0  0
  194.2830  172.6770  144.0040 O   0  0  0  0  0  0  0  0  0  0  0  0
  195.1370  172.7950  142.9030 C   0  0  0  0  0  2  0  0  0  0  0  0
  196.9320  174.8780  144.6400 O   0  0  0  0  0  0  0  0  0  0  0  0
  196.6690  172.5400  144.8250 C   0  0  0  0  0  2  0  0  0  0  0  0
  196.5750  172.9080  143.3730 C   0  0  2  0  0  3  0  0  0  0  0  0
  197.1980  173.7910  145.4830 C   0  0  0  0  0  2  0  0  0  0  0  0
  197.0020  174.3580  143.3380 C   0  0  0  0  0  2  0  0  0  0  0  0
  1 26  1  1  0  0  0
  3 19  1  0  0  0  0
  3 16  2  0  0  0  0
  4 23  1  1  0  0  0
  5 11  1  6  0  0  0
  5 15  1  0  0  0  0
  6 19  1  0  0  0  0
  7  6  1  0  0  0  0
  7  3  1  0  0  0  0
  8 12  1  0  0  0  0
  9 27  1  0  0  0  0
 10 17  1  0  0  0  0
 11 20  1  0  0  0  0
 13 20  1  0  0  0  0
 13  9  1  0  0  0  0
 14  2  1  0  0  0  0
 15 12  1  0  0  0  0
 15  4  1  0  0  0  0
 16  8  1  0  0  0  0
 17 28  1  0  0  0  0
 17 25  1  0  0  0  0
 18  4  1  0  0  0  0
 18  1  1  0  0  0  0
 19  5  1  0  0  0  0
 20 18  1  0  0  0  0
 21 26  1  0  0  0  0
 22 10  1  0  0  0  0
 22 24  1  0  0  0  0
 23 21  1  0  0  0  0
 24 13  1  0  0  0  0
 25  9  1  0  0  0  0
 25 14  1  0  0  0  0
 27  1  1  0  0  0  0
 27  2  1  0  0  0  0
 29 32  1  0  0  0  0
 29 28  1  0  0  0  0
 30 33  1  0  0  0  0
 31 33  1  0  0  0  0
 32 31  1  0  0  0  0
 34 32  1  0  0  0  0
 34 30  1  0  0  0  0
M  END
>  <MODEL>
3

>  <REMARK>
 VINA RESULT:      -8.4      1.441      3.827
  Name = 
  3 active torsions:
  status: ('A' for Active; 'I' for Inactive)
    1  A    between atoms: C_17  and  O_28
    2  A    between atoms: O_28  and  C_29
    3  A    between atoms: C_29  and  C_32
                            x       y       z     vdW  Elec       q    Type
                         _______ _______ _______ _____ _____    ______ ____

>  <TORSDO>
F 3

$$$$
=
 OpenBabel11112417553D

 34 41  0  0  1  0  0  0  0  0999 V2000
  189.7160  174.1540  142.2990 C   0  0  2  0  0  3  0  0  0  0  0  0
  187.5620  175.2700  142.3090 C   0  0  0  0  0  2  0  0  0  0  0  0
  196.0660  173.3620  144.6020 C   0  0  0  0  0  0  0  0  0  0  0  0
  192.0000  173.0940  142.4470 C   0  0  1  0  0  3  0  0  0  0  0  0
  193.6680  174.0090  144.1570 C   0  0  1  0  0  3  0  0  0  0  0  0
  195.2990  175.0600  145.7530 C   0  0  0  0  0  2  0  0  0  0  0  0
  196.2560  173.9420  145.9850 C   0  0  0  0  0  2  0  0  0  0  0  0
  195.9050  172.1100  142.2240 S   0  0  0  0  0  0  0  0  0  0  0  0
  189.0320  175.6170  143.9860 C   0  0  1  0  0  3  0  0  0  0  0  0
  188.3870  177.3850  146.6710 C   0  0  0  0  0  2  0  0  0  0  0  0
  192.7150  175.2050  144.2700 C   0  0  0  0  0  2  0  0  0  0  0  0
  194.1760  171.9370  142.7600 C   0  0  0  0  0  2  0  0  0  0  0  0
  190.4640  175.9270  144.4370 C   0  0  2  0  0  3  0  0  0  0  0  0
  186.8770  176.2300  143.2800 C   0  0  0  0  0  2  0  0  0  0  0  0
  193.4850  173.3040  142.7830 C   0  0  1  0  0  3  0  0  0  0  0  0
  196.4760  172.3070  143.9080 C   0  0  0  0  0  3  0  0  0  0  0  0
  187.5160  176.5430  145.7270 C   0  0  2  0  0  3  0  0  0  0  0  0
  191.1900  174.3710  142.7050 C   0  0  2  0  0  3  0  0  0  0  0  0
  195.1070  174.5140  144.3730 C   0  0  1  0  0  3  0  0  0  0  0  0
  191.3280  174.7740  144.1170 N   0  0  1  0  0  0  0  0  0  0  0  0
  190.9400  173.4650  140.1390 C   0  0  0  0  0  2  0  0  0  0  0  0
  189.8610  177.5170  146.2800 C   0  0  0  0  0  2  0  0  0  0  0  0
  191.8190  172.5650  141.0090 C   0  0  0  0  0  2  0  0  0  0  0  0
  190.4930  176.1740  145.9490 C   0  0  0  0  0  2  0  0  0  0  0  0
  187.9630  176.6470  144.2630 C   0  0  1  0  0  3  0  0  0  0  0  0
  189.5940  173.7410  140.8160 C   0  0  0  0  0  2  0  0  0  0  0  0
  188.9920  175.3950  142.5560 N   0  0  1  0  0  0  0  0  0  0  0  0
  186.1840  176.9360  145.8770 O   0  0  0  0  0  0  0  0  0  0  0  0
  186.2450  178.1570  146.5560 C   0  0  0  0  0  2  0  0  0  0  0  0
  185.3050  179.1480  143.6040 O   0  0  0  0  0  0  0  0  0  0  0  0
  184.0490  178.3700  145.4430 C   0  0  0  0  0  2  0  0  0  0  0  0
  185.2330  179.1260  145.9710 C   0  0  2  0  0  3  0  0  0  0  0  0
  184.0260  178.7110  143.9740 C   0  0  0  0  0  2  0  0  0  0  0  0
  185.8190  179.7850  144.7440 C   0  0  0  0  0  2  0  0  0  0  0  0
  1 26  1  6  0  0  0
  1 27  1  0  0  0  0
  1 18  1  0  0  0  0
  2 27  1  0  0  0  0
  2 14  1  0  0  0  0
  3  7  1  0  0  0  0
  4 23  1  6  0  0  0
  4 18  1  0  0  0  0
  4 15  1  0  0  0  0
  5 11  1  6  0  0  0
  5 19  1  0  0  0  0
  6  7  1  0  0  0  0
  8 12  1  0  0  0  0
  8 16  1  0  0  0  0
  9 25  1  0  0  0  0
  9 13  1  0  0  0  0
 12 15  1  0  0  0  0
 13 24  1  0  0  0  0
 14 25  1  0  0  0  0
 15  5  1  0  0  0  0
 16  3  2  0  0  0  0
 17 28  1  0  0  0  0
 17 10  1  0  0  0  0
 18 20  1  0  0  0  0
 19  3  1  0  0  0  0
 19  6  1  0  0  0  0
 20 11  1  0  0  0  0
 20 13  1  0  0  0  0
 21 26  1  0  0  0  0
 21 23  1  0  0  0  0
 22 10  1  0  0  0  0
 24 22  1  0  0  0  0
 25 17  1  0  0  0  0
 27  9  1  0  0  0  0
 28 29  1  0  0  0  0
 30 33  1  0  0  0  0
 30 34  1  0  0  0  0
 31 32  1  0  0  0  0
 32 29  1  0  0  0  0
 33 31  1  0  0  0  0
 34 32  1  0  0  0  0
M  END
>  <MODEL>
4

>  <REMARK>
 VINA RESULT:      -8.3      3.643      8.534
  Name = 
  3 active torsions:
  status: ('A' for Active; 'I' for Inactive)
    1  A    between atoms: C_17  and  O_28
    2  A    between atoms: O_28  and  C_29
    3  A    between atoms: C_29  and  C_32
                            x       y       z     vdW  Elec       q    Type
                         _______ _______ _______ _____ _____    ______ ____

>  <TORSDO>
F 3

$$$$
=
 OpenBabel11112417553D

 34 41  0  0  1  0  0  0  0  0999 V2000
  190.4260  172.5530  143.1580 C   0  0  2  0  0  3  0  0  0  0  0  0
  188.5050  173.8200  142.3890 C   0  0  0  0  0  2  0  0  0  0  0  0
  196.6980  172.1650  145.7590 C   0  0  0  0  0  0  0  0  0  0  0  0
  192.4960  171.4020  144.0240 C   0  0  1  0  0  3  0  0  0  0  0  0
  194.4210  172.8380  144.9030 C   0  0  1  0  0  3  0  0  0  0  0  0
  196.3260  174.3180  145.6060 C   0  0  0  0  0  2  0  0  0  0  0  0
  197.0900  173.4160  146.5130 C   0  0  0  0  0  2  0  0  0  0  0  0
  196.1430  169.7870  144.6250 S   0  0  0  0  0  0  0  0  0  0  0  0
  190.1360  174.8320  143.5770 C   0  0  1  0  0  3  0  0  0  0  0  0
  190.0120  177.9440  144.6040 C   0  0  0  0  0  2  0  0  0  0  0  0
  193.7020  174.0090  144.2220 C   0  0  0  0  0  2  0  0  0  0  0  0
  194.4560  170.2940  145.0750 C   0  0  0  0  0  2  0  0  0  0  0  0
  191.6290  175.0820  143.8120 C   0  0  2  0  0  3  0  0  0  0  0  0
  188.0720  175.2770  142.5440 C   0  0  0  0  0  2  0  0  0  0  0  0
  194.0150  171.4950  144.2320 C   0  0  1  0  0  3  0  0  0  0  0  0
  196.8650  170.8520  145.8680 C   0  0  0  0  0  3  0  0  0  0  0  0
  188.9390  176.8800  144.3250 C   0  0  2  0  0  3  0  0  0  0  0  0
  191.9410  172.6970  143.4160 C   0  0  2  0  0  3  0  0  0  0  0  0
  195.9380  173.0960  144.8340 C   0  0  1  0  0  3  0  0  0  0  0  0
  192.2540  173.8360  144.2980 N   0  0  1  0  0  0  0  0  0  0  0  0
  191.3450  170.4900  141.9180 C   0  0  0  0  0  2  0  0  0  0  0  0
  191.4520  177.5390  144.2810 C   0  0  0  0  0  2  0  0  0  0  0  0
  192.1170  170.1560  143.1960 C   0  0  0  0  0  2  0  0  0  0  0  0
  191.8140  176.1820  144.8640 C   0  0  0  0  0  2  0  0  0  0  0  0
  189.2860  175.9950  143.1220 C   0  0  1  0  0  3  0  0  0  0  0  0
  190.1220  171.3590  142.2260 C   0  0  0  0  0  2  0  0  0  0  0  0
  189.9500  173.8040  142.5750 N   0  0  1  0  0  0  0  0  0  0  0  0
  187.7100  177.5210  144.1440 O   0  0  0  0  0  0  0  0  0  0  0  0
  187.0670  177.4190  145.3810 C   0  0  0  0  0  2  0  0  0  0  0  0
  184.2780  179.0410  145.7970 O   0  0  0  0  0  0  0  0  0  0  0  0
  185.1160  177.8630  143.9310 C   0  0  0  0  0  2  0  0  0  0  0  0
  185.5850  177.1650  145.1750 C   0  0  2  0  0  3  0  0  0  0  0  0
  184.0640  178.8240  144.4290 C   0  0  0  0  0  2  0  0  0  0  0  0
  184.8020  177.8330  146.2820 C   0  0  0  0  0  2  0  0  0  0  0  0
  1 26  1  6  0  0  0
  1 18  1  0  0  0  0
  2 14  1  0  0  0  0
  2 27  1  0  0  0  0
  3 16  2  0  0  0  0
  3  7  1  0  0  0  0
  4 23  1  6  0  0  0
  4 15  1  0  0  0  0
  5 11  1  6  0  0  0
  6  7  1  0  0  0  0
  8 12  1  0  0  0  0
  8 16  1  0  0  0  0
  9 13  1  0  0  0  0
 11 20  1  0  0  0  0
 13 20  1  0  0  0  0
 13 24  1  0  0  0  0
 14 25  1  0  0  0  0
 15  5  1  0  0  0  0
 15 12  1  0  0  0  0
 17 10  1  0  0  0  0
 18  4  1  0  0  0  0
 18 20  1  0  0  0  0
 19  5  1  0  0  0  0
 19  6  1  0  0  0  0
 19  3  1  0  0  0  0
 21 26  1  0  0  0  0
 21 23  1  0  0  0  0
 22 10  1  0  0  0  0
 22 24  1  0  0  0  0
 25  9  1  0  0  0  0
 25 17  1  0  0  0  0
 27  1  1  0  0  0  0
 27  9  1  0  0  0  0
 28 17  1  0  0  0  0
 28 29  1  0  0  0  0
 30 34  1  0  0  0  0
 31 33  1  0  0  0  0
 31 32  1  0  0  0  0
 32 29  1  0  0  0  0
 32 34  1  0  0  0  0
 33 30  1  0  0  0  0
M  END
>  <MODEL>
5

>  <REMARK>
 VINA RESULT:      -8.2      3.995      8.918
  Name = 
  3 active torsions:
  status: ('A' for Active; 'I' for Inactive)
    1  A    between atoms: C_17  and  O_28
    2  A    between atoms: O_28  and  C_29
    3  A    between atoms: C_29  and  C_32
                            x       y       z     vdW  Elec       q    Type
                         _______ _______ _______ _____ _____    ______ ____

>  <TORSDO>
F 3

$$$$
=
 OpenBabel11112417553D

 34 41  0  0  1  0  0  0  0  0999 V2000
  193.5910  176.0860  145.2120 C   0  0  2  0  0  3  0  0  0  0  0  0
  192.1120  176.3900  147.1120 C   0  0  0  0  0  2  0  0  0  0  0  0
  194.7340  174.4670  138.7070 C   0  0  0  0  0  0  0  0  0  0  0  0
  194.9700  175.7490  143.1290 C   0  0  1  0  0  3  0  0  0  0  0  0
  193.7880  175.0240  140.9790 C   0  0  1  0  0  3  0  0  0  0  0  0
  192.5780  174.1660  138.9510 C   0  0  0  0  0  2  0  0  0  0  0  0
  193.4920  174.5900  137.8530 C   0  0  0  0  0  2  0  0  0  0  0  0
  197.0950  174.3530  139.9970 S   0  0  0  0  0  0  0  0  0  0  0  0
  191.2640  176.1610  145.0330 C   0  0  1  0  0  3  0  0  0  0  0  0
  188.0830  176.4580  144.2950 C   0  0  0  0  0  2  0  0  0  0  0  0
  192.5940  174.7000  141.8860 C   0  0  0  0  0  2  0  0  0  0  0  0
  196.2690  175.6130  141.0150 C   0  0  0  0  0  2  0  0  0  0  0  0
  191.2410  175.4110  143.6970 C   0  0  2  0  0  3  0  0  0  0  0  0
  190.5960  176.4970  147.2610 C   0  0  0  0  0  2  0  0  0  0  0  0
  195.1090  174.9910  141.7990 C   0  0  1  0  0  3  0  0  0  0  0  0
  196.0370  174.6970  138.5950 C   0  0  0  0  0  3  0  0  0  0  0  0
  188.9770  177.0760  145.3800 C   0  0  2  0  0  3  0  0  0  0  0  0
  193.6740  175.3610  143.8520 C   0  0  2  0  0  3  0  0  0  0  0  0
  193.7950  174.0200  139.8110 C   0  0  1  0  0  3  0  0  0  0  0  0
  192.5140  175.6520  142.9900 N   0  0  1  0  0  0  0  0  0  0  0  0
  195.9000  174.9550  145.3860 C   0  0  0  0  0  2  0  0  0  0  0  0
  188.7530  175.4250  143.3860 C   0  0  0  0  0  2  0  0  0  0  0  0
  196.2170  175.5580  144.0170 C   0  0  0  0  0  2  0  0  0  0  0  0
  190.0810  175.9190  142.8340 C   0  0  0  0  0  2  0  0  0  0  0  0
  190.0320  176.0940  145.9040 C   0  0  1  0  0  3  0  0  0  0  0  0
  194.8110  175.7610  146.1020 C   0  0  0  0  0  2  0  0  0  0  0  0
  192.3490  175.6800  145.8620 N   0  0  1  0  0  0  0  0  0  0  0  0
  188.1640  177.5450  146.4160 O   0  0  0  0  0  0  0  0  0  0  0  0
  187.1870  176.5580  146.5800 C   0  0  0  0  0  2  0  0  0  0  0  0
  185.5660  179.3780  146.5980 O   0  0  0  0  0  0  0  0  0  0  0  0
  184.8040  177.1610  146.3300 C   0  0  0  0  0  2  0  0  0  0  0  0
  185.9710  177.1440  147.2730 C   0  0  2  0  0  3  0  0  0  0  0  0
  184.4470  178.6230  146.2190 C   0  0  0  0  0  2  0  0  0  0  0  0
  186.2170  178.6050  147.5710 C   0  0  0  0  0  2  0  0  0  0  0  0
  1 27  1  0  0  0  0
  1 26  1  1  0  0  0
  2 14  1  0  0  0  0
  3 19  1  0  0  0  0
  4 18  1  0  0  0  0
  4 23  1  1  0  0  0
  5 15  1  0  0  0  0
  5 11  1  1  0  0  0
  6 19  1  0  0  0  0
  7  3  1  0  0  0  0
  7  6  1  0  0  0  0
  8 12  1  0  0  0  0
  9 27  1  0  0  0  0
  9 25  1  0  0  0  0
 10 17  1  0  0  0  0
 11 20  1  0  0  0  0
 12 15  1  0  0  0  0
 13  9  1  0  0  0  0
 15  4  1  0  0  0  0
 16  3  2  0  0  0  0
 16  8  1  0  0  0  0
 17 25  1  0  0  0  0
 17 28  1  0  0  0  0
 18  1  1  0  0  0  0
 19  5  1  0  0  0  0
 20 13  1  0  0  0  0
 20 18  1  0  0  0  0
 21 26  1  0  0  0  0
 22 10  1  0  0  0  0
 23 21  1  0  0  0  0
 24 22  1  0  0  0  0
 24 13  1  0  0  0  0
 25 14  1  0  0  0  0
 27  2  1  0  0  0  0
 28 29  1  0  0  0  0
 29 32  1  0  0  0  0
 30 34  1  0  0  0  0
 31 32  1  0  0  0  0
 32 34  1  0  0  0  0
 33 31  1  0  0  0  0
 33 30  1  0  0  0  0
M  END
>  <MODEL>
6

>  <REMARK>
 VINA RESULT:      -8.2      3.873      8.926
  Name = 
  3 active torsions:
  status: ('A' for Active; 'I' for Inactive)
    1  A    between atoms: C_17  and  O_28
    2  A    between atoms: O_28  and  C_29
    3  A    between atoms: C_29  and  C_32
                            x       y       z     vdW  Elec       q    Type
                         _______ _______ _______ _____ _____    ______ ____

>  <TORSDO>
F 3

$$$$
=
 OpenBabel11112417553D

 34 41  0  0  1  0  0  0  0  0999 V2000
  190.8100  176.0190  146.1580 C   0  0  2  0  0  3  0  0  0  0  0  0
  193.0270  175.1010  146.5140 C   0  0  0  0  0  2  0  0  0  0  0  0
  185.8270  178.2450  142.0990 C   0  0  0  0  0  0  0  0  0  0  0  0
  188.5300  176.9410  145.5990 C   0  0  1  0  0  3  0  0  0  0  0  0
  187.9100  177.2720  143.1390 C   0  0  1  0  0  3  0  0  0  0  0  0
  187.4340  177.7110  140.7110 C   0  0  0  0  0  2  0  0  0  0  0  0
  185.9450  177.7080  140.6910 C   0  0  0  0  0  2  0  0  0  0  0  0
  185.3260  179.1690  144.5790 S   0  0  0  0  0  0  0  0  0  0  0  0
  192.1090  175.0930  144.4520 C   0  0  1  0  0  3  0  0  0  0  0  0
  193.4700  173.6690  141.8310 C   0  0  0  0  0  2  0  0  0  0  0  0
  189.4070  177.0860  142.8600 C   0  0  0  0  0  2  0  0  0  0  0  0
  186.2210  177.6470  145.0120 C   0  0  0  0  0  2  0  0  0  0  0  0
  191.3650  175.8410  143.3410 C   0  0  2  0  0  3  0  0  0  0  0  0
  194.0500  174.4310  145.5990 C   0  0  0  0  0  2  0  0  0  0  0  0
  187.6930  177.7560  144.6010 C   0  0  1  0  0  3  0  0  0  0  0  0
  184.8670  178.5210  142.9750 C   0  0  0  0  0  3  0  0  0  0  0  0
  193.5250  173.3780  143.3380 C   0  0  2  0  0  3  0  0  0  0  0  0
  189.9750  176.7850  145.1090 C   0  0  2  0  0  3  0  0  0  0  0  0
  187.3430  178.2590  142.1010 C   0  0  1  0  0  3  0  0  0  0  0  0
  189.9880  176.1230  143.7910 N   0  0  1  0  0  0  0  0  0  0  0  0
  189.8200  177.9180  147.5910 C   0  0  0  0  0  2  0  0  0  0  0  0
  192.6860  174.9180  141.4200 C   0  0  0  0  0  2  0  0  0  0  0  0
  188.4530  177.5400  147.0180 C   0  0  0  0  0  2  0  0  0  0  0  0
  191.3150  174.9790  142.0750 C   0  0  0  0  0  2  0  0  0  0  0  0
  193.5300  174.6570  144.1850 C   0  0  1  0  0  3  0  0  0  0  0  0
  190.7900  176.7340  147.5270 C   0  0  0  0  0  2  0  0  0  0  0  0
  192.1730  175.9040  145.6500 N   0  0  1  0  0  0  0  0  0  0  0  0
  194.6510  172.5940  143.6020 O   0  0  0  0  0  0  0  0  0  0  0  0
  194.2320  171.2780  143.3800 C   0  0  0  0  0  2  0  0  0  0  0  0
  194.3030  168.4980  145.0660 O   0  0  0  0  0  0  0  0  0  0  0  0
  194.5930  170.7330  145.7630 C   0  0  0  0  0  2  0  0  0  0  0  0
  193.5970  170.7180  144.6400 C   0  0  2  0  0  3  0  0  0  0  0  0
  194.7280  169.2800  146.1480 C   0  0  0  0  0  2  0  0  0  0  0  0
  193.2970  169.2500  144.4420 C   0  0  0  0  0  2  0  0  0  0  0  0
  1 26  1  1  0  0  0
  3 19  1  0  0  0  0
  3 16  2  0  0  0  0
  4 23  1  1  0  0  0
  5 11  1  6  0  0  0
  5 15  1  0  0  0  0
  6 19  1  0  0  0  0
  7  6  1  0  0  0  0
  7  3  1  0  0  0  0
  8 12  1  0  0  0  0
  9 27  1  0  0  0  0
 10 17  1  0  0  0  0
 11 20  1  0  0  0  0
 13 20  1  0  0  0  0
 13  9  1  0  0  0  0
 14  2  1  0  0  0  0
 15 12  1  0  0  0  0
 15  4  1  0  0  0  0
 16  8  1  0  0  0  0
 17 28  1  0  0  0  0
 17 25  1  0  0  0  0
 18  4  1  0  0  0  0
 18  1  1  0  0  0  0
 19  5  1  0  0  0  0
 20 18  1  0  0  0  0
 22 10  1  0  0  0  0
 22 24  1  0  0  0  0
 23 21  1  0  0  0  0
 24 13  1  0  0  0  0
 25  9  1  0  0  0  0
 25 14  1  0  0  0  0
 26 21  1  0  0  0  0
 27  1  1  0  0  0  0
 27  2  1  0  0  0  0
 29 28  1  0  0  0  0
 29 32  1  0  0  0  0
 30 33  1  0  0  0  0
 31 33  1  0  0  0  0
 32 31  1  0  0  0  0
 34 32  1  0  0  0  0
 34 30  1  0  0  0  0
M  END
>  <MODEL>
7

>  <REMARK>
 VINA RESULT:      -8.1      2.013      4.133
  Name = 
  3 active torsions:
  status: ('A' for Active; 'I' for Inactive)
    1  A    between atoms: C_17  and  O_28
    2  A    between atoms: O_28  and  C_29
    3  A    between atoms: C_29  and  C_32
                            x       y       z     vdW  Elec       q    Type
                         _______ _______ _______ _____ _____    ______ ____

>  <TORSDO>
F 3

$$$$
=
 OpenBabel11112417553D

 34 41  0  0  1  0  0  0  0  0999 V2000
  190.2310  174.3410  144.7790 C   0  0  2  0  0  3  0  0  0  0  0  0
  191.7250  172.9610  143.4560 C   0  0  0  0  0  2  0  0  0  0  0  0
  185.0490  178.7060  145.3630 C   0  0  0  0  0  0  0  0  0  0  0  0
  188.5760  175.8050  145.9930 C   0  0  1  0  0  3  0  0  0  0  0  0
  186.8210  177.0670  144.6250 C   0  0  1  0  0  3  0  0  0  0  0  0
  185.2280  178.3900  143.2030 C   0  0  0  0  0  2  0  0  0  0  0  0
  184.1260  178.6710  144.1650 C   0  0  0  0  0  2  0  0  0  0  0  0
  186.4520  178.8020  147.6590 S   0  0  0  0  0  0  0  0  0  0  0  0
  189.8590  173.8290  142.5310 C   0  0  1  0  0  3  0  0  0  0  0  0
  188.8220  173.1610  139.4930 C   0  0  0  0  0  2  0  0  0  0  0  0
  187.6860  176.7130  143.4090 C   0  0  0  0  0  2  0  0  0  0  0  0
  186.8050  177.0850  147.1750 C   0  0  0  0  0  2  0  0  0  0  0  0
  188.9440  175.0370  142.3030 C   0  0  2  0  0  3  0  0  0  0  0  0
  191.7020  172.4660  142.0110 C   0  0  0  0  0  2  0  0  0  0  0  0
  187.6820  177.0530  145.9200 C   0  0  1  0  0  3  0  0  0  0  0  0
  184.9540  178.8390  146.6810 C   0  0  0  0  0  3  0  0  0  0  0  0
  189.6290  172.3680  140.5310 C   0  0  2  0  0  3  0  0  0  0  0  0
  189.2930  175.5600  144.6590 C   0  0  2  0  0  3  0  0  0  0  0  0
  186.1630  178.4360  144.3700 C   0  0  1  0  0  3  0  0  0  0  0  0
  188.3000  175.3990  143.5810 N   0  0  1  0  0  0  0  0  0  0  0  0
  191.0250  175.7840  146.7610 C   0  0  0  0  0  2  0  0  0  0  0  0
  188.4640  174.5980  139.8810 C   0  0  0  0  0  2  0  0  0  0  0  0
  189.5580  175.8860  147.1800 C   0  0  0  0  0  2  0  0  0  0  0  0
  187.8630  174.6850  141.2750 C   0  0  0  0  0  2  0  0  0  0  0  0
  190.5850  173.2550  141.3380 C   0  0  1  0  0  3  0  0  0  0  0  0
  191.2680  174.5340  145.9080 C   0  0  0  0  0  2  0  0  0  0  0  0
  190.8920  174.1550  143.4910 N   0  0  1  0  0  0  0  0  0  0  0  0
  190.3200  171.3450  139.8750 O   0  0  0  0  0  0  0  0  0  0  0  0
  189.7850  171.3230  138.5830 C   0  0  0  0  0  2  0  0  0  0  0  0
  191.8540  169.2950  137.1040 O   0  0  0  0  0  0  0  0  0  0  0  0
  190.4920  168.9930  139.0070 C   0  0  0  0  0  2  0  0  0  0  0  0
  189.7700  169.9010  138.0540 C   0  0  2  0  0  3  0  0  0  0  0  0
  191.6280  168.4340  138.1870 C   0  0  0  0  0  2  0  0  0  0  0  0
  190.5940  169.8270  136.7890 C   0  0  0  0  0  2  0  0  0  0  0  0
  1 26  1  1  0  0  0
  2 27  1  0  0  0  0
  3 16  2  0  0  0  0
  4 23  1  1  0  0  0
  5 11  1  6  0  0  0
  5 15  1  0  0  0  0
  6  7  1  0  0  0  0
  6 19  1  0  0  0  0
  7  3  1  0  0  0  0
  9 27  1  0  0  0  0
 10 22  1  0  0  0  0
 10 17  1  0  0  0  0
 11 20  1  0  0  0  0
 12  8  1  0  0  0  0
 13  9  1  0  0  0  0
 13 20  1  0  0  0  0
 14  2  1  0  0  0  0
 15  4  1  0  0  0  0
 15 12  1  0  0  0  0
 16  8  1  0  0  0  0
 17 25  1  0  0  0  0
 18  1  1  0  0  0  0
 18  4  1  0  0  0  0
 19  5  1  0  0  0  0
 19  3  1  0  0  0  0
 20 18  1  0  0  0  0
 21 23  1  0  0  0  0
 22 24  1  0  0  0  0
 24 13  1  0  0  0  0
 25 14  1  0  0  0  0
 25  9  1  0  0  0  0
 26 21  1  0  0  0  0
 27  1  1  0  0  0  0
 28 17  1  0  0  0  0
 29 28  1  0  0  0  0
 30 33  1  0  0  0  0
 32 29  1  0  0  0  0
 32 31  1  0  0  0  0
 33 31  1  0  0  0  0
 34 30  1  0  0  0  0
 34 32  1  0  0  0  0
M  END
>  <MODEL>
8

>  <REMARK>
 VINA RESULT:      -8.0      3.510      6.015
  Name = 
  3 active torsions:
  status: ('A' for Active; 'I' for Inactive)
    1  A    between atoms: C_17  and  O_28
    2  A    between atoms: O_28  and  C_29
    3  A    between atoms: C_29  and  C_32
                            x       y       z     vdW  Elec       q    Type
                         _______ _______ _______ _____ _____    ______ ____

>  <TORSDO>
F 3

$$$$
=
 OpenBabel11112417553D

 34 41  0  0  1  0  0  0  0  0999 V2000
  190.4050  174.1180  143.7690 C   0  0  2  0  0  3  0  0  0  0  0  0
  189.4050  175.2180  145.6860 C   0  0  0  0  0  2  0  0  0  0  0  0
  190.4840  172.4750  137.1700 C   0  0  0  0  0  0  0  0  0  0  0  0
  191.3160  173.0660  141.6650 C   0  0  1  0  0  3  0  0  0  0  0  0
  190.0370  173.4000  139.4750 C   0  0  1  0  0  3  0  0  0  0  0  0
  188.6460  173.6440  137.3970 C   0  0  0  0  0  2  0  0  0  0  0  0
  189.6590  173.4220  136.3280 C   0  0  0  0  0  2  0  0  0  0  0  0
  192.1430  170.7810  138.4460 S   0  0  0  0  0  0  0  0  0  0  0  0
  188.7000  175.7040  143.5980 C   0  0  1  0  0  3  0  0  0  0  0  0
  186.5160  178.0440  142.8860 C   0  0  0  0  0  2  0  0  0  0  0  0
  188.8840  173.8900  140.3600 C   0  0  0  0  0  2  0  0  0  0  0  0
  192.2970  172.2210  139.5450 C   0  0  0  0  0  2  0  0  0  0  0  0
  188.2490  175.2200  142.2160 C   0  0  2  0  0  3  0  0  0  0  0  0
  188.3210  176.2820  145.8440 C   0  0  0  0  0  2  0  0  0  0  0  0
  190.9820  172.4700  140.2890 C   0  0  1  0  0  3  0  0  0  0  0  0
  191.6250  171.8030  137.0720 C   0  0  0  0  0  3  0  0  0  0  0  0
  187.5510  177.8720  144.0080 C   0  0  2  0  0  3  0  0  0  0  0  0
  190.0520  173.5840  142.3640 C   0  0  2  0  0  3  0  0  0  0  0  0
  189.4350  172.6960  138.2430 C   0  0  1  0  0  3  0  0  0  0  0  0
  189.3990  174.6060  141.5240 N   0  0  1  0  0  0  0  0  0  0  0  0
  191.4080  171.7460  143.8640 C   0  0  0  0  0  2  0  0  0  0  0  0
  186.3870  176.8710  141.9100 C   0  0  0  0  0  2  0  0  0  0  0  0
  192.0980  172.0630  142.5370 C   0  0  0  0  0  2  0  0  0  0  0  0
  187.7380  176.4050  141.3890 C   0  0  0  0  0  2  0  0  0  0  0  0
  187.6870  176.4150  144.4650 C   0  0  1  0  0  3  0  0  0  0  0  0
  191.0800  173.0300  144.6330 C   0  0  0  0  0  2  0  0  0  0  0  0
  189.1730  174.5910  144.3920 N   0  0  1  0  0  0  0  0  0  0  0  0
  187.1990  178.7050  145.0730 O   0  0  0  0  0  0  0  0  0  0  0  0
  185.8880  179.1060  144.7960 C   0  0  0  0  0  2  0  0  0  0  0  0
  185.2020  176.9210  147.1060 O   0  0  0  0  0  0  0  0  0  0  0  0
  185.9340  179.1580  147.2670 C   0  0  0  0  0  2  0  0  0  0  0  0
  185.0500  179.0410  146.0600 C   0  0  2  0  0  3  0  0  0  0  0  0
  185.7090  177.8650  148.0100 C   0  0  0  0  0  2  0  0  0  0  0  0
  184.4420  177.6630  146.1890 C   0  0  0  0  0  2  0  0  0  0  0  0
  1 27  1  0  0  0  0
  1 26  1  1  0  0  0
  2 14  1  0  0  0  0
  3 19  1  0  0  0  0
  4 18  1  0  0  0  0
  4 23  1  1  0  0  0
  5 15  1  0  0  0  0
  5 11  1  1  0  0  0
  6 19  1  0  0  0  0
  7  3  1  0  0  0  0
  7  6  1  0  0  0  0
  8 12  1  0  0  0  0
  9 27  1  0  0  0  0
  9 25  1  0  0  0  0
 10 17  1  0  0  0  0
 11 20  1  0  0  0  0
 12 15  1  0  0  0  0
 13  9  1  0  0  0  0
 15  4  1  0  0  0  0
 16  3  2  0  0  0  0
 16  8  1  0  0  0  0
 17 25  1  0  0  0  0
 17 28  1  0  0  0  0
 18  1  1  0  0  0  0
 19  5  1  0  0  0  0
 20 13  1  0  0  0  0
 20 18  1  0  0  0  0
 21 26  1  0  0  0  0
 22 10  1  0  0  0  0
 23 21  1  0  0  0  0
 24 22  1  0  0  0  0
 24 13  1  0  0  0  0
 25 14  1  0  0  0  0
 27  2  1  0  0  0  0
 29 28  1  0  0  0  0
 29 32  1  0  0  0  0
 30 33  1  0  0  0  0
 31 33  1  0  0  0  0
 32 34  1  0  0  0  0
 32 31  1  0  0  0  0
 34 30  1  0  0  0  0
M  END
>  <MODEL>
9

>  <REMARK>
 VINA RESULT:      -7.9      4.287      8.738
  Name = 
  3 active torsions:
  status: ('A' for Active; 'I' for Inactive)
    1  A    between atoms: C_17  and  O_28
    2  A    between atoms: O_28  and  C_29
    3  A    between atoms: C_29  and  C_32
                            x       y       z     vdW  Elec       q    Type
                         _______ _______ _______ _____ _____    ______ ____

>  <TORSDO>
F 3

$$$$
