=
 OpenBabel11112416443D

 32 37  0  0  1  0  0  0  0  0999 V2000
  185.7270  178.9860  143.8950 O   0  0  0  0  0  0  0  0  0  0  0  0
  189.8350  175.9860  143.7540 C   0  0  2  0  0  3  0  0  0  0  0  0
  189.7500  172.3660  140.4140 C   0  0  0  0  0  3  0  0  0  0  0  0
  191.0340  171.9760  140.7870 C   0  0  0  0  0  3  0  0  0  0  0  0
  192.0440  176.3530  144.9350 C   0  0  0  0  0  0  0  0  0  0  0  0
  193.5340  176.1430  145.0070 C   0  0  1  0  0  3  0  0  0  0  0  0
  188.0840  177.7660  143.5250 C   0  0  1  0  0  3  0  0  0  0  0  0
  187.9240  175.6870  142.1370 N   0  0  0  0  0  2  0  0  0  0  0  0
  195.3290  174.7700  144.4780 C   0  0  2  0  0  3  0  0  0  0  0  0
  185.9020  177.0400  142.3190 C   0  0  0  0  0  2  0  0  0  0  0  0
  189.1550  173.4720  141.0180 C   0  0  0  0  0  3  0  0  0  0  0  0
  189.2210  175.2640  142.5810 C   0  0  0  0  0  0  0  0  0  0  0  0
  189.8270  174.2040  142.0130 C   0  0  0  0  0  0  0  0  0  0  0  0
  191.8480  174.5350  143.2830 C   0  0  0  0  0  0  0  0  0  0  0  0
  195.3450  174.9920  145.9850 C   0  0  0  0  0  2  0  0  0  0  0  0
  185.9320  177.9940  144.8750 C   0  0  0  0  0  2  0  0  0  0  0  0
  187.4330  177.0540  142.3130 C   0  0  1  0  0  3  0  0  0  0  0  0
  193.9980  175.5750  146.3250 C   0  0  0  0  0  2  0  0  0  0  0  0
  187.3900  177.5220  144.8740 C   0  0  0  0  0  2  0  0  0  0  0  0
  185.2540  178.3900  142.6940 C   0  0  1  0  0  3  0  0  0  0  0  0
  191.7250  172.6990  141.7600 C   0  0  0  0  0  3  0  0  0  0  0  0
  191.1440  173.8220  142.3800 C   0  0  0  0  0  0  0  0  0  0  0  0
  193.2300  174.1190  143.7040 C   0  0  0  0  0  2  0  0  0  0  0  0
  189.5830  177.4850  143.6050 C   0  0  0  0  0  2  0  0  0  0  0  0
  191.4960  177.1340  145.7580 O   0  0  0  0  0  0  0  0  0  0  0  0
  196.5060  175.4870  143.8420 C   0  0  0  0  0  1  0  0  0  0  0  0
  191.2620  175.6790  143.9310 N   0  0  0  0  0  0  0  0  0  0  0  0
  194.0770  175.2930  143.9360 N   0  0  1  0  0  0  0  0  0  0  0  0
  183.7360  178.2530  142.7120 C   0  0  0  0  0  2  0  0  0  0  0  0
  183.1740  178.3380  141.3300 C   0  0  0  0  0  0  0  0  0  0  0  0
  181.7140  178.1410  141.1110 C   0  0  0  0  0  1  0  0  0  0  0  0
  183.9080  178.5500  140.3790 O   0  0  0  0  0  0  0  0  0  0  0  0
  1 16  1  0  0  0  0
  2 24  1  6  0  0  0
  2 27  1  0  0  0  0
  3  4  1  0  0  0  0
  3 11  2  0  0  0  0
  4 21  2  0  0  0  0
  5  6  1  0  0  0  0
  5 25  2  0  0  0  0
  6 18  1  1  0  0  0
  7 24  1  1  0  0  0
  7 19  1  0  0  0  0
  8 17  1  0  0  0  0
  8 12  1  0  0  0  0
  9 26  1  6  0  0  0
  9 15  1  0  0  0  0
 10 20  1  0  0  0  0
 11 13  1  0  0  0  0
 12  2  1  0  0  0  0
 13 22  1  0  0  0  0
 13 12  2  0  0  0  0
 14 23  1  0  0  0  0
 14 27  1  0  0  0  0
 15 18  1  0  0  0  0
 17 10  1  1  0  0  0
 17  7  1  0  0  0  0
 19 16  1  0  0  0  0
 20 29  1  1  0  0  0
 20  1  1  0  0  0  0
 21 22  1  0  0  0  0
 22 14  2  0  0  0  0
 27  5  1  0  0  0  0
 28 23  1  1  0  0  0
 28  9  1  0  0  0  0
 28  6  1  0  0  0  0
 30 29  1  0  0  0  0
 31 30  1  0  0  0  0
 32 30  2  0  0  0  0
M  END
>  <MODEL>
1

>  <REMARK>
 VINA RESULT:      -8.5      0.000      0.000
  Name = 
  2 active torsions:
  status: ('A' for Active; 'I' for Inactive)
    1  A    between atoms: C_20  and  C_29
    2  A    between atoms: C_29  and  C_30
                            x       y       z     vdW  Elec       q    Type
                         _______ _______ _______ _____ _____    ______ ____

>  <TORSDO>
F 2

$$$$
=
 OpenBabel11112416443D

 32 37  0  0  1  0  0  0  0  0999 V2000
  187.4170  177.9250  146.5300 O   0  0  0  0  0  0  0  0  0  0  0  0
  191.3890  175.4880  144.4860 C   0  0  2  0  0  3  0  0  0  0  0  0
  190.6150  173.4120  140.0860 C   0  0  0  0  0  3  0  0  0  0  0  0
  191.9430  172.9970  140.0360 C   0  0  0  0  0  3  0  0  0  0  0  0
  193.7910  175.5280  145.2850 C   0  0  0  0  0  0  0  0  0  0  0  0
  195.2630  175.4070  144.9940 C   0  0  1  0  0  3  0  0  0  0  0  0
  189.6430  177.1000  145.2890 C   0  0  1  0  0  3  0  0  0  0  0  0
  189.1940  175.6980  143.2620 N   0  0  0  0  0  2  0  0  0  0  0  0
  196.9070  174.4630  143.6540 C   0  0  2  0  0  3  0  0  0  0  0  0
  187.2600  176.7410  144.3230 C   0  0  0  0  0  2  0  0  0  0  0  0
  190.1600  174.1630  141.1690 C   0  0  0  0  0  3  0  0  0  0  0  0
  190.5490  175.2270  143.2610 C   0  0  0  0  0  0  0  0  0  0  0  0
  191.0220  174.5060  142.2260 C   0  0  0  0  0  0  0  0  0  0  0  0
  193.2560  174.4650  143.1280 C   0  0  0  0  0  0  0  0  0  0  0  0
  197.2210  174.0960  145.0990 C   0  0  0  0  0  2  0  0  0  0  0  0
  187.8010  176.6520  146.9960 C   0  0  0  0  0  2  0  0  0  0  0  0
  188.7600  176.8590  144.0390 C   0  0  1  0  0  3  0  0  0  0  0  0
  195.9720  174.4140  145.8800 C   0  0  0  0  0  2  0  0  0  0  0  0
  189.2270  176.3150  146.5430 C   0  0  0  0  0  2  0  0  0  0  0  0
  186.7110  177.7990  145.3030 C   0  0  1  0  0  3  0  0  0  0  0  0
  192.8190  173.3410  141.0650 C   0  0  0  0  0  3  0  0  0  0  0  0
  192.3820  174.1020  142.1670 C   0  0  0  0  0  0  0  0  0  0  0  0
  194.6900  174.0150  143.0920 C   0  0  0  0  0  2  0  0  0  0  0  0
  191.1260  176.9110  144.9750 C   0  0  0  0  0  2  0  0  0  0  0  0
  193.4220  175.8990  146.4320 O   0  0  0  0  0  0  0  0  0  0  0  0
  197.9410  175.4450  143.1380 C   0  0  0  0  0  1  0  0  0  0  0  0
  192.8200  175.2340  144.2620 N   0  0  0  0  0  0  0  0  0  0  0  0
  195.5770  175.0670  143.5980 N   0  0  1  0  0  0  0  0  0  0  0  0
  185.2260  177.5640  145.5470 C   0  0  0  0  0  2  0  0  0  0  0  0
  184.4290  178.7870  145.2260 C   0  0  0  0  0  0  0  0  0  0  0  0
  184.9630  179.7840  144.2570 C   0  0  0  0  0  1  0  0  0  0  0  0
  183.3530  178.9820  145.7670 O   0  0  0  0  0  0  0  0  0  0  0  0
  1 16  1  0  0  0  0
  2 24  1  6  0  0  0
  3 11  2  0  0  0  0
  4  3  1  0  0  0  0
  4 21  2  0  0  0  0
  5 25  2  0  0  0  0
  6  5  1  0  0  0  0
  6 18  1  1  0  0  0
  7 24  1  6  0  0  0
  7 19  1  0  0  0  0
  8 17  1  0  0  0  0
  9 26  1  1  0  0  0
  9 15  1  0  0  0  0
 10 20  1  0  0  0  0
 11 13  1  0  0  0  0
 12  8  1  0  0  0  0
 12  2  1  0  0  0  0
 13 12  2  0  0  0  0
 14 27  1  0  0  0  0
 15 18  1  0  0  0  0
 17 10  1  1  0  0  0
 17  7  1  0  0  0  0
 19 16  1  0  0  0  0
 20 29  1  1  0  0  0
 20  1  1  0  0  0  0
 21 22  1  0  0  0  0
 22 13  1  0  0  0  0
 22 14  2  0  0  0  0
 23 14  1  0  0  0  0
 27  2  1  0  0  0  0
 27  5  1  0  0  0  0
 28 23  1  1  0  0  0
 28  9  1  0  0  0  0
 28  6  1  0  0  0  0
 30 29  1  0  0  0  0
 30 32  2  0  0  0  0
 31 30  1  0  0  0  0
M  END
>  <MODEL>
2

>  <REMARK>
 VINA RESULT:      -8.5      2.049      2.487
  Name = 
  2 active torsions:
  status: ('A' for Active; 'I' for Inactive)
    1  A    between atoms: C_20  and  C_29
    2  A    between atoms: C_29  and  C_30
                            x       y       z     vdW  Elec       q    Type
                         _______ _______ _______ _____ _____    ______ ____

>  <TORSDO>
F 2

$$$$
=
 OpenBabel11112416443D

 32 37  0  0  1  0  0  0  0  0999 V2000
  186.5270  176.3790  142.2910 O   0  0  0  0  0  0  0  0  0  0  0  0
  190.9090  174.0560  143.4300 C   0  0  2  0  0  3  0  0  0  0  0  0
  194.0450  176.6190  146.2350 C   0  0  0  0  0  3  0  0  0  0  0  0
  194.9310  175.5450  146.2450 C   0  0  0  0  0  3  0  0  0  0  0  0
  191.5070  171.6280  143.0340 C   0  0  0  0  0  0  0  0  0  0  0  0
  192.2970  170.4030  143.4110 C   0  0  1  0  0  3  0  0  0  0  0  0
  188.5690  174.9430  143.2640 C   0  0  1  0  0  3  0  0  0  0  0  0
  190.3490  176.3410  144.3380 N   0  0  0  0  0  2  0  0  0  0  0  0
  194.2480  169.5610  144.3450 C   0  0  2  0  0  3  0  0  0  0  0  0
  188.3100  177.4970  143.6600 C   0  0  0  0  0  2  0  0  0  0  0  0
  192.8200  176.5050  145.5780 C   0  0  0  0  0  3  0  0  0  0  0  0
  191.2730  175.2450  144.2830 C   0  0  0  0  0  0  0  0  0  0  0  0
  192.4620  175.3190  144.9130 C   0  0  0  0  0  0  0  0  0  0  0  0
  193.0210  173.0400  144.3700 C   0  0  0  0  0  0  0  0  0  0  0  0
  194.1170  168.9770  142.9440 C   0  0  0  0  0  2  0  0  0  0  0  0
  187.5590  176.2760  141.3370 C   0  0  0  0  0  2  0  0  0  0  0  0
  188.9090  176.1720  144.1430 C   0  0  1  0  0  3  0  0  0  0  0  0
  193.0590  169.8010  142.2570 C   0  0  0  0  0  2  0  0  0  0  0  0
  188.5740  175.2030  141.7500 C   0  0  0  0  0  2  0  0  0  0  0  0
  186.8320  177.4070  143.2260 C   0  0  1  0  0  3  0  0  0  0  0  0
  194.5870  174.3530  145.6060 C   0  0  0  0  0  3  0  0  0  0  0  0
  193.3540  174.2150  144.9400 C   0  0  0  0  0  0  0  0  0  0  0  0
  193.9720  171.8760  144.3650 C   0  0  0  0  0  2  0  0  0  0  0  0
  189.4290  173.7350  143.6300 C   0  0  0  0  0  2  0  0  0  0  0  0
  190.6080  171.5310  142.1560 O   0  0  0  0  0  0  0  0  0  0  0  0
  194.0340  168.4710  145.3780 C   0  0  0  0  0  1  0  0  0  0  0  0
  191.7680  172.8890  143.6800 N   0  0  0  0  0  0  0  0  0  0  0  0
  193.2460  170.6110  144.5150 N   0  0  1  0  0  0  0  0  0  0  0  0
  186.3520  178.7630  142.7240 C   0  0  0  0  0  2  0  0  0  0  0  0
  185.3250  179.3410  143.6430 C   0  0  0  0  0  0  0  0  0  0  0  0
  184.0750  178.5830  143.9270 C   0  0  0  0  0  1  0  0  0  0  0  0
  185.4980  180.4390  144.1470 O   0  0  0  0  0  0  0  0  0  0  0  0
  1 20  1  0  0  0  0
  2 24  1  1  0  0  0
  2 27  1  0  0  0  0
  2 12  1  0  0  0  0
  3  4  1  0  0  0  0
  5  6  1  0  0  0  0
  5 27  1  0  0  0  0
  6 18  1  6  0  0  0
  6 28  1  0  0  0  0
  7 19  1  6  0  0  0
  7 24  1  0  0  0  0
  7 17  1  0  0  0  0
  9 28  1  0  0  0  0
  9 26  1  1  0  0  0
 11  3  2  0  0  0  0
 12  8  1  0  0  0  0
 12 13  2  0  0  0  0
 13 22  1  0  0  0  0
 13 11  1  0  0  0  0
 14 22  2  0  0  0  0
 15  9  1  0  0  0  0
 16 19  1  0  0  0  0
 16  1  1  0  0  0  0
 17 10  1  6  0  0  0
 17  8  1  0  0  0  0
 18 15  1  0  0  0  0
 20 29  1  6  0  0  0
 20 10  1  0  0  0  0
 21  4  2  0  0  0  0
 22 21  1  0  0  0  0
 23 14  1  0  0  0  0
 25  5  2  0  0  0  0
 27 14  1  0  0  0  0
 28 23  1  6  0  0  0
 29 30  1  0  0  0  0
 30 31  1  0  0  0  0
 30 32  2  0  0  0  0
M  END
>  <MODEL>
3

>  <REMARK>
 VINA RESULT:      -8.1      2.629      4.742
  Name = 
  2 active torsions:
  status: ('A' for Active; 'I' for Inactive)
    1  A    between atoms: C_20  and  C_29
    2  A    between atoms: C_29  and  C_30
                            x       y       z     vdW  Elec       q    Type
                         _______ _______ _______ _____ _____    ______ ____

>  <TORSDO>
F 2

$$$$
=
 OpenBabel11112416443D

 32 37  0  0  1  0  0  0  0  0999 V2000
  189.2050  173.5260  138.8220 O   0  0  0  0  0  0  0  0  0  0  0  0
  188.5860  175.2100  143.5830 C   0  0  2  0  0  3  0  0  0  0  0  0
  192.4690  174.7020  146.5740 C   0  0  0  0  0  3  0  0  0  0  0  0
  191.7720  175.3320  147.6030 C   0  0  0  0  0  3  0  0  0  0  0  0
  186.6670  176.5930  144.4850 C   0  0  0  0  0  0  0  0  0  0  0  0
  186.1350  177.5940  145.4770 C   0  0  1  0  0  3  0  0  0  0  0  0
  189.0020  174.8620  141.1350 C   0  0  1  0  0  3  0  0  0  0  0  0
  190.7860  174.2680  142.7900 N   0  0  0  0  0  2  0  0  0  0  0  0
  186.3040  178.4910  147.6110 C   0  0  2  0  0  3  0  0  0  0  0  0
  191.0160  173.3310  140.5490 C   0  0  0  0  0  2  0  0  0  0  0  0
  191.8760  174.5550  145.3200 C   0  0  0  0  0  3  0  0  0  0  0  0
  190.0290  174.8620  143.8530 C   0  0  0  0  0  0  0  0  0  0  0  0
  190.5740  175.0260  145.0740 C   0  0  0  0  0  0  0  0  0  0  0  0
  188.6460  176.2100  145.9020 C   0  0  0  0  0  0  0  0  0  0  0  0
  184.8750  177.9950  147.4300 C   0  0  0  0  0  2  0  0  0  0  0  0
  188.4610  172.7830  139.7600 C   0  0  0  0  0  2  0  0  0  0  0  0
  190.4900  174.5070  141.3770 C   0  0  1  0  0  3  0  0  0  0  0  0
  184.9000  177.1220  146.2020 C   0  0  0  0  0  2  0  0  0  0  0  0
  188.0650  173.6580  140.9550 C   0  0  0  0  0  2  0  0  0  0  0  0
  190.5960  173.3590  139.0640 C   0  0  1  0  0  3  0  0  0  0  0  0
  190.4860  175.8220  147.3740 C   0  0  0  0  0  3  0  0  0  0  0  0
  189.8700  175.6870  146.1150 C   0  0  0  0  0  0  0  0  0  0  0  0
  187.8790  176.8820  147.0060 C   0  0  0  0  0  2  0  0  0  0  0  0
  188.4760  175.8310  142.1920 C   0  0  0  0  0  2  0  0  0  0  0  0
  185.9310  176.2290  143.5280 O   0  0  0  0  0  0  0  0  0  0  0  0
  186.3190  180.0070  147.6590 C   0  0  0  0  0  1  0  0  0  0  0  0
  188.0020  176.0710  144.6230 N   0  0  0  0  0  0  0  0  0  0  0  0
  187.1140  178.0210  146.4880 N   0  0  1  0  0  0  0  0  0  0  0  0
  191.1330  172.1270  138.3460 C   0  0  0  0  0  2  0  0  0  0  0  0
  190.7310  172.1280  136.9070 C   0  0  0  0  0  0  0  0  0  0  0  0
  189.8240  171.0660  136.3900 C   0  0  0  0  0  1  0  0  0  0  0  0
  191.1570  172.9850  136.1490 O   0  0  0  0  0  0  0  0  0  0  0  0
  1 20  1  0  0  0  0
  1 16  1  0  0  0  0
  2 24  1  6  0  0  0
  2 12  1  0  0  0  0
  2 27  1  0  0  0  0
  3  4  1  0  0  0  0
  5 27  1  0  0  0  0
  5  6  1  0  0  0  0
  6 18  1  1  0  0  0
  6 28  1  0  0  0  0
  7 19  1  1  0  0  0
  7 17  1  0  0  0  0
  7 24  1  0  0  0  0
  8 12  1  0  0  0  0
  9 26  1  6  0  0  0
 11  3  2  0  0  0  0
 12 13  2  0  0  0  0
 13 11  1  0  0  0  0
 13 22  1  0  0  0  0
 14 22  2  0  0  0  0
 14 23  1  0  0  0  0
 15  9  1  0  0  0  0
 16 19  1  0  0  0  0
 17 10  1  6  0  0  0
 17  8  1  0  0  0  0
 18 15  1  0  0  0  0
 20 29  1  1  0  0  0
 20 10  1  0  0  0  0
 21  4  2  0  0  0  0
 22 21  1  0  0  0  0
 25  5  2  0  0  0  0
 27 14  1  0  0  0  0
 28 23  1  1  0  0  0
 28  9  1  0  0  0  0
 30 29  1  0  0  0  0
 31 30  1  0  0  0  0
 32 30  2  0  0  0  0
M  END
>  <MODEL>
4

>  <REMARK>
 VINA RESULT:      -8.0      3.191      7.309
  Name = 
  2 active torsions:
  status: ('A' for Active; 'I' for Inactive)
    1  A    between atoms: C_20  and  C_29
    2  A    between atoms: C_29  and  C_30
                            x       y       z     vdW  Elec       q    Type
                         _______ _______ _______ _____ _____    ______ ____

>  <TORSDO>
F 2

$$$$
=
 OpenBabel11112416443D

 32 37  0  0  1  0  0  0  0  0999 V2000
  186.1830  176.7700  143.2190 O   0  0  0  0  0  0  0  0  0  0  0  0
  190.7620  174.5540  143.3080 C   0  0  2  0  0  3  0  0  0  0  0  0
  194.0040  176.4270  146.5100 C   0  0  0  0  0  3  0  0  0  0  0  0
  194.9410  175.4650  146.1410 C   0  0  0  0  0  3  0  0  0  0  0  0
  191.4450  172.3960  142.1740 C   0  0  0  0  0  0  0  0  0  0  0  0
  192.3280  171.1770  142.1170 C   0  0  1  0  0  3  0  0  0  0  0  0
  188.3750  175.2730  143.5780 C   0  0  1  0  0  3  0  0  0  0  0  0
  190.1710  176.4300  144.8850 N   0  0  0  0  0  2  0  0  0  0  0  0
  194.3960  170.2520  142.6200 C   0  0  2  0  0  3  0  0  0  0  0  0
  188.0220  177.5760  144.7240 C   0  0  0  0  0  2  0  0  0  0  0  0
  192.7320  176.4160  145.9390 C   0  0  0  0  0  3  0  0  0  0  0  0
  191.1410  175.4700  144.4450 C   0  0  0  0  0  0  0  0  0  0  0  0
  192.3760  175.4490  144.9810 C   0  0  0  0  0  0  0  0  0  0  0  0
  193.0000  173.4720  143.7540 C   0  0  0  0  0  0  0  0  0  0  0  0
  194.1690  170.0880  141.1220 C   0  0  0  0  0  2  0  0  0  0  0  0
  187.1280  177.0250  142.2060 C   0  0  0  0  0  2  0  0  0  0  0  0
  188.7300  176.2170  144.7530 C   0  0  1  0  0  3  0  0  0  0  0  0
  193.0130  170.9940  140.7850 C   0  0  0  0  0  2  0  0  0  0  0  0
  188.2300  175.9580  142.2110 C   0  0  0  0  0  2  0  0  0  0  0  0
  186.5180  177.5040  144.3900 C   0  0  1  0  0  3  0  0  0  0  0  0
  194.6030  174.4870  145.2060 C   0  0  0  0  0  3  0  0  0  0  0  0
  193.3230  174.4550  144.6200 C   0  0  0  0  0  0  0  0  0  0  0  0
  194.0050  172.4340  143.3390 C   0  0  0  0  0  2  0  0  0  0  0  0
  189.3250  174.0780  143.5100 C   0  0  0  0  0  2  0  0  0  0  0  0
  190.4770  172.4890  141.3730 O   0  0  0  0  0  0  0  0  0  0  0  0
  194.3320  168.8960  143.3000 C   0  0  0  0  0  1  0  0  0  0  0  0
  191.6990  173.4330  143.1420 N   0  0  0  0  0  0  0  0  0  0  0  0
  193.3610  171.1290  143.1630 N   0  0  1  0  0  0  0  0  0  0  0  0
  185.9250  178.9070  144.3450 C   0  0  0  0  0  2  0  0  0  0  0  0
  184.4780  178.8900  144.7190 C   0  0  0  0  0  0  0  0  0  0  0  0
  184.0840  178.6660  146.1380 C   0  0  0  0  0  1  0  0  0  0  0  0
  183.6190  179.0410  143.8660 O   0  0  0  0  0  0  0  0  0  0  0  0
  1 20  1  0  0  0  0
  2 24  1  1  0  0  0
  2 12  1  0  0  0  0
  4  3  1  0  0  0  0
  5 27  1  0  0  0  0
  6 18  1  6  0  0  0
  6  5  1  0  0  0  0
  6 28  1  0  0  0  0
  7 19  1  6  0  0  0
  7 17  1  0  0  0  0
  9 28  1  0  0  0  0
  9 26  1  1  0  0  0
 11  3  2  0  0  0  0
 12  8  1  0  0  0  0
 12 13  2  0  0  0  0
 13 11  1  0  0  0  0
 14 22  2  0  0  0  0
 15  9  1  0  0  0  0
 16 19  1  0  0  0  0
 16  1  1  0  0  0  0
 17 10  1  6  0  0  0
 17  8  1  0  0  0  0
 18 15  1  0  0  0  0
 20 29  1  6  0  0  0
 20 10  1  0  0  0  0
 21  4  2  0  0  0  0
 22 13  1  0  0  0  0
 22 21  1  0  0  0  0
 23 14  1  0  0  0  0
 24  7  1  0  0  0  0
 25  5  2  0  0  0  0
 27  2  1  0  0  0  0
 27 14  1  0  0  0  0
 28 23  1  6  0  0  0
 29 30  1  0  0  0  0
 30 31  1  0  0  0  0
 32 30  2  0  0  0  0
M  END
>  <MODEL>
5

>  <REMARK>
 VINA RESULT:      -7.9      2.298      4.628
  Name = 
  2 active torsions:
  status: ('A' for Active; 'I' for Inactive)
    1  A    between atoms: C_20  and  C_29
    2  A    between atoms: C_29  and  C_30
                            x       y       z     vdW  Elec       q    Type
                         _______ _______ _______ _____ _____    ______ ____

>  <TORSDO>
F 2

$$$$
=
 OpenBabel11112416443D

 32 37  0  0  1  0  0  0  0  0999 V2000
  185.2510  178.0860  143.4780 O   0  0  0  0  0  0  0  0  0  0  0  0
  188.9640  174.9850  141.9000 C   0  0  2  0  0  3  0  0  0  0  0  0
  192.4300  173.9000  145.2290 C   0  0  0  0  0  3  0  0  0  0  0  0
  193.0620  173.0610  144.3130 C   0  0  0  0  0  3  0  0  0  0  0  0
  189.0440  173.6590  139.7440 C   0  0  0  0  0  0  0  0  0  0  0  0
  189.5310  172.4650  138.9660 C   0  0  1  0  0  3  0  0  0  0  0  0
  186.8820  176.0840  142.7640 C   0  0  1  0  0  3  0  0  0  0  0  0
  188.8640  175.8250  144.2750 N   0  0  0  0  0  2  0  0  0  0  0  0
  191.2040  170.8810  138.6850 C   0  0  2  0  0  3  0  0  0  0  0  0
  187.1600  177.4280  144.9690 C   0  0  0  0  0  2  0  0  0  0  0  0
  191.2450  174.5460  144.8780 C   0  0  0  0  0  3  0  0  0  0  0  0
  189.5320  175.0160  143.2960 C   0  0  0  0  0  0  0  0  0  0  0  0
  190.6740  174.3730  143.6050 C   0  0  0  0  0  0  0  0  0  0  0  0
  190.7560  173.2580  141.4700 C   0  0  0  0  0  0  0  0  0  0  0  0
  191.0220  171.6030  137.3550 C   0  0  0  0  0  2  0  0  0  0  0  0
  186.2840  178.5610  142.6460 C   0  0  0  0  0  2  0  0  0  0  0  0
  187.4330  176.1250  144.2110 C   0  0  1  0  0  3  0  0  0  0  0  0
  190.2040  172.8290  137.6670 C   0  0  0  0  0  2  0  0  0  0  0  0
  187.0210  177.3960  141.9760 C   0  0  0  0  0  2  0  0  0  0  0  0
  185.7210  177.9650  144.8140 C   0  0  1  0  0  3  0  0  0  0  0  0
  192.5030  172.8620  143.0510 C   0  0  0  0  0  3  0  0  0  0  0  0
  191.3050  173.5010  142.6780 C   0  0  0  0  0  0  0  0  0  0  0  0
  191.4320  172.3640  140.4690 C   0  0  0  0  0  2  0  0  0  0  0  0
  187.4420  174.8970  141.9830 C   0  0  0  0  0  2  0  0  0  0  0  0
  188.1920  174.4250  139.2200 O   0  0  0  0  0  0  0  0  0  0  0  0
  190.7070  169.4530  138.5660 C   0  0  0  0  0  1  0  0  0  0  0  0
  189.5370  173.9120  141.0740 N   0  0  0  0  0  0  0  0  0  0  0  0
  190.4440  171.5880  139.7140 N   0  0  1  0  0  0  0  0  0  0  0  0
  185.5710  179.2810  145.5680 C   0  0  0  0  0  2  0  0  0  0  0  0
  185.3720  179.0400  147.0300 C   0  0  0  0  0  0  0  0  0  0  0  0
  186.3170  179.6370  148.0140 C   0  0  0  0  0  1  0  0  0  0  0  0
  184.4500  178.3420  147.4190 O   0  0  0  0  0  0  0  0  0  0  0  0
  1 20  1  0  0  0  0
  2 24  1  1  0  0  0
  2 12  1  0  0  0  0
  4  3  1  0  0  0  0
  5 27  1  0  0  0  0
  6 18  1  6  0  0  0
  6 28  1  0  0  0  0
  6  5  1  0  0  0  0
  7 19  1  6  0  0  0
  7 17  1  0  0  0  0
  9 26  1  6  0  0  0
  9 28  1  0  0  0  0
 11  3  2  0  0  0  0
 12 13  2  0  0  0  0
 12  8  1  0  0  0  0
 13 11  1  0  0  0  0
 14 22  2  0  0  0  0
 15 18  1  0  0  0  0
 15  9  1  0  0  0  0
 16  1  1  0  0  0  0
 17  8  1  0  0  0  0
 17 10  1  6  0  0  0
 19 16  1  0  0  0  0
 20 10  1  0  0  0  0
 20 29  1  6  0  0  0
 21  4  2  0  0  0  0
 22 21  1  0  0  0  0
 22 13  1  0  0  0  0
 23 14  1  0  0  0  0
 24  7  1  0  0  0  0
 25  5  2  0  0  0  0
 27 14  1  0  0  0  0
 27  2  1  0  0  0  0
 28 23  1  1  0  0  0
 29 30  1  0  0  0  0
 30 32  2  0  0  0  0
 30 31  1  0  0  0  0
M  END
>  <MODEL>
6

>  <REMARK>
 VINA RESULT:      -7.9      2.596      5.387
  Name = 
  2 active torsions:
  status: ('A' for Active; 'I' for Inactive)
    1  A    between atoms: C_20  and  C_29
    2  A    between atoms: C_29  and  C_30
                            x       y       z     vdW  Elec       q    Type
                         _______ _______ _______ _____ _____    ______ ____

>  <TORSDO>
F 2

$$$$
=
 OpenBabel11112416443D

 32 37  0  0  1  0  0  0  0  0999 V2000
  185.5130  176.9990  143.5730 O   0  0  0  0  0  0  0  0  0  0  0  0
  189.3750  174.5850  141.3030 C   0  0  2  0  0  3  0  0  0  0  0  0
  193.8720  175.5940  143.0430 C   0  0  0  0  0  3  0  0  0  0  0  0
  194.4330  174.6830  142.1520 C   0  0  0  0  0  3  0  0  0  0  0  0
  189.2300  172.6740  139.6480 C   0  0  0  0  0  0  0  0  0  0  0  0
  189.8370  171.4500  139.0150 C   0  0  1  0  0  3  0  0  0  0  0  0
  187.4350  175.3520  142.6950 C   0  0  1  0  0  3  0  0  0  0  0  0
  189.7480  176.1240  143.2650 N   0  0  0  0  0  2  0  0  0  0  0  0
  191.7840  170.3380  138.4130 C   0  0  2  0  0  3  0  0  0  0  0  0
  187.9010  177.3850  144.2420 C   0  0  0  0  0  2  0  0  0  0  0  0
  192.4890  175.7640  143.0860 C   0  0  0  0  0  3  0  0  0  0  0  0
  190.3100  175.2270  142.2960 C   0  0  0  0  0  0  0  0  0  0  0  0
  191.6410  175.0340  142.2340 C   0  0  0  0  0  0  0  0  0  0  0  0
  191.4290  173.3230  140.5510 C   0  0  0  0  0  0  0  0  0  0  0  0
  190.9350  170.4980  137.1570 C   0  0  0  0  0  2  0  0  0  0  0  0
  185.9770  177.4090  142.3070 C   0  0  0  0  0  2  0  0  0  0  0  0
  188.3680  176.0160  143.7380 C   0  0  1  0  0  3  0  0  0  0  0  0
  189.8760  171.5110  137.5080 C   0  0  0  0  0  2  0  0  0  0  0  0
  186.8280  176.3100  141.6590 C   0  0  0  0  0  2  0  0  0  0  0  0
  186.3990  177.4590  144.5850 C   0  0  1  0  0  3  0  0  0  0  0  0
  193.6090  173.9360  141.3100 C   0  0  0  0  0  3  0  0  0  0  0  0
  192.2100  174.0890  141.3390 C   0  0  0  0  0  0  0  0  0  0  0  0
  192.0220  172.3430  139.5770 C   0  0  0  0  0  2  0  0  0  0  0  0
  188.1020  174.1510  142.0270 C   0  0  0  0  0  2  0  0  0  0  0  0
  188.0380  172.9780  139.3730 O   0  0  0  0  0  0  0  0  0  0  0  0
  191.8270  168.8770  138.8200 C   0  0  0  0  0  1  0  0  0  0  0  0
  189.9980  173.4760  140.5660 N   0  0  0  0  0  0  0  0  0  0  0  0
  191.1950  171.1360  139.4860 N   0  0  1  0  0  0  0  0  0  0  0  0
  186.0340  178.8690  145.0320 C   0  0  0  0  0  2  0  0  0  0  0  0
  184.9190  178.8450  146.0270 C   0  0  0  0  0  0  0  0  0  0  0  0
  185.2160  178.6030  147.4660 C   0  0  0  0  0  1  0  0  0  0  0  0
  183.7650  179.0040  145.6630 O   0  0  0  0  0  0  0  0  0  0  0  0
  1 20  1  0  0  0  0
  2 24  1  1  0  0  0
  2 12  1  0  0  0  0
  3 11  2  0  0  0  0
  4  3  1  0  0  0  0
  5 27  1  0  0  0  0
  6 18  1  6  0  0  0
  6 28  1  0  0  0  0
  6  5  1  0  0  0  0
  7 19  1  6  0  0  0
  7 17  1  0  0  0  0
  8 17  1  0  0  0  0
  9 26  1  1  0  0  0
  9 28  1  0  0  0  0
 10 20  1  0  0  0  0
 12  8  1  0  0  0  0
 13 12  2  0  0  0  0
 13 11  1  0  0  0  0
 14 27  1  0  0  0  0
 14 22  2  0  0  0  0
 15 18  1  0  0  0  0
 15  9  1  0  0  0  0
 16  1  1  0  0  0  0
 17 10  1  6  0  0  0
 19 16  1  0  0  0  0
 20 29  1  6  0  0  0
 21 22  1  0  0  0  0
 21  4  2  0  0  0  0
 22 13  1  0  0  0  0
 23 14  1  0  0  0  0
 24  7  1  0  0  0  0
 25  5  2  0  0  0  0
 27  2  1  0  0  0  0
 28 23  1  6  0  0  0
 29 30  1  0  0  0  0
 30 31  1  0  0  0  0
 32 30  2  0  0  0  0
M  END
>  <MODEL>
7

>  <REMARK>
 VINA RESULT:      -7.7      2.570      5.466
  Name = 
  2 active torsions:
  status: ('A' for Active; 'I' for Inactive)
    1  A    between atoms: C_20  and  C_29
    2  A    between atoms: C_29  and  C_30
                            x       y       z     vdW  Elec       q    Type
                         _______ _______ _______ _____ _____    ______ ____

>  <TORSDO>
F 2

$$$$
=
 OpenBabel11112416443D

 32 37  0  0  1  0  0  0  0  0999 V2000
  185.8710  176.9900  141.2870 O   0  0  0  0  0  0  0  0  0  0  0  0
  190.1010  175.8460  143.8740 C   0  0  2  0  0  3  0  0  0  0  0  0
  190.4560  177.7800  148.3920 C   0  0  0  0  0  3  0  0  0  0  0  0
  191.6710  177.1270  148.5880 C   0  0  0  0  0  3  0  0  0  0  0  0
  191.8560  174.1260  143.2640 C   0  0  0  0  0  0  0  0  0  0  0  0
  192.9330  173.1590  143.6800 C   0  0  1  0  0  3  0  0  0  0  0  0
  187.8500  175.9670  142.7760 C   0  0  1  0  0  3  0  0  0  0  0  0
  188.2620  177.2370  144.8960 N   0  0  0  0  0  2  0  0  0  0  0  0
  194.5750  172.6330  145.2340 C   0  0  2  0  0  3  0  0  0  0  0  0
  186.3120  177.8960  143.5860 C   0  0  0  0  0  2  0  0  0  0  0  0
  189.7490  177.5930  147.2050 C   0  0  0  0  0  3  0  0  0  0  0  0
  189.5410  176.6050  145.0510 C   0  0  0  0  0  0  0  0  0  0  0  0
  190.2460  176.7590  146.1880 C   0  0  0  0  0  0  0  0  0  0  0  0
  191.9530  175.2160  145.4720 C   0  0  0  0  0  0  0  0  0  0  0  0
  195.2380  172.6930  143.8630 C   0  0  0  0  0  2  0  0  0  0  0  0
  187.0950  177.6210  140.9860 C   0  0  0  0  0  2  0  0  0  0  0  0
  187.2420  176.7420  143.9710 C   0  0  1  0  0  3  0  0  0  0  0  0
  194.2400  173.3700  142.9590 C   0  0  0  0  0  2  0  0  0  0  0  0
  188.2700  176.8370  141.5810 C   0  0  0  0  0  2  0  0  0  0  0  0
  185.3090  177.5590  142.4620 C   0  0  1  0  0  3  0  0  0  0  0  0
  192.1730  176.2810  147.5990 C   0  0  0  0  0  3  0  0  0  0  0  0
  191.4740  176.0750  146.3940 C   0  0  0  0  0  0  0  0  0  0  0  0
  193.2670  174.5130  145.6660 C   0  0  0  0  0  2  0  0  0  0  0  0
  188.9800  175.0400  143.2220 C   0  0  0  0  0  2  0  0  0  0  0  0
  191.4840  174.1470  142.0600 O   0  0  0  0  0  0  0  0  0  0  0  0
  194.5410  171.1970  145.7250 C   0  0  0  0  0  1  0  0  0  0  0  0
  191.2520  175.0040  144.2330 N   0  0  0  0  0  0  0  0  0  0  0  0
  193.2130  173.1520  145.1240 N   0  0  1  0  0  0  0  0  0  0  0  0
  184.4670  178.7840  142.1290 C   0  0  0  0  0  2  0  0  0  0  0  0
  183.1100  178.3860  141.6440 C   0  0  0  0  0  0  0  0  0  0  0  0
  182.9340  177.9140  140.2420 C   0  0  0  0  0  1  0  0  0  0  0  0
  182.1440  178.4630  142.3850 O   0  0  0  0  0  0  0  0  0  0  0  0
  1 20  1  0  0  0  0
  2 24  1  1  0  0  0
  2 27  1  0  0  0  0
  2 12  1  0  0  0  0
  3  4  1  0  0  0  0
  5  6  1  0  0  0  0
  5 27  1  0  0  0  0
  6 18  1  6  0  0  0
  6 28  1  0  0  0  0
  7 19  1  6  0  0  0
  7 24  1  0  0  0  0
  7 17  1  0  0  0  0
  8 12  1  0  0  0  0
  9 26  1  6  0  0  0
 11  3  2  0  0  0  0
 12 13  2  0  0  0  0
 13 22  1  0  0  0  0
 13 11  1  0  0  0  0
 14 23  1  0  0  0  0
 14 22  2  0  0  0  0
 15  9  1  0  0  0  0
 16  1  1  0  0  0  0
 16 19  1  0  0  0  0
 17 10  1  6  0  0  0
 17  8  1  0  0  0  0
 18 15  1  0  0  0  0
 20 29  1  6  0  0  0
 20 10  1  0  0  0  0
 21  4  2  0  0  0  0
 22 21  1  0  0  0  0
 25  5  2  0  0  0  0
 27 14  1  0  0  0  0
 28  9  1  0  0  0  0
 28 23  1  6  0  0  0
 30 29  1  0  0  0  0
 30 32  2  0  0  0  0
 31 30  1  0  0  0  0
M  END
>  <MODEL>
8

>  <REMARK>
 VINA RESULT:      -7.4      2.192      4.069
  Name = 
  2 active torsions:
  status: ('A' for Active; 'I' for Inactive)
    1  A    between atoms: C_20  and  C_29
    2  A    between atoms: C_29  and  C_30
                            x       y       z     vdW  Elec       q    Type
                         _______ _______ _______ _____ _____    ______ ____

>  <TORSDO>
F 2

$$$$
=
 OpenBabel11112416443D

 32 37  0  0  1  0  0  0  0  0999 V2000
  195.2660  174.6370  146.5090 O   0  0  0  0  0  0  0  0  0  0  0  0
  190.5680  176.0700  145.1790 C   0  0  2  0  0  3  0  0  0  0  0  0
  188.9540  174.4040  140.8330 C   0  0  0  0  0  3  0  0  0  0  0  0
  187.7230  175.0220  141.0410 C   0  0  0  0  0  3  0  0  0  0  0  0
  188.8460  177.2230  146.6330 C   0  0  0  0  0  0  0  0  0  0  0  0
  187.4060  177.5140  146.9650 C   0  0  1  0  0  3  0  0  0  0  0  0
  192.6450  174.9990  146.0900 C   0  0  1  0  0  3  0  0  0  0  0  0
  191.9350  174.5180  143.7360 N   0  0  0  0  0  2  0  0  0  0  0  0
  185.2360  177.7360  146.1720 C   0  0  2  0  0  3  0  0  0  0  0  0
  194.2390  173.9640  144.3200 C   0  0  0  0  0  2  0  0  0  0  0  0
  189.9410  174.4710  141.8150 C   0  0  0  0  0  3  0  0  0  0  0  0
  190.6980  175.2150  143.9430 C   0  0  0  0  0  0  0  0  0  0  0  0
  189.7210  175.1640  143.0180 C   0  0  0  0  0  0  0  0  0  0  0  0
  188.1850  176.3950  144.4080 C   0  0  0  0  0  0  0  0  0  0  0  0
  185.6040  179.0330  146.8820 C   0  0  0  0  0  2  0  0  0  0  0  0
  195.0150  175.9400  146.0350 C   0  0  0  0  0  2  0  0  0  0  0  0
  192.8040  174.1020  144.8370 C   0  0  1  0  0  3  0  0  0  0  0  0
  187.0990  178.9870  147.0640 C   0  0  0  0  0  2  0  0  0  0  0  0
  193.5180  176.2630  146.1010 C   0  0  0  0  0  2  0  0  0  0  0  0
  195.2930  173.7220  145.4210 C   0  0  1  0  0  3  0  0  0  0  0  0
  187.4780  175.7000  142.2350 C   0  0  0  0  0  3  0  0  0  0  0  0
  188.4590  175.7770  143.2410 C   0  0  0  0  0  0  0  0  0  0  0  0
  186.8660  177.0760  144.6410 C   0  0  0  0  0  2  0  0  0  0  0  0
  191.1780  175.3260  146.3660 C   0  0  0  0  0  2  0  0  0  0  0  0
  189.7480  177.6210  147.4180 O   0  0  0  0  0  0  0  0  0  0  0  0
  184.1900  176.9880  146.9780 C   0  0  0  0  0  1  0  0  0  0  0  0
  189.1830  176.4880  145.4400 N   0  0  0  0  0  0  0  0  0  0  0  0
  186.4380  176.9150  146.0350 N   0  0  1  0  0  0  0  0  0  0  0  0
  196.6840  173.6450  144.8040 C   0  0  0  0  0  2  0  0  0  0  0  0
  197.2030  172.2440  144.8270 C   0  0  0  0  0  0  0  0  0  0  0  0
  196.8340  171.3360  145.9480 C   0  0  0  0  0  1  0  0  0  0  0  0
  197.9410  171.8460  143.9410 O   0  0  0  0  0  0  0  0  0  0  0  0
  2 27  1  0  0  0  0
  2 24  1  1  0  0  0
  3  4  1  0  0  0  0
  3 11  2  0  0  0  0
  4 21  2  0  0  0  0
  5  6  1  0  0  0  0
  5 25  2  0  0  0  0
  6 18  1  6  0  0  0
  7 19  1  6  0  0  0
  7 24  1  0  0  0  0
  8 12  1  0  0  0  0
  8 17  1  0  0  0  0
  9 15  1  0  0  0  0
  9 26  1  1  0  0  0
 10 20  1  0  0  0  0
 11 13  1  0  0  0  0
 12  2  1  0  0  0  0
 13 22  1  0  0  0  0
 13 12  2  0  0  0  0
 14 23  1  0  0  0  0
 14 27  1  0  0  0  0
 15 18  1  0  0  0  0
 16 19  1  0  0  0  0
 16  1  1  0  0  0  0
 17 10  1  6  0  0  0
 17  7  1  0  0  0  0
 20 29  1  6  0  0  0
 20  1  1  0  0  0  0
 21 22  1  0  0  0  0
 22 14  2  0  0  0  0
 27  5  1  0  0  0  0
 28 23  1  6  0  0  0
 28  9  1  0  0  0  0
 28  6  1  0  0  0  0
 29 30  1  0  0  0  0
 30 31  1  0  0  0  0
 32 30  2  0  0  0  0
M  END
>  <MODEL>
9

>  <REMARK>
 VINA RESULT:      -7.4      2.973      8.465
  Name = 
  2 active torsions:
  status: ('A' for Active; 'I' for Inactive)
    1  A    between atoms: C_20  and  C_29
    2  A    between atoms: C_29  and  C_30
                            x       y       z     vdW  Elec       q    Type
                         _______ _______ _______ _____ _____    ______ ____

>  <TORSDO>
F 2

$$$$
