=
 OpenBabel11112417253D

 37 43  0  0  1  0  0  0  0  0999 V2000
  191.8710  172.6520  141.6110 C   0  0  0  0  0  2  0  0  0  0  0  0
  193.7390  174.9200  145.2800 C   0  0  0  0  0  0  0  0  0  0  0  0
  189.5750  174.5860  145.1740 C   0  0  1  0  0  3  0  0  0  0  0  0
  192.4660  172.4700  140.2780 N   0  0  0  0  0  0  0  0  0  0  0  0
  188.1690  174.4320  141.7080 C   0  0  0  0  0  2  0  0  0  0  0  0
  191.6900  175.3720  146.2770 C   0  0  1  0  0  3  0  0  0  0  0  0
  189.7460  174.7880  143.6880 C   0  0  0  0  0  0  0  0  0  0  0  0
  190.1300  172.0380  139.4330 C   0  0  0  0  0  0  0  0  0  0  0  0
  190.9810  174.1760  145.6460 C   0  0  2  0  0  3  0  0  0  0  0  0
  188.7360  175.4200  142.7420 C   0  0  2  0  0  3  0  0  0  0  0  0
  190.9840  175.8300  147.5520 C   0  0  0  0  0  2  0  0  0  0  0  0
  191.5050  172.6070  139.1640 C   0  0  0  0  0  2  0  0  0  0  0  0
  191.6930  173.8570  144.4240 N   0  0  0  0  0  0  0  0  0  0  0  0
  195.1790  174.5640  145.5840 C   0  0  0  0  0  1  0  0  0  0  0  0
  188.9560  177.0930  145.4030 C   0  0  0  0  0  3  0  0  0  0  0  0
  189.4490  175.7420  147.4530 C   0  0  0  0  0  2  0  0  0  0  0  0
  193.1500  173.7740  144.4360 C   0  0  0  0  0  2  0  0  0  0  0  0
  188.9910  172.9600  139.7630 C   0  0  0  0  0  2  0  0  0  0  0  0
  189.3190  173.6760  141.0600 C   0  0  1  0  0  3  0  0  0  0  0  0
  188.9190  175.7180  146.0110 C   0  0  2  0  0  3  0  0  0  0  0  0
  190.9260  174.2820  143.3040 C   0  0  0  0  0  0  0  0  0  0  0  0
  193.0510  175.0760  146.5170 O   0  0  0  0  0  0  0  0  0  0  0  0
  187.6790  176.3050  143.4220 C   0  0  1  0  0  3  0  0  0  0  0  0
  193.7500  176.2180  144.4750 C   0  0  0  0  0  1  0  0  0  0  0  0
  190.4450  174.5100  140.9100 O   0  0  0  0  0  0  0  0  0  0  0  0
  189.9470  170.8320  139.3970 O   0  0  0  0  0  0  0  0  0  0  0  0
  191.4040  174.1010  141.8660 C   0  0  2  0  0  3  0  0  0  0  0  0
  188.3620  177.3680  144.2370 C   0  0  0  0  0  3  0  0  0  0  0  0
  187.2260  177.2190  141.1390 C   0  0  0  0  0  3  0  0  0  0  0  0
  186.7560  176.9470  142.4300 C   0  0  0  0  0  0  0  0  0  0  0  0
  185.4360  177.2820  142.7710 C   0  0  0  0  0  3  0  0  0  0  0  0
  183.2610  178.2220  142.1790 N   0  0  0  0  0  1  0  0  0  0  0  0
  185.0730  178.1540  140.5420 C   0  0  0  0  0  3  0  0  0  0  0  0
  184.5970  177.8840  141.8280 C   0  0  0  0  0  0  0  0  0  0  0  0
  186.3860  177.8220  140.1980 C   0  0  0  0  0  3  0  0  0  0  0  0
  192.8250  170.4350  141.5600 C   0  0  0  0  0  1  0  0  0  0  0  0
  193.0210  171.1270  140.2250 C   0  0  0  0  0  2  0  0  0  0  0  0
  2 14  1  0  0  0  0
  2 22  1  0  0  0  0
  3  7  1  6  0  0  0
  3  9  1  0  0  0  0
  3 20  1  0  0  0  0
  4  1  1  0  0  0  0
  6 22  1  0  0  0  0
  6 11  1  1  0  0  0
  8 18  1  0  0  0  0
  9 13  1  6  0  0  0
  9  6  1  0  0  0  0
 10  5  1  1  0  0  0
 10 23  1  0  0  0  0
 10  7  1  0  0  0  0
 12  8  1  0  0  0  0
 12  4  1  0  0  0  0
 13 17  1  0  0  0  0
 16 11  1  0  0  0  0
 17  2  1  0  0  0  0
 19 18  1  6  0  0  0
 19  5  1  0  0  0  0
 20 15  1  6  0  0  0
 20 16  1  0  0  0  0
 21  7  2  0  0  0  0
 21 13  1  0  0  0  0
 23 30  1  6  0  0  0
 23 28  1  0  0  0  0
 24  2  1  0  0  0  0
 25 19  1  0  0  0  0
 25 27  1  0  0  0  0
 26  8  2  0  0  0  0
 27  1  1  6  0  0  0
 27 21  1  0  0  0  0
 28 15  2  0  0  0  0
 29 30  1  0  0  0  0
 30 31  2  0  0  0  0
 33 34  2  0  0  0  0
 34 32  1  0  0  0  0
 34 31  1  0  0  0  0
 35 33  1  0  0  0  0
 35 29  2  0  0  0  0
 37  4  1  0  0  0  0
 37 36  1  0  0  0  0
M  END
>  <MODEL>
1

>  <REMARK>
 VINA RESULT:      -9.0      0.000      0.000
  Name = 
  2 active torsions:
  status: ('A' for Active; 'I' for Inactive)
    1  A    between atoms: N_4  and  C_37
    2  A    between atoms: C_23  and  C_30
                            x       y       z     vdW  Elec       q    Type
                         _______ _______ _______ _____ _____    ______ ____

>  <TORSDO>
F 2

$$$$
=
 OpenBabel11112417253D

 37 43  0  0  1  0  0  0  0  0999 V2000
  191.4570  173.0640  141.0800 C   0  0  0  0  0  2  0  0  0  0  0  0
  193.9970  174.9000  144.5830 C   0  0  0  0  0  0  0  0  0  0  0  0
  189.9070  174.3910  145.2690 C   0  0  1  0  0  3  0  0  0  0  0  0
  191.7690  173.0920  139.6440 N   0  0  0  0  0  0  0  0  0  0  0  0
  187.8220  174.6400  142.1710 C   0  0  0  0  0  2  0  0  0  0  0  0
  192.1890  175.1180  146.0250 C   0  0  1  0  0  3  0  0  0  0  0  0
  189.7650  174.7990  143.8230 C   0  0  0  0  0  0  0  0  0  0  0  0
  189.3170  172.6690  139.2320 C   0  0  0  0  0  0  0  0  0  0  0  0
  191.3870  173.9870  145.3860 C   0  0  2  0  0  3  0  0  0  0  0  0
  188.5720  175.5050  143.1990 C   0  0  2  0  0  3  0  0  0  0  0  0
  191.7520  175.3660  147.4670 C   0  0  0  0  0  2  0  0  0  0  0  0
  190.5970  173.3340  138.7760 C   0  0  0  0  0  2  0  0  0  0  0  0
  191.8390  173.8690  144.0140 N   0  0  0  0  0  0  0  0  0  0  0  0
  195.4750  174.5750  144.5380 C   0  0  0  0  0  1  0  0  0  0  0  0
  189.3030  176.8120  145.9700 C   0  0  0  0  0  3  0  0  0  0  0  0
  190.2310  175.2210  147.6670 C   0  0  0  0  0  2  0  0  0  0  0  0
  193.2680  173.8530  143.7210 C   0  0  0  0  0  2  0  0  0  0  0  0
  188.2540  173.4850  139.9110 C   0  0  0  0  0  2  0  0  0  0  0  0
  188.8280  174.0330  141.2040 C   0  0  1  0  0  3  0  0  0  0  0  0
  189.4170  175.3680  146.3730 C   0  0  2  0  0  3  0  0  0  0  0  0
  190.8500  174.4050  143.1430 C   0  0  0  0  0  0  0  0  0  0  0  0
  193.5750  174.8560  145.9430 O   0  0  0  0  0  0  0  0  0  0  0  0
  187.6610  176.2400  144.1950 C   0  0  1  0  0  3  0  0  0  0  0  0
  193.8200  176.2940  143.9850 C   0  0  0  0  0  1  0  0  0  0  0  0
  189.8840  174.9320  140.9510 O   0  0  0  0  0  0  0  0  0  0  0  0
  189.1530  171.4730  139.0630 O   0  0  0  0  0  0  0  0  0  0  0  0
  191.0270  174.4430  141.6270 C   0  0  2  0  0  3  0  0  0  0  0  0
  188.4780  177.2140  144.9990 C   0  0  0  0  0  3  0  0  0  0  0  0
  185.4700  177.4410  144.2730 C   0  0  0  0  0  3  0  0  0  0  0  0
  186.5430  176.9670  143.5100 C   0  0  0  0  0  0  0  0  0  0  0  0
  186.5510  177.1770  142.1210 C   0  0  0  0  0  3  0  0  0  0  0  0
  185.5060  178.0650  140.1000 N   0  0  0  0  0  1  0  0  0  0  0  0
  184.4250  178.3250  142.2750 C   0  0  0  0  0  3  0  0  0  0  0  0
  185.4940  177.8550  141.5070 C   0  0  0  0  0  0  0  0  0  0  0  0
  184.4130  178.1190  143.6570 C   0  0  0  0  0  3  0  0  0  0  0  0
  192.4050  170.9150  140.5220 C   0  0  0  0  0  1  0  0  0  0  0  0
  192.3250  171.7950  139.2900 C   0  0  0  0  0  2  0  0  0  0  0  0
  2 22  1  0  0  0  0
  3  7  1  6  0  0  0
  3  9  1  0  0  0  0
  3 20  1  0  0  0  0
  4  1  1  0  0  0  0
  6 11  1  1  0  0  0
  8 18  1  0  0  0  0
  9 13  1  6  0  0  0
  9  6  1  0  0  0  0
 10  5  1  1  0  0  0
 10  7  1  0  0  0  0
 10 23  1  0  0  0  0
 11 16  1  0  0  0  0
 12  8  1  0  0  0  0
 12  4  1  0  0  0  0
 14  2  1  0  0  0  0
 17 13  1  0  0  0  0
 17  2  1  0  0  0  0
 19 18  1  6  0  0  0
 19  5  1  0  0  0  0
 20 15  1  6  0  0  0
 20 16  1  0  0  0  0
 21  7  2  0  0  0  0
 21 13  1  0  0  0  0
 22  6  1  0  0  0  0
 23 30  1  6  0  0  0
 23 28  1  0  0  0  0
 24  2  1  0  0  0  0
 25 19  1  0  0  0  0
 25 27  1  0  0  0  0
 26  8  2  0  0  0  0
 27  1  1  6  0  0  0
 27 21  1  0  0  0  0
 28 15  2  0  0  0  0
 30 29  2  0  0  0  0
 31 30  1  0  0  0  0
 32 34  1  0  0  0  0
 33 35  2  0  0  0  0
 34 31  2  0  0  0  0
 34 33  1  0  0  0  0
 35 29  1  0  0  0  0
 37  4  1  0  0  0  0
 37 36  1  0  0  0  0
M  END
>  <MODEL>
2

>  <REMARK>
 VINA RESULT:      -8.9      0.968      1.329
  Name = 
  2 active torsions:
  status: ('A' for Active; 'I' for Inactive)
    1  A    between atoms: N_4  and  C_37
    2  A    between atoms: C_23  and  C_30
                            x       y       z     vdW  Elec       q    Type
                         _______ _______ _______ _____ _____    ______ ____

>  <TORSDO>
F 2

$$$$
=
 OpenBabel11112417253D

 37 43  0  0  1  0  0  0  0  0999 V2000
  188.4080  177.1630  144.1500 C   0  0  0  0  0  2  0  0  0  0  0  0
  191.5260  176.7250  147.6410 C   0  0  0  0  0  0  0  0  0  0  0  0
  192.8610  175.8410  143.7810 C   0  0  1  0  0  3  0  0  0  0  0  0
  186.9430  177.0900  144.2490 N   0  0  0  0  0  0  0  0  0  0  0  0
  190.1730  174.5410  141.5230 C   0  0  0  0  0  2  0  0  0  0  0  0
  193.2600  176.0460  146.2520 C   0  0  1  0  0  3  0  0  0  0  0  0
  191.4820  175.2540  143.5990 C   0  0  0  0  0  0  0  0  0  0  0  0
  186.9270  176.5790  141.7790 C   0  0  0  0  0  0  0  0  0  0  0  0
  192.7070  176.7480  145.0140 C   0  0  2  0  0  3  0  0  0  0  0  0
  191.1050  174.1110  142.6690 C   0  0  2  0  0  3  0  0  0  0  0  0
  194.7660  175.8190  146.1380 C   0  0  0  0  0  2  0  0  0  0  0  0
  186.2990  176.3600  143.1380 C   0  0  0  0  0  2  0  0  0  0  0  0
  191.2740  176.8660  145.1990 N   0  0  0  0  0  0  0  0  0  0  0  0
  191.2170  177.5410  148.8770 C   0  0  0  0  0  1  0  0  0  0  0  0
  193.7790  173.4520  144.2010 C   0  0  0  0  0  3  0  0  0  0  0  0
  195.2110  175.4420  144.7120 C   0  0  0  0  0  2  0  0  0  0  0  0
  190.7450  177.3500  146.4690 C   0  0  0  0  0  2  0  0  0  0  0  0
  187.8160  175.5220  141.1900 C   0  0  0  0  0  2  0  0  0  0  0  0
  189.0220  175.3530  142.0960 C   0  0  1  0  0  3  0  0  0  0  0  0
  194.0810  174.8800  143.8360 C   0  0  2  0  0  3  0  0  0  0  0  0
  190.6100  175.9260  144.3620 C   0  0  0  0  0  0  0  0  0  0  0  0
  192.9330  176.7660  147.4230 O   0  0  0  0  0  0  0  0  0  0  0  0
  192.2760  173.2170  142.2350 C   0  0  1  0  0  3  0  0  0  0  0  0
  191.0390  175.3010  147.9010 C   0  0  0  0  0  1  0  0  0  0  0  0
  188.6420  174.8600  143.3610 O   0  0  0  0  0  0  0  0  0  0  0  0
  186.7270  177.6160  141.1700 O   0  0  0  0  0  0  0  0  0  0  0  0
  189.0900  175.7890  144.3290 C   0  0  2  0  0  3  0  0  0  0  0  0
  192.9820  172.6840  143.4520 C   0  0  0  0  0  3  0  0  0  0  0  0
  191.2360  170.9580  141.9770 C   0  0  0  0  0  3  0  0  0  0  0  0
  191.8270  172.0740  141.3740 C   0  0  0  0  0  0  0  0  0  0  0  0
  191.9900  172.1020  139.9790 C   0  0  0  0  0  3  0  0  0  0  0  0
  191.7340  171.0540  137.7880 N   0  0  0  0  0  1  0  0  0  0  0  0
  190.9780  169.9100  139.8090 C   0  0  0  0  0  3  0  0  0  0  0  0
  191.5660  171.0220  139.2000 C   0  0  0  0  0  0  0  0  0  0  0  0
  190.8130  169.8780  141.1960 C   0  0  0  0  0  3  0  0  0  0  0  0
  185.7970  178.7720  145.5800 C   0  0  0  0  0  1  0  0  0  0  0  0
  186.4350  178.4520  144.2420 C   0  0  0  0  0  2  0  0  0  0  0  0
  1  4  1  0  0  0  0
  2 24  1  0  0  0  0
  2 14  1  0  0  0  0
  3  7  1  1  0  0  0
  3 20  1  0  0  0  0
  3  9  1  0  0  0  0
  5 19  1  0  0  0  0
  6 11  1  6  0  0  0
  6 22  1  0  0  0  0
  7 21  2  0  0  0  0
  8 12  1  0  0  0  0
  9 13  1  1  0  0  0
  9  6  1  0  0  0  0
 10  5  1  6  0  0  0
 10  7  1  0  0  0  0
 12  4  1  0  0  0  0
 13 17  1  0  0  0  0
 16 11  1  0  0  0  0
 17  2  1  0  0  0  0
 18  8  1  0  0  0  0
 19 18  1  6  0  0  0
 19 25  1  0  0  0  0
 20 15  1  1  0  0  0
 20 16  1  0  0  0  0
 21 13  1  0  0  0  0
 22  2  1  0  0  0  0
 23 30  1  1  0  0  0
 23 10  1  0  0  0  0
 23 28  1  0  0  0  0
 25 27  1  0  0  0  0
 26  8  2  0  0  0  0
 27  1  1  6  0  0  0
 27 21  1  0  0  0  0
 28 15  2  0  0  0  0
 30 29  1  0  0  0  0
 31 30  2  0  0  0  0
 32 34  1  0  0  0  0
 33 35  1  0  0  0  0
 34 33  2  0  0  0  0
 34 31  1  0  0  0  0
 35 29  2  0  0  0  0
 37  4  1  0  0  0  0
 37 36  1  0  0  0  0
M  END
>  <MODEL>
3

>  <REMARK>
 VINA RESULT:      -8.6      2.051      6.400
  Name = 
  2 active torsions:
  status: ('A' for Active; 'I' for Inactive)
    1  A    between atoms: N_4  and  C_37
    2  A    between atoms: C_23  and  C_30
                            x       y       z     vdW  Elec       q    Type
                         _______ _______ _______ _____ _____    ______ ____

>  <TORSDO>
F 2

$$$$
=
 OpenBabel11112417253D

 37 43  0  0  1  0  0  0  0  0999 V2000
  193.9010  174.2750  143.9260 C   0  0  0  0  0  2  0  0  0  0  0  0
  191.9310  170.7380  141.5380 C   0  0  0  0  0  0  0  0  0  0  0  0
  190.2860  174.5410  140.9970 C   0  0  1  0  0  3  0  0  0  0  0  0
  194.6700  174.1880  145.1760 N   0  0  0  0  0  0  0  0  0  0  0  0
  190.6320  176.7660  143.9870 C   0  0  0  0  0  2  0  0  0  0  0  0
  190.3350  172.0780  140.5110 C   0  0  1  0  0  3  0  0  0  0  0  0
  190.5710  174.7110  142.4690 C   0  0  0  0  0  0  0  0  0  0  0  0
  194.1530  176.6320  145.5180 C   0  0  0  0  0  0  0  0  0  0  0  0
  191.1740  173.3510  140.5930 C   0  0  2  0  0  3  0  0  0  0  0  0
  189.8010  175.5920  143.4410 C   0  0  2  0  0  3  0  0  0  0  0  0
  189.2950  172.1670  139.3960 C   0  0  0  0  0  2  0  0  0  0  0  0
  194.3840  175.2720  146.1380 C   0  0  0  0  0  2  0  0  0  0  0  0
  192.0860  173.1860  141.7070 N   0  0  0  0  0  0  0  0  0  0  0  0
  192.8300  169.5410  141.3130 C   0  0  0  0  0  1  0  0  0  0  0  0
  187.8160  174.0070  141.5770 C   0  0  0  0  0  3  0  0  0  0  0  0
  188.6730  173.5700  139.2640 C   0  0  0  0  0  2  0  0  0  0  0  0
  192.8370  171.9430  141.8510 C   0  0  0  0  0  2  0  0  0  0  0  0
  192.7550  177.1660  145.3880 C   0  0  0  0  0  2  0  0  0  0  0  0
  191.9750  176.2410  144.4720 C   0  0  1  0  0  3  0  0  0  0  0  0
  188.8090  174.4310  140.5290 C   0  0  2  0  0  3  0  0  0  0  0  0
  191.6490  173.9870  142.7990 C   0  0  0  0  0  0  0  0  0  0  0  0
  191.1630  170.9430  140.3560 O   0  0  0  0  0  0  0  0  0  0  0  0
  188.3850  175.9750  142.9830 C   0  0  1  0  0  3  0  0  0  0  0  0
  191.0410  170.4200  142.7380 C   0  0  0  0  0  1  0  0  0  0  0  0
  191.8350  174.9590  145.0420 O   0  0  0  0  0  0  0  0  0  0  0  0
  195.0960  177.2890  145.1100 O   0  0  0  0  0  0  0  0  0  0  0  0
  192.3900  174.0290  144.1330 C   0  0  2  0  0  3  0  0  0  0  0  0
  187.5990  174.7290  142.6800 C   0  0  0  0  0  3  0  0  0  0  0  0
  187.6860  176.3780  145.3500 C   0  0  0  0  0  3  0  0  0  0  0  0
  187.6590  176.7890  144.0120 C   0  0  0  0  0  0  0  0  0  0  0  0
  186.9530  177.9510  143.6590 C   0  0  0  0  0  3  0  0  0  0  0  0
  185.5660  179.8640  144.2750 N   0  0  0  0  0  1  0  0  0  0  0  0
  186.3110  178.2720  145.9710 C   0  0  0  0  0  3  0  0  0  0  0  0
  186.2810  178.6900  144.6380 C   0  0  0  0  0  0  0  0  0  0  0  0
  187.0130  177.1170  146.3270 C   0  0  0  0  0  3  0  0  0  0  0  0
  196.9230  173.7910  145.9980 C   0  0  0  0  0  1  0  0  0  0  0  0
  196.0800  174.2600  144.8290 C   0  0  0  0  0  2  0  0  0  0  0  0
  1  4  1  0  0  0  0
  2 17  1  0  0  0  0
  2 24  1  0  0  0  0
  3  7  1  1  0  0  0
  4 12  1  0  0  0  0
  6 11  1  6  0  0  0
  6  9  1  0  0  0  0
  7 21  2  0  0  0  0
  7 10  1  0  0  0  0
  8 12  1  0  0  0  0
  9  3  1  0  0  0  0
  9 13  1  1  0  0  0
 10  5  1  6  0  0  0
 13 17  1  0  0  0  0
 13 21  1  0  0  0  0
 14  2  1  0  0  0  0
 15 28  2  0  0  0  0
 16 11  1  0  0  0  0
 18  8  1  0  0  0  0
 19  5  1  1  0  0  0
 19 25  1  0  0  0  0
 19 18  1  0  0  0  0
 20 16  1  6  0  0  0
 20  3  1  0  0  0  0
 20 15  1  0  0  0  0
 21 27  1  0  0  0  0
 22  6  1  0  0  0  0
 22  2  1  0  0  0  0
 23 10  1  0  0  0  0
 23 30  1  1  0  0  0
 26  8  2  0  0  0  0
 27  1  1  6  0  0  0
 27 25  1  0  0  0  0
 28 23  1  0  0  0  0
 29 35  1  0  0  0  0
 30 29  2  0  0  0  0
 31 30  1  0  0  0  0
 31 34  2  0  0  0  0
 32 34  1  0  0  0  0
 33 35  2  0  0  0  0
 34 33  1  0  0  0  0
 37  4  1  0  0  0  0
 37 36  1  0  0  0  0
M  END
>  <MODEL>
4

>  <REMARK>
 VINA RESULT:      -8.3      1.976      5.558
  Name = 
  2 active torsions:
  status: ('A' for Active; 'I' for Inactive)
    1  A    between atoms: N_4  and  C_37
    2  A    between atoms: C_23  and  C_30
                            x       y       z     vdW  Elec       q    Type
                         _______ _______ _______ _____ _____    ______ ____

>  <TORSDO>
F 2

$$$$
=
 OpenBabel11112417253D

 37 43  0  0  1  0  0  0  0  0999 V2000
  192.6540  173.1110  139.8690 C   0  0  0  0  0  2  0  0  0  0  0  0
  196.6950  175.1130  141.1920 C   0  0  0  0  0  0  0  0  0  0  0  0
  194.2720  173.5510  144.2160 C   0  0  1  0  0  3  0  0  0  0  0  0
  191.8910  173.3720  138.6400 N   0  0  0  0  0  0  0  0  0  0  0  0
  190.6190  173.6250  143.4020 C   0  0  0  0  0  2  0  0  0  0  0  0
  196.3580  174.7240  143.4580 C   0  0  1  0  0  3  0  0  0  0  0  0
  193.1350  174.0690  143.3680 C   0  0  0  0  0  0  0  0  0  0  0  0
  189.8860  172.4130  139.8310 C   0  0  0  0  0  0  0  0  0  0  0  0
  195.4600  173.5090  143.2410 C   0  0  2  0  0  3  0  0  0  0  0  0
  191.7740  174.5280  143.8680 C   0  0  2  0  0  3  0  0  0  0  0  0
  197.0060  174.6980  144.8410 C   0  0  0  0  0  2  0  0  0  0  0  0
  190.4270  173.4150  138.8360 C   0  0  0  0  0  2  0  0  0  0  0  0
  194.8570  173.6570  141.9310 N   0  0  0  0  0  0  0  0  0  0  0  0
  197.7630  175.1640  140.1210 C   0  0  0  0  0  1  0  0  0  0  0  0
  194.0660  175.6600  145.7100 C   0  0  0  0  0  3  0  0  0  0  0  0
  196.0630  174.1660  145.9370 C   0  0  0  0  0  2  0  0  0  0  0  0
  195.6880  174.0210  140.7880 C   0  0  0  0  0  2  0  0  0  0  0  0
  189.5010  172.8660  141.2110 C   0  0  0  0  0  2  0  0  0  0  0  0
  190.7440  173.3910  141.9040 C   0  0  1  0  0  3  0  0  0  0  0  0
  194.5740  174.2510  145.5700 C   0  0  2  0  0  3  0  0  0  0  0  0
  193.4920  174.0290  142.0780 C   0  0  0  0  0  0  0  0  0  0  0  0
  197.3280  174.8180  142.4340 O   0  0  0  0  0  0  0  0  0  0  0  0
  191.7250  174.9040  145.3570 C   0  0  1  0  0  3  0  0  0  0  0  0
  196.0130  176.4790  141.2210 C   0  0  0  0  0  1  0  0  0  0  0  0
  191.2380  174.5420  141.2570 O   0  0  0  0  0  0  0  0  0  0  0  0
  189.7750  171.2390  139.5220 O   0  0  0  0  0  0  0  0  0  0  0  0
  192.5760  174.2740  140.8810 C   0  0  2  0  0  3  0  0  0  0  0  0
  192.7640  175.9530  145.6450 C   0  0  0  0  0  3  0  0  0  0  0  0
  189.7460  174.8410  146.8840 C   0  0  0  0  0  3  0  0  0  0  0  0
  190.3740  175.4080  145.7690 C   0  0  0  0  0  0  0  0  0  0  0  0
  189.7290  176.4340  145.0590 C   0  0  0  0  0  3  0  0  0  0  0  0
  187.8180  177.9200  144.7380 N   0  0  0  0  0  1  0  0  0  0  0  0
  187.8460  176.3100  146.5740 C   0  0  0  0  0  3  0  0  0  0  0  0
  188.4680  176.8820  145.4620 C   0  0  0  0  0  0  0  0  0  0  0  0
  188.4840  175.2900  147.2860 C   0  0  0  0  0  3  0  0  0  0  0  0
  191.4270  172.5200  136.4100 C   0  0  0  0  0  1  0  0  0  0  0  0
  192.1830  172.2970  137.7050 C   0  0  0  0  0  2  0  0  0  0  0  0
  2 24  1  0  0  0  0
  2 22  1  0  0  0  0
  3  7  1  6  0  0  0
  3 20  1  0  0  0  0
  4 12  1  0  0  0  0
  4  1  1  0  0  0  0
  6 11  1  1  0  0  0
  7 10  1  0  0  0  0
  8 18  1  0  0  0  0
  9 13  1  6  0  0  0
  9  6  1  0  0  0  0
  9  3  1  0  0  0  0
 10  5  1  1  0  0  0
 10 23  1  0  0  0  0
 11 16  1  0  0  0  0
 12  8  1  0  0  0  0
 13 21  1  0  0  0  0
 14  2  1  0  0  0  0
 17  2  1  0  0  0  0
 17 13  1  0  0  0  0
 19 18  1  6  0  0  0
 19  5  1  0  0  0  0
 20 15  1  6  0  0  0
 20 16  1  0  0  0  0
 21  7  2  0  0  0  0
 22  6  1  0  0  0  0
 23 28  1  0  0  0  0
 23 30  1  6  0  0  0
 25 19  1  0  0  0  0
 26  8  2  0  0  0  0
 27  1  1  6  0  0  0
 27 25  1  0  0  0  0
 27 21  1  0  0  0  0
 28 15  2  0  0  0  0
 29 35  1  0  0  0  0
 30 29  2  0  0  0  0
 31 34  2  0  0  0  0
 31 30  1  0  0  0  0
 32 34  1  0  0  0  0
 33 35  2  0  0  0  0
 34 33  1  0  0  0  0
 36 37  1  0  0  0  0
 37  4  1  0  0  0  0
M  END
>  <MODEL>
5

>  <REMARK>
 VINA RESULT:      -8.2      2.777      4.630
  Name = 
  2 active torsions:
  status: ('A' for Active; 'I' for Inactive)
    1  A    between atoms: N_4  and  C_37
    2  A    between atoms: C_23  and  C_30
                            x       y       z     vdW  Elec       q    Type
                         _______ _______ _______ _____ _____    ______ ____

>  <TORSDO>
F 2

$$$$
=
 OpenBabel11112417253D

 37 43  0  0  1  0  0  0  0  0999 V2000
  195.5090  173.9500  142.2500 C   0  0  0  0  0  2  0  0  0  0  0  0
  193.5460  170.3130  140.0100 C   0  0  0  0  0  0  0  0  0  0  0  0
  191.1250  173.6480  140.7000 C   0  0  1  0  0  3  0  0  0  0  0  0
  196.6640  173.9180  143.1590 N   0  0  0  0  0  0  0  0  0  0  0  0
  192.0540  175.5670  143.7780 C   0  0  0  0  0  2  0  0  0  0  0  0
  191.4700  171.3330  139.7920 C   0  0  1  0  0  3  0  0  0  0  0  0
  191.8630  173.7270  142.0140 C   0  0  0  0  0  0  0  0  0  0  0  0
  195.8430  176.1190  144.0760 C   0  0  0  0  0  0  0  0  0  0  0  0
  192.0270  172.7540  139.8330 C   0  0  2  0  0  3  0  0  0  0  0  0
  191.3240  174.2920  143.3190 C   0  0  2  0  0  3  0  0  0  0  0  0
  190.1110  171.2870  139.0940 C   0  0  0  0  0  2  0  0  0  0  0  0
  196.5280  174.7960  144.3390 C   0  0  0  0  0  2  0  0  0  0  0  0
  193.2820  172.6960  140.5560 N   0  0  0  0  0  0  0  0  0  0  0  0
  194.5220  169.3970  139.3040 C   0  0  0  0  0  1  0  0  0  0  0  0
  189.1570  172.4830  141.9210 C   0  0  0  0  0  3  0  0  0  0  0  0
  189.2280  172.5070  139.4170 C   0  0  0  0  0  2  0  0  0  0  0  0
  194.2580  171.6610  140.2320 C   0  0  0  0  0  2  0  0  0  0  0  0
  194.4120  176.3130  144.4900 C   0  0  0  0  0  2  0  0  0  0  0  0
  193.5550  175.3300  143.7140 C   0  0  1  0  0  3  0  0  0  0  0  0
  189.6270  173.2380  140.7080 C   0  0  2  0  0  3  0  0  0  0  0  0
  193.1050  173.2510  141.8540 C   0  0  0  0  0  0  0  0  0  0  0  0
  192.3930  170.4520  139.1850 O   0  0  0  0  0  0  0  0  0  0  0  0
  189.7920  174.3720  143.4050 C   0  0  1  0  0  3  0  0  0  0  0  0
  193.2030  169.6690  141.3510 C   0  0  0  0  0  1  0  0  0  0  0  0
  193.8670  174.0000  144.0620 O   0  0  0  0  0  0  0  0  0  0  0  0
  196.4440  177.0210  143.5170 O   0  0  0  0  0  0  0  0  0  0  0  0
  194.2390  173.3290  142.8730 C   0  0  2  0  0  3  0  0  0  0  0  0
  189.2020  173.0120  143.1470 C   0  0  0  0  0  3  0  0  0  0  0  0
  189.6840  174.1760  145.8960 C   0  0  0  0  0  3  0  0  0  0  0  0
  189.3250  174.8760  144.7380 C   0  0  0  0  0  0  0  0  0  0  0  0
  188.5360  176.0330  144.8460 C   0  0  0  0  0  3  0  0  0  0  0  0
  187.3110  177.6510  146.2040 N   0  0  0  0  0  1  0  0  0  0  0  0
  188.4720  175.7750  147.2520 C   0  0  0  0  0  3  0  0  0  0  0  0
  188.1110  176.4800  146.1010 C   0  0  0  0  0  0  0  0  0  0  0  0
  189.2580  174.6240  147.1500 C   0  0  0  0  0  3  0  0  0  0  0  0
  197.4320  174.6490  140.9700 C   0  0  0  0  0  1  0  0  0  0  0  0
  197.8270  174.3610  142.4060 C   0  0  0  0  0  2  0  0  0  0  0  0
  1  4  1  0  0  0  0
  2 17  1  0  0  0  0
  2 24  1  0  0  0  0
  3 20  1  0  0  0  0
  3  7  1  1  0  0  0
  4 12  1  0  0  0  0
  6 11  1  6  0  0  0
  6  9  1  0  0  0  0
  7 10  1  0  0  0  0
  8 12  1  0  0  0  0
  8 18  1  0  0  0  0
  9 13  1  1  0  0  0
  9  3  1  0  0  0  0
 10 23  1  0  0  0  0
 10  5  1  6  0  0  0
 11 16  1  0  0  0  0
 13 21  1  0  0  0  0
 14  2  1  0  0  0  0
 15 28  2  0  0  0  0
 17 13  1  0  0  0  0
 19  5  1  1  0  0  0
 19 25  1  0  0  0  0
 19 18  1  0  0  0  0
 20 16  1  6  0  0  0
 20 15  1  0  0  0  0
 21  7  2  0  0  0  0
 21 27  1  0  0  0  0
 22  6  1  0  0  0  0
 22  2  1  0  0  0  0
 23 30  1  1  0  0  0
 26  8  2  0  0  0  0
 27  1  1  6  0  0  0
 27 25  1  0  0  0  0
 28 23  1  0  0  0  0
 29 35  1  0  0  0  0
 30 31  1  0  0  0  0
 30 29  2  0  0  0  0
 31 34  2  0  0  0  0
 34 32  1  0  0  0  0
 34 33  1  0  0  0  0
 35 33  2  0  0  0  0
 36 37  1  0  0  0  0
 37  4  1  0  0  0  0
M  END
>  <MODEL>
6

>  <REMARK>
 VINA RESULT:      -7.8      2.687      6.256
  Name = 
  2 active torsions:
  status: ('A' for Active; 'I' for Inactive)
    1  A    between atoms: N_4  and  C_37
    2  A    between atoms: C_23  and  C_30
                            x       y       z     vdW  Elec       q    Type
                         _______ _______ _______ _____ _____    ______ ____

>  <TORSDO>
F 2

$$$$
=
 OpenBabel11112417253D

 37 43  0  0  1  0  0  0  0  0999 V2000
  194.2880  173.7430  143.3280 C   0  0  0  0  0  2  0  0  0  0  0  0
  192.2690  170.1050  141.1410 C   0  0  0  0  0  0  0  0  0  0  0  0
  190.6860  173.8960  140.3760 C   0  0  1  0  0  3  0  0  0  0  0  0
  195.0520  173.7150  144.5840 N   0  0  0  0  0  0  0  0  0  0  0  0
  191.0590  176.2830  143.2350 C   0  0  0  0  0  2  0  0  0  0  0  0
  190.6970  171.4080  140.0320 C   0  0  1  0  0  3  0  0  0  0  0  0
  190.9700  174.1460  141.8370 C   0  0  0  0  0  0  0  0  0  0  0  0
  194.5730  176.1830  144.7830 C   0  0  0  0  0  0  0  0  0  0  0  0
  191.5560  172.6710  140.0440 C   0  0  2  0  0  3  0  0  0  0  0  0
  190.2110  175.0940  142.7540 C   0  0  2  0  0  3  0  0  0  0  0  0
  189.6610  171.4490  138.9100 C   0  0  0  0  0  2  0  0  0  0  0  0
  194.7810  174.8570  145.4810 C   0  0  0  0  0  2  0  0  0  0  0  0
  192.4620  172.5560  141.1700 N   0  0  0  0  0  0  0  0  0  0  0  0
  193.1500  168.8840  140.9880 C   0  0  0  0  0  1  0  0  0  0  0  0
  188.2070  173.4350  140.9760 C   0  0  0  0  0  3  0  0  0  0  0  0
  189.0630  172.8530  138.6960 C   0  0  0  0  0  2  0  0  0  0  0  0
  193.1940  171.3120  141.3870 C   0  0  0  0  0  2  0  0  0  0  0  0
  193.1840  176.7300  144.6180 C   0  0  0  0  0  2  0  0  0  0  0  0
  192.3920  175.7660  143.7540 C   0  0  1  0  0  3  0  0  0  0  0  0
  189.2090  173.7820  139.9100 C   0  0  2  0  0  3  0  0  0  0  0  0
  192.0350  173.4250  142.2120 C   0  0  0  0  0  0  0  0  0  0  0  0
  191.5080  170.2540  139.9460 O   0  0  0  0  0  0  0  0  0  0  0  0
  188.8020  175.4710  142.2700 C   0  0  1  0  0  3  0  0  0  0  0  0
  191.3710  169.8710  142.3530 C   0  0  0  0  0  1  0  0  0  0  0  0
  192.2310  174.5220  144.3960 O   0  0  0  0  0  0  0  0  0  0  0  0
  195.5270  176.8010  144.3410 O   0  0  0  0  0  0  0  0  0  0  0  0
  192.7730  173.5320  143.5440 C   0  0  2  0  0  3  0  0  0  0  0  0
  187.9980  174.2220  142.0360 C   0  0  0  0  0  3  0  0  0  0  0  0
  187.4510  177.5120  142.7820 C   0  0  0  0  0  3  0  0  0  0  0  0
  188.0860  176.3550  143.2480 C   0  0  0  0  0  0  0  0  0  0  0  0
  188.0430  176.0440  144.6160 C   0  0  0  0  0  3  0  0  0  0  0  0
  187.3320  176.5690  146.8930 N   0  0  0  0  0  1  0  0  0  0  0  0
  186.7410  178.0410  145.0360 C   0  0  0  0  0  3  0  0  0  0  0  0
  187.3710  176.8870  145.5070 C   0  0  0  0  0  0  0  0  0  0  0  0
  186.7800  178.3530  143.6750 C   0  0  0  0  0  3  0  0  0  0  0  0
  196.6260  173.7600  142.7310 C   0  0  0  0  0  1  0  0  0  0  0  0
  196.4640  173.7460  144.2390 C   0  0  0  0  0  2  0  0  0  0  0  0
  1  4  1  0  0  0  0
  2 17  1  0  0  0  0
  2 24  1  0  0  0  0
  3  7  1  1  0  0  0
  4 12  1  0  0  0  0
  6 11  1  6  0  0  0
  6  9  1  0  0  0  0
  7 21  2  0  0  0  0
  7 10  1  0  0  0  0
  8 12  1  0  0  0  0
  9  3  1  0  0  0  0
  9 13  1  1  0  0  0
 10  5  1  6  0  0  0
 13 17  1  0  0  0  0
 13 21  1  0  0  0  0
 14  2  1  0  0  0  0
 15 28  2  0  0  0  0
 16 11  1  0  0  0  0
 18  8  1  0  0  0  0
 19  5  1  1  0  0  0
 19 25  1  0  0  0  0
 19 18  1  0  0  0  0
 20 16  1  6  0  0  0
 20  3  1  0  0  0  0
 20 15  1  0  0  0  0
 21 27  1  0  0  0  0
 22  6  1  0  0  0  0
 22  2  1  0  0  0  0
 23 10  1  0  0  0  0
 23 30  1  1  0  0  0
 26  8  2  0  0  0  0
 27  1  1  6  0  0  0
 27 25  1  0  0  0  0
 28 23  1  0  0  0  0
 29 30  2  0  0  0  0
 29 35  1  0  0  0  0
 30 31  1  0  0  0  0
 31 34  2  0  0  0  0
 33 34  1  0  0  0  0
 34 32  1  0  0  0  0
 35 33  2  0  0  0  0
 36 37  1  0  0  0  0
 37  4  1  0  0  0  0
M  END
>  <MODEL>
7

>  <REMARK>
 VINA RESULT:      -7.8      2.183      5.658
  Name = 
  2 active torsions:
  status: ('A' for Active; 'I' for Inactive)
    1  A    between atoms: N_4  and  C_37
    2  A    between atoms: C_23  and  C_30
                            x       y       z     vdW  Elec       q    Type
                         _______ _______ _______ _____ _____    ______ ____

>  <TORSDO>
F 2

$$$$
=
 OpenBabel11112417253D

 37 43  0  0  1  0  0  0  0  0999 V2000
  189.3470  175.7760  142.9210 C   0  0  0  0  0  2  0  0  0  0  0  0
  189.2920  172.8690  139.2280 C   0  0  0  0  0  0  0  0  0  0  0  0
  191.1430  171.4820  142.7070 C   0  0  1  0  0  3  0  0  0  0  0  0
  189.2540  177.2430  142.9020 N   0  0  0  0  0  0  0  0  0  0  0  0
  192.6490  174.2000  144.7940 C   0  0  0  0  0  2  0  0  0  0  0  0
  190.4300  171.1640  140.3210 C   0  0  1  0  0  3  0  0  0  0  0  0
  191.6190  172.9070  142.8450 C   0  0  0  0  0  0  0  0  0  0  0  0
  190.3010  177.2140  145.1970 C   0  0  0  0  0  0  0  0  0  0  0  0
  189.9720  171.5860  141.7150 C   0  0  2  0  0  3  0  0  0  0  0  0
  192.8990  173.3690  143.5240 C   0  0  2  0  0  3  0  0  0  0  0  0
  190.8210  169.6880  140.2860 C   0  0  0  0  0  2  0  0  0  0  0  0
  190.1480  177.9170  143.8660 C   0  0  0  0  0  2  0  0  0  0  0  0
  189.6780  173.0040  141.6530 N   0  0  0  0  0  0  0  0  0  0  0  0
  188.1940  173.1380  138.2210 C   0  0  0  0  0  1  0  0  0  0  0  0
  193.4540  170.8470  141.7190 C   0  0  0  0  0  3  0  0  0  0  0  0
  191.5490  169.2290  141.5640 C   0  0  0  0  0  2  0  0  0  0  0  0
  188.8720  173.5290  140.5550 C   0  0  0  0  0  2  0  0  0  0  0  0
  191.5440  176.4210  145.4830 C   0  0  0  0  0  2  0  0  0  0  0  0
  191.6210  175.2800  144.4870 C   0  0  1  0  0  3  0  0  0  0  0  0
  192.1800  170.3770  142.3660 C   0  0  2  0  0  3  0  0  0  0  0  0
  190.7120  173.7320  142.3040 C   0  0  0  0  0  0  0  0  0  0  0  0
  189.4370  171.4580  139.3590 O   0  0  0  0  0  0  0  0  0  0  0  0
  193.9770  172.2840  143.6770 C   0  0  1  0  0  3  0  0  0  0  0  0
  190.5670  173.5180  138.6950 C   0  0  0  0  0  1  0  0  0  0  0  0
  191.7800  175.7620  143.1720 O   0  0  0  0  0  0  0  0  0  0  0  0
  189.4120  177.2750  146.0300 O   0  0  0  0  0  0  0  0  0  0  0  0
  190.7050  175.2550  142.4030 C   0  0  2  0  0  3  0  0  0  0  0  0
  194.2900  171.6920  142.3310 C   0  0  0  0  0  3  0  0  0  0  0  0
  195.6470  172.3260  145.5370 C   0  0  0  0  0  3  0  0  0  0  0  0
  195.2350  172.8200  144.2950 C   0  0  0  0  0  0  0  0  0  0  0  0
  196.0020  173.8050  143.6520 C   0  0  0  0  0  3  0  0  0  0  0  0
  197.9410  175.2880  143.5970 N   0  0  0  0  0  1  0  0  0  0  0  0
  197.5730  173.7930  145.4930 C   0  0  0  0  0  3  0  0  0  0  0  0
  197.1680  174.2900  144.2510 C   0  0  0  0  0  0  0  0  0  0  0  0
  196.8140  172.8120  146.1360 C   0  0  0  0  0  3  0  0  0  0  0  0
  186.9830  176.3910  143.0810 C   0  0  0  0  0  1  0  0  0  0  0  0
  187.8850  177.6000  143.2400 C   0  0  0  0  0  2  0  0  0  0  0  0
  2 22  1  0  0  0  0
  2 17  1  0  0  0  0
  3  7  1  6  0  0  0
  4  1  1  0  0  0  0
  4 37  1  0  0  0  0
  4 12  1  0  0  0  0
  6 11  1  1  0  0  0
  6  9  1  0  0  0  0
  7 10  1  0  0  0  0
  8 18  1  0  0  0  0
  8 26  2  0  0  0  0
  9 13  1  6  0  0  0
  9  3  1  0  0  0  0
 10 23  1  0  0  0  0
 10  5  1  1  0  0  0
 11 16  1  0  0  0  0
 12  8  1  0  0  0  0
 13 21  1  0  0  0  0
 14  2  1  0  0  0  0
 15 28  2  0  0  0  0
 15 20  1  0  0  0  0
 17 13  1  0  0  0  0
 19  5  1  1  0  0  0
 19 18  1  0  0  0  0
 20 16  1  6  0  0  0
 20  3  1  0  0  0  0
 21 27  1  0  0  0  0
 21  7  2  0  0  0  0
 22  6  1  0  0  0  0
 23 30  1  6  0  0  0
 24  2  1  0  0  0  0
 25 19  1  0  0  0  0
 27  1  1  1  0  0  0
 27 25  1  0  0  0  0
 28 23  1  0  0  0  0
 29 35  1  0  0  0  0
 30 29  2  0  0  0  0
 31 34  2  0  0  0  0
 31 30  1  0  0  0  0
 32 34  1  0  0  0  0
 33 35  2  0  0  0  0
 34 33  1  0  0  0  0
 36 37  1  0  0  0  0
M  END
>  <MODEL>
8

>  <REMARK>
 VINA RESULT:      -7.8      2.233      8.237
  Name = 
  2 active torsions:
  status: ('A' for Active; 'I' for Inactive)
    1  A    between atoms: N_4  and  C_37
    2  A    between atoms: C_23  and  C_30
                            x       y       z     vdW  Elec       q    Type
                         _______ _______ _______ _____ _____    ______ ____

>  <TORSDO>
F 2

$$$$
=
 OpenBabel11112417253D

 37 43  0  0  1  0  0  0  0  0999 V2000
  192.4340  172.7740  140.4780 C   0  0  0  0  0  2  0  0  0  0  0  0
  195.9370  175.0850  142.5970 C   0  0  0  0  0  0  0  0  0  0  0  0
  192.4970  174.3660  144.8570 C   0  0  1  0  0  3  0  0  0  0  0  0
  192.1640  172.6940  139.0350 N   0  0  0  0  0  0  0  0  0  0  0  0
  189.3650  174.1950  142.8130 C   0  0  0  0  0  2  0  0  0  0  0  0
  194.8110  175.3090  144.6170 C   0  0  1  0  0  3  0  0  0  0  0  0
  191.7700  174.6310  143.5610 C   0  0  0  0  0  0  0  0  0  0  0  0
  189.7960  172.0720  139.6410 C   0  0  0  0  0  0  0  0  0  0  0  0
  193.9390  174.0740  144.4080 C   0  0  2  0  0  3  0  0  0  0  0  0
  190.3650  175.1970  143.4150 C   0  0  2  0  0  3  0  0  0  0  0  0
  194.9410  175.6570  146.0990 C   0  0  0  0  0  2  0  0  0  0  0  0
  190.7320  172.7770  138.6840 C   0  0  0  0  0  2  0  0  0  0  0  0
  193.8360  173.8640  142.9780 N   0  0  0  0  0  0  0  0  0  0  0  0
  197.3070  174.8570  141.9960 C   0  0  0  0  0  1  0  0  0  0  0  0
  191.9780  176.7950  145.6000 C   0  0  0  0  0  3  0  0  0  0  0  0
  193.6370  175.4290  146.8860 C   0  0  0  0  0  2  0  0  0  0  0  0
  195.0370  173.9170  142.1500 C   0  0  0  0  0  2  0  0  0  0  0  0
  189.0030  172.8720  140.6340 C   0  0  0  0  0  2  0  0  0  0  0  0
  189.9750  173.5720  141.5660 C   0  0  1  0  0  3  0  0  0  0  0  0
  192.3770  175.4030  146.0070 C   0  0  2  0  0  3  0  0  0  0  0  0
  192.5420  174.2520  142.5340 C   0  0  0  0  0  0  0  0  0  0  0  0
  196.0770  175.1350  144.0140 O   0  0  0  0  0  0  0  0  0  0  0  0
  189.8430  175.9550  144.6450 C   0  0  1  0  0  3  0  0  0  0  0  0
  195.4080  176.4040  142.0380 C   0  0  0  0  0  1  0  0  0  0  0  0
  190.7600  174.5130  140.8690 O   0  0  0  0  0  0  0  0  0  0  0  0
  189.6960  170.8570  139.6180 O   0  0  0  0  0  0  0  0  0  0  0  0
  192.1160  174.1640  141.0710 C   0  0  2  0  0  3  0  0  0  0  0  0
  190.8070  177.0510  145.0080 C   0  0  0  0  0  3  0  0  0  0  0  0
  188.2260  177.2160  143.2120 C   0  0  0  0  0  3  0  0  0  0  0  0
  188.4810  176.5410  144.4120 C   0  0  0  0  0  0  0  0  0  0  0  0
  187.4630  176.4270  145.3720 C   0  0  0  0  0  3  0  0  0  0  0  0
  185.1770  176.8690  146.1080 N   0  0  0  0  0  1  0  0  0  0  0  0
  185.9570  177.6590  143.9330 C   0  0  0  0  0  3  0  0  0  0  0  0
  186.2040  176.9860  145.1320 C   0  0  0  0  0  0  0  0  0  0  0  0
  186.9670  177.7740  142.9730 C   0  0  0  0  0  3  0  0  0  0  0  0
  193.2160  170.6150  139.7340 C   0  0  0  0  0  1  0  0  0  0  0  0
  192.6640  171.4110  138.5670 C   0  0  0  0  0  2  0  0  0  0  0  0
  2 22  1  0  0  0  0
  3  7  1  6  0  0  0
  3 20  1  0  0  0  0
  4  1  1  0  0  0  0
  6 11  1  1  0  0  0
  8 18  1  0  0  0  0
  9 13  1  6  0  0  0
  9  6  1  0  0  0  0
  9  3  1  0  0  0  0
 10  5  1  1  0  0  0
 10  7  1  0  0  0  0
 10 23  1  0  0  0  0
 11 16  1  0  0  0  0
 12  4  1  0  0  0  0
 12  8  1  0  0  0  0
 14  2  1  0  0  0  0
 17  2  1  0  0  0  0
 17 13  1  0  0  0  0
 19 18  1  6  0  0  0
 19  5  1  0  0  0  0
 20 15  1  6  0  0  0
 20 16  1  0  0  0  0
 21 13  1  0  0  0  0
 21  7  2  0  0  0  0
 22  6  1  0  0  0  0
 23 30  1  6  0  0  0
 23 28  1  0  0  0  0
 24  2  1  0  0  0  0
 25 27  1  0  0  0  0
 25 19  1  0  0  0  0
 26  8  2  0  0  0  0
 27  1  1  1  0  0  0
 27 21  1  0  0  0  0
 28 15  2  0  0  0  0
 29 30  1  0  0  0  0
 30 31  2  0  0  0  0
 33 34  2  0  0  0  0
 34 31  1  0  0  0  0
 34 32  1  0  0  0  0
 35 29  2  0  0  0  0
 35 33  1  0  0  0  0
 37  4  1  0  0  0  0
 37 36  1  0  0  0  0
M  END
>  <MODEL>
9

>  <REMARK>
 VINA RESULT:      -7.7      1.891      2.738
  Name = 
  2 active torsions:
  status: ('A' for Active; 'I' for Inactive)
    1  A    between atoms: N_4  and  C_37
    2  A    between atoms: C_23  and  C_30
                            x       y       z     vdW  Elec       q    Type
                         _______ _______ _______ _____ _____    ______ ____

>  <TORSDO>
F 2

$$$$
