=
 OpenBabel11112416443D

 32 37  0  0  1  0  0  0  0  0999 V2000
  184.6540  178.3310  145.5130 C   0  0  0  0  0  2  0  0  0  0  0  0
  189.5830  175.9740  144.5150 C   0  0  0  0  0  0  0  0  0  0  0  0
  189.2580  172.6050  141.0370 C   0  0  0  0  0  3  0  0  0  0  0  0
  190.4570  171.9280  141.5660 C   0  0  0  0  0  3  0  0  0  0  0  0
  191.4720  176.0000  146.1560 C   0  0  2  0  0  3  0  0  0  0  0  0
  192.8180  175.3380  146.5060 C   0  0  2  0  0  3  0  0  0  0  0  0
  187.6130  177.5520  144.9470 C   0  0  1  0  0  3  0  0  0  0  0  0
  187.6290  175.9990  142.9630 C   0  0  0  0  0  2  0  0  0  0  0  0
  194.3060  175.6280  144.5830 C   0  0  2  0  0  3  0  0  0  0  0  0
  185.4470  176.9950  143.6690 C   0  0  0  0  0  2  0  0  0  0  0  0
  188.6420  173.5640  141.7340 C   0  0  0  0  0  3  0  0  0  0  0  0
  188.8440  175.3470  143.4440 N   0  0  0  0  0  0  0  0  0  0  0  0
  189.0740  173.9290  143.1360 C   0  0  2  0  0  3  0  0  0  0  0  0
  191.2370  174.1820  144.3210 C   0  0  0  0  0  0  0  0  0  0  0  0
  194.6020  176.7340  145.5830 C   0  0  0  0  0  2  0  0  0  0  0  0
  185.5430  177.5420  146.4860 C   0  0  0  0  0  2  0  0  0  0  0  0
  186.8180  176.4900  144.1500 C   0  0  2  0  0  3  0  0  0  0  0  0
  193.8130  176.4290  146.8540 C   0  0  0  0  0  2  0  0  0  0  0  0
  187.0400  177.8380  146.3430 C   0  0  0  0  0  2  0  0  0  0  0  0
  185.1640  178.3540  144.1370 N   0  0  0  0  0  0  0  0  0  0  0  0
  191.0590  172.3670  142.6740 C   0  0  0  0  0  3  0  0  0  0  0  0
  190.5060  173.5250  143.4070 C   0  0  0  0  0  0  0  0  0  0  0  0
  192.5870  173.7890  144.5710 N   0  0  0  0  0  2  0  0  0  0  0  0
  189.1280  177.3160  145.0370 C   0  0  0  0  0  2  0  0  0  0  0  0
  190.6170  176.0120  147.4140 C   0  0  0  0  0  1  0  0  0  0  0  0
  193.5450  176.2220  143.4060 C   0  0  0  0  0  1  0  0  0  0  0  0
  190.7020  175.3880  144.9970 C   0  0  0  0  0  0  0  0  0  0  0  0
  193.5010  174.5980  145.3690 C   0  0  2  0  0  3  0  0  0  0  0  0
  184.0980  178.8740  143.2970 C   0  0  0  0  0  2  0  0  0  0  0  0
  183.8870  177.9650  142.0990 C   0  0  2  0  0  3  0  0  0  0  0  0
  184.9900  178.4790  140.7550 S   0  0  0  0  0  1  0  0  0  0  0  0
  182.5630  178.0510  141.6680 O   0  0  0  0  0  1  0  0  0  0  0  0
  1 16  1  0  0  0  0
  2 27  2  0  0  0  0
  2 24  1  0  0  0  0
  3  4  1  0  0  0  0
  3 11  2  0  0  0  0
  4 21  2  0  0  0  0
  5  6  1  0  0  0  0
  5 25  1  1  0  0  0
  6 18  1  6  0  0  0
  7 24  1  1  0  0  0
  7 19  1  0  0  0  0
  8 12  1  0  0  0  0
  9 26  1  6  0  0  0
  9 28  1  0  0  0  0
  9 15  1  0  0  0  0
 10 20  1  0  0  0  0
 10 17  1  0  0  0  0
 12  2  1  0  0  0  0
 13 11  1  6  0  0  0
 13 22  1  0  0  0  0
 13 12  1  0  0  0  0
 14 23  1  0  0  0  0
 14 27  1  0  0  0  0
 15 18  1  0  0  0  0
 17  8  1  6  0  0  0
 17  7  1  0  0  0  0
 19 16  1  0  0  0  0
 20  1  1  0  0  0  0
 21 22  1  0  0  0  0
 22 14  2  0  0  0  0
 27  5  1  0  0  0  0
 28 23  1  6  0  0  0
 28  6  1  0  0  0  0
 29 20  1  0  0  0  0
 30 31  1  6  0  0  0
 30 29  1  0  0  0  0
 32 30  1  0  0  0  0
M  END
>  <MODEL>
1

>  <REMARK>
 VINA RESULT:      -9.3      0.000      0.000
  Name = 
  2 active torsions:
  status: ('A' for Active; 'I' for Inactive)
    1  A    between atoms: N_20  and  C_29
    2  A    between atoms: C_29  and  C_30
                            x       y       z     vdW  Elec       q    Type
                         _______ _______ _______ _____ _____    ______ ____

>  <TORSDO>
F 2

$$$$
=
 OpenBabel11112416443D

 32 37  0  0  1  0  0  0  0  0999 V2000
  186.0460  178.3730  145.3060 C   0  0  0  0  0  2  0  0  0  0  0  0
  190.5780  175.4370  144.0050 C   0  0  0  0  0  0  0  0  0  0  0  0
  189.6590  172.2460  140.4660 C   0  0  0  0  0  3  0  0  0  0  0  0
  190.7850  171.4060  140.9180 C   0  0  0  0  0  3  0  0  0  0  0  0
  192.5280  175.1710  145.5500 C   0  0  2  0  0  3  0  0  0  0  0  0
  193.7930  174.3320  145.8160 C   0  0  2  0  0  3  0  0  0  0  0  0
  188.8500  177.2400  144.5750 C   0  0  1  0  0  3  0  0  0  0  0  0
  188.5730  175.7590  142.5540 C   0  0  0  0  0  2  0  0  0  0  0  0
  195.2140  174.4880  143.8280 C   0  0  2  0  0  3  0  0  0  0  0  0
  186.5740  177.0040  143.3930 C   0  0  0  0  0  2  0  0  0  0  0  0
  189.2050  173.2540  141.2170 C   0  0  0  0  0  3  0  0  0  0  0  0
  189.7150  174.9430  142.9580 N   0  0  0  0  0  0  0  0  0  0  0  0
  189.7460  173.5180  142.6040 C   0  0  2  0  0  3  0  0  0  0  0  0
  191.9760  173.4550  143.6850 C   0  0  0  0  0  0  0  0  0  0  0  0
  195.6980  175.5160  144.8400 C   0  0  0  0  0  2  0  0  0  0  0  0
  186.8700  177.4460  146.2140 C   0  0  0  0  0  2  0  0  0  0  0  0
  187.8890  176.3130  143.7920 C   0  0  2  0  0  3  0  0  0  0  0  0
  194.9350  175.2750  146.1400 C   0  0  0  0  0  2  0  0  0  0  0  0
  188.3840  177.5530  146.0040 C   0  0  0  0  0  2  0  0  0  0  0  0
  186.4900  178.3730  143.9080 N   0  0  0  0  0  0  0  0  0  0  0  0
  191.4880  171.7290  142.0040 C   0  0  0  0  0  3  0  0  0  0  0  0
  191.1250  172.9260  142.7930 C   0  0  0  0  0  0  0  0  0  0  0  0
  193.2740  172.8860  143.8570 N   0  0  0  0  0  2  0  0  0  0  0  0
  190.3250  176.8090  144.5820 C   0  0  0  0  0  2  0  0  0  0  0  0
  191.7420  175.2530  146.8490 C   0  0  0  0  0  1  0  0  0  0  0  0
  194.4830  175.2100  142.7060 C   0  0  0  0  0  1  0  0  0  0  0  0
  191.6330  174.6980  144.4160 C   0  0  0  0  0  0  0  0  0  0  0  0
  194.3200  173.5450  144.6290 C   0  0  2  0  0  3  0  0  0  0  0  0
  185.4630  179.0500  143.1350 C   0  0  0  0  0  2  0  0  0  0  0  0
  184.6580  178.0390  142.3370 C   0  0  2  0  0  3  0  0  0  0  0  0
  184.9550  178.2970  140.5680 S   0  0  0  0  0  1  0  0  0  0  0  0
  183.2980  178.2010  142.6060 O   0  0  0  0  0  1  0  0  0  0  0  0
  1 16  1  0  0  0  0
  2 27  2  0  0  0  0
  2 24  1  0  0  0  0
  3  4  1  0  0  0  0
  3 11  2  0  0  0  0
  4 21  2  0  0  0  0
  5  6  1  0  0  0  0
  5 25  1  1  0  0  0
  6 18  1  6  0  0  0
  7 24  1  1  0  0  0
  7 19  1  0  0  0  0
  8 12  1  0  0  0  0
  9 26  1  6  0  0  0
  9 28  1  0  0  0  0
  9 15  1  0  0  0  0
 10 17  1  0  0  0  0
 10 20  1  0  0  0  0
 12  2  1  0  0  0  0
 13 11  1  6  0  0  0
 13 22  1  0  0  0  0
 13 12  1  0  0  0  0
 14 23  1  0  0  0  0
 14 27  1  0  0  0  0
 15 18  1  0  0  0  0
 17  8  1  6  0  0  0
 17  7  1  0  0  0  0
 19 16  1  0  0  0  0
 20  1  1  0  0  0  0
 21 22  1  0  0  0  0
 22 14  2  0  0  0  0
 27  5  1  0  0  0  0
 28 23  1  6  0  0  0
 28  6  1  0  0  0  0
 29 20  1  0  0  0  0
 30 31  1  6  0  0  0
 30 32  1  0  0  0  0
 30 29  1  0  0  0  0
M  END
>  <MODEL>
2

>  <REMARK>
 VINA RESULT:      -8.5      1.114      1.281
  Name = 
  2 active torsions:
  status: ('A' for Active; 'I' for Inactive)
    1  A    between atoms: N_20  and  C_29
    2  A    between atoms: C_29  and  C_30
                            x       y       z     vdW  Elec       q    Type
                         _______ _______ _______ _____ _____    ______ ____

>  <TORSDO>
F 2

$$$$
=
 OpenBabel11112416443D

 32 37  0  0  1  0  0  0  0  0999 V2000
  193.2450  172.7050  145.0330 C   0  0  0  0  0  2  0  0  0  0  0  0
  188.7330  175.9390  144.8570 C   0  0  0  0  0  0  0  0  0  0  0  0
  187.1690  176.5420  140.3030 C   0  0  0  0  0  3  0  0  0  0  0  0
  186.5150  177.8090  140.6850 C   0  0  0  0  0  3  0  0  0  0  0  0
  188.1150  177.5290  146.6870 C   0  0  2  0  0  3  0  0  0  0  0  0
  187.2370  178.7500  147.0250 C   0  0  2  0  0  3  0  0  0  0  0  0
  190.5280  174.1840  145.3660 C   0  0  1  0  0  3  0  0  0  0  0  0
  189.4540  174.3300  143.0910 C   0  0  0  0  0  2  0  0  0  0  0  0
  184.9090  178.1280  146.5930 C   0  0  2  0  0  3  0  0  0  0  0  0
  191.6030  173.0720  143.3070 C   0  0  0  0  0  2  0  0  0  0  0  0
  188.0300  175.9340  141.1250 C   0  0  0  0  0  3  0  0  0  0  0  0
  188.7580  175.5590  143.4640 N   0  0  0  0  0  0  0  0  0  0  0  0
  188.4560  176.5610  142.4330 C   0  0  2  0  0  3  0  0  0  0  0  0
  187.3440  177.8530  144.2320 C   0  0  0  0  0  0  0  0  0  0  0  0
  185.1860  177.9320  148.0760 C   0  0  0  0  0  2  0  0  0  0  0  0
  193.1030  174.1620  145.4970 C   0  0  0  0  0  2  0  0  0  0  0  0
  190.7730  174.2520  143.8390 C   0  0  2  0  0  3  0  0  0  0  0  0
  186.5700  178.5060  148.3650 C   0  0  0  0  0  2  0  0  0  0  0  0
  191.7800  174.4640  146.2090 C   0  0  0  0  0  2  0  0  0  0  0  0
  192.0420  172.1760  144.3790 N   0  0  0  0  0  0  0  0  0  0  0  0
  186.6320  178.2940  141.9220 C   0  0  0  0  0  3  0  0  0  0  0  0
  187.4520  177.5800  142.9230 C   0  0  0  0  0  0  0  0  0  0  0  0
  186.3940  178.8200  144.6840 N   0  0  0  0  0  2  0  0  0  0  0  0
  189.3450  175.0160  145.8840 C   0  0  0  0  0  2  0  0  0  0  0  0
  189.5320  177.8320  147.1500 C   0  0  0  0  0  1  0  0  0  0  0  0
  184.8380  176.7630  145.9230 C   0  0  0  0  0  1  0  0  0  0  0  0
  188.1140  177.0800  145.2360 C   0  0  0  0  0  0  0  0  0  0  0  0
  186.0630  178.9910  146.0930 C   0  0  2  0  0  3  0  0  0  0  0  0
  192.4160  170.9210  143.7510 C   0  0  0  0  0  2  0  0  0  0  0  0
  192.2280  171.0120  142.2470 C   0  0  2  0  0  3  0  0  0  0  0  0
  191.0420  169.7500  141.7130 S   0  0  0  0  0  1  0  0  0  0  0  0
  193.4490  170.8010  141.6050 O   0  0  0  0  0  1  0  0  0  0  0  0
  1 16  1  0  0  0  0
  2 27  2  0  0  0  0
  2 24  1  0  0  0  0
  3  4  1  0  0  0  0
  3 11  2  0  0  0  0
  4 21  2  0  0  0  0
  5  6  1  0  0  0  0
  5 25  1  6  0  0  0
  6 18  1  1  0  0  0
  7 24  1  1  0  0  0
  7 19  1  0  0  0  0
  8 12  1  0  0  0  0
  9 26  1  6  0  0  0
  9 15  1  0  0  0  0
 10 17  1  0  0  0  0
 10 20  1  0  0  0  0
 12  2  1  0  0  0  0
 13 11  1  6  0  0  0
 13 22  1  0  0  0  0
 13 12  1  0  0  0  0
 14 23  1  0  0  0  0
 14 27  1  0  0  0  0
 15 18  1  0  0  0  0
 16 19  1  0  0  0  0
 17  8  1  6  0  0  0
 17  7  1  0  0  0  0
 20  1  1  0  0  0  0
 21 22  1  0  0  0  0
 22 14  2  0  0  0  0
 27  5  1  0  0  0  0
 28 23  1  6  0  0  0
 28  9  1  0  0  0  0
 28  6  1  0  0  0  0
 29 20  1  0  0  0  0
 30 32  1  6  0  0  0
 30 29  1  0  0  0  0
 31 30  1  0  0  0  0
M  END
>  <MODEL>
3

>  <REMARK>
 VINA RESULT:      -7.9      3.437      7.244
  Name = 
  2 active torsions:
  status: ('A' for Active; 'I' for Inactive)
    1  A    between atoms: N_20  and  C_29
    2  A    between atoms: C_29  and  C_30
                            x       y       z     vdW  Elec       q    Type
                         _______ _______ _______ _____ _____    ______ ____

>  <TORSDO>
F 2

$$$$
=
 OpenBabel11112416443D

 32 37  0  0  1  0  0  0  0  0999 V2000
  191.5690  172.4780  138.2120 C   0  0  0  0  0  2  0  0  0  0  0  0
  190.1060  174.9750  142.9530 C   0  0  0  0  0  0  0  0  0  0  0  0
  185.7580  177.0940  142.5640 C   0  0  0  0  0  3  0  0  0  0  0  0
  186.1060  178.0300  143.6510 C   0  0  0  0  0  3  0  0  0  0  0  0
  191.7540  175.6530  144.7090 C   0  0  2  0  0  3  0  0  0  0  0  0
  191.9420  176.5380  145.9570 C   0  0  2  0  0  3  0  0  0  0  0  0
  190.9160  173.3840  141.1160 C   0  0  1  0  0  3  0  0  0  0  0  0
  188.5560  174.2670  141.1300 C   0  0  0  0  0  2  0  0  0  0  0  0
  190.2610  175.8590  147.6030 C   0  0  2  0  0  3  0  0  0  0  0  0
  189.4410  173.2850  139.0080 C   0  0  0  0  0  2  0  0  0  0  0  0
  186.6880  176.3230  141.9930 C   0  0  0  0  0  3  0  0  0  0  0  0
  188.8660  175.1660  142.2380 N   0  0  0  0  0  0  0  0  0  0  0  0
  188.1510  176.4440  142.3540 C   0  0  2  0  0  3  0  0  0  0  0  0
  189.4440  176.8030  144.4370 C   0  0  0  0  0  0  0  0  0  0  0  0
  191.5620  175.1420  147.9300 C   0  0  0  0  0  2  0  0  0  0  0  0
  192.2910  173.6170  138.9470 C   0  0  0  0  0  2  0  0  0  0  0  0
  189.8010  174.0630  140.2850 C   0  0  2  0  0  3  0  0  0  0  0  0
  192.6450  175.7200  147.0240 C   0  0  0  0  0  2  0  0  0  0  0  0
  192.3080  173.4640  140.4720 C   0  0  0  0  0  2  0  0  0  0  0  0
  190.2880  172.1040  138.8220 N   0  0  0  0  0  0  0  0  0  0  0  0
  187.3180  178.0120  144.2080 C   0  0  0  0  0  3  0  0  0  0  0  0
  188.3450  177.0700  143.7170 C   0  0  0  0  0  0  0  0  0  0  0  0
  189.6190  177.4030  145.7220 N   0  0  0  0  0  2  0  0  0  0  0  0
  190.9920  173.8070  142.5910 C   0  0  0  0  0  2  0  0  0  0  0  0
  192.9200  175.9200  143.7700 C   0  0  0  0  0  1  0  0  0  0  0  0
  189.2900  174.8590  146.9910 C   0  0  0  0  0  1  0  0  0  0  0  0
  190.4330  175.8010  143.9720 C   0  0  0  0  0  0  0  0  0  0  0  0
  190.6620  176.9780  146.6470 C   0  0  2  0  0  3  0  0  0  0  0  0
  189.6020  171.2410  137.8760 C   0  0  0  0  0  2  0  0  0  0  0  0
  190.4490  171.0540  136.6290 C   0  0  2  0  0  3  0  0  0  0  0  0
  189.5570  171.7110  135.1950 S   0  0  0  0  0  1  0  0  0  0  0  0
  190.7080  169.6980  136.4320 O   0  0  0  0  0  1  0  0  0  0  0  0
  1 20  1  0  0  0  0
  1 16  1  0  0  0  0
  2 27  2  0  0  0  0
  3  4  1  0  0  0  0
  4 21  2  0  0  0  0
  5 25  1  6  0  0  0
  5  6  1  0  0  0  0
  6 28  1  0  0  0  0
  6 18  1  1  0  0  0
  7 19  1  6  0  0  0
  7 24  1  0  0  0  0
  8 12  1  0  0  0  0
  9 26  1  6  0  0  0
  9 15  1  0  0  0  0
 11  3  2  0  0  0  0
 12 13  1  0  0  0  0
 12  2  1  0  0  0  0
 13 11  1  1  0  0  0
 13 22  1  0  0  0  0
 14 23  1  0  0  0  0
 16 19  1  0  0  0  0
 17 10  1  6  0  0  0
 17  7  1  0  0  0  0
 17  8  1  0  0  0  0
 18 15  1  0  0  0  0
 20 10  1  0  0  0  0
 22 21  1  0  0  0  0
 22 14  2  0  0  0  0
 24  2  1  0  0  0  0
 27 14  1  0  0  0  0
 27  5  1  0  0  0  0
 28 23  1  6  0  0  0
 28  9  1  0  0  0  0
 29 20  1  0  0  0  0
 30 31  1  6  0  0  0
 30 29  1  0  0  0  0
 32 30  1  0  0  0  0
M  END
>  <MODEL>
4

>  <REMARK>
 VINA RESULT:      -7.8      3.575      6.655
  Name = 
  2 active torsions:
  status: ('A' for Active; 'I' for Inactive)
    1  A    between atoms: N_20  and  C_29
    2  A    between atoms: C_29  and  C_30
                            x       y       z     vdW  Elec       q    Type
                         _______ _______ _______ _____ _____    ______ ____

>  <TORSDO>
F 2

$$$$
=
 OpenBabel11112416443D

 32 37  0  0  1  0  0  0  0  0999 V2000
  186.2470  177.5370  141.9920 C   0  0  0  0  0  2  0  0  0  0  0  0
  190.7370  174.4620  143.1000 C   0  0  0  0  0  0  0  0  0  0  0  0
  193.3200  176.3570  146.7450 C   0  0  0  0  0  3  0  0  0  0  0  0
  194.5350  175.6830  146.2480 C   0  0  0  0  0  3  0  0  0  0  0  0
  191.7450  172.8670  141.4560 C   0  0  2  0  0  3  0  0  0  0  0  0
  193.0140  172.0520  141.1380 C   0  0  2  0  0  3  0  0  0  0  0  0
  188.3970  175.3690  142.5910 C   0  0  1  0  0  3  0  0  0  0  0  0
  189.6560  176.0900  144.6510 C   0  0  0  0  0  2  0  0  0  0  0  0
  193.4390  170.5720  143.0420 C   0  0  2  0  0  3  0  0  0  0  0  0
  187.7200  177.4810  143.8990 C   0  0  0  0  0  2  0  0  0  0  0  0
  192.2120  176.4200  146.0010 C   0  0  0  0  0  3  0  0  0  0  0  0
  190.8550  175.3870  144.2020 N   0  0  0  0  0  0  0  0  0  0  0  0
  192.1780  175.9000  144.5810 C   0  0  2  0  0  3  0  0  0  0  0  0
  193.1110  173.9420  143.3820 C   0  0  0  0  0  0  0  0  0  0  0  0
  192.6810  169.7820  141.9860 C   0  0  0  0  0  2  0  0  0  0  0  0
  187.4200  177.1990  141.0580 C   0  0  0  0  0  2  0  0  0  0  0  0
  188.8720  176.5710  143.4420 C   0  0  2  0  0  3  0  0  0  0  0  0
  192.5960  170.6510  140.7340 C   0  0  0  0  0  2  0  0  0  0  0  0
  187.9190  175.7550  141.1830 C   0  0  0  0  0  2  0  0  0  0  0  0
  186.4270  177.0480  143.3630 N   0  0  0  0  0  0  0  0  0  0  0  0
  194.5110  174.9720  145.1190 C   0  0  0  0  0  3  0  0  0  0  0  0
  193.2650  174.8790  144.3290 C   0  0  0  0  0  0  0  0  0  0  0  0
  194.1460  172.9850  143.1490 N   0  0  0  0  0  2  0  0  0  0  0  0
  189.3740  174.1870  142.5110 C   0  0  0  0  0  2  0  0  0  0  0  0
  191.3550  173.6310  140.2000 C   0  0  0  0  0  1  0  0  0  0  0  0
  192.4910  170.8940  144.1880 C   0  0  0  0  0  1  0  0  0  0  0  0
  191.8310  173.8090  142.6460 C   0  0  0  0  0  0  0  0  0  0  0  0
  193.9490  171.8100  142.3100 C   0  0  2  0  0  3  0  0  0  0  0  0
  185.4030  177.6790  144.1780 C   0  0  0  0  0  2  0  0  0  0  0  0
  185.9660  178.9110  144.8650 C   0  0  2  0  0  3  0  0  0  0  0  0
  185.4860  178.8950  146.6130 S   0  0  0  0  0  1  0  0  0  0  0  0
  185.4640  180.0620  144.2580 O   0  0  0  0  0  1  0  0  0  0  0  0
  1 20  1  0  0  0  0
  2 12  1  0  0  0  0
  4  3  1  0  0  0  0
  5 25  1  6  0  0  0
  5 27  1  0  0  0  0
  6 18  1  1  0  0  0
  6  5  1  0  0  0  0
  6 28  1  0  0  0  0
  7 19  1  6  0  0  0
  7 17  1  0  0  0  0
  9 26  1  1  0  0  0
 11  3  2  0  0  0  0
 12 13  1  0  0  0  0
 12  8  1  0  0  0  0
 13 11  1  1  0  0  0
 14 22  2  0  0  0  0
 15  9  1  0  0  0  0
 16 19  1  0  0  0  0
 16  1  1  0  0  0  0
 17 10  1  1  0  0  0
 17  8  1  0  0  0  0
 18 15  1  0  0  0  0
 20 10  1  0  0  0  0
 20 29  1  0  0  0  0
 21  4  2  0  0  0  0
 22 13  1  0  0  0  0
 22 21  1  0  0  0  0
 23 14  1  0  0  0  0
 24  7  1  0  0  0  0
 24  2  1  0  0  0  0
 27  2  2  0  0  0  0
 27 14  1  0  0  0  0
 28  9  1  0  0  0  0
 28 23  1  1  0  0  0
 29 30  1  0  0  0  0
 30 32  1  6  0  0  0
 30 31  1  0  0  0  0
M  END
>  <MODEL>
5

>  <REMARK>
 VINA RESULT:      -7.7      2.220      4.928
  Name = 
  2 active torsions:
  status: ('A' for Active; 'I' for Inactive)
    1  A    between atoms: N_20  and  C_29
    2  A    between atoms: C_29  and  C_30
                            x       y       z     vdW  Elec       q    Type
                         _______ _______ _______ _____ _____    ______ ____

>  <TORSDO>
F 2

$$$$
=
 OpenBabel11112416443D

 32 37  0  0  1  0  0  0  0  0999 V2000
  187.4840  177.8300  145.9000 C   0  0  0  0  0  2  0  0  0  0  0  0
  191.7880  175.6700  143.1330 C   0  0  0  0  0  0  0  0  0  0  0  0
  190.3890  172.0120  140.2670 C   0  0  0  0  0  3  0  0  0  0  0  0
  191.7510  171.4480  140.3050 C   0  0  0  0  0  3  0  0  0  0  0  0
  194.1640  175.9350  143.8710 C   0  0  2  0  0  3  0  0  0  0  0  0
  195.5890  175.3790  143.6860 C   0  0  2  0  0  3  0  0  0  0  0  0
  190.0280  177.1690  144.2350 C   0  0  1  0  0  3  0  0  0  0  0  0
  189.3830  175.4600  142.4990 C   0  0  0  0  0  2  0  0  0  0  0  0
  196.1600  175.5880  141.3140 C   0  0  2  0  0  3  0  0  0  0  0  0
  187.5880  176.3910  143.9680 C   0  0  0  0  0  2  0  0  0  0  0  0
  190.0230  172.9910  141.1000 C   0  0  0  0  0  3  0  0  0  0  0  0
  190.7390  174.9170  142.4850 N   0  0  0  0  0  0  0  0  0  0  0  0
  190.9450  173.4940  142.1880 C   0  0  2  0  0  3  0  0  0  0  0  0
  193.3710  173.9610  142.3870 C   0  0  0  0  0  0  0  0  0  0  0  0
  196.7370  176.7880  142.0490 C   0  0  0  0  0  2  0  0  0  0  0  0
  188.7490  177.1730  146.4750 C   0  0  0  0  0  2  0  0  0  0  0  0
  189.0730  176.0030  143.8840 C   0  0  2  0  0  3  0  0  0  0  0  0
  196.5460  176.5470  143.5440 C   0  0  0  0  0  2  0  0  0  0  0  0
  190.0360  177.5380  145.7260 C   0  0  0  0  0  2  0  0  0  0  0  0
  187.4020  177.7670  144.4370 N   0  0  0  0  0  0  0  0  0  0  0  0
  192.7050  172.0090  141.0510 C   0  0  0  0  0  3  0  0  0  0  0  0
  192.3950  173.1920  141.8810 C   0  0  0  0  0  0  0  0  0  0  0  0
  194.7380  173.6650  142.0930 N   0  0  0  0  0  2  0  0  0  0  0  0
  191.4680  177.0240  143.7200 C   0  0  0  0  0  2  0  0  0  0  0  0
  193.8820  176.0040  145.3640 C   0  0  0  0  0  1  0  0  0  0  0  0
  194.9480  176.0410  140.5120 C   0  0  0  0  0  1  0  0  0  0  0  0
  193.0510  175.1880  143.1550 C   0  0  0  0  0  0  0  0  0  0  0  0
  195.8220  174.5850  142.4120 C   0  0  2  0  0  3  0  0  0  0  0  0
  186.0510  178.1560  144.0690 C   0  0  0  0  0  2  0  0  0  0  0  0
  185.5500  179.2480  145.0000 C   0  0  2  0  0  3  0  0  0  0  0  0
  184.0660  178.6660  145.8620 S   0  0  0  0  0  1  0  0  0  0  0  0
  185.2390  180.3910  144.2630 O   0  0  0  0  0  1  0  0  0  0  0  0
  1 16  1  0  0  0  0
  2 27  2  0  0  0  0
  2 24  1  0  0  0  0
  3  4  1  0  0  0  0
  3 11  2  0  0  0  0
  4 21  2  0  0  0  0
  5 25  1  1  0  0  0
  6 18  1  6  0  0  0
  6  5  1  0  0  0  0
  7 24  1  1  0  0  0
  7 19  1  0  0  0  0
  9 26  1  1  0  0  0
  9 15  1  0  0  0  0
  9 28  1  0  0  0  0
 10 20  1  0  0  0  0
 12  8  1  0  0  0  0
 12  2  1  0  0  0  0
 13 11  1  6  0  0  0
 13 12  1  0  0  0  0
 14 27  1  0  0  0  0
 15 18  1  0  0  0  0
 17  8  1  6  0  0  0
 17 10  1  0  0  0  0
 17  7  1  0  0  0  0
 19 16  1  0  0  0  0
 20  1  1  0  0  0  0
 21 22  1  0  0  0  0
 22 13  1  0  0  0  0
 22 14  2  0  0  0  0
 23 14  1  0  0  0  0
 27  5  1  0  0  0  0
 28 23  1  6  0  0  0
 28  6  1  0  0  0  0
 29 20  1  0  0  0  0
 29 30  1  0  0  0  0
 30 32  1  6  0  0  0
 30 31  1  0  0  0  0
M  END
>  <MODEL>
6

>  <REMARK>
 VINA RESULT:      -7.7      2.277      3.096
  Name = 
  2 active torsions:
  status: ('A' for Active; 'I' for Inactive)
    1  A    between atoms: N_20  and  C_29
    2  A    between atoms: C_29  and  C_30
                            x       y       z     vdW  Elec       q    Type
                         _______ _______ _______ _____ _____    ______ ____

>  <TORSDO>
F 2

$$$$
=
 OpenBabel11112416443D

 32 37  0  0  1  0  0  0  0  0999 V2000
  185.4380  178.5780  142.9100 C   0  0  0  0  0  2  0  0  0  0  0  0
  189.6540  174.9730  143.1810 C   0  0  0  0  0  0  0  0  0  0  0  0
  193.0150  176.4220  146.3680 C   0  0  0  0  0  3  0  0  0  0  0  0
  194.0410  175.6330  145.6590 C   0  0  0  0  0  3  0  0  0  0  0  0
  190.1780  173.3380  141.3610 C   0  0  2  0  0  3  0  0  0  0  0  0
  191.2700  172.3970  140.8160 C   0  0  2  0  0  3  0  0  0  0  0  0
  187.3850  176.1590  143.0950 C   0  0  1  0  0  3  0  0  0  0  0  0
  189.0470  176.6520  144.9240 C   0  0  0  0  0  2  0  0  0  0  0  0
  191.8280  170.8070  142.5920 C   0  0  2  0  0  3  0  0  0  0  0  0
  187.1910  178.2830  144.5380 C   0  0  0  0  0  2  0  0  0  0  0  0
  191.8130  176.6380  145.8250 C   0  0  0  0  0  3  0  0  0  0  0  0
  190.0620  175.8360  144.2640 N   0  0  0  0  0  0  0  0  0  0  0  0
  191.4820  176.1810  144.4220 C   0  0  2  0  0  3  0  0  0  0  0  0
  191.9630  174.1770  143.0450 C   0  0  0  0  0  0  0  0  0  0  0  0
  190.8160  170.1490  141.6660 C   0  0  0  0  0  2  0  0  0  0  0  0
  186.3900  178.1450  141.7850 C   0  0  0  0  0  2  0  0  0  0  0  0
  188.1350  177.2650  143.8750 C   0  0  2  0  0  3  0  0  0  0  0  0
  190.6280  171.0700  140.4630 C   0  0  0  0  0  2  0  0  0  0  0  0
  186.7290  176.6500  141.7960 C   0  0  0  0  0  2  0  0  0  0  0  0
  185.7850  178.0200  144.2220 N   0  0  0  0  0  0  0  0  0  0  0  0
  193.7450  174.9730  144.5380 C   0  0  0  0  0  3  0  0  0  0  0  0
  192.3830  175.0530  143.9700 C   0  0  0  0  0  0  0  0  0  0  0  0
  192.8240  173.1180  142.6230 N   0  0  0  0  0  2  0  0  0  0  0  0
  188.1890  174.8770  142.8280 C   0  0  0  0  0  2  0  0  0  0  0  0
  189.6760  174.1890  140.2040 C   0  0  0  0  0  1  0  0  0  0  0  0
  191.1290  171.1900  143.8880 C   0  0  0  0  0  1  0  0  0  0  0  0
  190.5710  174.2180  142.5360 C   0  0  0  0  0  0  0  0  0  0  0  0
  192.3520  172.0060  141.8070 C   0  0  2  0  0  3  0  0  0  0  0  0
  184.9930  178.7320  145.2100 C   0  0  0  0  0  2  0  0  0  0  0  0
  184.7800  177.8600  146.4360 C   0  0  2  0  0  3  0  0  0  0  0  0
  185.8400  178.4510  147.7830 S   0  0  0  0  0  1  0  0  0  0  0  0
  185.1070  176.5370  146.1370 O   0  0  0  0  0  1  0  0  0  0  0  0
  1 20  1  0  0  0  0
  2 12  1  0  0  0  0
  4  3  1  0  0  0  0
  5 25  1  6  0  0  0
  5 27  1  0  0  0  0
  6 18  1  1  0  0  0
  6  5  1  0  0  0  0
  6 28  1  0  0  0  0
  7 19  1  6  0  0  0
  7 17  1  0  0  0  0
  9 26  1  1  0  0  0
 11  3  2  0  0  0  0
 12 13  1  0  0  0  0
 12  8  1  0  0  0  0
 13 11  1  1  0  0  0
 14 22  2  0  0  0  0
 15  9  1  0  0  0  0
 16 19  1  0  0  0  0
 16  1  1  0  0  0  0
 17 10  1  1  0  0  0
 17  8  1  0  0  0  0
 18 15  1  0  0  0  0
 20 10  1  0  0  0  0
 20 29  1  0  0  0  0
 21  4  2  0  0  0  0
 22 13  1  0  0  0  0
 22 21  1  0  0  0  0
 23 14  1  0  0  0  0
 24  7  1  0  0  0  0
 24  2  1  0  0  0  0
 27 14  1  0  0  0  0
 27  2  2  0  0  0  0
 28  9  1  0  0  0  0
 28 23  1  1  0  0  0
 29 30  1  0  0  0  0
 30 32  1  6  0  0  0
 30 31  1  0  0  0  0
M  END
>  <MODEL>
7

>  <REMARK>
 VINA RESULT:      -7.6      2.047      4.838
  Name = 
  2 active torsions:
  status: ('A' for Active; 'I' for Inactive)
    1  A    between atoms: N_20  and  C_29
    2  A    between atoms: C_29  and  C_30
                            x       y       z     vdW  Elec       q    Type
                         _______ _______ _______ _____ _____    ______ ____

>  <TORSDO>
F 2

$$$$
=
 OpenBabel11112416443D

 32 37  0  0  1  0  0  0  0  0999 V2000
  187.3260  177.4960  146.3440 C   0  0  0  0  0  2  0  0  0  0  0  0
  190.8600  174.8070  143.0090 C   0  0  0  0  0  0  0  0  0  0  0  0
  188.5470  172.7720  139.2590 C   0  0  0  0  0  3  0  0  0  0  0  0
  189.6320  171.7820  139.1150 C   0  0  0  0  0  3  0  0  0  0  0  0
  193.1170  174.0240  143.7510 C   0  0  2  0  0  3  0  0  0  0  0  0
  194.2820  173.0800  143.3930 C   0  0  2  0  0  3  0  0  0  0  0  0
  189.6250  176.4680  144.5180 C   0  0  1  0  0  3  0  0  0  0  0  0
  188.5850  175.6210  142.3840 C   0  0  0  0  0  2  0  0  0  0  0  0
  195.0810  173.7070  141.1650 C   0  0  2  0  0  3  0  0  0  0  0  0
  187.0950  176.6850  144.0860 C   0  0  0  0  0  2  0  0  0  0  0  0
  188.4670  173.5550  140.3390 C   0  0  0  0  0  3  0  0  0  0  0  0
  189.6750  174.6670  142.1950 N   0  0  0  0  0  0  0  0  0  0  0  0
  189.4130  173.3960  141.5080 C   0  0  2  0  0  3  0  0  0  0  0  0
  191.8290  172.9220  141.7880 C   0  0  0  0  0  0  0  0  0  0  0  0
  195.9670  174.3890  142.1960 C   0  0  0  0  0  2  0  0  0  0  0  0
  188.2440  176.3140  146.6900 C   0  0  0  0  0  2  0  0  0  0  0  0
  188.3650  175.8450  143.8700 C   0  0  2  0  0  3  0  0  0  0  0  0
  195.5840  173.8370  143.5670 C   0  0  0  0  0  2  0  0  0  0  0  0
  189.6350  176.3970  146.0520 C   0  0  0  0  0  2  0  0  0  0  0  0
  187.3460  177.8610  144.9230 N   0  0  0  0  0  0  0  0  0  0  0  0
  190.6550  171.7560  139.9710 C   0  0  0  0  0  3  0  0  0  0  0  0
  190.6960  172.7050  141.1040 C   0  0  0  0  0  0  0  0  0  0  0  0
  193.0350  172.2610  141.4000 N   0  0  0  0  0  2  0  0  0  0  0  0
  190.9680  175.9770  143.9580 C   0  0  0  0  0  2  0  0  0  0  0  0
  192.7550  173.7830  145.2090 C   0  0  0  0  0  1  0  0  0  0  0  0
  194.1610  174.7480  140.5430 C   0  0  0  0  0  1  0  0  0  0  0  0
  191.8800  173.9300  142.8740 C   0  0  0  0  0  0  0  0  0  0  0  0
  194.3370  172.6270  141.9440 C   0  0  2  0  0  3  0  0  0  0  0  0
  186.2400  178.7770  144.7030 C   0  0  0  0  0  2  0  0  0  0  0  0
  184.9350  178.0070  144.6020 C   0  0  2  0  0  3  0  0  0  0  0  0
  184.1320  178.3930  143.0240 S   0  0  0  0  0  1  0  0  0  0  0  0
  184.0910  178.3690  145.6520 O   0  0  0  0  0  1  0  0  0  0  0  0
  1 16  1  0  0  0  0
  2 24  1  0  0  0  0
  3 11  2  0  0  0  0
  4  3  1  0  0  0  0
  4 21  2  0  0  0  0
  5 25  1  1  0  0  0
  6 18  1  6  0  0  0
  6  5  1  0  0  0  0
  7 24  1  6  0  0  0
  7 19  1  0  0  0  0
  9 26  1  1  0  0  0
  9 28  1  0  0  0  0
  9 15  1  0  0  0  0
 10 20  1  0  0  0  0
 12  8  1  0  0  0  0
 12  2  1  0  0  0  0
 13 11  1  6  0  0  0
 13 12  1  0  0  0  0
 14 27  1  0  0  0  0
 15 18  1  0  0  0  0
 17  8  1  6  0  0  0
 17 10  1  0  0  0  0
 17  7  1  0  0  0  0
 19 16  1  0  0  0  0
 20  1  1  0  0  0  0
 21 22  1  0  0  0  0
 22 13  1  0  0  0  0
 22 14  2  0  0  0  0
 23 14  1  0  0  0  0
 27  2  2  0  0  0  0
 27  5  1  0  0  0  0
 28 23  1  6  0  0  0
 28  6  1  0  0  0  0
 29 20  1  0  0  0  0
 30 31  1  6  0  0  0
 30 29  1  0  0  0  0
 30 32  1  0  0  0  0
M  END
>  <MODEL>
8

>  <REMARK>
 VINA RESULT:      -7.4      2.117      2.966
  Name = 
  2 active torsions:
  status: ('A' for Active; 'I' for Inactive)
    1  A    between atoms: N_20  and  C_29
    2  A    between atoms: C_29  and  C_30
                            x       y       z     vdW  Elec       q    Type
                         _______ _______ _______ _____ _____    ______ ____

>  <TORSDO>
F 2

$$$$
=
 OpenBabel11112416443D

 32 37  0  0  1  0  0  0  0  0999 V2000
  190.9720  170.2610  139.5680 C   0  0  0  0  0  2  0  0  0  0  0  0
  191.3680  174.3080  143.3500 C   0  0  0  0  0  0  0  0  0  0  0  0
  195.7380  176.4150  143.2310 C   0  0  0  0  0  3  0  0  0  0  0  0
  195.5810  176.8430  144.6340 C   0  0  0  0  0  3  0  0  0  0  0  0
  189.8850  174.4550  145.3600 C   0  0  2  0  0  3  0  0  0  0  0  0
  189.7360  175.1150  146.7450 C   0  0  2  0  0  3  0  0  0  0  0  0
  190.6810  172.6950  141.4840 C   0  0  1  0  0  3  0  0  0  0  0  0
  192.7960  174.0540  141.3200 C   0  0  0  0  0  2  0  0  0  0  0  0
  189.7540  177.5410  146.4120 C   0  0  2  0  0  3  0  0  0  0  0  0
  192.5430  172.0720  139.8180 C   0  0  0  0  0  2  0  0  0  0  0  0
  194.9010  175.5300  142.6810 C   0  0  0  0  0  3  0  0  0  0  0  0
  192.6340  174.5290  142.6910 N   0  0  0  0  0  0  0  0  0  0  0  0
  193.8230  174.8460  143.4920 C   0  0  2  0  0  3  0  0  0  0  0  0
  192.2490  175.5210  145.2840 C   0  0  0  0  0  0  0  0  0  0  0  0
  188.3060  177.0830  146.4870 C   0  0  0  0  0  2  0  0  0  0  0  0
  190.8350  170.1500  141.0940 C   0  0  0  0  0  2  0  0  0  0  0  0
  192.2010  172.6620  141.1960 C   0  0  2  0  0  3  0  0  0  0  0  0
  188.3090  175.6100  146.8890 C   0  0  0  0  0  2  0  0  0  0  0  0
  190.0660  171.3100  141.7370 C   0  0  0  0  0  2  0  0  0  0  0  0
  191.3520  171.6010  139.1070 N   0  0  0  0  0  0  0  0  0  0  0  0
  194.5050  176.4920  145.3420 C   0  0  0  0  0  3  0  0  0  0  0  0
  193.4670  175.6340  144.7330 C   0  0  0  0  0  0  0  0  0  0  0  0
  191.9240  176.2670  146.4580 N   0  0  0  0  0  2  0  0  0  0  0  0
  190.2350  173.6780  142.5760 C   0  0  0  0  0  2  0  0  0  0  0  0
  189.6640  172.9600  145.5310 C   0  0  0  0  0  1  0  0  0  0  0  0
  190.0880  177.8770  144.9660 C   0  0  0  0  0  1  0  0  0  0  0  0
  191.1900  174.7190  144.6260 C   0  0  0  0  0  0  0  0  0  0  0  0
  190.5620  176.3700  146.9650 C   0  0  2  0  0  3  0  0  0  0  0  0
  191.7190  171.4810  137.7060 C   0  0  0  0  0  2  0  0  0  0  0  0
  190.6580  172.1240  136.8310 C   0  0  2  0  0  3  0  0  0  0  0  0
  189.8080  173.4190  137.7730 S   0  0  0  0  0  1  0  0  0  0  0  0
  189.7320  171.1630  136.4260 O   0  0  0  0  0  1  0  0  0  0  0  0
  1 16  1  0  0  0  0
  2 27  2  0  0  0  0
  3  4  1  0  0  0  0
  4 21  2  0  0  0  0
  5 25  1  1  0  0  0
  5  6  1  0  0  0  0
  6 18  1  6  0  0  0
  6 28  1  0  0  0  0
  7 19  1  1  0  0  0
  7 24  1  0  0  0  0
  8 12  1  0  0  0  0
  9 26  1  6  0  0  0
  9 15  1  0  0  0  0
  9 28  1  0  0  0  0
 11  3  2  0  0  0  0
 12  2  1  0  0  0  0
 12 13  1  0  0  0  0
 13 11  1  6  0  0  0
 13 22  1  0  0  0  0
 14 23  1  0  0  0  0
 15 18  1  0  0  0  0
 16 19  1  0  0  0  0
 17 10  1  6  0  0  0
 17  8  1  0  0  0  0
 17  7  1  0  0  0  0
 20  1  1  0  0  0  0
 20 10  1  0  0  0  0
 22 14  2  0  0  0  0
 22 21  1  0  0  0  0
 24  2  1  0  0  0  0
 27 14  1  0  0  0  0
 27  5  1  0  0  0  0
 28 23  1  6  0  0  0
 29 20  1  0  0  0  0
 30 32  1  1  0  0  0
 30 29  1  0  0  0  0
 30 31  1  0  0  0  0
M  END
>  <MODEL>
9

>  <REMARK>
 VINA RESULT:      -7.4      3.631      6.954
  Name = 
  2 active torsions:
  status: ('A' for Active; 'I' for Inactive)
    1  A    between atoms: N_20  and  C_29
    2  A    between atoms: C_29  and  C_30
                            x       y       z     vdW  Elec       q    Type
                         _______ _______ _______ _____ _____    ______ ____

>  <TORSDO>
F 2

$$$$
