=
 OpenBabel11112416343D

 32 38  0  0  1  0  0  0  0  0999 V2000
  184.7710  177.9680  146.4110 C   0  0  1  0  0  3  0  0  0  0  0  0
  189.5130  176.0450  145.0530 C   0  0  0  0  0  0  0  0  0  0  0  0
  188.5590  174.1180  140.6810 C   0  0  0  0  0  3  0  0  0  0  0  0
  189.9100  173.8200  140.5090 C   0  0  0  0  0  3  0  0  0  0  0  0
  191.8990  176.0880  145.9610 C   0  0  0  0  0  0  0  0  0  0  0  0
  193.2900  175.7260  145.7350 C   0  0  0  0  0  0  0  0  0  0  0  0
  187.7120  177.4780  146.0690 C   0  0  1  0  0  3  0  0  0  0  0  0
  187.2030  176.0190  144.1850 N   0  0  0  0  0  2  0  0  0  0  0  0
  195.0600  174.9360  144.7420 C   0  0  0  0  0  0  0  0  0  0  0  0
  185.2970  177.2120  145.1890 C   0  0  2  0  0  3  0  0  0  0  0  0
  188.1280  174.7400  141.8520 C   0  0  0  0  0  3  0  0  0  0  0  0
  188.5950  175.6930  144.0380 C   0  0  0  0  0  0  0  0  0  0  0  0
  189.0400  175.0720  142.8660 C   0  0  0  0  0  0  0  0  0  0  0  0
  191.3420  175.1000  143.7040 C   0  0  0  0  0  0  0  0  0  0  0  0
  195.4420  175.4190  145.9050 O   0  0  0  0  0  0  0  0  0  0  0  0
  185.7170  177.9340  147.6320 C   0  0  0  0  0  2  0  0  0  0  0  0
  186.6710  176.5590  145.4280 C   0  0  2  0  0  3  0  0  0  0  0  0
  194.3960  175.9110  146.5450 C   0  0  0  0  0  3  0  0  0  0  0  0
  187.2160  178.1370  147.3570 C   0  0  0  0  0  2  0  0  0  0  0  0
  185.3170  178.7370  145.2150 C   0  0  1  0  0  3  0  0  0  0  0  0
  190.8280  174.1440  141.5080 C   0  0  0  0  0  3  0  0  0  0  0  0
  190.4110  174.7720  142.6960 C   0  0  0  0  0  0  0  0  0  0  0  0
  192.8090  174.7490  143.4610 C   0  0  0  0  0  2  0  0  0  0  0  0
  188.9830  176.6800  146.3200 C   0  0  0  0  0  2  0  0  0  0  0  0
  191.5810  176.6790  147.0280 O   0  0  0  0  0  0  0  0  0  0  0  0
  195.9760  174.3050  143.7530 C   0  0  0  0  0  1  0  0  0  0  0  0
  190.8940  175.7440  144.9010 C   0  0  0  0  0  0  0  0  0  0  0  0
  193.7040  175.1100  144.5980 C   0  0  0  0  0  0  0  0  0  0  0  0
  184.1630  179.2640  144.3880 C   0  0  0  0  0  2  0  0  0  0  0  0
  184.2620  178.7480  142.9960 C   0  0  0  0  0  0  0  0  0  0  0  0
  185.4600  178.8490  142.3010 O   0  0  0  0  0  0  0  0  0  0  0  0
  183.2510  178.2490  142.4360 O   0  0  0  0  0  1  0  0  0  0  0  0
  1 16  1  1  0  0  0
  2 24  1  0  0  0  0
  3 11  1  0  0  0  0
  4  3  2  0  0  0  0
  4 21  1  0  0  0  0
  5 25  2  0  0  0  0
  6  5  1  0  0  0  0
  6 18  2  0  0  0  0
  7 24  1  1  0  0  0
  7 19  1  0  0  0  0
  8 17  1  0  0  0  0
  9 15  1  0  0  0  0
 10 20  1  0  0  0  0
 10 17  1  0  0  0  0
 10  1  1  0  0  0  0
 11 13  2  0  0  0  0
 12  8  1  0  0  0  0
 12  2  2  0  0  0  0
 13 12  1  0  0  0  0
 14 27  2  0  0  0  0
 15 18  1  0  0  0  0
 17  7  1  0  0  0  0
 19 16  1  0  0  0  0
 20  1  1  0  0  0  0
 21 22  2  0  0  0  0
 22 13  1  0  0  0  0
 22 14  1  0  0  0  0
 23 14  1  0  0  0  0
 23 28  1  0  0  0  0
 26  9  1  0  0  0  0
 27  2  1  0  0  0  0
 27  5  1  0  0  0  0
 28  9  2  0  0  0  0
 28  6  1  0  0  0  0
 29 20  1  0  0  0  0
 30 29  1  0  0  0  0
 31 30  2  0  0  0  0
 32 30  1  0  0  0  0
M  END
>  <MODEL>
1

>  <REMARK>
 VINA RESULT:      -9.2      0.000      0.000
  Name = 
  2 active torsions:
  status: ('A' for Active; 'I' for Inactive)
    1  A    between atoms: C_20  and  C_29
    2  A    between atoms: C_29  and  C_30
                            x       y       z     vdW  Elec       q    Type
                         _______ _______ _______ _____ _____    ______ ____

>  <TORSDO>
F 2

$$$$
=
 OpenBabel11112416343D

 32 38  0  0  1  0  0  0  0  0999 V2000
  185.0940  179.1650  144.0960 C   0  0  1  0  0  3  0  0  0  0  0  0
  188.8650  175.5440  143.2600 C   0  0  0  0  0  0  0  0  0  0  0  0
  191.7200  176.2050  147.1520 C   0  0  0  0  0  3  0  0  0  0  0  0
  192.5020  175.1150  146.7730 C   0  0  0  0  0  3  0  0  0  0  0  0
  189.3320  173.6500  141.6130 C   0  0  0  0  0  0  0  0  0  0  0  0
  190.2030  172.5400  141.2550 C   0  0  0  0  0  0  0  0  0  0  0  0
  186.6470  176.7310  143.2770 C   0  0  1  0  0  3  0  0  0  0  0  0
  188.3940  177.3730  144.8500 N   0  0  0  0  0  2  0  0  0  0  0  0
  191.8400  171.1090  141.3710 C   0  0  0  0  0  0  0  0  0  0  0  0
  186.3540  178.7520  144.8600 C   0  0  2  0  0  3  0  0  0  0  0  0
  190.6280  176.5820  146.3720 C   0  0  0  0  0  3  0  0  0  0  0  0
  189.2060  176.2650  144.4270 C   0  0  0  0  0  0  0  0  0  0  0  0
  190.3030  175.8750  145.2030 C   0  0  0  0  0  0  0  0  0  0  0  0
  190.7790  174.0460  143.6460 C   0  0  0  0  0  0  0  0  0  0  0  0
  191.1500  170.8330  140.2840 O   0  0  0  0  0  0  0  0  0  0  0  0
  185.0300  178.6340  142.6460 C   0  0  0  0  0  2  0  0  0  0  0  0
  187.3140  177.8890  144.0200 C   0  0  2  0  0  3  0  0  0  0  0  0
  190.1420  171.6800  140.1730 C   0  0  0  0  0  3  0  0  0  0  0  0
  185.4600  177.1750  142.4200 C   0  0  0  0  0  2  0  0  0  0  0  0
  185.0170  178.0830  145.1650 C   0  0  1  0  0  3  0  0  0  0  0  0
  192.1910  174.4030  145.6140 C   0  0  0  0  0  3  0  0  0  0  0  0
  191.0920  174.7690  144.8150 C   0  0  0  0  0  0  0  0  0  0  0  0
  191.6710  172.8600  143.2790 C   0  0  0  0  0  2  0  0  0  0  0  0
  187.6940  176.0220  142.4290 C   0  0  0  0  0  2  0  0  0  0  0  0
  188.3410  173.9180  140.8800 O   0  0  0  0  0  0  0  0  0  0  0  0
  193.0440  170.3540  141.8140 C   0  0  0  0  0  1  0  0  0  0  0  0
  189.6520  174.4330  142.8520 C   0  0  0  0  0  0  0  0  0  0  0  0
  191.2730  172.1840  142.0110 C   0  0  0  0  0  0  0  0  0  0  0  0
  184.4440  178.6740  146.4360 C   0  0  0  0  0  2  0  0  0  0  0  0
  185.4810  178.6790  147.5030 C   0  0  0  0  0  0  0  0  0  0  0  0
  185.9280  177.4800  148.0430 O   0  0  0  0  0  1  0  0  0  0  0  0
  185.9310  179.7710  147.9390 O   0  0  0  0  0  0  0  0  0  0  0  0
  1 16  1  6  0  0  0
  1 10  1  0  0  0  0
  1 20  1  0  0  0  0
  2 12  1  0  0  0  0
  4  3  1  0  0  0  0
  5 27  1  0  0  0  0
  6  5  1  0  0  0  0
  6 28  1  0  0  0  0
  7 19  1  6  0  0  0
  7 17  1  0  0  0  0
  9 26  1  0  0  0  0
  9 28  2  0  0  0  0
 10 20  1  0  0  0  0
 11  3  2  0  0  0  0
 12  8  1  0  0  0  0
 12 13  2  0  0  0  0
 13 11  1  0  0  0  0
 14 22  2  0  0  0  0
 15  9  1  0  0  0  0
 17  8  1  0  0  0  0
 17 10  1  0  0  0  0
 18 15  1  0  0  0  0
 18  6  2  0  0  0  0
 19 16  1  0  0  0  0
 20 29  1  0  0  0  0
 21  4  2  0  0  0  0
 22 13  1  0  0  0  0
 22 21  1  0  0  0  0
 23 14  1  0  0  0  0
 24  2  1  0  0  0  0
 24  7  1  0  0  0  0
 25  5  2  0  0  0  0
 27  2  2  0  0  0  0
 27 14  1  0  0  0  0
 28 23  1  0  0  0  0
 29 30  1  0  0  0  0
 30 32  2  0  0  0  0
 30 31  1  0  0  0  0
M  END
>  <MODEL>
2

>  <REMARK>
 VINA RESULT:      -9.1      2.829      4.826
  Name = 
  2 active torsions:
  status: ('A' for Active; 'I' for Inactive)
    1  A    between atoms: C_20  and  C_29
    2  A    between atoms: C_29  and  C_30
                            x       y       z     vdW  Elec       q    Type
                         _______ _______ _______ _____ _____    ______ ____

>  <TORSDO>
F 2

$$$$
=
 OpenBabel11112416343D

 32 38  0  0  1  0  0  0  0  0999 V2000
  192.6510  175.1040  144.4760 C   0  0  1  0  0  3  0  0  0  0  0  0
  187.6860  176.7740  143.7040 C   0  0  0  0  0  0  0  0  0  0  0  0
  186.4270  178.1720  148.1980 C   0  0  0  0  0  3  0  0  0  0  0  0
  185.2120  178.6550  147.7160 C   0  0  0  0  0  3  0  0  0  0  0  0
  186.1070  177.1540  141.7350 C   0  0  0  0  0  0  0  0  0  0  0  0
  184.8110  177.6510  141.2970 C   0  0  0  0  0  0  0  0  0  0  0  0
  190.1150  176.2310  143.3330 C   0  0  1  0  0  3  0  0  0  0  0  0
  189.2290  176.4080  145.5960 N   0  0  0  0  0  2  0  0  0  0  0  0
  182.8340  178.5600  141.3900 C   0  0  0  0  0  0  0  0  0  0  0  0
  191.5730  175.6830  145.3950 C   0  0  2  0  0  3  0  0  0  0  0  0
  187.3390  177.5830  147.3230 C   0  0  0  0  0  3  0  0  0  0  0  0
  187.9690  176.8740  145.0860 C   0  0  0  0  0  0  0  0  0  0  0  0
  187.0470  177.4690  145.9540 C   0  0  0  0  0  0  0  0  0  0  0  0
  185.5080  177.8530  144.0880 C   0  0  0  0  0  0  0  0  0  0  0  0
  183.0550  178.2220  140.1380 O   0  0  0  0  0  0  0  0  0  0  0  0
  192.1250  174.6390  143.0990 C   0  0  0  0  0  2  0  0  0  0  0  0
  190.1700  175.6790  144.7590 C   0  0  2  0  0  3  0  0  0  0  0  0
  184.2480  177.6650  140.0330 C   0  0  0  0  0  3  0  0  0  0  0  0
  191.1160  175.5590  142.3920 C   0  0  0  0  0  2  0  0  0  0  0  0
  192.5710  176.6080  144.7030 C   0  0  1  0  0  3  0  0  0  0  0  0
  184.9090  178.5490  146.3580 C   0  0  0  0  0  3  0  0  0  0  0  0
  185.8170  177.9580  145.4600 C   0  0  0  0  0  0  0  0  0  0  0  0
  184.1620  178.3990  143.6160 C   0  0  0  0  0  2  0  0  0  0  0  0
  188.6940  176.0880  142.8070 C   0  0  0  0  0  2  0  0  0  0  0  0
  186.8980  176.6630  140.8850 O   0  0  0  0  0  0  0  0  0  0  0  0
  181.5890  179.2160  141.8750 C   0  0  0  0  0  1  0  0  0  0  0  0
  186.4500  177.2540  143.1920 C   0  0  0  0  0  0  0  0  0  0  0  0
  183.9210  178.2130  142.1550 C   0  0  0  0  0  0  0  0  0  0  0  0
  193.6360  177.0220  145.6960 C   0  0  0  0  0  2  0  0  0  0  0  0
  194.9170  176.3330  145.3790 C   0  0  0  0  0  0  0  0  0  0  0  0
  195.6410  176.6960  144.2520 O   0  0  0  0  0  0  0  0  0  0  0  0
  195.3270  175.3980  146.1160 O   0  0  0  0  0  1  0  0  0  0  0  0
  1 16  1  6  0  0  0
  1 20  1  0  0  0  0
  1 10  1  0  0  0  0
  2 12  1  0  0  0  0
  4  3  1  0  0  0  0
  5 27  1  0  0  0  0
  6  5  1  0  0  0  0
  6 28  1  0  0  0  0
  7 19  1  6  0  0  0
  7 17  1  0  0  0  0
  9 26  1  0  0  0  0
  9 28  2  0  0  0  0
 11  3  2  0  0  0  0
 12  8  1  0  0  0  0
 12 13  2  0  0  0  0
 13 11  1  0  0  0  0
 14 22  2  0  0  0  0
 15  9  1  0  0  0  0
 17 10  1  0  0  0  0
 17  8  1  0  0  0  0
 18 15  1  0  0  0  0
 18  6  2  0  0  0  0
 19 16  1  0  0  0  0
 20 10  1  0  0  0  0
 20 29  1  0  0  0  0
 21  4  2  0  0  0  0
 22 13  1  0  0  0  0
 22 21  1  0  0  0  0
 23 14  1  0  0  0  0
 24  7  1  0  0  0  0
 24  2  1  0  0  0  0
 25  5  2  0  0  0  0
 27  2  2  0  0  0  0
 27 14  1  0  0  0  0
 28 23  1  0  0  0  0
 30 29  1  0  0  0  0
 30 32  1  0  0  0  0
 31 30  2  0  0  0  0
M  END
>  <MODEL>
3

>  <REMARK>
 VINA RESULT:      -8.6      1.690      8.703
  Name = 
  2 active torsions:
  status: ('A' for Active; 'I' for Inactive)
    1  A    between atoms: C_20  and  C_29
    2  A    between atoms: C_29  and  C_30
                            x       y       z     vdW  Elec       q    Type
                         _______ _______ _______ _____ _____    ______ ____

>  <TORSDO>
F 2

$$$$
=
 OpenBabel11112416343D

 32 38  0  0  1  0  0  0  0  0999 V2000
  190.3610  172.3320  139.2060 C   0  0  1  0  0  3  0  0  0  0  0  0
  188.6130  175.1990  143.2990 C   0  0  0  0  0  0  0  0  0  0  0  0
  192.3790  174.8850  146.3760 C   0  0  0  0  0  3  0  0  0  0  0  0
  191.7500  175.7710  147.2480 C   0  0  0  0  0  3  0  0  0  0  0  0
  186.6070  176.6770  143.8500 C   0  0  0  0  0  0  0  0  0  0  0  0
  185.9890  177.5760  144.8140 C   0  0  0  0  0  0  0  0  0  0  0  0
  188.9940  174.3440  140.9640 C   0  0  1  0  0  3  0  0  0  0  0  0
  190.5520  173.7720  142.7490 N   0  0  0  0  0  2  0  0  0  0  0  0
  185.7260  178.7710  146.6150 C   0  0  0  0  0  0  0  0  0  0  0  0
  190.9520  172.7050  140.5670 C   0  0  2  0  0  3  0  0  0  0  0  0
  191.7540  174.5210  145.1830 C   0  0  0  0  0  3  0  0  0  0  0  0
  189.8750  174.6650  143.6500 C   0  0  0  0  0  0  0  0  0  0  0  0
  190.4930  175.0390  144.8470 C   0  0  0  0  0  0  0  0  0  0  0  0
  188.5860  176.4710  145.4060 C   0  0  0  0  0  0  0  0  0  0  0  0
  184.6510  178.9320  145.8740 O   0  0  0  0  0  0  0  0  0  0  0  0
  188.8420  172.5920  139.0820 C   0  0  0  0  0  2  0  0  0  0  0  0
  189.9050  173.2630  141.5480 C   0  0  2  0  0  3  0  0  0  0  0  0
  184.7670  178.2230  144.7650 C   0  0  0  0  0  3  0  0  0  0  0  0
  188.3130  173.9140  139.6640 C   0  0  0  0  0  2  0  0  0  0  0  0
  191.2030  173.5920  139.3510 C   0  0  1  0  0  3  0  0  0  0  0  0
  190.4970  176.2950  146.9270 C   0  0  0  0  0  3  0  0  0  0  0  0
  189.8520  175.9390  145.7280 C   0  0  0  0  0  0  0  0  0  0  0  0
  187.9440  177.4380  146.4000 C   0  0  0  0  0  2  0  0  0  0  0  0
  187.9640  174.7370  142.0130 C   0  0  0  0  0  2  0  0  0  0  0  0
  186.0010  176.4160  142.7750 O   0  0  0  0  0  0  0  0  0  0  0  0
  185.9410  179.4260  147.9340 C   0  0  0  0  0  1  0  0  0  0  0  0
  187.9520  176.1000  144.1770 C   0  0  0  0  0  0  0  0  0  0  0  0
  186.5960  177.9180  145.9790 C   0  0  0  0  0  0  0  0  0  0  0  0
  192.5970  173.3270  138.8210 C   0  0  0  0  0  2  0  0  0  0  0  0
  193.4410  174.5410  138.9910 C   0  0  0  0  0  0  0  0  0  0  0  0
  193.8290  175.2790  137.8810 O   0  0  0  0  0  0  0  0  0  0  0  0
  193.8310  174.8800  140.1390 O   0  0  0  0  0  1  0  0  0  0  0  0
  1 16  1  1  0  0  0
  1 20  1  0  0  0  0
  1 10  1  0  0  0  0
  2 12  2  0  0  0  0
  2 27  1  0  0  0  0
  3  4  1  0  0  0  0
  5 27  1  0  0  0  0
  5  6  1  0  0  0  0
  6 28  1  0  0  0  0
  7 19  1  6  0  0  0
  7 17  1  0  0  0  0
  7 24  1  0  0  0  0
  8 12  1  0  0  0  0
  9 26  1  0  0  0  0
 10 17  1  0  0  0  0
 11  3  2  0  0  0  0
 12 13  1  0  0  0  0
 13 11  1  0  0  0  0
 13 22  2  0  0  0  0
 14 22  1  0  0  0  0
 14 23  1  0  0  0  0
 15  9  1  0  0  0  0
 16 19  1  0  0  0  0
 17  8  1  0  0  0  0
 18  6  2  0  0  0  0
 18 15  1  0  0  0  0
 20 10  1  0  0  0  0
 21  4  2  0  0  0  0
 22 21  1  0  0  0  0
 24  2  1  0  0  0  0
 25  5  2  0  0  0  0
 27 14  2  0  0  0  0
 28 23  1  0  0  0  0
 28  9  2  0  0  0  0
 29 30  1  0  0  0  0
 29 20  1  0  0  0  0
 30 32  1  0  0  0  0
 31 30  2  0  0  0  0
M  END
>  <MODEL>
4

>  <REMARK>
 VINA RESULT:      -8.5      2.530      7.905
  Name = 
  2 active torsions:
  status: ('A' for Active; 'I' for Inactive)
    1  A    between atoms: C_20  and  C_29
    2  A    between atoms: C_29  and  C_30
                            x       y       z     vdW  Elec       q    Type
                         _______ _______ _______ _____ _____    ______ ____

>  <TORSDO>
F 2

$$$$
=
 OpenBabel11112416343D

 32 38  0  0  1  0  0  0  0  0999 V2000
  195.4590  174.4440  144.9890 C   0  0  1  0  0  3  0  0  0  0  0  0
  190.4600  176.1830  145.0700 C   0  0  0  0  0  0  0  0  0  0  0  0
  188.7160  174.3060  140.9250 C   0  0  0  0  0  3  0  0  0  0  0  0
  187.4420  174.7740  141.2400 C   0  0  0  0  0  3  0  0  0  0  0  0
  188.9200  177.4290  146.6790 C   0  0  0  0  0  0  0  0  0  0  0  0
  187.5730  177.9160  146.9390 C   0  0  0  0  0  0  0  0  0  0  0  0
  192.7260  175.3740  145.8050 C   0  0  1  0  0  3  0  0  0  0  0  0
  191.9590  174.9700  143.5280 N   0  0  0  0  0  2  0  0  0  0  0  0
  185.4460  178.2890  146.6570 C   0  0  0  0  0  0  0  0  0  0  0  0
  194.2700  174.2910  144.0390 C   0  0  2  0  0  3  0  0  0  0  0  0
  189.7800  174.5430  141.7960 C   0  0  0  0  0  3  0  0  0  0  0  0
  190.6580  175.4860  143.8550 C   0  0  0  0  0  0  0  0  0  0  0  0
  189.5830  175.2510  142.9920 C   0  0  0  0  0  0  0  0  0  0  0  0
  188.0760  176.4380  144.5150 C   0  0  0  0  0  0  0  0  0  0  0  0
  185.7970  178.8440  147.7970 O   0  0  0  0  0  0  0  0  0  0  0  0
  195.2830  175.5510  146.0520 C   0  0  0  0  0  2  0  0  0  0  0  0
  193.1300  175.2850  144.3330 C   0  0  2  0  0  3  0  0  0  0  0  0
  187.0850  178.6420  148.0110 C   0  0  0  0  0  3  0  0  0  0  0  0
  193.9090  175.6470  146.7350 C   0  0  0  0  0  2  0  0  0  0  0  0
  194.5060  173.2660  145.1450 C   0  0  1  0  0  3  0  0  0  0  0  0
  187.2310  175.4780  142.4260 C   0  0  0  0  0  3  0  0  0  0  0  0
  188.2920  175.7270  143.3160 C   0  0  0  0  0  0  0  0  0  0  0  0
  186.6580  176.9270  144.8080 C   0  0  0  0  0  2  0  0  0  0  0  0
  191.6570  176.4470  145.9560 C   0  0  0  0  0  2  0  0  0  0  0  0
  189.8290  177.6510  147.5250 O   0  0  0  0  0  0  0  0  0  0  0  0
  184.0660  178.3150  146.1010 C   0  0  0  0  0  1  0  0  0  0  0  0
  189.1690  176.6740  145.4080 C   0  0  0  0  0  0  0  0  0  0  0  0
  186.5430  177.6930  146.0830 C   0  0  0  0  0  0  0  0  0  0  0  0
  195.1380  172.0260  144.5470 C   0  0  0  0  0  2  0  0  0  0  0  0
  195.6510  171.1480  145.6340 C   0  0  0  0  0  0  0  0  0  0  0  0
  194.8530  170.1300  146.1390 O   0  0  0  0  0  1  0  0  0  0  0  0
  196.7950  171.3480  146.1180 O   0  0  0  0  0  0  0  0  0  0  0  0
  1 20  1  0  0  0  0
  1 16  1  1  0  0  0
  2 27  1  0  0  0  0
  2 24  1  0  0  0  0
  3  4  2  0  0  0  0
  3 11  1  0  0  0  0
  4 21  1  0  0  0  0
  5  6  1  0  0  0  0
  5 25  2  0  0  0  0
  6 18  2  0  0  0  0
  7 24  1  6  0  0  0
  7 19  1  0  0  0  0
  8 12  1  0  0  0  0
  8 17  1  0  0  0  0
  9 15  1  0  0  0  0
 10 17  1  0  0  0  0
 10  1  1  0  0  0  0
 10 20  1  0  0  0  0
 11 13  2  0  0  0  0
 12  2  2  0  0  0  0
 13 22  1  0  0  0  0
 13 12  1  0  0  0  0
 14 23  1  0  0  0  0
 14 27  2  0  0  0  0
 15 18  1  0  0  0  0
 16 19  1  0  0  0  0
 17  7  1  0  0  0  0
 21 22  2  0  0  0  0
 22 14  1  0  0  0  0
 23 28  1  0  0  0  0
 26  9  1  0  0  0  0
 27  5  1  0  0  0  0
 28  9  2  0  0  0  0
 28  6  1  0  0  0  0
 29 20  1  0  0  0  0
 29 30  1  0  0  0  0
 30 32  2  0  0  0  0
 30 31  1  0  0  0  0
M  END
>  <MODEL>
5

>  <REMARK>
 VINA RESULT:      -8.3      2.149      7.978
  Name = 
  2 active torsions:
  status: ('A' for Active; 'I' for Inactive)
    1  A    between atoms: C_20  and  C_29
    2  A    between atoms: C_29  and  C_30
                            x       y       z     vdW  Elec       q    Type
                         _______ _______ _______ _____ _____    ______ ____

>  <TORSDO>
F 2

$$$$
=
 OpenBabel11112416343D

 32 38  0  0  1  0  0  0  0  0999 V2000
  195.2510  174.7130  145.5580 C   0  0  1  0  0  3  0  0  0  0  0  0
  190.4440  176.0880  143.8180 C   0  0  0  0  0  0  0  0  0  0  0  0
  190.0810  173.4100  139.7630 C   0  0  0  0  0  3  0  0  0  0  0  0
  188.7650  173.8360  139.5910 C   0  0  0  0  0  3  0  0  0  0  0  0
  188.4680  177.4820  144.6340 C   0  0  0  0  0  0  0  0  0  0  0  0
  187.1000  177.9110  144.3850 C   0  0  0  0  0  0  0  0  0  0  0  0
  192.3870  175.5770  145.3330 C   0  0  1  0  0  3  0  0  0  0  0  0
  192.3600  174.7360  143.0460 N   0  0  0  0  0  2  0  0  0  0  0  0
  185.1570  178.0810  143.4160 C   0  0  0  0  0  0  0  0  0  0  0  0
  194.4130  174.3170  144.3410 C   0  0  2  0  0  3  0  0  0  0  0  0
  190.8230  173.8670  140.8520 C   0  0  0  0  0  3  0  0  0  0  0  0
  191.0140  175.2080  142.8690 C   0  0  0  0  0  0  0  0  0  0  0  0
  190.2590  174.7540  141.7820 C   0  0  0  0  0  0  0  0  0  0  0  0
  188.3420  176.0780  142.5380 C   0  0  0  0  0  0  0  0  0  0  0  0
  185.1330  178.8470  144.4860 O   0  0  0  0  0  0  0  0  0  0  0  0
  194.7420  175.9720  146.2960 C   0  0  0  0  0  2  0  0  0  0  0  0
  193.2240  175.2650  144.0920 C   0  0  2  0  0  3  0  0  0  0  0  0
  186.2970  178.7750  145.1080 C   0  0  0  0  0  3  0  0  0  0  0  0
  193.2240  176.0880  146.5070 C   0  0  0  0  0  2  0  0  0  0  0  0
  194.3120  173.5160  145.6360 C   0  0  1  0  0  3  0  0  0  0  0  0
  188.1910  174.7170  140.5080 C   0  0  0  0  0  3  0  0  0  0  0  0
  188.9250  175.1880  141.6120 C   0  0  0  0  0  0  0  0  0  0  0  0
  186.8960  176.5100  142.2990 C   0  0  0  0  0  2  0  0  0  0  0  0
  191.3080  176.5840  144.9570 C   0  0  0  0  0  2  0  0  0  0  0  0
  189.0710  177.9080  145.6560 O   0  0  0  0  0  0  0  0  0  0  0  0
  184.0130  177.9160  142.4780 C   0  0  0  0  0  1  0  0  0  0  0  0
  189.1050  176.5390  143.6580 C   0  0  0  0  0  0  0  0  0  0  0  0
  186.3850  177.4730  143.3170 C   0  0  0  0  0  0  0  0  0  0  0  0
  195.1140  172.2390  145.4950 C   0  0  0  0  0  2  0  0  0  0  0  0
  194.1940  171.0740  145.3930 C   0  0  0  0  0  0  0  0  0  0  0  0
  194.4630  169.9120  146.1040 O   0  0  0  0  0  1  0  0  0  0  0  0
  193.1890  171.1300  144.6380 O   0  0  0  0  0  0  0  0  0  0  0  0
  1 20  1  0  0  0  0
  1 16  1  1  0  0  0
  2 24  1  0  0  0  0
  3 11  1  0  0  0  0
  4  3  2  0  0  0  0
  4 21  1  0  0  0  0
  5 25  2  0  0  0  0
  6  5  1  0  0  0  0
  6 18  2  0  0  0  0
  7 24  1  6  0  0  0
  7 19  1  0  0  0  0
  8 17  1  0  0  0  0
  9 15  1  0  0  0  0
 10  1  1  0  0  0  0
 10 20  1  0  0  0  0
 11 13  2  0  0  0  0
 12  8  1  0  0  0  0
 12  2  2  0  0  0  0
 13 12  1  0  0  0  0
 14 27  2  0  0  0  0
 15 18  1  0  0  0  0
 16 19  1  0  0  0  0
 17 10  1  0  0  0  0
 17  7  1  0  0  0  0
 21 22  2  0  0  0  0
 22 13  1  0  0  0  0
 22 14  1  0  0  0  0
 23 14  1  0  0  0  0
 23 28  1  0  0  0  0
 26  9  1  0  0  0  0
 27  2  1  0  0  0  0
 27  5  1  0  0  0  0
 28  9  2  0  0  0  0
 28  6  1  0  0  0  0
 29 20  1  0  0  0  0
 30 29  1  0  0  0  0
 30 31  1  0  0  0  0
 32 30  2  0  0  0  0
M  END
>  <MODEL>
6

>  <REMARK>
 VINA RESULT:      -8.3      2.243      7.730
  Name = 
  2 active torsions:
  status: ('A' for Active; 'I' for Inactive)
    1  A    between atoms: C_20  and  C_29
    2  A    between atoms: C_29  and  C_30
                            x       y       z     vdW  Elec       q    Type
                         _______ _______ _______ _____ _____    ______ ____

>  <TORSDO>
F 2

$$$$
=
 OpenBabel11112416343D

 32 38  0  0  1  0  0  0  0  0999 V2000
  192.3730  170.2820  142.8950 C   0  0  1  0  0  3  0  0  0  0  0  0
  189.4120  174.5540  143.8970 C   0  0  0  0  0  0  0  0  0  0  0  0
  191.4410  176.1930  148.0130 C   0  0  0  0  0  3  0  0  0  0  0  0
  190.6130  177.3140  147.9840 C   0  0  0  0  0  3  0  0  0  0  0  0
  187.5580  175.8790  142.7470 C   0  0  0  0  0  0  0  0  0  0  0  0
  186.7020  177.0560  142.7870 C   0  0  0  0  0  0  0  0  0  0  0  0
  190.6440  172.7250  142.6860 C   0  0  1  0  0  3  0  0  0  0  0  0
  191.2120  173.2680  144.9930 N   0  0  0  0  0  2  0  0  0  0  0  0
  185.8450  178.9350  143.4770 C   0  0  0  0  0  0  0  0  0  0  0  0
  192.3700  171.3300  144.0090 C   0  0  2  0  0  3  0  0  0  0  0  0
  191.3440  175.2300  147.0080 C   0  0  0  0  0  3  0  0  0  0  0  0
  190.3300  174.4020  144.9620 C   0  0  0  0  0  0  0  0  0  0  0  0
  190.4200  175.3760  145.9630 C   0  0  0  0  0  0  0  0  0  0  0  0
  188.6450  176.6750  144.8840 C   0  0  0  0  0  0  0  0  0  0  0  0
  185.2160  178.5960  142.3720 O   0  0  0  0  0  0  0  0  0  0  0  0
  191.0960  170.2780  142.0250 C   0  0  0  0  0  2  0  0  0  0  0  0
  191.0800  172.1720  144.0430 C   0  0  2  0  0  3  0  0  0  0  0  0
  185.7060  177.4570  141.9150 C   0  0  0  0  0  3  0  0  0  0  0  0
  190.5340  171.6470  141.6070 C   0  0  0  0  0  2  0  0  0  0  0  0
  193.2200  171.5400  142.7590 C   0  0  1  0  0  3  0  0  0  0  0  0
  189.6900  177.4720  146.9500 C   0  0  0  0  0  3  0  0  0  0  0  0
  189.5780  176.5110  145.9280 C   0  0  0  0  0  0  0  0  0  0  0  0
  187.7640  177.9230  144.9030 C   0  0  0  0  0  2  0  0  0  0  0  0
  189.3210  173.4590  142.8570 C   0  0  0  0  0  2  0  0  0  0  0  0
  187.4400  175.0640  141.7920 O   0  0  0  0  0  0  0  0  0  0  0  0
  185.5560  180.1660  144.2630 C   0  0  0  0  0  1  0  0  0  0  0  0
  188.5540  175.6870  143.8510 C   0  0  0  0  0  0  0  0  0  0  0  0
  186.7920  177.9850  143.7740 C   0  0  0  0  0  0  0  0  0  0  0  0
  194.6640  171.2100  143.0790 C   0  0  0  0  0  2  0  0  0  0  0  0
  195.2050  172.2000  144.0490 C   0  0  0  0  0  0  0  0  0  0  0  0
  195.6500  171.7790  145.2960 O   0  0  0  0  0  1  0  0  0  0  0  0
  195.2290  173.4230  143.7540 O   0  0  0  0  0  0  0  0  0  0  0  0
  1 16  1  6  0  0  0
  1 10  1  0  0  0  0
  2 12  1  0  0  0  0
  4  3  1  0  0  0  0
  5  6  1  0  0  0  0
  5 27  1  0  0  0  0
  6 28  1  0  0  0  0
  7 19  1  6  0  0  0
  7 24  1  0  0  0  0
  7 17  1  0  0  0  0
  9 28  2  0  0  0  0
  9 26  1  0  0  0  0
 10 17  1  0  0  0  0
 11  3  2  0  0  0  0
 12  8  1  0  0  0  0
 12 13  2  0  0  0  0
 13 11  1  0  0  0  0
 14 23  1  0  0  0  0
 14 22  2  0  0  0  0
 15  9  1  0  0  0  0
 17  8  1  0  0  0  0
 18 15  1  0  0  0  0
 18  6  2  0  0  0  0
 19 16  1  0  0  0  0
 20  1  1  0  0  0  0
 20 29  1  0  0  0  0
 20 10  1  0  0  0  0
 21  4  2  0  0  0  0
 22 13  1  0  0  0  0
 22 21  1  0  0  0  0
 24  2  1  0  0  0  0
 25  5  2  0  0  0  0
 27  2  2  0  0  0  0
 27 14  1  0  0  0  0
 28 23  1  0  0  0  0
 29 30  1  0  0  0  0
 30 31  1  0  0  0  0
 32 30  2  0  0  0  0
M  END
>  <MODEL>
7

>  <REMARK>
 VINA RESULT:      -8.1      2.549      8.489
  Name = 
  2 active torsions:
  status: ('A' for Active; 'I' for Inactive)
    1  A    between atoms: C_20  and  C_29
    2  A    between atoms: C_29  and  C_30
                            x       y       z     vdW  Elec       q    Type
                         _______ _______ _______ _____ _____    ______ ____

>  <TORSDO>
F 2

$$$$
=
 OpenBabel11112416343D

 32 38  0  0  1  0  0  0  0  0999 V2000
  186.5160  177.4400  146.2500 C   0  0  1  0  0  3  0  0  0  0  0  0
  190.9210  175.7630  143.8400 C   0  0  0  0  0  0  0  0  0  0  0  0
  189.0800  173.4230  139.9830 C   0  0  0  0  0  3  0  0  0  0  0  0
  190.3660  173.2100  139.4880 C   0  0  0  0  0  3  0  0  0  0  0  0
  193.4430  176.0540  144.1000 C   0  0  0  0  0  0  0  0  0  0  0  0
  194.7610  175.7770  143.5460 C   0  0  0  0  0  0  0  0  0  0  0  0
  189.3090  177.1390  145.1950 C   0  0  1  0  0  3  0  0  0  0  0  0
  188.4780  175.4980  143.5960 N   0  0  0  0  0  2  0  0  0  0  0  0
  196.2890  175.0390  142.1820 C   0  0  0  0  0  0  0  0  0  0  0  0
  186.7850  176.6260  144.9830 C   0  0  2  0  0  3  0  0  0  0  0  0
  188.9010  174.1040  141.1860 C   0  0  0  0  0  3  0  0  0  0  0  0
  189.8130  175.2630  143.1170 C   0  0  0  0  0  0  0  0  0  0  0  0
  190.0050  174.5830  141.9100 C   0  0  0  0  0  0  0  0  0  0  0  0
  192.4300  174.8470  142.1250 C   0  0  0  0  0  0  0  0  0  0  0  0
  196.9050  175.6420  143.1760 O   0  0  0  0  0  0  0  0  0  0  0  0
  187.7370  177.5740  147.1880 C   0  0  0  0  0  2  0  0  0  0  0  0
  188.2290  176.0970  144.9000 C   0  0  2  0  0  3  0  0  0  0  0  0
  196.0130  176.1070  144.0320 C   0  0  0  0  0  3  0  0  0  0  0  0
  189.0940  177.8630  146.5260 C   0  0  0  0  0  2  0  0  0  0  0  0
  186.6720  178.1470  144.9110 C   0  0  1  0  0  3  0  0  0  0  0  0
  191.4720  173.6810  140.1970 C   0  0  0  0  0  3  0  0  0  0  0  0
  191.3110  174.3710  141.4120 C   0  0  0  0  0  0  0  0  0  0  0  0
  193.8150  174.5860  141.5350 C   0  0  0  0  0  2  0  0  0  0  0  0
  190.6700  176.4590  145.1600 C   0  0  0  0  0  2  0  0  0  0  0  0
  193.3510  176.7050  145.1760 O   0  0  0  0  0  0  0  0  0  0  0  0
  196.9820  174.3990  141.0300 C   0  0  0  0  0  1  0  0  0  0  0  0
  192.2410  175.5520  143.3560 C   0  0  0  0  0  0  0  0  0  0  0  0
  194.9310  175.1020  142.3800 C   0  0  0  0  0  0  0  0  0  0  0  0
  185.3040  178.5190  144.3780 C   0  0  0  0  0  2  0  0  0  0  0  0
  185.3010  178.4320  142.8920 C   0  0  0  0  0  0  0  0  0  0  0  0
  184.1880  177.9320  142.2280 O   0  0  0  0  0  0  0  0  0  0  0  0
  186.3190  178.7790  142.2390 O   0  0  0  0  0  1  0  0  0  0  0  0
  1 16  1  1  0  0  0
  2 24  1  0  0  0  0
  3 11  1  0  0  0  0
  4  3  2  0  0  0  0
  4 21  1  0  0  0  0
  5 25  2  0  0  0  0
  6 18  2  0  0  0  0
  6  5  1  0  0  0  0
  7 24  1  1  0  0  0
  7 19  1  0  0  0  0
  8 17  1  0  0  0  0
  9 28  2  0  0  0  0
  9 15  1  0  0  0  0
 10  1  1  0  0  0  0
 11 13  2  0  0  0  0
 12  8  1  0  0  0  0
 12  2  2  0  0  0  0
 13 12  1  0  0  0  0
 14 27  2  0  0  0  0
 15 18  1  0  0  0  0
 17 10  1  0  0  0  0
 17  7  1  0  0  0  0
 19 16  1  0  0  0  0
 20 10  1  0  0  0  0
 20  1  1  0  0  0  0
 21 22  2  0  0  0  0
 22 13  1  0  0  0  0
 22 14  1  0  0  0  0
 23 14  1  0  0  0  0
 23 28  1  0  0  0  0
 26  9  1  0  0  0  0
 27  2  1  0  0  0  0
 27  5  1  0  0  0  0
 28  6  1  0  0  0  0
 29 20  1  0  0  0  0
 30 29  1  0  0  0  0
 31 30  2  0  0  0  0
 32 30  1  0  0  0  0
M  END
>  <MODEL>
8

>  <REMARK>
 VINA RESULT:      -8.1      1.458      2.062
  Name = 
  2 active torsions:
  status: ('A' for Active; 'I' for Inactive)
    1  A    between atoms: C_20  and  C_29
    2  A    between atoms: C_29  and  C_30
                            x       y       z     vdW  Elec       q    Type
                         _______ _______ _______ _____ _____    ______ ____

>  <TORSDO>
F 2

$$$$
=
 OpenBabel11112416343D

 32 38  0  0  1  0  0  0  0  0999 V2000
  186.4030  178.3190  143.5770 C   0  0  1  0  0  3  0  0  0  0  0  0
  190.0530  174.4850  143.6080 C   0  0  0  0  0  0  0  0  0  0  0  0
  193.4510  176.4080  146.5240 C   0  0  0  0  0  3  0  0  0  0  0  0
  194.1820  175.2230  146.4670 C   0  0  0  0  0  3  0  0  0  0  0  0
  190.2940  172.1010  142.7300 C   0  0  0  0  0  0  0  0  0  0  0  0
  191.1160  170.9000  142.6870 C   0  0  0  0  0  0  0  0  0  0  0  0
  187.8470  175.6900  143.5030 C   0  0  1  0  0  3  0  0  0  0  0  0
  189.8020  176.7890  144.4570 N   0  0  0  0  0  2  0  0  0  0  0  0
  192.7710  169.5420  143.0870 C   0  0  0  0  0  0  0  0  0  0  0  0
  187.7680  178.1630  144.2500 C   0  0  2  0  0  3  0  0  0  0  0  0
  192.2480  176.5190  145.8250 C   0  0  0  0  0  3  0  0  0  0  0  0
  190.5560  175.5700  144.3630 C   0  0  0  0  0  0  0  0  0  0  0  0
  191.7620  175.4460  145.0620 C   0  0  0  0  0  0  0  0  0  0  0  0
  192.0240  173.1530  144.2410 C   0  0  0  0  0  0  0  0  0  0  0  0
  191.9300  168.9160  142.2920 O   0  0  0  0  0  0  0  0  0  0  0  0
  186.1290  177.2950  142.4530 C   0  0  0  0  0  2  0  0  0  0  0  0
  188.6030  177.0100  143.6600 C   0  0  2  0  0  3  0  0  0  0  0  0
  190.9050  169.7060  142.0210 C   0  0  0  0  0  3  0  0  0  0  0  0
  186.5400  175.8390  142.7240 C   0  0  0  0  0  2  0  0  0  0  0  0
  186.5010  177.7110  144.9700 C   0  0  1  0  0  3  0  0  0  0  0  0
  193.7100  174.1480  145.7120 C   0  0  0  0  0  3  0  0  0  0  0  0
  192.4990  174.2420  145.0010 C   0  0  0  0  0  0  0  0  0  0  0  0
  192.8660  171.8790  144.2150 C   0  0  0  0  0  2  0  0  0  0  0  0
  188.7650  174.6750  142.8370 C   0  0  0  0  0  2  0  0  0  0  0  0
  189.2020  172.1220  142.1010 O   0  0  0  0  0  0  0  0  0  0  0  0
  194.0370  168.9520  143.6000 C   0  0  0  0  0  1  0  0  0  0  0  0
  190.7860  173.2690  143.5310 C   0  0  0  0  0  0  0  0  0  0  0  0
  192.2920  170.8010  143.3590 C   0  0  0  0  0  0  0  0  0  0  0  0
  186.1170  178.7530  146.0000 C   0  0  0  0  0  2  0  0  0  0  0  0
  186.3070  178.2020  147.3700 C   0  0  0  0  0  0  0  0  0  0  0  0
  186.9050  178.9780  148.3540 O   0  0  0  0  0  1  0  0  0  0  0  0
  185.9560  177.0210  147.6270 O   0  0  0  0  0  0  0  0  0  0  0  0
  1 16  1  6  0  0  0
  1 10  1  0  0  0  0
  1 20  1  0  0  0  0
  2 12  1  0  0  0  0
  4  3  1  0  0  0  0
  5 27  1  0  0  0  0
  6  5  1  0  0  0  0
  6 28  1  0  0  0  0
  7 19  1  6  0  0  0
  7 17  1  0  0  0  0
  9 28  2  0  0  0  0
  9 26  1  0  0  0  0
 10 20  1  0  0  0  0
 11  3  2  0  0  0  0
 12  8  1  0  0  0  0
 12 13  2  0  0  0  0
 13 11  1  0  0  0  0
 14 22  2  0  0  0  0
 15  9  1  0  0  0  0
 16 19  1  0  0  0  0
 17 10  1  0  0  0  0
 17  8  1  0  0  0  0
 18 15  1  0  0  0  0
 18  6  2  0  0  0  0
 20 29  1  0  0  0  0
 21  4  2  0  0  0  0
 22 13  1  0  0  0  0
 22 21  1  0  0  0  0
 23 14  1  0  0  0  0
 24  7  1  0  0  0  0
 24  2  1  0  0  0  0
 25  5  2  0  0  0  0
 27  2  2  0  0  0  0
 27 14  1  0  0  0  0
 28 23  1  0  0  0  0
 29 30  1  0  0  0  0
 30 32  2  0  0  0  0
 30 31  1  0  0  0  0
M  END
>  <MODEL>
9

>  <REMARK>
 VINA RESULT:      -8.1      3.303      5.006
  Name = 
  2 active torsions:
  status: ('A' for Active; 'I' for Inactive)
    1  A    between atoms: C_20  and  C_29
    2  A    between atoms: C_29  and  C_30
                            x       y       z     vdW  Elec       q    Type
                         _______ _______ _______ _____ _____    ______ ____

>  <TORSDO>
F 2

$$$$
