=
 OpenBabel11112417583D

 34 40  0  0  1  0  0  0  0  0999 V2000
  186.2620  177.0960  144.3190 C   0  0  1  0  0  3  0  0  0  0  0  0
  184.6150  178.2300  142.7070 C   0  0  0  0  0  2  0  0  0  0  0  0
  192.8030  176.7020  145.8190 C   0  0  2  0  0  3  0  0  0  0  0  0
  188.3940  176.8440  145.7480 C   0  0  1  0  0  3  0  0  0  0  0  0
  190.6630  176.6550  144.6690 C   0  0  1  0  0  3  0  0  0  0  0  0
  193.0920  176.3130  143.7490 C   0  0  0  0  0  2  0  0  0  0  0  0
  193.9880  176.7950  144.8860 C   0  0  0  0  0  2  0  0  0  0  0  0
  191.5190  175.4340  147.5790 C   0  0  0  0  0  2  0  0  0  0  0  0
  186.4600  177.0100  141.8750 C   0  0  2  0  0  3  0  0  0  0  0  0
  190.0120  176.3170  143.3320 C   0  0  0  0  0  2  0  0  0  0  0  0
  190.3990  176.4390  147.2350 C   0  0  0  0  0  2  0  0  0  0  0  0
  187.9750  176.7700  141.8270 C   0  0  1  0  0  3  0  0  0  0  0  0
  184.5770  178.3200  141.1830 C   0  0  0  0  0  2  0  0  0  0  0  0
  189.7690  176.1720  145.8460 C   0  0  1  0  0  3  0  0  0  0  0  0
  192.9180  175.8300  147.0560 C   0  0  0  0  0  2  0  0  0  0  0  0
  187.7160  176.5240  144.4030 C   0  0  2  0  0  3  0  0  0  0  0  0
  192.0170  175.9720  144.7660 C   0  0  1  0  0  3  0  0  0  0  0  0
  188.6250  176.9570  143.2260 C   0  0  1  0  0  3  0  0  0  0  0  0
  186.1110  177.1610  146.8360 C   0  0  0  0  0  2  0  0  0  0  0  0
  187.4610  176.4300  146.8900 C   0  0  0  0  0  2  0  0  0  0  0  0
  185.8710  177.6950  140.6670 C   0  0  0  0  0  2  0  0  0  0  0  0
  185.8880  177.9450  145.5380 C   0  0  0  0  0  2  0  0  0  0  0  0
  186.0500  177.8790  143.0280 C   0  0  2  0  0  3  0  0  0  0  0  0
  188.2320  175.3740  141.2550 C   0  0  0  0  0  2  0  0  0  0  0  0
  187.3930  174.3210  141.9620 C   0  0  0  0  0  2  0  0  0  0  0  0
  188.0550  172.9610  141.8570 C   0  0  0  0  0  2  0  0  0  0  0  0
  189.4530  173.0360  142.4320 C   0  0  0  0  0  2  0  0  0  0  0  0
  189.5220  172.2130  143.7030 C   0  0  0  0  0  2  0  0  0  0  0  0
  190.6620  172.6890  144.5880 C   0  0  0  0  0  2  0  0  0  0  0  0
  193.7400  171.5680  145.1610 C   0  0  0  0  0  2  0  0  0  0  0  0
  192.1550  170.8510  143.8200 C   0  0  0  0  0  2  0  0  0  0  0  0
  192.0150  172.3350  143.9830 C   0  0  2  0  0  3  0  0  0  0  0  0
  193.4330  170.5380  144.2620 O   0  0  0  0  0  0  0  0  0  0  0  0
  193.0360  172.7420  144.8390 O   0  0  0  0  0  0  0  0  0  0  0  0
  1 16  1  0  0  0  0
  1 22  1  1  0  0  0
  2 23  1  0  0  0  0
  3  7  1  6  0  0  0
  3 15  1  0  0  0  0
  4 14  1  0  0  0  0
  4 20  1  1  0  0  0
  5 10  1  6  0  0  0
  5 17  1  0  0  0  0
  5 14  1  0  0  0  0
  6 17  1  0  0  0  0
  6  7  1  0  0  0  0
  9 21  1  6  0  0  0
  9 23  1  0  0  0  0
 11  8  1  0  0  0  0
 12 24  1  1  0  0  0
 12  9  1  0  0  0  0
 12 18  1  0  0  0  0
 13  2  1  0  0  0  0
 14 11  1  1  0  0  0
 15  8  1  0  0  0  0
 16  4  1  0  0  0  0
 17  3  1  0  0  0  0
 18 10  1  0  0  0  0
 18 16  1  0  0  0  0
 19 20  1  0  0  0  0
 21 13  1  0  0  0  0
 22 19  1  0  0  0  0
 23  1  1  0  0  0  0
 24 25  1  0  0  0  0
 26 25  1  0  0  0  0
 26 27  1  0  0  0  0
 27 28  1  0  0  0  0
 28 29  1  0  0  0  0
 31 32  1  0  0  0  0
 31 33  1  0  0  0  0
 32 29  1  0  0  0  0
 32 34  1  0  0  0  0
 33 30  1  0  0  0  0
 34 30  1  0  0  0  0
M  END
>  <MODEL>
1

>  <REMARK>
 VINA RESULT:      -8.1      0.000      0.000
  Name = 
  7 active torsions:
  status: ('A' for Active; 'I' for Inactive)
    1  A    between atoms: C_10  and  C_17
    2  A    between atoms: C_10  and  C_22
    3  A    between atoms: C_13  and  C_24
    4  A    between atoms: C_17  and  C_28
    5  A    between atoms: C_22  and  C_24
    6  A    between atoms: C_28  and  C_29
    7  A    between atoms: C_29  and  C_32
                            x       y       z     vdW  Elec       q    Type
                         _______ _______ _______ _____ _____    ______ ____

>  <TORSDO>
F 7

$$$$
=
 OpenBabel11112417583D

 34 40  0  0  1  0  0  0  0  0999 V2000
  186.6140  177.7160  143.6520 C   0  0  1  0  0  3  0  0  0  0  0  0
  185.1410  178.7050  145.5090 C   0  0  0  0  0  2  0  0  0  0  0  0
  190.1310  172.2220  142.0240 C   0  0  2  0  0  3  0  0  0  0  0  0
  187.6650  175.8780  142.1800 C   0  0  1  0  0  3  0  0  0  0  0  0
  189.2620  174.1900  143.1550 C   0  0  1  0  0  3  0  0  0  0  0  0
  191.0360  172.4280  143.9380 C   0  0  0  0  0  2  0  0  0  0  0  0
  190.8850  171.2850  142.9390 C   0  0  0  0  0  2  0  0  0  0  0  0
  190.1120  173.7590  140.0270 C   0  0  0  0  0  2  0  0  0  0  0  0
  187.3020  177.8840  146.0010 C   0  0  2  0  0  3  0  0  0  0  0  0
  189.4690  175.0760  144.3790 C   0  0  0  0  0  2  0  0  0  0  0  0
  188.7620  174.2200  140.6150 C   0  0  0  0  0  2  0  0  0  0  0  0
  188.3200  176.7370  145.9730 C   0  0  1  0  0  3  0  0  0  0  0  0
  185.3650  178.8710  147.0100 C   0  0  0  0  0  2  0  0  0  0  0  0
  188.9320  175.0560  141.9070 C   0  0  1  0  0  3  0  0  0  0  0  0
  190.6470  172.4330  140.6130 C   0  0  0  0  0  2  0  0  0  0  0  0
  187.8440  176.7770  143.4160 C   0  0  2  0  0  3  0  0  0  0  0  0
  190.5260  173.3930  142.8810 C   0  0  1  0  0  3  0  0  0  0  0  0
  188.2240  175.9240  144.6520 C   0  0  1  0  0  3  0  0  0  0  0  0
  185.9540  177.5090  141.2270 C   0  0  0  0  0  2  0  0  0  0  0  0
  187.2650  176.7450  140.9830 C   0  0  0  0  0  2  0  0  0  0  0  0
  186.6780  178.1670  147.3450 C   0  0  0  0  0  2  0  0  0  0  0  0
  185.4650  177.4420  142.6770 C   0  0  0  0  0  2  0  0  0  0  0  0
  186.1300  177.6390  145.0960 C   0  0  2  0  0  3  0  0  0  0  0  0
  189.7190  177.3180  146.1890 C   0  0  0  0  0  2  0  0  0  0  0  0
  190.0990  177.3210  147.6610 C   0  0  0  0  0  2  0  0  0  0  0  0
  191.4790  176.7240  147.8520 C   0  0  0  0  0  2  0  0  0  0  0  0
  191.4730  175.2850  147.3840 C   0  0  0  0  0  2  0  0  0  0  0  0
  192.6480  175.0500  146.4550 C   0  0  0  0  0  2  0  0  0  0  0  0
  193.6340  176.2040  146.5380 C   0  0  0  0  0  2  0  0  0  0  0  0
  195.2140  176.0600  143.6160 C   0  0  0  0  0  2  0  0  0  0  0  0
  193.0760  176.1200  144.1130 C   0  0  0  0  0  2  0  0  0  0  0  0
  193.8400  176.8530  145.1750 C   0  0  2  0  0  3  0  0  0  0  0  0
  193.9410  176.0030  143.0340 O   0  0  0  0  0  0  0  0  0  0  0  0
  195.1850  176.7870  144.8180 O   0  0  0  0  0  0  0  0  0  0  0  0
  1 22  1  6  0  0  0
  1 23  1  0  0  0  0
  2 13  1  0  0  0  0
  3 15  1  6  0  0  0
  3 17  1  0  0  0  0
  3  7  1  0  0  0  0
  4 20  1  6  0  0  0
  4 16  1  0  0  0  0
  5 10  1  1  0  0  0
  7  6  1  0  0  0  0
  8 15  1  0  0  0  0
  8 11  1  0  0  0  0
  9 21  1  1  0  0  0
 10 18  1  0  0  0  0
 12  9  1  0  0  0  0
 12 24  1  6  0  0  0
 13 21  1  0  0  0  0
 14 11  1  6  0  0  0
 14  4  1  0  0  0  0
 14  5  1  0  0  0  0
 16  1  1  0  0  0  0
 16 18  1  0  0  0  0
 17  5  1  0  0  0  0
 17  6  1  0  0  0  0
 18 12  1  0  0  0  0
 19 22  1  0  0  0  0
 20 19  1  0  0  0  0
 23  2  1  0  0  0  0
 23  9  1  0  0  0  0
 24 25  1  0  0  0  0
 25 26  1  0  0  0  0
 27 26  1  0  0  0  0
 28 29  1  0  0  0  0
 28 27  1  0  0  0  0
 30 34  1  0  0  0  0
 31 32  1  0  0  0  0
 32 29  1  0  0  0  0
 33 30  1  0  0  0  0
 33 31  1  0  0  0  0
 34 32  1  0  0  0  0
M  END
>  <MODEL>
2

>  <REMARK>
 VINA RESULT:      -8.1      1.690      5.143
  Name = 
  7 active torsions:
  status: ('A' for Active; 'I' for Inactive)
    1  A    between atoms: C_10  and  C_17
    2  A    between atoms: C_10  and  C_22
    3  A    between atoms: C_13  and  C_24
    4  A    between atoms: C_17  and  C_28
    5  A    between atoms: C_22  and  C_24
    6  A    between atoms: C_28  and  C_29
    7  A    between atoms: C_29  and  C_32
                            x       y       z     vdW  Elec       q    Type
                         _______ _______ _______ _____ _____    ______ ____

>  <TORSDO>
F 7

$$$$
=
 OpenBabel11112417583D

 34 40  0  0  1  0  0  0  0  0999 V2000
  189.7960  176.3490  145.9440 C   0  0  1  0  0  3  0  0  0  0  0  0
  187.5600  177.6100  145.8680 C   0  0  0  0  0  2  0  0  0  0  0  0
  195.9560  176.2970  143.2540 C   0  0  2  0  0  3  0  0  0  0  0  0
  192.3490  176.0310  145.7810 C   0  0  1  0  0  3  0  0  0  0  0  0
  193.5480  176.2690  143.5780 C   0  0  1  0  0  3  0  0  0  0  0  0
  194.9630  176.3440  141.3740 C   0  0  0  0  0  2  0  0  0  0  0  0
  196.3720  176.6810  141.8520 C   0  0  0  0  0  2  0  0  0  0  0  0
  195.9010  174.5990  145.1150 C   0  0  0  0  0  2  0  0  0  0  0  0
  188.5220  176.7540  143.8870 C   0  0  2  0  0  3  0  0  0  0  0  0
  192.2250  176.1350  142.8310 C   0  0  0  0  0  2  0  0  0  0  0  0
  194.8290  175.5390  145.7050 C   0  0  0  0  0  2  0  0  0  0  0  0
  189.7100  176.6740  142.9210 C   0  0  1  0  0  3  0  0  0  0  0  0
  186.6390  177.9890  144.7090 C   0  0  0  0  0  2  0  0  0  0  0  0
  193.4960  175.4870  144.9200 C   0  0  1  0  0  3  0  0  0  0  0  0
  196.7420  175.2190  143.9770 C   0  0  0  0  0  2  0  0  0  0  0  0
  191.0010  175.9130  145.0470 C   0  0  2  0  0  3  0  0  0  0  0  0
  194.6760  175.7130  142.7260 C   0  0  1  0  0  3  0  0  0  0  0  0
  191.0640  176.6480  143.6850 C   0  0  1  0  0  3  0  0  0  0  0  0
  191.1500  175.9140  148.0270 C   0  0  0  0  0  2  0  0  0  0  0  0
  192.2480  175.3180  147.1330 C   0  0  0  0  0  2  0  0  0  0  0  0
  187.3620  177.6000  143.4210 C   0  0  0  0  0  2  0  0  0  0  0  0
  190.2380  176.9080  147.3000 C   0  0  0  0  0  2  0  0  0  0  0  0
  188.8960  177.3420  145.2160 C   0  0  2  0  0  3  0  0  0  0  0  0
  189.5330  175.4440  142.0270 C   0  0  0  0  0  2  0  0  0  0  0  0
  188.7650  174.3440  142.7410 C   0  0  0  0  0  2  0  0  0  0  0  0
  189.5730  173.0600  142.7570 C   0  0  0  0  0  2  0  0  0  0  0  0
  189.7550  172.5990  144.1870 C   0  0  0  0  0  2  0  0  0  0  0  0
  191.2340  172.4550  144.4870 C   0  0  0  0  0  2  0  0  0  0  0  0
  192.0500  172.5280  143.2060 C   0  0  0  0  0  2  0  0  0  0  0  0
  194.7000  171.0870  144.6050 C   0  0  0  0  0  2  0  0  0  0  0  0
  192.7130  170.3000  144.1000 C   0  0  0  0  0  2  0  0  0  0  0  0
  193.0610  171.3910  143.1320 C   0  0  2  0  0  3  0  0  0  0  0  0
  193.9050  169.9380  144.7110 O   0  0  0  0  0  0  0  0  0  0  0  0
  194.3240  171.8580  143.4920 O   0  0  0  0  0  0  0  0  0  0  0  0
  1 22  1  1  0  0  0
  3  7  1  6  0  0  0
  3 15  1  0  0  0  0
  4 20  1  1  0  0  0
  5 10  1  6  0  0  0
  5 14  1  0  0  0  0
  6  7  1  0  0  0  0
  6 17  1  0  0  0  0
  8 11  1  0  0  0  0
  9 21  1  6  0  0  0
  9 23  1  0  0  0  0
 10 18  1  0  0  0  0
 12 24  1  1  0  0  0
 12 18  1  0  0  0  0
 12  9  1  0  0  0  0
 13  2  1  0  0  0  0
 14 11  1  1  0  0  0
 14  4  1  0  0  0  0
 15  8  1  0  0  0  0
 16  4  1  0  0  0  0
 16  1  1  0  0  0  0
 17  3  1  0  0  0  0
 17  5  1  0  0  0  0
 18 16  1  0  0  0  0
 20 19  1  0  0  0  0
 21 13  1  0  0  0  0
 22 19  1  0  0  0  0
 23  2  1  0  0  0  0
 23  1  1  0  0  0  0
 24 25  1  0  0  0  0
 25 26  1  0  0  0  0
 26 27  1  0  0  0  0
 27 28  1  0  0  0  0
 29 28  1  0  0  0  0
 30 33  1  0  0  0  0
 31 33  1  0  0  0  0
 32 29  1  0  0  0  0
 32 34  1  0  0  0  0
 32 31  1  0  0  0  0
 34 30  1  0  0  0  0
M  END
>  <MODEL>
3

>  <REMARK>
 VINA RESULT:      -7.8      1.577      3.347
  Name = 
  7 active torsions:
  status: ('A' for Active; 'I' for Inactive)
    1  A    between atoms: C_10  and  C_17
    2  A    between atoms: C_10  and  C_22
    3  A    between atoms: C_13  and  C_24
    4  A    between atoms: C_17  and  C_28
    5  A    between atoms: C_22  and  C_24
    6  A    between atoms: C_28  and  C_29
    7  A    between atoms: C_29  and  C_32
                            x       y       z     vdW  Elec       q    Type
                         _______ _______ _______ _____ _____    ______ ____

>  <TORSDO>
F 7

$$$$
=
 OpenBabel11112417583D

 34 40  0  0  1  0  0  0  0  0999 V2000
  186.2040  177.0660  144.3060 C   0  0  1  0  0  3  0  0  0  0  0  0
  184.5610  178.2090  142.6980 C   0  0  0  0  0  2  0  0  0  0  0  0
  192.7400  176.6850  145.8330 C   0  0  2  0  0  3  0  0  0  0  0  0
  188.3310  176.8100  145.7420 C   0  0  1  0  0  3  0  0  0  0  0  0
  190.6060  176.6410  144.6720 C   0  0  1  0  0  3  0  0  0  0  0  0
  193.0410  176.3190  143.7600 C   0  0  0  0  0  2  0  0  0  0  0  0
  193.9290  176.7930  144.9060 C   0  0  0  0  0  2  0  0  0  0  0  0
  191.4540  175.3950  147.5740 C   0  0  0  0  0  2  0  0  0  0  0  0
  186.4150  177.0050  141.8620 C   0  0  2  0  0  3  0  0  0  0  0  0
  189.9620  176.3130  143.3290 C   0  0  0  0  0  2  0  0  0  0  0  0
  190.3310  176.3980  147.2350 C   0  0  0  0  0  2  0  0  0  0  0  0
  187.9300  176.7730  141.8180 C   0  0  1  0  0  3  0  0  0  0  0  0
  184.5290  178.3150  141.1750 C   0  0  0  0  0  2  0  0  0  0  0  0
  189.7090  176.1430  145.8400 C   0  0  1  0  0  3  0  0  0  0  0  0
  192.8530  175.8020  147.0620 C   0  0  0  0  0  2  0  0  0  0  0  0
  187.6610  176.5000  144.3910 C   0  0  2  0  0  3  0  0  0  0  0  0
  191.9620  175.9630  144.7690 C   0  0  1  0  0  3  0  0  0  0  0  0
  188.5740  176.9480  143.2230 C   0  0  1  0  0  3  0  0  0  0  0  0
  186.0420  177.1060  146.8220 C   0  0  0  0  0  2  0  0  0  0  0  0
  187.3950  176.3800  146.8750 C   0  0  0  0  0  2  0  0  0  0  0  0
  185.8280  177.7000  140.6580 C   0  0  0  0  0  2  0  0  0  0  0  0
  185.8220  177.9010  145.5320 C   0  0  0  0  0  2  0  0  0  0  0  0
  185.9950  177.8610  143.0220 C   0  0  2  0  0  3  0  0  0  0  0  0
  188.1970  175.3830  141.2350 C   0  0  0  0  0  2  0  0  0  0  0  0
  187.3800  174.3160  141.9460 C   0  0  0  0  0  2  0  0  0  0  0  0
  188.0320  172.9570  141.7850 C   0  0  0  0  0  2  0  0  0  0  0  0
  189.1380  172.8060  142.8060 C   0  0  0  0  0  2  0  0  0  0  0  0
  190.3560  172.1910  142.1450 C   0  0  0  0  0  2  0  0  0  0  0  0
  191.5440  173.1360  142.2250 C   0  0  0  0  0  2  0  0  0  0  0  0
  193.2690  173.9690  139.5070 C   0  0  0  0  0  2  0  0  0  0  0  0
  191.1960  173.2910  139.7640 C   0  0  0  0  0  2  0  0  0  0  0  0
  191.6180  174.0340  140.9960 C   0  0  2  0  0  3  0  0  0  0  0  0
  192.1190  173.6240  138.7840 O   0  0  0  0  0  0  0  0  0  0  0  0
  192.9340  174.4420  140.7870 O   0  0  0  0  0  0  0  0  0  0  0  0
  1 16  1  0  0  0  0
  1 22  1  1  0  0  0
  2 23  1  0  0  0  0
  3  7  1  6  0  0  0
  3 15  1  0  0  0  0
  4 14  1  0  0  0  0
  4 20  1  1  0  0  0
  5 10  1  6  0  0  0
  5 17  1  0  0  0  0
  5 14  1  0  0  0  0
  6 17  1  0  0  0  0
  6  7  1  0  0  0  0
  9 21  1  6  0  0  0
  9 23  1  0  0  0  0
 11  8  1  0  0  0  0
 12 24  1  1  0  0  0
 12  9  1  0  0  0  0
 12 18  1  0  0  0  0
 13  2  1  0  0  0  0
 14 11  1  1  0  0  0
 15  8  1  0  0  0  0
 16  4  1  0  0  0  0
 17  3  1  0  0  0  0
 18 10  1  0  0  0  0
 18 16  1  0  0  0  0
 19 20  1  0  0  0  0
 21 13  1  0  0  0  0
 22 19  1  0  0  0  0
 23  1  1  0  0  0  0
 24 25  1  0  0  0  0
 26 25  1  0  0  0  0
 26 27  1  0  0  0  0
 28 29  1  0  0  0  0
 28 27  1  0  0  0  0
 30 34  1  0  0  0  0
 31 32  1  0  0  0  0
 32 29  1  0  0  0  0
 33 30  1  0  0  0  0
 33 31  1  0  0  0  0
 34 32  1  0  0  0  0
M  END
>  <MODEL>
4

>  <REMARK>
 VINA RESULT:      -7.7      1.758      2.057
  Name = 
  7 active torsions:
  status: ('A' for Active; 'I' for Inactive)
    1  A    between atoms: C_10  and  C_17
    2  A    between atoms: C_10  and  C_22
    3  A    between atoms: C_13  and  C_24
    4  A    between atoms: C_17  and  C_28
    5  A    between atoms: C_22  and  C_24
    6  A    between atoms: C_28  and  C_29
    7  A    between atoms: C_29  and  C_32
                            x       y       z     vdW  Elec       q    Type
                         _______ _______ _______ _____ _____    ______ ____

>  <TORSDO>
F 7

$$$$
=
 OpenBabel11112417583D

 34 40  0  0  1  0  0  0  0  0999 V2000
  190.9630  176.8910  144.2550 C   0  0  1  0  0  3  0  0  0  0  0  0
  193.2340  176.6010  145.4200 C   0  0  0  0  0  2  0  0  0  0  0  0
  184.5810  178.6490  145.4280 C   0  0  2  0  0  3  0  0  0  0  0  0
  188.6220  177.8860  143.8300 C   0  0  1  0  0  3  0  0  0  0  0  0
  186.7550  177.5650  145.4920 C   0  0  1  0  0  3  0  0  0  0  0  0
  184.6520  177.2400  147.0200 C   0  0  0  0  0  2  0  0  0  0  0  0
  183.7620  178.4310  146.6800 C   0  0  0  0  0  2  0  0  0  0  0  0
  184.8670  178.3550  142.9420 C   0  0  0  0  0  2  0  0  0  0  0  0
  191.3120  175.5020  146.2480 C   0  0  2  0  0  3  0  0  0  0  0  0
  187.5240  176.4250  146.1520 C   0  0  0  0  0  2  0  0  0  0  0  0
  186.3250  178.7640  143.2380 C   0  0  0  0  0  2  0  0  0  0  0  0
  189.8710  175.5690  146.7680 C   0  0  1  0  0  3  0  0  0  0  0  0
  193.6510  175.8210  146.6650 C   0  0  0  0  0  2  0  0  0  0  0  0
  187.1130  177.6580  143.9820 C   0  0  1  0  0  3  0  0  0  0  0  0
  183.8730  178.6510  144.0860 C   0  0  0  0  0  2  0  0  0  0  0  0
  189.4230  176.7510  144.4950 C   0  0  2  0  0  3  0  0  0  0  0  0
  185.2620  177.3240  145.6310 C   0  0  1  0  0  3  0  0  0  0  0  0
  189.0330  176.6210  145.9880 C   0  0  1  0  0  3  0  0  0  0  0  0
  190.5460  178.3120  142.2140 C   0  0  0  0  0  2  0  0  0  0  0  0
  189.0480  178.0060  142.3640 C   0  0  0  0  0  2  0  0  0  0  0  0
  192.3730  175.2740  147.2970 C   0  0  0  0  0  2  0  0  0  0  0  0
  191.3330  178.1840  143.5220 C   0  0  0  0  0  2  0  0  0  0  0  0
  191.7380  176.7680  145.5620 C   0  0  2  0  0  3  0  0  0  0  0  0
  189.2550  174.1710  146.6880 C   0  0  0  0  0  2  0  0  0  0  0  0
  189.9940  173.2950  145.6890 C   0  0  0  0  0  2  0  0  0  0  0  0
  189.2720  173.2890  144.3560 C   0  0  0  0  0  2  0  0  0  0  0  0
  190.2790  173.4500  143.2380 C   0  0  0  0  0  2  0  0  0  0  0  0
  189.5990  174.0680  142.0310 C   0  0  0  0  0  2  0  0  0  0  0  0
  188.5490  173.1250  141.4670 C   0  0  0  0  0  2  0  0  0  0  0  0
  188.4060  173.8010  138.2150 C   0  0  0  0  0  2  0  0  0  0  0  0
  190.1080  173.4190  139.5490 C   0  0  0  0  0  2  0  0  0  0  0  0
  188.9150  172.6680  140.0610 C   0  0  2  0  0  3  0  0  0  0  0  0
  189.8060  173.7670  138.2400 O   0  0  0  0  0  0  0  0  0  0  0  0
  187.8650  172.9420  139.1870 O   0  0  0  0  0  0  0  0  0  0  0  0
  1 22  1  1  0  0  0
  1 16  1  0  0  0  0
  1 23  1  0  0  0  0
  2 23  1  0  0  0  0
  2 13  1  0  0  0  0
  3 15  1  6  0  0  0
  3 17  1  0  0  0  0
  3  7  1  0  0  0  0
  4 20  1  6  0  0  0
  4 14  1  0  0  0  0
  4 16  1  0  0  0  0
  5 17  1  0  0  0  0
  5 10  1  6  0  0  0
  7  6  1  0  0  0  0
  8 11  1  0  0  0  0
  8 15  1  0  0  0  0
  9 12  1  0  0  0  0
  9 21  1  1  0  0  0
 12 24  1  6  0  0  0
 13 21  1  0  0  0  0
 14 11  1  1  0  0  0
 14  5  1  0  0  0  0
 16 18  1  0  0  0  0
 17  6  1  0  0  0  0
 18 10  1  0  0  0  0
 18 12  1  0  0  0  0
 19 20  1  0  0  0  0
 19 22  1  0  0  0  0
 23  9  1  0  0  0  0
 25 24  1  0  0  0  0
 26 25  1  0  0  0  0
 27 26  1  0  0  0  0
 28 27  1  0  0  0  0
 29 28  1  0  0  0  0
 30 33  1  0  0  0  0
 30 34  1  0  0  0  0
 31 32  1  0  0  0  0
 32 29  1  0  0  0  0
 33 31  1  0  0  0  0
 34 32  1  0  0  0  0
M  END
>  <MODEL>
5

>  <REMARK>
 VINA RESULT:      -7.7      2.415      6.541
  Name = 
  7 active torsions:
  status: ('A' for Active; 'I' for Inactive)
    1  A    between atoms: C_10  and  C_17
    2  A    between atoms: C_10  and  C_22
    3  A    between atoms: C_13  and  C_24
    4  A    between atoms: C_17  and  C_28
    5  A    between atoms: C_22  and  C_24
    6  A    between atoms: C_28  and  C_29
    7  A    between atoms: C_29  and  C_32
                            x       y       z     vdW  Elec       q    Type
                         _______ _______ _______ _____ _____    ______ ____

>  <TORSDO>
F 7

$$$$
=
 OpenBabel11112417583D

 34 40  0  0  1  0  0  0  0  0999 V2000
  192.9890  172.8180  144.5670 C   0  0  1  0  0  3  0  0  0  0  0  0
  195.5190  172.6070  144.9560 C   0  0  0  0  0  2  0  0  0  0  0  0
  188.3700  176.7840  141.7140 C   0  0  2  0  0  3  0  0  0  0  0  0
  190.8240  173.4980  143.3420 C   0  0  1  0  0  3  0  0  0  0  0  0
  190.1940  175.9230  143.0690 C   0  0  1  0  0  3  0  0  0  0  0  0
  189.2940  178.3680  142.7910 C   0  0  0  0  0  2  0  0  0  0  0  0
  188.3840  178.2880  141.5700 C   0  0  0  0  0  2  0  0  0  0  0  0
  187.2180  174.6890  142.5110 C   0  0  0  0  0  2  0  0  0  0  0  0
  194.3680  174.5720  145.5890 C   0  0  2  0  0  3  0  0  0  0  0  0
  191.1830  176.3140  144.1620 C   0  0  0  0  0  2  0  0  0  0  0  0
  188.6000  174.0470  142.2690 C   0  0  0  0  0  2  0  0  0  0  0  0
  193.4620  175.7520  145.2160 C   0  0  1  0  0  3  0  0  0  0  0  0
  196.5470  173.5750  145.5380 C   0  0  0  0  0  2  0  0  0  0  0  0
  189.6510  174.4870  143.3170 C   0  0  1  0  0  3  0  0  0  0  0  0
  187.0340  176.0790  141.8630 C   0  0  0  0  0  2  0  0  0  0  0  0
  191.8410  173.8740  144.4340 C   0  0  2  0  0  3  0  0  0  0  0  0
  189.0280  176.8960  143.0610 C   0  0  1  0  0  3  0  0  0  0  0  0
  192.3480  175.3230  144.2210 C   0  0  1  0  0  3  0  0  0  0  0  0
  191.5270  171.0550  143.5120 C   0  0  0  0  0  2  0  0  0  0  0  0
  190.3620  172.0550  143.5640 C   0  0  0  0  0  2  0  0  0  0  0  0
  195.8290  174.9030  145.7650 C   0  0  0  0  0  2  0  0  0  0  0  0
  192.9070  171.7190  143.5030 C   0  0  0  0  0  2  0  0  0  0  0  0
  194.3590  173.4870  144.5510 C   0  0  2  0  0  3  0  0  0  0  0  0
  192.8850  176.3520  146.5010 C   0  0  0  0  0  2  0  0  0  0  0  0
  192.2180  175.2880  147.3590 C   0  0  0  0  0  2  0  0  0  0  0  0
  190.8160  175.7220  147.7420 C   0  0  0  0  0  2  0  0  0  0  0  0
  189.8090  174.8070  147.0800 C   0  0  0  0  0  2  0  0  0  0  0  0
  188.4110  175.3510  147.2990 C   0  0  0  0  0  2  0  0  0  0  0  0
  188.0830  176.4160  146.2650 C   0  0  0  0  0  2  0  0  0  0  0  0
  185.7920  178.4980  147.4790 C   0  0  0  0  0  2  0  0  0  0  0  0
  186.3280  177.9640  145.4170 C   0  0  0  0  0  2  0  0  0  0  0  0
  186.6070  176.7910  146.3080 C   0  0  2  0  0  3  0  0  0  0  0  0
  185.4980  178.8050  146.1440 O   0  0  0  0  0  0  0  0  0  0  0  0
  186.2550  177.1760  147.5990 O   0  0  0  0  0  0  0  0  0  0  0  0
  1 22  1  6  0  0  0
  2 13  1  0  0  0  0
  3  7  1  1  0  0  0
  3 15  1  0  0  0  0
  3 17  1  0  0  0  0
  4 20  1  1  0  0  0
  4 16  1  0  0  0  0
  5 14  1  0  0  0  0
  5 10  1  1  0  0  0
  6 17  1  0  0  0  0
  7  6  1  0  0  0  0
  9 21  1  6  0  0  0
 10 18  1  0  0  0  0
 11  8  1  0  0  0  0
 12  9  1  0  0  0  0
 12 24  1  1  0  0  0
 13 21  1  0  0  0  0
 14 11  1  6  0  0  0
 14  4  1  0  0  0  0
 15  8  1  0  0  0  0
 16  1  1  0  0  0  0
 17  5  1  0  0  0  0
 18 16  1  0  0  0  0
 18 12  1  0  0  0  0
 19 20  1  0  0  0  0
 22 19  1  0  0  0  0
 23  1  1  0  0  0  0
 23  2  1  0  0  0  0
 23  9  1  0  0  0  0
 24 25  1  0  0  0  0
 25 26  1  0  0  0  0
 27 28  1  0  0  0  0
 27 26  1  0  0  0  0
 29 32  1  0  0  0  0
 29 28  1  0  0  0  0
 30 34  1  0  0  0  0
 31 33  1  0  0  0  0
 31 32  1  0  0  0  0
 32 34  1  0  0  0  0
 33 30  1  0  0  0  0
M  END
>  <MODEL>
6

>  <REMARK>
 VINA RESULT:      -7.5      2.688      7.641
  Name = 
  7 active torsions:
  status: ('A' for Active; 'I' for Inactive)
    1  A    between atoms: C_10  and  C_17
    2  A    between atoms: C_10  and  C_22
    3  A    between atoms: C_13  and  C_24
    4  A    between atoms: C_17  and  C_28
    5  A    between atoms: C_22  and  C_24
    6  A    between atoms: C_28  and  C_29
    7  A    between atoms: C_29  and  C_32
                            x       y       z     vdW  Elec       q    Type
                         _______ _______ _______ _____ _____    ______ ____

>  <TORSDO>
F 7

$$$$
=
 OpenBabel11112417583D

 34 40  0  0  1  0  0  0  0  0999 V2000
  187.6710  176.6260  145.5520 C   0  0  1  0  0  3  0  0  0  0  0  0
  185.8120  178.3860  145.3380 C   0  0  0  0  0  2  0  0  0  0  0  0
  194.2750  175.7440  144.6520 C   0  0  2  0  0  3  0  0  0  0  0  0
  190.0560  175.7270  145.9440 C   0  0  1  0  0  3  0  0  0  0  0  0
  191.9180  176.2410  144.3270 C   0  0  1  0  0  3  0  0  0  0  0  0
  193.9570  176.5480  142.7090 C   0  0  0  0  0  2  0  0  0  0  0  0
  195.1730  176.3730  143.6130 C   0  0  0  0  0  2  0  0  0  0  0  0
  193.3530  173.6760  145.7600 C   0  0  0  0  0  2  0  0  0  0  0  0
  187.2060  177.8830  143.4960 C   0  0  2  0  0  3  0  0  0  0  0  0
  190.9010  176.6540  143.2680 C   0  0  0  0  0  2  0  0  0  0  0  0
  192.3160  174.6620  146.3390 C   0  0  0  0  0  2  0  0  0  0  0  0
  188.6120  177.7680  142.8940 C   0  0  1  0  0  3  0  0  0  0  0  0
  185.3850  179.2840  144.1790 C   0  0  0  0  0  2  0  0  0  0  0  0
  191.3140  175.1640  145.2700 C   0  0  1  0  0  3  0  0  0  0  0  0
  194.6020  174.3470  145.1470 C   0  0  0  0  0  2  0  0  0  0  0  0
  189.0130  176.1580  144.8970 C   0  0  2  0  0  3  0  0  0  0  0  0
  193.1540  175.6690  143.6530 C   0  0  1  0  0  3  0  0  0  0  0  0
  189.6260  177.1940  143.9220 C   0  0  1  0  0  3  0  0  0  0  0  0
  188.1990  175.3150  147.6400 C   0  0  0  0  0  2  0  0  0  0  0  0
  189.4130  174.7250  146.9070 C   0  0  0  0  0  2  0  0  0  0  0  0
  186.4090  179.0890  143.0630 C   0  0  0  0  0  2  0  0  0  0  0  0
  187.7410  176.6660  147.0810 C   0  0  0  0  0  2  0  0  0  0  0  0
  187.2260  177.9740  144.9940 C   0  0  2  0  0  3  0  0  0  0  0  0
  188.5330  176.9140  141.6260 C   0  0  0  0  0  2  0  0  0  0  0  0
  187.2950  176.0320  141.6260 C   0  0  0  0  0  2  0  0  0  0  0  0
  187.6570  174.6120  142.0150 C   0  0  0  0  0  2  0  0  0  0  0  0
  189.0170  174.2670  141.4490 C   0  0  0  0  0  2  0  0  0  0  0  0
  189.7250  173.3070  142.3850 C   0  0  0  0  0  2  0  0  0  0  0  0
  191.1870  173.1590  141.9950 C   0  0  0  0  0  2  0  0  0  0  0  0
  192.3830  170.0780  142.3620 C   0  0  0  0  0  2  0  0  0  0  0  0
  190.4090  170.8080  141.7340 C   0  0  0  0  0  2  0  0  0  0  0  0
  191.4470  171.8130  141.3310 C   0  0  2  0  0  3  0  0  0  0  0  0
  191.1000  169.6370  142.0110 O   0  0  0  0  0  0  0  0  0  0  0  0
  192.6760  171.3090  141.7500 O   0  0  0  0  0  0  0  0  0  0  0  0
  1 22  1  1  0  0  0
  3  7  1  6  0  0  0
  3 15  1  0  0  0  0
  4 20  1  1  0  0  0
  5 10  1  6  0  0  0
  5 14  1  0  0  0  0
  6  7  1  0  0  0  0
  6 17  1  0  0  0  0
  8 11  1  0  0  0  0
  9 21  1  6  0  0  0
  9 23  1  0  0  0  0
 10 18  1  0  0  0  0
 12 24  1  6  0  0  0
 12  9  1  0  0  0  0
 12 18  1  0  0  0  0
 13  2  1  0  0  0  0
 14  4  1  0  0  0  0
 14 11  1  1  0  0  0
 15  8  1  0  0  0  0
 16  1  1  0  0  0  0
 16  4  1  0  0  0  0
 17  5  1  0  0  0  0
 17  3  1  0  0  0  0
 18 16  1  0  0  0  0
 20 19  1  0  0  0  0
 21 13  1  0  0  0  0
 22 19  1  0  0  0  0
 23  2  1  0  0  0  0
 23  1  1  0  0  0  0
 24 25  1  0  0  0  0
 25 26  1  0  0  0  0
 27 26  1  0  0  0  0
 27 28  1  0  0  0  0
 29 28  1  0  0  0  0
 31 33  1  0  0  0  0
 32 31  1  0  0  0  0
 32 34  1  0  0  0  0
 32 29  1  0  0  0  0
 33 30  1  0  0  0  0
 34 30  1  0  0  0  0
M  END
>  <MODEL>
7

>  <REMARK>
 VINA RESULT:      -7.5      1.630      2.356
  Name = 
  7 active torsions:
  status: ('A' for Active; 'I' for Inactive)
    1  A    between atoms: C_10  and  C_17
    2  A    between atoms: C_10  and  C_22
    3  A    between atoms: C_13  and  C_24
    4  A    between atoms: C_17  and  C_28
    5  A    between atoms: C_22  and  C_24
    6  A    between atoms: C_28  and  C_29
    7  A    between atoms: C_29  and  C_32
                            x       y       z     vdW  Elec       q    Type
                         _______ _______ _______ _____ _____    ______ ____

>  <TORSDO>
F 7

$$$$
=
 OpenBabel11112417583D

 34 40  0  0  1  0  0  0  0  0999 V2000
  186.3200  177.0490  144.3260 C   0  0  1  0  0  3  0  0  0  0  0  0
  184.6730  178.1890  142.7170 C   0  0  0  0  0  2  0  0  0  0  0  0
  192.8600  176.6610  145.8330 C   0  0  2  0  0  3  0  0  0  0  0  0
  188.4500  176.7940  145.7560 C   0  0  1  0  0  3  0  0  0  0  0  0
  190.7210  176.6160  144.6790 C   0  0  1  0  0  3  0  0  0  0  0  0
  193.1530  176.2840  143.7610 C   0  0  0  0  0  2  0  0  0  0  0  0
  194.0460  176.7610  144.9020 C   0  0  0  0  0  2  0  0  0  0  0  0
  191.5760  175.3810  147.5840 C   0  0  0  0  0  2  0  0  0  0  0  0
  186.5220  176.9770  141.8810 C   0  0  2  0  0  3  0  0  0  0  0  0
  190.0730  176.2830  143.3400 C   0  0  0  0  0  2  0  0  0  0  0  0
  190.4550  176.3850  147.2440 C   0  0  0  0  0  2  0  0  0  0  0  0
  188.0370  176.7410  141.8340 C   0  0  1  0  0  3  0  0  0  0  0  0
  184.6380  178.2870  141.1930 C   0  0  0  0  0  2  0  0  0  0  0  0
  189.8270  176.1250  145.8520 C   0  0  1  0  0  3  0  0  0  0  0  0
  192.9750  175.7820  147.0650 C   0  0  0  0  0  2  0  0  0  0  0  0
  187.7750  176.4800  144.4080 C   0  0  2  0  0  3  0  0  0  0  0  0
  192.0760  175.9350  144.7750 C   0  0  1  0  0  3  0  0  0  0  0  0
  188.6850  176.9210  143.2350 C   0  0  1  0  0  3  0  0  0  0  0  0
  186.1650  177.1010  146.8420 C   0  0  0  0  0  2  0  0  0  0  0  0
  187.5170  176.3720  146.8940 C   0  0  0  0  0  2  0  0  0  0  0  0
  185.9340  177.6680  140.6760 C   0  0  0  0  0  2  0  0  0  0  0  0
  185.9430  177.8910  145.5480 C   0  0  0  0  0  2  0  0  0  0  0  0
  186.1080  177.8390  143.0380 C   0  0  2  0  0  3  0  0  0  0  0  0
  188.2980  175.3480  141.2550 C   0  0  0  0  0  2  0  0  0  0  0  0
  187.4110  174.3000  141.9080 C   0  0  0  0  0  2  0  0  0  0  0  0
  188.1240  172.9620  141.9580 C   0  0  0  0  0  2  0  0  0  0  0  0
  189.1960  173.0040  143.0250 C   0  0  0  0  0  2  0  0  0  0  0  0
  190.5170  172.5560  142.4310 C   0  0  0  0  0  2  0  0  0  0  0  0
  190.3180  172.0290  141.0190 C   0  0  0  0  0  2  0  0  0  0  0  0
  193.0400  170.2070  140.4470 C   0  0  0  0  0  2  0  0  0  0  0  0
  191.6110  170.2050  142.1150 C   0  0  0  0  0  2  0  0  0  0  0  0
  190.8960  170.6280  140.8660 C   0  0  2  0  0  3  0  0  0  0  0  0
  192.7960  169.6180  141.6950 O   0  0  0  0  0  0  0  0  0  0  0  0
  191.8390  170.6150  139.8410 O   0  0  0  0  0  0  0  0  0  0  0  0
  1 16  1  0  0  0  0
  1 22  1  1  0  0  0
  2 23  1  0  0  0  0
  3  7  1  6  0  0  0
  3 15  1  0  0  0  0
  4 14  1  0  0  0  0
  4 20  1  1  0  0  0
  5 10  1  6  0  0  0
  5 17  1  0  0  0  0
  5 14  1  0  0  0  0
  6 17  1  0  0  0  0
  6  7  1  0  0  0  0
  9 21  1  6  0  0  0
  9 23  1  0  0  0  0
 11  8  1  0  0  0  0
 12 24  1  1  0  0  0
 12  9  1  0  0  0  0
 12 18  1  0  0  0  0
 13  2  1  0  0  0  0
 14 11  1  1  0  0  0
 15  8  1  0  0  0  0
 16  4  1  0  0  0  0
 17  3  1  0  0  0  0
 18 10  1  0  0  0  0
 18 16  1  0  0  0  0
 19 20  1  0  0  0  0
 21 13  1  0  0  0  0
 22 19  1  0  0  0  0
 23  1  1  0  0  0  0
 24 25  1  0  0  0  0
 25 26  1  0  0  0  0
 26 27  1  0  0  0  0
 28 27  1  0  0  0  0
 29 28  1  0  0  0  0
 30 33  1  0  0  0  0
 32 29  1  0  0  0  0
 32 31  1  0  0  0  0
 33 31  1  0  0  0  0
 34 30  1  0  0  0  0
 34 32  1  0  0  0  0
M  END
>  <MODEL>
8

>  <REMARK>
 VINA RESULT:      -7.4      1.352      1.693
  Name = 
  7 active torsions:
  status: ('A' for Active; 'I' for Inactive)
    1  A    between atoms: C_10  and  C_17
    2  A    between atoms: C_10  and  C_22
    3  A    between atoms: C_13  and  C_24
    4  A    between atoms: C_17  and  C_28
    5  A    between atoms: C_22  and  C_24
    6  A    between atoms: C_28  and  C_29
    7  A    between atoms: C_29  and  C_32
                            x       y       z     vdW  Elec       q    Type
                         _______ _______ _______ _____ _____    ______ ____

>  <TORSDO>
F 7

$$$$
=
 OpenBabel11112417583D

 34 40  0  0  1  0  0  0  0  0999 V2000
  189.9420  173.9670  144.0960 C   0  0  1  0  0  3  0  0  0  0  0  0
  190.3010  175.8180  145.8400 C   0  0  0  0  0  2  0  0  0  0  0  0
  189.8710  172.8620  137.4650 C   0  0  2  0  0  3  0  0  0  0  0  0
  190.2460  172.7210  141.8590 C   0  0  1  0  0  3  0  0  0  0  0  0
  189.4330  173.7230  139.6950 C   0  0  1  0  0  3  0  0  0  0  0  0
  188.5490  174.5240  137.3620 C   0  0  0  0  0  2  0  0  0  0  0  0
  189.4440  173.8010  136.3610 C   0  0  0  0  0  2  0  0  0  0  0  0
  189.6500  170.6380  138.6310 C   0  0  0  0  0  2  0  0  0  0  0  0
  188.7190  176.0940  144.1060 C   0  0  2  0  0  3  0  0  0  0  0  0
  188.5550  174.7040  140.4660 C   0  0  0  0  0  2  0  0  0  0  0  0
  190.4490  171.3430  139.7480 C   0  0  0  0  0  2  0  0  0  0  0  0
  188.3880  176.1180  142.6090 C   0  0  1  0  0  3  0  0  0  0  0  0
  189.6760  177.2020  146.0040 C   0  0  0  0  0  2  0  0  0  0  0  0
  189.6100  172.4040  140.4990 C   0  0  1  0  0  3  0  0  0  0  0  0
  189.6670  171.3700  137.2710 C   0  0  0  0  0  2  0  0  0  0  0  0
  189.3830  173.7150  142.6560 C   0  0  2  0  0  3  0  0  0  0  0  0
  188.7880  173.4010  138.3580 C   0  0  1  0  0  3  0  0  0  0  0  0
  189.1600  175.0120  141.8380 C   0  0  1  0  0  3  0  0  0  0  0  0
  191.1770  171.7690  144.0320 C   0  0  0  0  0  2  0  0  0  0  0  0
  190.4690  171.4630  142.7040 C   0  0  0  0  0  2  0  0  0  0  0  0
  188.8020  177.4440  144.7760 C   0  0  0  0  0  2  0  0  0  0  0  0
  191.2810  173.2660  144.3410 C   0  0  0  0  0  2  0  0  0  0  0  0
  190.0480  175.4590  144.3940 C   0  0  2  0  0  3  0  0  0  0  0  0
  186.8730  175.9850  142.4390 C   0  0  0  0  0  2  0  0  0  0  0  0
  186.2980  177.1500  141.6500 C   0  0  0  0  0  2  0  0  0  0  0  0
  185.1790  177.8140  142.4290 C   0  0  0  0  0  2  0  0  0  0  0  0
  185.6530  179.1550  142.9460 C   0  0  0  0  0  2  0  0  0  0  0  0
  185.6500  179.1420  144.4620 C   0  0  0  0  0  2  0  0  0  0  0  0
  184.5330  178.2540  144.9870 C   0  0  0  0  0  2  0  0  0  0  0  0
  186.2640  176.9480  147.5080 C   0  0  0  0  0  2  0  0  0  0  0  0
  185.6500  179.0120  147.0790 C   0  0  0  0  0  2  0  0  0  0  0  0
  184.6340  178.0750  146.4960 C   0  0  2  0  0  3  0  0  0  0  0  0
  186.3880  178.2600  147.9820 O   0  0  0  0  0  0  0  0  0  0  0  0
  185.0660  176.7840  146.7920 O   0  0  0  0  0  0  0  0  0  0  0  0
  1 22  1  6  0  0  0
  1 23  1  0  0  0  0
  2 13  1  0  0  0  0
  3  7  1  6  0  0  0
  3 17  1  0  0  0  0
  4 16  1  0  0  0  0
  4 20  1  1  0  0  0
  5 10  1  1  0  0  0
  5 14  1  0  0  0  0
  6 17  1  0  0  0  0
  7  6  1  0  0  0  0
  8 11  1  0  0  0  0
  9 23  1  0  0  0  0
  9 21  1  6  0  0  0
 10 18  1  0  0  0  0
 12 24  1  1  0  0  0
 12  9  1  0  0  0  0
 14 11  1  6  0  0  0
 14  4  1  0  0  0  0
 15  3  1  0  0  0  0
 15  8  1  0  0  0  0
 16  1  1  0  0  0  0
 17  5  1  0  0  0  0
 18 12  1  0  0  0  0
 18 16  1  0  0  0  0
 19 22  1  0  0  0  0
 20 19  1  0  0  0  0
 21 13  1  0  0  0  0
 23  2  1  0  0  0  0
 25 26  1  0  0  0  0
 25 24  1  0  0  0  0
 26 27  1  0  0  0  0
 27 28  1  0  0  0  0
 28 29  1  0  0  0  0
 29 32  1  0  0  0  0
 30 33  1  0  0  0  0
 31 33  1  0  0  0  0
 32 34  1  0  0  0  0
 32 31  1  0  0  0  0
 34 30  1  0  0  0  0
M  END
>  <MODEL>
9

>  <REMARK>
 VINA RESULT:      -7.2      3.195      7.413
  Name = 
  7 active torsions:
  status: ('A' for Active; 'I' for Inactive)
    1  A    between atoms: C_10  and  C_17
    2  A    between atoms: C_10  and  C_22
    3  A    between atoms: C_13  and  C_24
    4  A    between atoms: C_17  and  C_28
    5  A    between atoms: C_22  and  C_24
    6  A    between atoms: C_28  and  C_29
    7  A    between atoms: C_29  and  C_32
                            x       y       z     vdW  Elec       q    Type
                         _______ _______ _______ _____ _____    ______ ____

>  <TORSDO>
F 7

$$$$
