=
 OpenBabel11112417233D

 37 42  0  0  1  0  0  0  0  0999 V2000
  190.6750  171.7600  141.8600 C   0  0  0  0  0  0  0  0  0  0  0  0
  188.4230  175.2420  142.0200 C   0  0  0  0  0  0  0  0  0  0  0  0
  189.6620  177.9420  143.6580 C   0  0  0  0  0  2  0  0  0  0  0  0
  188.9920  173.2870  140.7320 C   0  0  0  0  0  0  0  0  0  0  0  0
  188.6310  175.6580  143.3250 C   0  0  0  0  0  0  0  0  0  0  0  0
  188.9520  173.9940  141.9180 C   0  0  0  0  0  0  0  0  0  0  0  0
  188.4370  177.0530  143.8630 C   0  0  2  0  0  3  0  0  0  0  0  0
  188.4170  173.8820  139.5950 C   0  0  0  0  0  3  0  0  0  0  0  0
  189.5220  173.6020  143.0570 N   0  0  0  0  0  0  0  0  0  0  0  0
  191.9530  172.4750  141.4580 C   0  0  0  0  0  1  0  0  0  0  0  0
  187.2790  177.2530  141.0210 C   0  0  0  0  0  2  0  0  0  0  0  0
  187.8510  175.1800  139.6880 C   0  0  0  0  0  3  0  0  0  0  0  0
  190.1900  172.3120  143.2240 C   0  0  0  0  0  2  0  0  0  0  0  0
  191.0080  176.9310  145.5900 C   0  0  1  0  0  3  0  0  0  0  0  0
  190.9630  177.2620  144.0930 C   0  0  0  0  0  2  0  0  0  0  0  0
  187.8550  175.8790  140.9160 C   0  0  0  0  0  0  0  0  0  0  0  0
  189.3510  174.6150  143.9410 C   0  0  0  0  0  0  0  0  0  0  0  0
  189.6170  171.9180  140.7370 C   0  0  0  0  0  2  0  0  0  0  0  0
  187.1300  177.7860  143.5050 C   0  0  1  0  0  3  0  0  0  0  0  0
  190.9880  170.2870  142.0220 C   0  0  0  0  0  1  0  0  0  0  0  0
  189.9330  175.9360  146.0610 C   0  0  0  0  0  2  0  0  0  0  0  0
  189.9440  174.5900  145.3280 C   0  0  0  0  0  2  0  0  0  0  0  0
  186.3770  177.3400  142.2450 C   0  0  0  0  0  2  0  0  0  0  0  0
  185.1380  178.5980  144.6680 C   0  0  0  0  0  3  0  0  0  0  0  0
  186.2110  177.8000  144.6820 C   0  0  0  0  0  0  0  0  0  0  0  0
  186.5070  176.9810  145.8790 C   0  0  0  0  0  3  0  0  0  0  0  0
  186.1230  176.4290  148.1080 F   0  0  0  0  0  0  0  0  0  0  0  0
  184.8880  178.3440  147.1440 C   0  0  0  0  0  2  0  0  0  0  0  0
  185.8500  177.1940  147.0240 C   0  0  0  0  0  0  0  0  0  0  0  0
  184.1630  178.5870  145.8150 C   0  0  0  0  0  2  0  0  0  0  0  0
  192.3740  176.4870  146.0000 C   0  0  0  0  0  0  0  0  0  0  0  0
  193.3590  176.2460  144.9930 N   0  0  0  0  0  2  0  0  0  0  0  0
  192.6580  176.3420  147.2200 O   0  0  0  0  0  0  0  0  0  0  0  0
  195.6920  176.3950  144.2650 C   0  0  0  0  0  1  0  0  0  0  0  0
  194.7270  175.8540  145.3070 C   0  0  2  0  0  3  0  0  0  0  0  0
  196.5330  173.7900  145.8080 S   0  0  0  0  0  1  0  0  0  0  0  0
  194.8370  174.3360  145.4170 C   0  0  0  0  0  2  0  0  0  0  0  0
  1 20  1  0  0  0  0
  1 13  1  0  0  0  0
  2  5  1  0  0  0  0
  3 15  1  0  0  0  0
  4 18  1  0  0  0  0
  4  6  2  0  0  0  0
  5  7  1  0  0  0  0
  5 17  2  0  0  0  0
  6  2  1  0  0  0  0
  6  9  1  0  0  0  0
  7  3  1  6  0  0  0
  8 12  2  0  0  0  0
  8  4  1  0  0  0  0
  9 13  1  0  0  0  0
  9 17  1  0  0  0  0
 10  1  1  0  0  0  0
 11 23  1  0  0  0  0
 12 16  1  0  0  0  0
 14 31  1  6  0  0  0
 14 21  1  0  0  0  0
 15 14  1  0  0  0  0
 16 11  1  0  0  0  0
 16  2  2  0  0  0  0
 17 22  1  0  0  0  0
 18  1  1  0  0  0  0
 19  7  1  0  0  0  0
 19 25  1  1  0  0  0
 22 21  1  0  0  0  0
 23 19  1  0  0  0  0
 24 25  2  0  0  0  0
 24 30  1  0  0  0  0
 25 26  1  0  0  0  0
 26 29  2  0  0  0  0
 29 28  1  0  0  0  0
 29 27  1  0  0  0  0
 30 28  1  0  0  0  0
 31 33  2  0  0  0  0
 32 35  1  0  0  0  0
 32 31  1  0  0  0  0
 35 34  1  6  0  0  0
 35 37  1  0  0  0  0
 37 36  1  0  0  0  0
M  END
>  <MODEL>
1

>  <REMARK>
 VINA RESULT:      -9.6      0.000      0.000
  Name = 
  4 active torsions:
  status: ('A' for Active; 'I' for Inactive)
    1  A    between atoms: C_4  and  N_12
    2  A    between atoms: C_4  and  C_37
    3  A    between atoms: C_8  and  C_18
    4  A    between atoms: C_23  and  C_30
                            x       y       z     vdW  Elec       q    Type
                         _______ _______ _______ _____ _____    ______ ____

>  <TORSDO>
F 4

$$$$
=
 OpenBabel11112417233D

 37 42  0  0  1  0  0  0  0  0999 V2000
  195.0970  175.7780  142.6780 C   0  0  0  0  0  0  0  0  0  0  0  0
  191.9860  176.1010  145.4060 C   0  0  0  0  0  0  0  0  0  0  0  0
  189.6160  173.6750  145.5110 C   0  0  0  0  0  2  0  0  0  0  0  0
  194.3060  176.5710  144.9540 C   0  0  0  0  0  0  0  0  0  0  0  0
  190.9020  175.6780  144.6560 C   0  0  0  0  0  0  0  0  0  0  0  0
  193.0310  176.2310  144.5460 C   0  0  0  0  0  0  0  0  0  0  0  0
  189.5860  175.1690  145.1880 C   0  0  2  0  0  3  0  0  0  0  0  0
  194.5070  176.8320  146.3210 C   0  0  0  0  0  3  0  0  0  0  0  0
  192.6980  175.8790  143.3040 N   0  0  0  0  0  0  0  0  0  0  0  0
  195.3910  174.3280  143.0200 C   0  0  0  0  0  1  0  0  0  0  0  0
  190.9990  176.1870  147.7230 C   0  0  0  0  0  2  0  0  0  0  0  0
  193.4240  176.7110  147.2300 C   0  0  0  0  0  3  0  0  0  0  0  0
  193.6340  175.8980  142.1810 C   0  0  0  0  0  2  0  0  0  0  0  0
  189.4080  172.9080  143.0750 C   0  0  1  0  0  3  0  0  0  0  0  0
  190.2160  172.8400  144.3760 C   0  0  0  0  0  2  0  0  0  0  0  0
  192.1420  176.3350  146.7730 C   0  0  0  0  0  0  0  0  0  0  0  0
  191.3920  175.5190  143.3430 C   0  0  0  0  0  0  0  0  0  0  0  0
  195.3870  176.6700  143.9120 C   0  0  0  0  0  2  0  0  0  0  0  0
  188.8980  175.9820  146.3010 C   0  0  1  0  0  3  0  0  0  0  0  0
  196.0210  176.1960  141.5540 C   0  0  0  0  0  1  0  0  0  0  0  0
  189.3150  174.3100  142.4480 C   0  0  0  0  0  2  0  0  0  0  0  0
  190.6670  174.9630  142.1420 C   0  0  0  0  0  2  0  0  0  0  0  0
  189.7730  176.8980  147.1680 C   0  0  0  0  0  2  0  0  0  0  0  0
  187.9390  177.5570  144.6950 C   0  0  0  0  0  3  0  0  0  0  0  0
  187.7440  176.7450  145.7390 C   0  0  0  0  0  0  0  0  0  0  0  0
  186.4030  176.6490  146.3600 C   0  0  0  0  0  3  0  0  0  0  0  0
  184.2200  177.4180  146.6080 F   0  0  0  0  0  0  0  0  0  0  0  0
  185.7520  178.6880  145.1360 C   0  0  0  0  0  2  0  0  0  0  0  0
  185.4460  177.5250  146.0410 C   0  0  0  0  0  0  0  0  0  0  0  0
  186.7830  178.2920  144.0720 C   0  0  0  0  0  2  0  0  0  0  0  0
  189.9000  171.9030  142.0860 C   0  0  0  0  0  0  0  0  0  0  0  0
  189.7850  172.1860  140.6900 N   0  0  0  0  0  2  0  0  0  0  0  0
  190.4240  170.8250  142.4780 O   0  0  0  0  0  0  0  0  0  0  0  0
  191.7440  171.5570  139.3620 C   0  0  0  0  0  1  0  0  0  0  0  0
  190.2780  171.2820  139.6590 C   0  0  2  0  0  3  0  0  0  0  0  0
  188.6040  173.0180  138.2620 S   0  0  0  0  0  1  0  0  0  0  0  0
  189.4330  171.3990  138.3950 C   0  0  0  0  0  2  0  0  0  0  0  0
  1 10  1  0  0  0  0
  1 18  1  0  0  0  0
  2 16  1  0  0  0  0
  4  8  2  0  0  0  0
  5  7  1  0  0  0  0
  5  2  1  0  0  0  0
  6  4  1  0  0  0  0
  6  2  2  0  0  0  0
  7  3  1  1  0  0  0
  7 19  1  0  0  0  0
  8 12  1  0  0  0  0
  9 17  1  0  0  0  0
  9  6  1  0  0  0  0
 13  1  1  0  0  0  0
 13  9  1  0  0  0  0
 14 31  1  6  0  0  0
 14 15  1  0  0  0  0
 15  3  1  0  0  0  0
 16 12  2  0  0  0  0
 16 11  1  0  0  0  0
 17  5  2  0  0  0  0
 18  4  1  0  0  0  0
 19 25  1  6  0  0  0
 19 23  1  0  0  0  0
 20  1  1  0  0  0  0
 21 14  1  0  0  0  0
 22 21  1  0  0  0  0
 22 17  1  0  0  0  0
 23 11  1  0  0  0  0
 24 25  2  0  0  0  0
 25 26  1  0  0  0  0
 28 29  1  0  0  0  0
 29 26  2  0  0  0  0
 29 27  1  0  0  0  0
 30 24  1  0  0  0  0
 30 28  1  0  0  0  0
 31 33  2  0  0  0  0
 32 31  1  0  0  0  0
 35 34  1  6  0  0  0
 35 32  1  0  0  0  0
 36 37  1  0  0  0  0
 37 35  1  0  0  0  0
M  END
>  <MODEL>
2

>  <REMARK>
 VINA RESULT:      -9.5      2.793      5.966
  Name = 
  4 active torsions:
  status: ('A' for Active; 'I' for Inactive)
    1  A    between atoms: C_4  and  N_12
    2  A    between atoms: C_4  and  C_37
    3  A    between atoms: C_8  and  C_18
    4  A    between atoms: C_23  and  C_30
                            x       y       z     vdW  Elec       q    Type
                         _______ _______ _______ _____ _____    ______ ____

>  <TORSDO>
F 4

$$$$
=
 OpenBabel11112417233D

 37 42  0  0  1  0  0  0  0  0999 V2000
  195.2170  175.8650  142.7540 C   0  0  0  0  0  0  0  0  0  0  0  0
  192.0410  176.1220  145.4140 C   0  0  0  0  0  0  0  0  0  0  0  0
  189.7050  173.6620  145.4480 C   0  0  0  0  0  2  0  0  0  0  0  0
  194.3640  176.6290  145.0180 C   0  0  0  0  0  0  0  0  0  0  0  0
  190.9800  175.6890  144.6370 C   0  0  0  0  0  0  0  0  0  0  0  0
  193.1030  176.2740  144.5780 C   0  0  0  0  0  0  0  0  0  0  0  0
  189.6610  175.1570  145.1350 C   0  0  2  0  0  3  0  0  0  0  0  0
  194.5310  176.8820  146.3910 C   0  0  0  0  0  3  0  0  0  0  0  0
  192.8030  175.9260  143.3270 N   0  0  0  0  0  0  0  0  0  0  0  0
  195.5240  174.4160  143.0920 C   0  0  0  0  0  1  0  0  0  0  0  0
  191.0020  176.1760  147.7090 C   0  0  0  0  0  2  0  0  0  0  0  0
  193.4300  176.7390  147.2750 C   0  0  0  0  0  3  0  0  0  0  0  0
  193.7640  175.9670  142.2250 C   0  0  0  0  0  2  0  0  0  0  0  0
  189.5620  172.9100  143.0030 C   0  0  1  0  0  3  0  0  0  0  0  0
  190.3430  172.8440  144.3210 C   0  0  0  0  0  2  0  0  0  0  0  0
  192.1630  176.3480  146.7860 C   0  0  0  0  0  0  0  0  0  0  0  0
  191.5020  175.5470  143.3340 C   0  0  0  0  0  0  0  0  0  0  0  0
  195.4660  176.7510  144.0020 C   0  0  0  0  0  2  0  0  0  0  0  0
  188.9360  175.9520  146.2380 C   0  0  1  0  0  3  0  0  0  0  0  0
  196.1600  176.3040  141.6550 C   0  0  0  0  0  1  0  0  0  0  0  0
  189.4630  174.3150  142.3840 C   0  0  0  0  0  2  0  0  0  0  0  0
  190.8130  174.9900  142.1140 C   0  0  0  0  0  2  0  0  0  0  0  0
  189.7780  176.8740  147.1320 C   0  0  0  0  0  2  0  0  0  0  0  0
  187.9750  177.4620  144.5720 C   0  0  0  0  0  3  0  0  0  0  0  0
  187.7840  176.7020  145.6570 C   0  0  0  0  0  0  0  0  0  0  0  0
  186.4510  176.6540  146.2990 C   0  0  0  0  0  3  0  0  0  0  0  0
  184.2810  177.4620  146.5390 F   0  0  0  0  0  0  0  0  0  0  0  0
  185.8080  178.6400  144.9880 C   0  0  0  0  0  2  0  0  0  0  0  0
  185.5000  177.5260  145.9510 C   0  0  0  0  0  0  0  0  0  0  0  0
  186.8190  178.1810  143.9310 C   0  0  0  0  0  2  0  0  0  0  0  0
  190.0910  171.9200  142.0170 C   0  0  0  0  0  0  0  0  0  0  0  0
  191.0750  170.9740  142.4400 N   0  0  0  0  0  2  0  0  0  0  0  0
  189.6640  171.9100  140.8310 O   0  0  0  0  0  0  0  0  0  0  0  0
  190.7870  168.6730  141.6540 C   0  0  0  0  0  1  0  0  0  0  0  0
  191.6110  169.9470  141.5560 C   0  0  2  0  0  3  0  0  0  0  0  0
  193.7550  170.8660  143.0830 S   0  0  0  0  0  1  0  0  0  0  0  0
  193.0770  169.6750  141.8790 C   0  0  0  0  0  2  0  0  0  0  0  0
  1 10  1  0  0  0  0
  1 18  1  0  0  0  0
  2 16  1  0  0  0  0
  4  8  2  0  0  0  0
  5  7  1  0  0  0  0
  5  2  1  0  0  0  0
  6  4  1  0  0  0  0
  6  2  2  0  0  0  0
  7  3  1  1  0  0  0
  7 19  1  0  0  0  0
  8 12  1  0  0  0  0
  9 17  1  0  0  0  0
  9  6  1  0  0  0  0
 13  1  1  0  0  0  0
 13  9  1  0  0  0  0
 14 31  1  6  0  0  0
 14 15  1  0  0  0  0
 15  3  1  0  0  0  0
 16 12  2  0  0  0  0
 16 11  1  0  0  0  0
 17  5  2  0  0  0  0
 18  4  1  0  0  0  0
 19 25  1  6  0  0  0
 19 23  1  0  0  0  0
 20  1  1  0  0  0  0
 21 14  1  0  0  0  0
 22 21  1  0  0  0  0
 22 17  1  0  0  0  0
 23 11  1  0  0  0  0
 24 25  2  0  0  0  0
 25 26  1  0  0  0  0
 28 29  1  0  0  0  0
 29 26  2  0  0  0  0
 29 27  1  0  0  0  0
 30 24  1  0  0  0  0
 30 28  1  0  0  0  0
 31 32  1  0  0  0  0
 33 31  2  0  0  0  0
 35 34  1  1  0  0  0
 35 37  1  0  0  0  0
 35 32  1  0  0  0  0
 37 36  1  0  0  0  0
M  END
>  <MODEL>
3

>  <REMARK>
 VINA RESULT:      -9.3      2.323      5.709
  Name = 
  4 active torsions:
  status: ('A' for Active; 'I' for Inactive)
    1  A    between atoms: C_4  and  N_12
    2  A    between atoms: C_4  and  C_37
    3  A    between atoms: C_8  and  C_18
    4  A    between atoms: C_23  and  C_30
                            x       y       z     vdW  Elec       q    Type
                         _______ _______ _______ _____ _____    ______ ____

>  <TORSDO>
F 4

$$$$
=
 OpenBabel11112417233D

 37 42  0  0  1  0  0  0  0  0999 V2000
  189.5430  172.7580  139.0660 C   0  0  0  0  0  0  0  0  0  0  0  0
  187.8290  176.0190  140.9780 C   0  0  0  0  0  0  0  0  0  0  0  0
  189.7380  177.9230  143.0370 C   0  0  0  0  0  2  0  0  0  0  0  0
  187.8360  174.6340  139.0060 C   0  0  0  0  0  0  0  0  0  0  0  0
  188.3900  175.9380  142.2420 C   0  0  0  0  0  0  0  0  0  0  0  0
  188.1650  174.8740  140.3260 C   0  0  0  0  0  0  0  0  0  0  0  0
  188.4990  177.0540  143.2490 C   0  0  2  0  0  3  0  0  0  0  0  0
  187.0820  175.6110  138.3320 C   0  0  0  0  0  3  0  0  0  0  0  0
  188.9380  174.0860  141.0730 N   0  0  0  0  0  0  0  0  0  0  0  0
  190.7640  173.5330  138.6040 C   0  0  0  0  0  1  0  0  0  0  0  0
  186.7300  178.2850  141.0550 C   0  0  0  0  0  2  0  0  0  0  0  0
  186.7150  176.8070  139.0020 C   0  0  0  0  0  3  0  0  0  0  0  0
  189.4660  172.8020  140.6130 C   0  0  0  0  0  2  0  0  0  0  0  0
  191.3730  176.2530  144.0860 C   0  0  1  0  0  3  0  0  0  0  0  0
  191.0140  177.0950  142.8570 C   0  0  0  0  0  2  0  0  0  0  0  0
  187.0950  177.0230  140.3450 C   0  0  0  0  0  0  0  0  0  0  0  0
  189.1060  174.7220  142.2580 C   0  0  0  0  0  0  0  0  0  0  0  0
  188.2750  173.3360  138.3860 C   0  0  0  0  0  2  0  0  0  0  0  0
  187.2430  177.9040  143.5180 C   0  0  1  0  0  3  0  0  0  0  0  0
  189.7060  171.3160  138.6350 C   0  0  0  0  0  1  0  0  0  0  0  0
  190.3300  175.1860  144.4630 C   0  0  0  0  0  2  0  0  0  0  0  0
  190.0050  174.1890  143.3450 C   0  0  0  0  0  2  0  0  0  0  0  0
  186.1630  177.9570  142.4290 C   0  0  0  0  0  2  0  0  0  0  0  0
  185.4690  178.0610  145.1950 C   0  0  0  0  0  3  0  0  0  0  0  0
  186.6390  177.5250  144.8300 C   0  0  0  0  0  0  0  0  0  0  0  0
  187.3470  176.6040  145.7480 C   0  0  0  0  0  3  0  0  0  0  0  0
  187.6030  175.6250  147.8440 F   0  0  0  0  0  0  0  0  0  0  0  0
  185.8580  177.3570  147.5630 C   0  0  0  0  0  2  0  0  0  0  0  0
  186.9520  176.4790  147.0190 C   0  0  0  0  0  0  0  0  0  0  0  0
  184.8100  177.6510  146.4840 C   0  0  0  0  0  2  0  0  0  0  0  0
  192.7340  175.6530  143.9450 C   0  0  0  0  0  0  0  0  0  0  0  0
  193.1570  174.6570  144.8790 N   0  0  0  0  0  2  0  0  0  0  0  0
  193.4950  176.0110  143.0050 O   0  0  0  0  0  0  0  0  0  0  0  0
  194.3330  172.5360  145.2160 C   0  0  0  0  0  1  0  0  0  0  0  0
  194.4490  173.9910  144.7890 C   0  0  2  0  0  3  0  0  0  0  0  0
  196.8540  173.6330  146.1520 S   0  0  0  0  0  1  0  0  0  0  0  0
  195.4900  174.7250  145.6280 C   0  0  0  0  0  2  0  0  0  0  0  0
  1 13  1  0  0  0  0
  2  5  1  0  0  0  0
  4  6  1  0  0  0  0
  5 17  2  0  0  0  0
  5  7  1  0  0  0  0
  6  2  2  0  0  0  0
  6  9  1  0  0  0  0
  7  3  1  6  0  0  0
  7 19  1  0  0  0  0
  8 12  1  0  0  0  0
  8  4  2  0  0  0  0
  9 17  1  0  0  0  0
 10  1  1  0  0  0  0
 11 23  1  0  0  0  0
 12 16  2  0  0  0  0
 13  9  1  0  0  0  0
 14 31  1  6  0  0  0
 14 21  1  0  0  0  0
 15  3  1  0  0  0  0
 15 14  1  0  0  0  0
 16  2  1  0  0  0  0
 16 11  1  0  0  0  0
 17 22  1  0  0  0  0
 18  4  1  0  0  0  0
 18  1  1  0  0  0  0
 19 25  1  1  0  0  0
 20  1  1  0  0  0  0
 22 21  1  0  0  0  0
 23 19  1  0  0  0  0
 24 30  1  0  0  0  0
 25 24  2  0  0  0  0
 25 26  1  0  0  0  0
 26 29  2  0  0  0  0
 29 28  1  0  0  0  0
 29 27  1  0  0  0  0
 30 28  1  0  0  0  0
 31 32  1  0  0  0  0
 33 31  2  0  0  0  0
 35 32  1  0  0  0  0
 35 34  1  1  0  0  0
 35 37  1  0  0  0  0
 37 36  1  0  0  0  0
M  END
>  <MODEL>
4

>  <REMARK>
 VINA RESULT:      -8.6      1.542      2.072
  Name = 
  4 active torsions:
  status: ('A' for Active; 'I' for Inactive)
    1  A    between atoms: C_4  and  N_12
    2  A    between atoms: C_4  and  C_37
    3  A    between atoms: C_8  and  C_18
    4  A    between atoms: C_23  and  C_30
                            x       y       z     vdW  Elec       q    Type
                         _______ _______ _______ _____ _____    ______ ____

>  <TORSDO>
F 4

$$$$
=
 OpenBabel11112417233D

 37 42  0  0  1  0  0  0  0  0999 V2000
  189.6850  176.0250  145.6730 C   0  0  0  0  0  0  0  0  0  0  0  0
  193.4650  174.3150  145.5440 C   0  0  0  0  0  0  0  0  0  0  0  0
  194.4020  172.5720  142.7880 C   0  0  0  0  0  2  0  0  0  0  0  0
  192.1260  176.1470  146.3560 C   0  0  0  0  0  0  0  0  0  0  0  0
  193.2050  173.0890  144.9540 C   0  0  0  0  0  0  0  0  0  0  0  0
  192.2600  174.8790  145.8230 C   0  0  0  0  0  0  0  0  0  0  0  0
  194.2020  172.2000  144.2560 C   0  0  2  0  0  3  0  0  0  0  0  0
  193.3010  176.8570  146.6560 C   0  0  0  0  0  3  0  0  0  0  0  0
  191.2480  174.1140  145.4130 N   0  0  0  0  0  0  0  0  0  0  0  0
  189.7960  176.6360  144.2860 C   0  0  0  0  0  1  0  0  0  0  0  0
  195.9830  174.3770  145.4990 C   0  0  0  0  0  2  0  0  0  0  0  0
  194.5670  176.2790  146.3800 C   0  0  0  0  0  3  0  0  0  0  0  0
  189.8420  174.4870  145.5650 C   0  0  0  0  0  2  0  0  0  0  0  0
  192.2290  171.4830  141.9760 C   0  0  1  0  0  3  0  0  0  0  0  0
  193.0770  172.7590  142.0430 C   0  0  0  0  0  2  0  0  0  0  0  0
  194.6570  174.9900  145.8110 C   0  0  0  0  0  0  0  0  0  0  0  0
  191.8000  173.0080  144.8600 C   0  0  0  0  0  0  0  0  0  0  0  0
  190.7390  176.6710  146.6090 C   0  0  0  0  0  2  0  0  0  0  0  0
  195.5430  171.9280  144.9650 C   0  0  1  0  0  3  0  0  0  0  0  0
  188.3060  176.3300  146.2160 C   0  0  0  0  0  1  0  0  0  0  0  0
  191.7740  170.9410  143.3420 C   0  0  0  0  0  2  0  0  0  0  0  0
  190.9760  171.9370  144.1900 C   0  0  0  0  0  2  0  0  0  0  0  0
  196.0230  172.9440  146.0110 C   0  0  0  0  0  2  0  0  0  0  0  0
  194.5760  169.6950  145.2050 C   0  0  0  0  0  3  0  0  0  0  0  0
  195.5490  170.5500  145.5400 C   0  0  0  0  0  0  0  0  0  0  0  0
  196.5890  170.1430  146.5120 C   0  0  0  0  0  3  0  0  0  0  0  0
  197.4090  168.6570  148.1050 F   0  0  0  0  0  0  0  0  0  0  0  0
  195.1710  168.2260  147.1400 C   0  0  0  0  0  2  0  0  0  0  0  0
  196.4440  169.0230  147.2270 C   0  0  0  0  0  0  0  0  0  0  0  0
  194.5910  168.2820  145.7220 C   0  0  0  0  0  2  0  0  0  0  0  0
  191.0710  171.6570  141.0490 C   0  0  0  0  0  0  0  0  0  0  0  0
  190.6960  172.9740  140.6430 N   0  0  0  0  0  2  0  0  0  0  0  0
  190.4410  170.6520  140.6190 O   0  0  0  0  0  0  0  0  0  0  0  0
  190.1530  173.6800  138.3620 C   0  0  0  0  0  1  0  0  0  0  0  0
  189.6080  173.2310  139.7080 C   0  0  2  0  0  3  0  0  0  0  0  0
  188.1980  173.9160  142.0130 S   0  0  0  0  0  1  0  0  0  0  0  0
  188.6440  174.2660  140.2800 C   0  0  0  0  0  2  0  0  0  0  0  0
  1 20  1  0  0  0  0
  1 18  1  0  0  0  0
  2 16  2  0  0  0  0
  2  6  1  0  0  0  0
  4 18  1  0  0  0  0
  4  8  1  0  0  0  0
  5  2  1  0  0  0  0
  6  4  2  0  0  0  0
  7  3  1  6  0  0  0
  7  5  1  0  0  0  0
  7 19  1  0  0  0  0
  9 13  1  0  0  0  0
  9  6  1  0  0  0  0
 10  1  1  0  0  0  0
 11 16  1  0  0  0  0
 11 23  1  0  0  0  0
 12  8  2  0  0  0  0
 13  1  1  0  0  0  0
 14 31  1  6  0  0  0
 14 15  1  0  0  0  0
 14 21  1  0  0  0  0
 15  3  1  0  0  0  0
 16 12  1  0  0  0  0
 17  5  2  0  0  0  0
 17  9  1  0  0  0  0
 19 25  1  1  0  0  0
 19 23  1  0  0  0  0
 21 22  1  0  0  0  0
 22 17  1  0  0  0  0
 24 25  2  0  0  0  0
 24 30  1  0  0  0  0
 25 26  1  0  0  0  0
 26 29  2  0  0  0  0
 28 29  1  0  0  0  0
 29 27  1  0  0  0  0
 30 28  1  0  0  0  0
 32 31  1  0  0  0  0
 33 31  2  0  0  0  0
 35 34  1  6  0  0  0
 35 37  1  0  0  0  0
 35 32  1  0  0  0  0
 37 36  1  0  0  0  0
M  END
>  <MODEL>
5

>  <REMARK>
 VINA RESULT:      -8.2      4.019      8.804
  Name = 
  4 active torsions:
  status: ('A' for Active; 'I' for Inactive)
    1  A    between atoms: C_4  and  N_12
    2  A    between atoms: C_4  and  C_37
    3  A    between atoms: C_8  and  C_18
    4  A    between atoms: C_23  and  C_30
                            x       y       z     vdW  Elec       q    Type
                         _______ _______ _______ _____ _____    ______ ____

>  <TORSDO>
F 4

$$$$
=
 OpenBabel11112417233D

 37 42  0  0  1  0  0  0  0  0999 V2000
  187.0860  176.8780  140.8930 C   0  0  0  0  0  0  0  0  0  0  0  0
  189.4640  174.3210  143.1380 C   0  0  0  0  0  0  0  0  0  0  0  0
  189.3670  174.5150  146.5240 C   0  0  0  0  0  2  0  0  0  0  0  0
  188.1910  174.6040  141.1110 C   0  0  0  0  0  0  0  0  0  0  0  0
  189.9180  175.1600  144.1420 C   0  0  0  0  0  0  0  0  0  0  0  0
  188.8360  175.1090  142.2240 C   0  0  0  0  0  0  0  0  0  0  0  0
  190.4630  174.7400  145.4830 C   0  0  2  0  0  3  0  0  0  0  0  0
  188.2300  173.2140  140.9060 C   0  0  0  0  0  3  0  0  0  0  0  0
  188.8230  176.3880  142.5980 N   0  0  0  0  0  0  0  0  0  0  0  0
  185.8370  176.6150  141.7170 C   0  0  0  0  0  1  0  0  0  0  0  0
  190.1960  172.0660  143.9890 C   0  0  0  0  0  2  0  0  0  0  0  0
  188.8900  172.3800  141.8450 C   0  0  0  0  0  3  0  0  0  0  0  0
  188.1930  177.4510  141.8150 C   0  0  0  0  0  2  0  0  0  0  0  0
  188.9760  177.0030  146.9910 C   0  0  1  0  0  3  0  0  0  0  0  0
  188.3570  175.6640  146.5730 C   0  0  0  0  0  2  0  0  0  0  0  0
  189.5150  172.9350  142.9840 C   0  0  0  0  0  0  0  0  0  0  0  0
  189.4720  176.4490  143.7850 C   0  0  0  0  0  0  0  0  0  0  0  0
  187.5180  175.5730  140.1770 C   0  0  0  0  0  2  0  0  0  0  0  0
  191.5190  173.6180  145.5110 C   0  0  1  0  0  3  0  0  0  0  0  0
  186.7520  177.9160  139.8430 C   0  0  0  0  0  1  0  0  0  0  0  0
  190.0520  177.5410  146.0320 C   0  0  0  0  0  2  0  0  0  0  0  0
  189.5830  177.7240  144.5850 C   0  0  0  0  0  2  0  0  0  0  0  0
  191.5640  172.6430  144.3270 C   0  0  0  0  0  2  0  0  0  0  0  0
  192.9810  175.4550  146.1970 C   0  0  0  0  0  3  0  0  0  0  0  0
  192.8730  174.1950  145.7610 C   0  0  0  0  0  0  0  0  0  0  0  0
  194.0930  173.4040  145.4810 C   0  0  0  0  0  3  0  0  0  0  0  0
  196.3980  173.2590  145.1930 F   0  0  0  0  0  0  0  0  0  0  0  0
  195.3990  175.4930  145.5610 C   0  0  0  0  0  2  0  0  0  0  0  0
  195.2890  173.9980  145.4390 C   0  0  0  0  0  0  0  0  0  0  0  0
  194.3300  176.0410  146.5130 C   0  0  0  0  0  2  0  0  0  0  0  0
  187.9180  178.0260  147.2470 C   0  0  0  0  0  0  0  0  0  0  0  0
  186.7810  178.0820  146.3840 N   0  0  0  0  0  2  0  0  0  0  0  0
  188.0210  178.8200  148.2210 O   0  0  0  0  0  0  0  0  0  0  0  0
  184.4410  178.2910  147.0770 C   0  0  0  0  0  1  0  0  0  0  0  0
  185.6830  179.0190  146.5880 C   0  0  2  0  0  3  0  0  0  0  0  0
  184.1290  178.9740  144.2740 S   0  0  0  0  0  1  0  0  0  0  0  0
  185.3920  179.7910  145.3040 C   0  0  0  0  0  2  0  0  0  0  0  0
  1 10  1  0  0  0  0
  1 13  1  0  0  0  0
  2  5  1  0  0  0  0
  3 15  1  0  0  0  0
  4  6  1  0  0  0  0
  5  7  1  0  0  0  0
  6  9  1  0  0  0  0
  6  2  2  0  0  0  0
  7 19  1  0  0  0  0
  7  3  1  1  0  0  0
  8  4  2  0  0  0  0
  8 12  1  0  0  0  0
  9 17  1  0  0  0  0
 11 23  1  0  0  0  0
 12 16  2  0  0  0  0
 13  9  1  0  0  0  0
 14 31  1  6  0  0  0
 15 14  1  0  0  0  0
 16  2  1  0  0  0  0
 16 11  1  0  0  0  0
 17  5  2  0  0  0  0
 17 22  1  0  0  0  0
 18  1  1  0  0  0  0
 18  4  1  0  0  0  0
 19 25  1  6  0  0  0
 20  1  1  0  0  0  0
 21 14  1  0  0  0  0
 22 21  1  0  0  0  0
 23 19  1  0  0  0  0
 24 30  1  0  0  0  0
 25 24  2  0  0  0  0
 26 25  1  0  0  0  0
 27 29  1  0  0  0  0
 28 30  1  0  0  0  0
 29 26  2  0  0  0  0
 29 28  1  0  0  0  0
 31 33  2  0  0  0  0
 32 35  1  0  0  0  0
 32 31  1  0  0  0  0
 35 34  1  6  0  0  0
 36 37  1  0  0  0  0
 37 35  1  0  0  0  0
M  END
>  <MODEL>
6

>  <REMARK>
 VINA RESULT:      -8.2      3.436      6.933
  Name = 
  4 active torsions:
  status: ('A' for Active; 'I' for Inactive)
    1  A    between atoms: C_4  and  N_12
    2  A    between atoms: C_4  and  C_37
    3  A    between atoms: C_8  and  C_18
    4  A    between atoms: C_23  and  C_30
                            x       y       z     vdW  Elec       q    Type
                         _______ _______ _______ _____ _____    ______ ____

>  <TORSDO>
F 4

$$$$
=
 OpenBabel11112417233D

 37 42  0  0  1  0  0  0  0  0999 V2000
  195.0940  175.3810  144.5150 C   0  0  0  0  0  0  0  0  0  0  0  0
  190.9990  175.6940  145.1200 C   0  0  0  0  0  0  0  0  0  0  0  0
  188.9600  173.2520  143.9430 C   0  0  0  0  0  2  0  0  0  0  0  0
  193.1930  176.1790  145.9930 C   0  0  0  0  0  0  0  0  0  0  0  0
  190.4960  175.2590  143.9040 C   0  0  0  0  0  0  0  0  0  0  0  0
  192.3430  175.8280  144.9610 C   0  0  0  0  0  0  0  0  0  0  0  0
  189.1040  174.7430  143.6430 C   0  0  2  0  0  3  0  0  0  0  0  0
  192.6200  176.4480  147.2490 C   0  0  0  0  0  3  0  0  0  0  0  0
  192.7380  175.4670  143.7410 N   0  0  0  0  0  0  0  0  0  0  0  0
  195.1600  173.9340  144.9740 C   0  0  0  0  0  1  0  0  0  0  0  0
  188.9140  175.7840  146.5310 C   0  0  0  0  0  2  0  0  0  0  0  0
  191.2180  176.3240  147.4270 C   0  0  0  0  0  3  0  0  0  0  0  0
  194.1340  175.4870  143.3040 C   0  0  0  0  0  2  0  0  0  0  0  0
  190.1070  172.4710  141.7890 C   0  0  1  0  0  3  0  0  0  0  0  0
  190.0820  172.4150  143.3210 C   0  0  0  0  0  2  0  0  0  0  0  0
  190.3890  175.9360  146.3510 C   0  0  0  0  0  0  0  0  0  0  0  0
  191.6210  175.0980  143.0680 C   0  0  0  0  0  0  0  0  0  0  0  0
  194.6650  176.2810  145.7030 C   0  0  0  0  0  2  0  0  0  0  0  0
  187.9200  175.5570  144.1990 C   0  0  1  0  0  3  0  0  0  0  0  0
  196.4780  175.8000  144.0680 C   0  0  0  0  0  1  0  0  0  0  0  0
  190.3640  173.8690  141.2010 C   0  0  0  0  0  2  0  0  0  0  0  0
  191.6640  174.5310  141.6710 C   0  0  0  0  0  2  0  0  0  0  0  0
  188.1820  176.4840  145.3940 C   0  0  0  0  0  2  0  0  0  0  0  0
  187.9710  176.7030  142.0390 C   0  0  0  0  0  3  0  0  0  0  0  0
  187.2520  176.3090  143.0950 C   0  0  0  0  0  0  0  0  0  0  0  0
  185.8170  176.6650  143.1860 C   0  0  0  0  0  3  0  0  0  0  0  0
  183.9720  177.8680  142.4350 F   0  0  0  0  0  0  0  0  0  0  0  0
  186.1670  178.3030  141.3770 C   0  0  0  0  0  2  0  0  0  0  0  0
  185.2880  177.5610  142.3470 C   0  0  0  0  0  0  0  0  0  0  0  0
  187.3110  177.4100  140.8860 C   0  0  0  0  0  2  0  0  0  0  0  0
  191.0610  171.4650  141.2320 C   0  0  0  0  0  0  0  0  0  0  0  0
  191.7060  170.5510  142.1210 N   0  0  0  0  0  2  0  0  0  0  0  0
  191.2820  171.4140  139.9910 O   0  0  0  0  0  0  0  0  0  0  0  0
  191.8530  168.2340  141.3440 C   0  0  0  0  0  1  0  0  0  0  0  0
  192.6150  169.5110  141.6570 C   0  0  2  0  0  3  0  0  0  0  0  0
  193.4940  170.2700  144.1920 S   0  0  0  0  0  1  0  0  0  0  0  0
  193.7080  169.2560  142.6910 C   0  0  0  0  0  2  0  0  0  0  0  0
  1 10  1  0  0  0  0
  1 18  1  0  0  0  0
  2 16  1  0  0  0  0
  4  8  2  0  0  0  0
  5  2  1  0  0  0  0
  6  2  2  0  0  0  0
  6  4  1  0  0  0  0
  7  5  1  0  0  0  0
  7  3  1  1  0  0  0
  7 19  1  0  0  0  0
  8 12  1  0  0  0  0
  9  6  1  0  0  0  0
 13  9  1  0  0  0  0
 13  1  1  0  0  0  0
 14 31  1  1  0  0  0
 14 15  1  0  0  0  0
 15  3  1  0  0  0  0
 16 11  1  0  0  0  0
 16 12  2  0  0  0  0
 17  9  1  0  0  0  0
 17  5  2  0  0  0  0
 18  4  1  0  0  0  0
 19 25  1  6  0  0  0
 19 23  1  0  0  0  0
 20  1  1  0  0  0  0
 21 22  1  0  0  0  0
 21 14  1  0  0  0  0
 22 17  1  0  0  0  0
 23 11  1  0  0  0  0
 24 25  2  0  0  0  0
 25 26  1  0  0  0  0
 28 29  1  0  0  0  0
 29 27  1  0  0  0  0
 29 26  2  0  0  0  0
 30 28  1  0  0  0  0
 30 24  1  0  0  0  0
 31 32  1  0  0  0  0
 33 31  2  0  0  0  0
 35 34  1  1  0  0  0
 35 32  1  0  0  0  0
 35 37  1  0  0  0  0
 37 36  1  0  0  0  0
M  END
>  <MODEL>
7

>  <REMARK>
 VINA RESULT:      -7.6      2.674      5.845
  Name = 
  4 active torsions:
  status: ('A' for Active; 'I' for Inactive)
    1  A    between atoms: C_4  and  N_12
    2  A    between atoms: C_4  and  C_37
    3  A    between atoms: C_8  and  C_18
    4  A    between atoms: C_23  and  C_30
                            x       y       z     vdW  Elec       q    Type
                         _______ _______ _______ _____ _____    ______ ____

>  <TORSDO>
F 4

$$$$
=
 OpenBabel11112417233D

 37 42  0  0  1  0  0  0  0  0999 V2000
  189.2490  172.8960  139.1840 C   0  0  0  0  0  0  0  0  0  0  0  0
  191.4240  172.7020  142.7140 C   0  0  0  0  0  0  0  0  0  0  0  0
  190.1220  174.0600  145.5370 C   0  0  0  0  0  2  0  0  0  0  0  0
  190.9000  171.6180  140.6260 C   0  0  0  0  0  0  0  0  0  0  0  0
  191.2040  173.9580  143.2550 C   0  0  0  0  0  0  0  0  0  0  0  0
  190.9220  172.7270  141.4500 C   0  0  0  0  0  0  0  0  0  0  0  0
  191.3670  174.3530  144.7000 C   0  0  2  0  0  3  0  0  0  0  0  0
  191.4640  170.4270  141.1170 C   0  0  0  0  0  3  0  0  0  0  0  0
  190.3600  173.9000  141.1630 N   0  0  0  0  0  0  0  0  0  0  0  0
  187.9570  172.4240  139.8270 C   0  0  0  0  0  1  0  0  0  0  0  0
  192.5250  171.5050  144.6380 C   0  0  0  0  0  2  0  0  0  0  0  0
  192.0010  170.3880  142.4290 C   0  0  0  0  0  3  0  0  0  0  0  0
  189.7200  174.1970  139.8810 C   0  0  0  0  0  2  0  0  0  0  0  0
  188.7960  176.0850  144.6960 C   0  0  1  0  0  3  0  0  0  0  0  0
  188.8360  174.5620  144.8750 C   0  0  0  0  0  2  0  0  0  0  0  0
  191.9790  171.5390  143.2480 C   0  0  0  0  0  0  0  0  0  0  0  0
  190.5060  174.6780  142.2630 C   0  0  0  0  0  0  0  0  0  0  0  0
  190.3050  171.7620  139.2520 C   0  0  0  0  0  2  0  0  0  0  0  0
  192.6570  173.9220  145.4230 C   0  0  1  0  0  3  0  0  0  0  0  0
  188.9690  173.2060  137.7290 C   0  0  0  0  0  1  0  0  0  0  0  0
  189.8920  176.6530  143.7780 C   0  0  0  0  0  2  0  0  0  0  0  0
  189.9110  176.0600  142.3650 C   0  0  0  0  0  2  0  0  0  0  0  0
  193.4220  172.7130  144.8680 C   0  0  0  0  0  2  0  0  0  0  0  0
  193.3170  176.0100  146.5130 C   0  0  0  0  0  3  0  0  0  0  0  0
  193.5740  175.0910  145.5750 C   0  0  0  0  0  0  0  0  0  0  0  0
  194.7300  175.2670  144.6670 C   0  0  0  0  0  3  0  0  0  0  0  0
  196.4450  176.5750  143.7920 F   0  0  0  0  0  0  0  0  0  0  0  0
  194.8790  177.6160  145.4020 C   0  0  0  0  0  2  0  0  0  0  0  0
  195.3820  176.4320  144.6200 C   0  0  0  0  0  0  0  0  0  0  0  0
  194.2560  177.1650  146.7280 C   0  0  0  0  0  2  0  0  0  0  0  0
  187.4390  176.5380  144.2660 C   0  0  0  0  0  0  0  0  0  0  0  0
  186.7950  177.5890  144.9880 N   0  0  0  0  0  2  0  0  0  0  0  0
  186.8760  176.0100  143.2690 O   0  0  0  0  0  0  0  0  0  0  0  0
  185.6480  179.4280  143.8490 C   0  0  0  0  0  1  0  0  0  0  0  0
  185.4920  178.1220  144.6110 C   0  0  2  0  0  3  0  0  0  0  0  0
  185.5860  178.6660  147.3430 S   0  0  0  0  0  1  0  0  0  0  0  0
  184.6130  178.3090  145.8420 C   0  0  0  0  0  2  0  0  0  0  0  0
  1 18  1  0  0  0  0
  1 10  1  0  0  0  0
  1 13  1  0  0  0  0
  2 16  1  0  0  0  0
  2  5  1  0  0  0  0
  4  8  2  0  0  0  0
  4  6  1  0  0  0  0
  5  7  1  0  0  0  0
  6  2  2  0  0  0  0
  7 19  1  0  0  0  0
  7  3  1  1  0  0  0
  8 12  1  0  0  0  0
  9  6  1  0  0  0  0
  9 17  1  0  0  0  0
 11 23  1  0  0  0  0
 12 16  2  0  0  0  0
 13  9  1  0  0  0  0
 14 31  1  6  0  0  0
 14 15  1  0  0  0  0
 15  3  1  0  0  0  0
 16 11  1  0  0  0  0
 17 22  1  0  0  0  0
 17  5  2  0  0  0  0
 18  4  1  0  0  0  0
 19 25  1  6  0  0  0
 20  1  1  0  0  0  0
 21 14  1  0  0  0  0
 22 21  1  0  0  0  0
 23 19  1  0  0  0  0
 24 30  1  0  0  0  0
 25 24  2  0  0  0  0
 26 25  1  0  0  0  0
 27 29  1  0  0  0  0
 28 30  1  0  0  0  0
 29 26  2  0  0  0  0
 29 28  1  0  0  0  0
 31 32  1  0  0  0  0
 33 31  2  0  0  0  0
 35 34  1  1  0  0  0
 35 32  1  0  0  0  0
 35 37  1  0  0  0  0
 37 36  1  0  0  0  0
M  END
>  <MODEL>
8

>  <REMARK>
 VINA RESULT:      -7.3      3.412      6.856
  Name = 
  4 active torsions:
  status: ('A' for Active; 'I' for Inactive)
    1  A    between atoms: C_4  and  N_12
    2  A    between atoms: C_4  and  C_37
    3  A    between atoms: C_8  and  C_18
    4  A    between atoms: C_23  and  C_30
                            x       y       z     vdW  Elec       q    Type
                         _______ _______ _______ _____ _____    ______ ____

>  <TORSDO>
F 4

$$$$
=
 OpenBabel11112417233D

 37 42  0  0  1  0  0  0  0  0999 V2000
  187.4060  176.6490  142.6490 C   0  0  0  0  0  0  0  0  0  0  0  0
  191.2870  175.4400  143.4870 C   0  0  0  0  0  0  0  0  0  0  0  0
  192.9950  173.6370  141.1760 C   0  0  0  0  0  2  0  0  0  0  0  0
  189.6060  177.1360  143.8150 C   0  0  0  0  0  0  0  0  0  0  0  0
  191.3010  174.1500  142.9810 C   0  0  0  0  0  0  0  0  0  0  0  0
  189.9940  175.8610  143.4500 C   0  0  0  0  0  0  0  0  0  0  0  0
  192.5190  173.3490  142.6000 C   0  0  2  0  0  3  0  0  0  0  0  0
  190.6000  178.0130  144.2830 C   0  0  0  0  0  3  0  0  0  0  0  0
  189.1890  174.9440  142.9150 N   0  0  0  0  0  0  0  0  0  0  0  0
  187.7510  177.1670  141.2640 C   0  0  0  0  0  1  0  0  0  0  0  0
  193.7300  175.8240  143.9660 C   0  0  0  0  0  2  0  0  0  0  0  0
  191.9520  177.5850  144.3380 C   0  0  0  0  0  3  0  0  0  0  0  0
  187.7510  175.1410  142.7300 C   0  0  0  0  0  2  0  0  0  0  0  0
  191.1900  172.2180  140.0390 C   0  0  1  0  0  3  0  0  0  0  0  0
  191.8550  173.5950  140.1550 C   0  0  0  0  0  2  0  0  0  0  0  0
  192.3080  176.2800  143.9300 C   0  0  0  0  0  0  0  0  0  0  0  0
  189.9690  173.8810  142.6030 C   0  0  0  0  0  0  0  0  0  0  0  0
  188.1480  177.4930  143.7170 C   0  0  0  0  0  2  0  0  0  0  0  0
  193.6920  173.3060  143.5980 C   0  0  1  0  0  3  0  0  0  0  0  0
  185.9150  176.8120  142.8580 C   0  0  0  0  0  1  0  0  0  0  0  0
  190.5070  171.7230  141.3260 C   0  0  0  0  0  2  0  0  0  0  0  0
  189.4360  172.6660  141.8840 C   0  0  0  0  0  2  0  0  0  0  0  0
  193.8140  174.4490  144.6150 C   0  0  0  0  0  2  0  0  0  0  0  0
  194.5600  171.8060  145.3230 C   0  0  0  0  0  3  0  0  0  0  0  0
  193.7240  171.9860  144.2940 C   0  0  0  0  0  0  0  0  0  0  0  0
  192.8810  170.8640  143.8230 C   0  0  0  0  0  3  0  0  0  0  0  0
  192.3160  168.6060  143.8290 F   0  0  0  0  0  0  0  0  0  0  0  0
  194.2850  169.3270  145.1430 C   0  0  0  0  0  2  0  0  0  0  0  0
  193.1030  169.6210  144.2590 C   0  0  0  0  0  0  0  0  0  0  0  0
  194.5700  170.5050  146.0800 C   0  0  0  0  0  2  0  0  0  0  0  0
  190.2520  172.1730  138.8760 C   0  0  0  0  0  0  0  0  0  0  0  0
  190.1610  173.3060  138.0110 N   0  0  0  0  0  2  0  0  0  0  0  0
  189.5620  171.1410  138.6530 O   0  0  0  0  0  0  0  0  0  0  0  0
  190.1190  173.0620  135.5750 C   0  0  0  0  0  1  0  0  0  0  0  0
  189.3050  173.3290  136.8320 C   0  0  2  0  0  3  0  0  0  0  0  0
  188.8200  175.4740  135.1180 S   0  0  0  0  0  1  0  0  0  0  0  0
  188.5680  174.6610  136.7310 C   0  0  0  0  0  2  0  0  0  0  0  0
  1 13  1  0  0  0  0
  1 20  1  0  0  0  0
  1 18  1  0  0  0  0
  2 16  1  0  0  0  0
  4  8  2  0  0  0  0
  5  2  1  0  0  0  0
  6  2  2  0  0  0  0
  6  4  1  0  0  0  0
  7  3  1  6  0  0  0
  7  5  1  0  0  0  0
  7 19  1  0  0  0  0
  8 12  1  0  0  0  0
  9  6  1  0  0  0  0
 10  1  1  0  0  0  0
 11 23  1  0  0  0  0
 13  9  1  0  0  0  0
 14 31  1  6  0  0  0
 14 15  1  0  0  0  0
 14 21  1  0  0  0  0
 15  3  1  0  0  0  0
 16 11  1  0  0  0  0
 16 12  2  0  0  0  0
 17  9  1  0  0  0  0
 17  5  2  0  0  0  0
 18  4  1  0  0  0  0
 19 25  1  1  0  0  0
 19 23  1  0  0  0  0
 21 22  1  0  0  0  0
 22 17  1  0  0  0  0
 24 30  1  0  0  0  0
 25 24  2  0  0  0  0
 26 29  2  0  0  0  0
 26 25  1  0  0  0  0
 27 29  1  0  0  0  0
 28 30  1  0  0  0  0
 29 28  1  0  0  0  0
 32 31  1  0  0  0  0
 33 31  2  0  0  0  0
 35 34  1  6  0  0  0
 35 32  1  0  0  0  0
 36 37  1  0  0  0  0
 37 35  1  0  0  0  0
M  END
>  <MODEL>
9

>  <REMARK>
 VINA RESULT:      -6.9      3.980      8.094
  Name = 
  4 active torsions:
  status: ('A' for Active; 'I' for Inactive)
    1  A    between atoms: C_4  and  N_12
    2  A    between atoms: C_4  and  C_37
    3  A    between atoms: C_8  and  C_18
    4  A    between atoms: C_23  and  C_30
                            x       y       z     vdW  Elec       q    Type
                         _______ _______ _______ _____ _____    ______ ____

>  <TORSDO>
F 4

$$$$
