=
 OpenBabel11112417443D

 34 42  0  0  1  0  0  0  0  0999 V2000
  185.8990  178.2040  145.4900 C   0  0  1  0  0  3  0  0  0  0  0  0
  183.8920  179.1120  144.6130 C   0  0  0  0  0  2  0  0  0  0  0  0
  192.2870  175.9700  144.9310 C   0  0  2  0  0  0  0  0  0  0  0  0
  188.2850  177.4990  146.2550 C   0  0  0  0  0  0  0  0  0  0  0  0
  189.8460  176.7110  144.5780 C   0  0  0  0  0  0  0  0  0  0  0  0
  191.7550  175.8890  143.0510 C   0  0  2  0  0  3  0  0  0  0  0  0
  192.9440  175.6080  143.7150 O   0  0  0  0  0  0  0  0  0  0  0  0
  191.7460  176.4180  147.2340 C   0  0  0  0  0  3  0  0  0  0  0  0
  185.5410  178.5400  143.0340 C   0  0  1  0  0  3  0  0  0  0  0  0
  185.0610  178.0760  140.1260 C   0  0  0  0  0  3  0  0  0  0  0  0
  188.8620  176.8670  143.5990 O   0  0  0  0  0  0  0  0  0  0  0  0
  190.4680  176.8300  147.1440 C   0  0  0  0  0  2  0  0  0  0  0  0
  186.5120  177.3750  142.8660 C   0  0  2  0  0  3  0  0  0  0  0  0
  183.2130  178.8990  143.2810 C   0  0  0  0  0  2  0  0  0  0  0  0
  189.5240  177.0200  145.9970 C   0  0  0  0  0  0  0  0  0  0  0  0
  192.6250  176.0150  146.1730 N   0  0  0  0  0  0  0  0  0  0  0  0
  184.0690  178.3130  141.0060 C   0  0  0  0  0  0  0  0  0  0  0  0
  187.2970  177.7250  145.1610 C   0  0  0  0  0  0  0  0  0  0  0  0
  191.0370  176.2790  144.2190 C   0  0  0  0  0  0  0  0  0  0  0  0
  187.5870  177.3540  143.9100 C   0  0  0  0  0  0  0  0  0  0  0  0
  186.7000  178.3960  147.8920 C   0  0  0  0  0  3  0  0  0  0  0  0
  186.4610  177.6440  140.3440 C   0  0  0  0  0  3  0  0  0  0  0  0
  187.8280  177.7360  147.6400 C   0  0  0  0  0  3  0  0  0  0  0  0
  187.0960  177.3640  141.4870 C   0  0  0  0  0  3  0  0  0  0  0  0
  184.2080  178.0950  142.4890 C   0  0  1  0  0  3  0  0  0  0  0  0
  185.9090  179.0320  146.7880 C   0  0  0  0  0  2  0  0  0  0  0  0
  185.3400  179.0420  144.4120 N   0  0  2  0  0  0  0  0  0  0  0  0
  182.8100  178.7150  140.5280 O   0  0  0  0  0  0  0  0  0  0  0  0
  181.7380  177.8160  140.2500 C   0  0  0  0  0  2  0  0  0  0  0  0
  179.6080  180.2600  139.8560 O   0  0  0  0  0  0  0  0  0  0  0  0
  179.2760  177.9310  140.0440 C   0  0  0  0  0  2  0  0  0  0  0  0
  180.4510  178.3050  140.8980 C   0  0  2  0  0  3  0  0  0  0  0  0
  178.6410  179.2570  139.7020 C   0  0  0  0  0  2  0  0  0  0  0  0
  180.4320  179.8170  140.9030 C   0  0  0  0  0  2  0  0  0  0  0  0
  1 26  1  1  0  0  0
  3  7  1  6  0  0  0
  3 16  1  0  0  0  0
  4 23  1  0  0  0  0
  5 15  1  0  0  0  0
  6  7  1  6  0  0  0
  6 19  1  0  0  0  0
  6  3  1  0  0  0  0
  9 27  1  0  0  0  0
 10 22  1  0  0  0  0
 10 17  2  0  0  0  0
 11 20  1  0  0  0  0
 11  5  1  0  0  0  0
 12  8  1  0  0  0  0
 13  9  1  0  0  0  0
 13 20  1  0  0  0  0
 14  2  1  0  0  0  0
 15  4  2  0  0  0  0
 15 12  1  0  0  0  0
 16  8  2  0  0  0  0
 17 25  1  0  0  0  0
 18  1  1  0  0  0  0
 18  4  1  0  0  0  0
 19  5  2  0  0  0  0
 19  3  1  0  0  0  0
 20 18  2  0  0  0  0
 22 24  2  0  0  0  0
 23 21  2  0  0  0  0
 24 13  1  0  0  0  0
 25  9  1  0  0  0  0
 25 14  1  0  0  0  0
 26 21  1  0  0  0  0
 27  2  1  0  0  0  0
 27  1  1  0  0  0  0
 28 17  1  0  0  0  0
 29 28  1  0  0  0  0
 29 32  1  0  0  0  0
 30 34  1  0  0  0  0
 31 32  1  0  0  0  0
 32 34  1  0  0  0  0
 33 30  1  0  0  0  0
 33 31  1  0  0  0  0
M  END
>  <MODEL>
1

>  <REMARK>
 VINA RESULT:      -9.5      0.000      0.000
  Name = 
  3 active torsions:
  status: ('A' for Active; 'I' for Inactive)
    1  A    between atoms: C_17  and  O_28
    2  A    between atoms: O_28  and  C_29
    3  A    between atoms: C_29  and  C_32
                            x       y       z     vdW  Elec       q    Type
                         _______ _______ _______ _____ _____    ______ ____

>  <TORSDO>
F 3

$$$$
=
 OpenBabel11112417443D

 34 42  0  0  1  0  0  0  0  0999 V2000
  188.6450  176.4510  146.4350 C   0  0  1  0  0  3  0  0  0  0  0  0
  190.4350  175.4640  147.6350 C   0  0  0  0  0  2  0  0  0  0  0  0
  185.2420  177.9000  140.7400 C   0  0  2  0  0  0  0  0  0  0  0  0
  186.6450  177.1830  144.9370 C   0  0  0  0  0  0  0  0  0  0  0  0
  186.9740  177.2710  142.5400 C   0  0  0  0  0  0  0  0  0  0  0  0
  186.9700  177.4140  139.9640 C   0  0  2  0  0  3  0  0  0  0  0  0
  185.7550  177.8020  139.4100 O   0  0  0  0  0  0  0  0  0  0  0  0
  183.8490  178.2570  142.6710 C   0  0  0  0  0  3  0  0  0  0  0  0
  190.5940  175.3730  145.2880 C   0  0  1  0  0  3  0  0  0  0  0  0
  193.1040  174.9140  143.7420 C   0  0  0  0  0  3  0  0  0  0  0  0
  188.3040  176.8840  142.7150 O   0  0  0  0  0  0  0  0  0  0  0  0
  184.6830  177.9340  143.6790 C   0  0  0  0  0  2  0  0  0  0  0  0
  190.2960  176.3460  144.1510 C   0  0  2  0  0  3  0  0  0  0  0  0
  191.8900  175.2880  147.2680 C   0  0  0  0  0  2  0  0  0  0  0  0
  186.1010  177.4580  143.7300 C   0  0  0  0  0  0  0  0  0  0  0  0
  184.1100  178.2310  141.2600 N   0  0  0  0  0  0  0  0  0  0  0  0
  193.0810  175.0480  145.0830 C   0  0  0  0  0  0  0  0  0  0  0  0
  188.0470  176.6920  145.0650 C   0  0  0  0  0  0  0  0  0  0  0  0
  186.5260  177.4740  141.3180 C   0  0  0  0  0  0  0  0  0  0  0  0
  188.8320  176.6190  143.9850 C   0  0  0  0  0  0  0  0  0  0  0  0
  186.3400  176.9800  147.3590 C   0  0  0  0  0  3  0  0  0  0  0  0
  192.1010  175.2870  142.7180 C   0  0  0  0  0  3  0  0  0  0  0  0
  185.9010  177.4370  146.1890 C   0  0  0  0  0  3  0  0  0  0  0  0
  190.9070  175.8700  142.8690 C   0  0  0  0  0  3  0  0  0  0  0  0
  191.9570  175.7190  145.8290 C   0  0  1  0  0  3  0  0  0  0  0  0
  187.5400  176.0850  147.4430 C   0  0  0  0  0  2  0  0  0  0  0  0
  189.6340  175.3560  146.4150 N   0  0  2  0  0  0  0  0  0  0  0  0
  194.1830  174.6100  145.8350 O   0  0  0  0  0  0  0  0  0  0  0  0
  195.5310  174.9980  145.5760 C   0  0  0  0  0  2  0  0  0  0  0  0
  196.4450  172.1220  144.3290 O   0  0  0  0  0  0  0  0  0  0  0  0
  197.7200  173.9610  145.0780 C   0  0  0  0  0  2  0  0  0  0  0  0
  196.4880  173.8700  145.9290 C   0  0  2  0  0  3  0  0  0  0  0  0
  197.7450  172.6470  144.3360 C   0  0  0  0  0  2  0  0  0  0  0  0
  195.8720  172.5450  145.5390 C   0  0  0  0  0  2  0  0  0  0  0  0
  1 26  1  1  0  0  0
  3  7  1  6  0  0  0
  3 16  1  0  0  0  0
  3 19  1  0  0  0  0
  4 18  1  0  0  0  0
  4 23  1  0  0  0  0
  5 11  1  0  0  0  0
  5 15  1  0  0  0  0
  6  7  1  6  0  0  0
  6  3  1  0  0  0  0
  6 19  1  0  0  0  0
  8 12  1  0  0  0  0
  9 25  1  0  0  0  0
  9 27  1  0  0  0  0
 10 17  2  0  0  0  0
 11 20  1  0  0  0  0
 12 15  1  0  0  0  0
 13  9  1  0  0  0  0
 14  2  1  0  0  0  0
 15  4  2  0  0  0  0
 16  8  2  0  0  0  0
 17 25  1  0  0  0  0
 17 28  1  0  0  0  0
 18  1  1  0  0  0  0
 19  5  2  0  0  0  0
 20 13  1  0  0  0  0
 20 18  2  0  0  0  0
 21 26  1  0  0  0  0
 22 24  2  0  0  0  0
 22 10  1  0  0  0  0
 23 21  2  0  0  0  0
 24 13  1  0  0  0  0
 25 14  1  0  0  0  0
 27  1  1  0  0  0  0
 27  2  1  0  0  0  0
 29 28  1  0  0  0  0
 29 32  1  0  0  0  0
 30 33  1  0  0  0  0
 30 34  1  0  0  0  0
 31 32  1  0  0  0  0
 33 31  1  0  0  0  0
 34 32  1  0  0  0  0
M  END
>  <MODEL>
2

>  <REMARK>
 VINA RESULT:      -9.2      2.593      9.869
  Name = 
  3 active torsions:
  status: ('A' for Active; 'I' for Inactive)
    1  A    between atoms: C_17  and  O_28
    2  A    between atoms: O_28  and  C_29
    3  A    between atoms: C_29  and  C_32
                            x       y       z     vdW  Elec       q    Type
                         _______ _______ _______ _____ _____    ______ ____

>  <TORSDO>
F 3

$$$$
=
 OpenBabel11112417443D

 34 42  0  0  1  0  0  0  0  0999 V2000
  186.8860  176.9380  145.0970 C   0  0  1  0  0  3  0  0  0  0  0  0
  184.9470  178.2430  144.7060 C   0  0  0  0  0  2  0  0  0  0  0  0
  192.7310  174.0540  143.1920 C   0  0  2  0  0  0  0  0  0  0  0  0
  189.2140  175.8020  145.3550 C   0  0  0  0  0  0  0  0  0  0  0  0
  190.4070  175.1530  143.3500 C   0  0  0  0  0  0  0  0  0  0  0  0
  191.9560  174.3980  141.4300 C   0  0  2  0  0  3  0  0  0  0  0  0
  193.1630  173.8470  141.8460 O   0  0  0  0  0  0  0  0  0  0  0  0
  192.5660  174.1240  145.5930 C   0  0  0  0  0  3  0  0  0  0  0  0
  186.2710  177.7750  142.8170 C   0  0  1  0  0  3  0  0  0  0  0  0
  185.3570  177.9340  139.9820 C   0  0  0  0  0  3  0  0  0  0  0  0
  189.3420  175.6150  142.5750 O   0  0  0  0  0  0  0  0  0  0  0  0
  191.3650  174.7050  145.7720 C   0  0  0  0  0  2  0  0  0  0  0  0
  187.0230  176.5480  142.3080 C   0  0  2  0  0  3  0  0  0  0  0  0
  184.0770  178.3740  143.4770 C   0  0  0  0  0  2  0  0  0  0  0  0
  190.3220  175.2270  144.8330 C   0  0  0  0  0  0  0  0  0  0  0  0
  193.2290  173.8200  144.3570 N   0  0  0  0  0  0  0  0  0  0  0  0
  184.5340  178.1240  141.0310 C   0  0  0  0  0  0  0  0  0  0  0  0
  188.1400  176.3550  144.4810 C   0  0  0  0  0  0  0  0  0  0  0  0
  191.4620  174.6490  142.7440 C   0  0  0  0  0  0  0  0  0  0  0  0
  188.2070  176.1940  143.1560 C   0  0  0  0  0  0  0  0  0  0  0  0
  188.0090  176.5690  147.3440 C   0  0  0  0  0  3  0  0  0  0  0  0
  186.6900  177.2930  139.9060 C   0  0  0  0  0  3  0  0  0  0  0  0
  188.9810  175.8300  146.8140 C   0  0  0  0  0  3  0  0  0  0  0  0
  187.4170  176.7240  140.8740 C   0  0  0  0  0  3  0  0  0  0  0  0
  184.8270  177.6140  142.4180 C   0  0  1  0  0  3  0  0  0  0  0  0
  187.1890  177.4980  146.4990 C   0  0  0  0  0  2  0  0  0  0  0  0
  186.3280  178.0280  144.2750 N   0  0  2  0  0  0  0  0  0  0  0  0
  183.3010  178.7670  140.8280 O   0  0  0  0  0  0  0  0  0  0  0  0
  182.0880  178.0840  140.5160 C   0  0  0  0  0  2  0  0  0  0  0  0
  178.9340  177.8380  141.3280 O   0  0  0  0  0  0  0  0  0  0  0  0
  180.6420  179.2420  142.1550 C   0  0  0  0  0  2  0  0  0  0  0  0
  180.8940  179.0100  140.6940 C   0  0  2  0  0  3  0  0  0  0  0  0
  179.2360  178.7330  142.3640 C   0  0  0  0  0  2  0  0  0  0  0  0
  179.6400  178.3160  140.2130 C   0  0  0  0  0  2  0  0  0  0  0  0
  1 26  1  1  0  0  0
  3  7  1  6  0  0  0
  3 16  1  0  0  0  0
  4 23  1  0  0  0  0
  5 15  1  0  0  0  0
  6  7  1  6  0  0  0
  6 19  1  0  0  0  0
  6  3  1  0  0  0  0
  8 12  1  0  0  0  0
  9 27  1  0  0  0  0
 10 17  2  0  0  0  0
 11 20  1  0  0  0  0
 11  5  1  0  0  0  0
 13  9  1  0  0  0  0
 13 20  1  0  0  0  0
 14  2  1  0  0  0  0
 15  4  2  0  0  0  0
 15 12  1  0  0  0  0
 16  8  2  0  0  0  0
 17 25  1  0  0  0  0
 18  1  1  0  0  0  0
 18  4  1  0  0  0  0
 19  3  1  0  0  0  0
 19  5  2  0  0  0  0
 20 18  2  0  0  0  0
 22 10  1  0  0  0  0
 22 24  2  0  0  0  0
 23 21  2  0  0  0  0
 24 13  1  0  0  0  0
 25  9  1  0  0  0  0
 25 14  1  0  0  0  0
 26 21  1  0  0  0  0
 27  2  1  0  0  0  0
 27  1  1  0  0  0  0
 28 17  1  0  0  0  0
 29 32  1  0  0  0  0
 29 28  1  0  0  0  0
 30 33  1  0  0  0  0
 31 33  1  0  0  0  0
 32 31  1  0  0  0  0
 34 32  1  0  0  0  0
 34 30  1  0  0  0  0
M  END
>  <MODEL>
3

>  <REMARK>
 VINA RESULT:      -9.0      1.498      1.928
  Name = 
  3 active torsions:
  status: ('A' for Active; 'I' for Inactive)
    1  A    between atoms: C_17  and  O_28
    2  A    between atoms: O_28  and  C_29
    3  A    between atoms: C_29  and  C_32
                            x       y       z     vdW  Elec       q    Type
                         _______ _______ _______ _____ _____    ______ ____

>  <TORSDO>
F 3

$$$$
=
 OpenBabel11112417443D

 34 42  0  0  1  0  0  0  0  0999 V2000
  189.7870  174.7490  144.6400 C   0  0  1  0  0  3  0  0  0  0  0  0
  191.3080  173.1440  143.7870 C   0  0  0  0  0  2  0  0  0  0  0  0
  184.1690  178.5490  144.3000 C   0  0  2  0  0  0  0  0  0  0  0  0
  187.8320  176.2500  145.4810 C   0  0  0  0  0  0  0  0  0  0  0  0
  186.2410  177.0850  143.8580 C   0  0  0  0  0  0  0  0  0  0  0  0
  184.3540  178.0830  142.4100 C   0  0  2  0  0  3  0  0  0  0  0  0
  183.4140  178.8230  143.1180 O   0  0  0  0  0  0  0  0  0  0  0  0
  184.9900  178.4540  146.5610 C   0  0  0  0  0  3  0  0  0  0  0  0
  189.5970  173.8230  142.3210 C   0  0  1  0  0  3  0  0  0  0  0  0
  189.6410  173.5160  139.3540 C   0  0  0  0  0  3  0  0  0  0  0  0
  186.9600  176.4540  142.8390 O   0  0  0  0  0  0  0  0  0  0  0  0
  186.0860  177.6830  146.4270 C   0  0  0  0  0  2  0  0  0  0  0  0
  188.9340  175.1550  141.9840 C   0  0  2  0  0  3  0  0  0  0  0  0
  191.7650  172.8720  142.3740 C   0  0  0  0  0  2  0  0  0  0  0  0
  186.7270  176.9980  145.2610 C   0  0  0  0  0  0  0  0  0  0  0  0
  184.0620  178.8620  145.5450 N   0  0  0  0  0  0  0  0  0  0  0  0
  190.6850  173.1930  140.1410 C   0  0  0  0  0  0  0  0  0  0  0  0
  188.5170  175.5280  144.3700 C   0  0  0  0  0  0  0  0  0  0  0  0
  185.1510  177.7550  143.5460 C   0  0  0  0  0  0  0  0  0  0  0  0
  188.1070  175.6980  143.1090 C   0  0  0  0  0  0  0  0  0  0  0  0
  189.4120  175.2970  147.0910 C   0  0  0  0  0  3  0  0  0  0  0  0
  188.4570  174.3660  139.6200 C   0  0  0  0  0  3  0  0  0  0  0  0
  188.4590  176.1840  146.8180 C   0  0  0  0  0  3  0  0  0  0  0  0
  188.1310  175.0470  140.7240 C   0  0  0  0  0  3  0  0  0  0  0  0
  190.8770  173.7450  141.5300 C   0  0  1  0  0  3  0  0  0  0  0  0
  189.8050  174.2460  146.0960 C   0  0  0  0  0  2  0  0  0  0  0  0
  189.9120  173.5820  143.7470 N   0  0  2  0  0  0  0  0  0  0  0  0
  191.6950  172.3580  139.6340 O   0  0  0  0  0  0  0  0  0  0  0  0
  192.0680  172.3020  138.2590 C   0  0  0  0  0  2  0  0  0  0  0  0
  190.3000  169.6590  139.0030 O   0  0  0  0  0  0  0  0  0  0  0  0
  190.5270  170.8500  136.9780 C   0  0  0  0  0  2  0  0  0  0  0  0
  191.8410  170.9040  137.7020 C   0  0  2  0  0  3  0  0  0  0  0  0
  189.7490  169.7910  137.7200 C   0  0  0  0  0  2  0  0  0  0  0  0
  191.6680  169.9280  138.8440 C   0  0  0  0  0  2  0  0  0  0  0  0
  1 26  1  1  0  0  0
  3  7  1  1  0  0  0
  3 16  1  0  0  0  0
  4 23  1  0  0  0  0
  5 15  1  0  0  0  0
  6  7  1  1  0  0  0
  6 19  1  0  0  0  0
  6  3  1  0  0  0  0
  9 27  1  0  0  0  0
 10 22  1  0  0  0  0
 10 17  2  0  0  0  0
 11 20  1  0  0  0  0
 11  5  1  0  0  0  0
 12  8  1  0  0  0  0
 13  9  1  0  0  0  0
 13 20  1  0  0  0  0
 14  2  1  0  0  0  0
 15  4  2  0  0  0  0
 15 12  1  0  0  0  0
 16  8  2  0  0  0  0
 17 25  1  0  0  0  0
 18  1  1  0  0  0  0
 18  4  1  0  0  0  0
 19  5  2  0  0  0  0
 19  3  1  0  0  0  0
 20 18  2  0  0  0  0
 22 24  2  0  0  0  0
 23 21  2  0  0  0  0
 24 13  1  0  0  0  0
 25  9  1  0  0  0  0
 25 14  1  0  0  0  0
 26 21  1  0  0  0  0
 27  2  1  0  0  0  0
 27  1  1  0  0  0  0
 28 17  1  0  0  0  0
 29 28  1  0  0  0  0
 31 32  1  0  0  0  0
 31 33  1  0  0  0  0
 32 29  1  0  0  0  0
 32 34  1  0  0  0  0
 33 30  1  0  0  0  0
 34 30  1  0  0  0  0
M  END
>  <MODEL>
4

>  <REMARK>
 VINA RESULT:      -8.8      3.988      8.347
  Name = 
  3 active torsions:
  status: ('A' for Active; 'I' for Inactive)
    1  A    between atoms: C_17  and  O_28
    2  A    between atoms: O_28  and  C_29
    3  A    between atoms: C_29  and  C_32
                            x       y       z     vdW  Elec       q    Type
                         _______ _______ _______ _____ _____    ______ ____

>  <TORSDO>
F 3

$$$$
=
 OpenBabel11112417443D

 34 42  0  0  1  0  0  0  0  0999 V2000
  192.2470  176.0670  145.0290 C   0  0  1  0  0  3  0  0  0  0  0  0
  190.7790  177.8180  144.4000 C   0  0  0  0  0  2  0  0  0  0  0  0
  194.5980  169.7080  144.6560 C   0  0  2  0  0  0  0  0  0  0  0  0
  193.9090  174.0860  145.3290 C   0  0  0  0  0  0  0  0  0  0  0  0
  193.2310  171.8880  144.5720 C   0  0  0  0  0  0  0  0  0  0  0  0
  192.8460  169.4490  143.8260 C   0  0  2  0  0  3  0  0  0  0  0  0
  193.9140  168.5950  144.0770 O   0  0  0  0  0  0  0  0  0  0  0  0
  196.2020  171.1400  145.7380 C   0  0  0  0  0  3  0  0  0  0  0  0
  190.2950  175.6970  143.5030 C   0  0  1  0  0  3  0  0  0  0  0  0
  187.6610  174.8520  142.3860 C   0  0  0  0  0  3  0  0  0  0  0  0
  191.9950  172.4110  144.1850 O   0  0  0  0  0  0  0  0  0  0  0  0
  195.5670  172.3270  145.7280 C   0  0  0  0  0  2  0  0  0  0  0  0
  190.3090  174.2710  144.0450 C   0  0  2  0  0  3  0  0  0  0  0  0
  189.3170  177.7910  144.0190 C   0  0  0  0  0  2  0  0  0  0  0  0
  194.2370  172.7790  145.2090 C   0  0  0  0  0  0  0  0  0  0  0  0
  195.7450  169.8840  145.2150 N   0  0  0  0  0  0  0  0  0  0  0  0
  187.8610  176.0490  142.9710 C   0  0  0  0  0  0  0  0  0  0  0  0
  192.6080  174.6110  144.8250 C   0  0  0  0  0  0  0  0  0  0  0  0
  193.4700  170.6090  144.3730 C   0  0  0  0  0  0  0  0  0  0  0  0
  191.6910  173.7700  144.3370 C   0  0  0  0  0  0  0  0  0  0  0  0
  194.5820  176.3480  145.9860 C   0  0  0  0  0  3  0  0  0  0  0  0
  188.4550  173.6020  142.4480 C   0  0  0  0  0  3  0  0  0  0  0  0
  194.7910  175.0350  146.0430 C   0  0  0  0  0  3  0  0  0  0  0  0
  189.5800  173.3430  143.1220 C   0  0  0  0  0  3  0  0  0  0  0  0
  188.9920  176.3250  143.9260 C   0  0  1  0  0  3  0  0  0  0  0  0
  193.5210  176.9290  145.1000 C   0  0  0  0  0  2  0  0  0  0  0  0
  191.4030  176.5800  143.9330 N   0  0  2  0  0  0  0  0  0  0  0  0
  186.9380  177.0850  142.7480 O   0  0  0  0  0  0  0  0  0  0  0  0
  185.6860  177.1960  143.4210 C   0  0  0  0  0  2  0  0  0  0  0  0
  183.7050  178.7630  145.4910 O   0  0  0  0  0  0  0  0  0  0  0  0
  185.5300  177.3200  145.8870 C   0  0  0  0  0  2  0  0  0  0  0  0
  185.8150  178.1010  144.6380 C   0  0  2  0  0  3  0  0  0  0  0  0
  184.3520  178.0360  146.5010 C   0  0  0  0  0  2  0  0  0  0  0  0
  184.7240  179.1470  144.6060 C   0  0  0  0  0  2  0  0  0  0  0  0
  1 26  1  6  0  0  0
  3  7  1  6  0  0  0
  3 16  1  0  0  0  0
  4 23  1  0  0  0  0
  5 15  1  0  0  0  0
  6  7  1  6  0  0  0
  6 19  1  0  0  0  0
  6  3  1  0  0  0  0
  9 25  1  0  0  0  0
  9 27  1  0  0  0  0
  9 13  1  0  0  0  0
 10 22  1  0  0  0  0
 10 17  2  0  0  0  0
 11 20  1  0  0  0  0
 11  5  1  0  0  0  0
 12  8  1  0  0  0  0
 13 20  1  0  0  0  0
 14  2  1  0  0  0  0
 15  4  2  0  0  0  0
 15 12  1  0  0  0  0
 16  8  2  0  0  0  0
 17 25  1  0  0  0  0
 18  1  1  0  0  0  0
 18  4  1  0  0  0  0
 19  5  2  0  0  0  0
 19  3  1  0  0  0  0
 20 18  2  0  0  0  0
 21 23  2  0  0  0  0
 22 24  2  0  0  0  0
 24 13  1  0  0  0  0
 25 14  1  0  0  0  0
 26 21  1  0  0  0  0
 27  2  1  0  0  0  0
 27  1  1  0  0  0  0
 28 17  1  0  0  0  0
 28 29  1  0  0  0  0
 29 32  1  0  0  0  0
 30 33  1  0  0  0  0
 31 33  1  0  0  0  0
 32 31  1  0  0  0  0
 34 32  1  0  0  0  0
 34 30  1  0  0  0  0
M  END
>  <MODEL>
5

>  <REMARK>
 VINA RESULT:      -8.7      3.628      6.464
  Name = 
  3 active torsions:
  status: ('A' for Active; 'I' for Inactive)
    1  A    between atoms: C_17  and  O_28
    2  A    between atoms: O_28  and  C_29
    3  A    between atoms: C_29  and  C_32
                            x       y       z     vdW  Elec       q    Type
                         _______ _______ _______ _____ _____    ______ ____

>  <TORSDO>
F 3

$$$$
=
 OpenBabel11112417443D

 34 42  0  0  1  0  0  0  0  0999 V2000
  189.7840  174.7830  144.7490 C   0  0  1  0  0  3  0  0  0  0  0  0
  191.3280  173.1880  143.9190 C   0  0  0  0  0  2  0  0  0  0  0  0
  184.1430  178.5410  144.3290 C   0  0  2  0  0  0  0  0  0  0  0  0
  187.8080  176.2720  145.5610 C   0  0  0  0  0  0  0  0  0  0  0  0
  186.2320  177.0910  143.9160 C   0  0  0  0  0  0  0  0  0  0  0  0
  184.3550  178.0720  142.4420 C   0  0  2  0  0  3  0  0  0  0  0  0
  183.4010  178.8070  143.1370 O   0  0  0  0  0  0  0  0  0  0  0  0
  184.9360  178.4570  146.6000 C   0  0  0  0  0  3  0  0  0  0  0  0
  189.6300  173.8500  142.4290 C   0  0  1  0  0  3  0  0  0  0  0  0
  189.7140  173.5360  139.4640 C   0  0  0  0  0  3  0  0  0  0  0  0
  186.9680  176.4640  142.9080 O   0  0  0  0  0  0  0  0  0  0  0  0
  186.0400  177.6950  146.4820 C   0  0  0  0  0  3  0  0  0  0  0  0
  188.9620  175.1770  142.0800 C   0  0  2  0  0  3  0  0  0  0  0  0
  191.8040  172.9160  142.5110 C   0  0  0  0  0  2  0  0  0  0  0  0
  186.7000  177.0110  145.3250 C   0  0  0  0  0  0  0  0  0  0  0  0
  184.0180  178.8560  145.5720 N   0  0  0  0  0  2  0  0  0  0  0  0
  190.7500  173.2240  140.2650 C   0  0  0  0  0  0  0  0  0  0  0  0
  188.5120  175.5530  144.4610 C   0  0  0  0  0  0  0  0  0  0  0  0
  185.1410  177.7520  143.5890 C   0  0  0  0  0  0  0  0  0  0  0  0
  188.1170  175.7170  143.1940 C   0  0  0  0  0  0  0  0  0  0  0  0
  189.3750  175.3350  147.1930 C   0  0  0  0  0  3  0  0  0  0  0  0
  188.5200  174.3790  139.7130 C   0  0  0  0  0  3  0  0  0  0  0  0
  188.4190  176.2140  146.9060 C   0  0  0  0  0  3  0  0  0  0  0  0
  188.1750  175.0590  140.8120 C   0  0  0  0  0  3  0  0  0  0  0  0
  190.9200  173.7800  141.6540 C   0  0  1  0  0  3  0  0  0  0  0  0
  189.7880  174.2850  146.2050 C   0  0  0  0  0  2  0  0  0  0  0  0
  189.9300  173.6150  143.8600 N   0  0  2  0  0  0  0  0  0  0  0  0
  191.7720  172.3950  139.7730 O   0  0  0  0  0  0  0  0  0  0  0  0
  192.3160  172.4940  138.4580 C   0  0  0  0  0  2  0  0  0  0  0  0
  193.9110  174.9670  139.8740 O   0  0  0  0  0  0  0  0  0  0  0  0
  194.3840  172.6550  139.8060 C   0  0  0  0  0  2  0  0  0  0  0  0
  193.7360  173.0380  138.5080 C   0  0  2  0  0  3  0  0  0  0  0  0
  194.7300  173.9800  140.4410 C   0  0  0  0  0  2  0  0  0  0  0  0
  193.6960  174.5490  138.5520 C   0  0  0  0  0  2  0  0  0  0  0  0
  1 26  1  1  0  0  0
  3  7  1  1  0  0  0
  3 16  1  0  0  0  0
  4 23  1  0  0  0  0
  5 15  1  0  0  0  0
  6  7  1  1  0  0  0
  6 19  1  0  0  0  0
  6  3  1  0  0  0  0
  9 27  1  0  0  0  0
 10 22  1  0  0  0  0
 10 17  2  0  0  0  0
 11 20  1  0  0  0  0
 11  5  1  0  0  0  0
 12  8  2  0  0  0  0
 13  9  1  0  0  0  0
 13 20  1  0  0  0  0
 14  2  1  0  0  0  0
 15  4  2  0  0  0  0
 15 12  1  0  0  0  0
 16  8  1  0  0  0  0
 17 25  1  0  0  0  0
 18  1  1  0  0  0  0
 18  4  1  0  0  0  0
 19  5  2  0  0  0  0
 19  3  1  0  0  0  0
 20 18  2  0  0  0  0
 22 24  2  0  0  0  0
 23 21  2  0  0  0  0
 24 13  1  0  0  0  0
 25  9  1  0  0  0  0
 25 14  1  0  0  0  0
 26 21  1  0  0  0  0
 27  2  1  0  0  0  0
 27  1  1  0  0  0  0
 28 17  1  0  0  0  0
 29 32  1  0  0  0  0
 29 28  1  0  0  0  0
 30 33  1  0  0  0  0
 31 33  1  0  0  0  0
 32 34  1  0  0  0  0
 32 31  1  0  0  0  0
 34 30  1  0  0  0  0
M  END
>  <MODEL>
6

>  <REMARK>
 VINA RESULT:      -8.6      3.201      8.597
  Name = 
  3 active torsions:
  status: ('A' for Active; 'I' for Inactive)
    1  A    between atoms: C_17  and  O_28
    2  A    between atoms: O_28  and  C_29
    3  A    between atoms: C_29  and  C_32
                            x       y       z     vdW  Elec       q    Type
                         _______ _______ _______ _____ _____    ______ ____

>  <TORSDO>
F 3

$$$$
=
 OpenBabel11112417443D

 34 42  0  0  1  0  0  0  0  0999 V2000
  189.4250  175.2630  142.7940 C   0  0  1  0  0  3  0  0  0  0  0  0
  191.5460  174.3670  142.2320 C   0  0  0  0  0  2  0  0  0  0  0  0
  185.2380  178.9360  146.6790 C   0  0  2  0  0  0  0  0  0  0  0  0
  187.2860  176.5940  143.4500 C   0  0  0  0  0  0  0  0  0  0  0  0
  187.1520  177.5330  145.6790 C   0  0  0  0  0  0  0  0  0  0  0  0
  186.7190  178.7050  147.9350 C   0  0  2  0  0  3  0  0  0  0  0  0
  185.5030  179.3760  148.0120 O   0  0  0  0  0  0  0  0  0  0  0  0
  184.2380  178.5030  144.5320 C   0  0  0  0  0  3  0  0  0  0  0  0
  191.4180  175.4960  144.2930 C   0  0  1  0  0  3  0  0  0  0  0  0
  193.3480  175.1990  146.5490 C   0  0  0  0  0  3  0  0  0  0  0  0
  188.4020  176.9850  145.9770 O   0  0  0  0  0  0  0  0  0  0  0  0
  185.1910  177.7720  143.9230 C   0  0  0  0  0  3  0  0  0  0  0  0
  190.3960  175.5580  145.4250 C   0  0  2  0  0  3  0  0  0  0  0  0
  192.6720  173.8730  143.1100 C   0  0  0  0  0  2  0  0  0  0  0  0
  186.5480  177.2970  144.3400 C   0  0  0  0  0  0  0  0  0  0  0  0
  184.2620  179.0720  145.8490 N   0  0  0  0  0  2  0  0  0  0  0  0
  193.4140  174.4620  145.4240 C   0  0  0  0  0  0  0  0  0  0  0  0
  188.6500  176.0990  143.7910 C   0  0  0  0  0  0  0  0  0  0  0  0
  186.5320  178.2410  146.6000 C   0  0  0  0  0  0  0  0  0  0  0  0
  189.1280  176.2520  145.0300 C   0  0  0  0  0  0  0  0  0  0  0  0
  187.5160  175.7070  141.1790 C   0  0  0  0  0  3  0  0  0  0  0  0
  192.2350  175.9970  147.1160 C   0  0  0  0  0  3  0  0  0  0  0  0
  186.7370  176.2120  142.1320 C   0  0  0  0  0  3  0  0  0  0  0  0
  190.9940  176.1780  146.6500 C   0  0  0  0  0  3  0  0  0  0  0  0
  192.2430  174.2520  144.5010 C   0  0  1  0  0  3  0  0  0  0  0  0
  189.0030  175.6190  141.3570 C   0  0  0  0  0  2  0  0  0  0  0  0
  190.8800  175.4770  142.9140 N   0  0  2  0  0  0  0  0  0  0  0  0
  194.6070  173.7880  145.1150 O   0  0  0  0  0  0  0  0  0  0  0  0
  195.8800  174.4240  145.0180 C   0  0  0  0  0  2  0  0  0  0  0  0
  196.9390  177.1020  143.4780 O   0  0  0  0  0  0  0  0  0  0  0  0
  197.6200  174.8480  143.3110 C   0  0  0  0  0  2  0  0  0  0  0  0
  196.1450  174.8710  143.5880 C   0  0  2  0  0  3  0  0  0  0  0  0
  197.9410  176.2770  142.9470 C   0  0  0  0  0  2  0  0  0  0  0  0
  195.7690  176.3270  143.4370 C   0  0  0  0  0  2  0  0  0  0  0  0
  1 26  1  6  0  0  0
  1 27  1  0  0  0  0
  1 18  1  0  0  0  0
  2 27  1  0  0  0  0
  2 14  1  0  0  0  0
  3 16  1  1  0  0  0
  3  6  1  0  0  0  0
  3  7  1  0  0  0  0
  4 18  1  0  0  0  0
  4 15  2  0  0  0  0
  5 11  1  0  0  0  0
  5 19  2  0  0  0  0
  6 19  1  6  0  0  0
  6  7  1  0  0  0  0
  8 16  1  0  0  0  0
  9 25  1  0  0  0  0
  9 13  1  0  0  0  0
 10 22  1  0  0  0  0
 12 15  1  0  0  0  0
 12  8  2  0  0  0  0
 13 24  1  0  0  0  0
 14 25  1  0  0  0  0
 15  5  1  0  0  0  0
 17 10  2  0  0  0  0
 18 20  2  0  0  0  0
 19  3  1  0  0  0  0
 20 13  1  0  0  0  0
 20 11  1  0  0  0  0
 21 26  1  0  0  0  0
 21 23  2  0  0  0  0
 23  4  1  0  0  0  0
 24 22  2  0  0  0  0
 25 17  1  0  0  0  0
 27  9  1  0  0  0  0
 28 17  1  0  0  0  0
 29 28  1  0  0  0  0
 31 32  1  0  0  0  0
 32 29  1  0  0  0  0
 33 31  1  0  0  0  0
 33 30  1  0  0  0  0
 34 30  1  0  0  0  0
 34 32  1  0  0  0  0
M  END
>  <MODEL>
7

>  <REMARK>
 VINA RESULT:      -8.6      3.562     10.018
  Name = 
  3 active torsions:
  status: ('A' for Active; 'I' for Inactive)
    1  A    between atoms: C_17  and  O_28
    2  A    between atoms: O_28  and  C_29
    3  A    between atoms: C_29  and  C_32
                            x       y       z     vdW  Elec       q    Type
                         _______ _______ _______ _____ _____    ______ ____

>  <TORSDO>
F 3

$$$$
=
 OpenBabel11112417443D

 34 42  0  0  1  0  0  0  0  0999 V2000
  189.8120  173.7260  143.9080 C   0  0  1  0  0  3  0  0  0  0  0  0
  189.4190  175.4180  145.5210 C   0  0  0  0  0  2  0  0  0  0  0  0
  190.0650  171.3660  137.5450 C   0  0  2  0  0  0  0  0  0  0  0  0
  190.4570  172.1440  141.9430 C   0  0  0  0  0  0  0  0  0  0  0  0
  189.6180  172.6550  139.7300 C   0  0  0  0  0  0  0  0  0  0  0  0
  188.9450  172.9430  137.2560 C   0  0  2  0  0  3  0  0  0  0  0  0
  189.4530  171.9690  136.4040 O   0  0  0  0  0  0  0  0  0  0  0  0
  191.2850  169.9190  139.0330 C   0  0  0  0  0  3  0  0  0  0  0  0
  188.8310  175.9510  143.3050 C   0  0  1  0  0  3  0  0  0  0  0  0
  186.9500  178.1190  142.4900 C   0  0  0  0  0  3  0  0  0  0  0  0
  188.9390  173.7590  140.2500 O   0  0  0  0  0  0  0  0  0  0  0  0
  191.1150  170.5320  140.2200 C   0  0  0  0  0  2  0  0  0  0  0  0
  188.1620  175.1980  142.1590 C   0  0  2  0  0  3  0  0  0  0  0  0
  188.3900  176.5230  145.5600 C   0  0  0  0  0  2  0  0  0  0  0  0
  190.4010  171.7790  140.6420 C   0  0  0  0  0  0  0  0  0  0  0  0
  190.7920  170.3220  137.7470 N   0  0  0  0  0  0  0  0  0  0  0  0
  187.1840  177.7940  143.7760 C   0  0  0  0  0  0  0  0  0  0  0  0
  189.7810  173.3790  142.4340 C   0  0  0  0  0  0  0  0  0  0  0  0
  189.5360  172.4090  138.4390 C   0  0  0  0  0  0  0  0  0  0  0  0
  189.0130  174.0950  141.6070 C   0  0  0  0  0  0  0  0  0  0  0  0
  191.3580  171.7310  144.1830 C   0  0  0  0  0  3  0  0  0  0  0  0
  187.2080  177.3630  141.2420 C   0  0  0  0  0  3  0  0  0  0  0  0
  191.1180  171.2880  142.9510 C   0  0  0  0  0  3  0  0  0  0  0  0
  187.7340  176.1440  141.0790 C   0  0  0  0  0  3  0  0  0  0  0  0
  187.7370  176.4610  144.2070 C   0  0  1  0  0  3  0  0  0  0  0  0
  191.0820  173.1550  144.5650 C   0  0  0  0  0  2  0  0  0  0  0  0
  189.7960  175.1850  144.1260 N   0  0  2  0  0  0  0  0  0  0  0  0
  186.8350  178.7040  144.7880 O   0  0  0  0  0  0  0  0  0  0  0  0
  185.5690  179.3560  144.8720 C   0  0  0  0  0  2  0  0  0  0  0  0
  185.3450  176.8810  146.9900 O   0  0  0  0  0  0  0  0  0  0  0  0
  185.9460  179.1410  147.3070 C   0  0  0  0  0  2  0  0  0  0  0  0
  184.9160  179.0800  146.2180 C   0  0  2  0  0  3  0  0  0  0  0  0
  185.8990  177.7660  147.9270 C   0  0  0  0  0  2  0  0  0  0  0  0
  184.4270  177.6500  146.2580 C   0  0  0  0  0  2  0  0  0  0  0  0
  1 27  1  0  0  0  0
  1 26  1  6  0  0  0
  2 14  1  0  0  0  0
  3  7  1  6  0  0  0
  3 16  1  0  0  0  0
  3 19  1  0  0  0  0
  4 18  1  0  0  0  0
  4 23  1  0  0  0  0
  5 11  1  0  0  0  0
  5 15  1  0  0  0  0
  6  7  1  6  0  0  0
  6  3  1  0  0  0  0
  6 19  1  0  0  0  0
  8 12  1  0  0  0  0
  9 27  1  0  0  0  0
  9 25  1  0  0  0  0
 10 17  2  0  0  0  0
 11 20  1  0  0  0  0
 12 15  1  0  0  0  0
 13  9  1  0  0  0  0
 15  4  2  0  0  0  0
 16  8  2  0  0  0  0
 17 25  1  0  0  0  0
 17 28  1  0  0  0  0
 18  1  1  0  0  0  0
 19  5  2  0  0  0  0
 20 13  1  0  0  0  0
 20 18  2  0  0  0  0
 21 26  1  0  0  0  0
 22 10  1  0  0  0  0
 23 21  2  0  0  0  0
 24 22  2  0  0  0  0
 24 13  1  0  0  0  0
 25 14  1  0  0  0  0
 27  2  1  0  0  0  0
 28 29  1  0  0  0  0
 29 32  1  0  0  0  0
 30 33  1  0  0  0  0
 31 33  1  0  0  0  0
 32 34  1  0  0  0  0
 32 31  1  0  0  0  0
 34 30  1  0  0  0  0
M  END
>  <MODEL>
8

>  <REMARK>
 VINA RESULT:      -8.5      4.347      7.117
  Name = 
  3 active torsions:
  status: ('A' for Active; 'I' for Inactive)
    1  A    between atoms: C_17  and  O_28
    2  A    between atoms: O_28  and  C_29
    3  A    between atoms: C_29  and  C_32
                            x       y       z     vdW  Elec       q    Type
                         _______ _______ _______ _____ _____    ______ ____

>  <TORSDO>
F 3

$$$$
=
 OpenBabel11112417443D

 34 42  0  0  1  0  0  0  0  0999 V2000
  189.3220  175.3330  142.6720 C   0  0  1  0  0  3  0  0  0  0  0  0
  191.4400  174.4280  142.1130 C   0  0  0  0  0  2  0  0  0  0  0  0
  185.0910  178.8220  146.6780 C   0  0  2  0  0  0  0  0  0  0  0  0
  187.1920  176.6650  143.3550 C   0  0  0  0  0  0  0  0  0  0  0  0
  187.0060  177.4480  145.6390 C   0  0  0  0  0  0  0  0  0  0  0  0
  186.5250  178.4670  147.9600 C   0  0  2  0  0  3  0  0  0  0  0  0
  185.3230  179.1600  148.0460 O   0  0  0  0  0  0  0  0  0  0  0  0
  184.1530  178.5670  144.4750 C   0  0  0  0  0  3  0  0  0  0  0  0
  191.2690  175.4110  144.2450 C   0  0  1  0  0  3  0  0  0  0  0  0
  193.1170  174.9080  146.5330 C   0  0  0  0  0  3  0  0  0  0  0  0
  188.2330  176.8490  145.9360 O   0  0  0  0  0  0  0  0  0  0  0  0
  185.1090  177.8580  143.8460 C   0  0  0  0  0  3  0  0  0  0  0  0
  190.2120  175.4170  145.3460 C   0  0  2  0  0  3  0  0  0  0  0  0
  192.5250  173.8460  142.9880 C   0  0  0  0  0  2  0  0  0  0  0  0
  186.4410  177.3210  144.2700 C   0  0  0  0  0  0  0  0  0  0  0  0
  184.1460  179.0410  145.8300 N   0  0  0  0  0  2  0  0  0  0  0  0
  193.2040  174.2510  145.3600 C   0  0  0  0  0  0  0  0  0  0  0  0
  188.5330  176.1150  143.7020 C   0  0  0  0  0  0  0  0  0  0  0  0
  186.3720  178.1030  146.5890 C   0  0  0  0  0  0  0  0  0  0  0  0
  188.9730  176.1680  144.9630 C   0  0  0  0  0  0  0  0  0  0  0  0
  187.4770  175.9360  141.0350 C   0  0  0  0  0  3  0  0  0  0  0  0
  192.0040  175.6900  147.1210 C   0  0  0  0  0  3  0  0  0  0  0  0
  186.6780  176.3910  141.9960 C   0  0  0  0  0  3  0  0  0  0  0  0
  190.7840  175.9340  146.6300 C   0  0  0  0  0  3  0  0  0  0  0  0
  192.0590  174.1360  144.3880 C   0  0  1  0  0  3  0  0  0  0  0  0
  188.9550  175.8000  141.2510 C   0  0  0  0  0  2  0  0  0  0  0  0
  190.7760  175.5020  142.8520 N   0  0  2  0  0  0  0  0  0  0  0  0
  194.3920  173.5720  145.0410 O   0  0  0  0  0  0  0  0  0  0  0  0
  194.7570  172.3050  145.5850 C   0  0  0  0  0  2  0  0  0  0  0  0
  197.4420  173.0900  143.9000 O   0  0  0  0  0  0  0  0  0  0  0  0
  196.8160  173.5650  146.1260 C   0  0  0  0  0  2  0  0  0  0  0  0
  196.2650  172.2170  145.7630 C   0  0  2  0  0  3  0  0  0  0  0  0
  197.7900  173.8680  145.0130 C   0  0  0  0  0  2  0  0  0  0  0  0
  196.9130  171.9040  144.4330 C   0  0  0  0  0  2  0  0  0  0  0  0
  1 26  1  6  0  0  0
  1 27  1  0  0  0  0
  1 18  1  0  0  0  0
  2 27  1  0  0  0  0
  2 14  1  0  0  0  0
  3 16  1  1  0  0  0
  3  6  1  0  0  0  0
  3  7  1  0  0  0  0
  4 18  1  0  0  0  0
  4 15  2  0  0  0  0
  5 11  1  0  0  0  0
  5 19  2  0  0  0  0
  6 19  1  6  0  0  0
  6  7  1  0  0  0  0
  8 16  1  0  0  0  0
  9 25  1  0  0  0  0
  9 13  1  0  0  0  0
 10 22  1  0  0  0  0
 12 15  1  0  0  0  0
 12  8  2  0  0  0  0
 13 24  1  0  0  0  0
 14 25  1  0  0  0  0
 15  5  1  0  0  0  0
 17 10  2  0  0  0  0
 18 20  2  0  0  0  0
 19  3  1  0  0  0  0
 20 13  1  0  0  0  0
 20 11  1  0  0  0  0
 21 26  1  0  0  0  0
 21 23  2  0  0  0  0
 23  4  1  0  0  0  0
 24 22  2  0  0  0  0
 25 17  1  0  0  0  0
 27  9  1  0  0  0  0
 28 17  1  0  0  0  0
 28 29  1  0  0  0  0
 29 32  1  0  0  0  0
 30 34  1  0  0  0  0
 30 33  1  0  0  0  0
 32 31  1  0  0  0  0
 33 31  1  0  0  0  0
 34 32  1  0  0  0  0
M  END
>  <MODEL>
9

>  <REMARK>
 VINA RESULT:      -8.5      3.519     10.343
  Name = 
  3 active torsions:
  status: ('A' for Active; 'I' for Inactive)
    1  A    between atoms: C_17  and  O_28
    2  A    between atoms: O_28  and  C_29
    3  A    between atoms: C_29  and  C_32
                            x       y       z     vdW  Elec       q    Type
                         _______ _______ _______ _____ _____    ______ ____

>  <TORSDO>
F 3

$$$$
