=
 OpenBabel11112417453D

 34 41  0  0  1  0  0  0  0  0999 V2000
  189.3160  175.3430  142.4690 C   0  0  0  0  0  0  0  0  0  0  0  0
  191.6700  174.4180  142.0770 C   0  0  0  0  0  3  0  0  0  0  0  0
  185.7580  179.0980  146.1890 C   0  0  2  0  0  3  0  0  0  0  0  0
  187.2600  176.4070  143.0920 C   0  0  0  0  0  0  0  0  0  0  0  0
  187.1790  177.2970  145.4290 C   0  0  1  0  0  3  0  0  0  0  0  0
  186.7220  178.1940  147.8530 C   0  0  0  0  0  2  0  0  0  0  0  0
  185.9920  179.5150  147.6230 C   0  0  0  0  0  2  0  0  0  0  0  0
  184.2950  178.1500  144.3810 C   0  0  0  0  0  2  0  0  0  0  0  0
  190.9830  174.7910  144.2300 C   0  0  0  0  0  0  0  0  0  0  0  0
  193.0930  174.7410  146.5580 C   0  0  0  0  0  2  0  0  0  0  0  0
  187.9640  176.1370  145.8580 N   0  0  0  0  0  2  0  0  0  0  0  0
  185.5810  178.0910  143.6690 N   0  0  0  0  0  2  0  0  0  0  0  0
  190.2100  175.3180  145.2070 C   0  0  0  0  0  0  0  0  0  0  0  0
  192.7080  174.1000  142.8480 C   0  0  0  0  0  3  0  0  0  0  0  0
  186.3510  176.9380  144.1630 C   0  0  1  0  0  3  0  0  0  0  0  0
  184.3490  179.0650  145.6280 C   0  0  0  0  0  2  0  0  0  0  0  0
  193.2820  175.1210  145.1040 C   0  0  2  0  0  3  0  0  0  0  0  0
  188.4780  175.8370  143.4620 C   0  0  0  0  0  0  0  0  0  0  0  0
  186.2040  177.7000  146.5150 C   0  0  1  0  0  3  0  0  0  0  0  0
  188.8950  175.8140  144.8460 N   0  0  0  0  0  0  0  0  0  0  0  0
  187.7260  175.9110  140.8220 C   0  0  0  0  0  3  0  0  0  0  0  0
  191.8550  175.3140  147.1770 C   0  0  0  0  0  3  0  0  0  0  0  0
  186.8980  176.4130  141.7810 N   0  0  0  0  0  0  0  0  0  0  0  0
  190.6600  175.5220  146.6080 C   0  0  0  0  0  3  0  0  0  0  0  0
  192.3540  174.2140  144.3130 C   0  0  1  0  0  3  0  0  0  0  0  0
  188.9330  175.3840  141.1660 N   0  0  0  0  0  0  0  0  0  0  0  0
  190.5680  174.8020  142.8780 N   0  0  0  0  0  0  0  0  0  0  0  0
  194.6140  174.8820  144.7520 O   0  0  0  0  0  0  0  0  0  0  0  0
  195.3100  174.8970  145.9640 C   0  0  0  0  0  2  0  0  0  0  0  0
  196.9420  172.1350  144.5350 C   0  0  0  0  0  2  0  0  0  0  0  0
  197.2420  174.4290  144.4680 C   0  0  0  0  0  2  0  0  0  0  0  0
  196.6200  174.1460  145.8180 C   0  0  2  0  0  3  0  0  0  0  0  0
  197.7850  173.1760  143.9670 N   0  0  0  0  0  2  0  0  0  0  0  0
  196.3650  172.6600  145.8330 C   0  0  0  0  0  2  0  0  0  0  0  0
  1 27  1  0  0  0  0
  1 18  1  0  0  0  0
  2 14  2  0  0  0  0
  2 27  1  0  0  0  0
  3 16  1  1  0  0  0
  3 19  1  0  0  0  0
  3  7  1  0  0  0  0
  4 18  2  0  0  0  0
  5 11  1  1  0  0  0
  5 19  1  0  0  0  0
  7  6  1  0  0  0  0
  8 16  1  0  0  0  0
  9 25  1  0  0  0  0
  9 13  2  0  0  0  0
 10 22  1  0  0  0  0
 12 15  1  0  0  0  0
 12  8  1  0  0  0  0
 13 24  1  0  0  0  0
 15  4  1  6  0  0  0
 15  5  1  0  0  0  0
 17 28  1  6  0  0  0
 17 10  1  0  0  0  0
 18 20  1  0  0  0  0
 19  6  1  1  0  0  0
 20 13  1  0  0  0  0
 20 11  1  0  0  0  0
 21 26  1  0  0  0  0
 21 23  2  0  0  0  0
 23  4  1  0  0  0  0
 24 22  2  0  0  0  0
 25 14  1  6  0  0  0
 25 17  1  0  0  0  0
 26  1  2  0  0  0  0
 27  9  1  0  0  0  0
 28 29  1  0  0  0  0
 30 34  1  0  0  0  0
 31 32  1  0  0  0  0
 32 34  1  0  0  0  0
 32 29  1  6  0  0  0
 33 31  1  0  0  0  0
 33 30  1  0  0  0  0
M  END
>  <MODEL>
1

>  <REMARK>
 VINA RESULT:      -8.9      0.000      0.000
  Name = 
  3 active torsions:
  status: ('A' for Active; 'I' for Inactive)
    1  A    between atoms: C_17  and  O_28
    2  A    between atoms: O_28  and  C_29
    3  A    between atoms: C_29  and  C_32
                            x       y       z     vdW  Elec       q    Type
                         _______ _______ _______ _____ _____    ______ ____

>  <TORSDO>
F 3

$$$$
=
 OpenBabel11112417453D

 34 41  0  0  1  0  0  0  0  0999 V2000
  189.3320  175.4240  142.4770 C   0  0  0  0  0  0  0  0  0  0  0  0
  191.7050  174.5610  142.0580 C   0  0  0  0  0  3  0  0  0  0  0  0
  185.7270  179.1190  146.2110 C   0  0  2  0  0  3  0  0  0  0  0  0
  187.2570  176.4370  143.1210 C   0  0  0  0  0  0  0  0  0  0  0  0
  187.1870  177.3500  145.4490 C   0  0  1  0  0  3  0  0  0  0  0  0
  186.7410  178.2600  147.8700 C   0  0  0  0  0  2  0  0  0  0  0  0
  185.9710  179.5580  147.6380 C   0  0  0  0  0  2  0  0  0  0  0  0
  184.2640  178.1110  144.4360 C   0  0  0  0  0  2  0  0  0  0  0  0
  191.0410  174.9380  144.2180 C   0  0  0  0  0  0  0  0  0  0  0  0
  193.1860  174.9720  146.5130 C   0  0  0  0  0  2  0  0  0  0  0  0
  188.0100  176.2170  145.8780 N   0  0  0  0  0  2  0  0  0  0  0  0
  185.5400  178.0800  143.7050 N   0  0  0  0  0  2  0  0  0  0  0  0
  190.2680  175.4540  145.2000 C   0  0  0  0  0  0  0  0  0  0  0  0
  192.7630  174.2800  142.8160 C   0  0  0  0  0  3  0  0  0  0  0  0
  186.3490  176.9550  144.1990 C   0  0  1  0  0  3  0  0  0  0  0  0
  184.3110  179.0410  145.6730 C   0  0  0  0  0  2  0  0  0  0  0  0
  193.3420  175.3420  145.0520 C   0  0  2  0  0  3  0  0  0  0  0  0
  188.4960  175.9050  143.4770 C   0  0  0  0  0  0  0  0  0  0  0  0
  186.2170  177.7380  146.5450 C   0  0  1  0  0  3  0  0  0  0  0  0
  188.9350  175.9090  144.8550 N   0  0  0  0  0  0  0  0  0  0  0  0
  187.7030  175.9300  140.8480 C   0  0  0  0  0  3  0  0  0  0  0  0
  191.9420  175.5170  147.1450 C   0  0  0  0  0  3  0  0  0  0  0  0
  186.8750  176.4190  141.8150 N   0  0  0  0  0  0  0  0  0  0  0  0
  190.7330  175.6850  146.5920 C   0  0  0  0  0  3  0  0  0  0  0  0
  192.4280  174.4000  144.2860 C   0  0  1  0  0  3  0  0  0  0  0  0
  188.9290  175.4400  141.1790 N   0  0  0  0  0  0  0  0  0  0  0  0
  190.6050  174.9220  142.8720 N   0  0  0  0  0  0  0  0  0  0  0  0
  194.6750  175.1350  144.6830 O   0  0  0  0  0  0  0  0  0  0  0  0
  195.2120  176.4190  144.5560 C   0  0  0  0  0  2  0  0  0  0  0  0
  197.0430  174.5020  142.2520 C   0  0  0  0  0  2  0  0  0  0  0  0
  195.7480  176.4160  142.1260 C   0  0  0  0  0  2  0  0  0  0  0  0
  196.3250  176.4150  143.5250 C   0  0  2  0  0  3  0  0  0  0  0  0
  196.5510  175.5080  141.3230 N   0  0  0  0  0  2  0  0  0  0  0  0
  197.1150  175.1330  143.6270 C   0  0  0  0  0  2  0  0  0  0  0  0
  1 27  1  0  0  0  0
  1 18  1  0  0  0  0
  2 14  2  0  0  0  0
  2 27  1  0  0  0  0
  3 16  1  1  0  0  0
  3 19  1  0  0  0  0
  3  7  1  0  0  0  0
  4 18  2  0  0  0  0
  5 11  1  1  0  0  0
  5 19  1  0  0  0  0
  7  6  1  0  0  0  0
  8 16  1  0  0  0  0
  9 25  1  0  0  0  0
  9 13  2  0  0  0  0
 10 22  1  0  0  0  0
 12 15  1  0  0  0  0
 12  8  1  0  0  0  0
 13 24  1  0  0  0  0
 15  4  1  6  0  0  0
 15  5  1  0  0  0  0
 17 28  1  6  0  0  0
 17 10  1  0  0  0  0
 18 20  1  0  0  0  0
 19  6  1  1  0  0  0
 20 13  1  0  0  0  0
 20 11  1  0  0  0  0
 21 26  1  0  0  0  0
 21 23  2  0  0  0  0
 23  4  1  0  0  0  0
 24 22  2  0  0  0  0
 25 14  1  6  0  0  0
 25 17  1  0  0  0  0
 26  1  2  0  0  0  0
 27  9  1  0  0  0  0
 29 28  1  0  0  0  0
 30 34  1  0  0  0  0
 31 32  1  0  0  0  0
 32 34  1  0  0  0  0
 32 29  1  1  0  0  0
 33 31  1  0  0  0  0
 33 30  1  0  0  0  0
M  END
>  <MODEL>
2

>  <REMARK>
 VINA RESULT:      -8.7      1.181      1.364
  Name = 
  3 active torsions:
  status: ('A' for Active; 'I' for Inactive)
    1  A    between atoms: C_17  and  O_28
    2  A    between atoms: O_28  and  C_29
    3  A    between atoms: C_29  and  C_32
                            x       y       z     vdW  Elec       q    Type
                         _______ _______ _______ _____ _____    ______ ____

>  <TORSDO>
F 3

$$$$
=
 OpenBabel11112417453D

 34 41  0  0  1  0  0  0  0  0999 V2000
  189.7900  174.9150  142.1170 C   0  0  0  0  0  0  0  0  0  0  0  0
  187.4410  175.6910  142.7760 C   0  0  0  0  0  3  0  0  0  0  0  0
  195.4530  173.0190  144.3370 C   0  0  2  0  0  3  0  0  0  0  0  0
  192.0400  174.1330  141.8470 C   0  0  0  0  0  0  0  0  0  0  0  0
  193.5040  174.3680  143.8630 C   0  0  1  0  0  3  0  0  0  0  0  0
  195.3270  174.6150  145.7340 C   0  0  0  0  0  2  0  0  0  0  0  0
  196.0900  173.2930  145.6810 C   0  0  0  0  0  2  0  0  0  0  0  0
  195.5310  172.9900  141.8270 C   0  0  0  0  0  2  0  0  0  0  0  0
  189.2050  176.2760  144.1150 C   0  0  0  0  0  0  0  0  0  0  0  0
  188.6530  177.4610  146.9720 C   0  0  0  0  0  2  0  0  0  0  0  0
  192.8330  175.6360  144.1560 N   0  0  0  0  0  2  0  0  0  0  0  0
  194.0830  172.7950  141.9980 N   0  0  0  0  0  2  0  0  0  0  0  0
  190.4620  176.1970  144.6070 C   0  0  0  0  0  0  0  0  0  0  0  0
  186.9130  176.3710  143.7920 C   0  0  0  0  0  3  0  0  0  0  0  0
  193.4600  174.0850  142.3340 C   0  0  1  0  0  3  0  0  0  0  0  0
  196.3240  172.7270  143.1290 C   0  0  0  0  0  2  0  0  0  0  0  0
  187.8210  176.4860  146.1640 C   0  0  2  0  0  3  0  0  0  0  0  0
  191.1030  174.8700  142.5710 C   0  0  0  0  0  0  0  0  0  0  0  0
  194.9600  174.4370  144.2720 C   0  0  1  0  0  3  0  0  0  0  0  0
  191.4690  175.5250  143.8070 N   0  0  0  0  0  0  0  0  0  0  0  0
  190.3720  173.5940  140.2520 C   0  0  0  0  0  3  0  0  0  0  0  0
  190.1200  177.1590  146.9610 C   0  0  0  0  0  3  0  0  0  0  0  0
  191.6610  173.5270  140.6890 N   0  0  0  0  0  0  0  0  0  0  0  0
  190.8590  176.6590  145.9620 C   0  0  0  0  0  3  0  0  0  0  0  0
  187.9910  176.9000  144.7110 C   0  0  1  0  0  3  0  0  0  0  0  0
  189.4400  174.2810  140.9670 N   0  0  0  0  0  0  0  0  0  0  0  0
  188.8510  175.6460  142.8990 N   0  0  0  0  0  0  0  0  0  0  0  0
  186.4850  176.6140  146.5530 O   0  0  0  0  0  0  0  0  0  0  0  0
  186.4660  177.7230  147.4030 C   0  0  0  0  0  2  0  0  0  0  0  0
  184.9540  179.4180  144.7240 C   0  0  0  0  0  2  0  0  0  0  0  0
  184.2270  177.9270  146.3380 C   0  0  0  0  0  2  0  0  0  0  0  0
  185.3710  178.6820  146.9780 C   0  0  2  0  0  3  0  0  0  0  0  0
  183.7760  178.7040  145.1950 N   0  0  0  0  0  2  0  0  0  0  0  0
  185.8860  179.6070  145.9030 C   0  0  0  0  0  2  0  0  0  0  0  0
  1 18  1  0  0  0  0
  1 27  1  0  0  0  0
  2 27  1  0  0  0  0
  2 14  2  0  0  0  0
  3 16  1  6  0  0  0
  3  7  1  0  0  0  0
  4 18  2  0  0  0  0
  5 11  1  6  0  0  0
  5 19  1  0  0  0  0
  7  6  1  0  0  0  0
  8 12  1  0  0  0  0
  8 16  1  0  0  0  0
  9 13  2  0  0  0  0
  9 25  1  0  0  0  0
 12 15  1  0  0  0  0
 13 24  1  0  0  0  0
 15  4  1  1  0  0  0
 15  5  1  0  0  0  0
 17 28  1  1  0  0  0
 17 10  1  0  0  0  0
 18 20  1  0  0  0  0
 19  3  1  0  0  0  0
 19  6  1  1  0  0  0
 20 11  1  0  0  0  0
 20 13  1  0  0  0  0
 21 23  2  0  0  0  0
 21 26  1  0  0  0  0
 22 10  1  0  0  0  0
 23  4  1  0  0  0  0
 24 22  2  0  0  0  0
 25 14  1  6  0  0  0
 25 17  1  0  0  0  0
 26  1  2  0  0  0  0
 27  9  1  0  0  0  0
 28 29  1  0  0  0  0
 30 33  1  0  0  0  0
 30 34  1  0  0  0  0
 31 32  1  0  0  0  0
 32 29  1  6  0  0  0
 33 31  1  0  0  0  0
 34 32  1  0  0  0  0
M  END
>  <MODEL>
3

>  <REMARK>
 VINA RESULT:      -8.5      2.219      8.384
  Name = 
  3 active torsions:
  status: ('A' for Active; 'I' for Inactive)
    1  A    between atoms: C_17  and  O_28
    2  A    between atoms: O_28  and  C_29
    3  A    between atoms: C_29  and  C_32
                            x       y       z     vdW  Elec       q    Type
                         _______ _______ _______ _____ _____    ______ ____

>  <TORSDO>
F 3

$$$$
=
 OpenBabel11112417453D

 34 41  0  0  1  0  0  0  0  0999 V2000
  192.2450  176.1830  145.5710 C   0  0  0  0  0  0  0  0  0  0  0  0
  190.1150  177.1810  146.5820 C   0  0  0  0  0  3  0  0  0  0  0  0
  195.3860  175.0480  140.1450 C   0  0  2  0  0  3  0  0  0  0  0  0
  194.1190  175.3750  144.3140 C   0  0  0  0  0  0  0  0  0  0  0  0
  193.6970  175.0140  141.8740 C   0  0  1  0  0  3  0  0  0  0  0  0
  193.5380  174.3880  139.3300 C   0  0  0  0  0  2  0  0  0  0  0  0
  194.8440  174.9160  138.7400 C   0  0  0  0  0  2  0  0  0  0  0  0
  196.7710  174.2000  142.0610 C   0  0  0  0  0  2  0  0  0  0  0  0
  189.9830  176.1620  144.5340 C   0  0  0  0  0  0  0  0  0  0  0  0
  187.4020  176.5360  142.7830 C   0  0  0  0  0  2  0  0  0  0  0  0
  192.3500  174.5520  142.2140 N   0  0  0  0  0  2  0  0  0  0  0  0
  196.0230  175.2400  142.7820 N   0  0  0  0  0  2  0  0  0  0  0  0
  190.4580  175.6550  143.3740 C   0  0  0  0  0  0  0  0  0  0  0  0
  188.8480  177.3120  146.1930 C   0  0  0  0  0  3  0  0  0  0  0  0
  194.6650  174.7490  143.0630 C   0  0  1  0  0  3  0  0  0  0  0  0
  196.6870  174.3650  140.5240 C   0  0  0  0  0  2  0  0  0  0  0  0
  188.0140  177.4800  143.7980 C   0  0  2  0  0  3  0  0  0  0  0  0
  192.7470  175.6060  144.4100 C   0  0  0  0  0  0  0  0  0  0  0  0
  194.2260  174.2530  140.6760 C   0  0  1  0  0  3  0  0  0  0  0  0
  191.8660  175.3100  143.3020 N   0  0  0  0  0  0  0  0  0  0  0  0
  194.4080  176.2190  146.5100 C   0  0  0  0  0  3  0  0  0  0  0  0
  188.4020  175.9090  141.8610 C   0  0  0  0  0  3  0  0  0  0  0  0
  194.9210  175.6660  145.3740 N   0  0  0  0  0  0  0  0  0  0  0  0
  189.6570  175.5250  142.1300 C   0  0  0  0  0  3  0  0  0  0  0  0
  188.6020  176.5960  144.8850 C   0  0  1  0  0  3  0  0  0  0  0  0
  193.0760  176.4810  146.6040 N   0  0  0  0  0  0  0  0  0  0  0  0
  190.8450  176.4390  145.6220 N   0  0  0  0  0  0  0  0  0  0  0  0
  187.0000  178.2860  144.3220 O   0  0  0  0  0  0  0  0  0  0  0  0
  185.8430  177.5080  144.2280 C   0  0  0  0  0  2  0  0  0  0  0  0
  185.5680  177.6170  147.7280 C   0  0  0  0  0  2  0  0  0  0  0  0
  185.2520  179.1380  146.0130 C   0  0  0  0  0  2  0  0  0  0  0  0
  184.9350  177.7860  145.4120 C   0  0  2  0  0  3  0  0  0  0  0  0
  185.1930  178.9970  147.4590 N   0  0  0  0  0  2  0  0  0  0  0  0
  185.2050  176.7910  146.5120 C   0  0  0  0  0  2  0  0  0  0  0  0
  1 27  1  0  0  0  0
  1 26  1  0  0  0  0
  3  7  1  6  0  0  0
  3 16  1  0  0  0  0
  3 19  1  0  0  0  0
  4 18  1  0  0  0  0
  4 23  2  0  0  0  0
  5 11  1  1  0  0  0
  5 15  1  0  0  0  0
  7  6  1  0  0  0  0
  8 12  1  0  0  0  0
  9 25  1  0  0  0  0
  9 27  1  0  0  0  0
 10 17  1  0  0  0  0
 11 20  1  0  0  0  0
 13  9  2  0  0  0  0
 14  2  2  0  0  0  0
 15 12  1  6  0  0  0
 15  4  1  0  0  0  0
 16  8  1  0  0  0  0
 17 28  1  1  0  0  0
 17 25  1  0  0  0  0
 18  1  2  0  0  0  0
 19  6  1  6  0  0  0
 19  5  1  0  0  0  0
 20 13  1  0  0  0  0
 20 18  1  0  0  0  0
 21 26  2  0  0  0  0
 22 24  2  0  0  0  0
 22 10  1  0  0  0  0
 23 21  1  0  0  0  0
 24 13  1  0  0  0  0
 25 14  1  1  0  0  0
 27  2  1  0  0  0  0
 29 28  1  0  0  0  0
 31 33  1  0  0  0  0
 32 29  1  6  0  0  0
 32 31  1  0  0  0  0
 32 34  1  0  0  0  0
 33 30  1  0  0  0  0
 34 30  1  0  0  0  0
M  END
>  <MODEL>
4

>  <REMARK>
 VINA RESULT:      -8.3      2.741      9.058
  Name = 
  3 active torsions:
  status: ('A' for Active; 'I' for Inactive)
    1  A    between atoms: C_17  and  O_28
    2  A    between atoms: O_28  and  C_29
    3  A    between atoms: C_29  and  C_32
                            x       y       z     vdW  Elec       q    Type
                         _______ _______ _______ _____ _____    ______ ____

>  <TORSDO>
F 3

$$$$
=
 OpenBabel11112417453D

 34 41  0  0  1  0  0  0  0  0999 V2000
  189.7010  174.5710  144.4770 C   0  0  0  0  0  0  0  0  0  0  0  0
  190.5880  172.8700  142.7820 C   0  0  0  0  0  3  0  0  0  0  0  0
  184.8390  178.4320  145.9070 C   0  0  2  0  0  3  0  0  0  0  0  0
  188.5700  176.1600  145.8710 C   0  0  0  0  0  0  0  0  0  0  0  0
  186.7180  177.4280  144.7660 C   0  0  1  0  0  3  0  0  0  0  0  0
  184.8380  179.0230  143.8660 C   0  0  0  0  0  2  0  0  0  0  0  0
  183.8030  179.0410  144.9890 C   0  0  0  0  0  2  0  0  0  0  0  0
  186.5750  178.6360  147.7100 C   0  0  0  0  0  2  0  0  0  0  0  0
  189.3090  174.6110  142.0210 C   0  0  0  0  0  0  0  0  0  0  0  0
  188.1910  174.5410  139.0860 C   0  0  0  0  0  2  0  0  0  0  0  0
  187.5160  177.4490  143.5380 N   0  0  0  0  0  2  0  0  0  0  0  0
  186.8910  177.2700  147.2620 N   0  0  0  0  0  2  0  0  0  0  0  0
  188.4320  175.6350  142.1200 C   0  0  0  0  0  0  0  0  0  0  0  0
  190.4700  172.6840  141.4690 C   0  0  0  0  0  3  0  0  0  0  0  0
  187.6540  177.3410  146.0060 C   0  0  1  0  0  3  0  0  0  0  0  0
  185.1920  179.1180  147.2140 C   0  0  0  0  0  2  0  0  0  0  0  0
  188.5070  173.3880  140.0160 C   0  0  2  0  0  3  0  0  0  0  0  0
  188.8500  175.6630  144.5980 C   0  0  0  0  0  0  0  0  0  0  0  0
  185.9120  178.7030  144.8900 C   0  0  1  0  0  3  0  0  0  0  0  0
  188.2190  176.2290  143.4270 N   0  0  0  0  0  0  0  0  0  0  0  0
  190.0220  174.5410  146.8130 C   0  0  0  0  0  3  0  0  0  0  0  0
  187.4600  175.6690  139.7460 C   0  0  0  0  0  3  0  0  0  0  0  0
  189.1790  175.6020  146.9530 N   0  0  0  0  0  0  0  0  0  0  0  0
  187.5920  176.1260  140.9980 C   0  0  0  0  0  3  0  0  0  0  0  0
  189.7180  173.8250  140.8230 C   0  0  1  0  0  3  0  0  0  0  0  0
  190.2770  174.0240  145.5800 N   0  0  0  0  0  0  0  0  0  0  0  0
  189.9360  174.0660  143.1660 N   0  0  0  0  0  0  0  0  0  0  0  0
  188.8160  172.2650  139.2430 O   0  0  0  0  0  0  0  0  0  0  0  0
  189.0220  172.7670  137.9550 C   0  0  0  0  0  2  0  0  0  0  0  0
  192.4890  172.3510  138.3320 C   0  0  0  0  0  2  0  0  0  0  0  0
  190.6830  170.9210  138.1110 C   0  0  0  0  0  2  0  0  0  0  0  0
  190.2910  172.1780  137.3670 C   0  0  2  0  0  3  0  0  0  0  0  0
  192.1280  170.9430  138.2730 N   0  0  0  0  0  2  0  0  0  0  0  0
  191.4410  173.1330  137.5670 C   0  0  0  0  0  2  0  0  0  0  0  0
  1 18  2  0  0  0  0
  1 26  1  0  0  0  0
  2 27  1  0  0  0  0
  3  7  1  6  0  0  0
  3 16  1  0  0  0  0
  4 23  2  0  0  0  0
  5 11  1  6  0  0  0
  5 19  1  0  0  0  0
  5 15  1  0  0  0  0
  6  7  1  0  0  0  0
  9 13  2  0  0  0  0
  9 27  1  0  0  0  0
 10 22  1  0  0  0  0
 10 17  1  0  0  0  0
 12  8  1  0  0  0  0
 13 20  1  0  0  0  0
 14  2  2  0  0  0  0
 15  4  1  6  0  0  0
 15 12  1  0  0  0  0
 16  8  1  0  0  0  0
 17 28  1  6  0  0  0
 17 25  1  0  0  0  0
 18  4  1  0  0  0  0
 19  6  1  6  0  0  0
 19  3  1  0  0  0  0
 20 11  1  0  0  0  0
 20 18  1  0  0  0  0
 21 23  1  0  0  0  0
 22 24  2  0  0  0  0
 24 13  1  0  0  0  0
 25 14  1  1  0  0  0
 25  9  1  0  0  0  0
 26 21  2  0  0  0  0
 27  1  1  0  0  0  0
 29 28  1  0  0  0  0
 31 33  1  0  0  0  0
 32 34  1  0  0  0  0
 32 29  1  1  0  0  0
 32 31  1  0  0  0  0
 33 30  1  0  0  0  0
 34 30  1  0  0  0  0
M  END
>  <MODEL>
5

>  <REMARK>
 VINA RESULT:      -8.0      3.533      5.726
  Name = 
  3 active torsions:
  status: ('A' for Active; 'I' for Inactive)
    1  A    between atoms: C_17  and  O_28
    2  A    between atoms: O_28  and  C_29
    3  A    between atoms: C_29  and  C_32
                            x       y       z     vdW  Elec       q    Type
                         _______ _______ _______ _____ _____    ______ ____

>  <TORSDO>
F 3

$$$$
=
 OpenBabel11112417453D

 34 41  0  0  1  0  0  0  0  0999 V2000
  188.5870  176.5940  146.6350 C   0  0  0  0  0  0  0  0  0  0  0  0
  190.6830  175.5630  147.6840 C   0  0  0  0  0  3  0  0  0  0  0  0
  185.4220  177.5230  141.1850 C   0  0  2  0  0  3  0  0  0  0  0  0
  186.7350  177.4080  145.3500 C   0  0  0  0  0  0  0  0  0  0  0  0
  187.1360  177.5890  142.8870 C   0  0  1  0  0  3  0  0  0  0  0  0
  187.2860  178.0400  140.3070 C   0  0  0  0  0  2  0  0  0  0  0  0
  185.9480  177.5380  139.7680 C   0  0  0  0  0  2  0  0  0  0  0  0
  184.1070  178.5600  143.0570 C   0  0  0  0  0  2  0  0  0  0  0  0
  190.8310  176.4390  145.5730 C   0  0  0  0  0  0  0  0  0  0  0  0
  193.3660  175.8290  143.8190 C   0  0  0  0  0  2  0  0  0  0  0  0
  188.5090  178.0070  143.1800 N   0  0  0  0  0  2  0  0  0  0  0  0
  184.8160  177.5330  143.8370 N   0  0  0  0  0  2  0  0  0  0  0  0
  190.3630  176.8920  144.3870 C   0  0  0  0  0  0  0  0  0  0  0  0
  191.9360  175.3460  147.2900 C   0  0  0  0  0  3  0  0  0  0  0  0
  186.2000  177.9770  144.0680 C   0  0  1  0  0  3  0  0  0  0  0  0
  184.1600  178.2910  141.5340 C   0  0  0  0  0  2  0  0  0  0  0  0
  192.7250  174.9840  144.9010 C   0  0  2  0  0  3  0  0  0  0  0  0
  188.0950  177.1180  145.4460 C   0  0  0  0  0  0  0  0  0  0  0  0
  186.6260  178.2940  141.6490 C   0  0  1  0  0  3  0  0  0  0  0  0
  188.9730  177.2990  144.3100 N   0  0  0  0  0  0  0  0  0  0  0  0
  186.4390  176.7230  147.6000 C   0  0  0  0  0  3  0  0  0  0  0  0
  192.3830  176.4430  142.8700 C   0  0  0  0  0  3  0  0  0  0  0  0
  185.9360  177.2250  146.4370 N   0  0  0  0  0  0  0  0  0  0  0  0
  191.1510  176.9020  143.1280 C   0  0  0  0  0  3  0  0  0  0  0  0
  192.1960  175.9640  145.9350 C   0  0  1  0  0  3  0  0  0  0  0  0
  187.7590  176.4040  147.6960 N   0  0  0  0  0  0  0  0  0  0  0  0
  189.9750  176.2760  146.6870 N   0  0  0  0  0  0  0  0  0  0  0  0
  193.7090  174.1660  145.4650 O   0  0  0  0  0  0  0  0  0  0  0  0
  194.9110  174.8320  145.2160 C   0  0  0  0  0  2  0  0  0  0  0  0
  196.8020  171.9050  144.7720 C   0  0  0  0  0  2  0  0  0  0  0  0
  197.2750  174.1700  144.8050 C   0  0  0  0  0  2  0  0  0  0  0  0
  196.0770  173.9990  145.7140 C   0  0  2  0  0  3  0  0  0  0  0  0
  197.8900  172.8630  144.6420 N   0  0  0  0  0  2  0  0  0  0  0  0
  195.7300  172.5330  145.6390 C   0  0  0  0  0  2  0  0  0  0  0  0
  1 27  1  0  0  0  0
  1 26  1  0  0  0  0
  3  7  1  6  0  0  0
  3 16  1  0  0  0  0
  3 19  1  0  0  0  0
  4 18  1  0  0  0  0
  4 23  2  0  0  0  0
  5 11  1  1  0  0  0
  5 15  1  0  0  0  0
  7  6  1  0  0  0  0
  8 12  1  0  0  0  0
  9 25  1  0  0  0  0
  9 27  1  0  0  0  0
 10 17  1  0  0  0  0
 11 20  1  0  0  0  0
 13  9  2  0  0  0  0
 14  2  2  0  0  0  0
 15 12  1  6  0  0  0
 15  4  1  0  0  0  0
 16  8  1  0  0  0  0
 17 28  1  1  0  0  0
 17 25  1  0  0  0  0
 18  1  2  0  0  0  0
 19  6  1  6  0  0  0
 19  5  1  0  0  0  0
 20 13  1  0  0  0  0
 20 18  1  0  0  0  0
 21 26  2  0  0  0  0
 22 24  2  0  0  0  0
 22 10  1  0  0  0  0
 23 21  1  0  0  0  0
 24 13  1  0  0  0  0
 25 14  1  1  0  0  0
 27  2  1  0  0  0  0
 29 28  1  0  0  0  0
 30 34  1  0  0  0  0
 31 32  1  0  0  0  0
 32 29  1  6  0  0  0
 33 30  1  0  0  0  0
 33 31  1  0  0  0  0
 34 32  1  0  0  0  0
M  END
>  <MODEL>
6

>  <REMARK>
 VINA RESULT:      -8.0      1.754      3.827
  Name = 
  3 active torsions:
  status: ('A' for Active; 'I' for Inactive)
    1  A    between atoms: C_17  and  O_28
    2  A    between atoms: O_28  and  C_29
    3  A    between atoms: C_29  and  C_32
                            x       y       z     vdW  Elec       q    Type
                         _______ _______ _______ _____ _____    ______ ____

>  <TORSDO>
F 3

$$$$
=
 OpenBabel11112417453D

 34 41  0  0  1  0  0  0  0  0999 V2000
  192.1590  176.2300  145.5690 C   0  0  0  0  0  0  0  0  0  0  0  0
  189.6850  176.6380  146.0860 C   0  0  0  0  0  3  0  0  0  0  0  0
  196.4640  175.6180  140.9130 C   0  0  2  0  0  3  0  0  0  0  0  0
  194.3860  175.9070  144.7460 C   0  0  0  0  0  0  0  0  0  0  0  0
  194.5530  175.2340  142.3420 C   0  0  1  0  0  3  0  0  0  0  0  0
  195.0590  174.3760  139.9140 C   0  0  0  0  0  2  0  0  0  0  0  0
  196.2570  175.2130  139.4710 C   0  0  0  0  0  2  0  0  0  0  0  0
  197.6380  175.3800  143.1210 C   0  0  0  0  0  2  0  0  0  0  0  0
  190.2300  175.4570  144.2010 C   0  0  0  0  0  0  0  0  0  0  0  0
  188.0280  174.9050  142.0290 C   0  0  0  0  0  2  0  0  0  0  0  0
  193.3450  174.4260  142.5240 N   0  0  0  0  0  2  0  0  0  0  0  0
  196.5090  176.2110  143.5670 N   0  0  0  0  0  2  0  0  0  0  0  0
  191.0380  175.0160  143.2100 C   0  0  0  0  0  0  0  0  0  0  0  0
  188.5290  176.3580  145.4880 C   0  0  0  0  0  3  0  0  0  0  0  0
  195.3110  175.3660  143.6930 C   0  0  1  0  0  3  0  0  0  0  0  0
  197.8050  175.3820  141.5830 C   0  0  0  0  0  2  0  0  0  0  0  0
  188.1520  176.0690  142.9910 C   0  0  2  0  0  3  0  0  0  0  0  0
  193.0120  175.7310  144.5920 C   0  0  0  0  0  0  0  0  0  0  0  0
  195.4880  174.5640  141.3570 C   0  0  1  0  0  3  0  0  0  0  0  0
  192.4730  175.0970  143.4090 N   0  0  0  0  0  0  0  0  0  0  0  0
  194.0080  176.9810  146.8250 C   0  0  0  0  0  3  0  0  0  0  0  0
  189.3190  174.5240  141.3710 C   0  0  0  0  0  3  0  0  0  0  0  0
  194.8600  176.5100  145.8700 N   0  0  0  0  0  0  0  0  0  0  0  0
  190.5550  174.5520  141.8840 C   0  0  0  0  0  3  0  0  0  0  0  0
  188.7430  175.4920  144.2670 C   0  0  1  0  0  3  0  0  0  0  0  0
  192.6630  176.8460  146.6710 N   0  0  0  0  0  0  0  0  0  0  0  0
  190.7590  176.0660  145.3640 N   0  0  0  0  0  0  0  0  0  0  0  0
  186.8750  176.5820  143.2340 O   0  0  0  0  0  0  0  0  0  0  0  0
  186.5110  177.2100  142.0390 C   0  0  0  0  0  2  0  0  0  0  0  0
  184.1790  178.7370  144.1770 C   0  0  0  0  0  2  0  0  0  0  0  0
  186.3310  179.2290  143.4830 C   0  0  0  0  0  2  0  0  0  0  0  0
  185.7080  178.4620  142.3370 C   0  0  2  0  0  3  0  0  0  0  0  0
  185.2490  179.7120  144.3250 N   0  0  0  0  0  2  0  0  0  0  0  0
  184.3280  178.0850  142.8180 C   0  0  0  0  0  2  0  0  0  0  0  0
  1 26  1  0  0  0  0
  3  7  1  6  0  0  0
  3 19  1  0  0  0  0
  3 16  1  0  0  0  0
  4 23  2  0  0  0  0
  5 11  1  1  0  0  0
  5 15  1  0  0  0  0
  7  6  1  0  0  0  0
  8 12  1  0  0  0  0
  9 25  1  0  0  0  0
  9 27  1  0  0  0  0
 10 17  1  0  0  0  0
 11 20  1  0  0  0  0
 13 20  1  0  0  0  0
 13  9  2  0  0  0  0
 14  2  2  0  0  0  0
 15 12  1  6  0  0  0
 15  4  1  0  0  0  0
 16  8  1  0  0  0  0
 17 28  1  1  0  0  0
 17 25  1  0  0  0  0
 18  4  1  0  0  0  0
 18  1  2  0  0  0  0
 19  6  1  6  0  0  0
 19  5  1  0  0  0  0
 20 18  1  0  0  0  0
 22 24  2  0  0  0  0
 22 10  1  0  0  0  0
 23 21  1  0  0  0  0
 24 13  1  0  0  0  0
 25 14  1  1  0  0  0
 26 21  2  0  0  0  0
 27  1  1  0  0  0  0
 27  2  1  0  0  0  0
 29 28  1  0  0  0  0
 30 33  1  0  0  0  0
 31 33  1  0  0  0  0
 32 29  1  1  0  0  0
 32 34  1  0  0  0  0
 32 31  1  0  0  0  0
 34 30  1  0  0  0  0
M  END
>  <MODEL>
7

>  <REMARK>
 VINA RESULT:      -8.0      2.796      9.257
  Name = 
  3 active torsions:
  status: ('A' for Active; 'I' for Inactive)
    1  A    between atoms: C_17  and  O_28
    2  A    between atoms: O_28  and  C_29
    3  A    between atoms: C_29  and  C_32
                            x       y       z     vdW  Elec       q    Type
                         _______ _______ _______ _____ _____    ______ ____

>  <TORSDO>
F 3

$$$$
=
 OpenBabel11112417453D

 34 41  0  0  1  0  0  0  0  0999 V2000
  190.6090  172.5990  142.3460 C   0  0  0  0  0  0  0  0  0  0  0  0
  188.3340  173.7530  142.1380 C   0  0  0  0  0  3  0  0  0  0  0  0
  196.1090  172.4910  145.5610 C   0  0  2  0  0  3  0  0  0  0  0  0
  192.7870  171.7210  142.8290 C   0  0  0  0  0  0  0  0  0  0  0  0
  194.2740  173.2230  144.1680 C   0  0  1  0  0  3  0  0  0  0  0  0
  196.1200  174.6110  145.4150 C   0  0  0  0  0  2  0  0  0  0  0  0
  196.7720  173.5960  146.3510 C   0  0  0  0  0  2  0  0  0  0  0  0
  196.1730  170.6910  143.8100 C   0  0  0  0  0  2  0  0  0  0  0  0
  190.1450  175.0060  142.7670 C   0  0  0  0  0  0  0  0  0  0  0  0
  189.7040  177.8950  143.9210 C   0  0  0  0  0  2  0  0  0  0  0  0
  193.7100  174.3650  143.4440 N   0  0  0  0  0  2  0  0  0  0  0  0
  194.7150  170.7620  143.9910 N   0  0  0  0  0  2  0  0  0  0  0  0
  191.3940  175.2220  143.2390 C   0  0  0  0  0  0  0  0  0  0  0  0
  187.8680  174.9830  142.3470 C   0  0  0  0  0  3  0  0  0  0  0  0
  194.2000  171.9450  143.2840 C   0  0  1  0  0  3  0  0  0  0  0  0
  196.9480  171.3790  144.9590 C   0  0  0  0  0  2  0  0  0  0  0  0
  188.7920  176.6870  143.9920 C   0  0  2  0  0  3  0  0  0  0  0  0
  191.9160  172.8090  142.7700 C   0  0  0  0  0  0  0  0  0  0  0  0
  195.7330  173.4740  144.4870 C   0  0  1  0  0  3  0  0  0  0  0  0
  192.3400  174.1220  143.2020 N   0  0  0  0  0  0  0  0  0  0  0  0
  191.0740  170.3140  141.9910 C   0  0  0  0  0  3  0  0  0  0  0  0
  191.1410  177.5850  144.2060 C   0  0  0  0  0  3  0  0  0  0  0  0
  192.3550  170.4980  142.4180 N   0  0  0  0  0  0  0  0  0  0  0  0
  191.8330  176.4820  143.8920 C   0  0  0  0  0  3  0  0  0  0  0  0
  188.9880  175.9410  142.6830 C   0  0  1  0  0  3  0  0  0  0  0  0
  190.2030  171.3600  141.9610 N   0  0  0  0  0  0  0  0  0  0  0  0
  189.7360  173.7230  142.3330 N   0  0  0  0  0  0  0  0  0  0  0  0
  187.4720  177.1330  144.1050 O   0  0  0  0  0  0  0  0  0  0  0  0
  187.2040  177.1100  145.4760 C   0  0  0  0  0  2  0  0  0  0  0  0
  184.3750  179.0220  144.6540 C   0  0  0  0  0  2  0  0  0  0  0  0
  185.0530  177.8150  146.5090 C   0  0  0  0  0  2  0  0  0  0  0  0
  186.3310  178.2910  145.8530 C   0  0  2  0  0  3  0  0  0  0  0  0
  183.9670  178.6350  145.9970 N   0  0  0  0  0  2  0  0  0  0  0  0
  185.8890  179.0210  144.6090 C   0  0  0  0  0  2  0  0  0  0  0  0
  1 18  1  0  0  0  0
  2 27  1  0  0  0  0
  2 14  2  0  0  0  0
  3 16  1  6  0  0  0
  3  7  1  0  0  0  0
  5 11  1  6  0  0  0
  5 19  1  0  0  0  0
  6  7  1  0  0  0  0
  8 12  1  0  0  0  0
  8 16  1  0  0  0  0
  9 13  2  0  0  0  0
 10 17  1  0  0  0  0
 10 22  1  0  0  0  0
 13 24  1  0  0  0  0
 15  4  1  1  0  0  0
 15 12  1  0  0  0  0
 15  5  1  0  0  0  0
 17 28  1  6  0  0  0
 18  4  2  0  0  0  0
 18 20  1  0  0  0  0
 19  6  1  1  0  0  0
 19  3  1  0  0  0  0
 20 13  1  0  0  0  0
 20 11  1  0  0  0  0
 21 23  2  0  0  0  0
 23  4  1  0  0  0  0
 24 22  2  0  0  0  0
 25 14  1  1  0  0  0
 25  9  1  0  0  0  0
 25 17  1  0  0  0  0
 26 21  1  0  0  0  0
 26  1  2  0  0  0  0
 27  1  1  0  0  0  0
 27  9  1  0  0  0  0
 28 29  1  0  0  0  0
 30 33  1  0  0  0  0
 32 29  1  6  0  0  0
 32 31  1  0  0  0  0
 33 31  1  0  0  0  0
 34 30  1  0  0  0  0
 34 32  1  0  0  0  0
M  END
>  <MODEL>
8

>  <REMARK>
 VINA RESULT:      -8.0      2.506      8.810
  Name = 
  3 active torsions:
  status: ('A' for Active; 'I' for Inactive)
    1  A    between atoms: C_17  and  O_28
    2  A    between atoms: O_28  and  C_29
    3  A    between atoms: C_29  and  C_32
                            x       y       z     vdW  Elec       q    Type
                         _______ _______ _______ _____ _____    ______ ____

>  <TORSDO>
F 3

$$$$
=
 OpenBabel11112417453D

 34 41  0  0  1  0  0  0  0  0999 V2000
  189.6460  174.6310  145.0380 C   0  0  0  0  0  0  0  0  0  0  0  0
  191.0430  172.6310  144.2610 C   0  0  0  0  0  3  0  0  0  0  0  0
  184.4420  178.1110  143.8540 C   0  0  2  0  0  3  0  0  0  0  0  0
  188.1070  176.4060  145.5130 C   0  0  0  0  0  0  0  0  0  0  0  0
  186.6040  177.0560  143.6210 C   0  0  1  0  0  3  0  0  0  0  0  0
  185.0050  178.0730  141.8060 C   0  0  0  0  0  2  0  0  0  0  0  0
  183.6910  178.2910  142.5540 C   0  0  0  0  0  2  0  0  0  0  0  0
  185.5800  179.0460  145.8880 C   0  0  0  0  0  2  0  0  0  0  0  0
  189.9730  173.9010  142.6830 C   0  0  0  0  0  0  0  0  0  0  0  0
  189.7470  172.8370  139.7360 C   0  0  0  0  0  2  0  0  0  0  0  0
  187.7190  176.8150  142.7020 N   0  0  0  0  0  2  0  0  0  0  0  0
  186.0610  177.6600  145.9930 N   0  0  0  0  0  2  0  0  0  0  0  0
  189.0680  174.7940  142.2210 C   0  0  0  0  0  0  0  0  0  0  0  0
  191.3130  172.0560  143.0920 C   0  0  0  0  0  3  0  0  0  0  0  0
  187.1480  177.4530  145.0230 C   0  0  1  0  0  3  0  0  0  0  0  0
  184.3810  179.1880  144.9220 C   0  0  0  0  0  2  0  0  0  0  0  0
  189.8240  172.0550  141.0310 C   0  0  2  0  0  3  0  0  0  0  0  0
  188.7570  175.5970  144.5820 C   0  0  0  0  0  0  0  0  0  0  0  0
  185.7500  178.2020  143.1210 C   0  0  1  0  0  3  0  0  0  0  0  0
  188.4680  175.7130  143.1690 N   0  0  0  0  0  0  0  0  0  0  0  0
  189.2860  175.3270  147.2630 C   0  0  0  0  0  3  0  0  0  0  0  0
  188.8160  174.0100  139.7910 C   0  0  0  0  0  3  0  0  0  0  0  0
  188.4000  176.2700  146.8350 N   0  0  0  0  0  0  0  0  0  0  0  0
  188.5670  174.8260  140.8230 C   0  0  0  0  0  3  0  0  0  0  0  0
  190.7370  172.8560  141.9450 C   0  0  1  0  0  3  0  0  0  0  0  0
  189.9020  174.5070  146.3670 N   0  0  0  0  0  0  0  0  0  0  0  0
  190.2650  173.7980  144.0630 N   0  0  0  0  0  0  0  0  0  0  0  0
  190.3820  170.8030  140.7610 O   0  0  0  0  0  0  0  0  0  0  0  0
  190.9480  170.9320  139.4890 C   0  0  0  0  0  2  0  0  0  0  0  0
  194.1740  171.0880  140.8700 C   0  0  0  0  0  2  0  0  0  0  0  0
  192.5500  169.4500  140.6840 C   0  0  0  0  0  2  0  0  0  0  0  0
  192.3480  170.3500  139.4850 C   0  0  2  0  0  3  0  0  0  0  0  0
  193.8870  169.6990  141.1970 N   0  0  0  0  0  2  0  0  0  0  0  0
  193.3650  171.4530  139.6430 C   0  0  0  0  0  2  0  0  0  0  0  0
  1 26  1  0  0  0  0
  3  7  1  6  0  0  0
  3 16  1  0  0  0  0
  4 23  2  0  0  0  0
  5 11  1  6  0  0  0
  5 15  1  0  0  0  0
  6  7  1  0  0  0  0
  8 12  1  0  0  0  0
  9 27  1  0  0  0  0
 10 22  1  0  0  0  0
 10 17  1  0  0  0  0
 11 20  1  0  0  0  0
 13  9  2  0  0  0  0
 13 20  1  0  0  0  0
 14  2  2  0  0  0  0
 15  4  1  1  0  0  0
 15 12  1  0  0  0  0
 16  8  1  0  0  0  0
 17 28  1  6  0  0  0
 17 25  1  0  0  0  0
 18  1  2  0  0  0  0
 18  4  1  0  0  0  0
 19  6  1  6  0  0  0
 19  5  1  0  0  0  0
 19  3  1  0  0  0  0
 20 18  1  0  0  0  0
 22 24  2  0  0  0  0
 23 21  1  0  0  0  0
 24 13  1  0  0  0  0
 25  9  1  0  0  0  0
 25 14  1  1  0  0  0
 26 21  2  0  0  0  0
 27  2  1  0  0  0  0
 27  1  1  0  0  0  0
 29 28  1  0  0  0  0
 30 33  1  0  0  0  0
 31 33  1  0  0  0  0
 32 29  1  1  0  0  0
 32 34  1  0  0  0  0
 32 31  1  0  0  0  0
 34 30  1  0  0  0  0
M  END
>  <MODEL>
9

>  <REMARK>
 VINA RESULT:      -7.8      3.080      5.000
  Name = 
  3 active torsions:
  status: ('A' for Active; 'I' for Inactive)
    1  A    between atoms: C_17  and  O_28
    2  A    between atoms: O_28  and  C_29
    3  A    between atoms: C_29  and  C_32
                            x       y       z     vdW  Elec       q    Type
                         _______ _______ _______ _____ _____    ______ ____

>  <TORSDO>
F 3

$$$$
