=
 OpenBabel11112417213D

 37 43  0  0  1  0  0  0  0  0999 V2000
  195.2380  176.0980  142.7570 C   0  0  1  0  0  0  0  0  0  0  0  0
  191.8510  175.9300  145.2280 C   0  0  0  0  0  0  0  0  0  0  0  0
  188.4460  176.2450  143.2000 C   0  0  0  0  0  2  0  0  0  0  0  0
  194.2470  176.2190  145.1330 C   0  0  0  0  0  0  0  0  0  0  0  0
  190.7510  175.6490  144.2540 C   0  0  1  0  0  3  0  0  0  0  0  0
  193.0370  175.8360  144.5670 C   0  0  0  0  0  0  0  0  0  0  0  0
  189.4800  176.5790  144.3230 C   0  0  2  0  0  3  0  0  0  0  0  0
  194.2540  176.5740  146.4910 C   0  0  0  0  0  3  0  0  0  0  0  0
  192.8380  175.4440  143.1720 C   0  0  2  0  0  3  0  0  0  0  0  0
  195.6820  174.6690  142.4910 C   0  0  0  0  0  1  0  0  0  0  0  0
  190.5770  176.2270  147.3890 C   0  0  0  0  0  2  0  0  0  0  0  0
  193.0510  176.5540  147.2270 C   0  0  0  0  0  3  0  0  0  0  0  0
  193.7720  176.2820  142.3030 C   0  0  0  0  0  2  0  0  0  0  0  0
  188.2730  174.5530  141.3490 C   0  0  1  0  0  3  0  0  0  0  0  0
  188.6870  174.9030  142.7110 N   0  0  1  0  0  0  0  0  0  0  0  0
  191.8330  176.2350  146.5960 C   0  0  0  0  0  0  0  0  0  0  0  0
  191.4220  175.7180  142.9210 N   0  0  1  0  0  0  0  0  0  0  0  0
  195.4570  176.4190  144.2590 C   0  0  0  0  0  2  0  0  0  0  0  0
  188.7730  176.5270  145.7010 C   0  0  1  0  0  3  0  0  0  0  0  0
  196.0420  176.9510  142.0060 O   0  0  0  0  0  1  0  0  0  0  0  0
  189.5520  175.2340  141.5670 C   0  0  1  0  0  3  0  0  0  0  0  0
  190.8830  174.6920  142.0250 C   0  0  0  0  0  2  0  0  0  0  0  0
  189.5840  177.2010  146.7990 C   0  0  0  0  0  2  0  0  0  0  0  0
  186.3960  176.5700  146.4860 C   0  0  0  0  0  3  0  0  0  0  0  0
  187.3990  177.1370  145.6920 C   0  0  0  0  0  0  0  0  0  0  0  0
  187.1070  178.2620  144.9040 C   0  0  0  0  0  3  0  0  0  0  0  0
  185.5160  179.9980  144.0740 C   0  0  0  0  0  1  0  0  0  0  0  0
  184.8220  178.2370  145.7040 C   0  0  0  0  0  3  0  0  0  0  0  0
  185.8210  178.8090  144.9110 C   0  0  0  0  0  0  0  0  0  0  0  0
  185.1100  177.1190  146.4930 C   0  0  0  0  0  3  0  0  0  0  0  0
  188.4640  173.0890  141.1090 C   0  0  0  0  0  0  0  0  0  0  0  0
  189.1050  172.6450  139.9110 N   0  0  0  0  0  2  0  0  0  0  0  0
  188.0290  172.2530  141.9480 O   0  0  0  0  0  0  0  0  0  0  0  0
  190.4200  170.7830  140.3780 F   0  0  0  0  0  0  0  0  0  0  0  0
  189.3470  171.2380  139.6310 C   0  0  2  0  0  3  0  0  0  0  0  0
  189.5880  169.6870  137.8200 O   0  0  0  0  0  1  0  0  0  0  0  0
  189.6260  171.0430  138.1490 C   0  0  0  0  0  2  0  0  0  0  0  0
  1 10  1  6  0  0  0
  1 18  1  0  0  0  0
  2 16  1  0  0  0  0
  4  8  2  0  0  0  0
  5  7  1  0  0  0  0
  5  2  1  1  0  0  0
  6  4  1  0  0  0  0
  6  2  2  0  0  0  0
  7  3  1  6  0  0  0
  7 19  1  0  0  0  0
  8 12  1  0  0  0  0
  9 13  1  6  0  0  0
  9  6  1  0  0  0  0
 13  1  1  0  0  0  0
 14 31  1  1  0  0  0
 14 21  1  0  0  0  0
 14 15  1  0  0  0  0
 15  3  1  6  0  0  0
 16 12  2  0  0  0  0
 16 11  1  0  0  0  0
 17 22  1  6  0  0  0
 17  9  1  0  0  0  0
 17  5  1  0  0  0  0
 18  4  1  0  0  0  0
 19 25  1  6  0  0  0
 19 23  1  0  0  0  0
 20  1  1  0  0  0  0
 21 22  1  1  0  0  0
 21 15  1  0  0  0  0
 23 11  1  0  0  0  0
 24 30  1  0  0  0  0
 25 24  2  0  0  0  0
 26 29  2  0  0  0  0
 26 25  1  0  0  0  0
 27 29  1  0  0  0  0
 28 30  2  0  0  0  0
 29 28  1  0  0  0  0
 31 33  2  0  0  0  0
 32 31  1  0  0  0  0
 35 32  1  0  0  0  0
 35 34  1  1  0  0  0
 36 37  1  0  0  0  0
 37 35  1  0  0  0  0
M  END
>  <MODEL>
1

>  <REMARK>
 VINA RESULT:      -9.5      0.000      0.000
  Name = 
  4 active torsions:
  status: ('A' for Active; 'I' for Inactive)
    1  A    between atoms: C_4  and  N_12
    2  A    between atoms: C_4  and  C_37
    3  A    between atoms: C_8  and  C_18
    4  A    between atoms: C_23  and  C_30
                            x       y       z     vdW  Elec       q    Type
                         _______ _______ _______ _____ _____    ______ ____

>  <TORSDO>
F 4

$$$$
=
 OpenBabel11112417213D

 37 43  0  0  1  0  0  0  0  0999 V2000
  189.0930  172.8050  139.3030 C   0  0  1  0  0  0  0  0  0  0  0  0
  187.8690  176.2860  141.3010 C   0  0  0  0  0  0  0  0  0  0  0  0
  188.1290  175.9660  145.2560 C   0  0  0  0  0  2  0  0  0  0  0  0
  187.8770  175.0750  139.2110 C   0  0  0  0  0  0  0  0  0  0  0  0
  188.4340  176.0900  142.6720 C   0  0  1  0  0  3  0  0  0  0  0  0
  188.3490  175.2950  140.5000 C   0  0  0  0  0  0  0  0  0  0  0  0
  187.4470  176.2870  143.8860 C   0  0  2  0  0  3  0  0  0  0  0  0
  186.9790  176.0090  138.6720 C   0  0  0  0  0  3  0  0  0  0  0  0
  189.2770  174.4290  141.2240 C   0  0  2  0  0  3  0  0  0  0  0  0
  190.5330  173.0100  138.8650 C   0  0  0  0  0  1  0  0  0  0  0  0
  186.5610  178.4290  141.5720 C   0  0  0  0  0  2  0  0  0  0  0  0
  186.5690  177.1150  139.4450 C   0  0  0  0  0  3  0  0  0  0  0  0
  188.9820  172.9820  140.8350 C   0  0  0  0  0  2  0  0  0  0  0  0
  190.4250  175.2750  146.0120 C   0  0  1  0  0  3  0  0  0  0  0  0
  189.5690  176.0420  145.1030 N   0  0  1  0  0  0  0  0  0  0  0  0
  187.0100  177.2590  140.7740 C   0  0  0  0  0  0  0  0  0  0  0  0
  189.0040  174.7100  142.6350 N   0  0  1  0  0  0  0  0  0  0  0  0
  188.1840  173.7780  138.5090 C   0  0  0  0  0  2  0  0  0  0  0  0
  186.8400  177.7120  143.9390 C   0  0  1  0  0  3  0  0  0  0  0  0
  188.7220  171.5010  138.9830 O   0  0  0  0  0  1  0  0  0  0  0  0
  189.8400  174.6200  144.8390 C   0  0  1  0  0  3  0  0  0  0  0  0
  190.2590  174.6550  143.3890 C   0  0  0  0  0  2  0  0  0  0  0  0
  185.8420  177.9630  142.8170 C   0  0  0  0  0  2  0  0  0  0  0  0
  184.7870  177.8170  145.3690 C   0  0  0  0  0  3  0  0  0  0  0  0
  186.1650  178.0260  145.2450 C   0  0  0  0  0  0  0  0  0  0  0  0
  186.8920  178.5240  146.3390 C   0  0  0  0  0  3  0  0  0  0  0  0
  187.0130  179.3390  148.6960 C   0  0  0  0  0  1  0  0  0  0  0  0
  184.8640  178.6020  147.6590 C   0  0  0  0  0  3  0  0  0  0  0  0
  186.2410  178.8110  147.5420 C   0  0  0  0  0  0  0  0  0  0  0  0
  184.1370  178.1040  146.5730 C   0  0  0  0  0  3  0  0  0  0  0  0
  191.8620  175.6240  145.7880 C   0  0  0  0  0  0  0  0  0  0  0  0
  192.8670  174.6200  145.9480 N   0  0  0  0  0  2  0  0  0  0  0  0
  192.1820  176.8060  145.4910 O   0  0  0  0  0  0  0  0  0  0  0  0
  194.6900  175.9630  146.4850 F   0  0  0  0  0  0  0  0  0  0  0  0
  194.2790  174.8860  145.7180 C   0  0  2  0  0  3  0  0  0  0  0  0
  195.2340  176.3640  144.0920 O   0  0  0  0  0  1  0  0  0  0  0  0
  194.5210  175.1740  144.2450 C   0  0  0  0  0  2  0  0  0  0  0  0
  1 10  1  6  0  0  0
  1 13  1  0  0  0  0
  4  6  1  0  0  0  0
  5  2  1  6  0  0  0
  5  7  1  0  0  0  0
  6  9  1  0  0  0  0
  6  2  2  0  0  0  0
  7 19  1  0  0  0  0
  7  3  1  1  0  0  0
  8  4  2  0  0  0  0
  8 12  1  0  0  0  0
  9 13  1  1  0  0  0
  9 17  1  0  0  0  0
 11 23  1  0  0  0  0
 12 16  2  0  0  0  0
 14 31  1  6  0  0  0
 15  3  1  1  0  0  0
 15 14  1  0  0  0  0
 16  2  1  0  0  0  0
 16 11  1  0  0  0  0
 17  5  1  0  0  0  0
 17 22  1  1  0  0  0
 18  4  1  0  0  0  0
 18  1  1  0  0  0  0
 19 25  1  1  0  0  0
 20  1  1  0  0  0  0
 21 22  1  6  0  0  0
 21 15  1  0  0  0  0
 21 14  1  0  0  0  0
 23 19  1  0  0  0  0
 24 30  1  0  0  0  0
 25 24  2  0  0  0  0
 25 26  1  0  0  0  0
 26 29  2  0  0  0  0
 29 28  1  0  0  0  0
 29 27  1  0  0  0  0
 30 28  2  0  0  0  0
 31 32  1  0  0  0  0
 33 31  2  0  0  0  0
 35 32  1  0  0  0  0
 35 34  1  1  0  0  0
 36 37  1  0  0  0  0
 37 35  1  0  0  0  0
M  END
>  <MODEL>
2

>  <REMARK>
 VINA RESULT:      -8.4      2.631      6.309
  Name = 
  4 active torsions:
  status: ('A' for Active; 'I' for Inactive)
    1  A    between atoms: C_4  and  N_12
    2  A    between atoms: C_4  and  C_37
    3  A    between atoms: C_8  and  C_18
    4  A    between atoms: C_23  and  C_30
                            x       y       z     vdW  Elec       q    Type
                         _______ _______ _______ _____ _____    ______ ____

>  <TORSDO>
F 4

$$$$
=
 OpenBabel11112417213D

 37 43  0  0  1  0  0  0  0  0999 V2000
  190.8900  171.3690  140.5770 C   0  0  1  0  0  0  0  0  0  0  0  0
  189.1130  174.9480  141.8590 C   0  0  0  0  0  0  0  0  0  0  0  0
  189.1630  175.3640  145.8130 C   0  0  0  0  0  2  0  0  0  0  0  0
  189.4050  173.4020  140.0260 C   0  0  0  0  0  0  0  0  0  0  0  0
  189.6110  175.0730  143.2640 C   0  0  1  0  0  3  0  0  0  0  0  0
  189.7630  173.9060  141.2710 C   0  0  0  0  0  0  0  0  0  0  0  0
  188.5330  175.3450  144.3830 C   0  0  2  0  0  3  0  0  0  0  0  0
  188.4310  174.0960  139.2910 C   0  0  0  0  0  3  0  0  0  0  0  0
  190.7470  173.3140  142.1760 C   0  0  2  0  0  3  0  0  0  0  0  0
  192.3180  171.6880  140.1660 C   0  0  0  0  0  1  0  0  0  0  0  0
  187.5290  176.9080  141.6850 C   0  0  0  0  0  2  0  0  0  0  0  0
  187.8380  175.2550  139.8340 C   0  0  0  0  0  3  0  0  0  0  0  0
  190.6630  171.7950  142.0460 C   0  0  0  0  0  2  0  0  0  0  0  0
  191.4760  175.1340  146.7720 C   0  0  1  0  0  3  0  0  0  0  0  0
  190.5880  175.6070  145.7060 N   0  0  1  0  0  0  0  0  0  0  0  0
  188.1720  175.6880  141.1310 C   0  0  0  0  0  0  0  0  0  0  0  0
  190.3520  173.7990  143.5000 N   0  0  1  0  0  0  0  0  0  0  0  0
  189.9170  172.0560  139.5840 C   0  0  0  0  0  2  0  0  0  0  0  0
  187.7480  176.6610  144.1510 C   0  0  1  0  0  3  0  0  0  0  0  0
  190.7080  169.9920  140.4860 O   0  0  0  0  0  1  0  0  0  0  0  0
  191.0530  174.2110  145.7150 C   0  0  1  0  0  3  0  0  0  0  0  0
  191.5540  174.0470  144.3010 C   0  0  0  0  0  2  0  0  0  0  0  0
  186.7990  176.5730  142.9650 C   0  0  0  0  0  2  0  0  0  0  0  0
  185.6270  176.6930  145.4820 C   0  0  0  0  0  3  0  0  0  0  0  0
  186.9590  177.1050  145.3510 C   0  0  0  0  0  0  0  0  0  0  0  0
  187.5330  177.9210  146.3390 C   0  0  0  0  0  3  0  0  0  0  0  0
  187.3880  179.1880  148.4870 C   0  0  0  0  0  1  0  0  0  0  0  0
  185.4470  177.9100  147.5680 C   0  0  0  0  0  3  0  0  0  0  0  0
  186.7770  178.3230  147.4440 C   0  0  0  0  0  0  0  0  0  0  0  0
  184.8720  177.0950  146.5880 C   0  0  0  0  0  3  0  0  0  0  0  0
  192.8680  175.6300  146.5440 C   0  0  0  0  0  0  0  0  0  0  0  0
  193.8850  174.7170  146.1240 N   0  0  0  0  0  2  0  0  0  0  0  0
  193.1460  176.8420  146.7540 O   0  0  0  0  0  0  0  0  0  0  0  0
  195.2750  176.0290  144.7970 F   0  0  0  0  0  0  0  0  0  0  0  0
  195.2520  175.1390  145.8570 C   0  0  2  0  0  3  0  0  0  0  0  0
  197.0330  173.7030  146.5690 O   0  0  0  0  0  1  0  0  0  0  0  0
  196.1180  173.9310  145.5400 C   0  0  0  0  0  2  0  0  0  0  0  0
  1 10  1  6  0  0  0
  1 13  1  0  0  0  0
  4  6  2  0  0  0  0
  5  2  1  6  0  0  0
  5 17  1  0  0  0  0
  5  7  1  0  0  0  0
  6  2  1  0  0  0  0
  6  9  1  0  0  0  0
  7  3  1  1  0  0  0
  8 12  2  0  0  0  0
  8  4  1  0  0  0  0
  9 13  1  1  0  0  0
  9 17  1  0  0  0  0
 11 23  1  0  0  0  0
 12 16  1  0  0  0  0
 14 31  1  6  0  0  0
 15 21  1  0  0  0  0
 15  3  1  1  0  0  0
 15 14  1  0  0  0  0
 16 11  1  0  0  0  0
 16  2  2  0  0  0  0
 17 22  1  1  0  0  0
 18  4  1  0  0  0  0
 18  1  1  0  0  0  0
 19  7  1  0  0  0  0
 19 25  1  1  0  0  0
 20  1  1  0  0  0  0
 21 22  1  6  0  0  0
 21 14  1  0  0  0  0
 23 19  1  0  0  0  0
 24 30  1  0  0  0  0
 25 24  2  0  0  0  0
 25 26  1  0  0  0  0
 26 29  2  0  0  0  0
 29 28  1  0  0  0  0
 29 27  1  0  0  0  0
 30 28  2  0  0  0  0
 31 33  2  0  0  0  0
 32 31  1  0  0  0  0
 35 34  1  6  0  0  0
 35 32  1  0  0  0  0
 37 35  1  0  0  0  0
 37 36  1  0  0  0  0
M  END
>  <MODEL>
3

>  <REMARK>
 VINA RESULT:      -8.2      2.673      6.138
  Name = 
  4 active torsions:
  status: ('A' for Active; 'I' for Inactive)
    1  A    between atoms: C_4  and  N_12
    2  A    between atoms: C_4  and  C_37
    3  A    between atoms: C_8  and  C_18
    4  A    between atoms: C_23  and  C_30
                            x       y       z     vdW  Elec       q    Type
                         _______ _______ _______ _____ _____    ______ ____

>  <TORSDO>
F 4

$$$$
=
 OpenBabel11112417213D

 37 43  0  0  1  0  0  0  0  0999 V2000
  190.8200  170.1390  139.8500 C   0  0  1  0  0  0  0  0  0  0  0  0
  189.5540  173.9230  141.1450 C   0  0  0  0  0  0  0  0  0  0  0  0
  190.2500  174.5420  145.0110 C   0  0  0  0  0  2  0  0  0  0  0  0
  189.4340  172.2640  139.3950 C   0  0  0  0  0  0  0  0  0  0  0  0
  190.2720  174.0780  142.4490 C   0  0  1  0  0  3  0  0  0  0  0  0
  190.0200  172.7990  140.5360 C   0  0  0  0  0  0  0  0  0  0  0  0
  189.4060  174.5030  143.6960 C   0  0  2  0  0  3  0  0  0  0  0  0
  188.4170  173.0010  138.7710 C   0  0  0  0  0  3  0  0  0  0  0  0
  191.0820  172.1710  141.3210 C   0  0  2  0  0  3  0  0  0  0  0  0
  192.1870  170.3080  139.2080 C   0  0  0  0  0  1  0  0  0  0  0  0
  188.1240  176.0040  141.0820 C   0  0  0  0  0  2  0  0  0  0  0  0
  188.0090  174.2350  139.3190 C   0  0  0  0  0  3  0  0  0  0  0  0
  190.8580  170.6600  141.3040 C   0  0  0  0  0  2  0  0  0  0  0  0
  192.6570  174.1580  145.6250 C   0  0  1  0  0  3  0  0  0  0  0  0
  191.6550  174.6510  144.6760 N   0  0  1  0  0  0  0  0  0  0  0  0
  188.5740  174.7050  140.5200 C   0  0  0  0  0  0  0  0  0  0  0  0
  190.9370  172.7570  142.6540 N   0  0  1  0  0  0  0  0  0  0  0  0
  189.7630  170.8560  138.9710 C   0  0  0  0  0  2  0  0  0  0  0  0
  188.7020  175.8690  143.4990 C   0  0  1  0  0  3  0  0  0  0  0  0
  190.5170  168.7800  139.8770 O   0  0  0  0  0  1  0  0  0  0  0  0
  192.0040  173.2220  144.7070 C   0  0  1  0  0  3  0  0  0  0  0  0
  192.2650  172.9400  143.2470 C   0  0  0  0  0  2  0  0  0  0  0  0
  187.5760  175.8040  142.4770 C   0  0  0  0  0  2  0  0  0  0  0  0
  189.0220  177.0160  145.7020 C   0  0  0  0  0  3  0  0  0  0  0  0
  188.1460  176.4440  144.7720 C   0  0  0  0  0  0  0  0  0  0  0  0
  186.7680  176.4180  145.0420 C   0  0  0  0  0  3  0  0  0  0  0  0
  184.8170  176.9260  146.5170 C   0  0  0  0  0  1  0  0  0  0  0  0
  187.1560  177.5240  147.1600 C   0  0  0  0  0  3  0  0  0  0  0  0
  186.2760  176.9570  146.2340 C   0  0  0  0  0  0  0  0  0  0  0  0
  188.5280  177.5550  146.8940 C   0  0  0  0  0  3  0  0  0  0  0  0
  194.0320  174.5160  145.1590 C   0  0  0  0  0  0  0  0  0  0  0  0
  194.2320  175.7010  144.3840 N   0  0  0  0  0  2  0  0  0  0  0  0
  195.0030  173.7550  145.4210 O   0  0  0  0  0  0  0  0  0  0  0  0
  195.8470  177.3760  144.4250 F   0  0  0  0  0  0  0  0  0  0  0  0
  195.5470  176.1210  143.9240 C   0  0  2  0  0  3  0  0  0  0  0  0
  196.7470  176.7710  141.9550 O   0  0  0  0  0  1  0  0  0  0  0  0
  195.5820  176.1460  142.4040 C   0  0  0  0  0  2  0  0  0  0  0  0
  1 10  1  6  0  0  0
  1 20  1  0  0  0  0
  1 13  1  0  0  0  0
  4  6  2  0  0  0  0
  5  2  1  6  0  0  0
  5 17  1  0  0  0  0
  5  7  1  0  0  0  0
  6  2  1  0  0  0  0
  6  9  1  0  0  0  0
  7  3  1  1  0  0  0
  8 12  2  0  0  0  0
  8  4  1  0  0  0  0
  9 13  1  1  0  0  0
  9 17  1  0  0  0  0
 11 23  1  0  0  0  0
 12 16  1  0  0  0  0
 14 31  1  6  0  0  0
 15 21  1  0  0  0  0
 15  3  1  1  0  0  0
 15 14  1  0  0  0  0
 16 11  1  0  0  0  0
 16  2  2  0  0  0  0
 17 22  1  6  0  0  0
 18  4  1  0  0  0  0
 18  1  1  0  0  0  0
 19  7  1  0  0  0  0
 19 25  1  1  0  0  0
 21 22  1  6  0  0  0
 21 14  1  0  0  0  0
 23 19  1  0  0  0  0
 24 30  1  0  0  0  0
 25 26  1  0  0  0  0
 25 24  2  0  0  0  0
 26 29  2  0  0  0  0
 29 27  1  0  0  0  0
 29 28  1  0  0  0  0
 30 28  2  0  0  0  0
 31 33  2  0  0  0  0
 32 31  1  0  0  0  0
 35 32  1  0  0  0  0
 35 34  1  1  0  0  0
 36 37  1  0  0  0  0
 37 35  1  0  0  0  0
M  END
>  <MODEL>
4

>  <REMARK>
 VINA RESULT:      -8.0      2.503      6.391
  Name = 
  4 active torsions:
  status: ('A' for Active; 'I' for Inactive)
    1  A    between atoms: C_4  and  N_12
    2  A    between atoms: C_4  and  C_37
    3  A    between atoms: C_8  and  C_18
    4  A    between atoms: C_23  and  C_30
                            x       y       z     vdW  Elec       q    Type
                         _______ _______ _______ _____ _____    ______ ____

>  <TORSDO>
F 4

$$$$
=
 OpenBabel11112417213D

 37 43  0  0  1  0  0  0  0  0999 V2000
  189.6350  175.7460  145.9120 C   0  0  1  0  0  0  0  0  0  0  0  0
  193.5780  174.4680  145.2640 C   0  0  0  0  0  0  0  0  0  0  0  0
  193.8130  170.6150  144.3120 C   0  0  0  0  0  2  0  0  0  0  0  0
  192.1590  176.2030  146.1620 C   0  0  0  0  0  0  0  0  0  0  0  0
  193.3860  173.1730  144.5400 C   0  0  1  0  0  3  0  0  0  0  0  0
  192.3640  175.0730  145.3800 C   0  0  0  0  0  0  0  0  0  0  0  0
  194.1670  171.9210  145.0950 C   0  0  2  0  0  3  0  0  0  0  0  0
  193.2830  176.8230  146.7290 C   0  0  0  0  0  3  0  0  0  0  0  0
  191.3180  174.2940  144.7200 C   0  0  2  0  0  3  0  0  0  0  0  0
  189.1490  176.4020  144.6310 C   0  0  0  0  0  1  0  0  0  0  0  0
  196.0850  174.5330  145.5680 C   0  0  0  0  0  2  0  0  0  0  0  0
  194.5660  176.2810  146.5120 C   0  0  0  0  0  3  0  0  0  0  0  0
  190.0830  174.2960  145.6190 C   0  0  0  0  0  2  0  0  0  0  0  0
  192.3590  170.0220  142.3490 C   0  0  1  0  0  3  0  0  0  0  0  0
  193.2580  170.9650  143.0200 N   0  0  1  0  0  0  0  0  0  0  0  0
  194.7240  175.0900  145.7790 C   0  0  0  0  0  0  0  0  0  0  0  0
  191.9070  172.9640  144.5600 N   0  0  1  0  0  0  0  0  0  0  0  0
  190.7580  176.6200  146.5280 C   0  0  0  0  0  2  0  0  0  0  0  0
  195.7030  172.1220  145.0880 C   0  0  1  0  0  3  0  0  0  0  0  0
  188.5710  175.7050  146.8100 O   0  0  0  0  0  1  0  0  0  0  0  0
  191.8300  170.9260  143.3740 C   0  0  1  0  0  3  0  0  0  0  0  0
  191.4560  172.3860  143.2920 C   0  0  0  0  0  2  0  0  0  0  0  0
  196.1650  173.1320  146.1290 C   0  0  0  0  0  2  0  0  0  0  0  0
  197.2180  170.3180  144.2380 C   0  0  0  0  0  3  0  0  0  0  0  0
  196.4730  170.8470  145.2980 C   0  0  0  0  0  0  0  0  0  0  0  0
  196.4580  170.1830  146.5350 C   0  0  0  0  0  3  0  0  0  0  0  0
  197.1610  168.2980  148.0150 C   0  0  0  0  0  1  0  0  0  0  0  0
  197.9210  168.4730  145.6420 C   0  0  0  0  0  3  0  0  0  0  0  0
  197.1810  168.9980  146.7050 C   0  0  0  0  0  0  0  0  0  0  0  0
  197.9410  169.1330  144.4090 C   0  0  0  0  0  3  0  0  0  0  0  0
  192.0380  170.5050  140.9710 C   0  0  0  0  0  0  0  0  0  0  0  0
  190.7260  170.3040  140.4380 N   0  0  0  0  0  2  0  0  0  0  0  0
  192.9320  171.0560  140.2730 O   0  0  0  0  0  0  0  0  0  0  0  0
  189.2140  171.5750  139.2080 F   0  0  0  0  0  0  0  0  0  0  0  0
  190.3400  170.7750  139.1160 C   0  0  2  0  0  3  0  0  0  0  0  0
  190.4200  168.3970  138.8320 O   0  0  0  0  0  1  0  0  0  0  0  0
  190.0640  169.5910  138.2030 C   0  0  0  0  0  2  0  0  0  0  0  0
  1 10  1  6  0  0  0
  1 18  1  0  0  0  0
  1 20  1  0  0  0  0
  2  6  2  0  0  0  0
  2 16  1  0  0  0  0
  4 18  1  0  0  0  0
  4  8  2  0  0  0  0
  5 17  1  0  0  0  0
  5  7  1  0  0  0  0
  5  2  1  1  0  0  0
  6  4  1  0  0  0  0
  7  3  1  6  0  0  0
  9  6  1  0  0  0  0
  9 13  1  1  0  0  0
 11 16  1  0  0  0  0
 11 23  1  0  0  0  0
 12  8  1  0  0  0  0
 13  1  1  0  0  0  0
 14 31  1  6  0  0  0
 14 15  1  0  0  0  0
 14 21  1  0  0  0  0
 15 21  1  0  0  0  0
 15  3  1  1  0  0  0
 16 12  2  0  0  0  0
 17 22  1  6  0  0  0
 17  9  1  0  0  0  0
 19  7  1  0  0  0  0
 19 25  1  1  0  0  0
 19 23  1  0  0  0  0
 21 22  1  6  0  0  0
 24 30  2  0  0  0  0
 24 25  1  0  0  0  0
 25 26  2  0  0  0  0
 26 29  1  0  0  0  0
 28 29  2  0  0  0  0
 29 27  1  0  0  0  0
 30 28  1  0  0  0  0
 32 31  1  0  0  0  0
 33 31  2  0  0  0  0
 35 34  1  1  0  0  0
 35 32  1  0  0  0  0
 37 36  1  0  0  0  0
 37 35  1  0  0  0  0
M  END
>  <MODEL>
5

>  <REMARK>
 VINA RESULT:      -8.0      3.892      7.686
  Name = 
  4 active torsions:
  status: ('A' for Active; 'I' for Inactive)
    1  A    between atoms: C_4  and  N_12
    2  A    between atoms: C_4  and  C_37
    3  A    between atoms: C_8  and  C_18
    4  A    between atoms: C_23  and  C_30
                            x       y       z     vdW  Elec       q    Type
                         _______ _______ _______ _____ _____    ______ ____

>  <TORSDO>
F 4

$$$$
=
 OpenBabel11112417213D

 37 43  0  0  1  0  0  0  0  0999 V2000
  187.4240  176.5200  143.1080 C   0  0  1  0  0  0  0  0  0  0  0  0
  191.2460  175.9610  144.7470 C   0  0  0  0  0  0  0  0  0  0  0  0
  193.2840  173.0570  142.9520 C   0  0  0  0  0  2  0  0  0  0  0  0
  189.0680  176.9610  145.0440 C   0  0  0  0  0  0  0  0  0  0  0  0
  191.9400  175.1620  143.6900 C   0  0  1  0  0  3  0  0  0  0  0  0
  190.0410  176.3580  144.2550 C   0  0  0  0  0  0  0  0  0  0  0  0
  192.6790  173.8490  144.1560 C   0  0  2  0  0  3  0  0  0  0  0  0
  189.4090  177.3030  146.3610 C   0  0  0  0  0  3  0  0  0  0  0  0
  189.8640  175.9250  142.8700 C   0  0  2  0  0  3  0  0  0  0  0  0
  187.5110  177.6770  142.1270 C   0  0  0  0  0  1  0  0  0  0  0  0
  192.9830  176.0310  146.5790 C   0  0  0  0  0  2  0  0  0  0  0  0
  190.7000  177.0140  146.8480 C   0  0  0  0  0  3  0  0  0  0  0  0
  188.4330  175.4190  142.7070 C   0  0  0  0  0  2  0  0  0  0  0  0
  193.4310  173.3850  140.4640 C   0  0  1  0  0  3  0  0  0  0  0  0
  193.4300  173.9470  141.8180 N   0  0  1  0  0  0  0  0  0  0  0  0
  191.6310  176.3320  146.0420 C   0  0  0  0  0  0  0  0  0  0  0  0
  190.8680  174.8750  142.6910 N   0  0  1  0  0  0  0  0  0  0  0  0
  187.6510  177.0610  144.5430 C   0  0  0  0  0  2  0  0  0  0  0  0
  193.7920  174.1250  145.1980 C   0  0  1  0  0  3  0  0  0  0  0  0
  186.1400  175.9860  143.0390 O   0  0  0  0  0  1  0  0  0  0  0  0
  192.1580  173.6530  141.1390 C   0  0  1  0  0  3  0  0  0  0  0  0
  191.4050  174.9470  141.3300 C   0  0  0  0  0  2  0  0  0  0  0  0
  193.2330  174.5410  146.5520 C   0  0  0  0  0  2  0  0  0  0  0  0
  196.0950  173.1460  145.2750 C   0  0  0  0  0  3  0  0  0  0  0  0
  194.7150  172.9580  145.4110 C   0  0  0  0  0  0  0  0  0  0  0  0
  194.2180  171.6870  145.7430 C   0  0  0  0  0  3  0  0  0  0  0  0
  194.5660  169.2740  146.2830 C   0  0  0  0  0  1  0  0  0  0  0  0
  196.4740  170.8110  145.7940 C   0  0  0  0  0  3  0  0  0  0  0  0
  195.0970  170.6170  145.9330 C   0  0  0  0  0  0  0  0  0  0  0  0
  196.9730  172.0750  145.4660 C   0  0  0  0  0  3  0  0  0  0  0  0
  193.7560  174.4480  139.4630 C   0  0  0  0  0  0  0  0  0  0  0  0
  193.1750  174.3920  138.1570 N   0  0  0  0  0  2  0  0  0  0  0  0
  194.5640  175.3680  139.7630 O   0  0  0  0  0  0  0  0  0  0  0  0
  192.2690  175.6660  136.4340 F   0  0  0  0  0  0  0  0  0  0  0  0
  193.4280  175.4080  137.1470 C   0  0  2  0  0  3  0  0  0  0  0  0
  195.6990  175.6660  136.4280 O   0  0  0  0  0  1  0  0  0  0  0  0
  194.5250  174.9430  136.2040 C   0  0  0  0  0  2  0  0  0  0  0  0
  1 10  1  6  0  0  0
  1 18  1  0  0  0  0
  2 16  1  0  0  0  0
  4  8  2  0  0  0  0
  5  7  1  0  0  0  0
  5  2  1  1  0  0  0
  6  2  2  0  0  0  0
  6  4  1  0  0  0  0
  7  3  1  6  0  0  0
  7 19  1  0  0  0  0
  8 12  1  0  0  0  0
  9 13  1  1  0  0  0
  9  6  1  0  0  0  0
 13  1  1  0  0  0  0
 14 31  1  6  0  0  0
 14 21  1  0  0  0  0
 14 15  1  0  0  0  0
 15  3  1  1  0  0  0
 16 11  1  0  0  0  0
 16 12  2  0  0  0  0
 17 22  1  6  0  0  0
 17  9  1  0  0  0  0
 17  5  1  0  0  0  0
 18  4  1  0  0  0  0
 19 25  1  1  0  0  0
 19 23  1  0  0  0  0
 20  1  1  0  0  0  0
 21 22  1  6  0  0  0
 21 15  1  0  0  0  0
 23 11  1  0  0  0  0
 24 25  2  0  0  0  0
 24 30  1  0  0  0  0
 25 26  1  0  0  0  0
 26 29  2  0  0  0  0
 28 29  1  0  0  0  0
 29 27  1  0  0  0  0
 30 28  2  0  0  0  0
 31 33  2  0  0  0  0
 32 31  1  0  0  0  0
 35 34  1  6  0  0  0
 35 32  1  0  0  0  0
 37 36  1  0  0  0  0
 37 35  1  0  0  0  0
M  END
>  <MODEL>
6

>  <REMARK>
 VINA RESULT:      -7.7      3.371      7.130
  Name = 
  4 active torsions:
  status: ('A' for Active; 'I' for Inactive)
    1  A    between atoms: C_4  and  N_12
    2  A    between atoms: C_4  and  C_37
    3  A    between atoms: C_8  and  C_18
    4  A    between atoms: C_23  and  C_30
                            x       y       z     vdW  Elec       q    Type
                         _______ _______ _______ _____ _____    ______ ____

>  <TORSDO>
F 4

$$$$
=
 OpenBabel11112417213D

 37 43  0  0  1  0  0  0  0  0999 V2000
  191.7030  175.6310  147.2600 C   0  0  1  0  0  0  0  0  0  0  0  0
  192.3340  175.2560  143.1290 C   0  0  0  0  0  0  0  0  0  0  0  0
  189.1060  173.9850  141.1850 C   0  0  0  0  0  2  0  0  0  0  0  0
  193.3680  175.5120  145.2960 C   0  0  0  0  0  0  0  0  0  0  0  0
  190.9400  175.1860  142.5910 C   0  0  1  0  0  3  0  0  0  0  0  0
  192.2620  175.5550  144.4540 C   0  0  0  0  0  0  0  0  0  0  0  0
  190.6120  174.0020  141.6030 C   0  0  2  0  0  3  0  0  0  0  0  0
  194.6270  175.2970  144.7160 C   0  0  0  0  0  3  0  0  0  0  0  0
  190.8780  175.7580  144.8790 C   0  0  2  0  0  3  0  0  0  0  0  0
  191.3960  177.0910  147.5450 C   0  0  0  0  0  1  0  0  0  0  0  0
  193.7180  174.8820  141.0490 C   0  0  0  0  0  2  0  0  0  0  0  0
  194.7350  175.1130  143.3220 C   0  0  0  0  0  3  0  0  0  0  0  0
  190.6890  175.0760  146.2320 C   0  0  0  0  0  2  0  0  0  0  0  0
  187.0880  175.4110  141.6430 C   0  0  1  0  0  3  0  0  0  0  0  0
  188.5310  175.2950  141.4130 N   0  0  1  0  0  0  0  0  0  0  0  0
  193.5820  175.0850  142.5140 C   0  0  0  0  0  0  0  0  0  0  0  0
  190.0820  175.1470  143.8130 N   0  0  1  0  0  0  0  0  0  0  0  0
  193.1750  175.5110  146.7900 C   0  0  0  0  0  2  0  0  0  0  0  0
  191.4970  174.0220  140.3300 C   0  0  1  0  0  3  0  0  0  0  0  0
  191.5620  174.9160  148.4470 O   0  0  0  0  0  1  0  0  0  0  0  0
  187.9750  175.0630  142.7560 C   0  0  1  0  0  3  0  0  0  0  0  0
  188.8640  175.9350  143.6090 C   0  0  0  0  0  2  0  0  0  0  0  0
  192.9450  173.6560  140.6200 C   0  0  0  0  0  2  0  0  0  0  0  0
  190.6180  173.6730  138.0110 C   0  0  0  0  0  3  0  0  0  0  0  0
  190.9950  173.1170  139.2390 C   0  0  0  0  0  0  0  0  0  0  0  0
  190.8990  171.7300  139.4310 C   0  0  0  0  0  3  0  0  0  0  0  0
  190.3250  169.4420  138.6090 C   0  0  0  0  0  1  0  0  0  0  0  0
  190.0500  171.4710  137.1780 C   0  0  0  0  0  3  0  0  0  0  0  0
  190.4260  170.9100  138.4020 C   0  0  0  0  0  0  0  0  0  0  0  0
  190.1470  172.8520  136.9820 C   0  0  0  0  0  3  0  0  0  0  0  0
  186.6860  176.8510  141.6910 C   0  0  0  0  0  0  0  0  0  0  0  0
  185.6900  177.2770  142.6250 N   0  0  0  0  0  2  0  0  0  0  0  0
  187.2010  177.6750  140.8870 O   0  0  0  0  0  0  0  0  0  0  0  0
  186.2470  179.3990  143.4020 F   0  0  0  0  0  0  0  0  0  0  0  0
  185.2740  178.6670  142.7420 C   0  0  2  0  0  3  0  0  0  0  0  0
  184.1870  178.8600  144.8680 O   0  0  0  0  0  1  0  0  0  0  0  0
  183.9570  178.7540  143.4960 C   0  0  0  0  0  2  0  0  0  0  0  0
  1 10  1  1  0  0  0
  1 20  1  0  0  0  0
  2  6  1  0  0  0  0
  4 18  1  0  0  0  0
  5  2  1  1  0  0  0
  5 17  1  0  0  0  0
  6  9  1  0  0  0  0
  6  4  2  0  0  0  0
  7  3  1  6  0  0  0
  7  5  1  0  0  0  0
  8  4  1  0  0  0  0
  9 13  1  1  0  0  0
 11 16  1  0  0  0  0
 12  8  2  0  0  0  0
 13  1  1  0  0  0  0
 14 31  1  1  0  0  0
 14 21  1  0  0  0  0
 15  3  1  6  0  0  0
 15 14  1  0  0  0  0
 15 21  1  0  0  0  0
 16  2  2  0  0  0  0
 16 12  1  0  0  0  0
 17 22  1  6  0  0  0
 17  9  1  0  0  0  0
 18  1  1  0  0  0  0
 19 25  1  6  0  0  0
 19 23  1  0  0  0  0
 19  7  1  0  0  0  0
 21 22  1  1  0  0  0
 23 11  1  0  0  0  0
 24 25  1  0  0  0  0
 25 26  2  0  0  0  0
 28 29  2  0  0  0  0
 29 27  1  0  0  0  0
 29 26  1  0  0  0  0
 30 28  1  0  0  0  0
 30 24  2  0  0  0  0
 31 32  1  0  0  0  0
 32 35  1  0  0  0  0
 33 31  2  0  0  0  0
 35 34  1  1  0  0  0
 35 37  1  0  0  0  0
 37 36  1  0  0  0  0
M  END
>  <MODEL>
7

>  <REMARK>
 VINA RESULT:      -7.5      3.223      7.036
  Name = 
  4 active torsions:
  status: ('A' for Active; 'I' for Inactive)
    1  A    between atoms: C_4  and  N_12
    2  A    between atoms: C_4  and  C_37
    3  A    between atoms: C_8  and  C_18
    4  A    between atoms: C_23  and  C_30
                            x       y       z     vdW  Elec       q    Type
                         _______ _______ _______ _____ _____    ______ ____

>  <TORSDO>
F 4

$$$$
=
 OpenBabel11112417213D

 37 43  0  0  1  0  0  0  0  0999 V2000
  194.5290  175.9600  143.1560 C   0  0  1  0  0  0  0  0  0  0  0  0
  190.9490  175.3410  145.2550 C   0  0  0  0  0  0  0  0  0  0  0  0
  187.9610  177.5890  143.9050 C   0  0  0  0  0  2  0  0  0  0  0  0
  193.3400  175.0020  145.2330 C   0  0  0  0  0  0  0  0  0  0  0  0
  189.9270  175.9390  144.3410 C   0  0  1  0  0  3  0  0  0  0  0  0
  192.1430  175.3240  144.6030 C   0  0  0  0  0  0  0  0  0  0  0  0
  188.9150  176.9680  144.9750 C   0  0  2  0  0  3  0  0  0  0  0  0
  193.2820  174.5340  146.5540 C   0  0  0  0  0  3  0  0  0  0  0  0
  192.0110  175.8330  143.2390 C   0  0  2  0  0  3  0  0  0  0  0  0
  194.6460  174.8590  142.1160 C   0  0  0  0  0  1  0  0  0  0  0  0
  189.5530  174.7140  147.2650 C   0  0  0  0  0  2  0  0  0  0  0  0
  192.0360  174.4230  147.2050 C   0  0  0  0  0  3  0  0  0  0  0  0
  193.2080  176.7360  142.9480 C   0  0  0  0  0  2  0  0  0  0  0  0
  187.5940  177.3120  141.4330 C   0  0  1  0  0  3  0  0  0  0  0  0
  187.9270  176.7320  142.7370 N   0  0  1  0  0  0  0  0  0  0  0  0
  190.8540  174.8330  146.5580 C   0  0  0  0  0  0  0  0  0  0  0  0
  190.7370  176.5550  143.2480 N   0  0  1  0  0  0  0  0  0  0  0  0
  194.6510  175.3300  144.5680 C   0  0  0  0  0  2  0  0  0  0  0  0
  188.0690  176.3490  146.1170 C   0  0  1  0  0  3  0  0  0  0  0  0
  195.5900  176.8430  142.9770 O   0  0  0  0  0  1  0  0  0  0  0  0
  188.9660  177.4020  141.9390 C   0  0  1  0  0  3  0  0  0  0  0  0
  190.0720  176.3740  141.9550 C   0  0  0  0  0  2  0  0  0  0  0  0
  188.8910  176.0690  147.3670 C   0  0  0  0  0  2  0  0  0  0  0  0
  185.6040  176.7890  146.1330 C   0  0  0  0  0  3  0  0  0  0  0  0
  186.8890  177.1930  146.5120 C   0  0  0  0  0  0  0  0  0  0  0  0
  187.0550  178.3750  147.2530 C   0  0  0  0  0  3  0  0  0  0  0  0
  186.1220  180.3940  148.3880 C   0  0  0  0  0  1  0  0  0  0  0  0
  184.6610  178.7370  147.2220 C   0  0  0  0  0  3  0  0  0  0  0  0
  185.9420  179.1440  147.6060 C   0  0  0  0  0  0  0  0  0  0  0  0
  184.4920  177.5590  146.4870 C   0  0  0  0  0  3  0  0  0  0  0  0
  187.4560  176.2340  140.4070 C   0  0  0  0  0  0  0  0  0  0  0  0
  188.1650  175.0030  140.5720 N   0  0  0  0  0  2  0  0  0  0  0  0
  186.7420  176.4260  139.3850 O   0  0  0  0  0  0  0  0  0  0  0  0
  187.8160  172.7190  140.3010 F   0  0  0  0  0  0  0  0  0  0  0  0
  188.0520  173.9040  139.6260 C   0  0  2  0  0  3  0  0  0  0  0  0
  190.4370  173.6740  139.6440 O   0  0  0  0  0  1  0  0  0  0  0  0
  189.3270  173.7900  138.8060 C   0  0  0  0  0  2  0  0  0  0  0  0
  1 10  1  6  0  0  0
  1 18  1  0  0  0  0
  2 16  1  0  0  0  0
  4  8  2  0  0  0  0
  5  7  1  0  0  0  0
  5  2  1  1  0  0  0
  6  4  1  0  0  0  0
  6  2  2  0  0  0  0
  7  3  1  6  0  0  0
  7 19  1  0  0  0  0
  8 12  1  0  0  0  0
  9 13  1  1  0  0  0
  9 17  1  0  0  0  0
  9  6  1  0  0  0  0
 11 23  1  0  0  0  0
 13  1  1  0  0  0  0
 14 31  1  6  0  0  0
 14 21  1  0  0  0  0
 14 15  1  0  0  0  0
 15  3  1  1  0  0  0
 16 12  2  0  0  0  0
 16 11  1  0  0  0  0
 17 22  1  6  0  0  0
 17  5  1  0  0  0  0
 18  4  1  0  0  0  0
 19 25  1  1  0  0  0
 19 23  1  0  0  0  0
 20  1  1  0  0  0  0
 21 22  1  6  0  0  0
 21 15  1  0  0  0  0
 24 30  2  0  0  0  0
 24 25  1  0  0  0  0
 25 26  2  0  0  0  0
 26 29  1  0  0  0  0
 28 29  2  0  0  0  0
 29 27  1  0  0  0  0
 30 28  1  0  0  0  0
 31 32  1  0  0  0  0
 33 31  2  0  0  0  0
 35 34  1  1  0  0  0
 35 32  1  0  0  0  0
 37 35  1  0  0  0  0
 37 36  1  0  0  0  0
M  END
>  <MODEL>
8

>  <REMARK>
 VINA RESULT:      -7.4      1.951      2.239
  Name = 
  4 active torsions:
  status: ('A' for Active; 'I' for Inactive)
    1  A    between atoms: C_4  and  N_12
    2  A    between atoms: C_4  and  C_37
    3  A    between atoms: C_8  and  C_18
    4  A    between atoms: C_23  and  C_30
                            x       y       z     vdW  Elec       q    Type
                         _______ _______ _______ _____ _____    ______ ____

>  <TORSDO>
F 4

$$$$
=
 OpenBabel11112417213D

 37 43  0  0  1  0  0  0  0  0999 V2000
  186.3560  177.4090  143.4010 C   0  0  1  0  0  0  0  0  0  0  0  0
  190.1980  175.7230  143.4230 C   0  0  0  0  0  0  0  0  0  0  0  0
  190.3610  172.2320  141.5260 C   0  0  0  0  0  2  0  0  0  0  0  0
  188.7380  177.3870  144.3860 C   0  0  0  0  0  0  0  0  0  0  0  0
  190.1070  174.6920  142.3430 C   0  0  1  0  0  3  0  0  0  0  0  0
  189.0570  176.4650  143.3970 C   0  0  0  0  0  0  0  0  0  0  0  0
  190.5900  173.2350  142.7030 C   0  0  2  0  0  3  0  0  0  0  0  0
  189.7050  177.6650  145.3640 C   0  0  0  0  0  3  0  0  0  0  0  0
  188.1760  176.0460  142.3090 C   0  0  2  0  0  3  0  0  0  0  0  0
  186.3090  178.4270  142.2740 C   0  0  0  0  0  1  0  0  0  0  0  0
  192.5140  175.3160  144.3460 C   0  0  0  0  0  2  0  0  0  0  0  0
  190.9460  176.9970  145.3310 C   0  0  0  0  0  3  0  0  0  0  0  0
  186.7430  176.0230  142.8370 C   0  0  0  0  0  2  0  0  0  0  0  0
  189.4730  172.3750  139.1790 C   0  0  1  0  0  3  0  0  0  0  0  0
  190.2240  172.9710  140.2870 N   0  0  1  0  0  0  0  0  0  0  0  0
  191.2010  176.0120  144.3580 C   0  0  0  0  0  0  0  0  0  0  0  0
  188.6710  174.7200  141.9360 N   0  0  1  0  0  0  0  0  0  0  0  0
  187.3310  177.9170  144.4940 C   0  0  0  0  0  2  0  0  0  0  0  0
  192.0780  173.1870  143.1340 C   0  0  1  0  0  3  0  0  0  0  0  0
  185.0830  177.3180  143.9580 O   0  0  0  0  0  1  0  0  0  0  0  0
  188.7560  173.0720  140.2490 C   0  0  1  0  0  3  0  0  0  0  0  0
  188.5470  174.5480  140.4860 C   0  0  0  0  0  2  0  0  0  0  0  0
  192.3130  173.8250  144.4960 C   0  0  0  0  0  2  0  0  0  0  0  0
  192.2860  170.9350  144.2100 C   0  0  0  0  0  3  0  0  0  0  0  0
  192.6460  171.7950  143.1660 C   0  0  0  0  0  0  0  0  0  0  0  0
  193.5270  171.3450  142.1700 C   0  0  0  0  0  3  0  0  0  0  0  0
  194.9770  169.5760  141.1680 C   0  0  0  0  0  1  0  0  0  0  0  0
  193.6820  169.1940  143.2700 C   0  0  0  0  0  3  0  0  0  0  0  0
  194.0440  170.0470  142.2230 C   0  0  0  0  0  0  0  0  0  0  0  0
  192.8030  169.6370  144.2620 C   0  0  0  0  0  3  0  0  0  0  0  0
  189.5950  173.2250  137.9540 C   0  0  0  0  0  0  0  0  0  0  0  0
  190.8750  173.7320  137.5690 N   0  0  0  0  0  2  0  0  0  0  0  0
  188.5650  173.5170  137.2870 O   0  0  0  0  0  0  0  0  0  0  0  0
  190.9140  173.7580  135.2420 F   0  0  0  0  0  0  0  0  0  0  0  0
  191.0670  174.5400  136.3740 C   0  0  2  0  0  3  0  0  0  0  0  0
  192.3890  176.4900  135.9400 O   0  0  0  0  0  1  0  0  0  0  0  0
  192.4500  175.1700  136.3880 C   0  0  0  0  0  2  0  0  0  0  0  0
  1 10  1  6  0  0  0
  1 20  1  0  0  0  0
  1 18  1  0  0  0  0
  2 16  1  0  0  0  0
  4 18  1  0  0  0  0
  4  8  2  0  0  0  0
  5  7  1  0  0  0  0
  5  2  1  1  0  0  0
  6  2  2  0  0  0  0
  6  4  1  0  0  0  0
  7  3  1  6  0  0  0
  7 19  1  0  0  0  0
  9 13  1  1  0  0  0
  9  6  1  0  0  0  0
 11 16  1  0  0  0  0
 11 23  1  0  0  0  0
 12  8  1  0  0  0  0
 13  1  1  0  0  0  0
 14 31  1  6  0  0  0
 14 21  1  0  0  0  0
 14 15  1  0  0  0  0
 15  3  1  1  0  0  0
 16 12  2  0  0  0  0
 17 22  1  6  0  0  0
 17  9  1  0  0  0  0
 17  5  1  0  0  0  0
 19 25  1  1  0  0  0
 19 23  1  0  0  0  0
 21 15  1  0  0  0  0
 21 22  1  6  0  0  0
 24 30  1  0  0  0  0
 25 24  2  0  0  0  0
 26 29  2  0  0  0  0
 26 25  1  0  0  0  0
 27 29  1  0  0  0  0
 28 30  2  0  0  0  0
 29 28  1  0  0  0  0
 32 31  1  0  0  0  0
 33 31  2  0  0  0  0
 35 34  1  6  0  0  0
 35 37  1  0  0  0  0
 35 32  1  0  0  0  0
 36 37  1  0  0  0  0
M  END
>  <MODEL>
9

>  <REMARK>
 VINA RESULT:      -7.4      3.352      6.903
  Name = 
  4 active torsions:
  status: ('A' for Active; 'I' for Inactive)
    1  A    between atoms: C_4  and  N_12
    2  A    between atoms: C_4  and  C_37
    3  A    between atoms: C_8  and  C_18
    4  A    between atoms: C_23  and  C_30
                            x       y       z     vdW  Elec       q    Type
                         _______ _______ _______ _____ _____    ______ ____

>  <TORSDO>
F 4

$$$$
