=
 OpenBabel11112416133D

 30 35  0  0  1  0  0  0  0  0999 V2000
  186.6030  177.7660  143.8300 C   0  0  0  0  0  0  0  0  0  0  0  0
  184.7560  178.7870  145.1670 C   0  0  0  0  0  0  0  0  0  0  0  0
  188.3240  175.9190  147.2680 C   0  0  0  0  0  2  0  0  0  0  0  0
  187.7650  176.9610  143.8030 C   0  0  0  0  0  0  0  0  0  0  0  0
  186.1680  178.4280  142.5520 C   0  0  0  0  0  2  0  0  0  0  0  0
  187.7470  176.0920  140.2270 O   0  0  0  0  0  0  0  0  0  0  0  0
  190.6590  177.2350  143.4180 C   0  0  1  0  0  3  0  0  0  0  0  0
  187.4810  176.6870  141.3060 C   0  0  0  0  0  0  0  0  0  0  0  0
  190.7450  176.3850  144.6850 C   0  0  2  0  0  3  0  0  0  0  0  0
  189.4920  175.2400  146.5260 C   0  0  1  0  0  3  0  0  0  0  0  0
  186.3380  177.5500  141.3930 N   0  0  0  0  0  0  0  0  0  0  0  0
  188.3370  176.4300  142.5140 C   0  0  1  0  0  3  0  0  0  0  0  0
  184.1230  178.9560  146.4020 C   0  0  0  0  0  3  0  0  0  0  0  0
  191.8540  175.3890  144.4500 C   0  0  0  0  0  2  0  0  0  0  0  0
  192.1140  177.3530  142.9940 C   0  0  0  0  0  2  0  0  0  0  0  0
  184.2010  179.3910  144.0870 F   0  0  0  0  0  0  0  0  0  0  0  0
  187.6030  176.6310  146.1800 C   0  0  0  0  0  0  0  0  0  0  0  0
  184.6310  178.3530  147.5520 C   0  0  0  0  0  3  0  0  0  0  0  0
  185.9280  177.9970  145.0670 C   0  0  0  0  0  0  0  0  0  0  0  0
  188.2690  176.4710  145.0050 C   0  0  0  0  0  0  0  0  0  0  0  0
  189.2650  173.7410  146.4820 C   0  0  0  0  0  1  0  0  0  0  0  0
  189.4980  175.7790  145.1620 N   0  0  0  0  0  0  0  0  0  0  0  0
  192.8410  176.1330  143.5620 C   0  0  0  0  0  2  0  0  0  0  0  0
  190.3890  175.4630  141.7670 O   0  0  0  0  0  1  0  0  0  0  0  0
  185.7830  177.5750  147.4800 C   0  0  0  0  0  3  0  0  0  0  0  0
  186.4350  177.3920  146.2550 C   0  0  0  0  0  0  0  0  0  0  0  0
  189.8310  176.6490  142.2540 C   0  0  2  0  0  3  0  0  0  0  0  0
  185.4350  177.6560  140.2460 C   0  0  0  0  0  2  0  0  0  0  0  0
  183.2690  178.0580  140.3860 C   0  0  0  0  0  1  0  0  0  0  0  0
  184.5110  178.6900  140.4180 O   0  0  0  0  0  0  0  0  0  0  0  0
  1 19  1  0  0  0  0
  2 13  1  0  0  0  0
  4  1  2  0  0  0  0
  4 20  1  0  0  0  0
  5  1  1  0  0  0  0
  6  8  2  0  0  0  0
  7 15  1  6  0  0  0
  7  9  1  0  0  0  0
  8 11  1  0  0  0  0
  9 14  1  6  0  0  0
  9 22  1  0  0  0  0
 10 21  1  6  0  0  0
 10  3  1  0  0  0  0
 11  5  1  0  0  0  0
 12  8  1  6  0  0  0
 12  4  1  0  0  0  0
 13 18  2  0  0  0  0
 15 23  1  0  0  0  0
 16  2  1  0  0  0  0
 17 26  1  0  0  0  0
 17  3  1  0  0  0  0
 19  2  2  0  0  0  0
 19 26  1  0  0  0  0
 20 22  1  0  0  0  0
 20 17  2  0  0  0  0
 22 10  1  0  0  0  0
 23 14  1  0  0  0  0
 25 18  1  0  0  0  0
 26 25  2  0  0  0  0
 27 24  1  1  0  0  0
 27 12  1  0  0  0  0
 27  7  1  0  0  0  0
 28 30  1  0  0  0  0
 28 11  1  0  0  0  0
 29 30  1  0  0  0  0
M  END
>  <MODEL>
1

>  <REMARK>
 VINA RESULT:      -8.7      0.000      0.000
  Name = 
  2 active torsions:
  status: ('A' for Active; 'I' for Inactive)
    1  A    between atoms: N_11  and  C_28
    2  A    between atoms: C_28  and  O_30
                            x       y       z     vdW  Elec       q    Type
                         _______ _______ _______ _____ _____    ______ ____

>  <TORSDO>
F 2

$$$$
=
 OpenBabel11112416133D

 30 35  0  0  1  0  0  0  0  0999 V2000
  187.7810  176.6190  145.7500 C   0  0  0  0  0  0  0  0  0  0  0  0
  185.9900  177.6900  147.1260 C   0  0  0  0  0  0  0  0  0  0  0  0
  185.6650  177.3160  142.1130 C   0  0  0  0  0  2  0  0  0  0  0  0
  188.2520  176.2450  144.4710 C   0  0  0  0  0  0  0  0  0  0  0  0
  188.5940  176.2240  146.9510 C   0  0  0  0  0  2  0  0  0  0  0  0
  191.8290  175.9290  145.2770 O   0  0  0  0  0  0  0  0  0  0  0  0
  188.7000  173.8220  142.8810 C   0  0  1  0  0  3  0  0  0  0  0  0
  190.5810  176.0200  145.4280 C   0  0  0  0  0  0  0  0  0  0  0  0
  187.9530  174.5930  141.7940 C   0  0  2  0  0  3  0  0  0  0  0  0
  186.7200  176.6840  141.1830 C   0  0  1  0  0  3  0  0  0  0  0  0
  190.0310  176.3600  146.7110 N   0  0  0  0  0  0  0  0  0  0  0  0
  189.6830  175.8350  144.2380 C   0  0  1  0  0  3  0  0  0  0  0  0
  184.7630  178.3570  147.1850 C   0  0  0  0  0  3  0  0  0  0  0  0
  188.6910  174.3250  140.5050 C   0  0  0  0  0  2  0  0  0  0  0  0
  189.1400  172.5600  142.1560 C   0  0  0  0  0  2  0  0  0  0  0  0
  186.6440  177.4660  148.2930 F   0  0  0  0  0  0  0  0  0  0  0  0
  186.2640  177.1480  143.4630 C   0  0  0  0  0  0  0  0  0  0  0  0
  184.0440  178.6300  146.0230 C   0  0  0  0  0  3  0  0  0  0  0  0
  186.5210  177.2800  145.8770 C   0  0  0  0  0  0  0  0  0  0  0  0
  187.4360  176.4650  143.3650 C   0  0  0  0  0  0  0  0  0  0  0  0
  187.4060  177.7720  140.3790 C   0  0  0  0  0  1  0  0  0  0  0  0
  187.6980  176.0150  142.0450 N   0  0  0  0  0  0  0  0  0  0  0  0
  189.2310  172.9130  140.6700 C   0  0  0  0  0  2  0  0  0  0  0  0
  190.9390  174.7210  142.5390 O   0  0  0  0  0  1  0  0  0  0  0  0
  184.5430  178.2360  144.7840 C   0  0  0  0  0  3  0  0  0  0  0  0
  185.7680  177.5660  144.7000 C   0  0  0  0  0  0  0  0  0  0  0  0
  189.9350  174.5210  143.4910 C   0  0  2  0  0  3  0  0  0  0  0  0
  190.9390  176.6890  147.8110 C   0  0  0  0  0  2  0  0  0  0  0  0
  191.4630  178.0170  149.4940 C   0  0  0  0  0  1  0  0  0  0  0  0
  190.5920  177.9010  148.4120 O   0  0  0  0  0  0  0  0  0  0  0  0
  1 19  1  0  0  0  0
  1  5  1  0  0  0  0
  2 13  1  0  0  0  0
  2 16  1  0  0  0  0
  3 17  1  0  0  0  0
  4  1  2  0  0  0  0
  6  8  2  0  0  0  0
  7 15  1  6  0  0  0
  7 27  1  0  0  0  0
  8 11  1  0  0  0  0
  9 14  1  6  0  0  0
  9 22  1  0  0  0  0
  9  7  1  0  0  0  0
 10 21  1  1  0  0  0
 10 22  1  0  0  0  0
 10  3  1  0  0  0  0
 11  5  1  0  0  0  0
 11 28  1  0  0  0  0
 12  4  1  1  0  0  0
 12  8  1  0  0  0  0
 14 23  1  0  0  0  0
 17 26  1  0  0  0  0
 18 13  2  0  0  0  0
 19  2  2  0  0  0  0
 20 17  2  0  0  0  0
 20  4  1  0  0  0  0
 22 20  1  0  0  0  0
 23 15  1  0  0  0  0
 25 18  1  0  0  0  0
 26 25  2  0  0  0  0
 26 19  1  0  0  0  0
 27 24  1  6  0  0  0
 27 12  1  0  0  0  0
 28 30  1  0  0  0  0
 30 29  1  0  0  0  0
M  END
>  <MODEL>
2

>  <REMARK>
 VINA RESULT:      -8.7      2.536      5.284
  Name = 
  2 active torsions:
  status: ('A' for Active; 'I' for Inactive)
    1  A    between atoms: N_11  and  C_28
    2  A    between atoms: C_28  and  O_30
                            x       y       z     vdW  Elec       q    Type
                         _______ _______ _______ _____ _____    ______ ____

>  <TORSDO>
F 2

$$$$
=
 OpenBabel11112416133D

 30 35  0  0  1  0  0  0  0  0999 V2000
  187.8520  176.1090  142.4690 C   0  0  0  0  0  0  0  0  0  0  0  0
  185.6820  177.3270  142.2340 C   0  0  0  0  0  0  0  0  0  0  0  0
  187.9150  176.6540  146.6980 C   0  0  0  0  0  2  0  0  0  0  0  0
  188.8760  175.6300  143.3180 C   0  0  0  0  0  0  0  0  0  0  0  0
  188.0130  175.9230  140.9860 C   0  0  0  0  0  2  0  0  0  0  0  0
  190.2640  173.0470  141.0940 O   0  0  0  0  0  0  0  0  0  0  0  0
  191.6870  176.1770  143.9490 C   0  0  1  0  0  3  0  0  0  0  0  0
  189.6180  174.0560  141.4830 C   0  0  0  0  0  0  0  0  0  0  0  0
  191.2000  176.1380  145.3970 C   0  0  2  0  0  3  0  0  0  0  0  0
  189.2440  175.9100  146.9420 C   0  0  1  0  0  3  0  0  0  0  0  0
  188.5890  174.6190  140.6550 N   0  0  0  0  0  0  0  0  0  0  0  0
  189.8910  174.6210  142.8490 C   0  0  1  0  0  3  0  0  0  0  0  0
  184.6120  177.9950  142.8370 C   0  0  0  0  0  3  0  0  0  0  0  0
  192.2510  175.3810  146.1730 C   0  0  0  0  0  2  0  0  0  0  0  0
  193.1930  176.3160  144.1040 C   0  0  0  0  0  2  0  0  0  0  0  0
  185.6510  177.1730  140.8870 F   0  0  0  0  0  0  0  0  0  0  0  0
  187.7420  176.5570  145.2250 C   0  0  0  0  0  0  0  0  0  0  0  0
  184.5730  178.1770  144.2190 C   0  0  0  0  0  3  0  0  0  0  0  0
  186.7460  176.8240  143.0240 C   0  0  0  0  0  0  0  0  0  0  0  0
  188.8180  175.9340  144.6750 C   0  0  0  0  0  0  0  0  0  0  0  0
  188.9690  174.5930  147.6430 C   0  0  0  0  0  1  0  0  0  0  0  0
  189.8350  175.6550  145.6250 N   0  0  0  0  0  0  0  0  0  0  0  0
  193.5540  175.7190  145.4660 C   0  0  0  0  0  2  0  0  0  0  0  0
  192.0110  173.7910  143.5730 O   0  0  0  0  0  1  0  0  0  0  0  0
  185.6080  177.6950  145.0150 C   0  0  0  0  0  3  0  0  0  0  0  0
  186.6900  177.0230  144.4350 C   0  0  0  0  0  0  0  0  0  0  0  0
  191.3720  174.9350  143.0860 C   0  0  2  0  0  3  0  0  0  0  0  0
  188.2390  173.9520  139.4000 C   0  0  0  0  0  2  0  0  0  0  0  0
  188.4460  174.4470  137.2590 C   0  0  0  0  0  1  0  0  0  0  0  0
  187.8240  174.8700  138.4330 O   0  0  0  0  0  0  0  0  0  0  0  0
  1 19  2  0  0  0  0
  1  4  1  0  0  0  0
  2 13  2  0  0  0  0
  2 19  1  0  0  0  0
  3 10  1  0  0  0  0
  4 20  2  0  0  0  0
  5  1  1  0  0  0  0
  6  8  2  0  0  0  0
  7 15  1  1  0  0  0
  7  9  1  0  0  0  0
  9 22  1  0  0  0  0
  9 14  1  1  0  0  0
 10 21  1  6  0  0  0
 11  5  1  0  0  0  0
 11  8  1  0  0  0  0
 12  8  1  6  0  0  0
 12 27  1  0  0  0  0
 12  4  1  0  0  0  0
 13 18  1  0  0  0  0
 15 23  1  0  0  0  0
 16  2  1  0  0  0  0
 17  3  1  0  0  0  0
 18 25  2  0  0  0  0
 19 26  1  0  0  0  0
 20 17  1  0  0  0  0
 20 22  1  0  0  0  0
 22 10  1  0  0  0  0
 23 14  1  0  0  0  0
 26 25  1  0  0  0  0
 26 17  2  0  0  0  0
 27 24  1  1  0  0  0
 27  7  1  0  0  0  0
 28 11  1  0  0  0  0
 29 30  1  0  0  0  0
 30 28  1  0  0  0  0
M  END
>  <MODEL>
3

>  <REMARK>
 VINA RESULT:      -8.6      2.061      3.029
  Name = 
  2 active torsions:
  status: ('A' for Active; 'I' for Inactive)
    1  A    between atoms: N_11  and  C_28
    2  A    between atoms: C_28  and  O_30
                            x       y       z     vdW  Elec       q    Type
                         _______ _______ _______ _____ _____    ______ ____

>  <TORSDO>
F 2

$$$$
=
 OpenBabel11112416133D

 30 35  0  0  1  0  0  0  0  0999 V2000
  188.0610  175.2830  142.8460 C   0  0  0  0  0  0  0  0  0  0  0  0
  189.2860  173.2330  142.1070 C   0  0  0  0  0  0  0  0  0  0  0  0
  189.8500  175.1830  146.7170 C   0  0  0  0  0  2  0  0  0  0  0  0
  187.8040  176.2270  143.8660 C   0  0  0  0  0  0  0  0  0  0  0  0
  187.2850  175.3920  141.5640 C   0  0  0  0  0  2  0  0  0  0  0  0
  186.5020  178.9550  141.7680 O   0  0  0  0  0  0  0  0  0  0  0  0
  185.6480  177.0020  145.6960 C   0  0  1  0  0  3  0  0  0  0  0  0
  186.8650  177.8030  142.1270 C   0  0  0  0  0  0  0  0  0  0  0  0
  186.7480  176.9510  146.7550 C   0  0  2  0  0  3  0  0  0  0  0  0
  189.1470  176.4440  147.2580 C   0  0  1  0  0  3  0  0  0  0  0  0
  187.1070  176.7830  141.1460 N   0  0  0  0  0  0  0  0  0  0  0  0
  187.1050  177.5310  143.5850 C   0  0  1  0  0  3  0  0  0  0  0  0
  190.2110  172.2230  142.3890 C   0  0  0  0  0  3  0  0  0  0  0  0
  186.5300  178.1500  147.6460 C   0  0  0  0  0  2  0  0  0  0  0  0
  184.4570  177.5400  146.4730 C   0  0  0  0  0  2  0  0  0  0  0  0
  188.7190  173.2430  140.8750 F   0  0  0  0  0  0  0  0  0  0  0  0
  189.3170  175.0690  145.3340 C   0  0  0  0  0  0  0  0  0  0  0  0
  190.8410  172.1610  143.6310 C   0  0  0  0  0  3  0  0  0  0  0  0
  188.9760  174.2110  143.0850 C   0  0  0  0  0  0  0  0  0  0  0  0
  188.3970  176.0460  145.1130 C   0  0  0  0  0  0  0  0  0  0  0  0
  190.1560  177.5680  147.3970 C   0  0  0  0  0  1  0  0  0  0  0  0
  188.1260  176.8150  146.2740 N   0  0  0  0  0  0  0  0  0  0  0  0
  185.0220  178.3480  147.6430 C   0  0  0  0  0  2  0  0  0  0  0  0
  186.0220  179.2520  144.8390 O   0  0  0  0  0  1  0  0  0  0  0  0
  190.5520  173.1090  144.6090 C   0  0  0  0  0  3  0  0  0  0  0  0
  189.6290  174.1290  144.3500 C   0  0  0  0  0  0  0  0  0  0  0  0
  185.9140  177.9070  144.4730 C   0  0  2  0  0  3  0  0  0  0  0  0
  187.0180  177.1250  139.7260 C   0  0  0  0  0  2  0  0  0  0  0  0
  186.6860  176.4180  137.6620 C   0  0  0  0  0  1  0  0  0  0  0  0
  187.0940  175.9840  138.9220 O   0  0  0  0  0  0  0  0  0  0  0  0
  1 19  2  0  0  0  0
  1  4  1  0  0  0  0
  2 13  2  0  0  0  0
  2 19  1  0  0  0  0
  3 10  1  0  0  0  0
  4 20  2  0  0  0  0
  5  1  1  0  0  0  0
  6  8  2  0  0  0  0
  7 15  1  1  0  0  0
  7  9  1  0  0  0  0
  9 14  1  6  0  0  0
 10 21  1  6  0  0  0
 11  5  1  0  0  0  0
 11  8  1  0  0  0  0
 12  8  1  6  0  0  0
 12  4  1  0  0  0  0
 12 27  1  0  0  0  0
 13 18  1  0  0  0  0
 15 23  1  0  0  0  0
 16  2  1  0  0  0  0
 17  3  1  0  0  0  0
 18 25  2  0  0  0  0
 19 26  1  0  0  0  0
 20 17  1  0  0  0  0
 20 22  1  0  0  0  0
 22  9  1  0  0  0  0
 22 10  1  0  0  0  0
 23 14  1  0  0  0  0
 26 25  1  0  0  0  0
 26 17  2  0  0  0  0
 27 24  1  1  0  0  0
 27  7  1  0  0  0  0
 28 11  1  0  0  0  0
 29 30  1  0  0  0  0
 30 28  1  0  0  0  0
M  END
>  <MODEL>
4

>  <REMARK>
 VINA RESULT:      -8.3      2.552      5.330
  Name = 
  2 active torsions:
  status: ('A' for Active; 'I' for Inactive)
    1  A    between atoms: N_11  and  C_28
    2  A    between atoms: C_28  and  O_30
                            x       y       z     vdW  Elec       q    Type
                         _______ _______ _______ _____ _____    ______ ____

>  <TORSDO>
F 2

$$$$
=
 OpenBabel11112416133D

 30 35  0  0  1  0  0  0  0  0999 V2000
  188.1220  175.8330  142.0320 C   0  0  0  0  0  0  0  0  0  0  0  0
  186.6080  176.9570  140.3910 C   0  0  0  0  0  0  0  0  0  0  0  0
  186.6580  178.1840  145.2760 C   0  0  0  0  0  2  0  0  0  0  0  0
  188.5700  175.7140  143.3670 C   0  0  0  0  0  0  0  0  0  0  0  0
  188.7980  175.0020  140.9770 C   0  0  0  0  0  2  0  0  0  0  0  0
  190.0080  172.3320  143.1590 O   0  0  0  0  0  0  0  0  0  0  0  0
  190.9460  176.3040  144.9820 C   0  0  1  0  0  3  0  0  0  0  0  0
  189.5420  173.4490  142.8050 C   0  0  0  0  0  0  0  0  0  0  0  0
  189.9380  176.9390  145.9380 C   0  0  2  0  0  3  0  0  0  0  0  0
  187.5450  177.5410  146.3610 C   0  0  1  0  0  3  0  0  0  0  0  0
  189.1020  173.6520  141.4540 N   0  0  0  0  0  0  0  0  0  0  0  0
  189.3930  174.5390  143.8280 C   0  0  1  0  0  3  0  0  0  0  0  0
  185.5980  177.8890  140.1360 C   0  0  0  0  0  3  0  0  0  0  0  0
  190.3680  176.5380  147.3290 C   0  0  0  0  0  2  0  0  0  0  0  0
  192.2510  176.4010  145.7550 C   0  0  0  0  0  2  0  0  0  0  0  0
  187.0700  176.2270  139.3450 F   0  0  0  0  0  0  0  0  0  0  0  0
  187.0580  177.4580  144.0420 C   0  0  0  0  0  0  0  0  0  0  0  0
  185.0680  178.6650  141.1670 C   0  0  0  0  0  3  0  0  0  0  0  0
  187.1100  176.7880  141.7050 C   0  0  0  0  0  0  0  0  0  0  0  0
  188.0640  176.5880  144.3240 C   0  0  0  0  0  0  0  0  0  0  0  0
  186.6900  176.6890  147.2790 C   0  0  0  0  0  1  0  0  0  0  0  0
  188.5190  176.6940  145.6650 N   0  0  0  0  0  0  0  0  0  0  0  0
  191.8830  176.4450  147.2390 C   0  0  0  0  0  2  0  0  0  0  0  0
  190.7690  173.9820  145.6990 O   0  0  0  0  0  1  0  0  0  0  0  0
  185.5460  178.5190  142.4660 C   0  0  0  0  0  3  0  0  0  0  0  0
  186.5580  177.5930  142.7450 C   0  0  0  0  0  0  0  0  0  0  0  0
  190.6880  174.8320  144.5920 C   0  0  2  0  0  3  0  0  0  0  0  0
  189.1150  172.5230  140.5220 C   0  0  0  0  0  2  0  0  0  0  0  0
  188.9360  172.4640  138.3230 C   0  0  0  0  0  1  0  0  0  0  0  0
  188.2010  172.7110  139.4820 O   0  0  0  0  0  0  0  0  0  0  0  0
  1  4  1  0  0  0  0
  2 19  1  0  0  0  0
  3 10  1  0  0  0  0
  4 12  1  0  0  0  0
  4 20  2  0  0  0  0
  5 11  1  0  0  0  0
  5  1  1  0  0  0  0
  7 15  1  1  0  0  0
  7  9  1  0  0  0  0
  8  6  2  0  0  0  0
  9 14  1  1  0  0  0
 10 21  1  1  0  0  0
 11  8  1  0  0  0  0
 12  8  1  6  0  0  0
 12 27  1  0  0  0  0
 13  2  2  0  0  0  0
 13 18  1  0  0  0  0
 15 23  1  0  0  0  0
 16  2  1  0  0  0  0
 17 20  1  0  0  0  0
 17  3  1  0  0  0  0
 18 25  2  0  0  0  0
 19  1  2  0  0  0  0
 19 26  1  0  0  0  0
 20 22  1  0  0  0  0
 22  9  1  0  0  0  0
 22 10  1  0  0  0  0
 23 14  1  0  0  0  0
 25 26  1  0  0  0  0
 26 17  2  0  0  0  0
 27  7  1  0  0  0  0
 27 24  1  1  0  0  0
 28 11  1  0  0  0  0
 29 30  1  0  0  0  0
 30 28  1  0  0  0  0
M  END
>  <MODEL>
5

>  <REMARK>
 VINA RESULT:      -8.3      2.610      4.414
  Name = 
  2 active torsions:
  status: ('A' for Active; 'I' for Inactive)
    1  A    between atoms: N_11  and  C_28
    2  A    between atoms: C_28  and  O_30
                            x       y       z     vdW  Elec       q    Type
                         _______ _______ _______ _____ _____    ______ ____

>  <TORSDO>
F 2

$$$$
=
 OpenBabel11112416133D

 30 35  0  0  1  0  0  0  0  0999 V2000
  188.5820  175.7230  143.2180 C   0  0  0  0  0  0  0  0  0  0  0  0
  186.3810  176.9020  143.3290 C   0  0  0  0  0  0  0  0  0  0  0  0
  189.7920  177.2300  147.0210 C   0  0  0  0  0  2  0  0  0  0  0  0
  189.8210  175.4310  143.8330 C   0  0  0  0  0  0  0  0  0  0  0  0
  188.3340  175.1960  141.8330 C   0  0  0  0  0  2  0  0  0  0  0  0
  190.6500  172.3730  141.9600 O   0  0  0  0  0  0  0  0  0  0  0  0
  192.6700  176.0460  143.5110 C   0  0  1  0  0  3  0  0  0  0  0  0
  190.0930  173.4590  142.2740 C   0  0  0  0  0  0  0  0  0  0  0  0
  192.6070  176.3540  145.0050 C   0  0  2  0  0  3  0  0  0  0  0  0
  191.1680  176.5340  147.0460 C   0  0  1  0  0  3  0  0  0  0  0  0
  188.8520  173.8380  141.6610 N   0  0  0  0  0  0  0  0  0  0  0  0
  190.7100  174.3180  143.3420 C   0  0  1  0  0  3  0  0  0  0  0  0
  185.4920  177.7150  144.0380 C   0  0  0  0  0  3  0  0  0  0  0  0
  193.8630  175.7740  145.6080 C   0  0  0  0  0  2  0  0  0  0  0  0
  194.1520  176.1830  143.2020 C   0  0  0  0  0  2  0  0  0  0  0  0
  185.9840  176.4410  142.1170 F   0  0  0  0  0  0  0  0  0  0  0  0
  189.2210  176.7990  145.7180 C   0  0  0  0  0  0  0  0  0  0  0  0
  185.8300  178.2130  145.2960 C   0  0  0  0  0  3  0  0  0  0  0  0
  187.6430  176.5720  143.8820 C   0  0  0  0  0  0  0  0  0  0  0  0
  190.1290  176.0410  145.0450 C   0  0  0  0  0  0  0  0  0  0  0  0
  191.1550  175.4210  148.0770 C   0  0  0  0  0  1  0  0  0  0  0  0
  191.3800  175.9680  145.7110 N   0  0  0  0  0  0  0  0  0  0  0  0
  194.9030  175.9100  144.5060 C   0  0  0  0  0  2  0  0  0  0  0  0
  192.9820  173.6310  143.6130 O   0  0  0  0  0  1  0  0  0  0  0  0
  187.0650  177.9050  145.8590 C   0  0  0  0  0  3  0  0  0  0  0  0
  187.9720  177.0940  145.1680 C   0  0  0  0  0  0  0  0  0  0  0  0
  192.1830  174.6460  143.0770 C   0  0  2  0  0  3  0  0  0  0  0  0
  188.1970  172.9070  140.7410 C   0  0  0  0  0  2  0  0  0  0  0  0
  188.9040  172.3500  138.7260 C   0  0  0  0  0  1  0  0  0  0  0  0
  188.2540  173.3670  139.4230 O   0  0  0  0  0  0  0  0  0  0  0  0
  1  4  2  0  0  0  0
  1 19  1  0  0  0  0
  2 19  2  0  0  0  0
  2 13  1  0  0  0  0
  3 10  1  0  0  0  0
  4 20  1  0  0  0  0
  5  1  1  0  0  0  0
  6  8  2  0  0  0  0
  7 15  1  1  0  0  0
  7  9  1  0  0  0  0
  9 14  1  1  0  0  0
  9 22  1  0  0  0  0
 10 21  1  1  0  0  0
 11  5  1  0  0  0  0
 11  8  1  0  0  0  0
 12  8  1  6  0  0  0
 12  4  1  0  0  0  0
 13 18  2  0  0  0  0
 15 23  1  0  0  0  0
 16  2  1  0  0  0  0
 17  3  1  0  0  0  0
 18 25  1  0  0  0  0
 19 26  1  0  0  0  0
 20 22  1  0  0  0  0
 20 17  2  0  0  0  0
 22 10  1  0  0  0  0
 23 14  1  0  0  0  0
 26 17  1  0  0  0  0
 26 25  2  0  0  0  0
 27 12  1  0  0  0  0
 27  7  1  0  0  0  0
 27 24  1  1  0  0  0
 28 11  1  0  0  0  0
 29 30  1  0  0  0  0
 30 28  1  0  0  0  0
M  END
>  <MODEL>
6

>  <REMARK>
 VINA RESULT:      -8.1      2.492      3.551
  Name = 
  2 active torsions:
  status: ('A' for Active; 'I' for Inactive)
    1  A    between atoms: N_11  and  C_28
    2  A    between atoms: C_28  and  O_30
                            x       y       z     vdW  Elec       q    Type
                         _______ _______ _______ _____ _____    ______ ____

>  <TORSDO>
F 2

$$$$
=
 OpenBabel11112416133D

 30 35  0  0  1  0  0  0  0  0999 V2000
  189.8690  176.4900  145.0930 C   0  0  0  0  0  0  0  0  0  0  0  0
  188.7710  177.5540  147.0700 C   0  0  0  0  0  0  0  0  0  0  0  0
  186.3180  176.7530  142.7440 C   0  0  0  0  0  2  0  0  0  0  0  0
  189.7640  176.0430  143.7560 C   0  0  0  0  0  0  0  0  0  0  0  0
  191.1580  176.2450  145.8260 C   0  0  0  0  0  2  0  0  0  0  0  0
  193.3450  176.0180  142.9070 O   0  0  0  0  0  0  0  0  0  0  0  0
  189.6910  173.5310  142.2440 C   0  0  1  0  0  3  0  0  0  0  0  0
  192.2870  176.0430  143.5910 C   0  0  0  0  0  0  0  0  0  0  0  0
  188.4760  174.1630  141.5670 C   0  0  2  0  0  3  0  0  0  0  0  0
  186.9120  176.1150  141.4720 C   0  0  1  0  0  3  0  0  0  0  0  0
  192.3260  176.4510  144.9670 N   0  0  0  0  0  0  0  0  0  0  0  0
  190.9790  175.7050  142.9320 C   0  0  1  0  0  3  0  0  0  0  0  0
  187.6390  178.1460  147.6370 C   0  0  0  0  0  3  0  0  0  0  0  0
  188.5960  173.8370  140.0980 C   0  0  0  0  0  2  0  0  0  0  0  0
  189.8830  172.2450  141.4580 C   0  0  0  0  0  2  0  0  0  0  0  0
  189.8880  177.4680  147.8350 F   0  0  0  0  0  0  0  0  0  0  0  0
  187.4610  176.7340  143.6950 C   0  0  0  0  0  0  0  0  0  0  0  0
  186.4600  178.2780  146.9030 C   0  0  0  0  0  3  0  0  0  0  0  0
  188.7360  177.0790  145.7350 C   0  0  0  0  0  0  0  0  0  0  0  0
  188.5290  176.1200  143.1180 C   0  0  0  0  0  0  0  0  0  0  0  0
  187.0730  177.1750  140.3990 C   0  0  0  0  0  1  0  0  0  0  0  0
  188.2270  175.5810  141.8400 N   0  0  0  0  0  0  0  0  0  0  0  0
  189.2810  172.4800  140.0710 C   0  0  0  0  0  2  0  0  0  0  0  0
  191.4610  174.5380  140.9050 O   0  0  0  0  0  1  0  0  0  0  0  0
  186.4010  177.8160  145.5910 C   0  0  0  0  0  3  0  0  0  0  0  0
  187.5210  177.2190  145.0020 C   0  0  0  0  0  0  0  0  0  0  0  0
  190.9990  174.3540  142.2110 C   0  0  2  0  0  3  0  0  0  0  0  0
  193.5890  176.9250  145.5350 C   0  0  0  0  0  2  0  0  0  0  0  0
  194.9490  175.2950  146.1370 C   0  0  0  0  0  1  0  0  0  0  0  0
  193.9720  176.1550  146.6360 O   0  0  0  0  0  0  0  0  0  0  0  0
  1 19  1  0  0  0  0
  1  5  1  0  0  0  0
  2 13  1  0  0  0  0
  2 16  1  0  0  0  0
  3 17  1  0  0  0  0
  4  1  2  0  0  0  0
  6  8  2  0  0  0  0
  7 15  1  6  0  0  0
  8 11  1  0  0  0  0
  9 14  1  6  0  0  0
  9 22  1  0  0  0  0
  9  7  1  0  0  0  0
 10 21  1  6  0  0  0
 10 22  1  0  0  0  0
 10  3  1  0  0  0  0
 11 28  1  0  0  0  0
 11  5  1  0  0  0  0
 12  8  1  1  0  0  0
 12  4  1  0  0  0  0
 17 26  1  0  0  0  0
 18 13  2  0  0  0  0
 19  2  2  0  0  0  0
 20 17  2  0  0  0  0
 20  4  1  0  0  0  0
 22 20  1  0  0  0  0
 23 14  1  0  0  0  0
 23 15  1  0  0  0  0
 25 18  1  0  0  0  0
 26 25  2  0  0  0  0
 26 19  1  0  0  0  0
 27 24  1  6  0  0  0
 27  7  1  0  0  0  0
 27 12  1  0  0  0  0
 28 30  1  0  0  0  0
 29 30  1  0  0  0  0
M  END
>  <MODEL>
7

>  <REMARK>
 VINA RESULT:      -7.6      2.780      5.714
  Name = 
  2 active torsions:
  status: ('A' for Active; 'I' for Inactive)
    1  A    between atoms: N_11  and  C_28
    2  A    between atoms: C_28  and  O_30
                            x       y       z     vdW  Elec       q    Type
                         _______ _______ _______ _____ _____    ______ ____

>  <TORSDO>
F 2

$$$$
=
 OpenBabel11112416133D

 30 35  0  0  1  0  0  0  0  0999 V2000
  189.1660  174.9320  141.9050 C   0  0  0  0  0  0  0  0  0  0  0  0
  189.1720  173.6050  139.7870 C   0  0  0  0  0  0  0  0  0  0  0  0
  193.2450  173.9940  142.7260 C   0  0  0  0  0  2  0  0  0  0  0  0
  189.8770  175.3940  143.0370 C   0  0  0  0  0  0  0  0  0  0  0  0
  187.7050  175.2680  141.7980 C   0  0  0  0  0  2  0  0  0  0  0  0
  187.7340  178.2600  143.8950 O   0  0  0  0  0  0  0  0  0  0  0  0
  189.9680  174.9720  145.9370 C   0  0  1  0  0  3  0  0  0  0  0  0
  188.1190  177.1790  143.3740 C   0  0  0  0  0  0  0  0  0  0  0  0
  191.4730  174.8420  145.7070 C   0  0  2  0  0  3  0  0  0  0  0  0
  193.3390  174.7950  144.0400 C   0  0  1  0  0  3  0  0  0  0  0  0
  187.4200  176.6320  142.2450 N   0  0  0  0  0  0  0  0  0  0  0  0
  189.3520  176.5070  143.9060 C   0  0  1  0  0  3  0  0  0  0  0  0
  189.8720  172.8150  138.8710 C   0  0  0  0  0  3  0  0  0  0  0  0
  192.1370  175.5880  146.8390 C   0  0  0  0  0  2  0  0  0  0  0  0
  189.8530  174.9170  147.4520 C   0  0  0  0  0  2  0  0  0  0  0  0
  187.8730  173.8830  139.5170 F   0  0  0  0  0  0  0  0  0  0  0  0
  191.8400  174.2180  142.2950 C   0  0  0  0  0  0  0  0  0  0  0  0
  191.2140  172.5000  139.0810 C   0  0  0  0  0  3  0  0  0  0  0  0
  189.8200  174.0980  140.9470 C   0  0  0  0  0  0  0  0  0  0  0  0
  191.1850  174.9600  143.2290 C   0  0  0  0  0  0  0  0  0  0  0  0
  194.2100  176.0190  143.8280 C   0  0  0  0  0  1  0  0  0  0  0  0
  191.9760  175.2120  144.3810 N   0  0  0  0  0  0  0  0  0  0  0  0
  191.1900  175.4030  148.0150 C   0  0  0  0  0  2  0  0  0  0  0  0
  189.7940  177.3980  146.0780 O   0  0  0  0  0  1  0  0  0  0  0  0
  191.8720  172.9700  140.2140 C   0  0  0  0  0  3  0  0  0  0  0  0
  191.1920  173.7620  141.1460 C   0  0  0  0  0  0  0  0  0  0  0  0
  189.3050  176.2670  145.4190 C   0  0  2  0  0  3  0  0  0  0  0  0
  186.3180  177.3910  141.6520 C   0  0  0  0  0  2  0  0  0  0  0  0
  184.5440  178.4300  142.4560 C   0  0  0  0  0  1  0  0  0  0  0  0
  185.1190  177.1660  142.3340 O   0  0  0  0  0  0  0  0  0  0  0  0
  1  4  1  0  0  0  0
  2 19  1  0  0  0  0
  3 10  1  0  0  0  0
  4 20  2  0  0  0  0
  5  1  1  0  0  0  0
  5 11  1  0  0  0  0
  7 15  1  1  0  0  0
  8  6  2  0  0  0  0
  8 12  1  0  0  0  0
  9  7  1  0  0  0  0
  9 14  1  1  0  0  0
 10 21  1  6  0  0  0
 10 22  1  0  0  0  0
 11  8  1  0  0  0  0
 12  4  1  6  0  0  0
 12 27  1  0  0  0  0
 13 18  1  0  0  0  0
 13  2  2  0  0  0  0
 14 23  1  0  0  0  0
 15 23  1  0  0  0  0
 16  2  1  0  0  0  0
 17  3  1  0  0  0  0
 17 20  1  0  0  0  0
 18 25  2  0  0  0  0
 19 26  1  0  0  0  0
 19  1  2  0  0  0  0
 20 22  1  0  0  0  0
 22  9  1  0  0  0  0
 25 26  1  0  0  0  0
 26 17  2  0  0  0  0
 27  7  1  0  0  0  0
 27 24  1  1  0  0  0
 28 11  1  0  0  0  0
 28 30  1  0  0  0  0
 30 29  1  0  0  0  0
M  END
>  <MODEL>
8

>  <REMARK>
 VINA RESULT:      -7.4      3.066      5.759
  Name = 
  2 active torsions:
  status: ('A' for Active; 'I' for Inactive)
    1  A    between atoms: N_11  and  C_28
    2  A    between atoms: C_28  and  O_30
                            x       y       z     vdW  Elec       q    Type
                         _______ _______ _______ _____ _____    ______ ____

>  <TORSDO>
F 2

$$$$
=
 OpenBabel11112416133D

 30 35  0  0  1  0  0  0  0  0999 V2000
  189.1640  176.5170  145.6940 C   0  0  0  0  0  0  0  0  0  0  0  0
  191.2030  176.1150  147.0830 C   0  0  0  0  0  0  0  0  0  0  0  0
  190.4830  173.8400  142.6470 C   0  0  0  0  0  2  0  0  0  0  0  0
  188.4380  176.2340  144.5150 C   0  0  0  0  0  0  0  0  0  0  0  0
  188.6170  177.5550  146.6340 C   0  0  0  0  0  2  0  0  0  0  0  0
  185.1050  177.2980  145.6570 O   0  0  0  0  0  0  0  0  0  0  0  0
  187.6680  177.5370  142.0030 C   0  0  1  0  0  3  0  0  0  0  0  0
  186.3580  177.1640  145.6090 C   0  0  0  0  0  0  0  0  0  0  0  0
  188.1750  176.2450  141.3660 C   0  0  2  0  0  3  0  0  0  0  0  0
  189.2570  174.0170  141.7280 C   0  0  1  0  0  3  0  0  0  0  0  0
  187.1610  177.4700  146.7590 N   0  0  0  0  0  0  0  0  0  0  0  0
  186.9900  176.6190  144.3600 C   0  0  1  0  0  3  0  0  0  0  0  0
  192.4160  175.4450  147.2630 C   0  0  0  0  0  3  0  0  0  0  0  0
  187.1860  175.8940  140.2810 C   0  0  0  0  0  2  0  0  0  0  0  0
  187.0860  178.2910  140.8180 C   0  0  0  0  0  2  0  0  0  0  0  0
  190.8050  176.9710  148.0560 F   0  0  0  0  0  0  0  0  0  0  0  0
  190.1760  174.7370  143.7920 C   0  0  0  0  0  0  0  0  0  0  0  0
  192.8800  174.5410  146.3080 C   0  0  0  0  0  3  0  0  0  0  0  0
  190.4240  175.8830  145.9210 C   0  0  0  0  0  0  0  0  0  0  0  0
  189.0090  175.3950  143.5620 C   0  0  0  0  0  0  0  0  0  0  0  0
  188.4210  172.7510  141.7460 C   0  0  0  0  0  1  0  0  0  0  0  0
  188.4780  175.1320  142.2720 N   0  0  0  0  0  0  0  0  0  0  0  0
  186.6900  177.2410  139.7780 C   0  0  0  0  0  2  0  0  0  0  0  0
  185.4080  176.8360  142.5840 O   0  0  0  0  0  1  0  0  0  0  0  0
  192.1350  174.2990  145.1570 C   0  0  0  0  0  3  0  0  0  0  0  0
  190.9170  174.9580  144.9540 C   0  0  0  0  0  0  0  0  0  0  0  0
  186.5870  177.3850  143.0960 C   0  0  2  0  0  3  0  0  0  0  0  0
  186.5020  177.8480  148.0100 C   0  0  0  0  0  2  0  0  0  0  0  0
  186.3160  180.0470  148.0130 C   0  0  0  0  0  1  0  0  0  0  0  0
  187.0670  179.0050  148.5540 O   0  0  0  0  0  0  0  0  0  0  0  0
  1 19  1  0  0  0  0
  1  5  1  0  0  0  0
  2 13  1  0  0  0  0
  2 16  1  0  0  0  0
  3 17  1  0  0  0  0
  4  1  2  0  0  0  0
  5 11  1  0  0  0  0
  7 15  1  6  0  0  0
  7 27  1  0  0  0  0
  8  6  2  0  0  0  0
  8 11  1  0  0  0  0
  9 14  1  6  0  0  0
  9  7  1  0  0  0  0
  9 22  1  0  0  0  0
 10 21  1  1  0  0  0
 10 22  1  0  0  0  0
 10  3  1  0  0  0  0
 11 28  1  0  0  0  0
 12  4  1  1  0  0  0
 12  8  1  0  0  0  0
 17 26  1  0  0  0  0
 18 13  2  0  0  0  0
 19  2  2  0  0  0  0
 20 17  2  0  0  0  0
 20  4  1  0  0  0  0
 22 20  1  0  0  0  0
 23 14  1  0  0  0  0
 23 15  1  0  0  0  0
 25 18  1  0  0  0  0
 26 25  2  0  0  0  0
 26 19  1  0  0  0  0
 27 24  1  6  0  0  0
 27 12  1  0  0  0  0
 28 30  1  0  0  0  0
 29 30  1  0  0  0  0
M  END
>  <MODEL>
9

>  <REMARK>
 VINA RESULT:      -7.4      3.016      5.854
  Name = 
  2 active torsions:
  status: ('A' for Active; 'I' for Inactive)
    1  A    between atoms: N_11  and  C_28
    2  A    between atoms: C_28  and  O_30
                            x       y       z     vdW  Elec       q    Type
                         _______ _______ _______ _____ _____    ______ ____

>  <TORSDO>
F 2

$$$$
