=
 OpenBabel11112416373D

 32 37  0  0  1  0  0  0  0  0999 V2000
  192.0940  173.2470  143.4800 C   0  0  0  0  0  2  0  0  0  0  0  0
  187.7280  176.9530  143.5200 C   0  0  1  0  0  3  0  0  0  0  0  0
  186.7400  178.5620  148.0760 C   0  0  0  0  0  2  0  0  0  0  0  0
  185.7390  179.4120  147.2900 C   0  0  0  0  0  2  0  0  0  0  0  0
  186.0010  177.5310  141.6980 N   0  0  0  0  0  0  0  0  0  0  0  0
  184.6540  177.8870  141.3870 C   0  0  0  0  0  0  0  0  0  0  0  0
  189.2680  174.9510  143.4800 N   0  0  2  0  0  0  0  0  0  0  0  0
  189.3730  176.6460  145.3180 C   0  0  0  0  0  2  0  0  0  0  0  0
  182.4760  178.4990  141.8890 N   0  0  0  0  0  0  0  0  0  0  0  0
  191.2170  175.0390  145.0390 C   0  0  0  0  0  2  0  0  0  0  0  0
  187.3760  177.4640  147.2150 C   0  0  0  0  0  2  0  0  0  0  0  0
  187.8730  176.6920  145.0150 C   0  0  1  0  0  3  0  0  0  0  0  0
  187.1730  177.7240  145.7840 N   0  0  1  0  0  0  0  0  0  0  0  0
  185.3960  177.6770  144.0560 C   0  0  0  0  0  0  0  0  0  0  0  0
  182.6630  178.5800  140.4400 C   0  0  0  0  0  2  0  0  0  0  0  0
  190.6670  173.0160  142.9770 C   0  0  0  0  0  2  0  0  0  0  0  0
  190.1590  175.8340  144.2720 C   0  0  1  0  0  3  0  0  0  0  0  0
  184.1060  178.1580  140.2100 C   0  0  0  0  0  3  0  0  0  0  0  0
  190.0310  174.2840  142.4290 C   0  0  0  0  0  2  0  0  0  0  0  0
  192.3460  174.6220  144.1100 C   0  0  1  0  0  3  0  0  0  0  0  0
  184.8840  178.5440  146.3690 C   0  0  0  0  0  2  0  0  0  0  0  0
  185.7290  177.5640  145.5270 C   0  0  2  0  0  3  0  0  0  0  0  0
  184.0440  178.0370  143.6760 N   0  0  0  0  0  0  0  0  0  0  0  0
  188.2390  175.7230  142.7570 C   0  0  0  0  0  2  0  0  0  0  0  0
  187.0110  177.4920  140.6470 C   0  0  0  0  0  1  0  0  0  0  0  0
  181.4230  179.1770  142.6250 C   0  0  0  0  0  1  0  0  0  0  0  0
  186.3280  177.3600  143.1050 C   0  0  0  0  0  0  0  0  0  0  0  0
  183.7190  178.1020  142.4230 C   0  0  0  0  0  0  0  0  0  0  0  0
  193.5990  174.6020  144.8520 N   0  0  0  0  0  2  0  0  0  0  0  0
  194.8420  175.0060  144.2750 C   0  0  0  0  0  0  0  0  0  0  0  0
  194.8950  175.4270  143.0900 O   0  0  0  0  0  0  0  0  0  0  0  0
  196.0840  174.9360  145.0870 C   0  0  0  0  0  1  0  0  0  0  0  0
  1 20  1  0  0  0  0
  2 24  1  6  0  0  0
  2 12  1  0  0  0  0
  4  3  1  0  0  0  0
  5 27  1  0  0  0  0
  6  5  1  0  0  0  0
  6 28  1  0  0  0  0
  7 19  1  6  0  0  0
  7 17  1  0  0  0  0
  9 28  1  0  0  0  0
  9 26  1  0  0  0  0
 11  3  1  0  0  0  0
 12  8  1  1  0  0  0
 12 13  1  0  0  0  0
 13 11  1  1  0  0  0
 14 22  1  0  0  0  0
 15  9  1  0  0  0  0
 16  1  1  0  0  0  0
 17 10  1  1  0  0  0
 17  8  1  0  0  0  0
 18 15  1  0  0  0  0
 18  6  2  0  0  0  0
 19 16  1  0  0  0  0
 20 29  1  1  0  0  0
 20 10  1  0  0  0  0
 21  4  1  0  0  0  0
 22 13  1  0  0  0  0
 22 21  1  1  0  0  0
 23 14  1  0  0  0  0
 24  7  1  0  0  0  0
 25  5  1  0  0  0  0
 27  2  1  0  0  0  0
 27 14  2  0  0  0  0
 28 23  2  0  0  0  0
 30 29  1  0  0  0  0
 30 32  1  0  0  0  0
 31 30  2  0  0  0  0
M  END
>  <MODEL>
1

>  <REMARK>
 VINA RESULT:      -8.8      0.000      0.000
  Name = 
  1 active torsions:
  status: ('A' for Active; 'I' for Inactive)
    1  A    between atoms: C_20  and  N_29
                            x       y       z     vdW  Elec       q    Type
                         _______ _______ _______ _____ _____    ______ ____

>  <TORSDO>
F 1

$$$$
=
 OpenBabel11112416373D

 32 37  0  0  1  0  0  0  0  0999 V2000
  185.5190  177.4130  145.0000 C   0  0  0  0  0  2  0  0  0  0  0  0
  190.6110  175.0920  143.7810 C   0  0  1  0  0  3  0  0  0  0  0  0
  190.2050  171.3950  140.5410 C   0  0  0  0  0  2  0  0  0  0  0  0
  191.7280  171.4410  140.6770 C   0  0  0  0  0  2  0  0  0  0  0  0
  192.8970  175.3570  144.9400 N   0  0  0  0  0  0  0  0  0  0  0  0
  194.1230  174.7440  145.3360 C   0  0  0  0  0  0  0  0  0  0  0  0
  188.3950  175.8130  144.7570 N   0  0  2  0  0  0  0  0  0  0  0  0
  188.5560  174.8330  142.4600 C   0  0  0  0  0  2  0  0  0  0  0  0
  195.6790  173.0280  145.4220 N   0  0  0  0  0  0  0  0  0  0  0  0
  186.4980  175.9970  143.1430 C   0  0  0  0  0  2  0  0  0  0  0  0
  189.5000  172.2610  141.5930 C   0  0  0  0  0  2  0  0  0  0  0  0
  189.6860  174.0590  143.1460 C   0  0  1  0  0  3  0  0  0  0  0  0
  190.4320  173.2070  142.2170 N   0  0  1  0  0  0  0  0  0  0  0  0
  192.3200  173.2670  143.8230 C   0  0  0  0  0  0  0  0  0  0  0  0
  196.2580  174.2180  146.0470 C   0  0  0  0  0  2  0  0  0  0  0  0
  186.5190  176.7870  145.9760 C   0  0  0  0  0  2  0  0  0  0  0  0
  188.0160  175.9800  143.3330 C   0  0  1  0  0  3  0  0  0  0  0  0
  195.1710  175.2780  145.9480 C   0  0  0  0  0  3  0  0  0  0  0  0
  187.9610  176.9720  145.5300 C   0  0  0  0  0  2  0  0  0  0  0  0
  185.9280  177.3540  143.5230 C   0  0  1  0  0  3  0  0  0  0  0  0
  192.1520  171.3930  142.1430 C   0  0  0  0  0  2  0  0  0  0  0  0
  191.3770  172.4030  143.0160 C   0  0  2  0  0  3  0  0  0  0  0  0
  193.5840  172.7010  144.2540 N   0  0  0  0  0  0  0  0  0  0  0  0
  189.8600  175.7800  144.9300 C   0  0  0  0  0  2  0  0  0  0  0  0
  192.6940  176.7880  145.1390 C   0  0  0  0  0  1  0  0  0  0  0  0
  196.4470  171.9060  144.9140 C   0  0  0  0  0  1  0  0  0  0  0  0
  191.9500  174.5260  144.2130 C   0  0  0  0  0  0  0  0  0  0  0  0
  194.3940  173.4040  144.9810 C   0  0  0  0  0  0  0  0  0  0  0  0
  184.7790  177.6490  142.6810 N   0  0  0  0  0  2  0  0  0  0  0  0
  184.9070  178.0990  141.3310 C   0  0  0  0  0  0  0  0  0  0  0  0
  186.0420  178.2350  140.8040 O   0  0  0  0  0  0  0  0  0  0  0  0
  183.6870  178.4030  140.5400 C   0  0  0  0  0  1  0  0  0  0  0  0
  1 16  1  0  0  0  0
  2 27  1  0  0  0  0
  2 24  1  1  0  0  0
  3  4  1  0  0  0  0
  3 11  1  0  0  0  0
  4 21  1  0  0  0  0
  5 25  1  0  0  0  0
  5  6  1  0  0  0  0
  6 18  2  0  0  0  0
  7 24  1  6  0  0  0
  7 19  1  0  0  0  0
  9 15  1  0  0  0  0
 10 17  1  0  0  0  0
 10 20  1  0  0  0  0
 12  8  1  6  0  0  0
 12  2  1  0  0  0  0
 13 11  1  1  0  0  0
 13 22  1  0  0  0  0
 13 12  1  0  0  0  0
 14 27  2  0  0  0  0
 14 23  1  0  0  0  0
 17  8  1  6  0  0  0
 17  7  1  0  0  0  0
 18 15  1  0  0  0  0
 19 16  1  0  0  0  0
 20 29  1  6  0  0  0
 20  1  1  0  0  0  0
 22 21  1  6  0  0  0
 22 14  1  0  0  0  0
 23 28  2  0  0  0  0
 26  9  1  0  0  0  0
 27  5  1  0  0  0  0
 28  6  1  0  0  0  0
 28  9  1  0  0  0  0
 30 29  1  0  0  0  0
 31 30  2  0  0  0  0
 32 30  1  0  0  0  0
M  END
>  <MODEL>
2

>  <REMARK>
 VINA RESULT:      -8.3      2.329      9.352
  Name = 
  1 active torsions:
  status: ('A' for Active; 'I' for Inactive)
    1  A    between atoms: C_20  and  N_29
                            x       y       z     vdW  Elec       q    Type
                         _______ _______ _______ _____ _____    ______ ____

>  <TORSDO>
F 1

$$$$
=
 OpenBabel11112416373D

 32 37  0  0  1  0  0  0  0  0999 V2000
  195.7710  174.5170  146.1380 C   0  0  0  0  0  2  0  0  0  0  0  0
  190.3050  174.9280  144.4780 C   0  0  1  0  0  3  0  0  0  0  0  0
  189.6740  173.3190  139.8580 C   0  0  0  0  0  2  0  0  0  0  0  0
  188.2180  173.6180  140.2190 C   0  0  0  0  0  2  0  0  0  0  0  0
  188.3170  176.1750  145.5410 N   0  0  0  0  0  0  0  0  0  0  0  0
  187.1210  176.9260  145.3380 C   0  0  0  0  0  0  0  0  0  0  0  0
  192.7320  175.2670  145.0950 N   0  0  2  0  0  0  0  0  0  0  0  0
  192.0380  173.5570  143.4040 C   0  0  0  0  0  2  0  0  0  0  0  0
  185.4170  177.8560  144.0720 N   0  0  0  0  0  0  0  0  0  0  0  0
  194.3090  173.4800  144.3500 C   0  0  0  0  0  2  0  0  0  0  0  0
  190.6570  173.8630  140.9030 C   0  0  0  0  0  2  0  0  0  0  0  0
  190.9700  174.6230  143.1400 C   0  0  1  0  0  3  0  0  0  0  0  0
  189.9720  174.1910  142.1590 N   0  0  1  0  0  0  0  0  0  0  0  0
  188.4300  175.8770  143.1240 C   0  0  0  0  0  0  0  0  0  0  0  0
  185.1060  178.0470  145.4890 C   0  0  0  0  0  2  0  0  0  0  0  0
  194.9000  175.7750  146.0910 C   0  0  0  0  0  2  0  0  0  0  0  0
  192.8610  173.8510  144.6720 C   0  0  1  0  0  3  0  0  0  0  0  0
  186.2730  177.4150  146.2330 C   0  0  0  0  0  3  0  0  0  0  0  0
  193.4330  175.4770  146.3570 C   0  0  0  0  0  2  0  0  0  0  0  0
  195.0940  173.2380  145.6300 C   0  0  1  0  0  3  0  0  0  0  0  0
  188.0670  175.0330  140.7740 C   0  0  0  0  0  2  0  0  0  0  0  0
  189.1020  175.3490  141.8750 C   0  0  2  0  0  3  0  0  0  0  0  0
  187.2090  176.6470  142.9830 N   0  0  0  0  0  0  0  0  0  0  0  0
  191.3300  175.6230  145.3870 C   0  0  0  0  0  2  0  0  0  0  0  0
  188.7200  175.7860  146.8880 C   0  0  0  0  0  1  0  0  0  0  0  0
  184.4420  177.9160  142.9970 C   0  0  0  0  0  1  0  0  0  0  0  0
  189.0110  175.7070  144.3520 C   0  0  0  0  0  0  0  0  0  0  0  0
  186.6340  177.1460  144.0300 C   0  0  0  0  0  0  0  0  0  0  0  0
  196.0970  172.2100  145.3950 N   0  0  0  0  0  2  0  0  0  0  0  0
  195.8680  170.8300  145.6830 C   0  0  0  0  0  0  0  0  0  0  0  0
  194.7580  170.4430  146.1360 O   0  0  0  0  0  0  0  0  0  0  0  0
  196.9480  169.8400  145.4400 C   0  0  0  0  0  1  0  0  0  0  0  0
  2 24  1  1  0  0  0
  3  4  1  0  0  0  0
  3 11  1  0  0  0  0
  4 21  1  0  0  0  0
  5 25  1  0  0  0  0
  6  5  1  0  0  0  0
  6 18  2  0  0  0  0
  7 24  1  1  0  0  0
  7 19  1  0  0  0  0
  9 15  1  0  0  0  0
 10 17  1  0  0  0  0
 10 20  1  0  0  0  0
 12  8  1  1  0  0  0
 12  2  1  0  0  0  0
 13 11  1  6  0  0  0
 13 12  1  0  0  0  0
 14 27  2  0  0  0  0
 15 18  1  0  0  0  0
 16  1  1  0  0  0  0
 16 19  1  0  0  0  0
 17  8  1  6  0  0  0
 17  7  1  0  0  0  0
 20 29  1  6  0  0  0
 20  1  1  0  0  0  0
 22 21  1  6  0  0  0
 22 13  1  0  0  0  0
 22 14  1  0  0  0  0
 23 14  1  0  0  0  0
 23 28  2  0  0  0  0
 26  9  1  0  0  0  0
 27  2  1  0  0  0  0
 27  5  1  0  0  0  0
 28  9  1  0  0  0  0
 28  6  1  0  0  0  0
 29 30  1  0  0  0  0
 30 31  2  0  0  0  0
 32 30  1  0  0  0  0
M  END
>  <MODEL>
3

>  <REMARK>
 VINA RESULT:      -8.2      2.241      5.321
  Name = 
  1 active torsions:
  status: ('A' for Active; 'I' for Inactive)
    1  A    between atoms: C_20  and  N_29
                            x       y       z     vdW  Elec       q    Type
                         _______ _______ _______ _____ _____    ______ ____

>  <TORSDO>
F 1

$$$$
=
 OpenBabel11112416373D

 32 37  0  0  1  0  0  0  0  0999 V2000
  190.2960  172.1580  138.4400 C   0  0  0  0  0  2  0  0  0  0  0  0
  188.8040  175.7890  142.6110 C   0  0  1  0  0  3  0  0  0  0  0  0
  191.6650  175.2700  146.5950 C   0  0  0  0  0  2  0  0  0  0  0  0
  190.8150  176.4560  147.0520 C   0  0  0  0  0  2  0  0  0  0  0  0
  186.7020  177.2520  142.8890 N   0  0  0  0  0  0  0  0  0  0  0  0
  185.7370  177.8140  143.7780 C   0  0  0  0  0  0  0  0  0  0  0  0
  189.0500  173.9000  140.9510 N   0  0  2  0  0  0  0  0  0  0  0  0
  190.9380  174.5830  142.4460 C   0  0  0  0  0  2  0  0  0  0  0  0
  184.8330  178.3080  145.8540 N   0  0  0  0  0  0  0  0  0  0  0  0
  191.3850  173.1300  140.5090 C   0  0  0  0  0  2  0  0  0  0  0  0
  191.1240  174.6250  145.3120 C   0  0  0  0  0  2  0  0  0  0  0  0
  189.7580  174.8780  143.3760 C   0  0  1  0  0  3  0  0  0  0  0  0
  190.1730  175.5100  144.6310 N   0  0  1  0  0  0  0  0  0  0  0  0
  187.8600  176.3790  144.8490 C   0  0  0  0  0  0  0  0  0  0  0  0
  184.0620  179.0110  144.8280 C   0  0  0  0  0  2  0  0  0  0  0  0
  188.9320  172.2890  139.1220 C   0  0  0  0  0  2  0  0  0  0  0  0
  190.4870  174.2640  141.0080 C   0  0  1  0  0  3  0  0  0  0  0  0
  184.7210  178.6240  143.5130 C   0  0  0  0  0  3  0  0  0  0  0  0
  188.6370  173.7140  139.5640 C   0  0  0  0  0  2  0  0  0  0  0  0
  191.3890  173.0830  138.9900 C   0  0  1  0  0  3  0  0  0  0  0  0
  189.3250  176.1610  146.8920 C   0  0  0  0  0  2  0  0  0  0  0  0
  188.9810  175.5960  145.4970 C   0  0  2  0  0  3  0  0  0  0  0  0
  186.8490  176.9760  145.7000 N   0  0  0  0  0  0  0  0  0  0  0  0
  188.1920  174.9920  141.4500 C   0  0  0  0  0  2  0  0  0  0  0  0
  186.6910  177.6070  141.4750 C   0  0  0  0  0  1  0  0  0  0  0  0
  184.8550  178.6670  147.2610 C   0  0  0  0  0  1  0  0  0  0  0  0
  187.7560  176.4470  143.4860 C   0  0  0  0  0  0  0  0  0  0  0  0
  185.8550  177.6170  145.1720 C   0  0  0  0  0  0  0  0  0  0  0  0
  192.6930  172.6360  138.5240 N   0  0  0  0  0  2  0  0  0  0  0  0
  193.7360  173.5440  138.1640 C   0  0  0  0  0  0  0  0  0  0  0  0
  193.5690  174.7880  138.2650 O   0  0  0  0  0  0  0  0  0  0  0  0
  195.0340  173.0140  137.6740 C   0  0  0  0  0  1  0  0  0  0  0  0
  1 20  1  0  0  0  0
  1 16  1  0  0  0  0
  2 24  1  6  0  0  0
  2 12  1  0  0  0  0
  2 27  1  0  0  0  0
  3  4  1  0  0  0  0
  5 27  1  0  0  0  0
  5  6  1  0  0  0  0
  6 28  1  0  0  0  0
  7 19  1  6  0  0  0
  7 17  1  0  0  0  0
  7 24  1  0  0  0  0
  9 26  1  0  0  0  0
 11  3  1  0  0  0  0
 12  8  1  6  0  0  0
 12 13  1  0  0  0  0
 13 11  1  1  0  0  0
 13 22  1  0  0  0  0
 14 22  1  0  0  0  0
 14 23  1  0  0  0  0
 15  9  1  0  0  0  0
 16 19  1  0  0  0  0
 17 10  1  1  0  0  0
 17  8  1  0  0  0  0
 18  6  2  0  0  0  0
 18 15  1  0  0  0  0
 20 29  1  1  0  0  0
 20 10  1  0  0  0  0
 21  4  1  0  0  0  0
 22 21  1  1  0  0  0
 25  5  1  0  0  0  0
 27 14  2  0  0  0  0
 28 23  2  0  0  0  0
 28  9  1  0  0  0  0
 30 31  2  0  0  0  0
 30 29  1  0  0  0  0
 32 30  1  0  0  0  0
M  END
>  <MODEL>
4

>  <REMARK>
 VINA RESULT:      -8.1      2.817      4.406
  Name = 
  1 active torsions:
  status: ('A' for Active; 'I' for Inactive)
    1  A    between atoms: C_20  and  N_29
                            x       y       z     vdW  Elec       q    Type
                         _______ _______ _______ _____ _____    ______ ____

>  <TORSDO>
F 1

$$$$
=
 OpenBabel11112416373D

 32 37  0  0  1  0  0  0  0  0999 V2000
  184.7910  178.1490  145.0980 C   0  0  0  0  0  2  0  0  0  0  0  0
  189.7730  176.0780  143.1750 C   0  0  1  0  0  3  0  0  0  0  0  0
  189.1070  172.2910  140.0870 C   0  0  0  0  0  2  0  0  0  0  0  0
  190.6280  172.4210  139.9960 C   0  0  0  0  0  2  0  0  0  0  0  0
  192.1860  176.4940  143.9790 N   0  0  0  0  0  0  0  0  0  0  0  0
  193.4900  175.9570  144.1990 C   0  0  0  0  0  0  0  0  0  0  0  0
  187.6870  176.7010  144.4560 N   0  0  2  0  0  0  0  0  0  0  0  0
  187.5650  175.6780  142.1760 C   0  0  0  0  0  2  0  0  0  0  0  0
  195.1360  174.3300  144.0800 N   0  0  0  0  0  0  0  0  0  0  0  0
  185.5660  176.7450  143.1380 C   0  0  0  0  0  2  0  0  0  0  0  0
  188.5150  173.1410  141.2180 C   0  0  0  0  0  2  0  0  0  0  0  0
  188.8250  174.9830  142.7000 C   0  0  1  0  0  3  0  0  0  0  0  0
  189.4740  174.1510  141.6830 N   0  0  1  0  0  0  0  0  0  0  0  0
  191.5710  174.3500  142.9920 C   0  0  0  0  0  0  0  0  0  0  0  0
  195.7320  175.5640  144.5950 C   0  0  0  0  0  2  0  0  0  0  0  0
  185.9580  177.6010  145.9240 C   0  0  0  0  0  2  0  0  0  0  0  0
  187.0940  176.8140  143.1020 C   0  0  1  0  0  3  0  0  0  0  0  0
  194.5840  176.5610  144.6410 C   0  0  0  0  0  3  0  0  0  0  0  0
  187.3060  177.8540  145.2670 C   0  0  0  0  0  2  0  0  0  0  0  0
  184.9830  178.0780  143.5780 C   0  0  1  0  0  3  0  0  0  0  0  0
  191.2650  172.4300  141.3840 C   0  0  0  0  0  2  0  0  0  0  0  0
  190.5700  173.4170  142.3460 C   0  0  2  0  0  3  0  0  0  0  0  0
  192.9140  173.8630  143.2400 N   0  0  0  0  0  0  0  0  0  0  0  0
  189.1610  176.7520  144.4120 C   0  0  0  0  0  2  0  0  0  0  0  0
  191.9330  177.9150  144.1840 C   0  0  0  0  0  1  0  0  0  0  0  0
  195.8840  173.2390  143.4820 C   0  0  0  0  0  1  0  0  0  0  0  0
  191.1910  175.5960  143.4130 C   0  0  0  0  0  0  0  0  0  0  0  0
  193.7810  174.6250  143.8280 C   0  0  0  0  0  0  0  0  0  0  0  0
  183.7070  178.2910  142.9110 N   0  0  0  0  0  2  0  0  0  0  0  0
  183.5730  178.2970  141.4880 C   0  0  0  0  0  0  0  0  0  0  0  0
  184.5690  178.0880  140.7470 O   0  0  0  0  0  0  0  0  0  0  0  0
  182.2410  178.5440  140.8780 C   0  0  0  0  0  1  0  0  0  0  0  0
  1 16  1  0  0  0  0
  2 27  1  0  0  0  0
  2 24  1  1  0  0  0
  3 11  1  0  0  0  0
  4  3  1  0  0  0  0
  4 21  1  0  0  0  0
  5 25  1  0  0  0  0
  5  6  1  0  0  0  0
  6 18  2  0  0  0  0
  7 24  1  6  0  0  0
  7 19  1  0  0  0  0
  9 15  1  0  0  0  0
 10 20  1  0  0  0  0
 12  8  1  6  0  0  0
 12  2  1  0  0  0  0
 13 11  1  1  0  0  0
 13 22  1  0  0  0  0
 13 12  1  0  0  0  0
 14 23  1  0  0  0  0
 14 27  2  0  0  0  0
 15 18  1  0  0  0  0
 17  8  1  6  0  0  0
 17 10  1  0  0  0  0
 17  7  1  0  0  0  0
 19 16  1  0  0  0  0
 20 29  1  6  0  0  0
 20  1  1  0  0  0  0
 22 21  1  6  0  0  0
 22 14  1  0  0  0  0
 23 28  2  0  0  0  0
 26  9  1  0  0  0  0
 27  5  1  0  0  0  0
 28  9  1  0  0  0  0
 28  6  1  0  0  0  0
 30 29  1  0  0  0  0
 31 30  2  0  0  0  0
 32 30  1  0  0  0  0
M  END
>  <MODEL>
5

>  <REMARK>
 VINA RESULT:      -7.9      2.516      9.039
  Name = 
  1 active torsions:
  status: ('A' for Active; 'I' for Inactive)
    1  A    between atoms: C_20  and  N_29
                            x       y       z     vdW  Elec       q    Type
                         _______ _______ _______ _____ _____    ______ ____

>  <TORSDO>
F 1

$$$$
=
 OpenBabel11112416373D

 32 37  0  0  1  0  0  0  0  0999 V2000
  185.6270  177.4720  146.1650 C   0  0  0  0  0  2  0  0  0  0  0  0
  190.4330  175.5720  143.6960 C   0  0  1  0  0  3  0  0  0  0  0  0
  189.4830  172.3300  140.1030 C   0  0  0  0  0  2  0  0  0  0  0  0
  191.0020  172.4260  139.9550 C   0  0  0  0  0  2  0  0  0  0  0  0
  192.8940  175.7850  144.4300 N   0  0  0  0  0  0  0  0  0  0  0  0
  194.1850  175.1810  144.4980 C   0  0  0  0  0  0  0  0  0  0  0  0
  188.4330  176.0530  145.1630 N   0  0  2  0  0  0  0  0  0  0  0  0
  188.1680  175.3990  142.7610 C   0  0  0  0  0  2  0  0  0  0  0  0
  195.7620  173.5420  144.0480 N   0  0  0  0  0  0  0  0  0  0  0  0
  186.2570  176.3650  143.9760 C   0  0  0  0  0  2  0  0  0  0  0  0
  188.9760  173.0130  141.3790 C   0  0  0  0  0  2  0  0  0  0  0  0
  189.4240  174.5930  143.1070 C   0  0  1  0  0  3  0  0  0  0  0  0
  189.9930  173.9090  141.9440 N   0  0  1  0  0  0  0  0  0  0  0  0
  192.1540  173.8390  143.1590 C   0  0  0  0  0  0  0  0  0  0  0  0
  196.4270  174.6630  144.7140 C   0  0  0  0  0  2  0  0  0  0  0  0
  186.8080  176.7670  146.8370 C   0  0  0  0  0  2  0  0  0  0  0  0
  187.7830  176.3920  143.8730 C   0  0  1  0  0  3  0  0  0  0  0  0
  195.3210  175.6750  144.9710 C   0  0  0  0  0  3  0  0  0  0  0  0
  188.1330  177.0770  146.1590 C   0  0  0  0  0  2  0  0  0  0  0  0
  185.7460  177.6310  144.6440 C   0  0  1  0  0  3  0  0  0  0  0  0
  191.7020  172.2020  141.2940 C   0  0  0  0  0  2  0  0  0  0  0  0
  191.0900  173.0490  142.4300 C   0  0  2  0  0  3  0  0  0  0  0  0
  193.4870  173.2790  143.2610 N   0  0  0  0  0  0  0  0  0  0  0  0
  189.9040  176.0640  145.0510 C   0  0  0  0  0  2  0  0  0  0  0  0
  192.7050  177.1640  144.8630 C   0  0  0  0  0  1  0  0  0  0  0  0
  196.4390  172.5340  143.2520 C   0  0  0  0  0  1  0  0  0  0  0  0
  191.8410  175.0160  143.7850 C   0  0  0  0  0  0  0  0  0  0  0  0
  194.4080  173.9140  143.9130 C   0  0  0  0  0  0  0  0  0  0  0  0
  184.4500  177.9830  144.0830 N   0  0  0  0  0  2  0  0  0  0  0  0
  184.2660  178.2900  142.7000 C   0  0  0  0  0  0  0  0  0  0  0  0
  185.2340  178.2410  141.8960 O   0  0  0  0  0  0  0  0  0  0  0  0
  182.9170  178.6640  142.2040 C   0  0  0  0  0  1  0  0  0  0  0  0
  1 16  1  0  0  0  0
  2 27  1  0  0  0  0
  2 24  1  1  0  0  0
  3 11  1  0  0  0  0
  4  3  1  0  0  0  0
  4 21  1  0  0  0  0
  5  6  1  0  0  0  0
  5 25  1  0  0  0  0
  6 18  2  0  0  0  0
  7 24  1  6  0  0  0
  7 19  1  0  0  0  0
  9 15  1  0  0  0  0
 10 20  1  0  0  0  0
 12  8  1  6  0  0  0
 12  2  1  0  0  0  0
 13 11  1  1  0  0  0
 13 22  1  0  0  0  0
 13 12  1  0  0  0  0
 14 23  1  0  0  0  0
 14 27  2  0  0  0  0
 15 18  1  0  0  0  0
 17  8  1  6  0  0  0
 17 10  1  0  0  0  0
 17  7  1  0  0  0  0
 19 16  1  0  0  0  0
 20 29  1  6  0  0  0
 20  1  1  0  0  0  0
 22 21  1  6  0  0  0
 22 14  1  0  0  0  0
 23 28  2  0  0  0  0
 26  9  1  0  0  0  0
 27  5  1  0  0  0  0
 28  9  1  0  0  0  0
 28  6  1  0  0  0  0
 30 29  1  0  0  0  0
 31 30  2  0  0  0  0
 32 30  1  0  0  0  0
M  END
>  <MODEL>
6

>  <REMARK>
 VINA RESULT:      -7.7      2.386      9.189
  Name = 
  1 active torsions:
  status: ('A' for Active; 'I' for Inactive)
    1  A    between atoms: C_20  and  N_29
                            x       y       z     vdW  Elec       q    Type
                         _______ _______ _______ _____ _____    ______ ____

>  <TORSDO>
F 1

$$$$
=
 OpenBabel11112416373D

 32 37  0  0  1  0  0  0  0  0999 V2000
  186.2580  178.9480  142.9710 C   0  0  0  0  0  2  0  0  0  0  0  0
  189.4920  174.2790  142.2360 C   0  0  1  0  0  3  0  0  0  0  0  0
  193.0880  174.0000  145.6000 C   0  0  0  0  0  2  0  0  0  0  0  0
  193.3230  172.6740  144.8740 C   0  0  0  0  0  2  0  0  0  0  0  0
  189.6390  172.6330  140.2590 N   0  0  0  0  0  0  0  0  0  0  0  0
  190.4630  171.7920  139.4530 C   0  0  0  0  0  0  0  0  0  0  0  0
  188.3630  176.5380  142.1650 N   0  0  2  0  0  0  0  0  0  0  0  0
  189.3830  175.6500  144.2710 C   0  0  0  0  0  2  0  0  0  0  0  0
  192.4350  170.7230  138.8700 N   0  0  0  0  0  0  0  0  0  0  0  0
  187.8510  177.5740  144.3790 C   0  0  0  0  0  2  0  0  0  0  0  0
  192.0950  174.9030  144.8580 C   0  0  0  0  0  2  0  0  0  0  0  0
  190.3440  175.0400  143.2460 C   0  0  1  0  0  3  0  0  0  0  0  0
  191.3300  174.1460  143.8600 N   0  0  1  0  0  0  0  0  0  0  0  0
  191.6000  173.0730  141.6400 C   0  0  0  0  0  0  0  0  0  0  0  0
  191.3650  170.2430  137.9950 C   0  0  0  0  0  2  0  0  0  0  0  0
  187.0450  178.5440  141.7220 C   0  0  0  0  0  2  0  0  0  0  0  0
  188.1460  176.2850  143.6110 C   0  0  1  0  0  3  0  0  0  0  0  0
  190.1240  170.9980  138.4460 C   0  0  0  0  0  3  0  0  0  0  0  0
  187.1340  177.0350  141.5540 C   0  0  0  0  0  2  0  0  0  0  0  0
  186.4080  178.0030  144.1690 C   0  0  1  0  0  3  0  0  0  0  0  0
  193.4310  172.8830  143.3650 C   0  0  0  0  0  2  0  0  0  0  0  0
  192.2850  173.7520  142.8060 C   0  0  2  0  0  3  0  0  0  0  0  0
  192.3840  172.2040  140.7850 N   0  0  0  0  0  0  0  0  0  0  0  0
  188.6640  175.2930  141.4330 C   0  0  0  0  0  2  0  0  0  0  0  0
  188.1930  172.6470  140.0660 C   0  0  0  0  0  1  0  0  0  0  0  0
  193.6860  170.0240  139.1050 C   0  0  0  0  0  1  0  0  0  0  0  0
  190.2890  173.3430  141.3500 C   0  0  0  0  0  0  0  0  0  0  0  0
  191.8350  171.6400  139.7560 C   0  0  0  0  0  0  0  0  0  0  0  0
  185.9170  178.6530  145.3740 N   0  0  0  0  0  2  0  0  0  0  0  0
  185.3110  177.9300  146.4480 C   0  0  0  0  0  0  0  0  0  0  0  0
  185.2030  176.6760  146.3990 O   0  0  0  0  0  0  0  0  0  0  0  0
  184.8110  178.6650  147.6380 C   0  0  0  0  0  1  0  0  0  0  0  0
  1 20  1  0  0  0  0
  2 24  1  6  0  0  0
  2 12  1  0  0  0  0
  4  3  1  0  0  0  0
  5 27  1  0  0  0  0
  6 28  1  0  0  0  0
  6  5  1  0  0  0  0
  7 24  1  6  0  0  0
  7 17  1  0  0  0  0
  9 26  1  0  0  0  0
  9 28  1  0  0  0  0
 11  3  1  0  0  0  0
 12 13  1  0  0  0  0
 12  8  1  1  0  0  0
 13 11  1  1  0  0  0
 14 22  1  0  0  0  0
 15 18  1  0  0  0  0
 15  9  1  0  0  0  0
 16  1  1  0  0  0  0
 17  8  1  1  0  0  0
 17 10  1  0  0  0  0
 18  6  2  0  0  0  0
 19 16  1  0  0  0  0
 19  7  1  0  0  0  0
 20 10  1  0  0  0  0
 20 29  1  1  0  0  0
 21  4  1  0  0  0  0
 22 21  1  1  0  0  0
 22 13  1  0  0  0  0
 23 14  1  0  0  0  0
 25  5  1  0  0  0  0
 27 14  2  0  0  0  0
 27  2  1  0  0  0  0
 28 23  2  0  0  0  0
 29 30  1  0  0  0  0
 30 32  1  0  0  0  0
 31 30  2  0  0  0  0
M  END
>  <MODEL>
7

>  <REMARK>
 VINA RESULT:      -7.7      3.389      8.314
  Name = 
  1 active torsions:
  status: ('A' for Active; 'I' for Inactive)
    1  A    between atoms: C_20  and  N_29
                            x       y       z     vdW  Elec       q    Type
                         _______ _______ _______ _____ _____    ______ ____

>  <TORSDO>
F 1

$$$$
=
 OpenBabel11112416373D

 32 37  0  0  1  0  0  0  0  0999 V2000
  186.3560  177.6630  142.3440 C   0  0  0  0  0  2  0  0  0  0  0  0
  190.9700  174.4080  143.3020 C   0  0  1  0  0  3  0  0  0  0  0  0
  194.1870  176.6380  146.3030 C   0  0  0  0  0  2  0  0  0  0  0  0
  194.8940  175.2910  146.1380 C   0  0  0  0  0  2  0  0  0  0  0  0
  191.7950  172.2750  142.1150 N   0  0  0  0  0  0  0  0  0  0  0  0
  192.9070  171.5080  141.6550 C   0  0  0  0  0  0  0  0  0  0  0  0
  189.1830  175.9610  142.4220 N   0  0  2  0  0  0  0  0  0  0  0  0
  190.2650  176.3390  144.6470 C   0  0  0  0  0  2  0  0  0  0  0  0
  195.1580  171.0060  141.4240 N   0  0  0  0  0  0  0  0  0  0  0  0
  188.1920  177.5400  144.0840 C   0  0  0  0  0  2  0  0  0  0  0  0
  193.0180  176.8070  145.3250 C   0  0  0  0  0  2  0  0  0  0  0  0
  191.4490  175.7320  143.8880 C   0  0  1  0  0  3  0  0  0  0  0  0
  192.6180  175.5190  144.7440 N   0  0  1  0  0  0  0  0  0  0  0  0
  193.3940  173.8270  143.1050 C   0  0  0  0  0  0  0  0  0  0  0  0
  194.3720  169.9050  140.8660 C   0  0  0  0  0  2  0  0  0  0  0  0
  187.3280  177.0910  141.3090 C   0  0  0  0  0  2  0  0  0  0  0  0
  188.9450  176.2280  143.8620 C   0  0  1  0  0  3  0  0  0  0  0  0
  192.9230  170.3250  141.0570 C   0  0  0  0  0  3  0  0  0  0  0  0
  187.9120  175.7530  141.7350 C   0  0  0  0  0  2  0  0  0  0  0  0
  186.7090  177.3570  143.8050 C   0  0  1  0  0  3  0  0  0  0  0  0
  195.0470  174.9250  144.6630 C   0  0  0  0  0  2  0  0  0  0  0  0
  193.7300  175.0860  143.8740 C   0  0  2  0  0  3  0  0  0  0  0  0
  194.4820  173.0040  142.6120 N   0  0  0  0  0  0  0  0  0  0  0  0
  189.9250  174.7030  142.2160 C   0  0  0  0  0  2  0  0  0  0  0  0
  190.4420  171.7390  142.0140 C   0  0  0  0  0  1  0  0  0  0  0  0
  196.5450  170.9020  141.8420 C   0  0  0  0  0  1  0  0  0  0  0  0
  192.0940  173.5190  142.8060 C   0  0  0  0  0  0  0  0  0  0  0  0
  194.2260  171.9420  141.9160 C   0  0  0  0  0  0  0  0  0  0  0  0
  185.9400  178.2220  144.6880 N   0  0  0  0  0  2  0  0  0  0  0  0
  185.2250  177.7260  145.8210 C   0  0  0  0  0  0  0  0  0  0  0  0
  185.2560  176.5020  146.1160 O   0  0  0  0  0  0  0  0  0  0  0  0
  184.4420  178.6660  146.6640 C   0  0  0  0  0  1  0  0  0  0  0  0
  1 20  1  0  0  0  0
  2 24  1  6  0  0  0
  2 12  1  0  0  0  0
  4  3  1  0  0  0  0
  5 27  1  0  0  0  0
  6 28  1  0  0  0  0
  6  5  1  0  0  0  0
  7 19  1  6  0  0  0
  7 17  1  0  0  0  0
  9 26  1  0  0  0  0
  9 28  1  0  0  0  0
 11  3  1  0  0  0  0
 12  8  1  1  0  0  0
 12 13  1  0  0  0  0
 13 11  1  6  0  0  0
 14 22  1  0  0  0  0
 15 18  1  0  0  0  0
 15  9  1  0  0  0  0
 16 19  1  0  0  0  0
 16  1  1  0  0  0  0
 17 10  1  6  0  0  0
 17  8  1  0  0  0  0
 18  6  2  0  0  0  0
 20 10  1  0  0  0  0
 20 29  1  1  0  0  0
 21  4  1  0  0  0  0
 22 21  1  1  0  0  0
 22 13  1  0  0  0  0
 23 14  1  0  0  0  0
 24  7  1  0  0  0  0
 25  5  1  0  0  0  0
 27 14  2  0  0  0  0
 27  2  1  0  0  0  0
 28 23  2  0  0  0  0
 29 30  1  0  0  0  0
 30 31  2  0  0  0  0
 30 32  1  0  0  0  0
M  END
>  <MODEL>
8

>  <REMARK>
 VINA RESULT:      -7.7      2.929      8.913
  Name = 
  1 active torsions:
  status: ('A' for Active; 'I' for Inactive)
    1  A    between atoms: C_20  and  N_29
                            x       y       z     vdW  Elec       q    Type
                         _______ _______ _______ _____ _____    ______ ____

>  <TORSDO>
F 1

$$$$
=
 OpenBabel11112416373D

 32 37  0  0  1  0  0  0  0  0999 V2000
  191.6290  170.7060  139.2330 C   0  0  0  0  0  2  0  0  0  0  0  0
  189.4180  174.9730  142.3480 C   0  0  1  0  0  3  0  0  0  0  0  0
  191.6170  175.3520  146.7470 C   0  0  0  0  0  2  0  0  0  0  0  0
  190.6810  176.5590  146.8320 C   0  0  0  0  0  2  0  0  0  0  0  0
  187.2690  176.3550  142.0150 N   0  0  0  0  0  0  0  0  0  0  0  0
  186.1630  177.0240  142.6210 C   0  0  0  0  0  0  0  0  0  0  0  0
  189.9640  172.8220  141.1410 N   0  0  2  0  0  0  0  0  0  0  0  0
  191.5750  173.8660  142.7460 C   0  0  0  0  0  2  0  0  0  0  0  0
  184.9300  177.8510  144.4010 N   0  0  0  0  0  0  0  0  0  0  0  0
  192.3530  172.1010  141.2170 C   0  0  0  0  0  2  0  0  0  0  0  0
  191.3000  174.4520  145.5450 C   0  0  0  0  0  2  0  0  0  0  0  0
  190.2550  174.2700  143.4110 C   0  0  1  0  0  3  0  0  0  0  0  0
  190.4520  175.1460  144.5690 N   0  0  1  0  0  0  0  0  0  0  0  0
  188.1170  175.9230  144.2600 C   0  0  0  0  0  0  0  0  0  0  0  0
  184.3190  178.3100  143.1530 C   0  0  0  0  0  2  0  0  0  0  0  0
  190.1710  170.8930  139.6600 C   0  0  0  0  0  2  0  0  0  0  0  0
  191.3650  173.2620  141.3460 C   0  0  1  0  0  3  0  0  0  0  0  0
  185.1870  177.7180  142.0530 C   0  0  0  0  0  3  0  0  0  0  0  0
  189.7800  172.3590  139.7690 C   0  0  0  0  0  2  0  0  0  0  0  0
  192.6010  171.7710  139.7540 C   0  0  1  0  0  3  0  0  0  0  0  0
  189.2410  176.1650  146.5060 C   0  0  0  0  0  2  0  0  0  0  0  0
  189.1360  175.3320  145.2100 C   0  0  2  0  0  3  0  0  0  0  0  0
  186.9710  176.6170  144.8160 N   0  0  0  0  0  0  0  0  0  0  0  0
  189.0150  173.9430  141.2830 C   0  0  0  0  0  2  0  0  0  0  0  0
  187.4770  176.4380  140.5740 C   0  0  0  0  0  1  0  0  0  0  0  0
  184.7210  178.4670  145.6990 C   0  0  0  0  0  1  0  0  0  0  0  0
  188.2300  175.7290  142.9100 C   0  0  0  0  0  0  0  0  0  0  0  0
  186.0620  177.0980  144.0280 C   0  0  0  0  0  0  0  0  0  0  0  0
  193.9710  171.3110  139.5870 N   0  0  0  0  0  2  0  0  0  0  0  0
  194.8090  171.7550  138.5180 C   0  0  0  0  0  0  0  0  0  0  0  0
  194.3900  172.5960  137.6800 O   0  0  0  0  0  0  0  0  0  0  0  0
  196.1900  171.2220  138.3980 C   0  0  0  0  0  1  0  0  0  0  0  0
  1 16  1  0  0  0  0
  1 20  1  0  0  0  0
  2 24  1  6  0  0  0
  2 27  1  0  0  0  0
  2 12  1  0  0  0  0
  3  4  1  0  0  0  0
  5  6  1  0  0  0  0
  5 27  1  0  0  0  0
  6 28  1  0  0  0  0
  7 19  1  6  0  0  0
  7 24  1  0  0  0  0
  7 17  1  0  0  0  0
  9 26  1  0  0  0  0
 11  3  1  0  0  0  0
 12  8  1  6  0  0  0
 12 13  1  0  0  0  0
 13 22  1  0  0  0  0
 13 11  1  1  0  0  0
 14 23  1  0  0  0  0
 14 22  1  0  0  0  0
 15  9  1  0  0  0  0
 16 19  1  0  0  0  0
 17 10  1  1  0  0  0
 17  8  1  0  0  0  0
 18  6  2  0  0  0  0
 18 15  1  0  0  0  0
 20 29  1  1  0  0  0
 20 10  1  0  0  0  0
 21  4  1  0  0  0  0
 22 21  1  1  0  0  0
 25  5  1  0  0  0  0
 27 14  2  0  0  0  0
 28  9  1  0  0  0  0
 28 23  2  0  0  0  0
 30 29  1  0  0  0  0
 31 30  2  0  0  0  0
 32 30  1  0  0  0  0
M  END
>  <MODEL>
9

>  <REMARK>
 VINA RESULT:      -7.2      2.915      4.357
  Name = 
  1 active torsions:
  status: ('A' for Active; 'I' for Inactive)
    1  A    between atoms: C_20  and  N_29
                            x       y       z     vdW  Elec       q    Type
                         _______ _______ _______ _____ _____    ______ ____

>  <TORSDO>
F 1

$$$$
