=
 OpenBabel11112417403D

 28 32  0  0  1  0  0  0  0  0999 V2000
  190.1350  174.6880  142.1390 C   0  0  0  0  0  0  0  0  0  0  0  0
  187.2970  178.8500  142.2240 O   0  0  0  0  0  1  0  0  0  0  0  0
  189.4790  174.9750  147.2770 C   0  0  0  0  0  1  0  0  0  0  0  0
  188.2660  172.6430  141.7340 C   0  0  0  0  0  3  0  0  0  0  0  0
  187.8430  176.6910  146.2890 C   0  0  2  0  0  3  0  0  0  0  0  0
  191.0580  175.7110  142.3700 O   0  0  0  0  0  0  0  0  0  0  0  0
  186.4060  177.4750  140.6510 O   0  0  0  0  0  1  0  0  0  0  0  0
  186.4020  177.7950  142.0090 C   0  0  0  0  0  0  0  0  0  0  0  0
  184.9590  178.5310  143.8770 C   0  0  1  0  0  3  0  0  0  0  0  0
  186.8100  176.5370  142.8200 C   0  0  2  0  0  3  0  0  0  0  0  0
  191.6590  173.9560  144.8550 O   0  0  0  0  0  1  0  0  0  0  0  0
  188.8650  176.8020  144.1100 C   0  0  1  0  0  3  0  0  0  0  0  0
  185.2170  177.2290  144.6160 C   0  0  0  0  0  2  0  0  0  0  0  0
  185.0040  178.2550  142.3890 C   0  0  0  0  0  2  0  0  0  0  0  0
  191.9660  175.2950  144.6080 C   0  0  2  0  0  3  0  0  0  0  0  0
  188.7630  174.9570  142.2990 C   0  0  0  0  0  0  0  0  0  0  0  0
  188.7260  175.4860  146.0460 C   0  0  1  0  0  3  0  0  0  0  0  0
  183.6990  179.0170  144.2210 O   0  0  0  0  0  1  0  0  0  0  0  0
  190.8850  176.2240  145.1770 C   0  0  0  0  0  2  0  0  0  0  0  0
  187.8340  173.9220  142.0950 C   0  0  0  0  0  3  0  0  0  0  0  0
  190.5630  173.4010  141.7870 C   0  0  0  0  0  3  0  0  0  0  0  0
  189.6300  172.3820  141.5820 C   0  0  0  0  0  3  0  0  0  0  0  0
  192.2540  175.5190  143.1180 C   0  0  0  0  0  2  0  0  0  0  0  0
  187.6400  177.2480  144.9000 C   0  0  1  0  0  3  0  0  0  0  0  0
  189.5430  175.7290  144.8480 N   0  0  2  0  0  0  0  0  0  0  0  0
  186.4990  176.6040  144.2590 N   0  0  2  0  0  0  0  0  0  0  0  0
  188.5110  177.6420  147.0650 O   0  0  0  0  0  1  0  0  0  0  0  0
  188.3240  176.3390  142.7420 C   0  0  1  0  0  3  0  0  0  0  0  0
  1 16  1  0  0  0  0
  1  6  1  0  0  0  0
  4 20  1  0  0  0  0
  5 27  1  1  0  0  0
  6 23  1  0  0  0  0
  7  8  1  0  0  0  0
  8  2  1  0  0  0  0
  8 14  1  0  0  0  0
  9 18  1  1  0  0  0
  9 13  1  0  0  0  0
 10  8  1  6  0  0  0
 10 26  1  0  0  0  0
 12 25  1  0  0  0  0
 12 24  1  0  0  0  0
 14  9  1  0  0  0  0
 15 11  1  0  0  0  0
 15 19  1  0  0  0  0
 16 28  1  0  0  0  0
 17  5  1  0  0  0  0
 17  3  1  0  0  0  0
 20 16  2  0  0  0  0
 21  1  2  0  0  0  0
 22  4  2  0  0  0  0
 22 21  1  0  0  0  0
 23 15  1  0  0  0  0
 24  5  1  0  0  0  0
 25 19  1  0  0  0  0
 25 17  1  0  0  0  0
 26 13  1  0  0  0  0
 26 24  1  0  0  0  0
 28 10  1  0  0  0  0
 28 12  1  0  0  0  0
M  END
>  <MODEL>
1

>  <REMARK>
 VINA RESULT:      -8.4      0.000      0.000
  Name = 
  0 active torsions:
  status: ('A' for Active; 'I' for Inactive)
                            x       y       z     vdW  Elec       q    Type
                         _______ _______ _______ _____ _____    ______ ____

>  <TORSDO>
F 0

$$$$
=
 OpenBabel11112417403D

 28 32  0  0  1  0  0  0  0  0999 V2000
  188.3070  177.2700  144.7350 C   0  0  0  0  0  0  0  0  0  0  0  0
  193.2240  176.3180  144.1860 O   0  0  0  0  0  1  0  0  0  0  0  0
  187.8660  173.0100  141.8090 C   0  0  0  0  0  1  0  0  0  0  0  0
  187.6740  176.0120  147.1550 C   0  0  0  0  0  3  0  0  0  0  0  0
  190.3410  173.1110  142.4880 C   0  0  2  0  0  3  0  0  0  0  0  0
  188.6240  177.8710  143.5140 O   0  0  0  0  0  0  0  0  0  0  0  0
  192.8660  176.6880  146.3990 O   0  0  0  0  0  1  0  0  0  0  0  0
  192.8630  175.7160  145.3980 C   0  0  0  0  0  0  0  0  0  0  0  0
  193.8560  173.5580  144.7160 C   0  0  1  0  0  3  0  0  0  0  0  0
  191.4450  175.0900  145.3140 C   0  0  2  0  0  3  0  0  0  0  0  0
  186.3610  175.9850  142.5450 O   0  0  0  0  0  1  0  0  0  0  0  0
  190.3310  175.4220  143.1690 C   0  0  1  0  0  3  0  0  0  0  0  0
  192.4960  172.8850  144.7870 C   0  0  0  0  0  2  0  0  0  0  0  0
  193.9000  174.6630  145.7490 C   0  0  0  0  0  2  0  0  0  0  0  0
  187.3580  176.6370  141.8170 C   0  0  2  0  0  3  0  0  0  0  0  0
  189.2170  176.3610  145.3070 C   0  0  0  0  0  0  0  0  0  0  0  0
  188.9280  173.5910  142.7450 C   0  0  1  0  0  3  0  0  0  0  0  0
  194.8510  172.6220  144.9940 O   0  0  0  0  0  1  0  0  0  0  0  0
  188.5810  175.7300  141.6210 C   0  0  0  0  0  2  0  0  0  0  0  0
  188.8880  175.7340  146.5200 C   0  0  0  0  0  3  0  0  0  0  0  0
  187.0870  177.5360  145.3710 C   0  0  0  0  0  3  0  0  0  0  0  0
  186.7730  176.9110  146.5800 C   0  0  0  0  0  3  0  0  0  0  0  0
  187.6890  177.9950  142.4480 C   0  0  0  0  0  2  0  0  0  0  0  0
  191.1850  174.1600  143.1730 C   0  0  1  0  0  3  0  0  0  0  0  0
  188.9400  175.0560  142.8730 N   0  0  2  0  0  0  0  0  0  0  0  0
  191.3770  173.8160  144.5760 N   0  0  2  0  0  0  0  0  0  0  0  0
  190.6240  173.1250  141.1190 O   0  0  0  0  0  1  0  0  0  0  0  0
  190.5030  176.0380  144.5720 C   0  0  1  0  0  3  0  0  0  0  0  0
  1 16  2  0  0  0  0
  1 21  1  0  0  0  0
  2  8  1  0  0  0  0
  3 17  1  0  0  0  0
  5 27  1  6  0  0  0
  5 17  1  0  0  0  0
  5 24  1  0  0  0  0
  6  1  1  0  0  0  0
  8 14  1  0  0  0  0
  8  7  1  0  0  0  0
  9 13  1  0  0  0  0
  9 18  1  1  0  0  0
  9 14  1  0  0  0  0
 10  8  1  6  0  0  0
 12 24  1  0  0  0  0
 12 28  1  0  0  0  0
 15 23  1  0  0  0  0
 15 11  1  0  0  0  0
 16 20  1  0  0  0  0
 17 25  1  0  0  0  0
 19 15  1  0  0  0  0
 19 25  1  0  0  0  0
 20  4  2  0  0  0  0
 21 22  2  0  0  0  0
 22  4  1  0  0  0  0
 23  6  1  0  0  0  0
 24 26  1  0  0  0  0
 25 12  1  0  0  0  0
 26 13  1  0  0  0  0
 26 10  1  0  0  0  0
 28 16  1  0  0  0  0
 28 10  1  0  0  0  0
M  END
>  <MODEL>
2

>  <REMARK>
 VINA RESULT:      -8.1      2.010      6.513
  Name = 
  0 active torsions:
  status: ('A' for Active; 'I' for Inactive)
                            x       y       z     vdW  Elec       q    Type
                         _______ _______ _______ _____ _____    ______ ____

>  <TORSDO>
F 0

$$$$
=
 OpenBabel11112417403D

 28 32  0  0  1  0  0  0  0  0999 V2000
  190.4300  174.8400  144.9960 C   0  0  0  0  0  0  0  0  0  0  0  0
  185.8210  176.3000  143.5780 O   0  0  0  0  0  1  0  0  0  0  0  0
  190.6520  173.1700  140.0900 C   0  0  0  0  0  1  0  0  0  0  0  0
  191.9860  177.1300  144.5800 C   0  0  0  0  0  3  0  0  0  0  0  0
  188.5310  174.6120  140.2180 C   0  0  2  0  0  3  0  0  0  0  0  0
  189.6520  173.6920  145.1730 O   0  0  0  0  0  0  0  0  0  0  0  0
  186.7810  178.0710  144.6270 O   0  0  0  0  0  1  0  0  0  0  0  0
  186.6370  177.4230  143.4000 C   0  0  0  0  0  0  0  0  0  0  0  0
  185.8600  177.7200  141.0710 C   0  0  1  0  0  3  0  0  0  0  0  0
  188.0420  177.0210  142.8790 C   0  0  2  0  0  3  0  0  0  0  0  0
  191.7860  172.5300  143.2470 O   0  0  0  0  0  1  0  0  0  0  0  0
  188.3610  174.6150  142.6220 C   0  0  1  0  0  3  0  0  0  0  0  0
  187.2680  177.4890  140.5500 C   0  0  0  0  0  2  0  0  0  0  0  0
  185.9530  178.3750  142.4320 C   0  0  0  0  0  2  0  0  0  0  0  0
  190.5170  172.0490  143.5740 C   0  0  2  0  0  3  0  0  0  0  0  0
  189.9090  175.9090  144.2420 C   0  0  0  0  0  0  0  0  0  0  0  0
  189.8510  174.2280  140.8520 C   0  0  1  0  0  3  0  0  0  0  0  0
  185.1740  178.5600  140.1970 O   0  0  0  0  0  1  0  0  0  0  0  0
  189.4660  172.5340  142.5670 C   0  0  0  0  0  2  0  0  0  0  0  0
  190.7000  177.0520  144.0380 C   0  0  0  0  0  3  0  0  0  0  0  0
  191.7230  174.9200  145.5280 C   0  0  0  0  0  3  0  0  0  0  0  0
  192.4980  176.0640  145.3240 C   0  0  0  0  0  3  0  0  0  0  0  0
  190.1740  172.3760  145.0330 C   0  0  0  0  0  2  0  0  0  0  0  0
  187.7770  175.2460  141.3630 C   0  0  1  0  0  3  0  0  0  0  0  0
  189.6330  173.9630  142.2820 N   0  0  2  0  0  0  0  0  0  0  0  0
  188.0910  176.6670  141.4490 N   0  0  2  0  0  0  0  0  0  0  0  0
  187.8380  173.4740  139.7960 O   0  0  0  0  0  1  0  0  0  0  0  0
  188.5330  175.7780  143.6210 C   0  0  1  0  0  3  0  0  0  0  0  0
  1  6  1  0  0  0  0
  1 21  1  0  0  0  0
  3 17  1  0  0  0  0
  4 22  1  0  0  0  0
  5 27  1  1  0  0  0
  5 17  1  0  0  0  0
  5 24  1  0  0  0  0
  8  2  1  0  0  0  0
  8  7  1  0  0  0  0
  9 18  1  6  0  0  0
  9 14  1  0  0  0  0
 10  8  1  1  0  0  0
 10 28  1  0  0  0  0
 11 15  1  0  0  0  0
 12 28  1  0  0  0  0
 13  9  1  0  0  0  0
 13 26  1  0  0  0  0
 14  8  1  0  0  0  0
 15 23  1  0  0  0  0
 16  1  2  0  0  0  0
 17 25  1  0  0  0  0
 19 15  1  0  0  0  0
 20 16  1  0  0  0  0
 20  4  2  0  0  0  0
 22 21  2  0  0  0  0
 23  6  1  0  0  0  0
 24 26  1  0  0  0  0
 24 12  1  0  0  0  0
 25 19  1  0  0  0  0
 25 12  1  0  0  0  0
 26 10  1  0  0  0  0
 28 16  1  0  0  0  0
M  END
>  <MODEL>
3

>  <REMARK>
 VINA RESULT:      -7.4      2.031      4.342
  Name = 
  0 active torsions:
  status: ('A' for Active; 'I' for Inactive)
                            x       y       z     vdW  Elec       q    Type
                         _______ _______ _______ _____ _____    ______ ____

>  <TORSDO>
F 0

$$$$
=
 OpenBabel11112417403D

 28 32  0  0  1  0  0  0  0  0999 V2000
  189.8000  175.3720  147.0290 C   0  0  0  0  0  0  0  0  0  0  0  0
  184.9330  176.3260  146.1430 O   0  0  0  0  0  1  0  0  0  0  0  0
  190.2390  176.6180  142.0130 C   0  0  0  0  0  1  0  0  0  0  0  0
  190.7660  177.8110  148.0060 C   0  0  0  0  0  3  0  0  0  0  0  0
  187.8460  177.2820  142.6670 C   0  0  2  0  0  3  0  0  0  0  0  0
  189.3170  174.1660  146.5130 O   0  0  0  0  0  0  0  0  0  0  0  0
  185.4890  177.4410  148.0420 O   0  0  0  0  0  1  0  0  0  0  0  0
  185.4580  177.5210  146.6500 C   0  0  0  0  0  0  0  0  0  0  0  0
  184.5560  178.8190  144.7490 C   0  0  1  0  0  3  0  0  0  0  0  0
  186.9000  177.7650  146.1310 C   0  0  2  0  0  3  0  0  0  0  0  0
  191.5960  174.6790  144.4750 O   0  0  0  0  0  1  0  0  0  0  0  0
  187.7610  175.9870  144.6980 C   0  0  1  0  0  3  0  0  0  0  0  0
  185.9610  179.2060  144.3190 C   0  0  0  0  0  2  0  0  0  0  0  0
  184.5400  178.6650  146.2540 C   0  0  0  0  0  2  0  0  0  0  0  0
  190.4860  173.8380  144.3840 C   0  0  2  0  0  3  0  0  0  0  0  0
  189.0200  176.5360  146.8910 C   0  0  0  0  0  0  0  0  0  0  0  0
  189.2400  176.9180  143.1320 C   0  0  1  0  0  3  0  0  0  0  0  0
  183.6640  179.8230  144.3750 O   0  0  0  0  0  1  0  0  0  0  0  0
  189.3170  174.5390  143.6790 C   0  0  0  0  0  2  0  0  0  0  0  0
  189.5160  177.7550  147.3830 C   0  0  0  0  0  3  0  0  0  0  0  0
  191.0570  175.4370  147.6450 C   0  0  0  0  0  3  0  0  0  0  0  0
  191.5360  176.6540  148.1350 C   0  0  0  0  0  3  0  0  0  0  0  0
  190.1260  173.2680  145.7620 C   0  0  0  0  0  2  0  0  0  0  0  0
  187.0050  177.0420  143.8990 C   0  0  1  0  0  3  0  0  0  0  0  0
  189.1370  175.9020  144.1910 N   0  0  2  0  0  0  0  0  0  0  0  0
  186.9830  178.2340  144.7360 N   0  0  2  0  0  0  0  0  0  0  0  0
  187.4240  176.4170  141.6540 O   0  0  0  0  0  1  0  0  0  0  0  0
  187.6910  176.4570  146.1650 C   0  0  1  0  0  3  0  0  0  0  0  0
  1 21  1  0  0  0  0
  2  8  1  0  0  0  0
  3 17  1  0  0  0  0
  4 22  1  0  0  0  0
  5 27  1  6  0  0  0
  5 17  1  0  0  0  0
  5 24  1  0  0  0  0
  6  1  1  0  0  0  0
  8  7  1  0  0  0  0
  9 18  1  1  0  0  0
  9 14  1  0  0  0  0
 10 28  1  0  0  0  0
 10  8  1  6  0  0  0
 12 28  1  0  0  0  0
 13 26  1  0  0  0  0
 13  9  1  0  0  0  0
 14  8  1  0  0  0  0
 15 11  1  0  0  0  0
 15 23  1  0  0  0  0
 16  1  2  0  0  0  0
 16 20  1  0  0  0  0
 17 25  1  0  0  0  0
 19 25  1  0  0  0  0
 19 15  1  0  0  0  0
 20  4  2  0  0  0  0
 21 22  2  0  0  0  0
 23  6  1  0  0  0  0
 24 12  1  0  0  0  0
 24 26  1  0  0  0  0
 25 12  1  0  0  0  0
 26 10  1  0  0  0  0
 28 16  1  0  0  0  0
M  END
>  <MODEL>
4

>  <REMARK>
 VINA RESULT:      -7.3      1.918      4.501
  Name = 
  0 active torsions:
  status: ('A' for Active; 'I' for Inactive)
                            x       y       z     vdW  Elec       q    Type
                         _______ _______ _______ _____ _____    ______ ____

>  <TORSDO>
F 0

$$$$
=
 OpenBabel11112417403D

 28 32  0  0  1  0  0  0  0  0999 V2000
  185.9390  177.2200  144.3680 C   0  0  0  0  0  0  0  0  0  0  0  0
  188.7980  173.3790  142.7990 O   0  0  0  0  0  1  0  0  0  0  0  0
  189.9470  177.9830  147.5720 C   0  0  0  0  0  1  0  0  0  0  0  0
  186.6040  179.2830  142.5960 C   0  0  0  0  0  3  0  0  0  0  0  0
  190.7620  176.2370  145.8750 C   0  0  2  0  0  3  0  0  0  0  0  0
  185.6340  176.1940  145.2670 O   0  0  0  0  0  0  0  0  0  0  0  0
  188.1020  174.4870  140.9420 O   0  0  0  0  0  1  0  0  0  0  0  0
  189.0870  174.4370  141.9280 C   0  0  0  0  0  0  0  0  0  0  0  0
  191.5180  174.1880  142.3030 C   0  0  1  0  0  3  0  0  0  0  0  0
  189.1100  175.7940  142.6800 C   0  0  2  0  0  3  0  0  0  0  0  0
  186.5620  178.3460  147.2970 O   0  0  0  0  0  1  0  0  0  0  0  0
  188.5780  175.6290  145.0560 C   0  0  1  0  0  3  0  0  0  0  0  0
  191.5910  175.5850  142.8960 C   0  0  0  0  0  2  0  0  0  0  0  0
  190.4240  174.1670  141.2580 C   0  0  0  0  0  2  0  0  0  0  0  0
  186.4310  176.9650  147.4520 C   0  0  2  0  0  3  0  0  0  0  0  0
  187.0720  177.0910  143.5430 C   0  0  0  0  0  0  0  0  0  0  0  0
  189.7420  177.3020  146.2170 C   0  0  1  0  0  3  0  0  0  0  0  0
  192.7380  173.8740  141.7060 O   0  0  0  0  0  1  0  0  0  0  0  0
  187.7590  176.2490  147.1770 C   0  0  0  0  0  2  0  0  0  0  0  0
  187.3970  178.1340  142.6590 C   0  0  0  0  0  3  0  0  0  0  0  0
  185.1540  178.3780  144.3080 C   0  0  0  0  0  3  0  0  0  0  0  0
  185.4840  179.4060  143.4210 C   0  0  0  0  0  3  0  0  0  0  0  0
  185.2570  176.4360  146.6180 C   0  0  0  0  0  2  0  0  0  0  0  0
  190.0680  175.4390  144.7960 C   0  0  1  0  0  3  0  0  0  0  0  0
  188.3950  176.7700  145.9620 N   0  0  2  0  0  0  0  0  0  0  0  0
  190.3200  176.0300  143.4880 N   0  0  2  0  0  0  0  0  0  0  0  0
  190.9930  175.4060  146.9740 O   0  0  0  0  0  1  0  0  0  0  0  0
  187.9460  175.8590  143.6680 C   0  0  1  0  0  3  0  0  0  0  0  0
  1  6  1  0  0  0  0
  4 20  2  0  0  0  0
  4 22  1  0  0  0  0
  5 17  1  0  0  0  0
  5 27  1  1  0  0  0
  6 23  1  0  0  0  0
  7  8  1  0  0  0  0
  8  2  1  0  0  0  0
  9 18  1  6  0  0  0
  9 13  1  0  0  0  0
 10  8  1  1  0  0  0
 10 26  1  0  0  0  0
 10 28  1  0  0  0  0
 11 15  1  0  0  0  0
 12 25  1  0  0  0  0
 13 26  1  0  0  0  0
 14  8  1  0  0  0  0
 14  9  1  0  0  0  0
 16 28  1  0  0  0  0
 16  1  2  0  0  0  0
 17  3  1  0  0  0  0
 19 15  1  0  0  0  0
 20 16  1  0  0  0  0
 21  1  1  0  0  0  0
 22 21  2  0  0  0  0
 23 15  1  0  0  0  0
 24 12  1  0  0  0  0
 24  5  1  0  0  0  0
 25 17  1  0  0  0  0
 25 19  1  0  0  0  0
 26 24  1  0  0  0  0
 28 12  1  0  0  0  0
M  END
>  <MODEL>
5

>  <REMARK>
 VINA RESULT:      -7.3      1.934      5.502
  Name = 
  0 active torsions:
  status: ('A' for Active; 'I' for Inactive)
                            x       y       z     vdW  Elec       q    Type
                         _______ _______ _______ _____ _____    ______ ____

>  <TORSDO>
F 0

$$$$
=
 OpenBabel11112417403D

 28 32  0  0  1  0  0  0  0  0999 V2000
  188.8330  175.5860  145.5910 C   0  0  0  0  0  0  0  0  0  0  0  0
  189.6740  171.6310  142.5850 O   0  0  0  0  0  1  0  0  0  0  0  0
  193.8810  176.4230  144.7370 C   0  0  0  0  0  1  0  0  0  0  0  0
  187.9220  177.5560  143.8220 C   0  0  0  0  0  3  0  0  0  0  0  0
  193.2080  174.5890  143.0700 C   0  0  2  0  0  3  0  0  0  0  0  0
  189.3160  174.6060  146.4630 O   0  0  0  0  0  0  0  0  0  0  0  0
  187.8070  172.6660  141.8080 O   0  0  0  0  0  1  0  0  0  0  0  0
  189.2000  172.6430  141.7420 C   0  0  0  0  0  0  0  0  0  0  0  0
  191.1160  172.3700  140.2030 C   0  0  1  0  0  3  0  0  0  0  0  0
  189.7430  174.0320  142.1710 C   0  0  2  0  0  3  0  0  0  0  0  0
  191.3960  176.8320  147.0440 O   0  0  0  0  0  1  0  0  0  0  0  0
  191.1490  173.9830  144.1650 C   0  0  1  0  0  3  0  0  0  0  0  0
  191.5730  173.7910  140.4870 C   0  0  0  0  0  2  0  0  0  0  0  0
  189.6080  172.3210  140.3140 C   0  0  0  0  0  2  0  0  0  0  0  0
  191.4530  175.4610  147.3050 C   0  0  2  0  0  3  0  0  0  0  0  0
  188.9850  175.4010  144.2040 C   0  0  0  0  0  0  0  0  0  0  0  0
  192.7540  175.6860  144.0100 C   0  0  1  0  0  3  0  0  0  0  0  0
  191.4990  172.0090  138.9130 O   0  0  0  0  0  1  0  0  0  0  0  0
  192.1570  174.7110  146.1670 C   0  0  0  0  0  2  0  0  0  0  0  0
  188.5270  176.3970  143.3260 C   0  0  0  0  0  3  0  0  0  0  0  0
  188.2360  176.7540  146.0830 C   0  0  0  0  0  3  0  0  0  0  0  0
  187.7780  177.7340  145.2000 C   0  0  0  0  0  3  0  0  0  0  0  0
  190.0580  174.9160  147.6380 C   0  0  0  0  0  2  0  0  0  0  0  0
  191.9610  173.7550  142.8950 C   0  0  1  0  0  3  0  0  0  0  0  0
  191.6720  175.1660  144.8600 N   0  0  2  0  0  0  0  0  0  0  0  0
  191.1490  174.2840  141.8060 N   0  0  2  0  0  0  0  0  0  0  0  0
  194.1960  173.8050  143.6710 O   0  0  0  0  0  1  0  0  0  0  0  0
  189.6910  174.1610  143.6930 C   0  0  1  0  0  3  0  0  0  0  0  0
  1 21  1  0  0  0  0
  1  6  1  0  0  0  0
  4 22  1  0  0  0  0
  5 27  1  1  0  0  0
  5 17  1  0  0  0  0
  6 23  1  0  0  0  0
  8  7  1  0  0  0  0
  8  2  1  0  0  0  0
  9 18  1  6  0  0  0
  9 14  1  0  0  0  0
  9 13  1  0  0  0  0
 10  8  1  1  0  0  0
 10 28  1  0  0  0  0
 11 15  1  0  0  0  0
 12 25  1  0  0  0  0
 13 26  1  0  0  0  0
 14  8  1  0  0  0  0
 15 23  1  0  0  0  0
 16  1  2  0  0  0  0
 17  3  1  0  0  0  0
 17 25  1  0  0  0  0
 19 15  1  0  0  0  0
 20  4  2  0  0  0  0
 20 16  1  0  0  0  0
 22 21  2  0  0  0  0
 24  5  1  0  0  0  0
 24 12  1  0  0  0  0
 25 19  1  0  0  0  0
 26 10  1  0  0  0  0
 26 24  1  0  0  0  0
 28 12  1  0  0  0  0
 28 16  1  0  0  0  0
M  END
>  <MODEL>
6

>  <REMARK>
 VINA RESULT:      -7.3      2.940      5.803
  Name = 
  0 active torsions:
  status: ('A' for Active; 'I' for Inactive)
                            x       y       z     vdW  Elec       q    Type
                         _______ _______ _______ _____ _____    ______ ____

>  <TORSDO>
F 0

$$$$
=
 OpenBabel11112417403D

 28 32  0  0  1  0  0  0  0  0999 V2000
  186.1150  176.5360  142.7020 C   0  0  0  0  0  0  0  0  0  0  0  0
  188.6620  172.1990  142.4110 O   0  0  0  0  0  1  0  0  0  0  0  0
  190.5570  178.1980  144.8030 C   0  0  0  0  0  1  0  0  0  0  0  0
  186.5420  177.7020  140.1920 C   0  0  0  0  0  3  0  0  0  0  0  0
  191.0920  175.8790  143.8370 C   0  0  2  0  0  3  0  0  0  0  0  0
  185.9310  175.9610  143.9620 O   0  0  0  0  0  0  0  0  0  0  0  0
  187.7170  172.5480  140.3750 O   0  0  0  0  0  1  0  0  0  0  0  0
  188.8350  172.8150  141.1660 C   0  0  0  0  0  0  0  0  0  0  0  0
  191.2910  172.5620  141.2910 C   0  0  1  0  0  3  0  0  0  0  0  0
  188.9860  174.3520  141.3150 C   0  0  2  0  0  3  0  0  0  0  0  0
  187.1740  178.6610  144.8460 O   0  0  0  0  0  1  0  0  0  0  0  0
  188.8040  175.1550  143.6120 C   0  0  1  0  0  3  0  0  0  0  0  0
  191.4680  174.0710  141.2740 C   0  0  0  0  0  2  0  0  0  0  0  0
  190.0560  172.2140  140.4890 C   0  0  0  0  0  2  0  0  0  0  0  0
  187.0480  177.4600  145.5470 C   0  0  2  0  0  3  0  0  0  0  0  0
  187.1130  176.0200  141.8540 C   0  0  0  0  0  0  0  0  0  0  0  0
  190.1470  177.0620  143.8630 C   0  0  1  0  0  3  0  0  0  0  0  0
  192.4060  171.9580  140.7140 O   0  0  0  0  0  1  0  0  0  0  0  0
  188.3120  176.6020  145.4060 C   0  0  0  0  0  2  0  0  0  0  0  0
  187.3200  176.6150  140.5990 C   0  0  0  0  0  3  0  0  0  0  0  0
  185.3440  177.6330  142.2930 C   0  0  0  0  0  3  0  0  0  0  0  0
  185.5560  178.2120  141.0400 C   0  0  0  0  0  3  0  0  0  0  0  0
  185.7580  176.7330  145.1460 C   0  0  0  0  0  2  0  0  0  0  0  0
  190.2370  174.7760  143.2570 C   0  0  1  0  0  3  0  0  0  0  0  0
  188.7700  176.5680  144.0130 N   0  0  2  0  0  0  0  0  0  0  0  0
  190.3040  174.7970  141.8010 N   0  0  2  0  0  0  0  0  0  0  0  0
  191.4700  175.5230  145.1350 O   0  0  0  0  0  1  0  0  0  0  0  0
  187.9790  174.8740  142.3390 C   0  0  1  0  0  3  0  0  0  0  0  0
  1  6  1  0  0  0  0
  4 20  2  0  0  0  0
  4 22  1  0  0  0  0
  5 17  1  0  0  0  0
  5 27  1  1  0  0  0
  6 23  1  0  0  0  0
  7  8  1  0  0  0  0
  8  2  1  0  0  0  0
  9 18  1  6  0  0  0
 10  8  1  1  0  0  0
 10 26  1  0  0  0  0
 10 28  1  0  0  0  0
 11 15  1  0  0  0  0
 12 25  1  0  0  0  0
 13  9  1  0  0  0  0
 13 26  1  0  0  0  0
 14  8  1  0  0  0  0
 14  9  1  0  0  0  0
 16 28  1  0  0  0  0
 16  1  2  0  0  0  0
 17 25  1  0  0  0  0
 17  3  1  0  0  0  0
 19 15  1  0  0  0  0
 20 16  1  0  0  0  0
 21  1  1  0  0  0  0
 22 21  2  0  0  0  0
 23 15  1  0  0  0  0
 24 12  1  0  0  0  0
 24  5  1  0  0  0  0
 25 19  1  0  0  0  0
 26 24  1  0  0  0  0
 28 12  1  0  0  0  0
M  END
>  <MODEL>
7

>  <REMARK>
 VINA RESULT:      -7.3      2.150      5.625
  Name = 
  0 active torsions:
  status: ('A' for Active; 'I' for Inactive)
                            x       y       z     vdW  Elec       q    Type
                         _______ _______ _______ _____ _____    ______ ____

>  <TORSDO>
F 0

$$$$
=
 OpenBabel11112417403D

 28 32  0  0  1  0  0  0  0  0999 V2000
  194.3040  173.9620  145.4500 C   0  0  0  0  0  0  0  0  0  0  0  0
  189.8900  175.1630  147.5620 O   0  0  0  0  0  1  0  0  0  0  0  0
  191.2830  172.9840  141.3480 C   0  0  0  0  0  1  0  0  0  0  0  0
  195.2580  176.4220  144.5120 C   0  0  0  0  0  3  0  0  0  0  0  0
  189.7670  174.1930  143.0310 C   0  0  2  0  0  3  0  0  0  0  0  0
  193.8080  172.7340  145.8960 O   0  0  0  0  0  0  0  0  0  0  0  0
  191.3260  176.8610  148.0230 O   0  0  0  0  0  1  0  0  0  0  0  0
  190.4150  176.3710  147.0880 C   0  0  0  0  0  0  0  0  0  0  0  0
  188.3230  176.8990  145.8800 C   0  0  1  0  0  3  0  0  0  0  0  0
  191.1460  176.1730  145.7340 C   0  0  2  0  0  3  0  0  0  0  0  0
  194.1780  172.0400  142.8960 O   0  0  0  0  0  1  0  0  0  0  0  0
  191.1890  173.8630  144.9490 C   0  0  1  0  0  3  0  0  0  0  0  0
  189.0590  176.8710  144.5510 C   0  0  0  0  0  2  0  0  0  0  0  0
  189.2820  177.3750  146.9490 C   0  0  0  0  0  2  0  0  0  0  0  0
  193.4120  171.4050  143.8760 C   0  0  2  0  0  3  0  0  0  0  0  0
  193.4360  175.0690  145.3870 C   0  0  0  0  0  0  0  0  0  0  0  0
  191.1790  173.8530  142.6030 C   0  0  1  0  0  3  0  0  0  0  0  0
  187.2470  177.7810  145.7950 O   0  0  0  0  0  1  0  0  0  0  0  0
  191.9670  171.9180  143.8680 C   0  0  0  0  0  2  0  0  0  0  0  0
  193.9250  176.2970  144.9130 C   0  0  0  0  0  3  0  0  0  0  0  0
  195.6370  174.0910  145.0370 C   0  0  0  0  0  3  0  0  0  0  0  0
  196.1130  175.3190  144.5720 C   0  0  0  0  0  3  0  0  0  0  0  0
  194.0970  171.5020  145.2450 C   0  0  0  0  0  2  0  0  0  0  0  0
  189.9400  174.5980  144.4770 C   0  0  1  0  0  3  0  0  0  0  0  0
  191.9310  173.3820  143.7760 N   0  0  2  0  0  0  0  0  0  0  0  0
  190.2560  176.0180  144.5690 N   0  0  2  0  0  0  0  0  0  0  0  0
  188.9490  173.0610  142.9730 O   0  0  0  0  0  1  0  0  0  0  0  0
  191.9820  174.8940  145.7780 C   0  0  1  0  0  3  0  0  0  0  0  0
  1  6  1  0  0  0  0
  3 17  1  0  0  0  0
  4 22  2  0  0  0  0
  4 20  1  0  0  0  0
  5 27  1  1  0  0  0
  5 24  1  0  0  0  0
  8  2  1  0  0  0  0
  8  7  1  0  0  0  0
  9 18  1  6  0  0  0
  9 14  1  0  0  0  0
 10 28  1  0  0  0  0
 10  8  1  1  0  0  0
 11 15  1  0  0  0  0
 12 28  1  0  0  0  0
 13 26  1  0  0  0  0
 13  9  1  0  0  0  0
 14  8  1  0  0  0  0
 15 23  1  0  0  0  0
 16  1  1  0  0  0  0
 16 28  1  0  0  0  0
 17  5  1  0  0  0  0
 17 25  1  0  0  0  0
 19 15  1  0  0  0  0
 20 16  2  0  0  0  0
 21  1  2  0  0  0  0
 22 21  1  0  0  0  0
 23  6  1  0  0  0  0
 24 26  1  0  0  0  0
 24 12  1  0  0  0  0
 25 19  1  0  0  0  0
 25 12  1  0  0  0  0
 26 10  1  0  0  0  0
M  END
>  <MODEL>
8

>  <REMARK>
 VINA RESULT:      -7.2      2.712      5.583
  Name = 
  0 active torsions:
  status: ('A' for Active; 'I' for Inactive)
                            x       y       z     vdW  Elec       q    Type
                         _______ _______ _______ _____ _____    ______ ____

>  <TORSDO>
F 0

$$$$
=
 OpenBabel11112417403D

 28 32  0  0  1  0  0  0  0  0999 V2000
  190.1210  174.9270  144.1040 C   0  0  0  0  0  0  0  0  0  0  0  0
  187.9680  178.4060  141.1640 O   0  0  0  0  0  1  0  0  0  0  0  0
  186.7340  176.7680  147.5750 C   0  0  0  0  0  1  0  0  0  0  0  0
  188.6770  172.6020  143.5130 C   0  0  0  0  0  3  0  0  0  0  0  0
  186.0300  177.7990  145.3310 C   0  0  2  0  0  3  0  0  0  0  0  0
  190.8180  176.0980  144.4150 O   0  0  0  0  0  0  0  0  0  0  0  0
  188.0240  176.4750  139.9700 O   0  0  0  0  0  1  0  0  0  0  0  0
  187.2840  177.2150  140.8910 C   0  0  0  0  0  0  0  0  0  0  0  0
  185.0920  178.2910  141.2800 C   0  0  1  0  0  3  0  0  0  0  0  0
  187.0960  176.3680  142.1770 C   0  0  2  0  0  3  0  0  0  0  0  0
  189.8290  175.3600  147.2600 O   0  0  0  0  0  1  0  0  0  0  0  0
  188.0960  177.3480  144.1760 C   0  0  1  0  0  3  0  0  0  0  0  0
  184.8170  177.3560  142.4470 C   0  0  0  0  0  2  0  0  0  0  0  0
  185.9410  177.5550  140.2670 C   0  0  0  0  0  2  0  0  0  0  0  0
  190.3000  176.5760  146.7620 C   0  0  2  0  0  3  0  0  0  0  0  0
  188.9110  175.0200  143.3910 C   0  0  0  0  0  0  0  0  0  0  0  0
  186.8260  176.7290  146.0480 C   0  0  1  0  0  3  0  0  0  0  0  0
  183.8850  178.6640  140.6920 O   0  0  0  0  0  1  0  0  0  0  0  0
  189.1430  177.4630  146.2840 C   0  0  0  0  0  2  0  0  0  0  0  0
  188.1940  173.8480  143.1020 C   0  0  0  0  0  3  0  0  0  0  0  0
  190.5950  173.6760  144.5220 C   0  0  0  0  0  3  0  0  0  0  0  0
  189.8760  172.5170  144.2240 C   0  0  0  0  0  3  0  0  0  0  0  0
  191.3820  176.3440  145.6990 C   0  0  0  0  0  2  0  0  0  0  0  0
  186.6680  177.8350  143.9610 C   0  0  1  0  0  3  0  0  0  0  0  0
  188.1850  176.6910  145.4860 N   0  0  2  0  0  0  0  0  0  0  0  0
  186.0420  176.8520  143.0860 N   0  0  2  0  0  0  0  0  0  0  0  0
  186.2090  179.0410  145.9460 O   0  0  0  0  0  1  0  0  0  0  0  0
  188.3820  176.3870  143.0030 C   0  0  1  0  0  3  0  0  0  0  0  0
  1  6  1  0  0  0  0
  1 21  1  0  0  0  0
  4 22  1  0  0  0  0
  5 27  1  1  0  0  0
  5 17  1  0  0  0  0
  6 23  1  0  0  0  0
  7  8  1  0  0  0  0
  8  2  1  0  0  0  0
  9 18  1  6  0  0  0
  9 13  1  0  0  0  0
 10  8  1  6  0  0  0
 10 28  1  0  0  0  0
 10 26  1  0  0  0  0
 12 25  1  0  0  0  0
 13 26  1  0  0  0  0
 14  8  1  0  0  0  0
 14  9  1  0  0  0  0
 15 11  1  0  0  0  0
 16  1  2  0  0  0  0
 17  3  1  0  0  0  0
 19 15  1  0  0  0  0
 20 16  1  0  0  0  0
 20  4  2  0  0  0  0
 22 21  2  0  0  0  0
 23 15  1  0  0  0  0
 24 12  1  0  0  0  0
 24  5  1  0  0  0  0
 25 17  1  0  0  0  0
 25 19  1  0  0  0  0
 26 24  1  0  0  0  0
 28 16  1  0  0  0  0
 28 12  1  0  0  0  0
M  END
>  <MODEL>
9

>  <REMARK>
 VINA RESULT:      -6.8      1.744      2.232
  Name = 
  0 active torsions:
  status: ('A' for Active; 'I' for Inactive)
                            x       y       z     vdW  Elec       q    Type
                         _______ _______ _______ _____ _____    ______ ____

>  <TORSDO>
F 0

$$$$
