=
 OpenBabel11112417263D

 37 44  0  0  1  0  0  0  0  0999 V2000
  190.9470  175.4330  145.2690 C   0  0  0  0  0  2  0  0  0  0  0  0
  187.4210  176.9270  142.0780 C   0  0  0  0  0  0  0  0  0  0  0  0
  190.5320  174.2390  141.2960 C   0  0  0  0  0  0  0  0  0  0  0  0
  190.9400  176.1070  146.6380 C   0  0  2  0  0  3  0  0  0  0  0  0
  194.1400  175.0150  142.7930 C   0  0  0  0  0  2  0  0  0  0  0  0
  188.3550  175.0890  140.6930 C   0  0  0  0  0  0  0  0  0  0  0  0
  191.5880  174.5750  142.3030 C   0  0  1  0  0  3  0  0  0  0  0  0
  193.4880  175.7910  146.5880 C   0  0  2  0  0  3  0  0  0  0  0  0
  189.4660  175.0680  141.5120 C   0  0  0  0  0  0  0  0  0  0  0  0
  193.0480  174.5570  141.7780 C   0  0  2  0  0  3  0  0  0  0  0  0
  188.2830  174.1670  139.6390 C   0  0  0  0  0  3  0  0  0  0  0  0
  192.3120  176.6590  147.0400 C   0  0  0  0  0  2  0  0  0  0  0  0
  189.6900  176.0440  142.5000 N   0  0  0  0  0  0  0  0  0  0  0  0
  186.7080  176.2500  143.2340 C   0  0  0  0  0  1  0  0  0  0  0  0
  191.6100  172.3330  139.9900 C   0  0  0  0  0  2  0  0  0  0  0  0
  189.3520  173.2700  139.4240 C   0  0  0  0  0  3  0  0  0  0  0  0
  188.8740  177.2580  142.4980 C   0  0  0  0  0  2  0  0  0  0  0  0
  194.0230  176.0920  145.1740 C   0  0  1  0  0  3  0  0  0  0  0  0
  193.5250  175.1640  144.1710 C   0  0  1  0  0  3  0  0  0  0  0  0
  190.5000  173.3060  140.2430 C   0  0  0  0  0  0  0  0  0  0  0  0
  191.1210  175.9860  142.7700 C   0  0  1  0  0  3  0  0  0  0  0  0
  187.3780  176.0660  140.9210 O   0  0  0  0  0  0  0  0  0  0  0  0
  193.3540  173.2460  141.1980 N   0  0  0  0  0  0  0  0  0  0  0  0
  186.6990  178.2170  141.7590 C   0  0  0  0  0  1  0  0  0  0  0  0
  193.0000  176.5460  144.1900 N   0  0  1  0  0  0  0  0  0  0  0  0
  193.2970  174.4400  146.8330 F   0  0  0  0  0  0  0  0  0  0  0  0
  191.5310  176.3660  144.2020 C   0  0  2  0  0  3  0  0  0  0  0  0
  192.9000  173.0110  139.8890 N   0  0  0  0  0  2  0  0  0  0  0  0
  195.1790  171.6710  141.7880 C   0  0  0  0  0  3  0  0  0  0  0  0
  193.8680  172.1390  141.9700 C   0  0  0  0  0  0  0  0  0  0  0  0
  193.0640  171.5410  142.9530 C   0  0  0  0  0  3  0  0  0  0  0  0
  192.7650  169.9050  144.6610 F   0  0  0  0  0  0  0  0  0  0  0  0
  194.8560  170.0170  143.5230 C   0  0  0  0  0  3  0  0  0  0  0  0
  193.5540  170.4820  143.7220 C   0  0  0  0  0  0  0  0  0  0  0  0
  195.6700  170.6130  142.5580 C   0  0  0  0  0  3  0  0  0  0  0  0
  189.0480  174.6440  147.3340 C   0  0  0  0  0  1  0  0  0  0  0  0
  190.4330  175.1430  147.6970 C   0  0  0  0  0  2  0  0  0  0  0  0
  1  4  1  0  0  0  0
  2 17  1  0  0  0  0
  2 14  1  0  0  0  0
  3  9  1  0  0  0  0
  4 12  1  0  0  0  0
  4 37  1  1  0  0  0
  5 19  1  0  0  0  0
  6 22  1  0  0  0  0
  6  9  2  0  0  0  0
  7  3  1  6  0  0  0
  7 21  1  0  0  0  0
  8 26  1  6  0  0  0
  8 12  1  0  0  0  0
  9 13  1  0  0  0  0
 10  7  1  0  0  0  0
 10  5  1  1  0  0  0
 11  6  1  0  0  0  0
 13 21  1  0  0  0  0
 15 20  1  0  0  0  0
 16 11  2  0  0  0  0
 16 20  1  0  0  0  0
 17 13  1  0  0  0  0
 18  8  1  0  0  0  0
 19 25  1  0  0  0  0
 19 18  1  0  0  0  0
 20  3  2  0  0  0  0
 21 27  1  0  0  0  0
 22  2  1  0  0  0  0
 23 10  1  0  0  0  0
 23 30  1  0  0  0  0
 24  2  1  0  0  0  0
 25 27  1  0  0  0  0
 25 18  1  0  0  0  0
 27  1  1  0  0  0  0
 28 15  1  0  0  0  0
 28 23  1  0  0  0  0
 29 30  2  0  0  0  0
 29 35  1  0  0  0  0
 30 31  1  0  0  0  0
 31 34  2  0  0  0  0
 33 34  1  0  0  0  0
 34 32  1  0  0  0  0
 35 33  2  0  0  0  0
 36 37  1  0  0  0  0
M  END
>  <MODEL>
1

>  <REMARK>
 VINA RESULT:      -7.7      0.000      0.000
  Name = 
  2 active torsions:
  status: ('A' for Active; 'I' for Inactive)
    1  A    between atoms: C_4  and  C_37
    2  A    between atoms: N_23  and  C_30
                            x       y       z     vdW  Elec       q    Type
                         _______ _______ _______ _____ _____    ______ ____

>  <TORSDO>
F 2

$$$$
=
 OpenBabel11112417263D

 37 44  0  0  1  0  0  0  0  0999 V2000
  190.0940  173.6930  140.4690 C   0  0  0  0  0  2  0  0  0  0  0  0
  186.9300  177.0130  142.4230 C   0  0  0  0  0  0  0  0  0  0  0  0
  190.4430  175.5660  144.1780 C   0  0  0  0  0  0  0  0  0  0  0  0
  189.6780  173.0740  139.1390 C   0  0  2  0  0  3  0  0  0  0  0  0
  191.3110  171.6990  143.7920 C   0  0  0  0  0  2  0  0  0  0  0  0
  188.7570  177.2910  144.0810 C   0  0  0  0  0  0  0  0  0  0  0  0
  190.6810  174.2430  143.5180 C   0  0  1  0  0  3  0  0  0  0  0  0
  190.9180  170.9770  139.9510 C   0  0  2  0  0  3  0  0  0  0  0  0
  189.3160  176.1120  143.6290 C   0  0  0  0  0  0  0  0  0  0  0  0
  191.1690  173.1040  144.4520 C   0  0  2  0  0  3  0  0  0  0  0  0
  189.4170  177.9980  145.0960 C   0  0  0  0  0  3  0  0  0  0  0  0
  189.7490  171.5440  139.1430 C   0  0  0  0  0  2  0  0  0  0  0  0
  188.6530  175.2670  142.7200 N   0  0  0  0  0  0  0  0  0  0  0  0
  187.4520  177.6120  141.1300 C   0  0  0  0  0  1  0  0  0  0  0  0
  192.3990  175.7250  145.8070 C   0  0  0  0  0  2  0  0  0  0  0  0
  190.6080  177.4760  145.6480 C   0  0  0  0  0  3  0  0  0  0  0  0
  187.2360  175.4950  142.4410 C   0  0  0  0  0  2  0  0  0  0  0  0
  190.6350  170.7520  141.4490 C   0  0  1  0  0  3  0  0  0  0  0  0
  191.1480  171.8220  142.2890 C   0  0  1  0  0  3  0  0  0  0  0  0
  191.1290  176.2420  145.2050 C   0  0  0  0  0  0  0  0  0  0  0  0
  189.2850  173.9640  142.8880 C   0  0  1  0  0  3  0  0  0  0  0  0
  187.5300  177.6960  143.5420 O   0  0  0  0  0  0  0  0  0  0  0  0
  192.3980  173.5140  145.1400 N   0  0  0  0  0  0  0  0  0  0  0  0
  185.4310  177.2100  142.4710 C   0  0  0  0  0  1  0  0  0  0  0  0
  189.6890  171.7220  142.0710 N   0  0  1  0  0  0  0  0  0  0  0  0
  192.1180  171.6260  139.7050 F   0  0  0  0  0  0  0  0  0  0  0  0
  189.3030  173.0810  141.6310 C   0  0  2  0  0  3  0  0  0  0  0  0
  192.2480  174.3450  146.2630 N   0  0  0  0  0  2  0  0  0  0  0  0
  194.0790  173.8420  143.3430 C   0  0  0  0  0  3  0  0  0  0  0  0
  193.7180  173.3080  144.5910 C   0  0  0  0  0  0  0  0  0  0  0  0
  194.6780  172.6010  145.3310 C   0  0  0  0  0  3  0  0  0  0  0  0
  196.8820  171.7160  145.5400 F   0  0  0  0  0  0  0  0  0  0  0  0
  196.3100  172.9350  143.5740 C   0  0  0  0  0  3  0  0  0  0  0  0
  195.9660  172.4100  144.8220 C   0  0  0  0  0  0  0  0  0  0  0  0
  195.3670  173.6530  142.8350 C   0  0  0  0  0  3  0  0  0  0  0  0
  189.6460  174.0350  136.8400 C   0  0  0  0  0  1  0  0  0  0  0  0
  190.5260  173.6330  138.0090 C   0  0  0  0  0  2  0  0  0  0  0  0
  1 27  1  0  0  0  0
  2 17  1  0  0  0  0
  2 24  1  0  0  0  0
  2 22  1  0  0  0  0
  3 20  1  0  0  0  0
  4 37  1  6  0  0  0
  4 12  1  0  0  0  0
  4  1  1  0  0  0  0
  6 11  2  0  0  0  0
  7  3  1  1  0  0  0
  7 10  1  0  0  0  0
  8 26  1  1  0  0  0
  8 18  1  0  0  0  0
  9  6  1  0  0  0  0
  9  3  2  0  0  0  0
 10  5  1  6  0  0  0
 10 23  1  0  0  0  0
 11 16  1  0  0  0  0
 12  8  1  0  0  0  0
 13 21  1  0  0  0  0
 13  9  1  0  0  0  0
 14  2  1  0  0  0  0
 15 28  1  0  0  0  0
 17 13  1  0  0  0  0
 18 25  1  0  0  0  0
 18 19  1  0  0  0  0
 19  5  1  0  0  0  0
 20 16  2  0  0  0  0
 20 15  1  0  0  0  0
 21  7  1  0  0  0  0
 22  6  1  0  0  0  0
 23 28  1  0  0  0  0
 25 19  1  0  0  0  0
 27 25  1  0  0  0  0
 27 21  1  0  0  0  0
 29 30  1  0  0  0  0
 30 23  1  0  0  0  0
 30 31  2  0  0  0  0
 33 34  2  0  0  0  0
 34 31  1  0  0  0  0
 34 32  1  0  0  0  0
 35 29  2  0  0  0  0
 35 33  1  0  0  0  0
 36 37  1  0  0  0  0
M  END
>  <MODEL>
2

>  <REMARK>
 VINA RESULT:      -7.6      2.324      5.422
  Name = 
  2 active torsions:
  status: ('A' for Active; 'I' for Inactive)
    1  A    between atoms: C_4  and  C_37
    2  A    between atoms: N_23  and  C_30
                            x       y       z     vdW  Elec       q    Type
                         _______ _______ _______ _____ _____    ______ ____

>  <TORSDO>
F 2

$$$$
=
 OpenBabel11112417263D

 37 44  0  0  1  0  0  0  0  0999 V2000
  190.9880  175.5120  145.2910 C   0  0  0  0  0  2  0  0  0  0  0  0
  187.4970  176.9870  142.0530 C   0  0  0  0  0  0  0  0  0  0  0  0
  190.4620  174.1060  141.4010 C   0  0  0  0  0  0  0  0  0  0  0  0
  191.0320  176.2640  146.6170 C   0  0  2  0  0  3  0  0  0  0  0  0
  194.1230  174.7890  142.8110 C   0  0  0  0  0  2  0  0  0  0  0  0
  188.3210  175.0260  140.7710 C   0  0  0  0  0  0  0  0  0  0  0  0
  191.5460  174.4490  142.3760 C   0  0  1  0  0  3  0  0  0  0  0  0
  193.5610  175.8200  146.5600 C   0  0  2  0  0  3  0  0  0  0  0  0
  189.4410  174.9980  141.5780 C   0  0  0  0  0  0  0  0  0  0  0  0
  192.9970  174.3270  141.8370 C   0  0  2  0  0  3  0  0  0  0  0  0
  188.1900  174.0480  139.7750 C   0  0  0  0  0  3  0  0  0  0  0  0
  192.4340  176.7700  146.9720 C   0  0  0  0  0  2  0  0  0  0  0  0
  189.7250  176.0190  142.5040 N   0  0  0  0  0  0  0  0  0  0  0  0
  186.7670  176.4150  143.2560 C   0  0  0  0  0  1  0  0  0  0  0  0
  191.4280  172.0750  140.2000 C   0  0  0  0  0  2  0  0  0  0  0  0
  189.2120  173.0880  139.6030 C   0  0  0  0  0  3  0  0  0  0  0  0
  188.9700  177.2700  142.4380 C   0  0  0  0  0  2  0  0  0  0  0  0
  194.0910  176.0100  145.1260 C   0  0  1  0  0  3  0  0  0  0  0  0
  193.5340  175.0500  144.1850 C   0  0  1  0  0  3  0  0  0  0  0  0
  190.3710  173.1150  140.4060 C   0  0  0  0  0  0  0  0  0  0  0  0
  191.1550  175.9060  142.7620 C   0  0  1  0  0  3  0  0  0  0  0  0
  187.3970  176.0620  140.9510 O   0  0  0  0  0  0  0  0  0  0  0  0
  193.2310  172.9710  141.3330 N   0  0  0  0  0  0  0  0  0  0  0  0
  186.8340  178.2900  141.6650 C   0  0  0  0  0  1  0  0  0  0  0  0
  193.0780  176.4550  144.1270 N   0  0  1  0  0  0  0  0  0  0  0  0
  193.3070  174.4970  146.8870 F   0  0  0  0  0  0  0  0  0  0  0  0
  191.6030  176.3500  144.1640 C   0  0  2  0  0  3  0  0  0  0  0  0
  192.7490  172.6820  140.0460 N   0  0  0  0  0  2  0  0  0  0  0  0
  192.9450  171.4240  143.2540 C   0  0  0  0  0  3  0  0  0  0  0  0
  193.7010  171.8870  142.1650 C   0  0  0  0  0  0  0  0  0  0  0  0
  194.9130  171.2500  141.8610 C   0  0  0  0  0  3  0  0  0  0  0  0
  196.5500  169.5870  142.3480 F   0  0  0  0  0  0  0  0  0  0  0  0
  194.6180  169.7440  143.7330 C   0  0  0  0  0  3  0  0  0  0  0  0
  195.3720  170.1870  142.6440 C   0  0  0  0  0  0  0  0  0  0  0  0
  193.4020  170.3610  144.0370 C   0  0  0  0  0  3  0  0  0  0  0  0
  189.3160  174.5710  147.2450 C   0  0  0  0  0  1  0  0  0  0  0  0
  190.4930  175.3910  147.7370 C   0  0  0  0  0  2  0  0  0  0  0  0
  1  4  1  0  0  0  0
  2 17  1  0  0  0  0
  2 14  1  0  0  0  0
  3  9  1  0  0  0  0
  4 12  1  0  0  0  0
  4 37  1  1  0  0  0
  5 19  1  0  0  0  0
  6 22  1  0  0  0  0
  6  9  2  0  0  0  0
  7  3  1  6  0  0  0
  7 21  1  0  0  0  0
  8 26  1  6  0  0  0
  8 12  1  0  0  0  0
  9 13  1  0  0  0  0
 10  7  1  0  0  0  0
 10  5  1  1  0  0  0
 11  6  1  0  0  0  0
 13 21  1  0  0  0  0
 15 20  1  0  0  0  0
 16 11  2  0  0  0  0
 16 20  1  0  0  0  0
 17 13  1  0  0  0  0
 18  8  1  0  0  0  0
 19 18  1  0  0  0  0
 20  3  2  0  0  0  0
 21 27  1  0  0  0  0
 22  2  1  0  0  0  0
 23 10  1  0  0  0  0
 23 30  1  0  0  0  0
 24  2  1  0  0  0  0
 25 27  1  0  0  0  0
 25 19  1  0  0  0  0
 25 18  1  0  0  0  0
 27  1  1  0  0  0  0
 28 15  1  0  0  0  0
 28 23  1  0  0  0  0
 29 35  1  0  0  0  0
 30 29  2  0  0  0  0
 31 30  1  0  0  0  0
 31 34  2  0  0  0  0
 32 34  1  0  0  0  0
 33 35  2  0  0  0  0
 34 33  1  0  0  0  0
 36 37  1  0  0  0  0
M  END
>  <MODEL>
3

>  <REMARK>
 VINA RESULT:      -7.5      0.772      1.104
  Name = 
  2 active torsions:
  status: ('A' for Active; 'I' for Inactive)
    1  A    between atoms: C_4  and  C_37
    2  A    between atoms: N_23  and  C_30
                            x       y       z     vdW  Elec       q    Type
                         _______ _______ _______ _____ _____    ______ ____

>  <TORSDO>
F 2

$$$$
=
 OpenBabel11112417263D

 37 44  0  0  1  0  0  0  0  0999 V2000
  191.8090  171.8370  142.0760 C   0  0  0  0  0  2  0  0  0  0  0  0
  196.7820  171.5890  142.3120 C   0  0  0  0  0  0  0  0  0  0  0  0
  194.2990  174.1940  144.4490 C   0  0  0  0  0  0  0  0  0  0  0  0
  191.1410  170.9340  141.0430 C   0  0  2  0  0  3  0  0  0  0  0  0
  191.1830  175.8190  142.5750 C   0  0  0  0  0  2  0  0  0  0  0  0
  196.4390  173.0940  144.2580 C   0  0  0  0  0  0  0  0  0  0  0  0
  193.0480  174.2850  143.6300 C   0  0  1  0  0  3  0  0  0  0  0  0
  189.3730  172.7860  140.8550 C   0  0  2  0  0  3  0  0  0  0  0  0
  195.1520  173.3310  143.8180 C   0  0  0  0  0  0  0  0  0  0  0  0
  192.4200  175.6990  143.5170 C   0  0  2  0  0  3  0  0  0  0  0  0
  196.8630  173.7070  145.4450 C   0  0  0  0  0  3  0  0  0  0  0  0
  190.1570  171.6830  140.1410 C   0  0  0  0  0  2  0  0  0  0  0  0
  194.6890  172.8770  142.5690 N   0  0  0  0  0  0  0  0  0  0  0  0
  196.2540  170.2330  142.7430 C   0  0  0  0  0  1  0  0  0  0  0  0
  193.7840  175.7450  146.4060 C   0  0  0  0  0  2  0  0  0  0  0  0
  195.9840  174.5680  146.1380 C   0  0  0  0  0  3  0  0  0  0  0  0
  195.6540  172.3710  141.5940 C   0  0  0  0  0  2  0  0  0  0  0  0
  190.0590  174.1660  140.8870 C   0  0  1  0  0  3  0  0  0  0  0  0
  190.7300  174.4350  142.1490 C   0  0  1  0  0  3  0  0  0  0  0  0
  194.6920  174.8340  145.6390 C   0  0  0  0  0  0  0  0  0  0  0  0
  193.5400  173.7200  142.2640 C   0  0  1  0  0  3  0  0  0  0  0  0
  197.2760  172.2980  143.4670 O   0  0  0  0  0  0  0  0  0  0  0  0
  192.1440  176.2320  144.8540 N   0  0  0  0  0  0  0  0  0  0  0  0
  197.9220  171.3740  141.3410 C   0  0  0  0  0  1  0  0  0  0  0  0
  191.5470  174.1360  140.9540 N   0  0  1  0  0  0  0  0  0  0  0  0
  188.8680  172.3890  142.0840 F   0  0  0  0  0  0  0  0  0  0  0  0
  192.4520  173.0560  141.4050 C   0  0  2  0  0  3  0  0  0  0  0  0
  193.2310  176.7910  145.5490 N   0  0  0  0  0  2  0  0  0  0  0  0
  190.5480  174.7110  145.9930 C   0  0  0  0  0  3  0  0  0  0  0  0
  190.9070  175.9980  145.5610 C   0  0  0  0  0  0  0  0  0  0  0  0
  190.0620  177.0760  145.8630 C   0  0  0  0  0  3  0  0  0  0  0  0
  188.0550  177.9160  146.8400 F   0  0  0  0  0  0  0  0  0  0  0  0
  188.5170  175.5820  146.9770 C   0  0  0  0  0  3  0  0  0  0  0  0
  188.8690  176.8680  146.5640 C   0  0  0  0  0  0  0  0  0  0  0  0
  189.3570  174.5030  146.6940 C   0  0  0  0  0  3  0  0  0  0  0  0
  191.0150  168.4540  141.2500 C   0  0  0  0  0  1  0  0  0  0  0  0
  190.4410  169.7740  141.7310 C   0  0  0  0  0  2  0  0  0  0  0  0
  2 14  1  0  0  0  0
  2 22  1  0  0  0  0
  3 20  1  0  0  0  0
  4 37  1  1  0  0  0
  4  1  1  0  0  0  0
  6 11  2  0  0  0  0
  7  3  1  1  0  0  0
  8 18  1  0  0  0  0
  8 26  1  1  0  0  0
  9  6  1  0  0  0  0
  9  3  2  0  0  0  0
 10  5  1  6  0  0  0
 10  7  1  0  0  0  0
 10 23  1  0  0  0  0
 11 16  1  0  0  0  0
 12  8  1  0  0  0  0
 12  4  1  0  0  0  0
 13  9  1  0  0  0  0
 17  2  1  0  0  0  0
 17 13  1  0  0  0  0
 18 25  1  0  0  0  0
 18 19  1  0  0  0  0
 19  5  1  0  0  0  0
 20 16  2  0  0  0  0
 20 15  1  0  0  0  0
 21 13  1  0  0  0  0
 21  7  1  0  0  0  0
 22  6  1  0  0  0  0
 23 28  1  0  0  0  0
 23 30  1  0  0  0  0
 24  2  1  0  0  0  0
 25 27  1  0  0  0  0
 25 19  1  0  0  0  0
 27  1  1  0  0  0  0
 27 21  1  0  0  0  0
 28 15  1  0  0  0  0
 29 35  1  0  0  0  0
 30 31  1  0  0  0  0
 30 29  2  0  0  0  0
 31 34  2  0  0  0  0
 34 32  1  0  0  0  0
 34 33  1  0  0  0  0
 35 33  2  0  0  0  0
 36 37  1  0  0  0  0
M  END
>  <MODEL>
4

>  <REMARK>
 VINA RESULT:      -7.5      2.946      7.602
  Name = 
  2 active torsions:
  status: ('A' for Active; 'I' for Inactive)
    1  A    between atoms: C_4  and  C_37
    2  A    between atoms: N_23  and  C_30
                            x       y       z     vdW  Elec       q    Type
                         _______ _______ _______ _____ _____    ______ ____

>  <TORSDO>
F 2

$$$$
=
 OpenBabel11112417263D

 37 44  0  0  1  0  0  0  0  0999 V2000
  193.5690  175.0000  144.0090 C   0  0  0  0  0  2  0  0  0  0  0  0
  194.6070  170.7850  141.5590 C   0  0  0  0  0  0  0  0  0  0  0  0
  190.9490  172.8160  141.6120 C   0  0  0  0  0  0  0  0  0  0  0  0
  194.6770  175.5430  144.9070 C   0  0  2  0  0  3  0  0  0  0  0  0
  189.6910  174.3840  145.0500 C   0  0  0  0  0  2  0  0  0  0  0  0
  192.4020  171.2360  140.5090 C   0  0  0  0  0  0  0  0  0  0  0  0
  190.9730  173.6110  142.8810 C   0  0  1  0  0  3  0  0  0  0  0  0
  192.7740  176.4160  146.3940 C   0  0  2  0  0  3  0  0  0  0  0  0
  192.1340  172.1420  141.5160 C   0  0  0  0  0  0  0  0  0  0  0  0
  189.6400  173.6520  143.6750 C   0  0  2  0  0  3  0  0  0  0  0  0
  191.4460  171.0560  139.5000 C   0  0  0  0  0  3  0  0  0  0  0  0
  194.1960  175.8550  146.3270 C   0  0  0  0  0  2  0  0  0  0  0  0
  192.9670  172.2820  142.6420 N   0  0  0  0  0  0  0  0  0  0  0  0
  195.5460  171.8490  141.0190 C   0  0  0  0  0  1  0  0  0  0  0  0
  188.6660  173.4070  140.6410 C   0  0  0  0  0  2  0  0  0  0  0  0
  190.2320  171.7750  139.5540 C   0  0  0  0  0  3  0  0  0  0  0  0
  193.9960  171.2740  142.8950 C   0  0  0  0  0  2  0  0  0  0  0  0
  191.6540  175.3610  146.4790 C   0  0  1  0  0  3  0  0  0  0  0  0
  191.0200  175.1030  145.1960 C   0  0  1  0  0  3  0  0  0  0  0  0
  189.9610  172.6550  140.6220 C   0  0  0  0  0  0  0  0  0  0  0  0
  192.1270  172.9080  143.6550 C   0  0  1  0  0  3  0  0  0  0  0  0
  193.5920  170.5010  140.5750 O   0  0  0  0  0  0  0  0  0  0  0  0
  188.5650  174.1650  142.8200 N   0  0  0  0  0  0  0  0  0  0  0  0
  195.4070  169.5280  141.8190 C   0  0  0  0  0  1  0  0  0  0  0  0
  191.9270  174.0830  145.7630 N   0  0  1  0  0  0  0  0  0  0  0  0
  192.5330  177.4060  145.4550 F   0  0  0  0  0  0  0  0  0  0  0  0
  192.8730  173.8000  144.6610 C   0  0  2  0  0  3  0  0  0  0  0  0
  187.9810  173.2560  141.9230 N   0  0  0  0  0  2  0  0  0  0  0  0
  189.2560  176.5100  142.3880 C   0  0  0  0  0  3  0  0  0  0  0  0
  188.2580  175.5710  142.6930 C   0  0  0  0  0  0  0  0  0  0  0  0
  186.9320  176.0100  142.8310 C   0  0  0  0  0  3  0  0  0  0  0  0
  185.3340  177.7790  142.8390 F   0  0  0  0  0  0  0  0  0  0  0  0
  187.6200  178.2910  142.4010 C   0  0  0  0  0  3  0  0  0  0  0  0
  186.6160  177.3650  142.6920 C   0  0  0  0  0  0  0  0  0  0  0  0
  188.9410  177.8640  142.2470 C   0  0  0  0  0  3  0  0  0  0  0  0
  196.4450  176.3840  143.3660 C   0  0  0  0  0  1  0  0  0  0  0  0
  195.3030  176.7790  144.2840 C   0  0  0  0  0  2  0  0  0  0  0  0
  1 27  1  0  0  0  0
  1  4  1  0  0  0  0
  2 24  1  0  0  0  0
  2 17  1  0  0  0  0
  4 37  1  6  0  0  0
  4 12  1  0  0  0  0
  5 19  1  0  0  0  0
  6 22  1  0  0  0  0
  6  9  2  0  0  0  0
  7  3  1  6  0  0  0
  7 21  1  0  0  0  0
  7 10  1  0  0  0  0
  8 26  1  6  0  0  0
  8 18  1  0  0  0  0
  9  3  1  0  0  0  0
  9 13  1  0  0  0  0
 10  5  1  1  0  0  0
 11 16  2  0  0  0  0
 11  6  1  0  0  0  0
 12  8  1  0  0  0  0
 13 17  1  0  0  0  0
 13 21  1  0  0  0  0
 14  2  1  0  0  0  0
 15 28  1  0  0  0  0
 16 20  1  0  0  0  0
 19 25  1  0  0  0  0
 19 18  1  0  0  0  0
 20 15  1  0  0  0  0
 20  3  2  0  0  0  0
 21 27  1  0  0  0  0
 22  2  1  0  0  0  0
 23 10  1  0  0  0  0
 25 18  1  0  0  0  0
 27 25  1  0  0  0  0
 28 23  1  0  0  0  0
 29 30  1  0  0  0  0
 30 23  1  0  0  0  0
 30 31  2  0  0  0  0
 33 34  2  0  0  0  0
 34 31  1  0  0  0  0
 34 32  1  0  0  0  0
 35 29  2  0  0  0  0
 35 33  1  0  0  0  0
 36 37  1  0  0  0  0
M  END
>  <MODEL>
5

>  <REMARK>
 VINA RESULT:      -7.4      2.631      6.319
  Name = 
  2 active torsions:
  status: ('A' for Active; 'I' for Inactive)
    1  A    between atoms: C_4  and  C_37
    2  A    between atoms: N_23  and  C_30
                            x       y       z     vdW  Elec       q    Type
                         _______ _______ _______ _____ _____    ______ ____

>  <TORSDO>
F 2

$$$$
=
 OpenBabel11112417263D

 37 44  0  0  1  0  0  0  0  0999 V2000
  189.8090  173.6950  139.6800 C   0  0  0  0  0  2  0  0  0  0  0  0
  187.0240  176.8900  142.3020 C   0  0  0  0  0  0  0  0  0  0  0  0
  191.0230  175.8850  143.0130 C   0  0  0  0  0  0  0  0  0  0  0  0
  189.0910  172.9370  138.5670 C   0  0  2  0  0  3  0  0  0  0  0  0
  192.1350  172.0840  142.5950 C   0  0  0  0  0  2  0  0  0  0  0  0
  189.2150  177.4520  143.3270 C   0  0  0  0  0  0  0  0  0  0  0  0
  191.1940  174.5370  142.3840 C   0  0  1  0  0  3  0  0  0  0  0  0
  190.7210  171.0220  139.0870 C   0  0  2  0  0  3  0  0  0  0  0  0
  189.7360  176.2900  142.7940 C   0  0  0  0  0  0  0  0  0  0  0  0
  192.0460  173.5220  143.1910 C   0  0  2  0  0  3  0  0  0  0  0  0
  190.0650  178.2910  144.0620 C   0  0  0  0  0  3  0  0  0  0  0  0
  189.3160  171.4230  138.6320 C   0  0  0  0  0  2  0  0  0  0  0  0
  188.9290  175.3220  142.1690 N   0  0  0  0  0  0  0  0  0  0  0  0
  187.0850  177.4240  140.8820 C   0  0  0  0  0  1  0  0  0  0  0  0
  193.3400  176.3360  143.9790 C   0  0  0  0  0  2  0  0  0  0  0  0
  191.4110  177.9150  144.2630 C   0  0  0  0  0  3  0  0  0  0  0  0
  187.4760  175.4090  142.3100 C   0  0  0  0  0  2  0  0  0  0  0  0
  190.9080  170.8970  140.6110 C   0  0  1  0  0  3  0  0  0  0  0  0
  191.5300  172.0710  141.2030 C   0  0  1  0  0  3  0  0  0  0  0  0
  191.9040  176.6960  143.7530 C   0  0  0  0  0  0  0  0  0  0  0  0
  189.7120  174.0940  142.2120 C   0  0  1  0  0  3  0  0  0  0  0  0
  187.8490  177.7090  143.1550 O   0  0  0  0  0  0  0  0  0  0  0  0
  193.3730  174.0850  143.4610 N   0  0  0  0  0  0  0  0  0  0  0  0
  185.5910  176.9670  142.7810 C   0  0  0  0  0  1  0  0  0  0  0  0
  190.0900  171.8330  141.4320 N   0  0  1  0  0  0  0  0  0  0  0  0
  191.7250  171.7450  138.4620 F   0  0  0  0  0  0  0  0  0  0  0  0
  189.4550  173.1150  141.0540 C   0  0  2  0  0  3  0  0  0  0  0  0
  193.4700  174.9900  144.5320 N   0  0  0  0  0  2  0  0  0  0  0  0
  195.6180  173.1830  142.9060 C   0  0  0  0  0  3  0  0  0  0  0  0
  194.4910  173.9450  142.5580 C   0  0  0  0  0  0  0  0  0  0  0  0
  194.4420  174.5430  141.2890 C   0  0  0  0  0  3  0  0  0  0  0  0
  195.4540  174.9920  139.1780 F   0  0  0  0  0  0  0  0  0  0  0  0
  196.6290  173.6510  140.7590 C   0  0  0  0  0  3  0  0  0  0  0  0
  195.5080  174.4010  140.3960 C   0  0  0  0  0  0  0  0  0  0  0  0
  196.6830  173.0390  142.0140 C   0  0  0  0  0  3  0  0  0  0  0  0
  189.3160  172.4090  136.1420 C   0  0  0  0  0  1  0  0  0  0  0  0
  189.5130  173.4700  137.2090 C   0  0  0  0  0  2  0  0  0  0  0  0
  1 27  1  0  0  0  0
  2 17  1  0  0  0  0
  2 24  1  0  0  0  0
  2 22  1  0  0  0  0
  3 20  1  0  0  0  0
  4 37  1  6  0  0  0
  4 12  1  0  0  0  0
  4  1  1  0  0  0  0
  6 11  2  0  0  0  0
  7  3  1  1  0  0  0
  7 10  1  0  0  0  0
  8 26  1  1  0  0  0
  8 18  1  0  0  0  0
  9  3  2  0  0  0  0
  9  6  1  0  0  0  0
 10  5  1  6  0  0  0
 10 23  1  0  0  0  0
 11 16  1  0  0  0  0
 12  8  1  0  0  0  0
 13 21  1  0  0  0  0
 13 17  1  0  0  0  0
 13  9  1  0  0  0  0
 14  2  1  0  0  0  0
 15 28  1  0  0  0  0
 18 19  1  0  0  0  0
 18 25  1  0  0  0  0
 19 25  1  0  0  0  0
 19  5  1  0  0  0  0
 20 15  1  0  0  0  0
 20 16  2  0  0  0  0
 21  7  1  0  0  0  0
 22  6  1  0  0  0  0
 23 28  1  0  0  0  0
 27 25  1  0  0  0  0
 27 21  1  0  0  0  0
 30 29  1  0  0  0  0
 30 23  1  0  0  0  0
 31 30  2  0  0  0  0
 32 34  1  0  0  0  0
 33 35  1  0  0  0  0
 34 33  2  0  0  0  0
 34 31  1  0  0  0  0
 35 29  2  0  0  0  0
 36 37  1  0  0  0  0
M  END
>  <MODEL>
6

>  <REMARK>
 VINA RESULT:      -7.1      2.684      5.630
  Name = 
  2 active torsions:
  status: ('A' for Active; 'I' for Inactive)
    1  A    between atoms: C_4  and  C_37
    2  A    between atoms: N_23  and  C_30
                            x       y       z     vdW  Elec       q    Type
                         _______ _______ _______ _____ _____    ______ ____

>  <TORSDO>
F 2

$$$$
=
 OpenBabel11112417263D

 37 44  0  0  1  0  0  0  0  0999 V2000
  192.4480  175.7720  144.9220 C   0  0  0  0  0  2  0  0  0  0  0  0
  188.0650  177.0290  142.9070 C   0  0  0  0  0  0  0  0  0  0  0  0
  190.2360  173.5230  142.1960 C   0  0  0  0  0  0  0  0  0  0  0  0
  193.1030  176.8250  145.8100 C   0  0  2  0  0  3  0  0  0  0  0  0
  194.1960  173.7720  141.8480 C   0  0  0  0  0  2  0  0  0  0  0  0
  188.1130  174.6690  142.1340 C   0  0  0  0  0  0  0  0  0  0  0  0
  191.6520  173.8770  142.5300 C   0  0  1  0  0  3  0  0  0  0  0  0
  195.3320  175.8600  144.9750 C   0  0  2  0  0  3  0  0  0  0  0  0
  189.4610  174.6230  142.4320 C   0  0  0  0  0  0  0  0  0  0  0  0
  192.7310  173.3140  141.5680 C   0  0  2  0  0  3  0  0  0  0  0  0
  187.4980  173.5110  141.6380 C   0  0  0  0  0  3  0  0  0  0  0  0
  194.5630  177.1000  145.4360 C   0  0  0  0  0  2  0  0  0  0  0  0
  190.1890  175.7710  142.7960 N   0  0  0  0  0  0  0  0  0  0  0  0
  187.8560  176.9660  144.4100 C   0  0  0  0  0  1  0  0  0  0  0  0
  190.4410  171.0880  141.4630 C   0  0  0  0  0  2  0  0  0  0  0  0
  188.2710  172.3480  141.4270 C   0  0  0  0  0  3  0  0  0  0  0  0
  189.5830  177.0880  142.6060 C   0  0  0  0  0  2  0  0  0  0  0  0
  195.2310  175.5450  143.4700 C   0  0  1  0  0  3  0  0  0  0  0  0
  194.2550  174.5080  143.1730 C   0  0  1  0  0  3  0  0  0  0  0  0
  189.6560  172.3440  141.6900 C   0  0  0  0  0  0  0  0  0  0  0  0
  191.5820  175.4330  142.5310 C   0  0  1  0  0  3  0  0  0  0  0  0
  187.4380  175.8860  142.2900 O   0  0  0  0  0  0  0  0  0  0  0  0
  192.6190  171.8540  141.4900 N   0  0  0  0  0  0  0  0  0  0  0  0
  187.4140  178.2900  142.3850 C   0  0  0  0  0  1  0  0  0  0  0  0
  193.9370  175.9090  142.8280 N   0  0  1  0  0  0  0  0  0  0  0  0
  195.1260  174.7570  145.7880 F   0  0  0  0  0  0  0  0  0  0  0  0
  192.6070  176.1300  143.4390 C   0  0  2  0  0  3  0  0  0  0  0  0
  191.6230  171.3410  140.6430 N   0  0  0  0  0  2  0  0  0  0  0  0
  193.0370  170.9810  143.7760 C   0  0  0  0  0  3  0  0  0  0  0  0
  193.2990  170.9580  142.3970 C   0  0  0  0  0  0  0  0  0  0  0  0
  194.2080  170.0150  141.8930 C   0  0  0  0  0  3  0  0  0  0  0  0
  195.7440  168.2290  142.2600 F   0  0  0  0  0  0  0  0  0  0  0  0
  194.6000  169.1690  144.1270 C   0  0  0  0  0  3  0  0  0  0  0  0
  194.8600  169.1280  142.7560 C   0  0  0  0  0  0  0  0  0  0  0  0
  193.6870  170.0940  144.6380 C   0  0  0  0  0  3  0  0  0  0  0  0
  191.9380  175.3540  147.4500 C   0  0  0  0  0  1  0  0  0  0  0  0
  193.0070  176.4160  147.2700 C   0  0  0  0  0  2  0  0  0  0  0  0
  1  4  1  0  0  0  0
  2 14  1  0  0  0  0
  3  9  1  0  0  0  0
  4 37  1  1  0  0  0
  5 19  1  0  0  0  0
  6 22  1  0  0  0  0
  6  9  2  0  0  0  0
  7  3  1  6  0  0  0
  7 21  1  0  0  0  0
  8 12  1  0  0  0  0
  8 26  1  1  0  0  0
  9 13  1  0  0  0  0
 10  5  1  1  0  0  0
 10  7  1  0  0  0  0
 11  6  1  0  0  0  0
 12  4  1  0  0  0  0
 15 20  1  0  0  0  0
 16 11  2  0  0  0  0
 16 20  1  0  0  0  0
 17 13  1  0  0  0  0
 17  2  1  0  0  0  0
 18  8  1  0  0  0  0
 19 18  1  0  0  0  0
 20  3  2  0  0  0  0
 21 13  1  0  0  0  0
 21 27  1  0  0  0  0
 22  2  1  0  0  0  0
 23 10  1  0  0  0  0
 23 30  1  0  0  0  0
 24  2  1  0  0  0  0
 25 19  1  0  0  0  0
 25 27  1  0  0  0  0
 25 18  1  0  0  0  0
 27  1  1  0  0  0  0
 28 15  1  0  0  0  0
 28 23  1  0  0  0  0
 29 35  1  0  0  0  0
 30 29  2  0  0  0  0
 31 30  1  0  0  0  0
 31 34  2  0  0  0  0
 32 34  1  0  0  0  0
 33 35  2  0  0  0  0
 34 33  1  0  0  0  0
 37 36  1  0  0  0  0
M  END
>  <MODEL>
7

>  <REMARK>
 VINA RESULT:      -7.1      1.645      2.003
  Name = 
  2 active torsions:
  status: ('A' for Active; 'I' for Inactive)
    1  A    between atoms: C_4  and  C_37
    2  A    between atoms: N_23  and  C_30
                            x       y       z     vdW  Elec       q    Type
                         _______ _______ _______ _____ _____    ______ ____

>  <TORSDO>
F 2

$$$$
=
 OpenBabel11112417263D

 37 44  0  0  1  0  0  0  0  0999 V2000
  190.8370  173.4710  141.8590 C   0  0  0  0  0  2  0  0  0  0  0  0
  189.8200  175.0020  146.4930 C   0  0  0  0  0  0  0  0  0  0  0  0
  193.5520  175.0500  144.6010 C   0  0  0  0  0  0  0  0  0  0  0  0
  189.6810  172.8300  141.0970 C   0  0  2  0  0  3  0  0  0  0  0  0
  194.5730  171.9460  142.3240 C   0  0  0  0  0  2  0  0  0  0  0  0
  192.1290  175.9060  146.3510 C   0  0  0  0  0  0  0  0  0  0  0  0
  193.4530  174.0000  143.5370 C   0  0  1  0  0  3  0  0  0  0  0  0
  191.4840  171.3980  139.9590 C   0  0  2  0  0  3  0  0  0  0  0  0
  192.3490  175.1070  145.2470 C   0  0  0  0  0  0  0  0  0  0  0  0
  194.7110  173.1100  143.3520 C   0  0  2  0  0  3  0  0  0  0  0  0
  193.1610  176.7520  146.7820 C   0  0  0  0  0  3  0  0  0  0  0  0
  190.0480  171.4760  140.4820 C   0  0  0  0  0  2  0  0  0  0  0  0
  191.4280  174.1280  144.8320 N   0  0  0  0  0  0  0  0  0  0  0  0
  188.9850  175.8550  145.5560 C   0  0  0  0  0  1  0  0  0  0  0  0
  195.9380  175.9020  144.3080 C   0  0  0  0  0  2  0  0  0  0  0  0
  194.3990  176.7420  146.1020 C   0  0  0  0  0  3  0  0  0  0  0  0
  190.3330  173.7560  145.7280 C   0  0  0  0  0  2  0  0  0  0  0  0
  192.5400  170.9700  140.9960 C   0  0  1  0  0  3  0  0  0  0  0  0
  193.2730  172.0950  141.5560 C   0  0  1  0  0  3  0  0  0  0  0  0
  194.6150  175.8770  145.0100 C   0  0  0  0  0  0  0  0  0  0  0  0
  192.2030  173.2040  144.0140 C   0  0  1  0  0  3  0  0  0  0  0  0
  190.9040  175.7930  147.0210 O   0  0  0  0  0  0  0  0  0  0  0  0
  195.8810  173.9490  143.0750 N   0  0  0  0  0  0  0  0  0  0  0  0
  188.9410  174.5450  147.6360 C   0  0  0  0  0  1  0  0  0  0  0  0
  192.2710  171.4050  142.3960 N   0  0  1  0  0  0  0  0  0  0  0  0
  191.8550  172.5080  139.2160 F   0  0  0  0  0  0  0  0  0  0  0  0
  191.4140  172.5020  142.8970 C   0  0  2  0  0  3  0  0  0  0  0  0
  196.4980  174.5590  144.1800 N   0  0  0  0  0  2  0  0  0  0  0  0
  197.5880  174.2240  141.2940 C   0  0  0  0  0  3  0  0  0  0  0  0
  196.2650  174.3590  141.7440 C   0  0  0  0  0  0  0  0  0  0  0  0
  195.2960  174.8610  140.8620 C   0  0  0  0  0  3  0  0  0  0  0  0
  194.7070  175.7390  138.7260 F   0  0  0  0  0  0  0  0  0  0  0  0
  196.9710  175.1170  139.1330 C   0  0  0  0  0  3  0  0  0  0  0  0
  195.6490  175.2440  139.5650 C   0  0  0  0  0  0  0  0  0  0  0  0
  197.9410  174.6040  139.9970 C   0  0  0  0  0  3  0  0  0  0  0  0
  188.2320  173.0400  139.0810 C   0  0  0  0  0  1  0  0  0  0  0  0
  189.1730  173.7720  140.0200 C   0  0  0  0  0  2  0  0  0  0  0  0
  1 27  1  0  0  0  0
  2 22  1  0  0  0  0
  2 24  1  0  0  0  0
  3 20  2  0  0  0  0
  3  9  1  0  0  0  0
  4 37  1  6  0  0  0
  4  1  1  0  0  0  0
  6 11  1  0  0  0  0
  6 22  1  0  0  0  0
  7 21  1  0  0  0  0
  7  3  1  1  0  0  0
  8 26  1  1  0  0  0
  8 12  1  0  0  0  0
  8 18  1  0  0  0  0
  9  6  2  0  0  0  0
 10  5  1  6  0  0  0
 10  7  1  0  0  0  0
 12  4  1  0  0  0  0
 13  9  1  0  0  0  0
 13 17  1  0  0  0  0
 14  2  1  0  0  0  0
 15 20  1  0  0  0  0
 16 11  2  0  0  0  0
 17  2  1  0  0  0  0
 18 19  1  0  0  0  0
 18 25  1  0  0  0  0
 19  5  1  0  0  0  0
 19 25  1  0  0  0  0
 20 16  1  0  0  0  0
 21 13  1  0  0  0  0
 23 10  1  0  0  0  0
 23 28  1  0  0  0  0
 25 27  1  0  0  0  0
 27 21  1  0  0  0  0
 28 15  1  0  0  0  0
 29 30  1  0  0  0  0
 30 23  1  0  0  0  0
 31 30  2  0  0  0  0
 32 34  1  0  0  0  0
 33 34  2  0  0  0  0
 33 35  1  0  0  0  0
 34 31  1  0  0  0  0
 35 29  2  0  0  0  0
 36 37  1  0  0  0  0
M  END
>  <MODEL>
8

>  <REMARK>
 VINA RESULT:      -7.0      2.947      6.045
  Name = 
  2 active torsions:
  status: ('A' for Active; 'I' for Inactive)
    1  A    between atoms: C_4  and  C_37
    2  A    between atoms: N_23  and  C_30
                            x       y       z     vdW  Elec       q    Type
                         _______ _______ _______ _____ _____    ______ ____

>  <TORSDO>
F 2

$$$$
=
 OpenBabel11112417263D

 37 44  0  0  1  0  0  0  0  0999 V2000
  189.9990  174.6210  141.9900 C   0  0  0  0  0  2  0  0  0  0  0  0
  191.4160  176.0270  146.5570 C   0  0  0  0  0  0  0  0  0  0  0  0
  193.9150  175.1520  143.3170 C   0  0  0  0  0  0  0  0  0  0  0  0
  188.5030  174.3930  141.7930 C   0  0  2  0  0  3  0  0  0  0  0  0
  192.9900  172.0650  140.9780 C   0  0  0  0  0  2  0  0  0  0  0  0
  193.6270  176.2460  145.4490 C   0  0  0  0  0  0  0  0  0  0  0  0
  193.0980  174.2570  142.4380 C   0  0  1  0  0  3  0  0  0  0  0  0
  189.1990  172.5970  140.0950 C   0  0  2  0  0  3  0  0  0  0  0  0
  193.1450  175.5010  144.3920 C   0  0  0  0  0  0  0  0  0  0  0  0
  193.8590  173.0620  141.8030 C   0  0  2  0  0  3  0  0  0  0  0  0
  194.9420  176.7280  145.3840 C   0  0  0  0  0  3  0  0  0  0  0  0
  188.1830  173.0410  141.1490 C   0  0  0  0  0  2  0  0  0  0  0  0
  191.8940  174.8590  144.4340 N   0  0  0  0  0  0  0  0  0  0  0  0
  190.5620  177.1510  145.9970 C   0  0  0  0  0  1  0  0  0  0  0  0
  196.1180  175.3090  142.0420 C   0  0  0  0  0  2  0  0  0  0  0  0
  195.7430  176.4170  144.2620 C   0  0  0  0  0  3  0  0  0  0  0  0
  191.1940  174.7480  145.7130 C   0  0  0  0  0  2  0  0  0  0  0  0
  190.4080  171.8100  140.6360 C   0  0  1  0  0  3  0  0  0  0  0  0
  191.5950  172.6340  140.7950 C   0  0  1  0  0  3  0  0  0  0  0  0
  195.2430  175.6100  143.2200 C   0  0  0  0  0  0  0  0  0  0  0  0
  191.9720  173.8160  143.4180 C   0  0  1  0  0  3  0  0  0  0  0  0
  192.7980  176.4360  146.5620 O   0  0  0  0  0  0  0  0  0  0  0  0
  195.0080  173.5510  141.0360 N   0  0  0  0  0  0  0  0  0  0  0  0
  190.9770  175.7560  147.9790 C   0  0  0  0  0  1  0  0  0  0  0  0
  190.8610  172.1970  142.0010 N   0  0  1  0  0  0  0  0  0  0  0  0
  189.5450  173.6070  139.2110 F   0  0  0  0  0  0  0  0  0  0  0  0
  190.6350  173.4520  142.7520 C   0  0  2  0  0  3  0  0  0  0  0  0
  196.1640  173.8750  141.7660 N   0  0  0  0  0  2  0  0  0  0  0  0
  194.0260  174.9170  139.2110 C   0  0  0  0  0  3  0  0  0  0  0  0
  194.9280  173.9320  139.6450 C   0  0  0  0  0  0  0  0  0  0  0  0
  195.7930  173.3440  138.7100 C   0  0  0  0  0  3  0  0  0  0  0  0
  196.5730  173.1330  136.4670 F   0  0  0  0  0  0  0  0  0  0  0  0
  194.8300  174.6870  136.9410 C   0  0  0  0  0  3  0  0  0  0  0  0
  195.7410  173.7160  137.3630 C   0  0  0  0  0  0  0  0  0  0  0  0
  193.9740  175.2900  137.8650 C   0  0  0  0  0  3  0  0  0  0  0  0
  188.0490  176.8410  141.6980 C   0  0  0  0  0  1  0  0  0  0  0  0
  187.9030  175.5190  140.9680 C   0  0  0  0  0  2  0  0  0  0  0  0
  1 27  1  0  0  0  0
  2 22  1  0  0  0  0
  2 24  1  0  0  0  0
  3  9  1  0  0  0  0
  4 37  1  6  0  0  0
  4  1  1  0  0  0  0
  6 22  1  0  0  0  0
  7  3  1  1  0  0  0
  7 21  1  0  0  0  0
  8 26  1  1  0  0  0
  8 18  1  0  0  0  0
  8 12  1  0  0  0  0
  9 13  1  0  0  0  0
  9  6  2  0  0  0  0
 10  5  1  6  0  0  0
 10  7  1  0  0  0  0
 11  6  1  0  0  0  0
 12  4  1  0  0  0  0
 13 17  1  0  0  0  0
 14  2  1  0  0  0  0
 15 20  1  0  0  0  0
 16 11  2  0  0  0  0
 17  2  1  0  0  0  0
 18 19  1  0  0  0  0
 18 25  1  0  0  0  0
 19  5  1  0  0  0  0
 19 25  1  0  0  0  0
 20  3  2  0  0  0  0
 20 16  1  0  0  0  0
 21 13  1  0  0  0  0
 23 28  1  0  0  0  0
 23 10  1  0  0  0  0
 25 27  1  0  0  0  0
 27 21  1  0  0  0  0
 28 15  1  0  0  0  0
 29 30  1  0  0  0  0
 30 23  1  0  0  0  0
 31 30  2  0  0  0  0
 32 34  1  0  0  0  0
 33 34  2  0  0  0  0
 33 35  1  0  0  0  0
 34 31  1  0  0  0  0
 35 29  2  0  0  0  0
 37 36  1  0  0  0  0
M  END
>  <MODEL>
9

>  <REMARK>
 VINA RESULT:      -7.0      3.116      6.039
  Name = 
  2 active torsions:
  status: ('A' for Active; 'I' for Inactive)
    1  A    between atoms: C_4  and  C_37
    2  A    between atoms: N_23  and  C_30
                            x       y       z     vdW  Elec       q    Type
                         _______ _______ _______ _____ _____    ______ ____

>  <TORSDO>
F 2

$$$$
