=
 OpenBabel11112417023D

 31 35  0  0  1  0  0  0  0  0999 V2000
  184.6610  178.1170  146.8890 C   0  0  0  0  0  0  0  0  0  0  0  0
  187.1880  176.0190  144.9590 C   0  0  2  0  0  3  0  0  0  0  0  0
  187.2320  176.5450  143.5310 C   0  0  0  0  0  0  0  0  0  0  0  0
  186.1320  177.7000  141.6910 C   0  0  0  0  0  0  0  0  0  0  0  0
  186.5980  177.0050  145.9390 C   0  0  0  0  0  0  0  0  0  0  0  0
  185.4940  178.8490  147.7390 C   0  0  0  0  0  3  0  0  0  0  0  0
  186.1490  177.2790  143.0220 C   0  0  0  0  0  3  0  0  0  0  0  0
  189.4610  176.6710  145.8650 C   0  0  2  0  0  3  0  0  0  0  0  0
  183.3200  178.3010  146.9310 F   0  0  0  0  0  0  0  0  0  0  0  0
  189.4840  175.4160  143.1220 C   0  0  0  0  0  2  0  0  0  0  0  0
  185.0600  178.4380  141.2100 O   0  0  0  0  0  1  0  0  0  0  0  0
  188.8130  177.5120  146.8200 O   0  0  0  0  0  0  0  0  0  0  0  0
  188.5510  175.5010  145.4570 C   0  0  2  0  0  3  0  0  0  0  0  0
  185.2110  177.1960  145.9930 C   0  0  0  0  0  3  0  0  0  0  0  0
  187.1910  177.3750  140.8430 C   0  0  0  0  0  3  0  0  0  0  0  0
  187.4330  177.7340  146.8090 C   0  0  0  0  0  0  0  0  0  0  0  0
  186.8770  178.6540  147.7010 C   0  0  0  0  0  3  0  0  0  0  0  0
  189.1980  174.6180  144.3910 C   0  0  0  0  0  2  0  0  0  0  0  0
  188.2840  176.1860  142.6530 C   0  0  0  0  0  0  0  0  0  0  0  0
  188.2630  176.6210  141.3240 C   0  0  0  0  0  3  0  0  0  0  0  0
  192.0440  177.0580  144.7280 O   0  0  0  0  0  0  0  0  0  0  0  0
  191.9730  176.4060  145.8070 C   0  0  0  0  0  0  0  0  0  0  0  0
  190.7080  176.1710  146.4260 N   0  0  0  0  0  2  0  0  0  0  0  0
  195.6070  175.9790  144.7980 N   0  0  0  0  0  0  0  0  0  0  0  0
  194.2830  176.9450  146.6240 C   0  0  0  0  0  2  0  0  0  0  0  0
  192.7900  173.7080  145.4290 O   0  0  0  0  0  1  0  0  0  0  0  0
  196.2700  176.3170  143.5530 C   0  0  0  0  0  1  0  0  0  0  0  0
  195.0050  177.2120  145.3010 C   0  0  0  0  0  2  0  0  0  0  0  0
  193.7920  174.6310  145.7330 C   0  0  2  0  0  3  0  0  0  0  0  0
  193.2140  175.8610  146.4540 C   0  0  2  0  0  3  0  0  0  0  0  0
  194.5370  175.0410  144.4640 C   0  0  0  0  0  2  0  0  0  0  0  0
  1  9  1  0  0  0  0
  1  6  1  0  0  0  0
  2  3  1  6  0  0  0
  2 13  1  0  0  0  0
  2  5  1  0  0  0  0
  4  7  2  0  0  0  0
  5 14  1  0  0  0  0
  5 16  2  0  0  0  0
  7  3  1  0  0  0  0
  8 23  1  1  0  0  0
  8 12  1  0  0  0  0
 10 18  1  0  0  0  0
 11  4  1  0  0  0  0
 13 18  1  6  0  0  0
 13  8  1  0  0  0  0
 14  1  2  0  0  0  0
 15 20  2  0  0  0  0
 15  4  1  0  0  0  0
 16 12  1  0  0  0  0
 16 17  1  0  0  0  0
 17  6  2  0  0  0  0
 19 10  1  0  0  0  0
 19  3  2  0  0  0  0
 20 19  1  0  0  0  0
 21 22  2  0  0  0  0
 22 23  1  0  0  0  0
 24 28  1  0  0  0  0
 27 24  1  0  0  0  0
 28 25  1  0  0  0  0
 29 26  1  6  0  0  0
 29 30  1  0  0  0  0
 30 22  1  6  0  0  0
 30 25  1  0  0  0  0
 31 24  1  0  0  0  0
 31 29  1  0  0  0  0
M  END
>  <MODEL>
1

>  <REMARK>
 VINA RESULT:      -9.1      0.000      0.000
  Name = 
  2 active torsions:
  status: ('A' for Active; 'I' for Inactive)
    1  A    between atoms: C_5  and  C_30
    2  A    between atoms: C_10  and  N_16
                            x       y       z     vdW  Elec       q    Type
                         _______ _______ _______ _____ _____    ______ ____

>  <TORSDO>
F 2

$$$$
=
 OpenBabel11112417023D

 31 35  0  0  1  0  0  0  0  0999 V2000
  187.0440  177.4700  140.7860 C   0  0  0  0  0  0  0  0  0  0  0  0
  188.4010  177.7880  144.3310 C   0  0  2  0  0  3  0  0  0  0  0  0
  187.2120  177.8440  145.2800 C   0  0  0  0  0  0  0  0  0  0  0  0
  184.8650  178.3700  145.6650 C   0  0  0  0  0  0  0  0  0  0  0  0
  188.0570  177.2150  142.9770 C   0  0  0  0  0  0  0  0  0  0  0  0
  187.3940  176.1550  140.4680 C   0  0  0  0  0  3  0  0  0  0  0  0
  185.9500  178.2320  144.7980 C   0  0  0  0  0  3  0  0  0  0  0  0
  189.4430  175.5440  144.8760 C   0  0  2  0  0  3  0  0  0  0  0  0
  186.3800  178.2310  139.8850 F   0  0  0  0  0  0  0  0  0  0  0  0
  188.6890  177.2230  147.2650 C   0  0  0  0  0  2  0  0  0  0  0  0
  183.6220  178.7380  145.1690 O   0  0  0  0  0  1  0  0  0  0  0  0
  189.1600  175.1170  143.5430 O   0  0  0  0  0  0  0  0  0  0  0  0
  189.6240  177.0700  144.9350 C   0  0  2  0  0  3  0  0  0  0  0  0
  187.3770  177.9990  142.0360 C   0  0  0  0  0  3  0  0  0  0  0  0
  185.0300  178.1410  147.0320 C   0  0  0  0  0  3  0  0  0  0  0  0
  188.4210  175.8950  142.6460 C   0  0  0  0  0  0  0  0  0  0  0  0
  188.0850  175.3710  141.3960 C   0  0  0  0  0  3  0  0  0  0  0  0
  189.8710  177.5620  146.3610 C   0  0  0  0  0  2  0  0  0  0  0  0
  187.3780  177.6520  146.6730 C   0  0  0  0  0  0  0  0  0  0  0  0
  186.2820  177.7830  147.5320 C   0  0  0  0  0  3  0  0  0  0  0  0
  192.0580  175.8930  143.8040 O   0  0  0  0  0  0  0  0  0  0  0  0
  191.9280  175.1000  144.7760 C   0  0  0  0  0  0  0  0  0  0  0  0
  190.6420  174.8740  145.3560 N   0  0  0  0  0  2  0  0  0  0  0  0
  195.6950  175.3300  144.3750 N   0  0  0  0  0  0  0  0  0  0  0  0
  194.0110  175.3060  146.1600 C   0  0  0  0  0  2  0  0  0  0  0  0
  193.1120  172.9030  143.4110 O   0  0  0  0  0  1  0  0  0  0  0  0
  196.4870  176.2250  143.5520 C   0  0  0  0  0  1  0  0  0  0  0  0
  194.8800  176.1740  145.2470 C   0  0  0  0  0  2  0  0  0  0  0  0
  193.9400  173.6300  144.2690 C   0  0  2  0  0  3  0  0  0  0  0  0
  193.1180  174.3740  145.3360 C   0  0  2  0  0  3  0  0  0  0  0  0
  194.8070  174.6020  143.4710 C   0  0  0  0  0  2  0  0  0  0  0  0
  1 14  1  0  0  0  0
  2  5  1  6  0  0  0
  2 13  1  0  0  0  0
  2  3  1  0  0  0  0
  3 19  1  0  0  0  0
  4 15  2  0  0  0  0
  6  1  2  0  0  0  0
  6 17  1  0  0  0  0
  7  3  2  0  0  0  0
  7  4  1  0  0  0  0
  8 13  1  0  0  0  0
  8 23  1  6  0  0  0
  9  1  1  0  0  0  0
 11  4  1  0  0  0  0
 12  8  1  0  0  0  0
 13 18  1  1  0  0  0
 14  5  2  0  0  0  0
 15 20  1  0  0  0  0
 16  5  1  0  0  0  0
 16 12  1  0  0  0  0
 17 16  2  0  0  0  0
 18 10  1  0  0  0  0
 19 10  1  0  0  0  0
 19 20  2  0  0  0  0
 21 22  2  0  0  0  0
 22 23  1  0  0  0  0
 24 28  1  0  0  0  0
 27 24  1  0  0  0  0
 28 25  1  0  0  0  0
 29 26  1  6  0  0  0
 29 30  1  0  0  0  0
 30 22  1  6  0  0  0
 30 25  1  0  0  0  0
 31 29  1  0  0  0  0
 31 24  1  0  0  0  0
M  END
>  <MODEL>
2

>  <REMARK>
 VINA RESULT:      -8.7      2.091      4.055
  Name = 
  2 active torsions:
  status: ('A' for Active; 'I' for Inactive)
    1  A    between atoms: C_5  and  C_30
    2  A    between atoms: C_10  and  N_16
                            x       y       z     vdW  Elec       q    Type
                         _______ _______ _______ _____ _____    ______ ____

>  <TORSDO>
F 2

$$$$
=
 OpenBabel11112417023D

 31 35  0  0  1  0  0  0  0  0999 V2000
  186.5320  177.8790  140.7520 C   0  0  0  0  0  0  0  0  0  0  0  0
  188.4630  177.8660  144.0350 C   0  0  2  0  0  3  0  0  0  0  0  0
  187.4550  177.7170  145.1660 C   0  0  0  0  0  0  0  0  0  0  0  0
  185.1860  178.0140  145.9990 C   0  0  0  0  0  0  0  0  0  0  0  0
  187.9210  177.4370  142.6930 C   0  0  0  0  0  0  0  0  0  0  0  0
  186.8920  176.6430  140.2090 C   0  0  0  0  0  3  0  0  0  0  0  0
  186.1110  178.0650  144.9540 C   0  0  0  0  0  3  0  0  0  0  0  0
  189.7020  175.6580  144.0990 C   0  0  2  0  0  3  0  0  0  0  0  0
  185.6830  178.6920  140.0810 F   0  0  0  0  0  0  0  0  0  0  0  0
  189.2850  176.9730  146.7810 C   0  0  0  0  0  2  0  0  0  0  0  0
  183.8580  178.3460  145.7670 O   0  0  0  0  0  1  0  0  0  0  0  0
  189.2160  175.3750  142.7860 O   0  0  0  0  0  0  0  0  0  0  0  0
  189.8090  177.1740  144.3290 C   0  0  2  0  0  3  0  0  0  0  0  0
  187.0480  178.2760  141.9890 C   0  0  0  0  0  3  0  0  0  0  0  0
  185.5970  177.6340  147.2770 C   0  0  0  0  0  3  0  0  0  0  0  0
  188.2930  176.1990  142.1350 C   0  0  0  0  0  0  0  0  0  0  0  0
  187.7740  175.8070  140.8980 C   0  0  0  0  0  3  0  0  0  0  0  0
  190.2720  177.5070  145.7470 C   0  0  0  0  0  2  0  0  0  0  0  0
  187.8700  177.3710  146.4740 C   0  0  0  0  0  0  0  0  0  0  0  0
  186.9340  177.3130  147.5120 C   0  0  0  0  0  3  0  0  0  0  0  0
  190.1150  172.9730  144.9550 O   0  0  0  0  0  0  0  0  0  0  0  0
  191.1370  173.6700  144.7090 C   0  0  0  0  0  0  0  0  0  0  0  0
  191.0010  175.0260  144.2820 N   0  0  0  0  0  2  0  0  0  0  0  0
  194.6680  174.7600  143.8390 N   0  0  0  0  0  0  0  0  0  0  0  0
  193.3900  173.9580  145.7750 C   0  0  0  0  0  2  0  0  0  0  0  0
  192.3680  172.1620  142.6340 O   0  0  0  0  0  1  0  0  0  0  0  0
  195.1300  175.9700  143.1870 C   0  0  0  0  0  1  0  0  0  0  0  0
  193.9150  175.1810  145.0190 C   0  0  0  0  0  2  0  0  0  0  0  0
  193.2200  172.8130  143.5280 C   0  0  2  0  0  3  0  0  0  0  0  0
  192.5140  173.0900  144.8660 C   0  0  2  0  0  3  0  0  0  0  0  0
  193.7480  174.1060  142.9100 C   0  0  0  0  0  2  0  0  0  0  0  0
  1 14  1  0  0  0  0
  2  5  1  6  0  0  0
  2 13  1  0  0  0  0
  2  3  1  0  0  0  0
  3 19  1  0  0  0  0
  4 15  2  0  0  0  0
  6  1  2  0  0  0  0
  6 17  1  0  0  0  0
  7  3  2  0  0  0  0
  7  4  1  0  0  0  0
  8 23  1  6  0  0  0
  8 13  1  0  0  0  0
  9  1  1  0  0  0  0
 11  4  1  0  0  0  0
 12  8  1  0  0  0  0
 13 18  1  1  0  0  0
 14  5  2  0  0  0  0
 15 20  1  0  0  0  0
 16  5  1  0  0  0  0
 16 12  1  0  0  0  0
 17 16  2  0  0  0  0
 18 10  1  0  0  0  0
 19 10  1  0  0  0  0
 19 20  2  0  0  0  0
 22 21  2  0  0  0  0
 23 22  1  0  0  0  0
 24 28  1  0  0  0  0
 27 24  1  0  0  0  0
 28 25  1  0  0  0  0
 29 26  1  6  0  0  0
 29 30  1  0  0  0  0
 30 22  1  6  0  0  0
 30 25  1  0  0  0  0
 31 29  1  0  0  0  0
 31 24  1  0  0  0  0
M  END
>  <MODEL>
3

>  <REMARK>
 VINA RESULT:      -8.6      2.368      4.309
  Name = 
  2 active torsions:
  status: ('A' for Active; 'I' for Inactive)
    1  A    between atoms: C_5  and  C_30
    2  A    between atoms: C_10  and  N_16
                            x       y       z     vdW  Elec       q    Type
                         _______ _______ _______ _____ _____    ______ ____

>  <TORSDO>
F 2

$$$$
=
 OpenBabel11112417023D

 31 35  0  0  1  0  0  0  0  0999 V2000
  184.8030  177.8420  146.6510 C   0  0  0  0  0  0  0  0  0  0  0  0
  186.9100  176.0980  144.0000 C   0  0  2  0  0  3  0  0  0  0  0  0
  186.5940  176.7430  142.6580 C   0  0  0  0  0  0  0  0  0  0  0  0
  185.0390  177.9670  141.2390 C   0  0  0  0  0  0  0  0  0  0  0  0
  186.5170  176.9540  145.1810 C   0  0  0  0  0  0  0  0  0  0  0  0
  185.7730  178.5570  147.3560 C   0  0  0  0  0  3  0  0  0  0  0  0
  185.3870  177.4380  142.4840 C   0  0  0  0  0  3  0  0  0  0  0  0
  189.2970  176.8310  144.4240 C   0  0  2  0  0  3  0  0  0  0  0  0
  183.5010  177.9270  147.0150 F   0  0  0  0  0  0  0  0  0  0  0  0
  188.7410  175.8150  141.6390 C   0  0  0  0  0  2  0  0  0  0  0  0
  183.8490  178.6660  141.0900 O   0  0  0  0  0  1  0  0  0  0  0  0
  188.8490  177.5410  145.5790 O   0  0  0  0  0  0  0  0  0  0  0  0
  188.3760  175.6380  144.1220 C   0  0  2  0  0  3  0  0  0  0  0  0
  185.1740  177.0400  145.5680 C   0  0  0  0  0  3  0  0  0  0  0  0
  185.8860  177.7900  140.1450 C   0  0  0  0  0  3  0  0  0  0  0  0
  187.4950  177.6650  145.9040 C   0  0  0  0  0  0  0  0  0  0  0  0
  187.1170  178.4650  146.9860 C   0  0  0  0  0  3  0  0  0  0  0  0
  188.8000  174.8950  142.8550 C   0  0  0  0  0  2  0  0  0  0  0  0
  187.4290  176.5350  141.5330 C   0  0  0  0  0  0  0  0  0  0  0  0
  187.0760  177.0770  140.2930 C   0  0  0  0  0  3  0  0  0  0  0  0
  191.6390  178.3580  143.8800 O   0  0  0  0  0  0  0  0  0  0  0  0
  191.7960  177.1960  144.3460 C   0  0  0  0  0  0  0  0  0  0  0  0
  190.6630  176.3750  144.6340 N   0  0  0  0  0  2  0  0  0  0  0  0
  193.3400  173.7470  144.7030 N   0  0  0  0  0  0  0  0  0  0  0  0
  193.6720  175.8120  143.4200 C   0  0  0  0  0  2  0  0  0  0  0  0
  192.6920  176.5630  146.9710 O   0  0  0  0  0  1  0  0  0  0  0  0
  192.7150  172.4390  144.6390 C   0  0  0  0  0  1  0  0  0  0  0  0
  193.0420  174.4170  143.4390 C   0  0  0  0  0  2  0  0  0  0  0  0
  193.2920  175.8700  145.9180 C   0  0  2  0  0  3  0  0  0  0  0  0
  193.1730  176.6520  144.5990 C   0  0  2  0  0  3  0  0  0  0  0  0
  192.6790  174.4770  145.7840 C   0  0  0  0  0  2  0  0  0  0  0  0
  1  9  1  0  0  0  0
  1  6  1  0  0  0  0
  2  3  1  6  0  0  0
  2 13  1  0  0  0  0
  2  5  1  0  0  0  0
  4  7  2  0  0  0  0
  5 14  1  0  0  0  0
  5 16  2  0  0  0  0
  7  3  1  0  0  0  0
  8 23  1  1  0  0  0
  8 12  1  0  0  0  0
 10 18  1  0  0  0  0
 11  4  1  0  0  0  0
 12 16  1  0  0  0  0
 13 18  1  6  0  0  0
 13  8  1  0  0  0  0
 14  1  2  0  0  0  0
 15 20  2  0  0  0  0
 15  4  1  0  0  0  0
 16 17  1  0  0  0  0
 17  6  2  0  0  0  0
 19 10  1  0  0  0  0
 19  3  2  0  0  0  0
 20 19  1  0  0  0  0
 21 22  2  0  0  0  0
 22 23  1  0  0  0  0
 24 31  1  0  0  0  0
 25 28  1  0  0  0  0
 25 30  1  0  0  0  0
 27 24  1  0  0  0  0
 28 24  1  0  0  0  0
 29 26  1  1  0  0  0
 30 22  1  6  0  0  0
 30 29  1  0  0  0  0
 31 29  1  0  0  0  0
M  END
>  <MODEL>
4

>  <REMARK>
 VINA RESULT:      -8.5      1.444      1.998
  Name = 
  2 active torsions:
  status: ('A' for Active; 'I' for Inactive)
    1  A    between atoms: C_5  and  C_30
    2  A    between atoms: C_10  and  N_16
                            x       y       z     vdW  Elec       q    Type
                         _______ _______ _______ _____ _____    ______ ____

>  <TORSDO>
F 2

$$$$
=
 OpenBabel11112417023D

 31 35  0  0  1  0  0  0  0  0999 V2000
  185.5190  178.3250  140.9940 C   0  0  0  0  0  0  0  0  0  0  0  0
  188.1950  178.1730  143.7000 C   0  0  2  0  0  3  0  0  0  0  0  0
  187.5470  177.6230  144.9630 C   0  0  0  0  0  0  0  0  0  0  0  0
  185.5470  177.2830  146.3110 C   0  0  0  0  0  0  0  0  0  0  0  0
  187.4090  177.8710  142.4460 C   0  0  0  0  0  0  0  0  0  0  0  0
  185.9310  177.3050  140.1340 C   0  0  0  0  0  3  0  0  0  0  0  0
  186.1550  177.7060  145.1270 C   0  0  0  0  0  3  0  0  0  0  0  0
  189.7610  176.3030  143.0180 C   0  0  2  0  0  3  0  0  0  0  0  0
  184.4030  179.0390  140.7130 F   0  0  0  0  0  0  0  0  0  0  0  0
  189.8250  177.0270  145.9450 C   0  0  0  0  0  2  0  0  0  0  0  0
  184.1690  177.3570  146.4490 O   0  0  0  0  0  1  0  0  0  0  0  0
  189.0120  176.1480  141.8120 O   0  0  0  0  0  0  0  0  0  0  0  0
  189.6680  177.7460  143.5390 C   0  0  2  0  0  3  0  0  0  0  0  0
  186.2580  178.6100  142.1460 C   0  0  0  0  0  3  0  0  0  0  0  0
  186.3270  176.7900  147.3570 C   0  0  0  0  0  3  0  0  0  0  0  0
  187.8290  176.8530  141.5680 C   0  0  0  0  0  0  0  0  0  0  0  0
  187.0860  176.5730  140.4190 C   0  0  0  0  0  3  0  0  0  0  0  0
  190.4140  177.9260  144.8610 C   0  0  0  0  0  2  0  0  0  0  0  0
  188.3340  177.1580  146.0450 C   0  0  0  0  0  0  0  0  0  0  0  0
  187.7150  176.7280  147.2240 C   0  0  0  0  0  3  0  0  0  0  0  0
  191.1570  174.1860  144.3140 O   0  0  0  0  0  0  0  0  0  0  0  0
  191.7900  174.8620  143.4570 C   0  0  0  0  0  0  0  0  0  0  0  0
  191.1510  175.9420  142.7750 N   0  0  0  0  0  2  0  0  0  0  0  0
  194.3790  172.3950  144.7270 N   0  0  0  0  0  0  0  0  0  0  0  0
  193.3860  173.1250  142.6050 C   0  0  0  0  0  2  0  0  0  0  0  0
  193.9260  176.0340  144.9250 O   0  0  0  0  0  1  0  0  0  0  0  0
  194.2680  171.3840  145.7630 C   0  0  0  0  0  1  0  0  0  0  0  0
  193.3380  172.1030  143.7430 C   0  0  0  0  0  2  0  0  0  0  0  0
  194.1790  174.7990  144.3250 C   0  0  2  0  0  3  0  0  0  0  0  0
  193.2250  174.5490  143.1440 C   0  0  2  0  0  3  0  0  0  0  0  0
  194.0760  173.6780  145.3580 C   0  0  0  0  0  2  0  0  0  0  0  0
  1 14  1  0  0  0  0
  2  5  1  6  0  0  0
  2  3  1  0  0  0  0
  3  7  2  0  0  0  0
  3 19  1  0  0  0  0
  4 11  1  0  0  0  0
  4 15  2  0  0  0  0
  6 17  1  0  0  0  0
  6  1  2  0  0  0  0
  7  4  1  0  0  0  0
  8 23  1  6  0  0  0
  8 13  1  0  0  0  0
  9  1  1  0  0  0  0
 10 19  1  0  0  0  0
 12  8  1  0  0  0  0
 13  2  1  0  0  0  0
 13 18  1  1  0  0  0
 14  5  2  0  0  0  0
 16 12  1  0  0  0  0
 16  5  1  0  0  0  0
 17 16  2  0  0  0  0
 18 10  1  0  0  0  0
 19 20  2  0  0  0  0
 20 15  1  0  0  0  0
 22 21  2  0  0  0  0
 23 22  1  0  0  0  0
 24 31  1  0  0  0  0
 24 27  1  0  0  0  0
 25 30  1  0  0  0  0
 25 28  1  0  0  0  0
 28 24  1  0  0  0  0
 29 26  1  1  0  0  0
 29 31  1  0  0  0  0
 30 22  1  1  0  0  0
 30 29  1  0  0  0  0
M  END
>  <MODEL>
5

>  <REMARK>
 VINA RESULT:      -8.2      2.488      4.563
  Name = 
  2 active torsions:
  status: ('A' for Active; 'I' for Inactive)
    1  A    between atoms: C_5  and  C_30
    2  A    between atoms: C_10  and  N_16
                            x       y       z     vdW  Elec       q    Type
                         _______ _______ _______ _____ _____    ______ ____

>  <TORSDO>
F 2

$$$$
=
 OpenBabel11112417023D

 31 35  0  0  1  0  0  0  0  0999 V2000
  191.6870  173.0430  141.6160 C   0  0  0  0  0  0  0  0  0  0  0  0
  191.2360  174.1030  145.2470 C   0  0  2  0  0  3  0  0  0  0  0  0
  192.3680  175.0600  145.5950 C   0  0  0  0  0  0  0  0  0  0  0  0
  194.6320  175.8590  145.1880 C   0  0  0  0  0  0  0  0  0  0  0  0
  191.0130  173.9590  143.7610 C   0  0  0  0  0  0  0  0  0  0  0  0
  190.6210  173.7000  140.9970 C   0  0  0  0  0  3  0  0  0  0  0  0
  193.5500  175.0490  144.8370 C   0  0  0  0  0  3  0  0  0  0  0  0
  189.2010  175.6110  145.2780 C   0  0  2  0  0  3  0  0  0  0  0  0
  192.5340  172.2840  140.8810 F   0  0  0  0  0  0  0  0  0  0  0  0
  191.0810  175.9440  147.6130 C   0  0  0  0  0  2  0  0  0  0  0  0
  195.7860  175.8470  144.4170 O   0  0  0  0  0  1  0  0  0  0  0  0
  189.0130  175.3450  143.8880 O   0  0  0  0  0  0  0  0  0  0  0  0
  189.9160  174.4380  145.9690 C   0  0  2  0  0  3  0  0  0  0  0  0
  191.8810  173.1690  142.9950 C   0  0  0  0  0  3  0  0  0  0  0  0
  194.5540  176.6780  146.3140 C   0  0  0  0  0  3  0  0  0  0  0  0
  189.9310  174.6070  143.1340 C   0  0  0  0  0  0  0  0  0  0  0  0
  189.7430  174.4780  141.7560 C   0  0  0  0  0  3  0  0  0  0  0  0
  190.1830  174.7210  147.4470 C   0  0  0  0  0  2  0  0  0  0  0  0
  192.3120  175.8650  146.7580 C   0  0  0  0  0  0  0  0  0  0  0  0
  193.3980  176.6810  147.0960 C   0  0  0  0  0  3  0  0  0  0  0  0
  188.5750  177.8500  146.9230 O   0  0  0  0  0  0  0  0  0  0  0  0
  187.6600  177.0060  146.7150 C   0  0  0  0  0  0  0  0  0  0  0  0
  187.9100  175.8560  145.9050 N   0  0  0  0  0  2  0  0  0  0  0  0
  184.4560  178.7800  145.7220 N   0  0  0  0  0  0  0  0  0  0  0  0
  185.2060  176.5600  146.4500 C   0  0  0  0  0  2  0  0  0  0  0  0
  187.0250  179.2820  148.2980 O   0  0  0  0  0  1  0  0  0  0  0  0
  184.1590  179.5640  144.5370 C   0  0  0  0  0  1  0  0  0  0  0  0
  184.8750  177.4600  145.2570 C   0  0  0  0  0  2  0  0  0  0  0  0
  185.9630  178.6550  147.6440 C   0  0  2  0  0  3  0  0  0  0  0  0
  186.2980  177.1890  147.3200 C   0  0  2  0  0  3  0  0  0  0  0  0
  185.5930  179.4240  146.3770 C   0  0  0  0  0  2  0  0  0  0  0  0
  1 14  1  0  0  0  0
  2  5  1  6  0  0  0
  2  3  1  0  0  0  0
  2 13  1  0  0  0  0
  3 19  1  0  0  0  0
  4 15  2  0  0  0  0
  6  1  2  0  0  0  0
  6 17  1  0  0  0  0
  7  4  1  0  0  0  0
  7  3  2  0  0  0  0
  8 23  1  1  0  0  0
  8 13  1  0  0  0  0
  9  1  1  0  0  0  0
 11  4  1  0  0  0  0
 12  8  1  0  0  0  0
 13 18  1  1  0  0  0
 14  5  2  0  0  0  0
 15 20  1  0  0  0  0
 16  5  1  0  0  0  0
 16 12  1  0  0  0  0
 17 16  2  0  0  0  0
 18 10  1  0  0  0  0
 19 20  2  0  0  0  0
 19 10  1  0  0  0  0
 22 21  2  0  0  0  0
 23 22  1  0  0  0  0
 24 31  1  0  0  0  0
 25 30  1  0  0  0  0
 27 24  1  0  0  0  0
 28 24  1  0  0  0  0
 28 25  1  0  0  0  0
 29 26  1  6  0  0  0
 30 22  1  6  0  0  0
 30 29  1  0  0  0  0
 31 29  1  0  0  0  0
M  END
>  <MODEL>
6

>  <REMARK>
 VINA RESULT:      -8.1      3.457      7.924
  Name = 
  2 active torsions:
  status: ('A' for Active; 'I' for Inactive)
    1  A    between atoms: C_5  and  C_30
    2  A    between atoms: C_10  and  N_16
                            x       y       z     vdW  Elec       q    Type
                         _______ _______ _______ _____ _____    ______ ____

>  <TORSDO>
F 2

$$$$
=
 OpenBabel11112417023D

 31 35  0  0  1  0  0  0  0  0999 V2000
  194.2970  176.6540  145.2200 C   0  0  0  0  0  0  0  0  0  0  0  0
  190.9790  176.7550  143.3530 C   0  0  2  0  0  3  0  0  0  0  0  0
  190.8670  175.4750  142.5370 C   0  0  0  0  0  0  0  0  0  0  0  0
  191.9550  173.6230  141.3880 C   0  0  0  0  0  0  0  0  0  0  0  0
  191.9890  176.6620  144.4720 C   0  0  0  0  0  0  0  0  0  0  0  0
  193.8730  176.4700  146.5380 C   0  0  0  0  0  3  0  0  0  0  0  0
  192.0250  174.7540  142.2040 C   0  0  0  0  0  3  0  0  0  0  0  0
  189.1850  176.4520  145.1150 C   0  0  2  0  0  3  0  0  0  0  0  0
  195.6200  176.7350  144.9400 F   0  0  0  0  0  0  0  0  0  0  0  0
  188.3440  175.7760  142.2990 C   0  0  0  0  0  2  0  0  0  0  0  0
  193.1080  172.9140  141.0830 O   0  0  0  0  0  1  0  0  0  0  0  0
  190.2020  176.4670  146.1180 O   0  0  0  0  0  0  0  0  0  0  0  0
  189.6210  177.2580  143.8810 C   0  0  2  0  0  3  0  0  0  0  0  0
  193.3580  176.7530  144.1900 C   0  0  0  0  0  3  0  0  0  0  0  0
  190.7250  173.2080  140.8770 C   0  0  0  0  0  3  0  0  0  0  0  0
  191.5640  176.4920  145.8040 C   0  0  0  0  0  0  0  0  0  0  0  0
  192.5090  176.3930  146.8300 C   0  0  0  0  0  3  0  0  0  0  0  0
  188.5750  177.2100  142.7680 C   0  0  0  0  0  2  0  0  0  0  0  0
  189.6290  175.0690  141.9810 C   0  0  0  0  0  0  0  0  0  0  0  0
  189.5670  173.9280  141.1730 C   0  0  0  0  0  3  0  0  0  0  0  0
  187.8640  175.4910  147.4480 O   0  0  0  0  0  0  0  0  0  0  0  0
  187.3450  176.4700  146.8460 C   0  0  0  0  0  0  0  0  0  0  0  0
  187.9530  176.9970  145.6660 N   0  0  0  0  0  2  0  0  0  0  0  0
  184.8990  179.0830  145.5810 N   0  0  0  0  0  0  0  0  0  0  0  0
  184.8890  176.7830  146.4370 C   0  0  0  0  0  2  0  0  0  0  0  0
  187.3630  178.9160  148.2990 O   0  0  0  0  0  1  0  0  0  0  0  0
  184.9190  179.8530  144.3510 C   0  0  0  0  0  1  0  0  0  0  0  0
  184.9130  177.6740  145.1930 C   0  0  0  0  0  2  0  0  0  0  0  0
  186.1940  178.6080  147.6010 C   0  0  2  0  0  3  0  0  0  0  0  0
  186.0760  177.0950  147.3530 C   0  0  2  0  0  3  0  0  0  0  0  0
  186.1440  179.3830  146.2850 C   0  0  0  0  0  2  0  0  0  0  0  0
  1  6  1  0  0  0  0
  2  3  1  1  0  0  0
  2 13  1  0  0  0  0
  2  5  1  0  0  0  0
  4  7  2  0  0  0  0
  5 16  2  0  0  0  0
  6 17  2  0  0  0  0
  7  3  1  0  0  0  0
  8 23  1  1  0  0  0
  8 12  1  0  0  0  0
  9  1  1  0  0  0  0
 10 18  1  0  0  0  0
 11  4  1  0  0  0  0
 13 18  1  6  0  0  0
 13  8  1  0  0  0  0
 14  5  1  0  0  0  0
 14  1  2  0  0  0  0
 15 20  2  0  0  0  0
 15  4  1  0  0  0  0
 16 12  1  0  0  0  0
 16 17  1  0  0  0  0
 19 10  1  0  0  0  0
 19  3  2  0  0  0  0
 20 19  1  0  0  0  0
 22 21  2  0  0  0  0
 23 22  1  0  0  0  0
 24 31  1  0  0  0  0
 25 30  1  0  0  0  0
 27 24  1  0  0  0  0
 28 24  1  0  0  0  0
 28 25  1  0  0  0  0
 29 26  1  6  0  0  0
 30 22  1  6  0  0  0
 30 29  1  0  0  0  0
 31 29  1  0  0  0  0
M  END
>  <MODEL>
7

>  <REMARK>
 VINA RESULT:      -8.1      3.424      7.140
  Name = 
  2 active torsions:
  status: ('A' for Active; 'I' for Inactive)
    1  A    between atoms: C_5  and  C_30
    2  A    between atoms: C_10  and  N_16
                            x       y       z     vdW  Elec       q    Type
                         _______ _______ _______ _____ _____    ______ ____

>  <TORSDO>
F 2

$$$$
=
 OpenBabel11112417023D

 31 35  0  0  1  0  0  0  0  0999 V2000
  190.3440  171.6500  142.7670 C   0  0  0  0  0  0  0  0  0  0  0  0
  189.6760  174.4610  145.2500 C   0  0  2  0  0  3  0  0  0  0  0  0
  191.0180  175.0660  145.6380 C   0  0  0  0  0  0  0  0  0  0  0  0
  193.4270  174.8200  145.8990 C   0  0  0  0  0  0  0  0  0  0  0  0
  189.7280  173.6690  143.9650 C   0  0  0  0  0  0  0  0  0  0  0  0
  189.8490  172.1990  141.5820 C   0  0  0  0  0  3  0  0  0  0  0  0
  192.1960  174.3180  145.4740 C   0  0  0  0  0  3  0  0  0  0  0  0
  188.5920  176.3200  143.9140 C   0  0  2  0  0  3  0  0  0  0  0  0
  190.8860  170.4090  142.7650 F   0  0  0  0  0  0  0  0  0  0  0  0
  189.8840  177.1820  146.4990 C   0  0  0  0  0  2  0  0  0  0  0  0
  194.5820  174.0740  145.7130 O   0  0  0  0  0  1  0  0  0  0  0  0
  188.5990  175.4670  142.7680 O   0  0  0  0  0  0  0  0  0  0  0  0
  188.5340  175.4960  145.2100 C   0  0  2  0  0  3  0  0  0  0  0  0
  190.2810  172.3820  143.9560 C   0  0  0  0  0  3  0  0  0  0  0  0
  193.4960  176.0710  146.5130 C   0  0  0  0  0  3  0  0  0  0  0  0
  189.2160  174.2130  142.7700 C   0  0  0  0  0  0  0  0  0  0  0  0
  189.2830  173.4760  141.5850 C   0  0  0  0  0  3  0  0  0  0  0  0
  188.5850  176.3820  146.4540 C   0  0  0  0  0  2  0  0  0  0  0  0
  191.0930  176.3160  146.2970 C   0  0  0  0  0  0  0  0  0  0  0  0
  192.3330  176.8160  146.7110 C   0  0  0  0  0  3  0  0  0  0  0  0
  188.1950  178.2910  141.8970 O   0  0  0  0  0  0  0  0  0  0  0  0
  187.3130  178.1890  142.7940 C   0  0  0  0  0  0  0  0  0  0  0  0
  187.4550  177.2250  143.8390 N   0  0  0  0  0  2  0  0  0  0  0  0
  184.3850  178.8340  145.1210 N   0  0  0  0  0  0  0  0  0  0  0  0
  186.1360  180.0840  143.9410 C   0  0  0  0  0  2  0  0  0  0  0  0
  184.7990  177.2850  141.8170 O   0  0  0  0  0  1  0  0  0  0  0  0
  184.0670  178.2280  146.4010 C   0  0  0  0  0  1  0  0  0  0  0  0
  185.7200  179.4160  145.2530 C   0  0  0  0  0  2  0  0  0  0  0  0
  184.7740  178.3100  142.7640 C   0  0  2  0  0  3  0  0  0  0  0  0
  186.1050  179.0810  142.7840 C   0  0  2  0  0  3  0  0  0  0  0  0
  184.4460  177.7470  144.1460 C   0  0  0  0  0  2  0  0  0  0  0  0
  1 14  1  0  0  0  0
  2  5  1  6  0  0  0
  2  3  1  0  0  0  0
  3 19  1  0  0  0  0
  4 15  2  0  0  0  0
  6 17  1  0  0  0  0
  6  1  2  0  0  0  0
  7  3  2  0  0  0  0
  7  4  1  0  0  0  0
  8 23  1  6  0  0  0
  8 13  1  0  0  0  0
  9  1  1  0  0  0  0
 11  4  1  0  0  0  0
 12 16  1  0  0  0  0
 12  8  1  0  0  0  0
 13  2  1  0  0  0  0
 13 18  1  1  0  0  0
 14  5  2  0  0  0  0
 15 20  1  0  0  0  0
 16  5  1  0  0  0  0
 17 16  2  0  0  0  0
 18 10  1  0  0  0  0
 19 10  1  0  0  0  0
 19 20  2  0  0  0  0
 21 22  2  0  0  0  0
 22 23  1  0  0  0  0
 24 28  1  0  0  0  0
 24 27  1  0  0  0  0
 25 28  1  0  0  0  0
 29 26  1  6  0  0  0
 29 30  1  0  0  0  0
 29 31  1  0  0  0  0
 30 22  1  1  0  0  0
 30 25  1  0  0  0  0
 31 24  1  0  0  0  0
M  END
>  <MODEL>
8

>  <REMARK>
 VINA RESULT:      -7.7      3.317      7.850
  Name = 
  2 active torsions:
  status: ('A' for Active; 'I' for Inactive)
    1  A    between atoms: C_5  and  C_30
    2  A    between atoms: C_10  and  N_16
                            x       y       z     vdW  Elec       q    Type
                         _______ _______ _______ _____ _____    ______ ____

>  <TORSDO>
F 2

$$$$
=
 OpenBabel11112417023D

 31 35  0  0  1  0  0  0  0  0999 V2000
  188.0100  174.5390  139.7310 C   0  0  0  0  0  0  0  0  0  0  0  0
  188.8360  176.7410  142.7280 C   0  0  2  0  0  3  0  0  0  0  0  0
  187.5240  177.2650  143.2930 C   0  0  0  0  0  0  0  0  0  0  0  0
  185.1850  177.8560  142.9540 C   0  0  0  0  0  0  0  0  0  0  0  0
  188.6630  175.5230  141.8510 C   0  0  0  0  0  0  0  0  0  0  0  0
  188.3170  173.2690  140.2220 C   0  0  0  0  0  3  0  0  0  0  0  0
  186.3780  177.3030  142.4820 C   0  0  0  0  0  3  0  0  0  0  0  0
  189.6350  175.1650  144.5420 C   0  0  2  0  0  3  0  0  0  0  0  0
  187.5400  174.6830  138.4680 F   0  0  0  0  0  0  0  0  0  0  0  0
  188.6420  177.8420  145.5130 C   0  0  0  0  0  2  0  0  0  0  0  0
  184.0590  177.8690  142.1440 O   0  0  0  0  0  1  0  0  0  0  0  0
  189.5280  174.0830  143.6160 O   0  0  0  0  0  0  0  0  0  0  0  0
  189.9050  176.4890  143.8090 C   0  0  2  0  0  3  0  0  0  0  0  0
  188.1850  175.6640  140.5420 C   0  0  0  0  0  3  0  0  0  0  0  0
  185.1280  178.3980  144.2380 C   0  0  0  0  0  3  0  0  0  0  0  0
  188.9860  174.2410  142.3370 C   0  0  0  0  0  0  0  0  0  0  0  0
  188.8080  173.1210  141.5220 C   0  0  0  0  0  3  0  0  0  0  0  0
  189.9660  177.6740  144.7730 C   0  0  0  0  0  2  0  0  0  0  0  0
  187.4660  177.8530  144.5800 C   0  0  0  0  0  0  0  0  0  0  0  0
  186.2640  178.3960  145.0470 C   0  0  0  0  0  3  0  0  0  0  0  0
  192.3880  174.8640  143.8770 O   0  0  0  0  0  0  0  0  0  0  0  0
  192.0670  174.7540  145.0920 C   0  0  0  0  0  0  0  0  0  0  0  0
  190.7020  174.8870  145.4930 N   0  0  0  0  0  2  0  0  0  0  0  0
  195.8540  174.9160  145.2700 N   0  0  0  0  0  0  0  0  0  0  0  0
  193.8960  175.7370  146.4990 C   0  0  0  0  0  2  0  0  0  0  0  0
  193.3550  172.2240  145.2730 O   0  0  0  0  0  1  0  0  0  0  0  0
  196.8160  175.2940  144.2510 C   0  0  0  0  0  1  0  0  0  0  0  0
  194.9470  176.0500  145.4320 C   0  0  0  0  0  2  0  0  0  0  0  0
  194.0610  173.3260  145.7600 C   0  0  2  0  0  3  0  0  0  0  0  0
  193.1090  174.4740  146.1360 C   0  0  2  0  0  3  0  0  0  0  0  0
  195.0960  173.7870  144.7350 C   0  0  0  0  0  2  0  0  0  0  0  0
  1  6  2  0  0  0  0
  1 14  1  0  0  0  0
  2  5  1  1  0  0  0
  2  3  1  0  0  0  0
  2 13  1  0  0  0  0
  3 19  1  0  0  0  0
  4 15  2  0  0  0  0
  5 16  1  0  0  0  0
  6 17  1  0  0  0  0
  7  4  1  0  0  0  0
  7  3  2  0  0  0  0
  8 23  1  1  0  0  0
  9  1  1  0  0  0  0
 11  4  1  0  0  0  0
 12  8  1  0  0  0  0
 13  8  1  0  0  0  0
 13 18  1  1  0  0  0
 14  5  2  0  0  0  0
 15 20  1  0  0  0  0
 16 12  1  0  0  0  0
 17 16  2  0  0  0  0
 18 10  1  0  0  0  0
 19 20  2  0  0  0  0
 19 10  1  0  0  0  0
 21 22  2  0  0  0  0
 22 23  1  0  0  0  0
 24 28  1  0  0  0  0
 27 24  1  0  0  0  0
 28 25  1  0  0  0  0
 29 26  1  6  0  0  0
 29 30  1  0  0  0  0
 30 22  1  6  0  0  0
 30 25  1  0  0  0  0
 31 24  1  0  0  0  0
 31 29  1  0  0  0  0
M  END
>  <MODEL>
9

>  <REMARK>
 VINA RESULT:      -7.7      2.534      4.340
  Name = 
  2 active torsions:
  status: ('A' for Active; 'I' for Inactive)
    1  A    between atoms: C_5  and  C_30
    2  A    between atoms: C_10  and  N_16
                            x       y       z     vdW  Elec       q    Type
                         _______ _______ _______ _____ _____    ______ ____

>  <TORSDO>
F 2

$$$$
