=
 OpenBabel11112417433D

 28 32  0  0  1  0  0  0  0  0999 V2000
  186.1940  178.2660  144.5550 C   0  0  0  0  0  0  0  0  0  0  0  0
  189.4050  178.0400  145.2370 F   0  0  0  0  0  0  0  0  0  0  0  0
  187.6210  173.0460  141.7250 O   0  0  0  0  0  0  0  0  0  0  0  0
  184.4450  177.5370  146.6210 C   0  0  0  0  0  3  0  0  0  0  0  0
  189.2300  173.9950  143.1580 N   0  0  0  0  0  0  0  0  0  0  0  0
  187.0190  178.6870  143.3900 C   0  0  0  0  0  2  0  0  0  0  0  0
  188.3550  177.9610  147.2870 N   0  0  0  0  0  1  0  0  0  0  0  0
  189.2190  177.2500  146.3610 C   0  0  1  0  0  0  0  0  0  0  0  0
  191.5560  176.4220  146.0910 C   0  0  1  0  0  3  0  0  0  0  0  0
  188.5580  175.8890  145.9970 C   0  0  2  0  0  3  0  0  0  0  0  0
  187.9820  178.2660  140.4300 O   0  0  0  0  0  0  0  0  0  0  0  0
  188.2190  175.9950  143.6080 C   0  0  1  0  0  3  0  0  0  0  0  0
  191.1610  174.6620  145.9350 S   0  0  0  0  0  0  0  0  0  0  0  0
  190.5660  177.0590  147.0430 C   0  0  0  0  0  2  0  0  0  0  0  0
  187.3550  177.5200  141.2280 C   0  0  0  0  0  0  0  0  0  0  0  0
  186.3660  177.0200  145.2150 C   0  0  0  0  0  0  0  0  0  0  0  0
  188.0370  174.0180  142.4100 C   0  0  0  0  0  0  0  0  0  0  0  0
  192.8440  176.5590  146.6050 O   0  0  0  0  0  1  0  0  0  0  0  0
  187.5490  176.0370  141.1590 C   0  0  0  0  0  2  0  0  0  0  0  0
  185.4790  176.6790  146.2460 C   0  0  0  0  0  3  0  0  0  0  0  0
  185.1490  179.1150  144.9350 C   0  0  0  0  0  3  0  0  0  0  0  0
  184.2820  178.7570  145.9680 C   0  0  0  0  0  3  0  0  0  0  0  0
  186.4730  178.0910  142.1850 N   0  0  0  0  0  2  0  0  0  0  0  0
  189.4570  175.2060  143.8300 N   0  0  1  0  0  0  0  0  0  0  0  0
  187.3730  175.3230  142.5060 C   0  0  2  0  0  3  0  0  0  0  0  0
  189.4770  174.9120  145.2650 C   0  0  2  0  0  3  0  0  0  0  0  0
  190.2620  172.9840  142.9860 C   0  0  0  0  0  1  0  0  0  0  0  0
  187.4740  176.0210  144.9410 C   0  0  2  0  0  3  0  0  0  0  0  0
  1 21  2  0  0  0  0
  1 16  1  0  0  0  0
  3 17  2  0  0  0  0
  5 24  1  0  0  0  0
  6  1  1  0  0  0  0
  8  2  1  6  0  0  0
  8 14  1  0  0  0  0
  8  7  1  0  0  0  0
  9 18  1  1  0  0  0
  9 14  1  0  0  0  0
 10  8  1  0  0  0  0
 11 15  2  0  0  0  0
 12 24  1  0  0  0  0
 12 28  1  0  0  0  0
 13  9  1  0  0  0  0
 15 23  1  0  0  0  0
 16 20  2  0  0  0  0
 17 25  1  0  0  0  0
 17  5  1  0  0  0  0
 19 15  1  0  0  0  0
 19 25  1  0  0  0  0
 20  4  1  0  0  0  0
 21 22  1  0  0  0  0
 22  4  2  0  0  0  0
 23  6  1  0  0  0  0
 24 26  1  0  0  0  0
 25 12  1  0  0  0  0
 26 13  1  0  0  0  0
 26 10  1  0  0  0  0
 27  5  1  0  0  0  0
 28 16  1  0  0  0  0
 28 10  1  0  0  0  0
M  END
>  <MODEL>
1

>  <REMARK>
 VINA RESULT:      -8.9      0.000      0.000
  Name = 
  0 active torsions:
  status: ('A' for Active; 'I' for Inactive)
                            x       y       z     vdW  Elec       q    Type
                         _______ _______ _______ _____ _____    ______ ____

>  <TORSDO>
F 0

$$$$
=
 OpenBabel11112417433D

 28 32  0  0  1  0  0  0  0  0999 V2000
  190.2560  175.5410  144.1580 C   0  0  0  0  0  0  0  0  0  0  0  0
  187.3410  176.0130  145.6080 F   0  0  0  0  0  0  0  0  0  0  0  0
  186.8960  177.4350  139.4240 O   0  0  0  0  0  0  0  0  0  0  0  0
  192.1690  177.5500  144.5630 C   0  0  0  0  0  3  0  0  0  0  0  0
  185.9630  177.6180  141.5770 N   0  0  0  0  0  0  0  0  0  0  0  0
  189.3320  174.4080  143.8800 C   0  0  0  0  0  2  0  0  0  0  0  0
  188.7660  177.4970  146.6440 N   0  0  0  0  0  1  0  0  0  0  0  0
  187.5590  177.3610  145.8490 C   0  0  1  0  0  0  0  0  0  0  0  0
  185.0870  177.6800  145.9520 C   0  0  1  0  0  3  0  0  0  0  0  0
  187.7360  178.1540  144.5220 C   0  0  2  0  0  3  0  0  0  0  0  0
  187.6500  172.6870  141.8620 O   0  0  0  0  0  0  0  0  0  0  0  0
  187.5420  176.4890  142.7840 C   0  0  1  0  0  3  0  0  0  0  0  0
  184.9560  178.8960  144.6180 S   0  0  0  0  0  0  0  0  0  0  0  0
  186.3990  177.8950  146.6770 C   0  0  0  0  0  2  0  0  0  0  0  0
  188.2190  173.8050  141.7480 C   0  0  0  0  0  0  0  0  0  0  0  0
  189.9140  176.8970  143.9130 C   0  0  0  0  0  0  0  0  0  0  0  0
  186.9180  177.1560  140.6520 C   0  0  0  0  0  0  0  0  0  0  0  0
  184.0330  177.8620  146.8440 O   0  0  0  0  0  1  0  0  0  0  0  0
  187.6290  174.8460  140.8490 C   0  0  0  0  0  2  0  0  0  0  0  0
  190.8880  177.8840  144.1240 C   0  0  0  0  0  3  0  0  0  0  0  0
  191.5480  175.2180  144.5910 C   0  0  0  0  0  3  0  0  0  0  0  0
  192.4980  176.2170  144.8000 C   0  0  0  0  0  3  0  0  0  0  0  0
  189.4140  174.0670  142.4720 N   0  0  0  0  0  2  0  0  0  0  0  0
  186.2230  177.1620  142.8800 N   0  0  1  0  0  0  0  0  0  0  0  0
  187.9080  176.2870  141.2970 C   0  0  2  0  0  3  0  0  0  0  0  0
  186.4500  178.3420  143.7180 C   0  0  2  0  0  3  0  0  0  0  0  0
  184.6880  178.2010  141.1870 C   0  0  0  0  0  1  0  0  0  0  0  0
  188.5490  177.4000  143.4840 C   0  0  2  0  0  3  0  0  0  0  0  0
  1 21  1  0  0  0  0
  3 17  2  0  0  0  0
  4 22  1  0  0  0  0
  5 24  1  0  0  0  0
  6  1  1  0  0  0  0
  8  2  1  6  0  0  0
  8  7  1  0  0  0  0
  8 14  1  0  0  0  0
  9 14  1  0  0  0  0
  9 18  1  1  0  0  0
 10  8  1  0  0  0  0
 12 24  1  0  0  0  0
 12 28  1  0  0  0  0
 13  9  1  0  0  0  0
 15 11  2  0  0  0  0
 15 23  1  0  0  0  0
 16 20  1  0  0  0  0
 16  1  2  0  0  0  0
 17 25  1  0  0  0  0
 17  5  1  0  0  0  0
 19 25  1  0  0  0  0
 19 15  1  0  0  0  0
 20  4  2  0  0  0  0
 21 22  2  0  0  0  0
 23  6  1  0  0  0  0
 24 26  1  0  0  0  0
 25 12  1  0  0  0  0
 26 10  1  0  0  0  0
 26 13  1  0  0  0  0
 27  5  1  0  0  0  0
 28 16  1  0  0  0  0
 28 10  1  0  0  0  0
M  END
>  <MODEL>
2

>  <REMARK>
 VINA RESULT:      -8.7      2.538      5.216
  Name = 
  0 active torsions:
  status: ('A' for Active; 'I' for Inactive)
                            x       y       z     vdW  Elec       q    Type
                         _______ _______ _______ _____ _____    ______ ____

>  <TORSDO>
F 0

$$$$
=
 OpenBabel11112417433D

 28 32  0  0  1  0  0  0  0  0999 V2000
  188.9310  176.2330  144.9930 C   0  0  0  0  0  0  0  0  0  0  0  0
  191.8460  176.9660  143.6550 F   0  0  0  0  0  0  0  0  0  0  0  0
  189.0110  172.4240  140.2200 O   0  0  0  0  0  0  0  0  0  0  0  0
  189.0000  174.5850  147.2610 C   0  0  0  0  0  3  0  0  0  0  0  0
  191.0010  173.5650  140.7500 N   0  0  0  0  0  0  0  0  0  0  0  0
  188.7680  177.1170  143.8080 C   0  0  0  0  0  2  0  0  0  0  0  0
  192.3430  176.1550  145.7540 N   0  0  0  0  0  1  0  0  0  0  0  0
  192.5270  175.9610  144.3260 C   0  0  1  0  0  0  0  0  0  0  0  0
  194.2640  176.0270  142.5380 C   0  0  1  0  0  3  0  0  0  0  0  0
  191.9930  174.5530  143.9340 C   0  0  2  0  0  3  0  0  0  0  0  0
  187.7060  177.6100  140.8940 O   0  0  0  0  0  0  0  0  0  0  0  0
  190.2180  174.9900  142.3560 C   0  0  1  0  0  3  0  0  0  0  0  0
  194.1240  174.2990  142.0150 S   0  0  0  0  0  0  0  0  0  0  0  0
  194.0120  176.1050  144.0290 C   0  0  0  0  0  2  0  0  0  0  0  0
  187.8380  176.5610  141.5770 C   0  0  0  0  0  0  0  0  0  0  0  0
  189.6600  175.0150  144.9550 C   0  0  0  0  0  0  0  0  0  0  0  0
  189.6170  173.3300  140.8520 C   0  0  0  0  0  0  0  0  0  0  0  0
  195.5510  176.4860  142.2640 O   0  0  0  0  0  1  0  0  0  0  0  0
  188.1610  175.2690  140.8930 C   0  0  0  0  0  2  0  0  0  0  0  0
  189.6800  174.2080  146.1020 C   0  0  0  0  0  3  0  0  0  0  0  0
  188.2470  176.5960  146.1590 C   0  0  0  0  0  3  0  0  0  0  0  0
  188.2850  175.7810  147.2890 C   0  0  0  0  0  3  0  0  0  0  0  0
  187.6810  176.6120  142.9890 N   0  0  0  0  0  2  0  0  0  0  0  0
  191.4190  174.6330  141.5610 N   0  0  1  0  0  0  0  0  0  0  0  0
  188.9780  174.2960  141.7530 C   0  0  2  0  0  3  0  0  0  0  0  0
  192.3790  174.0960  142.5290 C   0  0  2  0  0  3  0  0  0  0  0  0
  191.8300  173.0090  139.6920 C   0  0  0  0  0  1  0  0  0  0  0  0
  190.4820  174.5140  143.7830 C   0  0  2  0  0  3  0  0  0  0  0  0
  1 21  1  0  0  0  0
  3 17  2  0  0  0  0
  4 22  1  0  0  0  0
  5 17  1  0  0  0  0
  5 24  1  0  0  0  0
  6  1  1  0  0  0  0
  8  2  1  6  0  0  0
  8  7  1  0  0  0  0
  9 18  1  1  0  0  0
  9 14  1  0  0  0  0
 10  8  1  0  0  0  0
 11 15  2  0  0  0  0
 12 28  1  0  0  0  0
 13 26  1  0  0  0  0
 13  9  1  0  0  0  0
 14  8  1  0  0  0  0
 15 23  1  0  0  0  0
 16  1  2  0  0  0  0
 16 20  1  0  0  0  0
 17 25  1  0  0  0  0
 19 15  1  0  0  0  0
 19 25  1  0  0  0  0
 20  4  2  0  0  0  0
 21 22  2  0  0  0  0
 23  6  1  0  0  0  0
 24 12  1  0  0  0  0
 24 26  1  0  0  0  0
 25 12  1  0  0  0  0
 26 10  1  0  0  0  0
 27  5  1  0  0  0  0
 28 10  1  0  0  0  0
 28 16  1  0  0  0  0
M  END
>  <MODEL>
3

>  <REMARK>
 VINA RESULT:      -7.8      2.734      3.671
  Name = 
  0 active torsions:
  status: ('A' for Active; 'I' for Inactive)
                            x       y       z     vdW  Elec       q    Type
                         _______ _______ _______ _____ _____    ______ ____

>  <TORSDO>
F 0

$$$$
=
 OpenBabel11112417433D

 28 32  0  0  1  0  0  0  0  0999 V2000
  188.5880  176.6220  144.9740 C   0  0  0  0  0  0  0  0  0  0  0  0
  189.2440  173.5140  144.1180 F   0  0  0  0  0  0  0  0  0  0  0  0
  194.6780  176.7910  144.5610 O   0  0  0  0  0  0  0  0  0  0  0  0
  187.6560  178.2910  142.9220 C   0  0  0  0  0  3  0  0  0  0  0  0
  193.5750  174.8700  143.7640 N   0  0  0  0  0  0  0  0  0  0  0  0
  189.0630  175.8340  146.1440 C   0  0  0  0  0  2  0  0  0  0  0  0
  187.9720  174.3500  142.3880 N   0  0  0  0  0  1  0  0  0  0  0  0
  189.2560  173.7790  142.7570 C   0  0  1  0  0  0  0  0  0  0  0  0
  190.6730  171.7520  142.4360 C   0  0  1  0  0  3  0  0  0  0  0  0
  190.3830  174.7840  142.3830 C   0  0  2  0  0  3  0  0  0  0  0  0
  191.1910  175.2910  148.3880 O   0  0  0  0  0  0  0  0  0  0  0  0
  191.4510  175.3130  144.4840 C   0  0  1  0  0  3  0  0  0  0  0  0
  192.0860  172.5780  141.6610 S   0  0  0  0  0  0  0  0  0  0  0  0
  189.4040  172.4600  142.0110 C   0  0  0  0  0  2  0  0  0  0  0  0
  191.2230  176.0010  147.3490 C   0  0  0  0  0  0  0  0  0  0  0  0
  189.3030  176.6980  143.7500 C   0  0  0  0  0  0  0  0  0  0  0  0
  193.6370  176.0870  144.4690 C   0  0  0  0  0  0  0  0  0  0  0  0
  190.6260  170.4260  142.0080 O   0  0  0  0  0  1  0  0  0  0  0  0
  192.5170  176.1830  146.6180 C   0  0  0  0  0  2  0  0  0  0  0  0
  188.8170  177.5390  142.7390 C   0  0  0  0  0  3  0  0  0  0  0  0
  187.4280  177.3870  145.1490 C   0  0  0  0  0  3  0  0  0  0  0  0
  186.9600  178.2120  144.1270 C   0  0  0  0  0  3  0  0  0  0  0  0
  190.0340  176.6230  146.8800 N   0  0  0  0  0  2  0  0  0  0  0  0
  192.2970  174.2910  143.8190 N   0  0  1  0  0  0  0  0  0  0  0  0
  192.3540  176.3990  145.1070 C   0  0  2  0  0  3  0  0  0  0  0  0
  191.7960  174.2060  142.4450 C   0  0  2  0  0  3  0  0  0  0  0  0
  194.7530  174.1370  143.3270 C   0  0  0  0  0  1  0  0  0  0  0  0
  190.5450  175.8990  143.4020 C   0  0  2  0  0  3  0  0  0  0  0  0
  1 21  1  0  0  0  0
  1  6  1  0  0  0  0
  4 22  1  0  0  0  0
  5 24  1  0  0  0  0
  5 17  1  0  0  0  0
  6 23  1  0  0  0  0
  8  7  1  6  0  0  0
  8  2  1  0  0  0  0
  9 18  1  6  0  0  0
 10 26  1  0  0  0  0
 10  8  1  0  0  0  0
 10 28  1  0  0  0  0
 12 25  1  0  0  0  0
 13  9  1  0  0  0  0
 13 26  1  0  0  0  0
 14  9  1  0  0  0  0
 14  8  1  0  0  0  0
 15 11  2  0  0  0  0
 16  1  2  0  0  0  0
 17  3  2  0  0  0  0
 17 25  1  0  0  0  0
 19 15  1  0  0  0  0
 20  4  2  0  0  0  0
 20 16  1  0  0  0  0
 22 21  2  0  0  0  0
 23 15  1  0  0  0  0
 24 12  1  0  0  0  0
 25 19  1  0  0  0  0
 26 24  1  0  0  0  0
 27  5  1  0  0  0  0
 28 16  1  0  0  0  0
 28 12  1  0  0  0  0
M  END
>  <MODEL>
4

>  <REMARK>
 VINA RESULT:      -7.8      2.840      5.479
  Name = 
  0 active torsions:
  status: ('A' for Active; 'I' for Inactive)
                            x       y       z     vdW  Elec       q    Type
                         _______ _______ _______ _____ _____    ______ ____

>  <TORSDO>
F 0

$$$$
=
 OpenBabel11112417433D

 28 32  0  0  1  0  0  0  0  0999 V2000
  189.9270  175.1480  142.0530 C   0  0  0  0  0  0  0  0  0  0  0  0
  188.3150  177.9450  142.6860 F   0  0  0  0  0  0  0  0  0  0  0  0
  188.6700  174.4490  147.9870 O   0  0  0  0  0  0  0  0  0  0  0  0
  188.4570  173.1530  140.7410 C   0  0  0  0  0  3  0  0  0  0  0  0
  187.6380  176.2310  146.8480 N   0  0  0  0  0  0  0  0  0  0  0  0
  190.8100  176.1300  142.7390 C   0  0  0  0  0  2  0  0  0  0  0  0
  187.0200  176.8550  141.1220 N   0  0  0  0  0  1  0  0  0  0  0  0
  187.0610  177.3960  142.4700 C   0  0  1  0  0  0  0  0  0  0  0  0
  186.0930  179.1990  143.8960 C   0  0  1  0  0  3  0  0  0  0  0  0
  186.7580  176.2540  143.4820 C   0  0  2  0  0  3  0  0  0  0  0  0
  192.5390  176.9820  145.2180 O   0  0  0  0  0  0  0  0  0  0  0  0
  188.7430  176.1080  144.8500 C   0  0  1  0  0  3  0  0  0  0  0  0
  185.3220  178.1250  145.1330 S   0  0  0  0  0  0  0  0  0  0  0  0
  186.0270  178.5110  142.5480 C   0  0  0  0  0  2  0  0  0  0  0  0
  191.6910  176.0650  145.0560 C   0  0  0  0  0  0  0  0  0  0  0  0
  188.6590  174.7610  142.5600 C   0  0  0  0  0  0  0  0  0  0  0  0
  188.5790  175.1920  146.9740 C   0  0  0  0  0  0  0  0  0  0  0  0
  185.3930  180.4020  143.8330 O   0  0  0  0  0  1  0  0  0  0  0  0
  190.8360  175.6370  146.2080 C   0  0  0  0  0  2  0  0  0  0  0  0
  187.9420  173.7610  141.8870 C   0  0  0  0  0  3  0  0  0  0  0  0
  190.4360  174.5250  140.9070 C   0  0  0  0  0  3  0  0  0  0  0  0
  189.7030  173.5370  140.2500 C   0  0  0  0  0  3  0  0  0  0  0  0
  191.5510  175.4480  143.7830 N   0  0  0  0  0  2  0  0  0  0  0  0
  187.7510  176.9010  145.6190 N   0  0  1  0  0  0  0  0  0  0  0  0
  189.4520  175.1170  145.7980 C   0  0  2  0  0  3  0  0  0  0  0  0
  186.4810  176.7270  144.9090 C   0  0  2  0  0  3  0  0  0  0  0  0
  186.8810  176.7660  147.9690 C   0  0  0  0  0  1  0  0  0  0  0  0
  187.9630  175.3740  143.7610 C   0  0  2  0  0  3  0  0  0  0  0  0
  1 16  1  0  0  0  0
  1  6  1  0  0  0  0
  4 20  1  0  0  0  0
  5 17  1  0  0  0  0
  5 27  1  0  0  0  0
  6 23  1  0  0  0  0
  8  7  1  6  0  0  0
  8 14  1  0  0  0  0
  8  2  1  0  0  0  0
  8 10  1  0  0  0  0
  9 18  1  6  0  0  0
  9 13  1  0  0  0  0
 10 28  1  0  0  0  0
 10 26  1  0  0  0  0
 12 24  1  0  0  0  0
 12 25  1  0  0  0  0
 14  9  1  0  0  0  0
 15 11  2  0  0  0  0
 15 19  1  0  0  0  0
 16 28  1  0  0  0  0
 17  3  2  0  0  0  0
 20 16  2  0  0  0  0
 21  1  2  0  0  0  0
 22  4  2  0  0  0  0
 22 21  1  0  0  0  0
 23 15  1  0  0  0  0
 24  5  1  0  0  0  0
 25 19  1  0  0  0  0
 25 17  1  0  0  0  0
 26 13  1  0  0  0  0
 26 24  1  0  0  0  0
 28 12  1  0  0  0  0
M  END
>  <MODEL>
5

>  <REMARK>
 VINA RESULT:      -7.6      2.596      5.808
  Name = 
  0 active torsions:
  status: ('A' for Active; 'I' for Inactive)
                            x       y       z     vdW  Elec       q    Type
                         _______ _______ _______ _____ _____    ______ ____

>  <TORSDO>
F 0

$$$$
=
 OpenBabel11112417433D

 28 32  0  0  1  0  0  0  0  0999 V2000
  188.8200  175.7070  144.5380 C   0  0  0  0  0  0  0  0  0  0  0  0
  191.8190  176.3870  143.3660 F   0  0  0  0  0  0  0  0  0  0  0  0
  190.3370  170.3450  142.0420 O   0  0  0  0  0  0  0  0  0  0  0  0
  188.6600  175.2260  147.2950 C   0  0  0  0  0  3  0  0  0  0  0  0
  192.0160  171.9840  142.2290 N   0  0  0  0  0  0  0  0  0  0  0  0
  188.7780  175.9540  143.0710 C   0  0  0  0  0  2  0  0  0  0  0  0
  191.9970  176.6610  145.6460 N   0  0  0  0  0  1  0  0  0  0  0  0
  192.4800  175.9240  144.4920 C   0  0  1  0  0  0  0  0  0  0  0  0
  194.5110  175.5830  143.0840 C   0  0  1  0  0  3  0  0  0  0  0  0
  192.2240  174.4060  144.7180 C   0  0  2  0  0  3  0  0  0  0  0  0
  188.2530  174.9390  140.1450 O   0  0  0  0  0  0  0  0  0  0  0  0
  190.7520  173.7600  142.9160 C   0  0  1  0  0  3  0  0  0  0  0  0
  194.7050  173.8080  143.3840 S   0  0  0  0  0  0  0  0  0  0  0  0
  193.9640  176.2300  144.3390 C   0  0  0  0  0  2  0  0  0  0  0  0
  188.3850  174.3290  141.2390 C   0  0  0  0  0  0  0  0  0  0  0  0
  189.6970  174.7660  145.1390 C   0  0  0  0  0  0  0  0  0  0  0  0
  190.6820  171.5360  142.2630 C   0  0  0  0  0  0  0  0  0  0  0  0
  195.7550  176.1360  142.7850 O   0  0  0  0  0  1  0  0  0  0  0  0
  189.0040  172.9660  141.2540 C   0  0  0  0  0  2  0  0  0  0  0  0
  189.5980  174.5430  146.5200 C   0  0  0  0  0  3  0  0  0  0  0  0
  187.8790  176.3810  145.3240 C   0  0  0  0  0  3  0  0  0  0  0  0
  187.8020  176.1470  146.6970 C   0  0  0  0  0  3  0  0  0  0  0  0
  187.9490  174.9390  142.4470 N   0  0  0  0  0  2  0  0  0  0  0  0
  192.1220  173.3550  142.5140 N   0  0  1  0  0  0  0  0  0  0  0  0
  189.7570  172.6380  142.5500 C   0  0  2  0  0  3  0  0  0  0  0  0
  192.9360  173.4870  143.7260 C   0  0  2  0  0  3  0  0  0  0  0  0
  193.1030  171.2160  141.6420 C   0  0  0  0  0  1  0  0  0  0  0  0
  190.7910  173.9970  144.4240 C   0  0  2  0  0  3  0  0  0  0  0  0
  1 16  2  0  0  0  0
  1 21  1  0  0  0  0
  3 17  2  0  0  0  0
  5 17  1  0  0  0  0
  5 24  1  0  0  0  0
  6  1  1  0  0  0  0
  8  2  1  6  0  0  0
  8 10  1  0  0  0  0
  8  7  1  0  0  0  0
  9 18  1  1  0  0  0
  9 13  1  0  0  0  0
  9 14  1  0  0  0  0
 11 15  2  0  0  0  0
 12 28  1  0  0  0  0
 13 26  1  0  0  0  0
 14  8  1  0  0  0  0
 15 19  1  0  0  0  0
 15 23  1  0  0  0  0
 16 20  1  0  0  0  0
 17 25  1  0  0  0  0
 19 25  1  0  0  0  0
 20  4  2  0  0  0  0
 21 22  2  0  0  0  0
 22  4  1  0  0  0  0
 23  6  1  0  0  0  0
 24 12  1  0  0  0  0
 24 26  1  0  0  0  0
 25 12  1  0  0  0  0
 26 10  1  0  0  0  0
 27  5  1  0  0  0  0
 28 10  1  0  0  0  0
 28 16  1  0  0  0  0
M  END
>  <MODEL>
6

>  <REMARK>
 VINA RESULT:      -7.5      2.772      3.932
  Name = 
  0 active torsions:
  status: ('A' for Active; 'I' for Inactive)
                            x       y       z     vdW  Elec       q    Type
                         _______ _______ _______ _____ _____    ______ ____

>  <TORSDO>
F 0

$$$$
=
 OpenBabel11112417433D

 28 32  0  0  1  0  0  0  0  0999 V2000
  190.1530  176.9430  145.3210 C   0  0  0  0  0  0  0  0  0  0  0  0
  192.2440  176.8610  142.7810 F   0  0  0  0  0  0  0  0  0  0  0  0
  187.5140  172.7280  141.7770 O   0  0  0  0  0  0  0  0  0  0  0  0
  190.9680  175.5720  147.6270 C   0  0  0  0  0  3  0  0  0  0  0  0
  189.6810  173.4460  141.2030 N   0  0  0  0  0  0  0  0  0  0  0  0
  189.6190  177.7100  144.1640 C   0  0  0  0  0  2  0  0  0  0  0  0
  193.4900  176.1870  144.5980 N   0  0  0  0  0  1  0  0  0  0  0  0
  192.9870  175.8070  143.2900 C   0  0  1  0  0  0  0  0  0  0  0  0
  193.7350  175.2940  140.9660 C   0  0  1  0  0  3  0  0  0  0  0  0
  192.1240  174.5200  143.4340 C   0  0  2  0  0  3  0  0  0  0  0  0
  187.4620  178.1160  141.9170 O   0  0  0  0  0  0  0  0  0  0  0  0
  189.9240  175.1720  142.6820 C   0  0  1  0  0  3  0  0  0  0  0  0
  193.1120  173.5950  140.8930 S   0  0  0  0  0  0  0  0  0  0  0  0
  194.1880  175.5840  142.3820 C   0  0  0  0  0  2  0  0  0  0  0  0
  187.7210  177.1420  142.6720 C   0  0  0  0  0  0  0  0  0  0  0  0
  190.5910  175.5960  145.2200 C   0  0  0  0  0  0  0  0  0  0  0  0
  188.4690  173.5380  141.9140 C   0  0  0  0  0  0  0  0  0  0  0  0
  194.8190  175.4220  140.1000 O   0  0  0  0  0  1  0  0  0  0  0  0
  187.5020  175.7460  142.1790 C   0  0  0  0  0  2  0  0  0  0  0  0
  190.9950  174.9320  146.3870 C   0  0  0  0  0  3  0  0  0  0  0  0
  190.1240  177.5720  146.5710 C   0  0  0  0  0  3  0  0  0  0  0  0
  190.5350  176.8930  147.7180 C   0  0  0  0  0  3  0  0  0  0  0  0
  188.2180  177.3770  143.9840 N   0  0  0  0  0  2  0  0  0  0  0  0
  190.5750  174.4730  141.5450 N   0  0  1  0  0  0  0  0  0  0  0  0
  188.4550  174.7120  142.7940 C   0  0  2  0  0  3  0  0  0  0  0  0
  191.7700  173.8420  142.1120 C   0  0  2  0  0  3  0  0  0  0  0  0
  189.8560  172.6100  140.0260 C   0  0  0  0  0  1  0  0  0  0  0  0
  190.7180  174.8030  143.9330 C   0  0  2  0  0  3  0  0  0  0  0  0
  1 21  1  0  0  0  0
  3 17  2  0  0  0  0
  4 22  1  0  0  0  0
  5 24  1  0  0  0  0
  5 17  1  0  0  0  0
  6  1  1  0  0  0  0
  8  2  1  6  0  0  0
  8 10  1  0  0  0  0
  8  7  1  0  0  0  0
  9 18  1  6  0  0  0
  9 14  1  0  0  0  0
 10 28  1  0  0  0  0
 11 15  2  0  0  0  0
 12 25  1  0  0  0  0
 12 28  1  0  0  0  0
 13  9  1  0  0  0  0
 13 26  1  0  0  0  0
 14  8  1  0  0  0  0
 15 23  1  0  0  0  0
 16  1  2  0  0  0  0
 16 20  1  0  0  0  0
 17 25  1  0  0  0  0
 19 15  1  0  0  0  0
 19 25  1  0  0  0  0
 20  4  2  0  0  0  0
 21 22  2  0  0  0  0
 23  6  1  0  0  0  0
 24 26  1  0  0  0  0
 24 12  1  0  0  0  0
 26 10  1  0  0  0  0
 27  5  1  0  0  0  0
 28 16  1  0  0  0  0
M  END
>  <MODEL>
7

>  <REMARK>
 VINA RESULT:      -7.3      3.021      4.302
  Name = 
  0 active torsions:
  status: ('A' for Active; 'I' for Inactive)
                            x       y       z     vdW  Elec       q    Type
                         _______ _______ _______ _____ _____    ______ ____

>  <TORSDO>
F 0

$$$$
=
 OpenBabel11112417433D

 28 32  0  0  1  0  0  0  0  0999 V2000
  192.0080  175.7330  146.4180 C   0  0  0  0  0  0  0  0  0  0  0  0
  191.6180  172.8510  144.8790 F   0  0  0  0  0  0  0  0  0  0  0  0
  194.8380  176.8490  141.1230 O   0  0  0  0  0  0  0  0  0  0  0  0
  189.7740  177.4270  146.4380 C   0  0  0  0  0  3  0  0  0  0  0  0
  193.5800  174.8670  141.3010 N   0  0  0  0  0  0  0  0  0  0  0  0
  193.2530  174.9200  146.4820 C   0  0  0  0  0  2  0  0  0  0  0  0
  189.4790  173.6450  145.2040 N   0  0  0  0  0  1  0  0  0  0  0  0
  190.4640  173.2400  144.2160 C   0  0  1  0  0  0  0  0  0  0  0  0
  190.9290  171.4870  142.5050 C   0  0  1  0  0  3  0  0  0  0  0  0
  190.7350  174.4330  143.2550 C   0  0  2  0  0  3  0  0  0  0  0  0
  196.2780  174.4960  145.7530 O   0  0  0  0  0  0  0  0  0  0  0  0
  193.0850  174.9190  143.5320 C   0  0  1  0  0  3  0  0  0  0  0  0
  191.0080  172.5830  141.0660 S   0  0  0  0  0  0  0  0  0  0  0  0
  189.9040  172.0340  143.4760 C   0  0  0  0  0  2  0  0  0  0  0  0
  195.4090  175.2960  145.3170 C   0  0  0  0  0  0  0  0  0  0  0  0
  191.3390  176.0280  145.2010 C   0  0  0  0  0  0  0  0  0  0  0  0
  194.2160  176.0090  141.8250 C   0  0  0  0  0  0  0  0  0  0  0  0
  190.5380  170.2150  142.0910 O   0  0  0  0  0  1  0  0  0  0  0  0
  195.4620  175.7370  143.8870 C   0  0  0  0  0  2  0  0  0  0  0  0
  190.2230  176.8770  145.2370 C   0  0  0  0  0  3  0  0  0  0  0  0
  191.5520  176.2960  147.6160 C   0  0  0  0  0  3  0  0  0  0  0  0
  190.4370  177.1340  147.6280 C   0  0  0  0  0  3  0  0  0  0  0  0
  194.3880  175.7730  146.1840 N   0  0  0  0  0  2  0  0  0  0  0  0
  192.9600  174.1000  142.3000 N   0  0  1  0  0  0  0  0  0  0  0  0
  194.0890  176.0650  143.2860 C   0  0  2  0  0  3  0  0  0  0  0  0
  191.5260  174.0700  141.9990 C   0  0  2  0  0  3  0  0  0  0  0  0
  193.8230  174.3630  139.9580 C   0  0  0  0  0  1  0  0  0  0  0  0
  191.6900  175.4600  143.8390 C   0  0  2  0  0  3  0  0  0  0  0  0
  1  6  1  0  0  0  0
  1 21  1  0  0  0  0
  3 17  2  0  0  0  0
  4 22  1  0  0  0  0
  5 17  1  0  0  0  0
  5 24  1  0  0  0  0
  8  2  1  1  0  0  0
  8  7  1  0  0  0  0
  9 18  1  6  0  0  0
  9 14  1  0  0  0  0
 10 28  1  0  0  0  0
 10  8  1  0  0  0  0
 12 28  1  0  0  0  0
 13 26  1  0  0  0  0
 13  9  1  0  0  0  0
 14  8  1  0  0  0  0
 15 11  2  0  0  0  0
 15 23  1  0  0  0  0
 16 20  1  0  0  0  0
 16  1  2  0  0  0  0
 17 25  1  0  0  0  0
 19 15  1  0  0  0  0
 20  4  2  0  0  0  0
 21 22  2  0  0  0  0
 23  6  1  0  0  0  0
 24 12  1  0  0  0  0
 25 12  1  0  0  0  0
 25 19  1  0  0  0  0
 26 24  1  0  0  0  0
 26 10  1  0  0  0  0
 27  5  1  0  0  0  0
 28 16  1  0  0  0  0
M  END
>  <MODEL>
8

>  <REMARK>
 VINA RESULT:      -7.2      4.040      6.482
  Name = 
  0 active torsions:
  status: ('A' for Active; 'I' for Inactive)
                            x       y       z     vdW  Elec       q    Type
                         _______ _______ _______ _____ _____    ______ ____

>  <TORSDO>
F 0

$$$$
=
 OpenBabel11112417433D

 28 32  0  0  1  0  0  0  0  0999 V2000
  190.9850  176.1490  145.2310 C   0  0  0  0  0  0  0  0  0  0  0  0
  193.8020  176.4130  143.5530 F   0  0  0  0  0  0  0  0  0  0  0  0
  192.3160  170.2690  144.2620 O   0  0  0  0  0  0  0  0  0  0  0  0
  191.1700  176.5070  148.0060 C   0  0  0  0  0  3  0  0  0  0  0  0
  193.9660  171.8690  143.7510 N   0  0  0  0  0  0  0  0  0  0  0  0
  190.7590  175.9510  143.7740 C   0  0  0  0  0  2  0  0  0  0  0  0
  194.2480  177.3460  145.6120 N   0  0  0  0  0  1  0  0  0  0  0  0
  194.6060  176.2950  144.6760 C   0  0  1  0  0  0  0  0  0  0  0  0
  196.4590  175.5260  143.1940 C   0  0  1  0  0  3  0  0  0  0  0  0
  194.4150  174.9150  145.3690 C   0  0  2  0  0  3  0  0  0  0  0  0
  189.9090  174.1240  141.3650 O   0  0  0  0  0  0  0  0  0  0  0  0
  192.7520  173.7840  144.0320 C   0  0  1  0  0  3  0  0  0  0  0  0
  196.7310  173.9170  143.9790 S   0  0  0  0  0  0  0  0  0  0  0  0
  196.0520  176.5230  144.2590 C   0  0  0  0  0  2  0  0  0  0  0  0
  190.1870  173.8630  142.5650 C   0  0  0  0  0  0  0  0  0  0  0  0
  191.9490  175.4160  145.9710 C   0  0  0  0  0  0  0  0  0  0  0  0
  192.6570  171.4680  144.0790 C   0  0  0  0  0  0  0  0  0  0  0  0
  197.6440  175.9500  142.5960 O   0  0  0  0  0  1  0  0  0  0  0  0
  190.8360  172.5570  142.9060 C   0  0  0  0  0  2  0  0  0  0  0  0
  192.0230  175.6130  147.3580 C   0  0  0  0  0  3  0  0  0  0  0  0
  190.1290  177.0370  145.8930 C   0  0  0  0  0  3  0  0  0  0  0  0
  190.2240  177.2210  147.2730 C   0  0  0  0  0  3  0  0  0  0  0  0
  189.8850  174.8080  143.5830 N   0  0  0  0  0  2  0  0  0  0  0  0
  194.0730  173.2610  143.6040 N   0  0  1  0  0  0  0  0  0  0  0  0
  191.7470  172.6170  144.1380 C   0  0  2  0  0  3  0  0  0  0  0  0
  195.0240  173.7350  144.6130 C   0  0  2  0  0  3  0  0  0  0  0  0
  194.9920  170.9470  143.2870 C   0  0  0  0  0  1  0  0  0  0  0  0
  192.9680  174.4560  145.3870 C   0  0  2  0  0  3  0  0  0  0  0  0
  1 21  2  0  0  0  0
  1 16  1  0  0  0  0
  5 17  1  0  0  0  0
  6  1  1  0  0  0  0
  8  2  1  6  0  0  0
  8 10  1  0  0  0  0
  8  7  1  0  0  0  0
  9 18  1  1  0  0  0
  9 13  1  0  0  0  0
  9 14  1  0  0  0  0
 10 28  1  0  0  0  0
 11 15  2  0  0  0  0
 12 25  1  0  0  0  0
 12 28  1  0  0  0  0
 13 26  1  0  0  0  0
 14  8  1  0  0  0  0
 15 19  1  0  0  0  0
 15 23  1  0  0  0  0
 16 20  2  0  0  0  0
 17 25  1  0  0  0  0
 17  3  2  0  0  0  0
 19 25  1  0  0  0  0
 20  4  1  0  0  0  0
 21 22  1  0  0  0  0
 22  4  2  0  0  0  0
 23  6  1  0  0  0  0
 24  5  1  0  0  0  0
 24 12  1  0  0  0  0
 24 26  1  0  0  0  0
 26 10  1  0  0  0  0
 27  5  1  0  0  0  0
 28 16  1  0  0  0  0
M  END
>  <MODEL>
9

>  <REMARK>
 VINA RESULT:      -7.0      3.915      5.623
  Name = 
  0 active torsions:
  status: ('A' for Active; 'I' for Inactive)
                            x       y       z     vdW  Elec       q    Type
                         _______ _______ _______ _____ _____    ______ ____

>  <TORSDO>
F 0

$$$$
