=
 OpenBabel11112416293D

 32 37  0  0  1  0  0  0  0  0999 V2000
  192.4610  174.6120  144.3760 C   0  0  0  0  0  2  0  0  0  0  0  0
  187.9520  177.7060  143.7130 C   0  0  1  0  0  3  0  0  0  0  0  0
  186.0090  178.4470  148.2210 C   0  0  0  0  0  3  0  0  0  0  0  0
  184.7590  178.7170  147.6660 C   0  0  0  0  0  3  0  0  0  0  0  0
  186.3710  177.8340  141.7340 C   0  0  0  0  0  0  0  0  0  0  0  0
  184.9930  177.8690  141.2300 C   0  0  0  0  0  0  0  0  0  0  0  0
  190.3320  176.9260  143.4990 C   0  0  1  0  0  3  0  0  0  0  0  0
  189.3430  177.3900  145.7740 C   0  0  0  0  0  2  0  0  0  0  0  0
  182.7040  177.9310  141.4190 N   0  0  0  0  0  0  0  0  0  0  0  0
  191.7330  176.7070  145.6550 C   0  0  0  0  0  2  0  0  0  0  0  0
  187.0490  177.9950  147.4060 C   0  0  0  0  0  3  0  0  0  0  0  0
  187.9430  177.2140  145.1740 C   0  0  1  0  0  3  0  0  0  0  0  0
  186.8600  177.8300  146.0230 C   0  0  0  0  0  0  0  0  0  0  0  0
  185.3710  177.9090  144.0120 C   0  0  0  0  0  0  0  0  0  0  0  0
  183.1520  177.8760  140.0100 C   0  0  0  0  0  2  0  0  0  0  0  0
  191.5160  174.6750  143.1640 C   0  0  0  0  0  2  0  0  0  0  0  0
  190.3580  176.5570  144.9990 C   0  0  2  0  0  3  0  0  0  0  0  0
  184.6220  177.8430  140.0050 N   0  0  0  0  0  0  0  0  0  0  0  0
  191.2860  176.0940  142.6290 C   0  0  0  0  0  2  0  0  0  0  0  0
  192.8720  175.9840  144.9300 C   0  0  1  0  0  3  0  0  0  0  0  0
  184.5510  178.5310  146.2990 C   0  0  0  0  0  3  0  0  0  0  0  0
  185.5910  178.0790  145.4660 C   0  0  0  0  0  0  0  0  0  0  0  0
  184.1180  177.9670  143.5220 C   0  0  0  0  0  3  0  0  0  0  0  0
  188.9150  176.7890  142.9500 C   0  0  0  0  0  2  0  0  0  0  0  0
  187.4880  177.9300  140.7440 C   0  0  0  0  0  1  0  0  0  0  0  0
  182.1000  179.2410  141.6110 C   0  0  0  0  0  1  0  0  0  0  0  0
  186.5590  177.7610  143.0860 C   0  0  0  0  0  0  0  0  0  0  0  0
  183.9200  177.9180  142.1110 N   0  0  0  0  0  0  0  0  0  0  0  0
  194.0560  175.8470  145.8730 C   0  0  0  0  0  2  0  0  0  0  0  0
  195.3300  175.7280  145.1100 C   0  0  0  0  0  0  0  0  0  0  0  0
  195.7050  176.7290  144.2240 O   0  0  0  0  0  0  0  0  0  0  0  0
  196.0810  174.7340  145.2890 O   0  0  0  0  0  1  0  0  0  0  0  0
  1 20  1  0  0  0  0
  2 24  1  6  0  0  0
  2 12  1  0  0  0  0
  4  3  1  0  0  0  0
  5 27  2  0  0  0  0
  6  5  1  0  0  0  0
  6 28  1  0  0  0  0
  7 19  1  6  0  0  0
  7 17  1  0  0  0  0
  9 26  1  0  0  0  0
  9 28  1  0  0  0  0
 11  3  2  0  0  0  0
 12  8  1  1  0  0  0
 12 13  1  0  0  0  0
 13 11  1  0  0  0  0
 14 22  1  0  0  0  0
 15  9  1  0  0  0  0
 16  1  1  0  0  0  0
 17 10  1  1  0  0  0
 17  8  1  0  0  0  0
 18 15  1  0  0  0  0
 18  6  2  0  0  0  0
 19 16  1  0  0  0  0
 20 10  1  0  0  0  0
 20 29  1  1  0  0  0
 21  4  2  0  0  0  0
 22 13  2  0  0  0  0
 22 21  1  0  0  0  0
 23 14  2  0  0  0  0
 24  7  1  0  0  0  0
 25  5  1  0  0  0  0
 27  2  1  0  0  0  0
 27 14  1  0  0  0  0
 28 23  1  0  0  0  0
 30 32  1  0  0  0  0
 30 29  1  0  0  0  0
 31 30  2  0  0  0  0
M  END
>  <MODEL>
1

>  <REMARK>
 VINA RESULT:      -8.8      0.000      0.000
  Name = 
  2 active torsions:
  status: ('A' for Active; 'I' for Inactive)
    1  A    between atoms: C_20  and  C_29
    2  A    between atoms: C_29  and  C_30
                            x       y       z     vdW  Elec       q    Type
                         _______ _______ _______ _____ _____    ______ ____

>  <TORSDO>
F 2

$$$$
=
 OpenBabel11112416293D

 32 37  0  0  1  0  0  0  0  0999 V2000
  189.4880  171.9300  139.2730 C   0  0  0  0  0  2  0  0  0  0  0  0
  188.7630  175.8050  143.1220 C   0  0  1  0  0  3  0  0  0  0  0  0
  192.1030  174.9610  146.6960 C   0  0  0  0  0  3  0  0  0  0  0  0
  191.3300  175.6650  147.6190 C   0  0  0  0  0  3  0  0  0  0  0  0
  186.6440  177.0340  143.7810 C   0  0  0  0  0  0  0  0  0  0  0  0
  185.7630  177.5330  144.8430 C   0  0  0  0  0  0  0  0  0  0  0  0
  189.0720  174.7540  140.8590 C   0  0  1  0  0  3  0  0  0  0  0  0
  190.7950  174.4090  142.6710 C   0  0  0  0  0  2  0  0  0  0  0  0
  185.1390  177.9380  147.0170 N   0  0  0  0  0  0  0  0  0  0  0  0
  191.2290  173.4030  140.4360 C   0  0  0  0  0  2  0  0  0  0  0  0
  191.5970  174.7010  145.4210 C   0  0  0  0  0  3  0  0  0  0  0  0
  189.7310  174.7630  143.7160 C   0  0  1  0  0  3  0  0  0  0  0  0
  190.3240  175.1620  145.0440 C   0  0  0  0  0  0  0  0  0  0  0  0
  188.1900  176.3440  145.6060 C   0  0  0  0  0  0  0  0  0  0  0  0
  184.1190  178.3890  146.0440 C   0  0  0  0  0  2  0  0  0  0  0  0
  188.1910  172.6660  139.6560 C   0  0  0  0  0  2  0  0  0  0  0  0
  190.1400  173.7990  141.4370 C   0  0  2  0  0  3  0  0  0  0  0  0
  184.6180  178.0860  144.6950 N   0  0  0  0  0  0  0  0  0  0  0  0
  188.3180  174.1940  139.6440 C   0  0  0  0  0  2  0  0  0  0  0  0
  190.7100  172.8460  139.1070 C   0  0  1  0  0  3  0  0  0  0  0  0
  190.0550  176.1050  147.2660 C   0  0  0  0  0  3  0  0  0  0  0  0
  189.5340  175.8530  145.9840 C   0  0  0  0  0  0  0  0  0  0  0  0
  187.3730  176.8340  146.5590 C   0  0  0  0  0  3  0  0  0  0  0  0
  188.0610  175.1240  141.9410 C   0  0  0  0  0  2  0  0  0  0  0  0
  186.2720  177.3210  142.3610 C   0  0  0  0  0  1  0  0  0  0  0  0
  185.6780  179.1380  147.6380 C   0  0  0  0  0  1  0  0  0  0  0  0
  187.7840  176.3740  144.1480 C   0  0  0  0  0  0  0  0  0  0  0  0
  186.1270  177.4120  146.1780 N   0  0  0  0  0  0  0  0  0  0  0  0
  191.8360  172.1120  138.3990 C   0  0  0  0  0  2  0  0  0  0  0  0
  191.4230  171.7080  137.0260 C   0  0  0  0  0  0  0  0  0  0  0  0
  190.9670  172.6630  136.1280 O   0  0  0  0  0  0  0  0  0  0  0  0
  191.5150  170.5040  136.6690 O   0  0  0  0  0  1  0  0  0  0  0  0
  1 16  1  0  0  0  0
  2 24  1  6  0  0  0
  2 12  1  0  0  0  0
  2 27  1  0  0  0  0
  3  4  1  0  0  0  0
  5 27  2  0  0  0  0
  5  6  1  0  0  0  0
  6 28  1  0  0  0  0
  7 19  1  6  0  0  0
  7 17  1  0  0  0  0
  7 24  1  0  0  0  0
  9 26  1  0  0  0  0
 11  3  2  0  0  0  0
 12  8  1  6  0  0  0
 12 13  1  0  0  0  0
 13 11  1  0  0  0  0
 13 22  2  0  0  0  0
 14 22  1  0  0  0  0
 14 23  2  0  0  0  0
 15  9  1  0  0  0  0
 17 10  1  6  0  0  0
 17  8  1  0  0  0  0
 18  6  2  0  0  0  0
 18 15  1  0  0  0  0
 19 16  1  0  0  0  0
 20 29  1  1  0  0  0
 20  1  1  0  0  0  0
 20 10  1  0  0  0  0
 21  4  2  0  0  0  0
 22 21  1  0  0  0  0
 25  5  1  0  0  0  0
 27 14  1  0  0  0  0
 28 23  1  0  0  0  0
 28  9  1  0  0  0  0
 30 29  1  0  0  0  0
 31 30  2  0  0  0  0
 32 30  1  0  0  0  0
M  END
>  <MODEL>
2

>  <REMARK>
 VINA RESULT:      -8.6      3.949      5.832
  Name = 
  2 active torsions:
  status: ('A' for Active; 'I' for Inactive)
    1  A    between atoms: C_20  and  C_29
    2  A    between atoms: C_29  and  C_30
                            x       y       z     vdW  Elec       q    Type
                         _______ _______ _______ _____ _____    ______ ____

>  <TORSDO>
F 2

$$$$
=
 OpenBabel11112416293D

 32 37  0  0  1  0  0  0  0  0999 V2000
  186.4910  178.6450  142.8190 C   0  0  0  0  0  2  0  0  0  0  0  0
  190.1510  174.6210  143.6890 C   0  0  1  0  0  3  0  0  0  0  0  0
  193.7030  176.4800  146.6170 C   0  0  0  0  0  3  0  0  0  0  0  0
  194.6020  175.5060  146.1870 C   0  0  0  0  0  3  0  0  0  0  0  0
  190.7860  172.6770  142.1880 C   0  0  0  0  0  0  0  0  0  0  0  0
  191.8370  171.8490  141.5860 C   0  0  0  0  0  0  0  0  0  0  0  0
  187.9390  175.8030  143.5150 C   0  0  1  0  0  3  0  0  0  0  0  0
  189.7350  176.6790  145.0580 C   0  0  0  0  0  2  0  0  0  0  0  0
  193.9990  171.1570  141.2290 N   0  0  0  0  0  0  0  0  0  0  0  0
  187.5470  177.8640  145.0170 C   0  0  0  0  0  2  0  0  0  0  0  0
  192.4520  176.5890  146.0070 C   0  0  0  0  0  3  0  0  0  0  0  0
  190.7800  175.9190  144.2330 C   0  0  1  0  0  3  0  0  0  0  0  0
  192.0750  175.7100  144.9770 C   0  0  0  0  0  0  0  0  0  0  0  0
  192.6150  173.8090  143.4400 C   0  0  0  0  0  0  0  0  0  0  0  0
  193.0230  170.4040  140.4100 C   0  0  0  0  0  2  0  0  0  0  0  0
  186.8600  177.4720  141.8930 C   0  0  0  0  0  2  0  0  0  0  0  0
  188.5450  177.0570  144.1820 C   0  0  2  0  0  3  0  0  0  0  0  0
  191.6820  170.9220  140.7170 N   0  0  0  0  0  0  0  0  0  0  0  0
  186.7680  176.0970  142.5660 C   0  0  0  0  0  2  0  0  0  0  0  0
  186.2570  178.2460  144.2840 C   0  0  1  0  0  3  0  0  0  0  0  0
  194.2510  174.6450  145.1470 C   0  0  0  0  0  3  0  0  0  0  0  0
  192.9930  174.7420  144.5260 C   0  0  0  0  0  0  0  0  0  0  0  0
  193.5570  173.0170  142.8920 C   0  0  0  0  0  3  0  0  0  0  0  0
  189.0190  175.0460  142.7470 C   0  0  0  0  0  2  0  0  0  0  0  0
  189.3600  172.3320  141.8950 C   0  0  0  0  0  1  0  0  0  0  0  0
  194.5480  170.2120  142.1900 C   0  0  0  0  0  1  0  0  0  0  0  0
  191.1650  173.6920  143.0210 C   0  0  0  0  0  0  0  0  0  0  0  0
  193.1700  172.0400  141.9290 N   0  0  0  0  0  0  0  0  0  0  0  0
  185.5670  179.3680  145.0400 C   0  0  0  0  0  2  0  0  0  0  0  0
  185.0740  178.8900  146.3630 C   0  0  0  0  0  0  0  0  0  0  0  0
  185.6840  179.3280  147.5310 O   0  0  0  0  0  1  0  0  0  0  0  0
  184.0850  178.1130  146.4230 O   0  0  0  0  0  0  0  0  0  0  0  0
  1 20  1  0  0  0  0
  2 24  1  6  0  0  0
  2 12  1  0  0  0  0
  4  3  1  0  0  0  0
  5 27  2  0  0  0  0
  6 28  1  0  0  0  0
  6  5  1  0  0  0  0
  7 19  1  6  0  0  0
  7 17  1  0  0  0  0
  9 28  1  0  0  0  0
  9 26  1  0  0  0  0
 11  3  2  0  0  0  0
 12 13  1  0  0  0  0
 12  8  1  1  0  0  0
 13 11  1  0  0  0  0
 14 22  1  0  0  0  0
 15 18  1  0  0  0  0
 15  9  1  0  0  0  0
 16 19  1  0  0  0  0
 16  1  1  0  0  0  0
 17 10  1  1  0  0  0
 17  8  1  0  0  0  0
 18  6  2  0  0  0  0
 20 10  1  0  0  0  0
 20 29  1  1  0  0  0
 21  4  2  0  0  0  0
 22 13  2  0  0  0  0
 22 21  1  0  0  0  0
 23 14  2  0  0  0  0
 24  7  1  0  0  0  0
 25  5  1  0  0  0  0
 27 14  1  0  0  0  0
 27  2  1  0  0  0  0
 28 23  1  0  0  0  0
 29 30  1  0  0  0  0
 30 32  2  0  0  0  0
 30 31  1  0  0  0  0
M  END
>  <MODEL>
3

>  <REMARK>
 VINA RESULT:      -8.5      4.741      8.439
  Name = 
  2 active torsions:
  status: ('A' for Active; 'I' for Inactive)
    1  A    between atoms: C_20  and  C_29
    2  A    between atoms: C_29  and  C_30
                            x       y       z     vdW  Elec       q    Type
                         _______ _______ _______ _____ _____    ______ ____

>  <TORSDO>
F 2

$$$$
=
 OpenBabel11112416293D

 32 37  0  0  1  0  0  0  0  0999 V2000
  195.0990  175.5320  145.7740 C   0  0  0  0  0  2  0  0  0  0  0  0
  189.7890  175.6690  144.3130 C   0  0  1  0  0  3  0  0  0  0  0  0
  189.4670  173.6830  139.7740 C   0  0  0  0  0  3  0  0  0  0  0  0
  188.2600  174.3400  139.5450 C   0  0  0  0  0  3  0  0  0  0  0  0
  187.9810  177.3140  144.9890 C   0  0  0  0  0  0  0  0  0  0  0  0
  186.8570  178.1720  144.5980 C   0  0  0  0  0  0  0  0  0  0  0  0
  191.8450  175.2670  145.7020 C   0  0  1  0  0  3  0  0  0  0  0  0
  191.6180  174.2040  143.4240 C   0  0  0  0  0  2  0  0  0  0  0  0
  185.3250  179.0670  143.1380 N   0  0  0  0  0  0  0  0  0  0  0  0
  193.6490  173.6790  144.7630 C   0  0  0  0  0  2  0  0  0  0  0  0
  190.2020  173.9610  140.9290 C   0  0  0  0  0  3  0  0  0  0  0  0
  190.5870  175.2760  143.0540 C   0  0  1  0  0  3  0  0  0  0  0  0
  189.7270  174.8800  141.8800 C   0  0  0  0  0  0  0  0  0  0  0  0
  188.0030  176.5360  142.6250 C   0  0  0  0  0  0  0  0  0  0  0  0
  185.2020  179.6310  144.5000 C   0  0  0  0  0  2  0  0  0  0  0  0
  194.0170  176.5400  146.1990 C   0  0  0  0  0  2  0  0  0  0  0  0
  192.5980  174.7500  144.4560 C   0  0  2  0  0  3  0  0  0  0  0  0
  186.2190  178.9920  145.3470 N   0  0  0  0  0  0  0  0  0  0  0  0
  192.7530  175.8900  146.7740 C   0  0  0  0  0  2  0  0  0  0  0  0
  194.6590  174.0620  145.8500 C   0  0  1  0  0  3  0  0  0  0  0  0
  187.7900  175.2750  140.4680 C   0  0  0  0  0  3  0  0  0  0  0  0
  188.5180  175.5620  141.6360 C   0  0  0  0  0  0  0  0  0  0  0  0
  186.9530  177.3150  142.3000 C   0  0  0  0  0  3  0  0  0  0  0  0
  190.7930  176.2920  145.2890 C   0  0  0  0  0  2  0  0  0  0  0  0
  188.3490  177.2490  146.4370 C   0  0  0  0  0  1  0  0  0  0  0  0
  184.1180  178.2900  142.9000 C   0  0  0  0  0  1  0  0  0  0  0  0
  188.6010  176.5830  144.0140 C   0  0  0  0  0  0  0  0  0  0  0  0
  186.3860  178.1680  143.2910 N   0  0  0  0  0  0  0  0  0  0  0  0
  195.8620  173.1390  145.7610 C   0  0  0  0  0  2  0  0  0  0  0  0
  196.8640  173.6670  144.7930 C   0  0  0  0  0  0  0  0  0  0  0  0
  196.5970  173.6380  143.4310 O   0  0  0  0  0  0  0  0  0  0  0  0
  197.9410  174.1660  145.2110 O   0  0  0  0  0  1  0  0  0  0  0  0
  1 20  1  0  0  0  0
  1 16  1  0  0  0  0
  2 24  1  1  0  0  0
  3 11  1  0  0  0  0
  4  3  2  0  0  0  0
  4 21  1  0  0  0  0
  5 25  1  0  0  0  0
  6  5  1  0  0  0  0
  6 18  2  0  0  0  0
  7 24  1  6  0  0  0
  7 19  1  0  0  0  0
  9 28  1  0  0  0  0
  9 15  1  0  0  0  0
 10 20  1  0  0  0  0
 11 13  2  0  0  0  0
 12  8  1  1  0  0  0
 12  2  1  0  0  0  0
 13 12  1  0  0  0  0
 14 27  1  0  0  0  0
 15 18  1  0  0  0  0
 16 19  1  0  0  0  0
 17  8  1  6  0  0  0
 17 10  1  0  0  0  0
 17  7  1  0  0  0  0
 20 29  1  6  0  0  0
 21 22  2  0  0  0  0
 22 13  1  0  0  0  0
 22 14  1  0  0  0  0
 23 14  2  0  0  0  0
 23 28  1  0  0  0  0
 26  9  1  0  0  0  0
 27  2  1  0  0  0  0
 27  5  2  0  0  0  0
 28  6  1  0  0  0  0
 30 32  1  0  0  0  0
 30 29  1  0  0  0  0
 31 30  2  0  0  0  0
M  END
>  <MODEL>
4

>  <REMARK>
 VINA RESULT:      -8.5      2.025      4.802
  Name = 
  2 active torsions:
  status: ('A' for Active; 'I' for Inactive)
    1  A    between atoms: C_20  and  C_29
    2  A    between atoms: C_29  and  C_30
                            x       y       z     vdW  Elec       q    Type
                         _______ _______ _______ _____ _____    ______ ____

>  <TORSDO>
F 2

$$$$
=
 OpenBabel11112416293D

 32 37  0  0  1  0  0  0  0  0999 V2000
  185.9130  176.7970  146.8180 C   0  0  0  0  0  2  0  0  0  0  0  0
  190.7250  175.9480  144.2740 C   0  0  1  0  0  3  0  0  0  0  0  0
  189.7340  173.5940  140.0160 C   0  0  0  0  0  3  0  0  0  0  0  0
  191.0370  173.1020  139.9560 C   0  0  0  0  0  3  0  0  0  0  0  0
  193.0320  175.6120  145.2740 C   0  0  0  0  0  0  0  0  0  0  0  0
  194.2930  174.8630  145.2930 C   0  0  0  0  0  0  0  0  0  0  0  0
  188.8780  177.1390  145.4930 C   0  0  1  0  0  3  0  0  0  0  0  0
  188.4220  176.0030  143.2860 C   0  0  0  0  0  2  0  0  0  0  0  0
  195.7880  173.2760  144.5670 N   0  0  0  0  0  0  0  0  0  0  0  0
  186.5530  177.2330  144.3770 C   0  0  0  0  0  2  0  0  0  0  0  0
  189.3030  174.2840  141.1510 C   0  0  0  0  0  3  0  0  0  0  0  0
  189.6650  175.1340  143.5040 C   0  0  1  0  0  3  0  0  0  0  0  0
  190.1750  174.5100  142.2300 C   0  0  0  0  0  0  0  0  0  0  0  0
  192.4160  174.2170  143.3070 C   0  0  0  0  0  0  0  0  0  0  0  0
  196.2820  174.0180  145.7480 C   0  0  0  0  0  2  0  0  0  0  0  0
  187.3040  176.5980  147.4460 C   0  0  0  0  0  2  0  0  0  0  0  0
  187.8240  176.4160  144.6270 C   0  0  2  0  0  3  0  0  0  0  0  0
  195.2570  175.0020  146.1240 N   0  0  0  0  0  0  0  0  0  0  0  0
  188.3780  177.5410  146.8890 C   0  0  0  0  0  2  0  0  0  0  0  0
  185.8860  177.7840  145.6410 C   0  0  1  0  0  3  0  0  0  0  0  0
  191.9040  173.2960  141.0310 C   0  0  0  0  0  3  0  0  0  0  0  0
  191.4840  173.9910  142.1800 C   0  0  0  0  0  0  0  0  0  0  0  0
  193.5940  173.5620  143.3320 C   0  0  0  0  0  3  0  0  0  0  0  0
  190.1200  176.2660  145.6460 C   0  0  0  0  0  2  0  0  0  0  0  0
  192.8830  176.7690  146.2110 C   0  0  0  0  0  1  0  0  0  0  0  0
  196.6470  173.6500  143.4540 C   0  0  0  0  0  1  0  0  0  0  0  0
  192.0770  175.2420  144.3680 C   0  0  0  0  0  0  0  0  0  0  0  0
  194.5380  173.8670  144.3560 N   0  0  0  0  0  0  0  0  0  0  0  0
  184.4580  178.1880  145.3150 C   0  0  0  0  0  2  0  0  0  0  0  0
  184.4120  179.0190  144.0790 C   0  0  0  0  0  0  0  0  0  0  0  0
  185.1880  180.1660  143.9830 O   0  0  0  0  0  1  0  0  0  0  0  0
  183.6910  178.6650  143.1100 O   0  0  0  0  0  0  0  0  0  0  0  0
  1 16  1  0  0  0  0
  2 27  1  0  0  0  0
  2 24  1  1  0  0  0
  3 11  1  0  0  0  0
  4  3  2  0  0  0  0
  4 21  1  0  0  0  0
  5  6  1  0  0  0  0
  5 25  1  0  0  0  0
  6 18  2  0  0  0  0
  7 24  1  1  0  0  0
  7 19  1  0  0  0  0
  9 15  1  0  0  0  0
 10 17  1  0  0  0  0
 10 20  1  0  0  0  0
 11 13  2  0  0  0  0
 12  8  1  6  0  0  0
 12  2  1  0  0  0  0
 13 12  1  0  0  0  0
 14 23  2  0  0  0  0
 14 27  1  0  0  0  0
 15 18  1  0  0  0  0
 17  8  1  6  0  0  0
 17  7  1  0  0  0  0
 19 16  1  0  0  0  0
 20 29  1  6  0  0  0
 20  1  1  0  0  0  0
 21 22  2  0  0  0  0
 22 13  1  0  0  0  0
 22 14  1  0  0  0  0
 23 28  1  0  0  0  0
 26  9  1  0  0  0  0
 27  5  2  0  0  0  0
 28  9  1  0  0  0  0
 28  6  1  0  0  0  0
 30 29  1  0  0  0  0
 31 30  1  0  0  0  0
 32 30  2  0  0  0  0
M  END
>  <MODEL>
5

>  <REMARK>
 VINA RESULT:      -8.4      5.037      9.167
  Name = 
  2 active torsions:
  status: ('A' for Active; 'I' for Inactive)
    1  A    between atoms: C_20  and  C_29
    2  A    between atoms: C_29  and  C_30
                            x       y       z     vdW  Elec       q    Type
                         _______ _______ _______ _____ _____    ______ ____

>  <TORSDO>
F 2

$$$$
=
 OpenBabel11112416293D

 32 37  0  0  1  0  0  0  0  0999 V2000
  186.0850  179.2280  143.2480 C   0  0  0  0  0  2  0  0  0  0  0  0
  189.9450  175.2970  143.2040 C   0  0  1  0  0  3  0  0  0  0  0  0
  193.2240  176.4250  146.7580 C   0  0  0  0  0  3  0  0  0  0  0  0
  194.2030  175.6540  146.1330 C   0  0  0  0  0  3  0  0  0  0  0  0
  190.7740  173.8850  141.2680 C   0  0  0  0  0  0  0  0  0  0  0  0
  191.9040  173.3090  140.5300 C   0  0  0  0  0  0  0  0  0  0  0  0
  187.6740  176.3760  143.2220 C   0  0  1  0  0  3  0  0  0  0  0  0
  189.3330  176.8680  145.0600 C   0  0  0  0  0  2  0  0  0  0  0  0
  194.1190  172.8460  140.1360 N   0  0  0  0  0  0  0  0  0  0  0  0
  187.0780  177.9120  145.2070 C   0  0  0  0  0  2  0  0  0  0  0  0
  192.0000  176.6420  146.1220 C   0  0  0  0  0  3  0  0  0  0  0  0
  190.4630  176.4190  144.1260 C   0  0  1  0  0  3  0  0  0  0  0  0
  191.7300  176.0710  144.8660 C   0  0  0  0  0  0  0  0  0  0  0  0
  192.4640  174.7040  142.9010 C   0  0  0  0  0  0  0  0  0  0  0  0
  193.2350  172.3090  139.0790 C   0  0  0  0  0  2  0  0  0  0  0  0
  186.5720  178.3800  142.0600 C   0  0  0  0  0  2  0  0  0  0  0  0
  188.1660  177.4200  144.2480 C   0  0  2  0  0  3  0  0  0  0  0  0
  191.8500  172.6570  139.4290 N   0  0  0  0  0  0  0  0  0  0  0  0
  186.5340  176.8690  142.3180 C   0  0  0  0  0  2  0  0  0  0  0  0
  185.8050  178.4240  144.5260 C   0  0  1  0  0  3  0  0  0  0  0  0
  193.9580  175.1040  144.8750 C   0  0  0  0  0  3  0  0  0  0  0  0
  192.7280  175.3120  144.2250 C   0  0  0  0  0  0  0  0  0  0  0  0
  193.4800  174.1430  142.2170 C   0  0  0  0  0  3  0  0  0  0  0  0
  188.8360  175.9160  142.3460 C   0  0  0  0  0  2  0  0  0  0  0  0
  189.3890  173.5690  140.7990 C   0  0  0  0  0  1  0  0  0  0  0  0
  194.6800  171.6970  140.8310 C   0  0  0  0  0  1  0  0  0  0  0  0
  191.0470  174.6420  142.3730 C   0  0  0  0  0  0  0  0  0  0  0  0
  193.2030  173.4580  140.9970 N   0  0  0  0  0  0  0  0  0  0  0  0
  185.0090  179.2550  145.5180 C   0  0  0  0  0  2  0  0  0  0  0  0
  184.8580  178.5340  146.8130 C   0  0  0  0  0  0  0  0  0  0  0  0
  184.1650  177.3320  146.8620 O   0  0  0  0  0  0  0  0  0  0  0  0
  185.3840  179.0000  147.8580 O   0  0  0  0  0  1  0  0  0  0  0  0
  1 20  1  0  0  0  0
  2 24  1  6  0  0  0
  2 12  1  0  0  0  0
  4  3  1  0  0  0  0
  5 27  2  0  0  0  0
  6 28  1  0  0  0  0
  6  5  1  0  0  0  0
  7 19  1  6  0  0  0
  7 17  1  0  0  0  0
  9 26  1  0  0  0  0
  9 28  1  0  0  0  0
 11  3  2  0  0  0  0
 12 13  1  0  0  0  0
 12  8  1  1  0  0  0
 13 11  1  0  0  0  0
 14 22  1  0  0  0  0
 15 18  1  0  0  0  0
 15  9  1  0  0  0  0
 16 19  1  0  0  0  0
 16  1  1  0  0  0  0
 17  8  1  1  0  0  0
 17 10  1  0  0  0  0
 18  6  2  0  0  0  0
 20 10  1  0  0  0  0
 20 29  1  1  0  0  0
 21  4  2  0  0  0  0
 22 13  2  0  0  0  0
 22 21  1  0  0  0  0
 23 14  2  0  0  0  0
 24  7  1  0  0  0  0
 25  5  1  0  0  0  0
 27 14  1  0  0  0  0
 27  2  1  0  0  0  0
 28 23  1  0  0  0  0
 29 30  1  0  0  0  0
 30 31  2  0  0  0  0
 30 32  1  0  0  0  0
M  END
>  <MODEL>
6

>  <REMARK>
 VINA RESULT:      -8.3      4.526      8.153
  Name = 
  2 active torsions:
  status: ('A' for Active; 'I' for Inactive)
    1  A    between atoms: C_20  and  C_29
    2  A    between atoms: C_29  and  C_30
                            x       y       z     vdW  Elec       q    Type
                         _______ _______ _______ _____ _____    ______ ____

>  <TORSDO>
F 2

$$$$
=
 OpenBabel11112416293D

 32 37  0  0  1  0  0  0  0  0999 V2000
  186.4890  177.5580  146.2100 C   0  0  0  0  0  2  0  0  0  0  0  0
  190.5290  174.6970  143.7930 C   0  0  1  0  0  3  0  0  0  0  0  0
  188.7150  172.9190  139.5280 C   0  0  0  0  0  3  0  0  0  0  0  0
  189.6840  171.9170  139.5040 C   0  0  0  0  0  3  0  0  0  0  0  0
  192.4530  173.4280  144.8530 C   0  0  0  0  0  0  0  0  0  0  0  0
  193.2740  172.2140  144.9100 C   0  0  0  0  0  0  0  0  0  0  0  0
  189.3420  176.5820  144.9580 C   0  0  1  0  0  3  0  0  0  0  0  0
  188.4890  175.7110  142.7480 C   0  0  0  0  0  2  0  0  0  0  0  0
  193.9640  170.1290  144.2320 N   0  0  0  0  0  0  0  0  0  0  0  0
  187.3020  177.6380  143.7830 C   0  0  0  0  0  2  0  0  0  0  0  0
  188.5960  173.7450  140.6470 C   0  0  0  0  0  3  0  0  0  0  0  0
  189.2390  174.3990  143.0030 C   0  0  1  0  0  3  0  0  0  0  0  0
  189.4600  173.5960  141.7460 C   0  0  0  0  0  0  0  0  0  0  0  0
  191.3400  172.3940  142.8810 C   0  0  0  0  0  0  0  0  0  0  0  0
  194.7040  170.6090  145.4200 C   0  0  0  0  0  2  0  0  0  0  0  0
  187.6490  176.7960  146.8740 C   0  0  0  0  0  2  0  0  0  0  0  0
  188.0980  176.3620  144.0700 C   0  0  2  0  0  3  0  0  0  0  0  0
  194.1880  171.9430  145.7630 N   0  0  0  0  0  0  0  0  0  0  0  0
  189.0330  177.1820  146.3380 C   0  0  0  0  0  2  0  0  0  0  0  0
  186.9080  178.4420  145.0260 C   0  0  1  0  0  3  0  0  0  0  0  0
  190.5300  171.7410  140.5990 C   0  0  0  0  0  3  0  0  0  0  0  0
  190.4230  172.5680  141.7320 C   0  0  0  0  0  0  0  0  0  0  0  0
  192.1260  171.3010  142.9400 C   0  0  0  0  0  3  0  0  0  0  0  0
  190.0900  175.2650  145.1470 C   0  0  0  0  0  2  0  0  0  0  0  0
  192.7920  174.5530  145.7780 C   0  0  0  0  0  1  0  0  0  0  0  0
  194.9220  170.0830  143.1380 C   0  0  0  0  0  1  0  0  0  0  0  0
  191.4490  173.4840  143.9260 C   0  0  0  0  0  0  0  0  0  0  0  0
  193.0890  171.1930  143.9850 N   0  0  0  0  0  0  0  0  0  0  0  0
  185.7950  179.4100  144.6620 C   0  0  0  0  0  2  0  0  0  0  0  0
  184.4780  178.7150  144.6290 C   0  0  0  0  0  0  0  0  0  0  0  0
  183.6890  178.6660  145.7700 O   0  0  0  0  0  1  0  0  0  0  0  0
  184.0660  178.1970  143.5580 O   0  0  0  0  0  0  0  0  0  0  0  0
  1 16  1  0  0  0  0
  2 27  1  0  0  0  0
  2 24  1  1  0  0  0
  3 11  1  0  0  0  0
  4  3  2  0  0  0  0
  4 21  1  0  0  0  0
  5  6  1  0  0  0  0
  5 25  1  0  0  0  0
  6 18  2  0  0  0  0
  7 24  1  1  0  0  0
  7 19  1  0  0  0  0
  9 15  1  0  0  0  0
 10 17  1  0  0  0  0
 10 20  1  0  0  0  0
 11 13  2  0  0  0  0
 12  8  1  6  0  0  0
 12  2  1  0  0  0  0
 13 12  1  0  0  0  0
 14 23  2  0  0  0  0
 14 27  1  0  0  0  0
 15 18  1  0  0  0  0
 17  8  1  6  0  0  0
 17  7  1  0  0  0  0
 19 16  1  0  0  0  0
 20 29  1  6  0  0  0
 20  1  1  0  0  0  0
 21 22  2  0  0  0  0
 22 13  1  0  0  0  0
 22 14  1  0  0  0  0
 23 28  1  0  0  0  0
 26  9  1  0  0  0  0
 27  5  2  0  0  0  0
 28  9  1  0  0  0  0
 28  6  1  0  0  0  0
 30 29  1  0  0  0  0
 30 31  1  0  0  0  0
 32 30  2  0  0  0  0
M  END
>  <MODEL>
7

>  <REMARK>
 VINA RESULT:      -8.2      5.406      9.196
  Name = 
  2 active torsions:
  status: ('A' for Active; 'I' for Inactive)
    1  A    between atoms: C_20  and  C_29
    2  A    between atoms: C_29  and  C_30
                            x       y       z     vdW  Elec       q    Type
                         _______ _______ _______ _____ _____    ______ ____

>  <TORSDO>
F 2

$$$$
=
 OpenBabel11112416293D

 32 37  0  0  1  0  0  0  0  0999 V2000
  186.6170  176.7840  146.1360 C   0  0  0  0  0  2  0  0  0  0  0  0
  191.3920  175.0110  144.0380 C   0  0  1  0  0  3  0  0  0  0  0  0
  190.3130  171.4730  140.7270 C   0  0  0  0  0  3  0  0  0  0  0  0
  191.5960  170.9410  140.8390 C   0  0  0  0  0  3  0  0  0  0  0  0
  193.6860  174.9290  145.1160 C   0  0  0  0  0  0  0  0  0  0  0  0
  194.9200  174.1810  145.3830 C   0  0  0  0  0  0  0  0  0  0  0  0
  189.5900  176.5890  144.8010 C   0  0  1  0  0  3  0  0  0  0  0  0
  189.0910  174.8320  143.0590 C   0  0  0  0  0  2  0  0  0  0  0  0
  196.3560  172.3960  145.2090 N   0  0  0  0  0  0  0  0  0  0  0  0
  187.2690  176.4060  143.6890 C   0  0  0  0  0  2  0  0  0  0  0  0
  189.9080  172.4980  141.5830 C   0  0  0  0  0  3  0  0  0  0  0  0
  190.3030  174.0340  143.5530 C   0  0  1  0  0  3  0  0  0  0  0  0
  190.7890  173.0230  142.5450 C   0  0  0  0  0  0  0  0  0  0  0  0
  193.0190  173.0070  143.6830 C   0  0  0  0  0  0  0  0  0  0  0  0
  196.8780  173.4540  146.1010 C   0  0  0  0  0  2  0  0  0  0  0  0
  188.0000  176.7450  146.8090 C   0  0  0  0  0  2  0  0  0  0  0  0
  188.5100  175.6660  144.1960 C   0  0  2  0  0  3  0  0  0  0  0  0
  195.8890  174.5410  146.1380 N   0  0  0  0  0  0  0  0  0  0  0  0
  189.1060  177.4260  145.9950 C   0  0  0  0  0  2  0  0  0  0  0  0
  186.6240  177.3500  144.7080 C   0  0  1  0  0  3  0  0  0  0  0  0
  192.4710  171.4340  141.8070 C   0  0  0  0  0  3  0  0  0  0  0  0
  192.0780  172.4700  142.6740 C   0  0  0  0  0  0  0  0  0  0  0  0
  194.1720  172.3530  143.9240 C   0  0  0  0  0  3  0  0  0  0  0  0
  190.8000  175.7650  145.2340 C   0  0  0  0  0  2  0  0  0  0  0  0
  193.5800  176.3260  145.6400 C   0  0  0  0  0  1  0  0  0  0  0  0
  197.2270  172.3700  144.0430 C   0  0  0  0  0  1  0  0  0  0  0  0
  192.7180  174.3250  144.3630 C   0  0  0  0  0  0  0  0  0  0  0  0
  195.1270  172.9330  144.8100 N   0  0  0  0  0  0  0  0  0  0  0  0
  185.2110  177.6800  144.2570 C   0  0  0  0  0  2  0  0  0  0  0  0
  184.7740  178.9960  144.8040 C   0  0  0  0  0  0  0  0  0  0  0  0
  185.2730  180.1730  144.2630 O   0  0  0  0  0  0  0  0  0  0  0  0
  183.9310  179.0410  145.7380 O   0  0  0  0  0  1  0  0  0  0  0  0
  1 16  1  0  0  0  0
  2 27  1  0  0  0  0
  2 24  1  1  0  0  0
  3  4  2  0  0  0  0
  3 11  1  0  0  0  0
  4 21  1  0  0  0  0
  5  6  1  0  0  0  0
  5 25  1  0  0  0  0
  6 18  2  0  0  0  0
  7 24  1  1  0  0  0
  7 19  1  0  0  0  0
  9 15  1  0  0  0  0
 10 17  1  0  0  0  0
 10 20  1  0  0  0  0
 11 13  2  0  0  0  0
 12  8  1  6  0  0  0
 12  2  1  0  0  0  0
 13 22  1  0  0  0  0
 13 12  1  0  0  0  0
 14 23  2  0  0  0  0
 14 27  1  0  0  0  0
 15 18  1  0  0  0  0
 17  8  1  6  0  0  0
 17  7  1  0  0  0  0
 19 16  1  0  0  0  0
 20 29  1  6  0  0  0
 20  1  1  0  0  0  0
 21 22  2  0  0  0  0
 22 14  1  0  0  0  0
 23 28  1  0  0  0  0
 26  9  1  0  0  0  0
 27  5  2  0  0  0  0
 28  9  1  0  0  0  0
 28  6  1  0  0  0  0
 29 30  1  0  0  0  0
 30 32  1  0  0  0  0
 31 30  2  0  0  0  0
M  END
>  <MODEL>
8

>  <REMARK>
 VINA RESULT:      -8.2      5.367      9.611
  Name = 
  2 active torsions:
  status: ('A' for Active; 'I' for Inactive)
    1  A    between atoms: C_20  and  C_29
    2  A    between atoms: C_29  and  C_30
                            x       y       z     vdW  Elec       q    Type
                         _______ _______ _______ _____ _____    ______ ____

>  <TORSDO>
F 2

$$$$
=
 OpenBabel11112416293D

 32 37  0  0  1  0  0  0  0  0999 V2000
  186.7900  178.8940  143.2390 C   0  0  0  0  0  2  0  0  0  0  0  0
  189.4620  174.1000  142.7630 C   0  0  1  0  0  3  0  0  0  0  0  0
  193.1350  174.1330  146.1030 C   0  0  0  0  0  3  0  0  0  0  0  0
  193.8350  173.1690  145.3800 C   0  0  0  0  0  3  0  0  0  0  0  0
  189.7670  172.6290  140.7190 C   0  0  0  0  0  0  0  0  0  0  0  0
  190.6560  171.8200  139.8790 C   0  0  0  0  0  0  0  0  0  0  0  0
  187.5630  175.7320  142.9890 C   0  0  1  0  0  3  0  0  0  0  0  0
  189.4030  175.6700  144.7160 C   0  0  0  0  0  2  0  0  0  0  0  0
  192.6420  170.8170  139.3050 N   0  0  0  0  0  0  0  0  0  0  0  0
  187.5190  177.2580  145.0690 C   0  0  0  0  0  2  0  0  0  0  0  0
  191.9750  174.6970  145.5680 C   0  0  0  0  0  3  0  0  0  0  0  0
  190.3140  174.9940  143.6860 C   0  0  1  0  0  3  0  0  0  0  0  0
  191.4870  174.2870  144.3160 C   0  0  0  0  0  0  0  0  0  0  0  0
  191.7110  172.8870  142.2520 C   0  0  0  0  0  0  0  0  0  0  0  0
  191.5840  170.5890  138.2970 C   0  0  0  0  0  2  0  0  0  0  0  0
  186.9610  178.0160  141.9870 C   0  0  0  0  0  2  0  0  0  0  0  0
  188.3760  176.5520  144.0140 C   0  0  2  0  0  3  0  0  0  0  0  0
  190.3650  171.2660  138.7620 N   0  0  0  0  0  0  0  0  0  0  0  0
  186.5410  176.5550  142.1910 C   0  0  0  0  0  2  0  0  0  0  0  0
  186.3870  178.1210  144.5040 C   0  0  1  0  0  3  0  0  0  0  0  0
  193.3770  172.7720  144.1240 C   0  0  0  0  0  3  0  0  0  0  0  0
  192.2080  173.3300  143.5740 C   0  0  0  0  0  0  0  0  0  0  0  0
  192.4990  172.1180  141.4740 C   0  0  0  0  0  3  0  0  0  0  0  0
  188.5060  175.0330  142.0130 C   0  0  0  0  0  2  0  0  0  0  0  0
  188.3220  172.7120  140.3430 C   0  0  0  0  0  1  0  0  0  0  0  0
  192.9200  169.5240  139.9130 C   0  0  0  0  0  1  0  0  0  0  0  0
  190.2980  173.2260  141.8290 C   0  0  0  0  0  0  0  0  0  0  0  0
  191.9750  171.5980  140.2540 N   0  0  0  0  0  0  0  0  0  0  0  0
  185.9020  179.0760  145.5820 C   0  0  0  0  0  2  0  0  0  0  0  0
  184.5150  178.7340  146.0060 C   0  0  0  0  0  0  0  0  0  0  0  0
  184.2630  178.3550  147.3170 O   0  0  0  0  0  1  0  0  0  0  0  0
  183.5660  178.8180  145.1830 O   0  0  0  0  0  0  0  0  0  0  0  0
  1 20  1  0  0  0  0
  2 24  1  6  0  0  0
  2 12  1  0  0  0  0
  4  3  2  0  0  0  0
  5 27  2  0  0  0  0
  6 28  1  0  0  0  0
  6  5  1  0  0  0  0
  7 24  1  6  0  0  0
  7 17  1  0  0  0  0
  9 26  1  0  0  0  0
  9 28  1  0  0  0  0
 11  3  1  0  0  0  0
 12 13  1  0  0  0  0
 12  8  1  1  0  0  0
 13 11  2  0  0  0  0
 14 22  1  0  0  0  0
 15 18  1  0  0  0  0
 15  9  1  0  0  0  0
 16 19  1  0  0  0  0
 16  1  1  0  0  0  0
 17  8  1  1  0  0  0
 17 10  1  0  0  0  0
 18  6  2  0  0  0  0
 19  7  1  0  0  0  0
 20 10  1  0  0  0  0
 20 29  1  1  0  0  0
 21  4  1  0  0  0  0
 22 21  2  0  0  0  0
 22 13  1  0  0  0  0
 23 14  2  0  0  0  0
 25  5  1  0  0  0  0
 27 14  1  0  0  0  0
 27  2  1  0  0  0  0
 28 23  1  0  0  0  0
 29 30  1  0  0  0  0
 30 31  1  0  0  0  0
 32 30  2  0  0  0  0
M  END
>  <MODEL>
9

>  <REMARK>
 VINA RESULT:      -7.8      4.926      8.350
  Name = 
  2 active torsions:
  status: ('A' for Active; 'I' for Inactive)
    1  A    between atoms: C_20  and  C_29
    2  A    between atoms: C_29  and  C_30
                            x       y       z     vdW  Elec       q    Type
                         _______ _______ _______ _____ _____    ______ ____

>  <TORSDO>
F 2

$$$$
