=
 OpenBabel11112416423D

 32 36  0  0  1  0  0  0  0  0999 V2000
  188.8900  176.2220  143.9790 C   0  0  1  0  0  3  0  0  0  0  0  0
  186.3800  177.4860  139.9180 C   0  0  0  0  0  3  0  0  0  0  0  0
  185.3690  178.0160  140.7220 C   0  0  0  0  0  3  0  0  0  0  0  0
  188.3350  177.2580  146.2440 C   0  0  2  0  0  3  0  0  0  0  0  0
  187.0400  177.6120  146.9950 C   0  0  2  0  0  3  0  0  0  0  0  0
  190.7690  174.6170  143.6740 C   0  0  2  0  0  3  0  0  0  0  0  0
  189.7280  175.6480  141.6750 O   0  0  0  0  0  0  0  0  0  0  0  0
  184.8000  178.3990  146.8270 N   0  0  0  0  0  0  0  0  0  0  0  0
  187.5560  177.0070  140.4980 C   0  0  0  0  0  3  0  0  0  0  0  0
  189.0330  176.5890  142.4940 C   0  0  1  0  0  3  0  0  0  0  0  0
  187.7300  177.0450  141.8890 C   0  0  0  0  0  0  0  0  0  0  0  0
  186.8440  177.6160  144.2130 C   0  0  2  0  0  3  0  0  0  0  0  0
  184.7250  176.9430  146.8390 C   0  0  0  0  0  2  0  0  0  0  0  0
  190.0210  174.4240  142.3350 C   0  0  2  0  0  3  0  0  0  0  0  0
  186.1230  176.4120  147.1070 C   0  0  0  0  0  2  0  0  0  0  0  0
  185.5390  178.0790  142.1070 C   0  0  0  0  0  3  0  0  0  0  0  0
  186.7270  177.6280  142.7030 C   0  0  0  0  0  0  0  0  0  0  0  0
  186.3210  178.8880  144.8620 C   0  0  0  0  0  2  0  0  0  0  0  0
  190.2670  175.8260  144.4730 C   0  0  0  0  0  2  0  0  0  0  0  0
  189.3870  178.0260  146.7420 O   0  0  0  0  0  1  0  0  0  0  0  0
  183.7640  178.9160  145.9390 C   0  0  0  0  0  1  0  0  0  0  0  0
  188.2770  177.4080  144.7120 C   0  0  2  0  0  3  0  0  0  0  0  0
  186.1680  178.7250  146.3970 C   0  0  2  0  0  3  0  0  0  0  0  0
  188.1300  173.3500  141.1040 C   0  0  0  0  0  1  0  0  0  0  0  0
  188.7730  173.5420  142.4670 C   0  0  1  0  0  3  0  0  0  0  0  0
  189.1070  172.2940  143.0000 O   0  0  0  0  0  0  0  0  0  0  0  0
  189.6880  171.5930  141.9400 C   0  0  0  0  0  2  0  0  0  0  0  0
  190.7760  170.7110  142.4480 C   0  0  0  0  0  0  0  0  0  0  0  0
  190.9750  169.5870  141.9200 O   0  0  0  0  0  0  0  0  0  0  0  0
  191.5840  171.1400  143.4920 O   0  0  0  0  0  1  0  0  0  0  0  0
  192.7050  176.1830  143.5590 C   0  0  0  0  0  1  0  0  0  0  0  0
  192.2610  174.7410  143.4180 C   0  0  0  0  0  2  0  0  0  0  0  0
  1 19  1  1  0  0  0
  1 22  1  0  0  0  0
  2  9  2  0  0  0  0
  2  3  1  0  0  0  0
  3 16  2  0  0  0  0
  4 20  1  1  0  0  0
  4  5  1  0  0  0  0
  5 15  1  6  0  0  0
  6 32  1  6  0  0  0
  6 19  1  0  0  0  0
  7 14  1  0  0  0  0
  8 13  1  0  0  0  0
  9 11  1  0  0  0  0
 10  7  1  6  0  0  0
 10  1  1  0  0  0  0
 11 10  1  0  0  0  0
 11 17  2  0  0  0  0
 12 22  1  0  0  0  0
 12 18  1  6  0  0  0
 13 15  1  0  0  0  0
 14 25  1  1  0  0  0
 14  6  1  0  0  0  0
 16 17  1  0  0  0  0
 17 12  1  0  0  0  0
 18 23  1  0  0  0  0
 21  8  1  0  0  0  0
 22  4  1  0  0  0  0
 23  8  1  0  0  0  0
 23  5  1  0  0  0  0
 24 25  1  0  0  0  0
 25 26  1  0  0  0  0
 27 28  1  0  0  0  0
 27 26  1  0  0  0  0
 28 30  1  0  0  0  0
 29 28  2  0  0  0  0
 32 31  1  0  0  0  0
M  END
>  <MODEL>
1

>  <REMARK>
 VINA RESULT:      -7.2      0.000      0.000
  Name = 
  5 active torsions:
  status: ('A' for Active; 'I' for Inactive)
    1  A    between atoms: C_7  and  C_19
    2  A    between atoms: C_10  and  C_17
    3  A    between atoms: C_10  and  O_20
    4  A    between atoms: O_20  and  C_29
    5  A    between atoms: C_29  and  C_30
                            x       y       z     vdW  Elec       q    Type
                         _______ _______ _______ _____ _____    ______ ____

>  <TORSDO>
F 5

$$$$
=
 OpenBabel11112416423D

 32 36  0  0  1  0  0  0  0  0999 V2000
  188.7380  176.0610  142.7040 C   0  0  1  0  0  3  0  0  0  0  0  0
  193.0390  177.1230  144.8870 C   0  0  0  0  0  3  0  0  0  0  0  0
  193.5450  175.8940  144.4590 C   0  0  0  0  0  3  0  0  0  0  0  0
  188.5760  174.2220  140.9430 C   0  0  2  0  0  3  0  0  0  0  0  0
  189.1550  172.8050  140.7870 C   0  0  2  0  0  3  0  0  0  0  0  0
  186.7880  177.4760  143.3350 C   0  0  2  0  0  3  0  0  0  0  0  0
  189.0620  178.1800  144.0270 O   0  0  0  0  0  0  0  0  0  0  0  0
  191.0160  171.3690  141.1630 N   0  0  0  0  0  0  0  0  0  0  0  0
  191.7700  177.5360  144.4800 C   0  0  0  0  0  3  0  0  0  0  0  0
  189.6510  177.2110  143.1580 C   0  0  1  0  0  3  0  0  0  0  0  0
  190.9900  176.7210  143.6460 C   0  0  0  0  0  0  0  0  0  0  0  0
  190.6810  174.5540  142.3340 C   0  0  2  0  0  3  0  0  0  0  0  0
  190.1040  171.1620  142.2810 C   0  0  0  0  0  2  0  0  0  0  0  0
  187.7640  177.8230  144.4830 C   0  0  2  0  0  3  0  0  0  0  0  0
  188.8340  171.9440  141.9900 C   0  0  0  0  0  2  0  0  0  0  0  0
  192.7880  175.0830  143.6120 C   0  0  0  0  0  3  0  0  0  0  0  0
  191.5220  175.4970  143.1700 C   0  0  0  0  0  0  0  0  0  0  0  0
  191.4750  173.8590  141.2380 C   0  0  0  0  0  2  0  0  0  0  0  0
  187.4530  176.6870  142.2000 C   0  0  0  0  0  2  0  0  0  0  0  0
  188.2300  174.7240  139.6890 O   0  0  0  0  0  1  0  0  0  0  0  0
  192.3880  171.2720  141.6500 C   0  0  0  0  0  1  0  0  0  0  0  0
  189.4840  175.2350  141.6640 C   0  0  2  0  0  3  0  0  0  0  0  0
  190.6750  172.6880  140.6090 C   0  0  2  0  0  3  0  0  0  0  0  0
  188.7340  177.1910  146.6980 C   0  0  0  0  0  1  0  0  0  0  0  0
  187.8270  176.7380  145.5670 C   0  0  1  0  0  3  0  0  0  0  0  0
  186.5500  176.4760  146.0730 O   0  0  0  0  0  0  0  0  0  0  0  0
  186.4880  177.1860  147.2760 C   0  0  0  0  0  2  0  0  0  0  0  0
  185.4240  178.2250  147.1990 C   0  0  0  0  0  0  0  0  0  0  0  0
  185.6570  179.3980  147.5880 O   0  0  0  0  0  1  0  0  0  0  0  0
  184.1780  177.9030  146.6780 O   0  0  0  0  0  0  0  0  0  0  0  0
  185.6510  179.6130  143.9290 C   0  0  0  0  0  1  0  0  0  0  0  0
  186.1570  178.7460  142.7920 C   0  0  0  0  0  2  0  0  0  0  0  0
  1 19  1  6  0  0  0
  1 10  1  0  0  0  0
  3  2  2  0  0  0  0
  4 20  1  6  0  0  0
  4 22  1  0  0  0  0
  5  4  1  0  0  0  0
  5 15  1  1  0  0  0
  6 32  1  6  0  0  0
  6 14  1  0  0  0  0
  7 14  1  0  0  0  0
  8 21  1  0  0  0  0
  8 13  1  0  0  0  0
  9  2  1  0  0  0  0
 10 11  1  1  0  0  0
 10  7  1  0  0  0  0
 11  9  2  0  0  0  0
 12 18  1  6  0  0  0
 12 17  1  0  0  0  0
 14 25  1  1  0  0  0
 15 13  1  0  0  0  0
 16  3  1  0  0  0  0
 17 16  2  0  0  0  0
 17 11  1  0  0  0  0
 19  6  1  0  0  0  0
 22 12  1  0  0  0  0
 22  1  1  0  0  0  0
 23  5  1  0  0  0  0
 23  8  1  0  0  0  0
 23 18  1  0  0  0  0
 25 26  1  0  0  0  0
 25 24  1  0  0  0  0
 26 27  1  0  0  0  0
 28 27  1  0  0  0  0
 28 29  1  0  0  0  0
 30 28  2  0  0  0  0
 32 31  1  0  0  0  0
M  END
>  <MODEL>
2

>  <REMARK>
 VINA RESULT:      -7.2      2.923      7.502
  Name = 
  5 active torsions:
  status: ('A' for Active; 'I' for Inactive)
    1  A    between atoms: C_7  and  C_19
    2  A    between atoms: C_10  and  C_17
    3  A    between atoms: C_10  and  O_20
    4  A    between atoms: O_20  and  C_29
    5  A    between atoms: C_29  and  C_30
                            x       y       z     vdW  Elec       q    Type
                         _______ _______ _______ _____ _____    ______ ____

>  <TORSDO>
F 5

$$$$
=
 OpenBabel11112416423D

 32 36  0  0  1  0  0  0  0  0999 V2000
  190.3770  175.8720  145.0300 C   0  0  1  0  0  3  0  0  0  0  0  0
  190.1300  171.4960  142.7540 C   0  0  0  0  0  3  0  0  0  0  0  0
  191.5140  171.3650  142.8820 C   0  0  0  0  0  3  0  0  0  0  0  0
  192.4310  176.5320  146.3910 C   0  0  2  0  0  3  0  0  0  0  0  0
  193.9520  176.3940  146.2100 C   0  0  2  0  0  3  0  0  0  0  0  0
  188.3660  177.3320  144.8610 C   0  0  2  0  0  3  0  0  0  0  0  0
  188.2020  174.9660  144.1390 O   0  0  0  0  0  0  0  0  0  0  0  0
  195.7390  175.0470  145.3990 N   0  0  0  0  0  0  0  0  0  0  0  0
  189.4730  172.5780  143.3410 C   0  0  0  0  0  3  0  0  0  0  0  0
  189.4630  174.6710  144.7420 C   0  0  1  0  0  3  0  0  0  0  0  0
  190.1940  173.5460  144.0550 C   0  0  0  0  0  0  0  0  0  0  0  0
  192.4160  174.4530  144.9250 C   0  0  2  0  0  3  0  0  0  0  0  0
  195.4320  176.0020  144.3420 C   0  0  0  0  0  2  0  0  0  0  0  0
  188.0690  176.3210  143.7290 C   0  0  2  0  0  3  0  0  0  0  0  0
  194.4050  176.9790  144.8890 C   0  0  0  0  0  2  0  0  0  0  0  0
  192.2410  172.3100  143.6090 C   0  0  0  0  0  3  0  0  0  0  0  0
  191.5920  173.3890  144.2290 C   0  0  0  0  0  0  0  0  0  0  0  0
  193.5270  173.8760  145.7890 C   0  0  0  0  0  2  0  0  0  0  0  0
  189.5370  176.9050  145.7550 C   0  0  0  0  0  2  0  0  0  0  0  0
  192.1360  176.6890  147.7460 O   0  0  0  0  0  1  0  0  0  0  0  0
  196.1140  173.7750  144.7890 C   0  0  0  0  0  1  0  0  0  0  0  0
  191.5850  175.3810  145.8160 C   0  0  2  0  0  3  0  0  0  0  0  0
  194.5310  174.9720  146.2340 C   0  0  2  0  0  3  0  0  0  0  0  0
  188.5960  175.5140  141.4240 C   0  0  0  0  0  1  0  0  0  0  0  0
  188.8650  176.6030  142.4480 C   0  0  1  0  0  3  0  0  0  0  0  0
  188.5070  177.8430  141.9110 O   0  0  0  0  0  0  0  0  0  0  0  0
  187.4710  177.5610  141.0150 C   0  0  0  0  0  2  0  0  0  0  0  0
  186.2510  178.3270  141.3920 C   0  0  0  0  0  0  0  0  0  0  0  0
  185.2430  178.3200  140.6380 O   0  0  0  0  0  0  0  0  0  0  0  0
  186.2170  179.0340  142.5860 O   0  0  0  0  0  1  0  0  0  0  0  0
  187.1650  176.6930  146.9500 C   0  0  0  0  0  1  0  0  0  0  0  0
  187.1180  177.5480  145.6990 C   0  0  0  0  0  2  0  0  0  0  0  0
  1 19  1  1  0  0  0
  1 22  1  0  0  0  0
  2  3  2  0  0  0  0
  2  9  1  0  0  0  0
  3 16  1  0  0  0  0
  4 20  1  1  0  0  0
  5 15  1  6  0  0  0
  5 23  1  0  0  0  0
  5  4  1  0  0  0  0
  6 32  1  1  0  0  0
  6 19  1  0  0  0  0
  7 10  1  0  0  0  0
  8 23  1  0  0  0  0
  9 11  2  0  0  0  0
 10 11  1  6  0  0  0
 10  1  1  0  0  0  0
 11 17  1  0  0  0  0
 12 18  1  1  0  0  0
 12 22  1  0  0  0  0
 13 15  1  0  0  0  0
 13  8  1  0  0  0  0
 14 25  1  6  0  0  0
 14  7  1  0  0  0  0
 14  6  1  0  0  0  0
 16 17  2  0  0  0  0
 17 12  1  0  0  0  0
 18 23  1  0  0  0  0
 21  8  1  0  0  0  0
 22  4  1  0  0  0  0
 24 25  1  0  0  0  0
 26 25  1  0  0  0  0
 27 28  1  0  0  0  0
 27 26  1  0  0  0  0
 28 30  1  0  0  0  0
 29 28  2  0  0  0  0
 32 31  1  0  0  0  0
M  END
>  <MODEL>
3

>  <REMARK>
 VINA RESULT:      -7.2      3.119      7.138
  Name = 
  5 active torsions:
  status: ('A' for Active; 'I' for Inactive)
    1  A    between atoms: C_7  and  C_19
    2  A    between atoms: C_10  and  C_17
    3  A    between atoms: C_10  and  O_20
    4  A    between atoms: O_20  and  C_29
    5  A    between atoms: C_29  and  C_30
                            x       y       z     vdW  Elec       q    Type
                         _______ _______ _______ _____ _____    ______ ____

>  <TORSDO>
F 5

$$$$
=
 OpenBabel11112416423D

 32 36  0  0  1  0  0  0  0  0999 V2000
  189.7790  174.7720  143.7110 C   0  0  1  0  0  3  0  0  0  0  0  0
  186.9700  178.3480  141.7840 C   0  0  0  0  0  3  0  0  0  0  0  0
  186.9520  177.6610  140.5680 C   0  0  0  0  0  3  0  0  0  0  0  0
  189.9560  172.4880  142.5870 C   0  0  2  0  0  3  0  0  0  0  0  0
  190.0900  171.9930  141.1370 C   0  0  2  0  0  3  0  0  0  0  0  0
  190.9110  175.2850  145.8690 C   0  0  2  0  0  3  0  0  0  0  0  0
  189.1530  176.8210  145.0360 O   0  0  0  0  0  0  0  0  0  0  0  0
  189.4880  172.3330  138.8600 N   0  0  0  0  0  0  0  0  0  0  0  0
  187.5730  177.7710  142.9030 C   0  0  0  0  0  3  0  0  0  0  0  0
  188.7550  175.8670  144.0500 C   0  0  1  0  0  3  0  0  0  0  0  0
  188.1710  176.5060  142.8160 C   0  0  0  0  0  0  0  0  0  0  0  0
  188.8120  174.4520  141.4430 C   0  0  2  0  0  3  0  0  0  0  0  0
  190.7840  172.9740  139.0420 C   0  0  0  0  0  2  0  0  0  0  0  0
  190.5180  176.7110  145.4190 C   0  0  2  0  0  3  0  0  0  0  0  0
  191.2710  172.6370  140.4420 C   0  0  0  0  0  2  0  0  0  0  0  0
  187.5250  176.3910  140.4740 C   0  0  0  0  0  3  0  0  0  0  0  0
  188.1090  175.7860  141.5970 C   0  0  0  0  0  0  0  0  0  0  0  0
  188.0290  173.4610  140.5960 C   0  0  0  0  0  2  0  0  0  0  0  0
  190.2530  174.1860  145.0260 C   0  0  0  0  0  2  0  0  0  0  0  0
  189.4290  171.4690  143.3810 O   0  0  0  0  0  1  0  0  0  0  0  0
  188.6980  173.1260  137.9240 C   0  0  0  0  0  1  0  0  0  0  0  0
  189.1180  173.7660  142.7780 C   0  0  2  0  0  3  0  0  0  0  0  0
  188.8970  172.2360  140.2030 C   0  0  2  0  0  3  0  0  0  0  0  0
  191.0020  178.6770  143.9550 C   0  0  0  0  0  1  0  0  0  0  0  0
  191.4520  177.2790  144.3420 C   0  0  1  0  0  3  0  0  0  0  0  0
  192.7680  177.3290  144.8110 O   0  0  0  0  0  0  0  0  0  0  0  0
  193.4800  176.4590  143.9800 C   0  0  0  0  0  2  0  0  0  0  0  0
  194.8480  176.2410  144.5240 C   0  0  0  0  0  0  0  0  0  0  0  0
  195.0050  175.6320  145.6150 O   0  0  0  0  0  1  0  0  0  0  0  0
  195.9550  176.6910  143.8170 O   0  0  0  0  0  0  0  0  0  0  0  0
  189.1510  174.5850  147.4890 C   0  0  0  0  0  1  0  0  0  0  0  0
  190.5700  175.0960  147.3370 C   0  0  0  0  0  2  0  0  0  0  0  0
  1 10  1  0  0  0  0
  1 19  1  1  0  0  0
  2  9  1  0  0  0  0
  3  2  2  0  0  0  0
  4 22  1  0  0  0  0
  4 20  1  1  0  0  0
  5 15  1  6  0  0  0
  5  4  1  0  0  0  0
  6 32  1  1  0  0  0
  7 14  1  0  0  0  0
  8 13  1  0  0  0  0
  8 23  1  0  0  0  0
 10 11  1  6  0  0  0
 10  7  1  0  0  0  0
 11  9  2  0  0  0  0
 12 18  1  6  0  0  0
 12 17  1  0  0  0  0
 12 22  1  0  0  0  0
 13 15  1  0  0  0  0
 14 25  1  6  0  0  0
 14  6  1  0  0  0  0
 16  3  1  0  0  0  0
 16 17  2  0  0  0  0
 17 11  1  0  0  0  0
 19  6  1  0  0  0  0
 21  8  1  0  0  0  0
 22  1  1  0  0  0  0
 23 18  1  0  0  0  0
 23  5  1  0  0  0  0
 24 25  1  0  0  0  0
 25 26  1  0  0  0  0
 27 28  1  0  0  0  0
 27 26  1  0  0  0  0
 28 29  1  0  0  0  0
 30 28  2  0  0  0  0
 32 31  1  0  0  0  0
M  END
>  <MODEL>
4

>  <REMARK>
 VINA RESULT:      -6.8      3.112      6.206
  Name = 
  5 active torsions:
  status: ('A' for Active; 'I' for Inactive)
    1  A    between atoms: C_7  and  C_19
    2  A    between atoms: C_10  and  C_17
    3  A    between atoms: C_10  and  O_20
    4  A    between atoms: O_20  and  C_29
    5  A    between atoms: C_29  and  C_30
                            x       y       z     vdW  Elec       q    Type
                         _______ _______ _______ _____ _____    ______ ____

>  <TORSDO>
F 5

$$$$
=
 OpenBabel11112416423D

 32 36  0  0  1  0  0  0  0  0999 V2000
  190.4320  174.8980  143.5090 C   0  0  1  0  0  3  0  0  0  0  0  0
  191.1490  176.7900  148.0140 C   0  0  0  0  0  3  0  0  0  0  0  0
  190.0200  177.5930  147.8430 C   0  0  0  0  0  3  0  0  0  0  0  0
  188.1840  175.1350  142.3260 C   0  0  2  0  0  3  0  0  0  0  0  0
  187.1510  176.2630  142.1600 C   0  0  2  0  0  3  0  0  0  0  0  0
  192.3300  173.6260  142.5190 C   0  0  2  0  0  3  0  0  0  0  0  0
  192.4140  174.2420  144.9180 O   0  0  0  0  0  0  0  0  0  0  0  0
  186.0700  178.1290  143.1680 N   0  0  0  0  0  0  0  0  0  0  0  0
  191.4850  175.8420  147.0470 C   0  0  0  0  0  3  0  0  0  0  0  0
  191.0350  174.6160  144.8940 C   0  0  1  0  0  3  0  0  0  0  0  0
  190.7000  175.6920  145.8950 C   0  0  0  0  0  0  0  0  0  0  0  0
  188.6960  176.3930  144.4770 C   0  0  2  0  0  3  0  0  0  0  0  0
  187.1780  178.6670  142.3880 C   0  0  0  0  0  2  0  0  0  0  0  0
  193.0620  174.3700  143.6590 C   0  0  2  0  0  3  0  0  0  0  0  0
  187.7900  177.5180  141.6040 C   0  0  0  0  0  2  0  0  0  0  0  0
  189.2180  177.4390  146.7110 C   0  0  0  0  0  3  0  0  0  0  0  0
  189.5250  176.4700  145.7430 C   0  0  0  0  0  0  0  0  0  0  0  0
  187.2010  176.4930  144.7370 C   0  0  0  0  0  2  0  0  0  0  0  0
  190.8030  173.7300  142.6170 C   0  0  0  0  0  2  0  0  0  0  0  0
  187.5640  173.9020  142.1230 O   0  0  0  0  0  1  0  0  0  0  0  0
  185.9170  178.9270  144.3800 C   0  0  0  0  0  1  0  0  0  0  0  0
  188.9320  175.1120  143.6720 C   0  0  2  0  0  3  0  0  0  0  0  0
  186.4080  176.7200  143.4230 C   0  0  2  0  0  3  0  0  0  0  0  0
  193.9430  176.5360  144.5400 C   0  0  0  0  0  1  0  0  0  0  0  0
  193.3580  175.8380  143.3250 C   0  0  1  0  0  3  0  0  0  0  0  0
  194.2620  175.9260  142.2610 O   0  0  0  0  0  0  0  0  0  0  0  0
  195.4740  175.4630  142.7800 C   0  0  0  0  0  2  0  0  0  0  0  0
  196.5970  176.3010  142.2750 C   0  0  0  0  0  0  0  0  0  0  0  0
  197.3590  176.8910  143.0850 O   0  0  0  0  0  1  0  0  0  0  0  0
  196.8160  176.4160  140.9090 O   0  0  0  0  0  0  0  0  0  0  0  0
  191.6470  171.2840  143.0340 C   0  0  0  0  0  1  0  0  0  0  0  0
  192.7560  172.1680  142.4970 C   0  0  0  0  0  2  0  0  0  0  0  0
  1 19  1  6  0  0  0
  1 22  1  0  0  0  0
  1 10  1  0  0  0  0
  3  2  1  0  0  0  0
  4 20  1  1  0  0  0
  4 22  1  0  0  0  0
  5 15  1  1  0  0  0
  5  4  1  0  0  0  0
  5 23  1  0  0  0  0
  6 32  1  1  0  0  0
  6 19  1  0  0  0  0
  6 14  1  0  0  0  0
  8 23  1  0  0  0  0
  8 21  1  0  0  0  0
  9  2  2  0  0  0  0
 10  7  1  6  0  0  0
 10 11  1  0  0  0  0
 11  9  1  0  0  0  0
 12 18  1  1  0  0  0
 12 17  1  0  0  0  0
 13  8  1  0  0  0  0
 14 25  1  6  0  0  0
 14  7  1  0  0  0  0
 15 13  1  0  0  0  0
 16  3  2  0  0  0  0
 17 11  2  0  0  0  0
 17 16  1  0  0  0  0
 22 12  1  0  0  0  0
 23 18  1  0  0  0  0
 25 24  1  0  0  0  0
 26 27  1  0  0  0  0
 26 25  1  0  0  0  0
 28 27  1  0  0  0  0
 28 29  1  0  0  0  0
 30 28  2  0  0  0  0
 32 31  1  0  0  0  0
M  END
>  <MODEL>
5

>  <REMARK>
 VINA RESULT:      -6.7      2.798      5.573
  Name = 
  5 active torsions:
  status: ('A' for Active; 'I' for Inactive)
    1  A    between atoms: C_7  and  C_19
    2  A    between atoms: C_10  and  C_17
    3  A    between atoms: C_10  and  O_20
    4  A    between atoms: O_20  and  C_29
    5  A    between atoms: C_29  and  C_30
                            x       y       z     vdW  Elec       q    Type
                         _______ _______ _______ _____ _____    ______ ____

>  <TORSDO>
F 5

$$$$
=
 OpenBabel11112416423D

 32 36  0  0  1  0  0  0  0  0999 V2000
  193.4190  173.6120  144.7380 C   0  0  1  0  0  3  0  0  0  0  0  0
  190.4310  176.6470  147.2380 C   0  0  0  0  0  3  0  0  0  0  0  0
  189.3880  176.3150  146.3710 C   0  0  0  0  0  3  0  0  0  0  0  0
  192.4750  171.8300  143.1760 C   0  0  2  0  0  3  0  0  0  0  0  0
  191.3380  171.7760  142.1400 C   0  0  2  0  0  3  0  0  0  0  0  0
  195.8610  173.8500  145.1660 C   0  0  2  0  0  3  0  0  0  0  0  0
  194.2570  175.0030  146.6630 O   0  0  0  0  0  0  0  0  0  0  0  0
  189.1490  172.5060  141.5570 N   0  0  0  0  0  0  0  0  0  0  0  0
  191.6590  175.9930  147.1360 C   0  0  0  0  0  3  0  0  0  0  0  0
  193.1700  174.2600  146.1090 C   0  0  1  0  0  3  0  0  0  0  0  0
  191.8620  175.0060  146.1610 C   0  0  0  0  0  0  0  0  0  0  0  0
  190.9920  173.6280  144.1970 C   0  0  2  0  0  3  0  0  0  0  0  0
  190.0750  173.4100  140.8880 C   0  0  0  0  0  2  0  0  0  0  0  0
  195.3450  175.1780  145.7660 C   0  0  2  0  0  3  0  0  0  0  0  0
  191.4810  172.8750  141.1090 C   0  0  0  0  0  2  0  0  0  0  0  0
  189.5690  175.3190  145.4100 C   0  0  0  0  0  3  0  0  0  0  0  0
  190.7890  174.6320  145.3130 C   0  0  0  0  0  0  0  0  0  0  0  0
  189.7960  172.7090  143.9980 C   0  0  0  0  0  2  0  0  0  0  0  0
  194.7340  172.8640  144.8330 C   0  0  0  0  0  2  0  0  0  0  0  0
  192.7660  170.5380  143.6140 O   0  0  0  0  0  1  0  0  0  0  0  0
  187.9750  173.2630  141.9790 C   0  0  0  0  0  1  0  0  0  0  0  0
  192.2210  172.7360  144.3950 C   0  0  2  0  0  3  0  0  0  0  0  0
  189.9040  171.9120  142.6710 C   0  0  2  0  0  3  0  0  0  0  0  0
  194.6030  177.5310  145.3680 C   0  0  0  0  0  1  0  0  0  0  0  0
  195.0310  176.2360  144.6990 C   0  0  1  0  0  3  0  0  0  0  0  0
  196.1530  176.4760  143.9000 O   0  0  0  0  0  0  0  0  0  0  0  0
  195.6950  176.3360  142.5870 C   0  0  0  0  0  2  0  0  0  0  0  0
  196.8060  175.8790  141.7060 C   0  0  0  0  0  0  0  0  0  0  0  0
  197.8530  175.3980  142.2110 O   0  0  0  0  0  1  0  0  0  0  0  0
  196.6770  175.9660  140.3270 O   0  0  0  0  0  0  0  0  0  0  0  0
  196.8430  171.6990  145.9570 C   0  0  0  0  0  1  0  0  0  0  0  0
  196.8560  173.2070  146.1160 C   0  0  0  0  0  2  0  0  0  0  0  0
  1 19  1  1  0  0  0
  1 10  1  0  0  0  0
  3  2  2  0  0  0  0
  4 20  1  1  0  0  0
  4 22  1  0  0  0  0
  5 15  1  6  0  0  0
  5 23  1  0  0  0  0
  5  4  1  0  0  0  0
  6 14  1  0  0  0  0
  6 32  1  1  0  0  0
  8 21  1  0  0  0  0
  8 23  1  0  0  0  0
  9  2  1  0  0  0  0
 10 11  1  6  0  0  0
 10  7  1  0  0  0  0
 11  9  2  0  0  0  0
 12 18  1  1  0  0  0
 12 22  1  0  0  0  0
 12 17  1  0  0  0  0
 13 15  1  0  0  0  0
 13  8  1  0  0  0  0
 14 25  1  6  0  0  0
 14  7  1  0  0  0  0
 16  3  1  0  0  0  0
 17 16  2  0  0  0  0
 17 11  1  0  0  0  0
 19  6  1  0  0  0  0
 22  1  1  0  0  0  0
 23 18  1  0  0  0  0
 25 24  1  0  0  0  0
 26 25  1  0  0  0  0
 27 26  1  0  0  0  0
 28 29  1  0  0  0  0
 28 27  1  0  0  0  0
 30 28  2  0  0  0  0
 31 32  1  0  0  0  0
M  END
>  <MODEL>
6

>  <REMARK>
 VINA RESULT:      -6.6      3.922      7.368
  Name = 
  5 active torsions:
  status: ('A' for Active; 'I' for Inactive)
    1  A    between atoms: C_7  and  C_19
    2  A    between atoms: C_10  and  C_17
    3  A    between atoms: C_10  and  O_20
    4  A    between atoms: O_20  and  C_29
    5  A    between atoms: C_29  and  C_30
                            x       y       z     vdW  Elec       q    Type
                         _______ _______ _______ _____ _____    ______ ____

>  <TORSDO>
F 5

$$$$
=
 OpenBabel11112416423D

 32 36  0  0  1  0  0  0  0  0999 V2000
  190.5540  175.8340  145.7040 C   0  0  1  0  0  3  0  0  0  0  0  0
  190.1700  171.4770  143.4110 C   0  0  0  0  0  3  0  0  0  0  0  0
  191.5590  171.4330  143.2880 C   0  0  0  0  0  3  0  0  0  0  0  0
  192.7750  176.6080  146.6930 C   0  0  2  0  0  3  0  0  0  0  0  0
  194.2450  176.5690  146.2410 C   0  0  2  0  0  3  0  0  0  0  0  0
  188.4610  177.1640  145.9290 C   0  0  2  0  0  3  0  0  0  0  0  0
  188.3140  174.8020  145.1950 O   0  0  0  0  0  0  0  0  0  0  0  0
  195.9360  175.3480  145.0940 N   0  0  0  0  0  0  0  0  0  0  0  0
  189.5640  172.5090  144.1300 C   0  0  0  0  0  3  0  0  0  0  0  0
  189.6780  174.5800  145.5570 C   0  0  1  0  0  3  0  0  0  0  0  0
  190.3410  173.5120  144.7260 C   0  0  0  0  0  0  0  0  0  0  0  0
  192.6240  174.5490  145.2070 C   0  0  2  0  0  3  0  0  0  0  0  0
  195.3870  176.2930  144.1310 C   0  0  0  0  0  2  0  0  0  0  0  0
  188.0280  176.1490  144.8460 C   0  0  2  0  0  3  0  0  0  0  0  0
  194.4170  177.1970  144.8740 C   0  0  0  0  0  2  0  0  0  0  0  0
  192.3460  172.4140  143.8950 C   0  0  0  0  0  3  0  0  0  0  0  0
  191.7540  173.4420  144.6450 C   0  0  0  0  0  0  0  0  0  0  0  0
  193.9040  174.0340  145.8450 C   0  0  0  0  0  2  0  0  0  0  0  0
  189.7970  176.8030  146.5900 C   0  0  0  0  0  2  0  0  0  0  0  0
  192.7180  176.7300  148.0810 O   0  0  0  0  0  1  0  0  0  0  0  0
  196.2720  174.1090  144.3990 C   0  0  0  0  0  1  0  0  0  0  0  0
  191.9110  175.4120  146.2520 C   0  0  2  0  0  3  0  0  0  0  0  0
  194.9040  175.1870  146.1290 C   0  0  2  0  0  3  0  0  0  0  0  0
  187.6610  175.8930  142.3880 C   0  0  0  0  0  1  0  0  0  0  0  0
  188.5630  176.4960  143.4500 C   0  0  1  0  0  3  0  0  0  0  0  0
  188.6200  177.8820  143.2770 O   0  0  0  0  0  0  0  0  0  0  0  0
  189.6330  178.0850  142.3350 C   0  0  0  0  0  2  0  0  0  0  0  0
  190.9660  177.9490  142.9840 C   0  0  0  0  0  0  0  0  0  0  0  0
  191.3280  178.7750  143.8620 O   0  0  0  0  0  1  0  0  0  0  0  0
  191.8040  176.8990  142.6340 O   0  0  0  0  0  0  0  0  0  0  0  0
  186.0040  177.1240  146.3500 C   0  0  0  0  0  1  0  0  0  0  0  0
  187.3720  177.2920  146.9810 C   0  0  0  0  0  2  0  0  0  0  0  0
  1 22  1  0  0  0  0
  1 19  1  1  0  0  0
  2  9  1  0  0  0  0
  3  2  2  0  0  0  0
  3 16  1  0  0  0  0
  4 20  1  1  0  0  0
  5 15  1  6  0  0  0
  5  4  1  0  0  0  0
  6 19  1  0  0  0  0
  6 32  1  1  0  0  0
  7 10  1  0  0  0  0
  8 23  1  0  0  0  0
  9 11  2  0  0  0  0
 10 11  1  6  0  0  0
 10  1  1  0  0  0  0
 12 18  1  1  0  0  0
 12 22  1  0  0  0  0
 13 15  1  0  0  0  0
 13  8  1  0  0  0  0
 14 25  1  6  0  0  0
 14  7  1  0  0  0  0
 14  6  1  0  0  0  0
 16 17  2  0  0  0  0
 17 11  1  0  0  0  0
 17 12  1  0  0  0  0
 18 23  1  0  0  0  0
 21  8  1  0  0  0  0
 22  4  1  0  0  0  0
 23  5  1  0  0  0  0
 24 25  1  0  0  0  0
 26 25  1  0  0  0  0
 27 28  1  0  0  0  0
 27 26  1  0  0  0  0
 28 29  1  0  0  0  0
 30 28  2  0  0  0  0
 31 32  1  0  0  0  0
M  END
>  <MODEL>
7

>  <REMARK>
 VINA RESULT:      -6.6      3.286      7.104
  Name = 
  5 active torsions:
  status: ('A' for Active; 'I' for Inactive)
    1  A    between atoms: C_7  and  C_19
    2  A    between atoms: C_10  and  C_17
    3  A    between atoms: C_10  and  O_20
    4  A    between atoms: O_20  and  C_29
    5  A    between atoms: C_29  and  C_30
                            x       y       z     vdW  Elec       q    Type
                         _______ _______ _______ _____ _____    ______ ____

>  <TORSDO>
F 5

$$$$
=
 OpenBabel11112416423D

 32 36  0  0  1  0  0  0  0  0999 V2000
  190.2150  175.5930  143.0590 C   0  0  1  0  0  3  0  0  0  0  0  0
  194.2710  176.8290  145.5900 C   0  0  0  0  0  3  0  0  0  0  0  0
  194.8050  175.5660  145.3270 C   0  0  0  0  0  3  0  0  0  0  0  0
  190.2190  173.6070  141.4560 C   0  0  2  0  0  3  0  0  0  0  0  0
  190.7940  172.1810  141.4870 C   0  0  2  0  0  3  0  0  0  0  0  0
  188.2260  177.0620  143.3530 C   0  0  2  0  0  3  0  0  0  0  0  0
  190.4210  177.8180  144.2200 O   0  0  0  0  0  0  0  0  0  0  0  0
  192.5860  170.7780  142.1820 N   0  0  0  0  0  0  0  0  0  0  0  0
  193.0580  177.2080  145.0150 C   0  0  0  0  0  3  0  0  0  0  0  0
  191.0880  176.7750  143.5070 C   0  0  1  0  0  3  0  0  0  0  0  0
  192.3610  176.3260  144.1770 C   0  0  0  0  0  0  0  0  0  0  0  0
  192.1680  174.0530  143.0310 C   0  0  2  0  0  3  0  0  0  0  0  0
  191.5590  170.6720  143.2100 C   0  0  0  0  0  2  0  0  0  0  0  0
  189.0780  177.5060  144.5640 C   0  0  2  0  0  3  0  0  0  0  0  0
  190.3360  171.4280  142.7180 C   0  0  0  0  0  2  0  0  0  0  0  0
  194.1330  174.6860  144.4770 C   0  0  0  0  0  3  0  0  0  0  0  0
  192.9260  175.0630  143.8670 C   0  0  0  0  0  0  0  0  0  0  0  0
  193.0650  173.2640  142.0910 C   0  0  0  0  0  2  0  0  0  0  0  0
  188.9980  176.1760  142.3680 C   0  0  0  0  0  2  0  0  0  0  0  0
  190.0150  173.9990  140.1330 O   0  0  0  0  0  1  0  0  0  0  0  0
  193.8980  170.7190  142.8200 C   0  0  0  0  0  1  0  0  0  0  0  0
  191.0580  174.6770  142.1800 C   0  0  2  0  0  3  0  0  0  0  0  0
  192.3230  172.0440  141.4820 C   0  0  2  0  0  3  0  0  0  0  0  0
  189.7660  177.0840  146.9290 C   0  0  0  0  0  1  0  0  0  0  0  0
  189.0120  176.5190  145.7380 C   0  0  1  0  0  3  0  0  0  0  0  0
  187.6840  176.2780  146.1030 O   0  0  0  0  0  0  0  0  0  0  0  0
  187.3210  177.3770  146.8870 C   0  0  0  0  0  2  0  0  0  0  0  0
  185.8680  177.6610  146.7230 C   0  0  0  0  0  0  0  0  0  0  0  0
  185.1070  176.7920  146.2240 O   0  0  0  0  0  0  0  0  0  0  0  0
  185.3490  178.8790  147.1410 O   0  0  0  0  0  1  0  0  0  0  0  0
  186.3330  178.6790  143.2280 C   0  0  0  0  0  1  0  0  0  0  0  0
  187.6720  178.2820  142.6380 C   0  0  0  0  0  2  0  0  0  0  0  0
  1 19  1  6  0  0  0
  1 10  1  0  0  0  0
  3  2  1  0  0  0  0
  4 20  1  6  0  0  0
  4  5  1  0  0  0  0
  4 22  1  0  0  0  0
  5 15  1  1  0  0  0
  6 32  1  6  0  0  0
  6 14  1  0  0  0  0
  7 14  1  0  0  0  0
  8 21  1  0  0  0  0
  8 13  1  0  0  0  0
  9  2  2  0  0  0  0
 10 11  1  1  0  0  0
 10  7  1  0  0  0  0
 11  9  1  0  0  0  0
 12 18  1  6  0  0  0
 12 17  1  0  0  0  0
 14 25  1  1  0  0  0
 15 13  1  0  0  0  0
 16  3  2  0  0  0  0
 17 11  2  0  0  0  0
 17 16  1  0  0  0  0
 19  6  1  0  0  0  0
 22 12  1  0  0  0  0
 22  1  1  0  0  0  0
 23  5  1  0  0  0  0
 23 18  1  0  0  0  0
 23  8  1  0  0  0  0
 25 26  1  0  0  0  0
 25 24  1  0  0  0  0
 26 27  1  0  0  0  0
 28 27  1  0  0  0  0
 28 30  1  0  0  0  0
 29 28  2  0  0  0  0
 32 31  1  0  0  0  0
M  END
>  <MODEL>
8

>  <REMARK>
 VINA RESULT:      -6.5      2.929      7.788
  Name = 
  5 active torsions:
  status: ('A' for Active; 'I' for Inactive)
    1  A    between atoms: C_7  and  C_19
    2  A    between atoms: C_10  and  C_17
    3  A    between atoms: C_10  and  O_20
    4  A    between atoms: O_20  and  C_29
    5  A    between atoms: C_29  and  C_30
                            x       y       z     vdW  Elec       q    Type
                         _______ _______ _______ _____ _____    ______ ____

>  <TORSDO>
F 5

$$$$
=
 OpenBabel11112416423D

 32 36  0  0  1  0  0  0  0  0999 V2000
  191.3520  175.7200  145.2050 C   0  0  1  0  0  3  0  0  0  0  0  0
  190.6160  171.1140  143.5820 C   0  0  0  0  0  3  0  0  0  0  0  0
  191.9890  170.9850  143.3630 C   0  0  0  0  0  3  0  0  0  0  0  0
  193.6730  176.5120  145.9080 C   0  0  2  0  0  3  0  0  0  0  0  0
  195.0990  176.3380  145.3570 C   0  0  2  0  0  3  0  0  0  0  0  0
  189.3360  177.1700  145.3950 C   0  0  2  0  0  3  0  0  0  0  0  0
  189.0400  174.7390  145.0130 O   0  0  0  0  0  0  0  0  0  0  0  0
  196.6450  174.8890  144.2720 N   0  0  0  0  0  0  0  0  0  0  0  0
  190.1110  172.2630  144.1920 C   0  0  0  0  0  3  0  0  0  0  0  0
  190.4190  174.5030  145.3010 C   0  0  1  0  0  3  0  0  0  0  0  0
  190.9710  173.2990  144.5810 C   0  0  0  0  0  0  0  0  0  0  0  0
  193.3240  174.2780  144.7410 C   0  0  2  0  0  3  0  0  0  0  0  0
  196.0570  175.7190  143.2280 C   0  0  0  0  0  2  0  0  0  0  0  0
  188.7790  176.0390  144.5010 C   0  0  2  0  0  3  0  0  0  0  0  0
  195.1860  176.7630  143.9070 C   0  0  0  0  0  2  0  0  0  0  0  0
  192.8590  172.0000  143.7660 C   0  0  0  0  0  3  0  0  0  0  0  0
  192.3700  173.1490  144.4060 C   0  0  0  0  0  0  0  0  0  0  0  0
  194.6310  173.7930  145.3490 C   0  0  0  0  0  2  0  0  0  0  0  0
  190.7060  176.8380  145.9990 C   0  0  0  0  0  2  0  0  0  0  0  0
  193.7330  176.8260  147.2650 O   0  0  0  0  0  1  0  0  0  0  0  0
  196.8750  173.5520  143.7350 C   0  0  0  0  0  1  0  0  0  0  0  0
  192.7310  175.3100  145.7040 C   0  0  2  0  0  3  0  0  0  0  0  0
  195.6930  174.9230  145.3930 C   0  0  2  0  0  3  0  0  0  0  0  0
  188.6060  175.0360  142.2180 C   0  0  0  0  0  1  0  0  0  0  0  0
  189.2130  176.1640  143.0340 C   0  0  1  0  0  3  0  0  0  0  0  0
  188.8040  177.3910  142.5040 O   0  0  0  0  0  0  0  0  0  0  0  0
  187.6970  177.0870  141.7070 C   0  0  0  0  0  2  0  0  0  0  0  0
  186.4640  177.6710  142.3040 C   0  0  0  0  0  0  0  0  0  0  0  0
  185.5660  176.9180  142.7620 O   0  0  0  0  0  1  0  0  0  0  0  0
  186.3140  179.0500  142.3740 O   0  0  0  0  0  0  0  0  0  0  0  0
  186.9370  177.1180  146.0680 C   0  0  0  0  0  1  0  0  0  0  0  0
  188.3420  177.4940  146.4960 C   0  0  0  0  0  2  0  0  0  0  0  0
  1 10  1  0  0  0  0
  1 22  1  0  0  0  0
  1 19  1  1  0  0  0
  2  9  1  0  0  0  0
  3  2  2  0  0  0  0
  3 16  1  0  0  0  0
  4 20  1  1  0  0  0
  5 15  1  6  0  0  0
  5 23  1  0  0  0  0
  5  4  1  0  0  0  0
  6 19  1  0  0  0  0
  6 32  1  1  0  0  0
  7 10  1  0  0  0  0
  8 23  1  0  0  0  0
  9 11  2  0  0  0  0
 10 11  1  6  0  0  0
 12 18  1  1  0  0  0
 12 22  1  0  0  0  0
 13 15  1  0  0  0  0
 13  8  1  0  0  0  0
 14 25  1  6  0  0  0
 14  7  1  0  0  0  0
 14  6  1  0  0  0  0
 16 17  2  0  0  0  0
 17 11  1  0  0  0  0
 17 12  1  0  0  0  0
 18 23  1  0  0  0  0
 21  8  1  0  0  0  0
 22  4  1  0  0  0  0
 24 25  1  0  0  0  0
 26 25  1  0  0  0  0
 27 28  1  0  0  0  0
 27 26  1  0  0  0  0
 28 30  2  0  0  0  0
 28 29  1  0  0  0  0
 31 32  1  0  0  0  0
M  END
>  <MODEL>
9

>  <REMARK>
 VINA RESULT:      -6.4      3.376      7.582
  Name = 
  5 active torsions:
  status: ('A' for Active; 'I' for Inactive)
    1  A    between atoms: C_7  and  C_19
    2  A    between atoms: C_10  and  C_17
    3  A    between atoms: C_10  and  O_20
    4  A    between atoms: O_20  and  C_29
    5  A    between atoms: C_29  and  C_30
                            x       y       z     vdW  Elec       q    Type
                         _______ _______ _______ _____ _____    ______ ____

>  <TORSDO>
F 5

$$$$
