=
 OpenBabel11112416143D

 30 35  0  0  1  0  0  0  0  0999 V2000
  187.0250  177.3060  143.9710 C   0  0  1  0  0  3  0  0  0  0  0  0
  185.1320  178.2500  145.4510 C   0  0  0  0  0  0  0  0  0  0  0  0
  189.5230  177.1680  147.4530 C   0  0  0  0  0  2  0  0  0  0  0  0
  188.2580  176.3920  144.1210 C   0  0  1  0  0  3  0  0  0  0  0  0
  186.0240  176.5750  143.0860 C   0  0  0  0  0  2  0  0  0  0  0  0
  188.4100  175.4890  140.5600 O   0  0  0  0  0  0  0  0  0  0  0  0
  191.3260  176.4060  143.1200 C   0  0  1  0  0  3  0  0  0  0  0  0
  187.9760  175.9760  141.6380 C   0  0  0  0  0  0  0  0  0  0  0  0
  191.5940  176.4560  144.5740 N   0  0  2  0  0  0  0  0  0  0  0  0
  190.6250  176.3850  146.8500 C   0  0  0  0  0  0  0  0  0  0  0  0
  186.5680  176.5010  141.6650 C   0  0  2  0  0  3  0  0  0  0  0  0
  188.8390  176.0700  142.7940 N   0  0  0  0  0  0  0  0  0  0  0  0
  184.6990  178.6760  146.6660 N   0  0  0  0  0  2  0  0  0  0  0  0
  192.6410  175.4640  144.7920 C   0  0  0  0  0  2  0  0  0  0  0  0
  192.6150  175.9850  142.4430 C   0  0  0  0  0  2  0  0  0  0  0  0
  184.3500  178.3140  144.4670 O   0  0  0  0  0  0  0  0  0  0  0  0
  188.6600  177.4310  146.3180 N   0  0  0  0  0  0  0  0  0  0  0  0
  185.5160  178.6720  147.7480 C   0  0  0  0  0  3  0  0  0  0  0  0
  186.4460  177.7550  145.3070 C   0  0  0  0  0  0  0  0  0  0  0  0
  189.2680  177.0660  145.0440 C   0  0  1  0  0  3  0  0  0  0  0  0
  191.5550  175.9350  147.4990 O   0  0  0  0  0  0  0  0  0  0  0  0
  190.4200  176.1270  145.3890 C   0  0  1  0  0  3  0  0  0  0  0  0
  193.4970  175.4410  143.5450 C   0  0  0  0  0  2  0  0  0  0  0  0
  190.2230  174.0460  143.2090 C   0  0  0  0  0  1  0  0  0  0  0  0
  186.8010  178.2560  147.6250 N   0  0  0  0  0  0  0  0  0  0  0  0
  187.2890  177.8230  146.4330 C   0  0  0  0  0  0  0  0  0  0  0  0
  190.1750  175.4700  142.6630 C   0  0  2  0  0  3  0  0  0  0  0  0
  186.5230  177.7640  141.0700 O   0  0  0  0  0  0  0  0  0  0  0  0
  184.2980  178.4260  140.5590 C   0  0  0  0  0  1  0  0  0  0  0  0
  185.5260  177.6700  140.0980 C   0  0  0  0  0  2  0  0  0  0  0  0
  1  5  1  1  0  0  0
  1  4  1  0  0  0  0
  1 19  1  0  0  0  0
  2 13  1  0  0  0  0
  4 12  1  6  0  0  0
  4 20  1  0  0  0  0
  6  8  2  0  0  0  0
  7 15  1  6  0  0  0
  7  9  1  0  0  0  0
  8 11  1  0  0  0  0
  8 12  1  0  0  0  0
  9 14  1  6  0  0  0
  9 22  1  0  0  0  0
 10  3  1  0  0  0  0
 10 21  2  0  0  0  0
 11 28  1  1  0  0  0
 11  5  1  0  0  0  0
 13 18  1  0  0  0  0
 15 23  1  0  0  0  0
 16  2  2  0  0  0  0
 17 26  1  0  0  0  0
 17  3  1  0  0  0  0
 19  2  1  0  0  0  0
 19 26  2  0  0  0  0
 20 22  1  0  0  0  0
 20 17  1  1  0  0  0
 22 10  1  1  0  0  0
 23 14  1  0  0  0  0
 25 18  2  0  0  0  0
 26 25  1  0  0  0  0
 27 12  1  0  0  0  0
 27  7  1  0  0  0  0
 27 24  1  1  0  0  0
 30 29  1  0  0  0  0
 30 28  1  0  0  0  0
M  END
>  <MODEL>
1

>  <REMARK>
 VINA RESULT:      -8.1      0.000      0.000
  Name = 
  2 active torsions:
  status: ('A' for Active; 'I' for Inactive)
    1  A    between atoms: C_11  and  O_28
    2  A    between atoms: O_28  and  C_30
                            x       y       z     vdW  Elec       q    Type
                         _______ _______ _______ _____ _____    ______ ____

>  <TORSDO>
F 2

$$$$
=
 OpenBabel11112416143D

 30 35  0  0  1  0  0  0  0  0999 V2000
  187.6280  176.8970  143.8080 C   0  0  1  0  0  3  0  0  0  0  0  0
  185.3930  177.8240  144.7090 C   0  0  0  0  0  0  0  0  0  0  0  0
  189.3190  177.5070  147.7010 C   0  0  0  0  0  2  0  0  0  0  0  0
  188.8660  176.1510  144.3440 C   0  0  1  0  0  3  0  0  0  0  0  0
  186.9010  175.9480  142.8650 C   0  0  0  0  0  2  0  0  0  0  0  0
  189.8520  174.7910  141.0740 O   0  0  0  0  0  0  0  0  0  0  0  0
  192.0680  176.3590  143.9950 C   0  0  1  0  0  3  0  0  0  0  0  0
  189.1590  175.3710  141.9530 C   0  0  0  0  0  0  0  0  0  0  0  0
  192.0100  176.6360  145.4470 N   0  0  2  0  0  0  0  0  0  0  0  0
  190.5810  176.7730  147.4630 C   0  0  0  0  0  0  0  0  0  0  0  0
  187.7430  175.7400  141.6120 C   0  0  2  0  0  3  0  0  0  0  0  0
  189.7430  175.7150  143.2300 N   0  0  0  0  0  0  0  0  0  0  0  0
  184.6770  178.3620  145.7290 N   0  0  0  0  0  2  0  0  0  0  0  0
  193.0590  175.8030  146.0240 C   0  0  0  0  0  2  0  0  0  0  0  0
  193.5010  175.9920  143.6670 C   0  0  0  0  0  2  0  0  0  0  0  0
  184.8390  177.6680  143.5890 O   0  0  0  0  0  0  0  0  0  0  0  0
  188.7040  177.5180  146.3880 N   0  0  0  0  0  0  0  0  0  0  0  0
  185.2390  178.5950  146.9410 C   0  0  0  0  0  3  0  0  0  0  0  0
  186.7410  177.4590  144.9130 C   0  0  0  0  0  0  0  0  0  0  0  0
  189.5990  177.0500  145.3360 C   0  0  1  0  0  3  0  0  0  0  0  0
  191.3810  176.5190  148.3490 O   0  0  0  0  0  0  0  0  0  0  0  0
  190.7170  176.2970  146.0490 C   0  0  1  0  0  3  0  0  0  0  0  0
  194.1630  175.7030  144.9950 C   0  0  0  0  0  2  0  0  0  0  0  0
  191.1570  173.9280  144.2270 C   0  0  0  0  0  1  0  0  0  0  0  0
  186.5480  178.3080  147.1470 N   0  0  0  0  0  0  0  0  0  0  0  0
  187.3130  177.7710  146.1600 C   0  0  0  0  0  0  0  0  0  0  0  0
  191.1180  175.2510  143.4670 C   0  0  2  0  0  3  0  0  0  0  0  0
  187.7300  176.8980  140.8300 O   0  0  0  0  0  0  0  0  0  0  0  0
  185.7050  177.9550  140.1760 C   0  0  0  0  0  1  0  0  0  0  0  0
  186.6180  176.7600  140.0000 C   0  0  0  0  0  2  0  0  0  0  0  0
  1  5  1  1  0  0  0
  1  4  1  0  0  0  0
  1 19  1  0  0  0  0
  2 19  1  0  0  0  0
  2 13  1  0  0  0  0
  4 12  1  6  0  0  0
  4 20  1  0  0  0  0
  6  8  2  0  0  0  0
  7 15  1  1  0  0  0
  7  9  1  0  0  0  0
  8 12  1  0  0  0  0
  9 14  1  1  0  0  0
  9 22  1  0  0  0  0
 10  3  1  0  0  0  0
 10 21  2  0  0  0  0
 11 28  1  1  0  0  0
 11  8  1  0  0  0  0
 11  5  1  0  0  0  0
 12 27  1  0  0  0  0
 13 18  1  0  0  0  0
 15 23  1  0  0  0  0
 16  2  2  0  0  0  0
 17  3  1  0  0  0  0
 18 25  2  0  0  0  0
 19 26  2  0  0  0  0
 20 22  1  0  0  0  0
 20 17  1  1  0  0  0
 22 10  1  1  0  0  0
 23 14  1  0  0  0  0
 26 17  1  0  0  0  0
 26 25  1  0  0  0  0
 27  7  1  0  0  0  0
 27 24  1  1  0  0  0
 30 29  1  0  0  0  0
 30 28  1  0  0  0  0
M  END
>  <MODEL>
2

>  <REMARK>
 VINA RESULT:      -7.7      0.999      1.102
  Name = 
  2 active torsions:
  status: ('A' for Active; 'I' for Inactive)
    1  A    between atoms: C_11  and  O_28
    2  A    between atoms: O_28  and  C_30
                            x       y       z     vdW  Elec       q    Type
                         _______ _______ _______ _____ _____    ______ ____

>  <TORSDO>
F 2

$$$$
=
 OpenBabel11112416143D

 30 35  0  0  1  0  0  0  0  0999 V2000
  187.4260  176.8150  143.9790 C   0  0  1  0  0  3  0  0  0  0  0  0
  185.7780  178.4240  142.8120 C   0  0  0  0  0  0  0  0  0  0  0  0
  188.1910  175.0150  140.1630 C   0  0  0  0  0  2  0  0  0  0  0  0
  188.7010  176.0210  143.6320 C   0  0  1  0  0  3  0  0  0  0  0  0
  187.8170  177.8830  144.9890 C   0  0  0  0  0  2  0  0  0  0  0  0
  189.8430  175.7320  147.1150 O   0  0  0  0  0  0  0  0  0  0  0  0
  189.8340  173.0470  144.1670 C   0  0  1  0  0  3  0  0  0  0  0  0
  189.1620  176.1020  146.1220 C   0  0  0  0  0  0  0  0  0  0  0  0
  189.7820  172.9740  142.6910 N   0  0  2  0  0  0  0  0  0  0  0  0
  189.3510  174.1970  140.5820 C   0  0  0  0  0  0  0  0  0  0  0  0
  188.1750  177.2190  146.3130 C   0  0  2  0  0  3  0  0  0  0  0  0
  189.2970  175.4230  144.8520 N   0  0  0  0  0  0  0  0  0  0  0  0
  185.1440  178.8330  141.6830 N   0  0  0  0  0  0  0  0  0  0  0  0
  191.0600  172.3890  142.3030 C   0  0  0  0  0  2  0  0  0  0  0  0
  190.7270  171.9160  144.6380 C   0  0  0  0  0  2  0  0  0  0  0  0
  185.5100  178.9930  143.9020 O   0  0  0  0  0  0  0  0  0  0  0  0
  187.7210  175.5690  141.4170 N   0  0  0  0  0  0  0  0  0  0  0  0
  185.3600  178.2220  140.4910 C   0  0  0  0  0  3  0  0  0  0  0  0
  186.7110  177.3660  142.7510 C   0  0  2  0  0  3  0  0  0  0  0  0
  188.3630  174.9680  142.5810 C   0  0  1  0  0  3  0  0  0  0  0  0
  190.0530  173.5840  139.7950 O   0  0  0  0  0  0  0  0  0  0  0  0
  189.6200  174.2850  142.0530 C   0  0  1  0  0  3  0  0  0  0  0  0
  191.4680  171.4410  143.4080 C   0  0  0  0  0  2  0  0  0  0  0  0
  191.6450  174.9210  144.2020 C   0  0  0  0  0  1  0  0  0  0  0  0
  186.2080  177.1660  140.4150 N   0  0  0  0  0  0  0  0  0  0  0  0
  186.8660  176.7120  141.5140 C   0  0  0  0  0  0  0  0  0  0  0  0
  190.3360  174.3850  144.7730 C   0  0  2  0  0  3  0  0  0  0  0  0
  187.0210  176.7310  146.9300 O   0  0  0  0  0  0  0  0  0  0  0  0
  184.8150  177.6160  146.8900 C   0  0  0  0  0  1  0  0  0  0  0  0
  186.2690  177.8650  147.2360 C   0  0  0  0  0  2  0  0  0  0  0  0
  1  5  1  1  0  0  0
  2 16  2  0  0  0  0
  3 10  1  0  0  0  0
  3 17  1  0  0  0  0
  4  1  1  0  0  0  0
  4 12  1  1  0  0  0
  5 11  1  0  0  0  0
  7 15  1  6  0  0  0
  7 27  1  0  0  0  0
  8 11  1  0  0  0  0
  8  6  2  0  0  0  0
  9 14  1  6  0  0  0
  9  7  1  0  0  0  0
 11 28  1  6  0  0  0
 12  8  1  0  0  0  0
 13  2  1  0  0  0  0
 14 23  1  0  0  0  0
 17 26  1  0  0  0  0
 18 13  2  0  0  0  0
 19 26  1  1  0  0  0
 19  2  1  0  0  0  0
 19  1  1  0  0  0  0
 20 17  1  6  0  0  0
 20  4  1  0  0  0  0
 21 10  2  0  0  0  0
 22 10  1  6  0  0  0
 22 20  1  0  0  0  0
 22  9  1  0  0  0  0
 23 15  1  0  0  0  0
 25 18  1  0  0  0  0
 25 26  2  0  0  0  0
 27 24  1  6  0  0  0
 27 12  1  0  0  0  0
 28 30  1  0  0  0  0
 29 30  1  0  0  0  0
M  END
>  <MODEL>
3

>  <REMARK>
 VINA RESULT:      -7.6      2.139      4.969
  Name = 
  2 active torsions:
  status: ('A' for Active; 'I' for Inactive)
    1  A    between atoms: C_11  and  O_28
    2  A    between atoms: O_28  and  C_30
                            x       y       z     vdW  Elec       q    Type
                         _______ _______ _______ _____ _____    ______ ____

>  <TORSDO>
F 2

$$$$
=
 OpenBabel11112416143D

 30 35  0  0  1  0  0  0  0  0999 V2000
  190.3170  174.8540  143.8770 C   0  0  1  0  0  3  0  0  0  0  0  0
  192.7690  174.0440  143.8580 C   0  0  0  0  0  0  0  0  0  0  0  0
  191.1320  176.8720  147.5710 C   0  0  0  0  0  2  0  0  0  0  0  0
  189.5020  176.0470  144.4130 C   0  0  1  0  0  3  0  0  0  0  0  0
  190.2880  174.9320  142.3570 C   0  0  0  0  0  2  0  0  0  0  0  0
  186.7280  175.6240  142.0380 O   0  0  0  0  0  0  0  0  0  0  0  0
  186.6870  176.4750  145.9320 C   0  0  1  0  0  3  0  0  0  0  0  0
  187.8520  175.4590  142.5840 C   0  0  0  0  0  0  0  0  0  0  0  0
  187.5650  177.0200  146.9900 N   0  0  2  0  0  0  0  0  0  0  0  0
  189.8720  177.6450  147.6320 C   0  0  0  0  0  0  0  0  0  0  0  0
  188.8790  174.6320  141.8630 C   0  0  2  0  0  3  0  0  0  0  0  0
  188.1130  176.0130  143.8940 N   0  0  0  0  0  0  0  0  0  0  0  0
  193.9850  173.9830  144.4580 N   0  0  0  0  0  2  0  0  0  0  0  0
  186.9190  178.2590  147.4060 C   0  0  0  0  0  2  0  0  0  0  0  0
  185.2780  176.9460  146.2360 C   0  0  0  0  0  2  0  0  0  0  0  0
  192.5920  173.4310  142.7720 O   0  0  0  0  0  0  0  0  0  0  0  0
  190.9200  176.0060  146.4280 N   0  0  0  0  0  0  0  0  0  0  0  0
  194.2140  174.5860  145.6510 C   0  0  0  0  0  3  0  0  0  0  0  0
  191.7230  174.7780  144.4590 C   0  0  0  0  0  0  0  0  0  0  0  0
  189.5470  176.0360  145.9390 C   0  0  1  0  0  3  0  0  0  0  0  0
  189.6690  178.5230  148.4560 O   0  0  0  0  0  0  0  0  0  0  0  0
  188.9270  177.3000  146.5230 C   0  0  1  0  0  3  0  0  0  0  0  0
  185.4280  178.0560  147.2510 C   0  0  0  0  0  2  0  0  0  0  0  0
  187.2840  178.3370  144.2090 C   0  0  0  0  0  1  0  0  0  0  0  0
  193.2110  175.2490  146.2790 N   0  0  0  0  0  0  0  0  0  0  0  0
  191.9730  175.3380  145.7250 C   0  0  0  0  0  0  0  0  0  0  0  0
  187.0530  176.8520  144.4720 C   0  0  2  0  0  3  0  0  0  0  0  0
  188.5940  173.2740  142.0290 O   0  0  0  0  0  0  0  0  0  0  0  0
  188.2500  172.7730  139.7310 C   0  0  0  0  0  1  0  0  0  0  0  0
  189.1730  172.6470  140.9260 C   0  0  0  0  0  2  0  0  0  0  0  0
  1  5  1  6  0  0  0
  1  4  1  0  0  0  0
  1 19  1  0  0  0  0
  2 13  1  0  0  0  0
  2 19  1  0  0  0  0
  3 10  1  0  0  0  0
  4 12  1  1  0  0  0
  4 20  1  0  0  0  0
  6  8  2  0  0  0  0
  7 15  1  1  0  0  0
  7  9  1  0  0  0  0
  8 12  1  0  0  0  0
  9 14  1  6  0  0  0
 10 21  2  0  0  0  0
 11 28  1  1  0  0  0
 11  5  1  0  0  0  0
 11  8  1  0  0  0  0
 12 27  1  0  0  0  0
 13 18  1  0  0  0  0
 15 23  1  0  0  0  0
 16  2  2  0  0  0  0
 17  3  1  0  0  0  0
 18 25  2  0  0  0  0
 19 26  2  0  0  0  0
 20 17  1  6  0  0  0
 20 22  1  0  0  0  0
 22  9  1  0  0  0  0
 22 10  1  1  0  0  0
 23 14  1  0  0  0  0
 26 25  1  0  0  0  0
 26 17  1  0  0  0  0
 27 24  1  1  0  0  0
 27  7  1  0  0  0  0
 29 30  1  0  0  0  0
 30 28  1  0  0  0  0
M  END
>  <MODEL>
4

>  <REMARK>
 VINA RESULT:      -7.4      2.126      5.769
  Name = 
  2 active torsions:
  status: ('A' for Active; 'I' for Inactive)
    1  A    between atoms: C_11  and  O_28
    2  A    between atoms: O_28  and  C_30
                            x       y       z     vdW  Elec       q    Type
                         _______ _______ _______ _____ _____    ______ ____

>  <TORSDO>
F 2

$$$$
=
 OpenBabel11112416143D

 30 35  0  0  1  0  0  0  0  0999 V2000
  188.7510  175.4050  141.5820 C   0  0  1  0  0  3  0  0  0  0  0  0
  187.0270  176.5070  140.0090 C   0  0  0  0  0  0  0  0  0  0  0  0
  187.3600  177.9740  144.7200 C   0  0  0  0  0  2  0  0  0  0  0  0
  188.9130  175.1060  143.0860 C   0  0  1  0  0  3  0  0  0  0  0  0
  188.6100  174.0680  140.8680 C   0  0  0  0  0  2  0  0  0  0  0  0
  191.3240  172.3720  142.6030 O   0  0  0  0  0  0  0  0  0  0  0  0
  191.2670  175.3240  145.2830 C   0  0  1  0  0  3  0  0  0  0  0  0
  190.4780  173.2650  142.3270 C   0  0  0  0  0  0  0  0  0  0  0  0
  190.3260  176.2790  145.9080 N   0  0  2  0  0  0  0  0  0  0  0  0
  188.0740  177.3030  145.8290 C   0  0  0  0  0  0  0  0  0  0  0  0
  189.9370  173.3220  140.9260 C   0  0  2  0  0  3  0  0  0  0  0  0
  190.0890  174.2340  143.3270 N   0  0  0  0  0  0  0  0  0  0  0  0
  186.0540  177.4320  139.8040 N   0  0  0  0  0  2  0  0  0  0  0  0
  190.3090  175.9130  147.3190 C   0  0  0  0  0  2  0  0  0  0  0  0
  192.2790  174.9370  146.3430 C   0  0  0  0  0  2  0  0  0  0  0  0
  187.3910  175.7810  139.0470 O   0  0  0  0  0  0  0  0  0  0  0  0
  187.8750  177.2920  143.5490 N   0  0  0  0  0  0  0  0  0  0  0  0
  185.6580  178.2710  140.7930 C   0  0  0  0  0  3  0  0  0  0  0  0
  187.6200  176.3810  141.2830 C   0  0  0  0  0  0  0  0  0  0  0  0
  189.0080  176.4240  143.8490 C   0  0  1  0  0  3  0  0  0  0  0  0
  187.8860  177.5750  147.0030 O   0  0  0  0  0  0  0  0  0  0  0  0
  188.9700  176.1990  145.3560 C   0  0  1  0  0  3  0  0  0  0  0  0
  191.6870  175.3890  147.6590 C   0  0  0  0  0  2  0  0  0  0  0  0
  189.6860  173.2730  145.5850 C   0  0  0  0  0  1  0  0  0  0  0  0
  186.2520  178.2110  142.0110 N   0  0  0  0  0  0  0  0  0  0  0  0
  187.2330  177.3070  142.2700 C   0  0  0  0  0  0  0  0  0  0  0  0
  190.6410  174.0400  144.6750 C   0  0  2  0  0  3  0  0  0  0  0  0
  190.8670  173.9360  140.0840 O   0  0  0  0  0  0  0  0  0  0  0  0
  190.9390  171.8900  138.8760 C   0  0  0  0  0  1  0  0  0  0  0  0
  190.6420  173.3750  138.8270 C   0  0  0  0  0  2  0  0  0  0  0  0
  1  5  1  6  0  0  0
  1  4  1  0  0  0  0
  2 19  1  0  0  0  0
  3 10  1  0  0  0  0
  4 12  1  6  0  0  0
  4 20  1  0  0  0  0
  5 11  1  0  0  0  0
  7  9  1  0  0  0  0
  7 15  1  1  0  0  0
  8  6  2  0  0  0  0
  8 12  1  0  0  0  0
  9 14  1  1  0  0  0
 10 21  2  0  0  0  0
 11 28  1  6  0  0  0
 11  8  1  0  0  0  0
 12 27  1  0  0  0  0
 13  2  1  0  0  0  0
 13 18  1  0  0  0  0
 14 23  1  0  0  0  0
 15 23  1  0  0  0  0
 16  2  2  0  0  0  0
 17  3  1  0  0  0  0
 18 25  2  0  0  0  0
 19  1  1  0  0  0  0
 19 26  2  0  0  0  0
 20 17  1  6  0  0  0
 20 22  1  0  0  0  0
 22 10  1  1  0  0  0
 22  9  1  0  0  0  0
 25 26  1  0  0  0  0
 26 17  1  0  0  0  0
 27  7  1  0  0  0  0
 27 24  1  1  0  0  0
 30 29  1  0  0  0  0
 30 28  1  0  0  0  0
M  END
>  <MODEL>
5

>  <REMARK>
 VINA RESULT:      -7.2      2.429      4.609
  Name = 
  2 active torsions:
  status: ('A' for Active; 'I' for Inactive)
    1  A    between atoms: C_11  and  O_28
    2  A    between atoms: O_28  and  C_30
                            x       y       z     vdW  Elec       q    Type
                         _______ _______ _______ _____ _____    ______ ____

>  <TORSDO>
F 2

$$$$
=
 OpenBabel11112416143D

 30 35  0  0  1  0  0  0  0  0999 V2000
  188.4150  175.9100  143.4820 C   0  0  1  0  0  3  0  0  0  0  0  0
  186.0490  176.8700  143.8660 C   0  0  0  0  0  0  0  0  0  0  0  0
  189.5680  177.5410  147.2760 C   0  0  0  0  0  2  0  0  0  0  0  0
  189.6020  175.4000  144.3230 C   0  0  1  0  0  3  0  0  0  0  0  0
  187.8530  174.7180  142.7210 C   0  0  0  0  0  2  0  0  0  0  0  0
  191.0510  173.3730  141.6190 O   0  0  0  0  0  0  0  0  0  0  0  0
  192.8120  175.7370  144.3040 C   0  0  1  0  0  3  0  0  0  0  0  0
  190.2290  174.0960  142.2430 C   0  0  0  0  0  0  0  0  0  0  0  0
  192.5580  176.3460  145.6280 N   0  0  2  0  0  0  0  0  0  0  0  0
  190.8780  176.8590  147.3710 C   0  0  0  0  0  0  0  0  0  0  0  0
  188.8550  174.2760  141.6630 C   0  0  2  0  0  3  0  0  0  0  0  0
  190.6310  174.7730  143.4570 N   0  0  0  0  0  0  0  0  0  0  0  0
  185.1880  177.5850  144.6340 N   0  0  0  0  0  2  0  0  0  0  0  0
  193.5550  175.7470  146.5070 C   0  0  0  0  0  2  0  0  0  0  0  0
  194.2890  175.4010  144.2430 C   0  0  0  0  0  2  0  0  0  0  0  0
  185.6500  176.4150  142.7620 O   0  0  0  0  0  0  0  0  0  0  0  0
  189.1270  177.1980  145.9380 N   0  0  0  0  0  0  0  0  0  0  0  0
  185.5810  178.1360  145.8090 C   0  0  0  0  0  3  0  0  0  0  0  0
  187.3740  176.6570  144.3060 C   0  0  0  0  0  0  0  0  0  0  0  0
  190.1660  176.5560  145.1430 C   0  0  1  0  0  3  0  0  0  0  0  0
  191.5670  176.8780  148.3780 O   0  0  0  0  0  0  0  0  0  0  0  0
  191.2120  176.0720  146.1420 C   0  0  1  0  0  3  0  0  0  0  0  0
  194.7860  175.4820  145.6690 C   0  0  0  0  0  2  0  0  0  0  0  0
  191.9730  173.3740  145.0150 C   0  0  0  0  0  1  0  0  0  0  0  0
  186.8630  177.9960  146.2280 N   0  0  0  0  0  0  0  0  0  0  0  0
  187.7680  177.2940  145.4970 C   0  0  0  0  0  0  0  0  0  0  0  0
  191.9800  174.4730  143.9560 C   0  0  2  0  0  3  0  0  0  0  0  0
  188.8980  175.2110  140.6250 O   0  0  0  0  0  0  0  0  0  0  0  0
  189.1300  173.7630  138.7550 C   0  0  0  0  0  1  0  0  0  0  0  0
  188.1910  174.6210  139.5780 C   0  0  0  0  0  2  0  0  0  0  0  0
  1  5  1  1  0  0  0
  1 19  1  0  0  0  0
  1  4  1  0  0  0  0
  2 19  1  0  0  0  0
  2 13  1  0  0  0  0
  3 10  1  0  0  0  0
  4 12  1  6  0  0  0
  4 20  1  0  0  0  0
  6  8  2  0  0  0  0
  7 15  1  1  0  0  0
  7  9  1  0  0  0  0
  8 12  1  0  0  0  0
  9 22  1  0  0  0  0
  9 14  1  1  0  0  0
 10 21  2  0  0  0  0
 11 28  1  6  0  0  0
 11  8  1  0  0  0  0
 11  5  1  0  0  0  0
 12 27  1  0  0  0  0
 13 18  1  0  0  0  0
 15 23  1  0  0  0  0
 16  2  2  0  0  0  0
 17  3  1  0  0  0  0
 18 25  2  0  0  0  0
 19 26  2  0  0  0  0
 20 17  1  1  0  0  0
 20 22  1  0  0  0  0
 22 10  1  1  0  0  0
 23 14  1  0  0  0  0
 26 17  1  0  0  0  0
 26 25  1  0  0  0  0
 27  7  1  0  0  0  0
 27 24  1  1  0  0  0
 29 30  1  0  0  0  0
 30 28  1  0  0  0  0
M  END
>  <MODEL>
6

>  <REMARK>
 VINA RESULT:      -7.2      1.765      2.570
  Name = 
  2 active torsions:
  status: ('A' for Active; 'I' for Inactive)
    1  A    between atoms: C_11  and  O_28
    2  A    between atoms: O_28  and  C_30
                            x       y       z     vdW  Elec       q    Type
                         _______ _______ _______ _____ _____    ______ ____

>  <TORSDO>
F 2

$$$$
=
 OpenBabel11112416143D

 30 35  0  0  1  0  0  0  0  0999 V2000
  189.5150  176.1910  144.6780 C   0  0  1  0  0  3  0  0  0  0  0  0
  191.0090  176.7640  146.7040 C   0  0  0  0  0  0  0  0  0  0  0  0
  192.6090  173.5720  143.2820 C   0  0  0  0  0  2  0  0  0  0  0  0
  189.2850  175.0120  143.7130 C   0  0  1  0  0  3  0  0  0  0  0  0
  188.2520  176.3460  145.5140 C   0  0  0  0  0  2  0  0  0  0  0  0
  185.8860  176.0430  142.7640 O   0  0  0  0  0  0  0  0  0  0  0  0
  188.8720  174.6220  140.5360 C   0  0  1  0  0  3  0  0  0  0  0  0
  186.9850  176.0190  143.3810 C   0  0  0  0  0  0  0  0  0  0  0  0
  190.1230  173.8440  140.6680 N   0  0  2  0  0  0  0  0  0  0  0  0
  191.8190  172.9180  142.2140 C   0  0  0  0  0  0  0  0  0  0  0  0
  187.1190  176.8470  144.6280 C   0  0  2  0  0  3  0  0  0  0  0  0
  188.0950  175.2520  142.8610 N   0  0  0  0  0  0  0  0  0  0  0  0
  192.1850  176.6210  147.3680 N   0  0  0  0  0  0  0  0  0  0  0  0
  189.8810  172.6220  139.9110 C   0  0  0  0  0  2  0  0  0  0  0  0
  188.2490  174.2420  139.2070 C   0  0  0  0  0  2  0  0  0  0  0  0
  190.1390  177.5480  147.1660 O   0  0  0  0  0  0  0  0  0  0  0  0
  191.7170  174.6170  143.7440 N   0  0  0  0  0  0  0  0  0  0  0  0
  193.1740  175.8260  146.8880 C   0  0  0  0  0  3  0  0  0  0  0  0
  190.7840  176.0480  145.5090 C   0  0  2  0  0  3  0  0  0  0  0  0
  190.5490  174.7880  142.8880 C   0  0  1  0  0  3  0  0  0  0  0  0
  192.2190  171.9490  141.5900 O   0  0  0  0  0  0  0  0  0  0  0  0
  190.4540  173.5130  142.0580 C   0  0  1  0  0  3  0  0  0  0  0  0
  188.9600  172.9820  138.7670 C   0  0  0  0  0  2  0  0  0  0  0  0
  187.4780  172.9940  142.0200 C   0  0  0  0  0  1  0  0  0  0  0  0
  193.0070  175.1720  145.7120 N   0  0  0  0  0  0  0  0  0  0  0  0
  191.8520  175.2820  145.0040 C   0  0  0  0  0  0  0  0  0  0  0  0
  187.8240  174.4380  141.6670 C   0  0  2  0  0  3  0  0  0  0  0  0
  187.3350  178.1850  144.2860 O   0  0  0  0  0  0  0  0  0  0  0  0
  185.5660  179.7220  143.8880 C   0  0  0  0  0  1  0  0  0  0  0  0
  186.3050  178.8870  144.9130 C   0  0  0  0  0  2  0  0  0  0  0  0
  1 19  1  0  0  0  0
  1  5  1  1  0  0  0
  2 16  2  0  0  0  0
  2 13  1  0  0  0  0
  3 17  1  0  0  0  0
  4 12  1  6  0  0  0
  4  1  1  0  0  0  0
  6  8  2  0  0  0  0
  7 15  1  6  0  0  0
  7  9  1  0  0  0  0
  7 27  1  0  0  0  0
  8 11  1  0  0  0  0
  9 14  1  6  0  0  0
  9 22  1  0  0  0  0
 10  3  1  0  0  0  0
 11 28  1  6  0  0  0
 11  5  1  0  0  0  0
 12  8  1  0  0  0  0
 17 26  1  0  0  0  0
 18 13  2  0  0  0  0
 19 26  1  6  0  0  0
 19  2  1  0  0  0  0
 20  4  1  0  0  0  0
 20 17  1  1  0  0  0
 21 10  2  0  0  0  0
 22 10  1  6  0  0  0
 22 20  1  0  0  0  0
 23 15  1  0  0  0  0
 23 14  1  0  0  0  0
 25 18  1  0  0  0  0
 26 25  2  0  0  0  0
 27 24  1  1  0  0  0
 27 12  1  0  0  0  0
 28 30  1  0  0  0  0
 29 30  1  0  0  0  0
M  END
>  <MODEL>
7

>  <REMARK>
 VINA RESULT:      -6.9      2.556      5.060
  Name = 
  2 active torsions:
  status: ('A' for Active; 'I' for Inactive)
    1  A    between atoms: C_11  and  O_28
    2  A    between atoms: O_28  and  C_30
                            x       y       z     vdW  Elec       q    Type
                         _______ _______ _______ _____ _____    ______ ____

>  <TORSDO>
F 2

$$$$
=
 OpenBabel11112416143D

 30 35  0  0  1  0  0  0  0  0999 V2000
  189.0010  175.5420  143.4180 C   0  0  1  0  0  3  0  0  0  0  0  0
  187.5490  177.6770  143.4410 C   0  0  0  0  0  0  0  0  0  0  0  0
  187.8180  174.9190  139.3440 C   0  0  0  0  0  2  0  0  0  0  0  0
  189.7980  174.7010  142.4000 C   0  0  1  0  0  3  0  0  0  0  0  0
  190.0060  176.1660  144.3750 C   0  0  0  0  0  2  0  0  0  0  0  0
  191.9930  173.1640  144.9170 O   0  0  0  0  0  0  0  0  0  0  0  0
  190.1910  171.5670  141.7390 C   0  0  1  0  0  3  0  0  0  0  0  0
  191.1280  173.9290  144.4120 C   0  0  0  0  0  0  0  0  0  0  0  0
  189.5920  171.9660  140.4470 N   0  0  2  0  0  0  0  0  0  0  0  0
  188.7810  173.8360  139.0430 C   0  0  0  0  0  0  0  0  0  0  0  0
  190.6220  175.0750  145.2420 C   0  0  2  0  0  3  0  0  0  0  0  0
  190.6060  173.6670  143.0900 N   0  0  0  0  0  0  0  0  0  0  0  0
  186.6880  178.5130  142.8050 N   0  0  0  0  0  0  0  0  0  0  0  0
  190.4330  171.3340  139.4380 C   0  0  0  0  0  2  0  0  0  0  0  0
  190.8480  170.2170  141.5280 C   0  0  0  0  0  2  0  0  0  0  0  0
  187.8590  177.9140  144.6380 O   0  0  0  0  0  0  0  0  0  0  0  0
  188.0020  175.1240  140.7670 N   0  0  0  0  0  0  0  0  0  0  0  0
  186.2850  178.2760  141.5320 C   0  0  0  0  0  3  0  0  0  0  0  0
  188.0720  176.5550  142.7610 C   0  0  2  0  0  3  0  0  0  0  0  0
  188.8300  174.0960  141.3870 C   0  0  1  0  0  3  0  0  0  0  0  0
  188.9560  173.3940  137.9190 O   0  0  0  0  0  0  0  0  0  0  0  0
  189.5750  173.4180  140.2420 C   0  0  1  0  0  3  0  0  0  0  0  0
  190.9370  170.0360  140.0290 C   0  0  0  0  0  2  0  0  0  0  0  0
  192.3300  173.0210  141.4160 C   0  0  0  0  0  1  0  0  0  0  0  0
  186.7260  177.1740  140.8750 N   0  0  0  0  0  0  0  0  0  0  0  0
  187.5850  176.3020  141.4650 C   0  0  0  0  0  0  0  0  0  0  0  0
  191.2210  172.5520  142.3540 C   0  0  2  0  0  3  0  0  0  0  0  0
  189.6810  174.6110  146.1660 O   0  0  0  0  0  0  0  0  0  0  0  0
  191.1740  175.2920  147.8850 C   0  0  0  0  0  1  0  0  0  0  0  0
  189.8030  175.4630  147.2640 C   0  0  0  0  0  2  0  0  0  0  0  0
  1  5  1  1  0  0  0
  2 16  2  0  0  0  0
  3 17  1  0  0  0  0
  4 12  1  1  0  0  0
  4  1  1  0  0  0  0
  5 11  1  0  0  0  0
  7 15  1  6  0  0  0
  7 27  1  0  0  0  0
  8  6  2  0  0  0  0
  8 11  1  0  0  0  0
  9 14  1  6  0  0  0
  9  7  1  0  0  0  0
 10  3  1  0  0  0  0
 11 28  1  1  0  0  0
 12  8  1  0  0  0  0
 13  2  1  0  0  0  0
 14 23  1  0  0  0  0
 17 26  1  0  0  0  0
 18 13  2  0  0  0  0
 19 26  1  1  0  0  0
 19  1  1  0  0  0  0
 19  2  1  0  0  0  0
 20 17  1  6  0  0  0
 20  4  1  0  0  0  0
 21 10  2  0  0  0  0
 22 10  1  6  0  0  0
 22  9  1  0  0  0  0
 22 20  1  0  0  0  0
 23 15  1  0  0  0  0
 25 26  2  0  0  0  0
 25 18  1  0  0  0  0
 27 24  1  6  0  0  0
 27 12  1  0  0  0  0
 28 30  1  0  0  0  0
 30 29  1  0  0  0  0
M  END
>  <MODEL>
8

>  <REMARK>
 VINA RESULT:      -6.9      2.827      6.039
  Name = 
  2 active torsions:
  status: ('A' for Active; 'I' for Inactive)
    1  A    between atoms: C_11  and  O_28
    2  A    between atoms: O_28  and  C_30
                            x       y       z     vdW  Elec       q    Type
                         _______ _______ _______ _____ _____    ______ ____

>  <TORSDO>
F 2

$$$$
=
 OpenBabel11112416143D

 30 35  0  0  1  0  0  0  0  0999 V2000
  187.9530  175.6980  141.2640 C   0  0  1  0  0  3  0  0  0  0  0  0
  187.8220  174.7810  138.8540 C   0  0  0  0  0  0  0  0  0  0  0  0
  191.2110  173.0070  141.9900 C   0  0  0  0  0  2  0  0  0  0  0  0
  189.0120  175.8930  142.3670 C   0  0  1  0  0  3  0  0  0  0  0  0
  187.5160  177.0820  140.8050 C   0  0  0  0  0  2  0  0  0  0  0  0
  187.1510  178.5320  144.1240 O   0  0  0  0  0  0  0  0  0  0  0  0
  189.1980  175.4250  145.5550 C   0  0  1  0  0  3  0  0  0  0  0  0
  187.4620  177.7010  143.2290 C   0  0  0  0  0  0  0  0  0  0  0  0
  190.2620  174.4790  145.1550 N   0  0  2  0  0  0  0  0  0  0  0  0
  191.6200  173.5720  143.2950 C   0  0  0  0  0  0  0  0  0  0  0  0
  186.7280  177.7580  141.9190 C   0  0  2  0  0  3  0  0  0  0  0  0
  188.4630  176.6910  143.4910 N   0  0  0  0  0  0  0  0  0  0  0  0
  188.2690  173.9190  137.9050 N   0  0  0  0  0  2  0  0  0  0  0  0
  191.3660  174.7560  146.0660 C   0  0  0  0  0  2  0  0  0  0  0  0
  189.3750  175.6950  147.0360 C   0  0  0  0  0  2  0  0  0  0  0  0
  186.8620  175.5480  138.5800 O   0  0  0  0  0  0  0  0  0  0  0  0
  189.9930  173.7350  141.6950 N   0  0  0  0  0  0  0  0  0  0  0  0
  189.2680  173.0390  138.1650 C   0  0  0  0  0  3  0  0  0  0  0  0
  188.4270  174.7980  140.1300 C   0  0  0  0  0  0  0  0  0  0  0  0
  189.5150  174.5270  142.8230 C   0  0  1  0  0  3  0  0  0  0  0  0
  192.6400  173.2360  143.8750 O   0  0  0  0  0  0  0  0  0  0  0  0
  190.7040  174.6580  143.7680 C   0  0  1  0  0  3  0  0  0  0  0  0
  190.7580  175.1900  147.3820 C   0  0  0  0  0  2  0  0  0  0  0  0
  190.4750  177.5260  144.6900 C   0  0  0  0  0  1  0  0  0  0  0  0
  189.8280  172.9950  139.3990 N   0  0  0  0  0  0  0  0  0  0  0  0
  189.4170  173.8320  140.3880 C   0  0  0  0  0  0  0  0  0  0  0  0
  189.1510  176.7730  144.7870 C   0  0  2  0  0  3  0  0  0  0  0  0
  185.4750  177.1540  142.0520 O   0  0  0  0  0  0  0  0  0  0  0  0
  183.6960  178.5480  142.7880 C   0  0  0  0  0  1  0  0  0  0  0  0
  184.5620  178.1180  141.6230 C   0  0  0  0  0  2  0  0  0  0  0  0
  1  5  1  6  0  0  0
  1  4  1  0  0  0  0
  2 19  1  0  0  0  0
  3 10  1  0  0  0  0
  4 20  1  0  0  0  0
  4 12  1  1  0  0  0
  5 11  1  0  0  0  0
  7 15  1  1  0  0  0
  8 12  1  0  0  0  0
  8  6  2  0  0  0  0
  9  7  1  0  0  0  0
  9 14  1  1  0  0  0
 10 21  2  0  0  0  0
 11 28  1  1  0  0  0
 11  8  1  0  0  0  0
 12 27  1  0  0  0  0
 13 18  1  0  0  0  0
 13  2  1  0  0  0  0
 14 23  1  0  0  0  0
 15 23  1  0  0  0  0
 16  2  2  0  0  0  0
 17  3  1  0  0  0  0
 18 25  2  0  0  0  0
 19 26  2  0  0  0  0
 19  1  1  0  0  0  0
 20 17  1  6  0  0  0
 20 22  1  0  0  0  0
 22 10  1  6  0  0  0
 22  9  1  0  0  0  0
 25 26  1  0  0  0  0
 26 17  1  0  0  0  0
 27 24  1  6  0  0  0
 27  7  1  0  0  0  0
 30 28  1  0  0  0  0
 30 29  1  0  0  0  0
M  END
>  <MODEL>
9

>  <REMARK>
 VINA RESULT:      -6.9      2.537      5.388
  Name = 
  2 active torsions:
  status: ('A' for Active; 'I' for Inactive)
    1  A    between atoms: C_11  and  O_28
    2  A    between atoms: O_28  and  C_30
                            x       y       z     vdW  Elec       q    Type
                         _______ _______ _______ _____ _____    ______ ____

>  <TORSDO>
F 2

$$$$
