=
 OpenBabel11112417483D

 34 40  0  0  1  0  0  0  0  0999 V2000
  189.3070  176.8380  142.7520 C   0  0  0  0  0  0  0  0  0  0  0  0
  191.7100  177.4710  142.8460 C   0  0  0  0  0  2  0  0  0  0  0  0
  185.6450  178.6690  147.5470 C   0  0  1  0  0  3  0  0  0  0  0  0
  186.9540  177.0820  143.4950 C   0  0  2  0  0  3  0  0  0  0  0  0
  186.5230  176.7490  145.9580 C   0  0  2  0  0  3  0  0  0  0  0  0
  184.5200  176.3980  147.4560 C   0  0  0  0  0  1  0  0  0  0  0  0
  186.9480  179.2740  148.0330 C   0  0  0  0  0  1  0  0  0  0  0  0
  184.0850  178.7690  145.5260 C   0  0  0  0  0  2  0  0  0  0  0  0
  191.0670  175.4990  144.1030 C   0  0  2  0  0  3  0  0  0  0  0  0
  192.8310  174.8010  146.4680 C   0  0  0  0  0  2  0  0  0  0  0  0
  188.0190  176.6260  146.2110 C   0  0  0  0  0  2  0  0  0  0  0  0
  184.7850  177.8940  144.4760 C   0  0  0  0  0  2  0  0  0  0  0  0
  190.2140  175.8400  145.3430 C   0  0  1  0  0  3  0  0  0  0  0  0
  192.9910  176.8480  143.3410 C   0  0  0  0  0  2  0  0  0  0  0  0
  186.2770  177.6590  144.7420 C   0  0  2  0  0  3  0  0  0  0  0  0
  185.0620  179.5310  146.4190 C   0  0  0  0  0  2  0  0  0  0  0  0
  192.9980  176.0110  145.6790 N   0  0  0  0  0  0  0  0  0  0  0  0
  188.4080  176.7250  143.7520 C   0  0  0  0  0  0  0  0  0  0  0  0
  185.8170  177.1620  147.2620 C   0  0  2  0  0  3  0  0  0  0  0  0
  188.7220  175.9700  145.0210 C   0  0  2  0  0  3  0  0  0  0  0  0
  187.7960  178.0500  141.3390 C   0  0  0  0  0  3  0  0  0  0  0  0
  191.5500  174.8970  147.2690 C   0  0  0  0  0  2  0  0  0  0  0  0
  186.8150  178.0070  142.3720 N   0  0  0  0  0  2  0  0  0  0  0  0
  190.3480  174.7090  146.3630 C   0  0  0  0  0  2  0  0  0  0  0  0
  192.5960  175.7140  144.2910 C   0  0  1  0  0  3  0  0  0  0  0  0
  188.9480  177.4860  141.5200 N   0  0  0  0  0  0  0  0  0  0  0  0
  190.7170  176.3400  142.8770 C   0  0  1  0  0  3  0  0  0  0  0  0
  194.4290  176.2940  145.7290 C   0  0  0  0  0  2  0  0  0  0  0  0
  195.2060  175.0380  146.1010 C   0  0  0  0  0  2  0  0  0  0  0  0
  195.4490  173.9000  143.0140 O   0  0  0  0  0  0  0  0  0  0  0  0
  196.3430  175.7730  144.0810 N   0  0  0  0  0  2  0  0  0  0  0  0
  196.2620  174.7090  145.0570 C   0  0  2  0  0  3  0  0  0  0  0  0
  196.1270  175.1090  142.8060 C   0  0  0  0  0  2  0  0  0  0  0  0
  195.8420  173.4850  144.2890 C   0  0  0  0  0  2  0  0  0  0  0  0
  1 27  1  0  0  0  0
  1 18  2  0  0  0  0
  2 27  1  0  0  0  0
  2 14  1  0  0  0  0
  3  7  1  6  0  0  0
  4 23  1  6  0  0  0
  4 18  1  0  0  0  0
  4 15  1  0  0  0  0
  5 11  1  1  0  0  0
  5 19  1  0  0  0  0
  8 16  1  0  0  0  0
  9 25  1  0  0  0  0
  9 13  1  0  0  0  0
 10 22  1  0  0  0  0
 12 15  1  0  0  0  0
 12  8  1  0  0  0  0
 13 24  1  0  0  0  0
 14 25  1  0  0  0  0
 15  5  1  0  0  0  0
 16  3  1  0  0  0  0
 17 28  1  0  0  0  0
 17 10  1  0  0  0  0
 18 20  1  0  0  0  0
 19  6  1  0  0  0  0
 19  3  1  0  0  0  0
 20 13  1  0  0  0  0
 20 11  1  0  0  0  0
 21 26  2  0  0  0  0
 21 23  1  0  0  0  0
 24 22  1  0  0  0  0
 25 17  1  0  0  0  0
 26  1  1  0  0  0  0
 27  9  1  0  0  0  0
 28 29  1  0  0  0  0
 30 34  1  0  0  0  0
 31 32  1  0  0  0  0
 32 29  1  0  0  0  0
 33 30  1  0  0  0  0
 33 31  1  0  0  0  0
 34 32  1  0  0  0  0
M  END
>  <MODEL>
1

>  <REMARK>
 VINA RESULT:      -7.9      0.000      0.000
  Name = 
  3 active torsions:
  status: ('A' for Active; 'I' for Inactive)
    1  A    between atoms: N_17  and  C_28
    2  A    between atoms: C_28  and  C_29
    3  A    between atoms: C_29  and  C_32
                            x       y       z     vdW  Elec       q    Type
                         _______ _______ _______ _____ _____    ______ ____

>  <TORSDO>
F 3

$$$$
=
 OpenBabel11112417483D

 34 40  0  0  1  0  0  0  0  0999 V2000
  191.9830  176.0110  145.6300 C   0  0  0  0  0  0  0  0  0  0  0  0
  190.1720  177.6390  145.1310 C   0  0  0  0  0  2  0  0  0  0  0  0
  195.8590  174.4570  140.9060 C   0  0  1  0  0  3  0  0  0  0  0  0
  194.1320  174.8990  145.0860 C   0  0  2  0  0  3  0  0  0  0  0  0
  194.2430  173.7170  142.8600 C   0  0  2  0  0  3  0  0  0  0  0  0
  195.7670  172.0570  141.7200 C   0  0  0  0  0  1  0  0  0  0  0  0
  194.9830  175.4350  140.1470 C   0  0  0  0  0  1  0  0  0  0  0  0
  197.3650  174.3850  142.9680 C   0  0  0  0  0  2  0  0  0  0  0  0
  189.7400  175.3310  144.5250 C   0  0  2  0  0  3  0  0  0  0  0  0
  187.7540  174.9000  142.2760 C   0  0  0  0  0  2  0  0  0  0  0  0
  192.8600  174.2430  142.5040 C   0  0  0  0  0  2  0  0  0  0  0  0
  196.3800  174.2810  144.1410 C   0  0  0  0  0  2  0  0  0  0  0  0
  190.5960  174.8620  143.3300 C   0  0  1  0  0  3  0  0  0  0  0  0
  188.7290  177.5780  144.6990 C   0  0  0  0  0  2  0  0  0  0  0  0
  194.9460  174.7090  143.8030 C   0  0  2  0  0  3  0  0  0  0  0  0
  196.8320  175.2260  141.8100 C   0  0  0  0  0  2  0  0  0  0  0  0
  188.2200  176.2150  142.6870 N   0  0  0  0  0  0  0  0  0  0  0  0
  192.6740  175.2090  144.7930 C   0  0  0  0  0  0  0  0  0  0  0  0
  195.0010  173.3590  141.5700 C   0  0  2  0  0  3  0  0  0  0  0  0
  191.9820  174.3630  143.7510 C   0  0  2  0  0  3  0  0  0  0  0  0
  193.9500  176.7190  146.8050 C   0  0  0  0  0  3  0  0  0  0  0  0
  188.8880  174.1510  141.6090 C   0  0  0  0  0  2  0  0  0  0  0  0
  194.7450  175.9280  145.9240 N   0  0  0  0  0  2  0  0  0  0  0  0
  189.8940  173.6890  142.6470 C   0  0  0  0  0  2  0  0  0  0  0  0
  188.4920  176.1740  144.1360 C   0  0  1  0  0  3  0  0  0  0  0  0
  192.6620  176.7350  146.6700 N   0  0  0  0  0  0  0  0  0  0  0  0
  190.5030  176.2190  145.5060 C   0  0  1  0  0  3  0  0  0  0  0  0
  187.0960  177.1090  142.4200 C   0  0  0  0  0  2  0  0  0  0  0  0
  185.8600  176.6490  143.1820 C   0  0  0  0  0  2  0  0  0  0  0  0
  185.4680  179.1160  145.3360 O   0  0  0  0  0  0  0  0  0  0  0  0
  185.5070  179.0480  143.0040 N   0  0  0  0  0  2  0  0  0  0  0  0
  184.9210  177.8100  143.4690 C   0  0  2  0  0  3  0  0  0  0  0  0
  185.5180  179.9050  144.1780 C   0  0  0  0  0  2  0  0  0  0  0  0
  184.7640  177.9700  144.9570 C   0  0  0  0  0  2  0  0  0  0  0  0
  1 26  1  0  0  0  0
  2 27  1  0  0  0  0
  3  7  1  1  0  0  0
  3 19  1  0  0  0  0
  3 16  1  0  0  0  0
  4 18  1  6  0  0  0
  4 23  1  0  0  0  0
  5 11  1  6  0  0  0
  5 15  1  0  0  0  0
  8 12  1  0  0  0  0
  9 27  1  0  0  0  0
 10 17  1  0  0  0  0
 11 20  1  0  0  0  0
 13 20  1  0  0  0  0
 13  9  1  0  0  0  0
 14  2  1  0  0  0  0
 15 12  1  0  0  0  0
 15  4  1  0  0  0  0
 16  8  1  0  0  0  0
 17 25  1  0  0  0  0
 18  1  2  0  0  0  0
 19  6  1  0  0  0  0
 19  5  1  0  0  0  0
 20 18  1  0  0  0  0
 22 10  1  0  0  0  0
 22 24  1  0  0  0  0
 23 21  1  0  0  0  0
 24 13  1  0  0  0  0
 25  9  1  0  0  0  0
 25 14  1  0  0  0  0
 26 21  2  0  0  0  0
 27  1  1  0  0  0  0
 28 17  1  0  0  0  0
 28 29  1  0  0  0  0
 29 32  1  0  0  0  0
 31 32  1  0  0  0  0
 31 33  1  0  0  0  0
 32 34  1  0  0  0  0
 33 30  1  0  0  0  0
 34 30  1  0  0  0  0
M  END
>  <MODEL>
2

>  <REMARK>
 VINA RESULT:      -7.8      2.693      8.893
  Name = 
  3 active torsions:
  status: ('A' for Active; 'I' for Inactive)
    1  A    between atoms: N_17  and  C_28
    2  A    between atoms: C_28  and  C_29
    3  A    between atoms: C_29  and  C_32
                            x       y       z     vdW  Elec       q    Type
                         _______ _______ _______ _____ _____    ______ ____

>  <TORSDO>
F 3

$$$$
=
 OpenBabel11112417483D

 34 40  0  0  1  0  0  0  0  0999 V2000
  193.3920  176.2170  142.9920 C   0  0  0  0  0  0  0  0  0  0  0  0
  190.9620  176.6940  142.7690 C   0  0  0  0  0  2  0  0  0  0  0  0
  195.0510  170.3550  144.6170 C   0  0  1  0  0  3  0  0  0  0  0  0
  195.3050  174.6460  143.1410 C   0  0  2  0  0  3  0  0  0  0  0  0
  195.2190  172.9610  145.0170 C   0  0  2  0  0  3  0  0  0  0  0  0
  196.8160  171.3570  146.1380 C   0  0  0  0  0  1  0  0  0  0  0  0
  193.5490  170.1520  144.5980 C   0  0  0  0  0  1  0  0  0  0  0  0
  196.9350  171.1050  143.0630 C   0  0  0  0  0  2  0  0  0  0  0  0
  191.8690  176.7600  145.0170 C   0  0  2  0  0  3  0  0  0  0  0  0
  189.9010  176.2100  147.2570 C   0  0  0  0  0  2  0  0  0  0  0  0
  193.8220  173.4350  145.3890 C   0  0  0  0  0  2  0  0  0  0  0  0
  196.8140  172.6350  143.0480 C   0  0  0  0  0  2  0  0  0  0  0  0
  192.2530  175.3600  145.5420 C   0  0  1  0  0  3  0  0  0  0  0  0
  189.8600  177.2180  143.6550 C   0  0  0  0  0  2  0  0  0  0  0  0
  195.4510  173.1660  143.5100 C   0  0  2  0  0  3  0  0  0  0  0  0
  195.5870  170.3980  143.1790 C   0  0  0  0  0  2  0  0  0  0  0  0
  189.5590  176.0940  145.8480 N   0  0  0  0  0  0  0  0  0  0  0  0
  194.0170  175.2420  143.6840 C   0  0  0  0  0  0  0  0  0  0  0  0
  195.4300  171.5300  145.5430 C   0  0  2  0  0  3  0  0  0  0  0  0
  193.6620  174.9320  145.1190 C   0  0  2  0  0  3  0  0  0  0  0  0
  194.7410  175.8900  141.0360 C   0  0  0  0  0  3  0  0  0  0  0  0
  190.8600  175.1000  147.6330 C   0  0  0  0  0  2  0  0  0  0  0  0
  195.4110  174.8170  141.6930 N   0  0  0  0  0  2  0  0  0  0  0  0
  192.2400  175.3820  147.0700 C   0  0  0  0  0  2  0  0  0  0  0  0
  190.3510  177.0880  145.0990 C   0  0  1  0  0  3  0  0  0  0  0  0
  193.8140  176.5480  141.6580 N   0  0  0  0  0  0  0  0  0  0  0  0
  192.2210  176.9730  143.5460 C   0  0  1  0  0  3  0  0  0  0  0  0
  188.1410  176.4390  145.7800 C   0  0  0  0  0  2  0  0  0  0  0  0
  187.8050  177.5090  146.8110 C   0  0  0  0  0  2  0  0  0  0  0  0
  184.8880  179.0400  146.6460 O   0  0  0  0  0  0  0  0  0  0  0  0
  185.5340  176.8290  146.2740 N   0  0  0  0  0  2  0  0  0  0  0  0
  186.3790  177.3630  147.3190 C   0  0  2  0  0  3  0  0  0  0  0  0
  184.4620  177.8020  146.1460 C   0  0  0  0  0  2  0  0  0  0  0  0
  185.8200  178.7230  147.6380 C   0  0  0  0  0  2  0  0  0  0  0  0
  1 27  1  0  0  0  0
  1 18  2  0  0  0  0
  2 27  1  0  0  0  0
  2 14  1  0  0  0  0
  3  7  1  6  0  0  0
  3 19  1  0  0  0  0
  4 23  1  6  0  0  0
  4 15  1  0  0  0  0
  4 18  1  0  0  0  0
  5 11  1  6  0  0  0
  5 19  1  0  0  0  0
  8 16  1  0  0  0  0
  9 25  1  0  0  0  0
  9 13  1  0  0  0  0
 10 22  1  0  0  0  0
 12  8  1  0  0  0  0
 12 15  1  0  0  0  0
 13 24  1  0  0  0  0
 14 25  1  0  0  0  0
 15  5  1  0  0  0  0
 16  3  1  0  0  0  0
 17 10  1  0  0  0  0
 18 20  1  0  0  0  0
 19  6  1  0  0  0  0
 20 11  1  0  0  0  0
 20 13  1  0  0  0  0
 21 26  2  0  0  0  0
 21 23  1  0  0  0  0
 24 22  1  0  0  0  0
 25 17  1  0  0  0  0
 26  1  1  0  0  0  0
 27  9  1  0  0  0  0
 28 17  1  0  0  0  0
 28 29  1  0  0  0  0
 29 32  1  0  0  0  0
 30 34  1  0  0  0  0
 31 32  1  0  0  0  0
 32 34  1  0  0  0  0
 33 31  1  0  0  0  0
 33 30  1  0  0  0  0
M  END
>  <MODEL>
3

>  <REMARK>
 VINA RESULT:      -7.8      2.967      8.762
  Name = 
  3 active torsions:
  status: ('A' for Active; 'I' for Inactive)
    1  A    between atoms: N_17  and  C_28
    2  A    between atoms: C_28  and  C_29
    3  A    between atoms: C_29  and  C_32
                            x       y       z     vdW  Elec       q    Type
                         _______ _______ _______ _____ _____    ______ ____

>  <TORSDO>
F 3

$$$$
=
 OpenBabel11112417483D

 34 40  0  0  1  0  0  0  0  0999 V2000
  192.1840  175.9850  145.5370 C   0  0  0  0  0  0  0  0  0  0  0  0
  190.9310  177.7070  144.2530 C   0  0  0  0  0  2  0  0  0  0  0  0
  195.4290  171.7070  142.2320 C   0  0  1  0  0  3  0  0  0  0  0  0
  193.9110  174.2130  145.7050 C   0  0  2  0  0  3  0  0  0  0  0  0
  193.6680  172.2660  144.1200 C   0  0  2  0  0  3  0  0  0  0  0  0
  194.6370  169.9470  143.8760 C   0  0  0  0  0  1  0  0  0  0  0  0
  194.8790  172.5030  141.0640 C   0  0  0  0  0  1  0  0  0  0  0  0
  196.8490  172.0530  144.3280 C   0  0  0  0  0  2  0  0  0  0  0  0
  189.8400  175.5580  144.5190 C   0  0  2  0  0  3  0  0  0  0  0  0
  187.8130  174.8280  142.3850 C   0  0  0  0  0  2  0  0  0  0  0  0
  192.5010  172.9610  143.4340 C   0  0  0  0  0  2  0  0  0  0  0  0
  195.8780  172.6900  145.3310 C   0  0  0  0  0  2  0  0  0  0  0  0
  190.5200  174.4430  143.6970 C   0  0  1  0  0  3  0  0  0  0  0  0
  189.5330  177.8730  143.7130 C   0  0  0  0  0  2  0  0  0  0  0  0
  194.6330  173.3200  144.6920 C   0  0  2  0  0  3  0  0  0  0  0  0
  196.5860  172.4770  142.8850 C   0  0  0  0  0  2  0  0  0  0  0  0
  188.6450  176.0180  142.3200 N   0  0  0  0  0  0  0  0  0  0  0  0
  192.6080  174.7640  145.1500 C   0  0  0  0  0  0  0  0  0  0  0  0
  194.2870  171.2370  143.1570 C   0  0  2  0  0  3  0  0  0  0  0  0
  191.6980  173.7960  144.4320 C   0  0  2  0  0  3  0  0  0  0  0  0
  194.2730  176.5390  146.5760 C   0  0  0  0  0  3  0  0  0  0  0  0
  188.6770  173.6000  142.1870 C   0  0  0  0  0  2  0  0  0  0  0  0
  194.7990  175.2820  146.1570 N   0  0  0  0  0  2  0  0  0  0  0  0
  189.5040  173.3320  143.4310 C   0  0  0  0  0  2  0  0  0  0  0  0
  188.8940  176.4810  143.6990 C   0  0  1  0  0  3  0  0  0  0  0  0
  193.0460  176.8480  146.2970 N   0  0  0  0  0  0  0  0  0  0  0  0
  190.8300  176.5190  145.1730 C   0  0  1  0  0  3  0  0  0  0  0  0
  187.8340  177.0010  141.6080 C   0  0  0  0  0  2  0  0  0  0  0  0
  186.3590  176.8160  141.9440 C   0  0  0  0  0  2  0  0  0  0  0  0
  184.2700  178.4680  143.8890 O   0  0  0  0  0  0  0  0  0  0  0  0
  186.3160  179.0410  142.9240 N   0  0  0  0  0  2  0  0  0  0  0  0
  185.6330  178.1510  142.0100 C   0  0  2  0  0  3  0  0  0  0  0  0
  185.2930  179.4270  143.8820 C   0  0  0  0  0  2  0  0  0  0  0  0
  184.2610  177.9450  142.5930 C   0  0  0  0  0  2  0  0  0  0  0  0
  1 26  1  0  0  0  0
  2 27  1  0  0  0  0
  3  7  1  6  0  0  0
  3 16  1  0  0  0  0
  3 19  1  0  0  0  0
  4 18  1  6  0  0  0
  4 23  1  0  0  0  0
  5 11  1  6  0  0  0
  5 15  1  0  0  0  0
  8 12  1  0  0  0  0
  9 27  1  0  0  0  0
 11 20  1  0  0  0  0
 13 20  1  0  0  0  0
 13  9  1  0  0  0  0
 14  2  1  0  0  0  0
 15 12  1  0  0  0  0
 15  4  1  0  0  0  0
 16  8  1  0  0  0  0
 17 10  1  0  0  0  0
 17 25  1  0  0  0  0
 18  1  2  0  0  0  0
 19  6  1  0  0  0  0
 19  5  1  0  0  0  0
 20 18  1  0  0  0  0
 22 10  1  0  0  0  0
 22 24  1  0  0  0  0
 23 21  1  0  0  0  0
 24 13  1  0  0  0  0
 25 14  1  0  0  0  0
 25  9  1  0  0  0  0
 26 21  2  0  0  0  0
 27  1  1  0  0  0  0
 28 29  1  0  0  0  0
 28 17  1  0  0  0  0
 29 32  1  0  0  0  0
 31 33  1  0  0  0  0
 32 34  1  0  0  0  0
 32 31  1  0  0  0  0
 33 30  1  0  0  0  0
 34 30  1  0  0  0  0
M  END
>  <MODEL>
4

>  <REMARK>
 VINA RESULT:      -7.5      3.068      8.897
  Name = 
  3 active torsions:
  status: ('A' for Active; 'I' for Inactive)
    1  A    between atoms: N_17  and  C_28
    2  A    between atoms: C_28  and  C_29
    3  A    between atoms: C_29  and  C_32
                            x       y       z     vdW  Elec       q    Type
                         _______ _______ _______ _____ _____    ______ ____

>  <TORSDO>
F 3

$$$$
=
 OpenBabel11112417483D

 34 40  0  0  1  0  0  0  0  0999 V2000
  192.2190  176.5520  146.1130 C   0  0  0  0  0  0  0  0  0  0  0  0
  193.7800  174.6290  146.3280 C   0  0  0  0  0  2  0  0  0  0  0  0
  187.3370  175.8870  142.1780 C   0  0  1  0  0  3  0  0  0  0  0  0
  190.0470  177.5370  145.4320 C   0  0  2  0  0  3  0  0  0  0  0  0
  189.4230  177.2850  143.0010 C   0  0  2  0  0  3  0  0  0  0  0  0
  187.7250  178.2740  141.4140 C   0  0  0  0  0  1  0  0  0  0  0  0
  187.9540  174.5160  141.9830 C   0  0  0  0  0  1  0  0  0  0  0  0
  186.4060  177.3560  144.0500 C   0  0  0  0  0  2  0  0  0  0  0  0
  194.1340  176.0940  144.4280 C   0  0  2  0  0  3  0  0  0  0  0  0
  195.5020  174.8450  142.0280 C   0  0  0  0  0  2  0  0  0  0  0  0
  190.6490  176.4140  142.7680 C   0  0  0  0  0  2  0  0  0  0  0  0
  187.6590  177.9150  144.7390 C   0  0  0  0  0  2  0  0  0  0  0  0
  193.0220  175.9650  143.3660 C   0  0  1  0  0  3  0  0  0  0  0  0
  195.0690  174.1830  145.6840 C   0  0  0  0  0  2  0  0  0  0  0  0
  188.9430  177.1250  144.4540 C   0  0  2  0  0  3  0  0  0  0  0  0
  186.5950  175.9350  143.5220 C   0  0  0  0  0  2  0  0  0  0  0  0
  195.1040  174.0860  143.2030 N   0  0  0  0  0  0  0  0  0  0  0  0
  191.3710  176.8630  145.1110 C   0  0  0  0  0  0  0  0  0  0  0  0
  188.3770  176.9960  141.9100 C   0  0  2  0  0  3  0  0  0  0  0  0
  191.8080  176.8500  143.6650 C   0  0  2  0  0  3  0  0  0  0  0  0
  190.5880  176.9770  147.8180 C   0  0  0  0  0  3  0  0  0  0  0  0
  194.2650  175.2860  141.2730 C   0  0  0  0  0  2  0  0  0  0  0  0
  189.6270  177.2730  146.8070 N   0  0  0  0  0  2  0  0  0  0  0  0
  193.5730  176.4160  142.0140 C   0  0  0  0  0  2  0  0  0  0  0  0
  195.2090  174.9710  144.3780 C   0  0  1  0  0  3  0  0  0  0  0  0
  191.7980  176.6600  147.4830 N   0  0  0  0  0  0  0  0  0  0  0  0
  193.6110  176.0500  145.8620 C   0  0  1  0  0  3  0  0  0  0  0  0
  196.0880  173.0120  143.3030 C   0  0  0  0  0  2  0  0  0  0  0  0
  195.4030  171.6540  143.2010 C   0  0  0  0  0  2  0  0  0  0  0  0
  196.8170  171.1480  146.1370 O   0  0  0  0  0  0  0  0  0  0  0  0
  195.3010  169.8990  144.8790 N   0  0  0  0  0  2  0  0  0  0  0  0
  196.1770  170.5840  143.9550 C   0  0  2  0  0  3  0  0  0  0  0  0
  195.9530  170.0450  146.1700 C   0  0  0  0  0  2  0  0  0  0  0  0
  197.2330  171.2370  144.8060 C   0  0  0  0  0  2  0  0  0  0  0  0
  1 26  1  0  0  0  0
  3  7  1  1  0  0  0
  3 16  1  0  0  0  0
  4 18  1  6  0  0  0
  4 23  1  0  0  0  0
  5 11  1  6  0  0  0
  5 15  1  0  0  0  0
  6 19  1  0  0  0  0
  8 12  1  0  0  0  0
  9 27  1  0  0  0  0
 10 17  1  0  0  0  0
 11 20  1  0  0  0  0
 13 20  1  0  0  0  0
 13  9  1  0  0  0  0
 14  2  1  0  0  0  0
 15 12  1  0  0  0  0
 15  4  1  0  0  0  0
 16  8  1  0  0  0  0
 17 28  1  0  0  0  0
 17 25  1  0  0  0  0
 18  1  2  0  0  0  0
 19  3  1  0  0  0  0
 19  5  1  0  0  0  0
 20 18  1  0  0  0  0
 22 24  1  0  0  0  0
 22 10  1  0  0  0  0
 23 21  1  0  0  0  0
 24 13  1  0  0  0  0
 25  9  1  0  0  0  0
 25 14  1  0  0  0  0
 26 21  2  0  0  0  0
 27  1  1  0  0  0  0
 27  2  1  0  0  0  0
 29 28  1  0  0  0  0
 29 32  1  0  0  0  0
 30 33  1  0  0  0  0
 31 33  1  0  0  0  0
 32 34  1  0  0  0  0
 32 31  1  0  0  0  0
 34 30  1  0  0  0  0
M  END
>  <MODEL>
5

>  <REMARK>
 VINA RESULT:      -7.4      2.433      4.887
  Name = 
  3 active torsions:
  status: ('A' for Active; 'I' for Inactive)
    1  A    between atoms: N_17  and  C_28
    2  A    between atoms: C_28  and  C_29
    3  A    between atoms: C_29  and  C_32
                            x       y       z     vdW  Elec       q    Type
                         _______ _______ _______ _____ _____    ______ ____

>  <TORSDO>
F 3

$$$$
=
 OpenBabel11112417483D

 34 40  0  0  1  0  0  0  0  0999 V2000
  191.1470  174.0210  141.2840 C   0  0  0  0  0  0  0  0  0  0  0  0
  189.0340  173.6340  142.5350 C   0  0  0  0  0  2  0  0  0  0  0  0
  196.4030  174.8390  144.6690 C   0  0  1  0  0  3  0  0  0  0  0  0
  193.6220  174.1080  141.1500 C   0  0  2  0  0  3  0  0  0  0  0  0
  194.7710  175.6690  142.7640 C   0  0  2  0  0  3  0  0  0  0  0  0
  197.0710  176.6720  143.0490 C   0  0  0  0  0  1  0  0  0  0  0  0
  195.4400  174.6350  145.8210 C   0  0  0  0  0  1  0  0  0  0  0  0
  197.2190  173.6250  142.5730 C   0  0  0  0  0  2  0  0  0  0  0  0
  189.7350  175.9420  142.2980 C   0  0  2  0  0  3  0  0  0  0  0  0
  188.7470  177.8530  144.4340 C   0  0  0  0  0  2  0  0  0  0  0  0
  193.4380  175.9690  143.4350 C   0  0  0  0  0  2  0  0  0  0  0  0
  196.0900  173.8450  141.5560 C   0  0  0  0  0  2  0  0  0  0  0  0
  190.9860  176.2710  143.1400 C   0  0  1  0  0  3  0  0  0  0  0  0
  187.9020  174.4760  143.0670 C   0  0  0  0  0  2  0  0  0  0  0  0
  194.7470  174.2460  142.1800 C   0  0  2  0  0  3  0  0  0  0  0  0
  196.7160  173.4880  144.0090 C   0  0  0  0  0  2  0  0  0  0  0  0
  188.5240  176.4170  144.4840 N   0  0  0  0  0  0  0  0  0  0  0  0
  192.2920  174.6070  141.6910 C   0  0  0  0  0  0  0  0  0  0  0  0
  195.9160  175.9760  143.7460 C   0  0  2  0  0  3  0  0  0  0  0  0
  192.2940  175.9290  142.4200 C   0  0  2  0  0  3  0  0  0  0  0  0
  192.2870  172.1850  140.2440 C   0  0  0  0  0  3  0  0  0  0  0  0
  190.2170  178.1410  144.6560 C   0  0  0  0  0  2  0  0  0  0  0  0
  193.5310  172.7250  140.6850 N   0  0  0  0  0  2  0  0  0  0  0  0
  191.0160  177.7730  143.4190 C   0  0  0  0  0  2  0  0  0  0  0  0
  188.4030  175.9230  143.1000 C   0  0  1  0  0  3  0  0  0  0  0  0
  191.1830  172.8080  140.5130 N   0  0  0  0  0  0  0  0  0  0  0  0
  189.7950  174.5690  141.6340 C   0  0  1  0  0  3  0  0  0  0  0  0
  187.2480  176.2630  145.1780 C   0  0  0  0  0  2  0  0  0  0  0  0
  187.4320  176.4610  146.6780 C   0  0  0  0  0  2  0  0  0  0  0  0
  185.5870  179.1890  146.8650 O   0  0  0  0  0  0  0  0  0  0  0  0
  185.0740  176.9670  146.3710 N   0  0  0  0  0  2  0  0  0  0  0  0
  186.1550  176.9640  147.3320 C   0  0  2  0  0  3  0  0  0  0  0  0
  184.5840  178.3360  146.3830 C   0  0  0  0  0  2  0  0  0  0  0  0
  186.3350  178.4010  147.7430 C   0  0  0  0  0  2  0  0  0  0  0  0
  1 27  1  0  0  0  0
  1 18  2  0  0  0  0
  2 14  1  0  0  0  0
  3  7  1  1  0  0  0
  4 23  1  1  0  0  0
  4 18  1  0  0  0  0
  4 15  1  0  0  0  0
  5 11  1  1  0  0  0
  5 19  1  0  0  0  0
  6 19  1  0  0  0  0
  8 16  1  0  0  0  0
  9 25  1  0  0  0  0
  9 13  1  0  0  0  0
 10 17  1  0  0  0  0
 10 22  1  0  0  0  0
 12 15  1  0  0  0  0
 12  8  1  0  0  0  0
 13 24  1  0  0  0  0
 14 25  1  0  0  0  0
 15  5  1  0  0  0  0
 16  3  1  0  0  0  0
 17 28  1  0  0  0  0
 18 20  1  0  0  0  0
 19  3  1  0  0  0  0
 20 13  1  0  0  0  0
 20 11  1  0  0  0  0
 21 26  2  0  0  0  0
 21 23  1  0  0  0  0
 24 22  1  0  0  0  0
 25 17  1  0  0  0  0
 26  1  1  0  0  0  0
 27  9  1  0  0  0  0
 27  2  1  0  0  0  0
 28 29  1  0  0  0  0
 29 32  1  0  0  0  0
 30 34  1  0  0  0  0
 31 33  1  0  0  0  0
 31 32  1  0  0  0  0
 32 34  1  0  0  0  0
 33 30  1  0  0  0  0
M  END
>  <MODEL>
6

>  <REMARK>
 VINA RESULT:      -7.4      3.143      8.597
  Name = 
  3 active torsions:
  status: ('A' for Active; 'I' for Inactive)
    1  A    between atoms: N_17  and  C_28
    2  A    between atoms: C_28  and  C_29
    3  A    between atoms: C_29  and  C_32
                            x       y       z     vdW  Elec       q    Type
                         _______ _______ _______ _____ _____    ______ ____

>  <TORSDO>
F 3

$$$$
=
 OpenBabel11112417483D

 34 40  0  0  1  0  0  0  0  0999 V2000
  191.9350  174.8110  142.1930 C   0  0  0  0  0  0  0  0  0  0  0  0
  189.5500  174.8730  142.8900 C   0  0  0  0  0  2  0  0  0  0  0  0
  195.7570  170.8810  145.3090 C   0  0  1  0  0  3  0  0  0  0  0  0
  194.1720  173.7400  142.1520 C   0  0  2  0  0  3  0  0  0  0  0  0
  195.2410  173.3060  144.3950 C   0  0  2  0  0  3  0  0  0  0  0  0
  197.5310  172.6930  145.2660 C   0  0  0  0  0  1  0  0  0  0  0  0
  194.4740  170.5620  146.0520 C   0  0  0  0  0  1  0  0  0  0  0  0
  196.6850  170.8620  142.9280 C   0  0  0  0  0  2  0  0  0  0  0  0
  191.0900  176.2030  144.2080 C   0  0  2  0  0  3  0  0  0  0  0  0
  190.2560  176.7460  147.0720 C   0  0  0  0  0  2  0  0  0  0  0  0
  193.9750  173.7750  145.0970 C   0  0  0  0  0  2  0  0  0  0  0  0
  196.1020  172.1330  142.2950 C   0  0  0  0  0  2  0  0  0  0  0  0
  192.0380  175.3360  145.0640 C   0  0  1  0  0  3  0  0  0  0  0  0
  188.7030  175.6840  143.8390 C   0  0  0  0  0  2  0  0  0  0  0  0
  194.8790  172.7010  143.0270 C   0  0  2  0  0  3  0  0  0  0  0  0
  195.7400  170.2040  143.9310 C   0  0  0  0  0  2  0  0  0  0  0  0
  189.5150  175.8710  146.1780 N   0  0  0  0  0  0  0  0  0  0  0  0
  193.0230  174.4130  142.8840 C   0  0  0  0  0  0  0  0  0  0  0  0
  196.0430  172.3980  145.3430 C   0  0  2  0  0  3  0  0  0  0  0  0
  193.2820  174.8790  144.2970 C   0  0  2  0  0  3  0  0  0  0  0  0
  192.5820  173.6220  140.2130 C   0  0  0  0  0  3  0  0  0  0  0  0
  191.5760  176.0970  147.4290 C   0  0  0  0  0  2  0  0  0  0  0  0
  193.7280  173.1270  140.9010 N   0  0  0  0  0  2  0  0  0  0  0  0
  192.5300  176.1630  146.2510 C   0  0  0  0  0  2  0  0  0  0  0  0
  189.6650  176.3840  144.8040 C   0  0  1  0  0  3  0  0  0  0  0  0
  191.7630  174.4220  140.8200 N   0  0  0  0  0  0  0  0  0  0  0  0
  190.8460  175.6350  142.8120 C   0  0  1  0  0  3  0  0  0  0  0  0
  188.1230  175.9960  146.6040 C   0  0  0  0  0  2  0  0  0  0  0  0
  187.8000  177.4460  146.9410 C   0  0  0  0  0  2  0  0  0  0  0  0
  184.5600  176.9810  146.5340 O   0  0  0  0  0  0  0  0  0  0  0  0
  185.8490  178.8960  146.8770 N   0  0  0  0  0  2  0  0  0  0  0  0
  186.6420  177.9660  146.1040 C   0  0  2  0  0  3  0  0  0  0  0  0
  184.5020  178.3520  146.8240 C   0  0  0  0  0  2  0  0  0  0  0  0
  185.7170  176.8270  145.7670 C   0  0  0  0  0  2  0  0  0  0  0  0
  1 27  1  0  0  0  0
  1 18  2  0  0  0  0
  2 14  1  0  0  0  0
  3 19  1  0  0  0  0
  3  7  1  6  0  0  0
  4 23  1  6  0  0  0
  4 18  1  0  0  0  0
  4 15  1  0  0  0  0
  5 11  1  1  0  0  0
  5 19  1  0  0  0  0
  6 19  1  0  0  0  0
  8 16  1  0  0  0  0
  9 25  1  0  0  0  0
  9 13  1  0  0  0  0
 10 22  1  0  0  0  0
 12  8  1  0  0  0  0
 12 15  1  0  0  0  0
 13 24  1  0  0  0  0
 14 25  1  0  0  0  0
 15  5  1  0  0  0  0
 16  3  1  0  0  0  0
 17 28  1  0  0  0  0
 17 10  1  0  0  0  0
 18 20  1  0  0  0  0
 20 13  1  0  0  0  0
 20 11  1  0  0  0  0
 21 26  2  0  0  0  0
 21 23  1  0  0  0  0
 24 22  1  0  0  0  0
 25 17  1  0  0  0  0
 26  1  1  0  0  0  0
 27  2  1  0  0  0  0
 27  9  1  0  0  0  0
 28 29  1  0  0  0  0
 30 33  1  0  0  0  0
 32 31  1  0  0  0  0
 32 29  1  0  0  0  0
 33 31  1  0  0  0  0
 34 32  1  0  0  0  0
 34 30  1  0  0  0  0
M  END
>  <MODEL>
7

>  <REMARK>
 VINA RESULT:      -7.3      3.129      8.663
  Name = 
  3 active torsions:
  status: ('A' for Active; 'I' for Inactive)
    1  A    between atoms: N_17  and  C_28
    2  A    between atoms: C_28  and  C_29
    3  A    between atoms: C_29  and  C_32
                            x       y       z     vdW  Elec       q    Type
                         _______ _______ _______ _____ _____    ______ ____

>  <TORSDO>
F 3

$$$$
=
 OpenBabel11112417483D

 34 40  0  0  1  0  0  0  0  0999 V2000
  194.3100  176.2060  144.5530 C   0  0  0  0  0  0  0  0  0  0  0  0
  192.4610  177.4820  143.4880 C   0  0  0  0  0  2  0  0  0  0  0  0
  194.1840  169.9270  144.0000 C   0  0  1  0  0  3  0  0  0  0  0  0
  195.6530  174.1430  144.8490 C   0  0  2  0  0  3  0  0  0  0  0  0
  194.3810  172.0730  145.5280 C   0  0  2  0  0  3  0  0  0  0  0  0
  194.9280  169.7730  146.4190 C   0  0  0  0  0  1  0  0  0  0  0  0
  192.9240  170.2330  143.2140 C   0  0  0  0  0  1  0  0  0  0  0  0
  196.6780  170.4830  143.9770 C   0  0  0  0  0  2  0  0  0  0  0  0
  191.9960  176.5390  145.6720 C   0  0  2  0  0  3  0  0  0  0  0  0
  189.0800  175.9700  146.2780 C   0  0  0  0  0  2  0  0  0  0  0  0
  193.0660  172.8260  145.3900 C   0  0  0  0  0  2  0  0  0  0  0  0
  196.7470  171.8930  144.5800 C   0  0  0  0  0  2  0  0  0  0  0  0
  191.8820  175.0000  145.6410 C   0  0  1  0  0  3  0  0  0  0  0  0
  191.1170  178.0230  143.9040 C   0  0  0  0  0  2  0  0  0  0  0  0
  195.4170  172.6580  144.5530 C   0  0  2  0  0  3  0  0  0  0  0  0
  195.4190  170.2470  143.1450 C   0  0  0  0  0  2  0  0  0  0  0  0
  189.5510  176.4220  144.9780 N   0  0  0  0  0  0  0  0  0  0  0  0
  194.3490  174.9160  144.9470 C   0  0  0  0  0  0  0  0  0  0  0  0
  194.1180  170.5610  145.4050 C   0  0  2  0  0  3  0  0  0  0  0  0
  193.2380  174.3000  145.7640 C   0  0  2  0  0  3  0  0  0  0  0  0
  196.4630  176.1000  143.5040 C   0  0  0  0  0  3  0  0  0  0  0  0
  189.5540  174.5520  146.5180 C   0  0  0  0  0  2  0  0  0  0  0  0
  196.5490  174.7200  143.8480 N   0  0  0  0  0  2  0  0  0  0  0  0
  191.0390  174.5410  146.8300 C   0  0  0  0  0  2  0  0  0  0  0  0
  190.7240  177.2920  145.1910 C   0  0  1  0  0  3  0  0  0  0  0  0
  195.4230  176.7880  143.8550 N   0  0  0  0  0  0  0  0  0  0  0  0
  193.1130  177.0810  144.7840 C   0  0  1  0  0  3  0  0  0  0  0  0
  188.4460  177.2060  144.4330 C   0  0  0  0  0  2  0  0  0  0  0  0
  187.2760  176.2980  144.0770 C   0  0  0  0  0  2  0  0  0  0  0  0
  186.2860  179.1430  142.7350 O   0  0  0  0  0  0  0  0  0  0  0  0
  185.5670  176.9390  142.4720 N   0  0  0  0  0  2  0  0  0  0  0  0
  186.0040  177.0970  143.8410 C   0  0  2  0  0  3  0  0  0  0  0  0
  185.4760  178.2980  141.9630 C   0  0  0  0  0  2  0  0  0  0  0  0
  186.2980  178.5640  144.0060 C   0  0  0  0  0  2  0  0  0  0  0  0
  1 27  1  0  0  0  0
  1 18  2  0  0  0  0
  2 14  1  0  0  0  0
  2 27  1  0  0  0  0
  3  7  1  6  0  0  0
  3 19  1  0  0  0  0
  4 23  1  6  0  0  0
  4 18  1  0  0  0  0
  5 11  1  6  0  0  0
  8 12  1  0  0  0  0
 10 22  1  0  0  0  0
 11 20  1  0  0  0  0
 13  9  1  0  0  0  0
 13 20  1  0  0  0  0
 13 24  1  0  0  0  0
 14 25  1  0  0  0  0
 15 12  1  0  0  0  0
 15  4  1  0  0  0  0
 15  5  1  0  0  0  0
 16  8  1  0  0  0  0
 16  3  1  0  0  0  0
 17 25  1  0  0  0  0
 17 10  1  0  0  0  0
 18 20  1  0  0  0  0
 19  5  1  0  0  0  0
 19  6  1  0  0  0  0
 21 23  1  0  0  0  0
 21 26  2  0  0  0  0
 22 24  1  0  0  0  0
 25  9  1  0  0  0  0
 26  1  1  0  0  0  0
 27  9  1  0  0  0  0
 28 17  1  0  0  0  0
 29 28  1  0  0  0  0
 30 34  1  0  0  0  0
 31 32  1  0  0  0  0
 32 34  1  0  0  0  0
 32 29  1  0  0  0  0
 33 31  1  0  0  0  0
 33 30  1  0  0  0  0
M  END
>  <MODEL>
8

>  <REMARK>
 VINA RESULT:      -7.2      2.795      8.731
  Name = 
  3 active torsions:
  status: ('A' for Active; 'I' for Inactive)
    1  A    between atoms: N_17  and  C_28
    2  A    between atoms: C_28  and  C_29
    3  A    between atoms: C_29  and  C_32
                            x       y       z     vdW  Elec       q    Type
                         _______ _______ _______ _____ _____    ______ ____

>  <TORSDO>
F 3

$$$$
=
 OpenBabel11112417483D

 34 40  0  0  1  0  0  0  0  0999 V2000
  192.4900  175.9440  144.8370 C   0  0  0  0  0  0  0  0  0  0  0  0
  190.3830  177.2270  144.5270 C   0  0  0  0  0  2  0  0  0  0  0  0
  195.8270  174.5690  139.6670 C   0  0  1  0  0  3  0  0  0  0  0  0
  194.6870  175.1250  144.0320 C   0  0  2  0  0  3  0  0  0  0  0  0
  194.6600  173.7750  141.9010 C   0  0  2  0  0  3  0  0  0  0  0  0
  196.2500  172.2680  140.6440 C   0  0  0  0  0  1  0  0  0  0  0  0
  194.7010  175.3300  138.9960 C   0  0  0  0  0  1  0  0  0  0  0  0
  197.6120  174.9150  141.4630 C   0  0  0  0  0  2  0  0  0  0  0  0
  190.2500  174.8360  144.1540 C   0  0  2  0  0  3  0  0  0  0  0  0
  188.0500  173.9060  142.2850 C   0  0  0  0  0  2  0  0  0  0  0  0
  193.1720  174.0510  141.7360 C   0  0  0  0  0  2  0  0  0  0  0  0
  196.8420  174.7700  142.7820 C   0  0  0  0  0  2  0  0  0  0  0  0
  190.9850  174.3940  142.8710 C   0  0  1  0  0  3  0  0  0  0  0  0
  188.9210  176.9100  144.3370 C   0  0  0  0  0  2  0  0  0  0  0  0
  195.3230  174.9440  142.6500 C   0  0  2  0  0  3  0  0  0  0  0  0
  196.7840  175.5560  140.3510 C   0  0  0  0  0  2  0  0  0  0  0  0
  188.3510  175.3080  142.5280 N   0  0  0  0  0  0  0  0  0  0  0  0
  193.1710  175.1830  143.9560 C   0  0  0  0  0  0  0  0  0  0  0  0
  195.2680  173.4200  140.5320 C   0  0  2  0  0  3  0  0  0  0  0  0
  192.4800  174.1510  143.0960 C   0  0  2  0  0  3  0  0  0  0  0  0
  194.4660  177.0450  145.6320 C   0  0  0  0  0  3  0  0  0  0  0  0
  189.1810  173.2800  141.4970 C   0  0  0  0  0  2  0  0  0  0  0  0
  195.2400  176.3070  144.6900 N   0  0  0  0  0  2  0  0  0  0  0  0
  190.3910  173.0710  142.3880 C   0  0  0  0  0  2  0  0  0  0  0  0
  188.8370  175.4410  143.9140 C   0  0  1  0  0  3  0  0  0  0  0  0
  193.1870  176.8540  145.7050 N   0  0  0  0  0  0  0  0  0  0  0  0
  190.9930  175.9140  144.9380 C   0  0  1  0  0  3  0  0  0  0  0  0
  187.0700  175.9940  142.3850 C   0  0  0  0  0  2  0  0  0  0  0  0
  187.0830  176.8950  141.1560 C   0  0  0  0  0  2  0  0  0  0  0  0
  183.9830  177.9790  141.4630 O   0  0  0  0  0  0  0  0  0  0  0  0
  185.8880  178.2480  142.7840 N   0  0  0  0  0  2  0  0  0  0  0  0
  186.3160  178.1840  141.4050 C   0  0  2  0  0  3  0  0  0  0  0  0
  184.4480  178.4310  142.7060 C   0  0  0  0  0  2  0  0  0  0  0  0
  185.0530  178.1800  140.5870 C   0  0  0  0  0  2  0  0  0  0  0  0
  1 27  1  0  0  0  0
  1 26  1  0  0  0  0
  2 27  1  0  0  0  0
  3  7  1  1  0  0  0
  3 16  1  0  0  0  0
  3 19  1  0  0  0  0
  4 18  1  6  0  0  0
  4 23  1  0  0  0  0
  5 11  1  6  0  0  0
  5 15  1  0  0  0  0
  8 12  1  0  0  0  0
  9 27  1  0  0  0  0
 10 17  1  0  0  0  0
 11 20  1  0  0  0  0
 13 20  1  0  0  0  0
 13  9  1  0  0  0  0
 14  2  1  0  0  0  0
 15 12  1  0  0  0  0
 15  4  1  0  0  0  0
 16  8  1  0  0  0  0
 17 25  1  0  0  0  0
 18  1  2  0  0  0  0
 19  6  1  0  0  0  0
 19  5  1  0  0  0  0
 20 18  1  0  0  0  0
 21 26  2  0  0  0  0
 22 10  1  0  0  0  0
 22 24  1  0  0  0  0
 23 21  1  0  0  0  0
 24 13  1  0  0  0  0
 25  9  1  0  0  0  0
 25 14  1  0  0  0  0
 28 17  1  0  0  0  0
 29 32  1  0  0  0  0
 29 28  1  0  0  0  0
 30 33  1  0  0  0  0
 32 31  1  0  0  0  0
 33 31  1  0  0  0  0
 34 32  1  0  0  0  0
 34 30  1  0  0  0  0
M  END
>  <MODEL>
9

>  <REMARK>
 VINA RESULT:      -7.1      3.213      9.123
  Name = 
  3 active torsions:
  status: ('A' for Active; 'I' for Inactive)
    1  A    between atoms: N_17  and  C_28
    2  A    between atoms: C_28  and  C_29
    3  A    between atoms: C_29  and  C_32
                            x       y       z     vdW  Elec       q    Type
                         _______ _______ _______ _____ _____    ______ ____

>  <TORSDO>
F 3

$$$$
