=
 OpenBabel11112416473D

 31 35  0  0  1  0  0  0  0  0999 V2000
  184.8510  178.1160  146.8370 C   0  0  0  0  0  0  0  0  0  0  0  0
  186.7800  177.6610  143.6320 C   0  0  0  0  0  0  0  0  0  0  0  0
  185.8440  177.8260  142.5570 C   0  0  0  0  0  0  0  0  0  0  0  0
  191.3620  176.8120  146.1220 O   0  0  0  0  0  0  0  0  0  0  0  0
  191.5460  176.7320  144.8790 C   0  0  0  0  0  0  0  0  0  0  0  0
  183.5930  178.2600  141.7040 C   0  0  0  0  0  0  0  0  0  0  0  0
  186.4430  177.7580  145.0170 C   0  0  0  0  0  0  0  0  0  0  0  0
  185.8640  177.9310  147.7770 C   0  0  0  0  0  3  0  0  0  0  0  0
  184.4810  178.1040  142.7700 C   0  0  0  0  0  3  0  0  0  0  0  0
  189.0980  177.2100  144.3080 C   0  0  0  0  0  0  0  0  0  0  0  0
  183.5870  178.3780  147.2450 F   0  0  0  0  0  0  0  0  0  0  0  0
  187.6200  177.4350  140.9290 C   0  0  0  0  0  3  0  0  0  0  0  0
  182.1610  178.5530  141.9690 C   0  0  0  0  0  1  0  0  0  0  0  0
  188.7320  177.3100  145.6100 N   0  0  0  0  0  0  0  0  0  0  0  0
  188.1390  177.3810  143.2980 C   0  0  0  0  0  0  0  0  0  0  0  0
  190.4620  176.9270  143.9610 N   0  0  0  0  0  2  0  0  0  0  0  0
  185.1410  178.0290  145.4740 C   0  0  0  0  0  3  0  0  0  0  0  0
  184.0500  178.1410  140.3930 C   0  0  0  0  0  3  0  0  0  0  0  0
  187.4590  177.5740  145.9890 C   0  0  0  0  0  0  0  0  0  0  0  0
  187.1650  177.6620  147.3530 C   0  0  0  0  0  3  0  0  0  0  0  0
  188.5340  177.2730  141.9590 C   0  0  0  0  0  3  0  0  0  0  0  0
  186.2880  177.7080  141.2120 C   0  0  0  0  0  0  0  0  0  0  0  0
  185.3940  177.8660  140.1480 C   0  0  0  0  0  3  0  0  0  0  0  0
  193.4700  173.6810  144.4280 C   0  0  1  0  0  3  0  0  0  0  0  0
  192.8820  175.4730  143.1670 C   0  0  0  0  0  2  0  0  0  0  0  0
  193.8250  176.6860  146.6060 C   0  0  0  0  0  1  0  0  0  0  0  0
  193.1680  172.3000  144.7550 N   0  0  0  0  0  1  0  0  0  0  0  0
  192.4720  174.1890  143.5760 O   0  0  0  0  0  0  0  0  0  0  0  0
  193.8600  175.8930  145.3840 N   0  0  0  0  0  0  0  0  0  0  0  0
  192.9330  176.4310  144.3650 C   0  0  2  0  0  3  0  0  0  0  0  0
  193.5290  174.5070  145.7150 C   0  0  0  0  0  2  0  0  0  0  0  0
  1 11  1  0  0  0  0
  1  8  1  0  0  0  0
  2  7  1  0  0  0  0
  3  9  1  0  0  0  0
  3  2  2  0  0  0  0
  5  4  2  0  0  0  0
  6 13  1  0  0  0  0
  6  9  2  0  0  0  0
  7 17  1  0  0  0  0
  7 19  2  0  0  0  0
 10 14  2  0  0  0  0
 12 22  2  0  0  0  0
 12 21  1  0  0  0  0
 14 19  1  0  0  0  0
 15  2  1  0  0  0  0
 15 10  1  0  0  0  0
 16 10  1  0  0  0  0
 16  5  1  0  0  0  0
 17  1  2  0  0  0  0
 18  6  1  0  0  0  0
 19 20  1  0  0  0  0
 20  8  2  0  0  0  0
 21 15  2  0  0  0  0
 22  3  1  0  0  0  0
 23 18  2  0  0  0  0
 23 22  1  0  0  0  0
 24 27  1  1  0  0  0
 24 31  1  0  0  0  0
 25 28  1  0  0  0  0
 25 30  1  0  0  0  0
 28 24  1  0  0  0  0
 29 31  1  0  0  0  0
 29 26  1  0  0  0  0
 30  5  1  1  0  0  0
 30 29  1  0  0  0  0
M  END
>  <MODEL>
1

>  <REMARK>
 VINA RESULT:     -10.0      0.000      0.000
  Name = 
  1 active torsions:
  status: ('A' for Active; 'I' for Inactive)
    1  A    between atoms: C_5  and  C_30
                            x       y       z     vdW  Elec       q    Type
                         _______ _______ _______ _____ _____    ______ ____

>  <TORSDO>
F 1

$$$$
=
 OpenBabel11112416473D

 31 35  0  0  1  0  0  0  0  0999 V2000
  188.0620  177.0410  141.5260 C   0  0  0  0  0  0  0  0  0  0  0  0
  185.5850  178.1100  144.1570 C   0  0  0  0  0  0  0  0  0  0  0  0
  186.2780  178.0940  145.4120 C   0  0  0  0  0  0  0  0  0  0  0  0
  181.6580  178.7360  140.6770 O   0  0  0  0  0  0  0  0  0  0  0  0
  181.2330  179.0020  141.8310 C   0  0  0  0  0  0  0  0  0  0  0  0
  188.2830  177.7240  146.7640 C   0  0  0  0  0  0  0  0  0  0  0  0
  186.1760  177.7660  142.9020 C   0  0  0  0  0  0  0  0  0  0  0  0
  187.2670  177.1000  140.3820 C   0  0  0  0  0  3  0  0  0  0  0  0
  187.6330  177.7300  145.5290 C   0  0  0  0  0  3  0  0  0  0  0  0
  183.4810  178.5300  142.9590 C   0  0  0  0  0  0  0  0  0  0  0  0
  189.3590  176.6630  141.4310 F   0  0  0  0  0  0  0  0  0  0  0  0
  184.2530  178.8260  146.5610 C   0  0  0  0  0  3  0  0  0  0  0  0
  189.7150  177.3330  146.8470 C   0  0  0  0  0  1  0  0  0  0  0  0
  184.0850  178.1940  141.7920 N   0  0  0  0  0  0  0  0  0  0  0  0
  184.2110  178.4960  144.1580 C   0  0  0  0  0  0  0  0  0  0  0  0
  182.0990  178.9170  142.9710 N   0  0  0  0  0  2  0  0  0  0  0  0
  187.5190  177.3700  142.7700 C   0  0  0  0  0  3  0  0  0  0  0  0
  187.5900  178.0820  147.9180 C   0  0  0  0  0  3  0  0  0  0  0  0
  185.3850  177.8200  141.7270 C   0  0  0  0  0  0  0  0  0  0  0  0
  185.9320  177.4900  140.4840 C   0  0  0  0  0  3  0  0  0  0  0  0
  183.5720  178.8450  145.3530 C   0  0  0  0  0  3  0  0  0  0  0  0
  185.5910  178.4550  146.6020 C   0  0  0  0  0  0  0  0  0  0  0  0
  186.2470  178.4470  147.8370 C   0  0  0  0  0  3  0  0  0  0  0  0
  178.0670  177.7210  140.5850 C   0  0  1  0  0  3  0  0  0  0  0  0
  178.9550  178.2790  142.5980 C   0  0  0  0  0  2  0  0  0  0  0  0
  179.9830  180.8790  140.0730 C   0  0  0  0  0  1  0  0  0  0  0  0
  177.7660  176.6340  139.6730 N   0  0  0  0  0  1  0  0  0  0  0  0
  178.8150  177.2270  141.6700 O   0  0  0  0  0  0  0  0  0  0  0  0
  179.1470  179.9040  140.7620 N   0  0  0  0  0  0  0  0  0  0  0  0
  179.7920  179.4190  142.0000 C   0  0  2  0  0  3  0  0  0  0  0  0
  178.8670  178.7970  139.8460 C   0  0  0  0  0  2  0  0  0  0  0  0
  1 17  1  0  0  0  0
  2 15  2  0  0  0  0
  2  3  1  0  0  0  0
  3  9  2  0  0  0  0
  3 22  1  0  0  0  0
  4  5  2  0  0  0  0
  5 16  1  0  0  0  0
  6 13  1  0  0  0  0
  6 18  2  0  0  0  0
  7  2  1  0  0  0  0
  8 20  1  0  0  0  0
  8  1  2  0  0  0  0
  9  6  1  0  0  0  0
 10 16  1  0  0  0  0
 10 15  1  0  0  0  0
 11  1  1  0  0  0  0
 12 22  1  0  0  0  0
 14 10  2  0  0  0  0
 15 21  1  0  0  0  0
 17  7  2  0  0  0  0
 19 14  1  0  0  0  0
 19  7  1  0  0  0  0
 20 19  2  0  0  0  0
 21 12  2  0  0  0  0
 22 23  2  0  0  0  0
 23 18  1  0  0  0  0
 24 27  1  6  0  0  0
 24 28  1  0  0  0  0
 26 29  1  0  0  0  0
 28 25  1  0  0  0  0
 29 30  1  0  0  0  0
 30  5  1  6  0  0  0
 30 25  1  0  0  0  0
 31 24  1  0  0  0  0
 31 29  1  0  0  0  0
M  END
>  <MODEL>
2

>  <REMARK>
 VINA RESULT:      -9.6      5.181      9.809
  Name = 
  1 active torsions:
  status: ('A' for Active; 'I' for Inactive)
    1  A    between atoms: C_5  and  C_30
                            x       y       z     vdW  Elec       q    Type
                         _______ _______ _______ _____ _____    ______ ____

>  <TORSDO>
F 1

$$$$
=
 OpenBabel11112416473D

 31 35  0  0  1  0  0  0  0  0999 V2000
  184.8440  178.5050  146.4730 C   0  0  0  0  0  0  0  0  0  0  0  0
  187.3450  177.3570  143.8990 C   0  0  0  0  0  0  0  0  0  0  0  0
  186.7090  177.4770  142.6190 C   0  0  0  0  0  0  0  0  0  0  0  0
  191.0730  176.3260  147.4990 O   0  0  0  0  0  0  0  0  0  0  0  0
  191.5150  176.0440  146.3550 C   0  0  0  0  0  0  0  0  0  0  0  0
  184.7990  178.0550  141.2060 C   0  0  0  0  0  0  0  0  0  0  0  0
  186.7280  177.6950  145.1430 C   0  0  0  0  0  0  0  0  0  0  0  0
  185.5810  178.3370  147.6440 C   0  0  0  0  0  3  0  0  0  0  0  0
  185.3920  177.9480  142.4650 C   0  0  0  0  0  3  0  0  0  0  0  0
  189.3580  176.7290  145.1600 C   0  0  0  0  0  0  0  0  0  0  0  0
  183.5760  178.9770  146.5330 F   0  0  0  0  0  0  0  0  0  0  0  0
  188.7220  176.6400  141.5210 C   0  0  0  0  0  3  0  0  0  0  0  0
  183.4050  178.5560  141.0830 C   0  0  0  0  0  1  0  0  0  0  0  0
  188.7310  177.0620  146.3160 N   0  0  0  0  0  0  0  0  0  0  0  0
  188.6850  176.8680  143.9360 C   0  0  0  0  0  0  0  0  0  0  0  0
  190.7050  176.2340  145.1870 N   0  0  0  0  0  2  0  0  0  0  0  0
  185.4130  178.1860  145.2390 C   0  0  0  0  0  3  0  0  0  0  0  0
  185.5120  177.6910  140.0650 C   0  0  0  0  0  3  0  0  0  0  0  0
  187.4610  177.5310  146.3450 C   0  0  0  0  0  0  0  0  0  0  0  0
  186.8870  177.8520  147.5790 C   0  0  0  0  0  3  0  0  0  0  0  0
  189.3470  176.5190  142.7530 C   0  0  0  0  0  3  0  0  0  0  0  0
  187.4180  177.1120  141.4430 C   0  0  0  0  0  0  0  0  0  0  0  0
  186.8190  177.2210  140.1840 C   0  0  0  0  0  3  0  0  0  0  0  0
  193.9550  175.9550  143.6620 C   0  0  1  0  0  3  0  0  0  0  0  0
  193.9020  176.6160  145.8320 C   0  0  0  0  0  2  0  0  0  0  0  0
  192.0380  173.3570  145.5270 C   0  0  0  0  0  1  0  0  0  0  0  0
  193.8740  176.3870  142.2800 N   0  0  0  0  0  1  0  0  0  0  0  0
  193.6650  177.0400  144.5090 O   0  0  0  0  0  0  0  0  0  0  0  0
  193.0570  174.3710  145.2890 N   0  0  0  0  0  0  0  0  0  0  0  0
  192.9190  175.5050  146.2270 C   0  0  2  0  0  3  0  0  0  0  0  0
  192.9520  174.8230  143.9010 C   0  0  0  0  0  2  0  0  0  0  0  0
  1 11  1  0  0  0  0
  1  8  1  0  0  0  0
  2 15  1  0  0  0  0
  2  7  1  0  0  0  0
  3  2  2  0  0  0  0
  5  4  2  0  0  0  0
  6  9  2  0  0  0  0
  7 17  1  0  0  0  0
  7 19  2  0  0  0  0
  9  3  1  0  0  0  0
 10 16  1  0  0  0  0
 10 14  2  0  0  0  0
 12 21  1  0  0  0  0
 13  6  1  0  0  0  0
 14 19  1  0  0  0  0
 15 10  1  0  0  0  0
 16  5  1  0  0  0  0
 17  1  2  0  0  0  0
 18 23  2  0  0  0  0
 18  6  1  0  0  0  0
 19 20  1  0  0  0  0
 20  8  2  0  0  0  0
 21 15  2  0  0  0  0
 22 12  2  0  0  0  0
 22  3  1  0  0  0  0
 23 22  1  0  0  0  0
 24 27  1  6  0  0  0
 24 31  1  0  0  0  0
 24 28  1  0  0  0  0
 25 30  1  0  0  0  0
 28 25  1  0  0  0  0
 29 26  1  0  0  0  0
 29 30  1  0  0  0  0
 30  5  1  6  0  0  0
 31 29  1  0  0  0  0
M  END
>  <MODEL>
3

>  <REMARK>
 VINA RESULT:      -9.4      1.237      1.833
  Name = 
  1 active torsions:
  status: ('A' for Active; 'I' for Inactive)
    1  A    between atoms: C_5  and  C_30
                            x       y       z     vdW  Elec       q    Type
                         _______ _______ _______ _____ _____    ______ ____

>  <TORSDO>
F 1

$$$$
=
 OpenBabel11112416473D

 31 35  0  0  1  0  0  0  0  0999 V2000
  185.4460  177.8940  140.9940 C   0  0  0  0  0  0  0  0  0  0  0  0
  187.4100  176.5020  143.8930 C   0  0  0  0  0  0  0  0  0  0  0  0
  186.7320  176.9110  145.0890 C   0  0  0  0  0  0  0  0  0  0  0  0
  191.0080  174.2040  140.7810 O   0  0  0  0  0  0  0  0  0  0  0  0
  191.3060  173.9880  141.9850 C   0  0  0  0  0  0  0  0  0  0  0  0
  184.9190  178.0710  146.2510 C   0  0  0  0  0  0  0  0  0  0  0  0
  186.9810  176.8280  142.5700 C   0  0  0  0  0  0  0  0  0  0  0  0
  186.2040  177.4290  139.9200 C   0  0  0  0  0  3  0  0  0  0  0  0
  185.5580  177.6870  145.0710 C   0  0  0  0  0  3  0  0  0  0  0  0
  189.2980  175.2870  142.8960 C   0  0  0  0  0  0  0  0  0  0  0  0
  184.3350  178.6350  140.7680 F   0  0  0  0  0  0  0  0  0  0  0  0
  188.4020  175.7630  146.4490 C   0  0  0  0  0  3  0  0  0  0  0  0
  183.6800  178.8910  146.1910 C   0  0  0  0  0  1  0  0  0  0  0  0
  188.8530  175.6220  141.6590 N   0  0  0  0  0  0  0  0  0  0  0  0
  188.5920  175.7160  144.0310 C   0  0  0  0  0  0  0  0  0  0  0  0
  190.4880  174.4980  143.0460 N   0  0  0  0  0  2  0  0  0  0  0  0
  185.8330  177.5960  142.3020 C   0  0  0  0  0  3  0  0  0  0  0  0
  185.4410  177.6850  147.4840 C   0  0  0  0  0  3  0  0  0  0  0  0
  187.7380  176.3640  141.4640 C   0  0  0  0  0  0  0  0  0  0  0  0
  187.3470  176.6650  140.1560 C   0  0  0  0  0  3  0  0  0  0  0  0
  189.0660  175.3620  145.3000 C   0  0  0  0  0  3  0  0  0  0  0  0
  187.2470  176.5300  146.3570 C   0  0  0  0  0  0  0  0  0  0  0  0
  186.6020  176.9160  147.5360 C   0  0  0  0  0  3  0  0  0  0  0  0
  193.6700  173.9400  144.7460 C   0  0  1  0  0  3  0  0  0  0  0  0
  192.3870  172.4350  143.6330 C   0  0  0  0  0  2  0  0  0  0  0  0
  193.9110  174.7960  141.1250 C   0  0  0  0  0  1  0  0  0  0  0  0
  193.7790  174.7730  145.9290 N   0  0  0  0  0  1  0  0  0  0  0  0
  192.3950  173.3450  144.7090 O   0  0  0  0  0  0  0  0  0  0  0  0
  193.7970  173.9530  142.3080 N   0  0  0  0  0  0  0  0  0  0  0  0
  192.5390  173.1760  142.2970 C   0  0  2  0  0  3  0  0  0  0  0  0
  193.8810  174.8010  143.4980 C   0  0  0  0  0  2  0  0  0  0  0  0
  1 17  1  0  0  0  0
  2 15  2  0  0  0  0
  2  3  1  0  0  0  0
  3 22  1  0  0  0  0
  4  5  2  0  0  0  0
  5 16  1  0  0  0  0
  6 18  2  0  0  0  0
  7  2  1  0  0  0  0
  8 20  1  0  0  0  0
  8  1  2  0  0  0  0
  9  3  2  0  0  0  0
  9  6  1  0  0  0  0
 10 16  1  0  0  0  0
 10 15  1  0  0  0  0
 11  1  1  0  0  0  0
 13  6  1  0  0  0  0
 14 10  2  0  0  0  0
 15 21  1  0  0  0  0
 17  7  2  0  0  0  0
 18 23  1  0  0  0  0
 19 14  1  0  0  0  0
 19  7  1  0  0  0  0
 20 19  2  0  0  0  0
 21 12  2  0  0  0  0
 22 12  1  0  0  0  0
 22 23  2  0  0  0  0
 24 27  1  1  0  0  0
 25 28  1  0  0  0  0
 26 29  1  0  0  0  0
 28 24  1  0  0  0  0
 29 31  1  0  0  0  0
 30  5  1  1  0  0  0
 30 29  1  0  0  0  0
 30 25  1  0  0  0  0
 31 24  1  0  0  0  0
M  END
>  <MODEL>
4

>  <REMARK>
 VINA RESULT:      -9.4      2.241      4.582
  Name = 
  1 active torsions:
  status: ('A' for Active; 'I' for Inactive)
    1  A    between atoms: C_5  and  C_30
                            x       y       z     vdW  Elec       q    Type
                         _______ _______ _______ _____ _____    ______ ____

>  <TORSDO>
F 1

$$$$
=
 OpenBabel11112416473D

 31 35  0  0  1  0  0  0  0  0999 V2000
  190.8160  177.0910  147.6380 C   0  0  0  0  0  0  0  0  0  0  0  0
  188.8230  176.1510  144.5810 C   0  0  0  0  0  0  0  0  0  0  0  0
  187.5450  176.7880  144.7060 C   0  0  0  0  0  0  0  0  0  0  0  0
  192.7240  173.2340  142.5300 O   0  0  0  0  0  0  0  0  0  0  0  0
  191.7280  173.1930  141.7600 C   0  0  0  0  0  0  0  0  0  0  0  0
  185.9480  178.2040  145.9010 C   0  0  0  0  0  0  0  0  0  0  0  0
  189.8770  176.2580  145.5410 C   0  0  0  0  0  0  0  0  0  0  0  0
  192.0100  176.4160  147.3880 C   0  0  0  0  0  3  0  0  0  0  0  0
  187.2010  177.5950  145.8060 C   0  0  0  0  0  3  0  0  0  0  0  0
  190.2960  174.7070  143.2450 C   0  0  0  0  0  0  0  0  0  0  0  0
  190.6770  177.8260  148.7670 F   0  0  0  0  0  0  0  0  0  0  0  0
  186.8400  175.8310  142.5740 C   0  0  0  0  0  3  0  0  0  0  0  0
  185.6220  179.0490  147.0800 C   0  0  0  0  0  1  0  0  0  0  0  0
  191.2660  174.8370  144.1840 N   0  0  0  0  0  0  0  0  0  0  0  0
  189.0630  175.3550  143.4210 C   0  0  0  0  0  0  0  0  0  0  0  0
  190.5250  173.9070  142.0760 N   0  0  0  0  0  2  0  0  0  0  0  0
  189.7640  177.0110  146.7230 C   0  0  0  0  0  3  0  0  0  0  0  0
  185.0050  178.0190  144.8930 C   0  0  0  0  0  3  0  0  0  0  0  0
  191.0980  175.5780  145.3040 C   0  0  0  0  0  0  0  0  0  0  0  0
  192.1490  175.6620  146.2230 C   0  0  0  0  0  3  0  0  0  0  0  0
  188.0730  175.2090  142.4430 C   0  0  0  0  0  3  0  0  0  0  0  0
  186.5680  176.6140  143.6890 C   0  0  0  0  0  0  0  0  0  0  0  0
  185.3150  177.2260  143.7890 C   0  0  0  0  0  3  0  0  0  0  0  0
  189.5300  172.7000  138.9080 C   0  0  1  0  0  3  0  0  0  0  0  0
  191.6960  173.2820  139.2520 C   0  0  0  0  0  2  0  0  0  0  0  0
  190.8160  170.4870  141.6190 C   0  0  0  0  0  1  0  0  0  0  0  0
  188.1910  173.1870  138.6340 N   0  0  0  0  0  1  0  0  0  0  0  0
  190.3870  173.7910  139.1410 O   0  0  0  0  0  0  0  0  0  0  0  0
  190.8440  171.2780  140.3960 N   0  0  0  0  0  0  0  0  0  0  0  0
  191.8220  172.3830  140.4900 C   0  0  2  0  0  3  0  0  0  0  0  0
  189.4970  171.7900  140.1390 C   0  0  0  0  0  2  0  0  0  0  0  0
  1 11  1  0  0  0  0
  2  3  1  0  0  0  0
  2  7  1  0  0  0  0
  3  9  1  0  0  0  0
  5 16  1  0  0  0  0
  5  4  2  0  0  0  0
  6 13  1  0  0  0  0
  7 17  1  0  0  0  0
  8  1  1  0  0  0  0
  9  6  2  0  0  0  0
 10 15  1  0  0  0  0
 10 14  2  0  0  0  0
 12 22  1  0  0  0  0
 14 19  1  0  0  0  0
 15  2  2  0  0  0  0
 16 10  1  0  0  0  0
 17  1  2  0  0  0  0
 18  6  1  0  0  0  0
 19  7  2  0  0  0  0
 19 20  1  0  0  0  0
 20  8  2  0  0  0  0
 21 12  2  0  0  0  0
 21 15  1  0  0  0  0
 22 23  1  0  0  0  0
 22  3  2  0  0  0  0
 23 18  2  0  0  0  0
 24 27  1  1  0  0  0
 24 28  1  0  0  0  0
 24 31  1  0  0  0  0
 25 30  1  0  0  0  0
 28 25  1  0  0  0  0
 29 30  1  0  0  0  0
 29 26  1  0  0  0  0
 30  5  1  1  0  0  0
 31 29  1  0  0  0  0
M  END
>  <MODEL>
5

>  <REMARK>
 VINA RESULT:      -9.3      3.427      5.160
  Name = 
  1 active torsions:
  status: ('A' for Active; 'I' for Inactive)
    1  A    between atoms: C_5  and  C_30
                            x       y       z     vdW  Elec       q    Type
                         _______ _______ _______ _____ _____    ______ ____

>  <TORSDO>
F 1

$$$$
=
 OpenBabel11112416473D

 31 35  0  0  1  0  0  0  0  0999 V2000
  190.9570  176.4260  147.3870 C   0  0  0  0  0  0  0  0  0  0  0  0
  188.2840  176.1590  144.7450 C   0  0  0  0  0  0  0  0  0  0  0  0
  187.2230  177.0410  145.1360 C   0  0  0  0  0  0  0  0  0  0  0  0
  191.0020  172.6450  141.8830 O   0  0  0  0  0  0  0  0  0  0  0  0
  189.8990  172.8730  141.3190 C   0  0  0  0  0  0  0  0  0  0  0  0
  186.2240  178.6690  146.6640 C   0  0  0  0  0  0  0  0  0  0  0  0
  189.4920  175.9690  145.4860 C   0  0  0  0  0  0  0  0  0  0  0  0
  191.9050  175.5350  146.8890 C   0  0  0  0  0  3  0  0  0  0  0  0
  187.2720  177.8180  146.3080 C   0  0  0  0  0  3  0  0  0  0  0  0
  189.1320  174.5400  143.1030 C   0  0  0  0  0  0  0  0  0  0  0  0
  191.1920  177.0870  148.5460 F   0  0  0  0  0  0  0  0  0  0  0  0
  185.9480  176.4160  143.1510 C   0  0  0  0  0  3  0  0  0  0  0  0
  186.3130  179.4740  147.9110 C   0  0  0  0  0  1  0  0  0  0  0  0
  190.2610  174.3920  143.8390 N   0  0  0  0  0  0  0  0  0  0  0  0
  188.1260  175.4190  143.5350 C   0  0  0  0  0  0  0  0  0  0  0  0
  188.9620  173.7990  141.8850 N   0  0  0  0  0  2  0  0  0  0  0  0
  189.7650  176.6390  146.6920 C   0  0  0  0  0  3  0  0  0  0  0  0
  185.0970  178.7630  145.8520 C   0  0  0  0  0  3  0  0  0  0  0  0
  190.4680  175.0660  144.9950 C   0  0  0  0  0  0  0  0  0  0  0  0
  191.6600  174.8570  145.6950 C   0  0  0  0  0  3  0  0  0  0  0  0
  186.9670  175.5590  142.7630 C   0  0  0  0  0  3  0  0  0  0  0  0
  186.0640  177.1530  144.3230 C   0  0  0  0  0  0  0  0  0  0  0  0
  185.0170  178.0070  144.6830 C   0  0  0  0  0  3  0  0  0  0  0  0
  191.6840  172.3750  138.1920 C   0  0  1  0  0  3  0  0  0  0  0  0
  190.6250  171.0770  139.7230 C   0  0  0  0  0  2  0  0  0  0  0  0
  188.5660  174.1800  139.1530 C   0  0  0  0  0  1  0  0  0  0  0  0
  192.9670  172.8730  137.7310 N   0  0  0  0  0  1  0  0  0  0  0  0
  191.8630  171.6650  139.3940 O   0  0  0  0  0  0  0  0  0  0  0  0
  189.4330  173.0470  138.8570 N   0  0  0  0  0  0  0  0  0  0  0  0
  189.5780  172.1580  140.0290 C   0  0  2  0  0  3  0  0  0  0  0  0
  190.7340  173.5540  138.4180 C   0  0  0  0  0  2  0  0  0  0  0  0
  1 11  1  0  0  0  0
  2  3  1  0  0  0  0
  2  7  1  0  0  0  0
  3  9  1  0  0  0  0
  5  4  2  0  0  0  0
  5 16  1  0  0  0  0
  6 13  1  0  0  0  0
  7 17  1  0  0  0  0
  8  1  1  0  0  0  0
  9  6  2  0  0  0  0
 10 15  1  0  0  0  0
 10 14  2  0  0  0  0
 12 22  1  0  0  0  0
 14 19  1  0  0  0  0
 15  2  2  0  0  0  0
 16 10  1  0  0  0  0
 17  1  2  0  0  0  0
 18  6  1  0  0  0  0
 19  7  2  0  0  0  0
 19 20  1  0  0  0  0
 20  8  2  0  0  0  0
 21 12  2  0  0  0  0
 21 15  1  0  0  0  0
 22 23  1  0  0  0  0
 22  3  2  0  0  0  0
 23 18  2  0  0  0  0
 24 27  1  1  0  0  0
 24 31  1  0  0  0  0
 24 28  1  0  0  0  0
 25 30  1  0  0  0  0
 28 25  1  0  0  0  0
 29 26  1  0  0  0  0
 29 30  1  0  0  0  0
 30  5  1  1  0  0  0
 31 29  1  0  0  0  0
M  END
>  <MODEL>
6

>  <REMARK>
 VINA RESULT:      -9.1      3.741      5.563
  Name = 
  1 active torsions:
  status: ('A' for Active; 'I' for Inactive)
    1  A    between atoms: C_5  and  C_30
                            x       y       z     vdW  Elec       q    Type
                         _______ _______ _______ _____ _____    ______ ____

>  <TORSDO>
F 1

$$$$
=
 OpenBabel11112416473D

 31 35  0  0  1  0  0  0  0  0999 V2000
  191.0730  176.0540  147.3580 C   0  0  0  0  0  0  0  0  0  0  0  0
  188.5890  176.0460  144.5250 C   0  0  0  0  0  0  0  0  0  0  0  0
  187.4480  176.7920  144.9710 C   0  0  0  0  0  0  0  0  0  0  0  0
  191.7110  173.1920  141.3580 O   0  0  0  0  0  0  0  0  0  0  0  0
  190.6310  173.4400  140.7600 C   0  0  0  0  0  0  0  0  0  0  0  0
  186.2480  178.0980  146.6560 C   0  0  0  0  0  0  0  0  0  0  0  0
  189.7600  175.8150  145.3110 C   0  0  0  0  0  0  0  0  0  0  0  0
  192.1090  175.3090  146.7970 C   0  0  0  0  0  3  0  0  0  0  0  0
  187.3720  177.3770  146.2490 C   0  0  0  0  0  3  0  0  0  0  0  0
  189.6440  174.7580  142.7190 C   0  0  0  0  0  0  0  0  0  0  0  0
  191.1910  176.5370  148.6180 F   0  0  0  0  0  0  0  0  0  0  0  0
  186.3410  176.4110  142.8290 C   0  0  0  0  0  3  0  0  0  0  0  0
  186.2060  178.7010  148.0140 C   0  0  0  0  0  1  0  0  0  0  0  0
  190.7350  174.5640  143.5010 N   0  0  0  0  0  0  0  0  0  0  0  0
  188.5560  175.4980  143.2080 C   0  0  0  0  0  0  0  0  0  0  0  0
  189.6000  174.2090  141.3930 N   0  0  0  0  0  2  0  0  0  0  0  0
  189.9140  176.3020  146.6220 C   0  0  0  0  0  3  0  0  0  0  0  0
  185.1680  178.2520  145.7900 C   0  0  0  0  0  3  0  0  0  0  0  0
  190.8250  175.0590  144.7580 C   0  0  0  0  0  0  0  0  0  0  0  0
  191.9840  174.8140  145.4990 C   0  0  0  0  0  3  0  0  0  0  0  0
  187.4390  175.6880  142.3870 C   0  0  0  0  0  3  0  0  0  0  0  0
  186.3340  176.9610  144.1050 C   0  0  0  0  0  0  0  0  0  0  0  0
  185.2110  177.6850  144.5170 C   0  0  0  0  0  3  0  0  0  0  0  0
  191.5990  170.3870  139.0420 C   0  0  1  0  0  3  0  0  0  0  0  0
  189.6940  171.5760  139.3650 C   0  0  0  0  0  2  0  0  0  0  0  0
  192.5060  173.9840  138.6700 C   0  0  0  0  0  1  0  0  0  0  0  0
  192.3850  169.2480  139.4790 N   0  0  0  0  0  1  0  0  0  0  0  0
  190.5060  170.5620  139.9100 O   0  0  0  0  0  0  0  0  0  0  0  0
  191.6880  172.7820  138.5780 N   0  0  0  0  0  0  0  0  0  0  0  0
  190.4390  172.9190  139.3560 C   0  0  2  0  0  3  0  0  0  0  0  0
  192.4760  171.6410  139.0460 C   0  0  0  0  0  2  0  0  0  0  0  0
  1 11  1  0  0  0  0
  2  3  1  0  0  0  0
  2  7  1  0  0  0  0
  3  9  1  0  0  0  0
  5  4  2  0  0  0  0
  5 16  1  0  0  0  0
  6 13  1  0  0  0  0
  7 17  1  0  0  0  0
  8  1  1  0  0  0  0
  9  6  2  0  0  0  0
 10 15  1  0  0  0  0
 10 14  2  0  0  0  0
 12 22  1  0  0  0  0
 14 19  1  0  0  0  0
 15  2  2  0  0  0  0
 16 10  1  0  0  0  0
 17  1  2  0  0  0  0
 18  6  1  0  0  0  0
 19  7  2  0  0  0  0
 19 20  1  0  0  0  0
 20  8  2  0  0  0  0
 21 12  2  0  0  0  0
 21 15  1  0  0  0  0
 22 23  1  0  0  0  0
 22  3  2  0  0  0  0
 23 18  2  0  0  0  0
 24 31  1  0  0  0  0
 24 27  1  1  0  0  0
 24 28  1  0  0  0  0
 25 28  1  0  0  0  0
 29 26  1  0  0  0  0
 29 31  1  0  0  0  0
 29 30  1  0  0  0  0
 30 25  1  0  0  0  0
 30  5  1  1  0  0  0
M  END
>  <MODEL>
7

>  <REMARK>
 VINA RESULT:      -8.9      3.725      5.474
  Name = 
  1 active torsions:
  status: ('A' for Active; 'I' for Inactive)
    1  A    between atoms: C_5  and  C_30
                            x       y       z     vdW  Elec       q    Type
                         _______ _______ _______ _____ _____    ______ ____

>  <TORSDO>
F 1

$$$$
=
 OpenBabel11112416473D

 31 35  0  0  1  0  0  0  0  0999 V2000
  190.2050  177.6160  147.6800 C   0  0  0  0  0  0  0  0  0  0  0  0
  189.1340  175.7650  144.5780 C   0  0  0  0  0  0  0  0  0  0  0  0
  187.9800  176.4460  144.0650 C   0  0  0  0  0  0  0  0  0  0  0  0
  193.0280  172.2130  144.9530 O   0  0  0  0  0  0  0  0  0  0  0  0
  192.3210  171.9460  143.9460 C   0  0  0  0  0  0  0  0  0  0  0  0
  186.3080  178.2280  144.1600 C   0  0  0  0  0  0  0  0  0  0  0  0
  189.8470  176.1570  145.7520 C   0  0  0  0  0  0  0  0  0  0  0  0
  191.3110  176.8600  148.0640 C   0  0  0  0  0  3  0  0  0  0  0  0
  187.4320  177.5850  144.6820 C   0  0  0  0  0  3  0  0  0  0  0  0
  190.7280  173.9130  144.3240 C   0  0  0  0  0  0  0  0  0  0  0  0
  189.8300  178.6910  148.4140 F   0  0  0  0  0  0  0  0  0  0  0  0
  187.8360  174.8500  142.2230 C   0  0  0  0  0  3  0  0  0  0  0  0
  185.7570  179.4290  144.8410 C   0  0  0  0  0  1  0  0  0  0  0  0
  191.3720  174.3210  145.4450 N   0  0  0  0  0  0  0  0  0  0  0  0
  189.6030  174.6190  143.8690 C   0  0  0  0  0  0  0  0  0  0  0  0
  191.1910  172.7600  143.6040 N   0  0  0  0  0  2  0  0  0  0  0  0
  189.4830  177.2660  146.5370 C   0  0  0  0  0  3  0  0  0  0  0  0
  185.7030  177.7440  143.0020 C   0  0  0  0  0  3  0  0  0  0  0  0
  190.9750  175.4000  146.1600 C   0  0  0  0  0  0  0  0  0  0  0  0
  191.6940  175.7550  147.3040 C   0  0  0  0  0  3  0  0  0  0  0  0
  188.9500  174.1830  142.7100 C   0  0  0  0  0  3  0  0  0  0  0  0
  187.3470  175.9700  142.8850 C   0  0  0  0  0  0  0  0  0  0  0  0
  186.2220  176.6170  142.3660 C   0  0  0  0  0  3  0  0  0  0  0  0
  195.1040  169.6080  143.9260 C   0  0  1  0  0  3  0  0  0  0  0  0
  192.8380  169.4900  143.9530 C   0  0  0  0  0  2  0  0  0  0  0  0
  193.8670  172.2060  141.5550 C   0  0  0  0  0  1  0  0  0  0  0  0
  196.3130  169.5500  144.7260 N   0  0  0  0  0  1  0  0  0  0  0  0
  193.9810  169.5830  144.7720 O   0  0  0  0  0  0  0  0  0  0  0  0
  193.8980  170.9380  142.2700 N   0  0  0  0  0  0  0  0  0  0  0  0
  192.6850  170.7540  143.0950 C   0  0  2  0  0  3  0  0  0  0  0  0
  195.1050  170.8950  143.0970 C   0  0  0  0  0  2  0  0  0  0  0  0
  1  8  1  0  0  0  0
  1 11  1  0  0  0  0
  2  7  1  0  0  0  0
  3  2  1  0  0  0  0
  3  9  1  0  0  0  0
  5  4  2  0  0  0  0
  6  9  2  0  0  0  0
  6 13  1  0  0  0  0
  7 19  2  0  0  0  0
  7 17  1  0  0  0  0
 10 14  2  0  0  0  0
 12 21  2  0  0  0  0
 12 22  1  0  0  0  0
 14 19  1  0  0  0  0
 15 10  1  0  0  0  0
 15  2  2  0  0  0  0
 16  5  1  0  0  0  0
 16 10  1  0  0  0  0
 17  1  2  0  0  0  0
 18  6  1  0  0  0  0
 19 20  1  0  0  0  0
 20  8  2  0  0  0  0
 21 15  1  0  0  0  0
 22  3  2  0  0  0  0
 23 22  1  0  0  0  0
 23 18  2  0  0  0  0
 24 27  1  1  0  0  0
 24 28  1  0  0  0  0
 25 28  1  0  0  0  0
 26 29  1  0  0  0  0
 29 30  1  0  0  0  0
 29 31  1  0  0  0  0
 30  5  1  1  0  0  0
 30 25  1  0  0  0  0
 31 24  1  0  0  0  0
M  END
>  <MODEL>
8

>  <REMARK>
 VINA RESULT:      -8.9      2.934      4.502
  Name = 
  1 active torsions:
  status: ('A' for Active; 'I' for Inactive)
    1  A    between atoms: C_5  and  C_30
                            x       y       z     vdW  Elec       q    Type
                         _______ _______ _______ _____ _____    ______ ____

>  <TORSDO>
F 1

$$$$
=
 OpenBabel11112416473D

 31 35  0  0  1  0  0  0  0  0999 V2000
  189.3120  174.8500  146.6070 C   0  0  0  0  0  0  0  0  0  0  0  0
  187.9480  176.2040  143.3650 C   0  0  0  0  0  0  0  0  0  0  0  0
  187.0600  177.2790  143.7040 C   0  0  0  0  0  0  0  0  0  0  0  0
  190.6760  172.7820  140.4050 O   0  0  0  0  0  0  0  0  0  0  0  0
  189.9820  173.5150  139.6540 C   0  0  0  0  0  0  0  0  0  0  0  0
  185.9450  178.7230  145.3330 C   0  0  0  0  0  0  0  0  0  0  0  0
  188.6730  175.4250  144.3180 C   0  0  0  0  0  0  0  0  0  0  0  0
  190.1410  173.8340  146.1350 C   0  0  0  0  0  3  0  0  0  0  0  0
  186.8150  177.6730  145.0330 C   0  0  0  0  0  3  0  0  0  0  0  0
  188.9780  174.8500  141.5930 C   0  0  0  0  0  0  0  0  0  0  0  0
  189.2080  175.0770  147.9380 F   0  0  0  0  0  0  0  0  0  0  0  0
  186.5850  177.6550  141.3400 C   0  0  0  0  0  3  0  0  0  0  0  0
  185.7110  179.1100  146.7490 C   0  0  0  0  0  1  0  0  0  0  0  0
  189.6450  174.1360  142.5330 N   0  0  0  0  0  0  0  0  0  0  0  0
  188.1220  175.8920  141.9840 C   0  0  0  0  0  0  0  0  0  0  0  0
  189.1440  174.5430  140.2010 N   0  0  0  0  0  2  0  0  0  0  0  0
  188.5880  175.6340  145.7060 C   0  0  0  0  0  3  0  0  0  0  0  0
  185.2970  179.4070  144.3070 C   0  0  0  0  0  3  0  0  0  0  0  0
  189.5220  174.3860  143.8580 C   0  0  0  0  0  0  0  0  0  0  0  0
  190.2450  173.6040  144.7630 C   0  0  0  0  0  3  0  0  0  0  0  0
  187.4400  176.6180  141.0000 C   0  0  0  0  0  3  0  0  0  0  0  0
  186.3890  177.9900  142.6740 C   0  0  0  0  0  0  0  0  0  0  0  0
  185.5190  179.0410  142.9800 C   0  0  0  0  0  3  0  0  0  0  0  0
  190.9850  170.7340  137.5390 C   0  0  1  0  0  3  0  0  0  0  0  0
  189.1870  172.1050  137.7360 C   0  0  0  0  0  2  0  0  0  0  0  0
  192.3140  174.1670  138.1330 C   0  0  0  0  0  1  0  0  0  0  0  0
  191.5360  169.4320  137.8660 N   0  0  0  0  0  1  0  0  0  0  0  0
  189.7520  170.8990  138.1970 O   0  0  0  0  0  0  0  0  0  0  0  0
  191.4180  173.1360  137.6280 N   0  0  0  0  0  0  0  0  0  0  0  0
  190.0490  173.3020  138.1610 C   0  0  2  0  0  3  0  0  0  0  0  0
  191.9640  171.8250  137.9830 C   0  0  0  0  0  2  0  0  0  0  0  0
  1 11  1  0  0  0  0
  2  3  1  0  0  0  0
  2  7  1  0  0  0  0
  3  9  1  0  0  0  0
  5 16  1  0  0  0  0
  5  4  2  0  0  0  0
  6 13  1  0  0  0  0
  7 17  1  0  0  0  0
  8  1  1  0  0  0  0
  9  6  2  0  0  0  0
 10 15  1  0  0  0  0
 10 14  2  0  0  0  0
 12 22  1  0  0  0  0
 14 19  1  0  0  0  0
 15  2  2  0  0  0  0
 16 10  1  0  0  0  0
 17  1  2  0  0  0  0
 18  6  1  0  0  0  0
 19  7  2  0  0  0  0
 19 20  1  0  0  0  0
 20  8  2  0  0  0  0
 21 12  2  0  0  0  0
 21 15  1  0  0  0  0
 22 23  1  0  0  0  0
 22  3  2  0  0  0  0
 23 18  2  0  0  0  0
 24 27  1  1  0  0  0
 24 31  1  0  0  0  0
 24 28  1  0  0  0  0
 25 30  1  0  0  0  0
 25 28  1  0  0  0  0
 29 31  1  0  0  0  0
 29 26  1  0  0  0  0
 29 30  1  0  0  0  0
 30  5  1  1  0  0  0
M  END
>  <MODEL>
9

>  <REMARK>
 VINA RESULT:      -8.8      4.169      5.531
  Name = 
  1 active torsions:
  status: ('A' for Active; 'I' for Inactive)
    1  A    between atoms: C_5  and  C_30
                            x       y       z     vdW  Elec       q    Type
                         _______ _______ _______ _____ _____    ______ ____

>  <TORSDO>
F 1

$$$$
