=
 OpenBabel11112418023D

 34 42  0  0  1  0  0  0  0  0999 V2000
  186.0150  177.2870  145.5790 C   0  0  0  0  0  0  0  0  0  0  0  0
  184.0720  178.6680  144.6110 C   0  0  0  0  0  2  0  0  0  0  0  0
  192.0620  174.4910  144.8670 C   0  0  1  0  0  0  0  0  0  0  0  0
  188.0720  176.2020  146.3100 C   0  0  0  0  0  0  0  0  0  0  0  0
  189.7950  175.6610  144.5510 C   0  0  0  0  0  0  0  0  0  0  0  0
  191.6010  174.6590  142.9760 C   0  0  1  0  0  3  0  0  0  0  0  0
  192.5980  173.9590  143.6550 O   0  0  0  0  0  0  0  0  0  0  0  0
  191.7000  175.3630  147.1260 C   0  0  0  0  0  3  0  0  0  0  0  0
  185.4400  177.4170  143.1360 C   0  0  2  0  0  3  0  0  0  0  0  0
  185.4820  178.0990  140.0780 C   0  0  0  0  0  3  0  0  0  0  0  0
  188.9060  176.2180  143.5750 N   0  0  0  0  0  0  0  0  0  0  0  0
  190.4430  175.8340  147.0420 C   0  0  0  0  0  3  0  0  0  0  0  0
  186.9250  177.3830  142.7810 C   0  0  1  0  0  3  0  0  0  0  0  0
  183.6050  178.9120  143.2430 N   0  0  0  0  0  2  0  0  0  0  0  0
  189.3850  175.5190  146.0010 C   0  0  0  0  0  0  0  0  0  0  0  0
  192.4320  174.5430  146.1380 C   0  0  0  0  0  2  0  0  0  0  0  0
  184.3090  178.0000  141.0190 C   0  0  1  0  0  3  0  0  0  0  0  0
  187.2670  176.7240  145.2770 C   0  0  0  0  0  0  0  0  0  0  0  0
  190.9080  175.0730  144.1540 C   0  0  2  0  0  3  0  0  0  0  0  0
  187.7360  176.6990  143.8650 C   0  0  0  0  0  0  0  0  0  0  0  0
  186.3650  176.8240  147.9290 C   0  0  0  0  0  3  0  0  0  0  0  0
  186.6820  177.5190  140.2690 C   0  0  0  0  0  3  0  0  0  0  0  0
  187.5990  176.2420  147.6310 C   0  0  0  0  0  3  0  0  0  0  0  0
  187.0550  176.6530  141.4430 C   0  0  0  0  0  2  0  0  0  0  0  0
  184.7280  178.5110  142.3930 C   0  0  2  0  0  3  0  0  0  0  0  0
  185.5740  177.3480  146.9060 C   0  0  0  0  0  3  0  0  0  0  0  0
  185.1950  177.7580  144.5090 N   0  0  0  0  0  0  0  0  0  0  0  0
  183.2590  178.7720  140.5140 O   0  0  0  0  0  0  0  0  0  0  0  0
  182.1400  177.9370  140.5670 C   0  0  0  0  0  2  0  0  0  0  0  0
  178.9750  177.5390  141.2670 O   0  0  0  0  0  0  0  0  0  0  0  0
  180.5180  179.1760  141.9670 C   0  0  0  0  0  2  0  0  0  0  0  0
  180.8720  178.7710  140.5650 C   0  0  2  0  0  3  0  0  0  0  0  0
  179.1440  178.5910  142.1740 C   0  0  0  0  0  2  0  0  0  0  0  0
  179.7030  177.9170  140.1300 C   0  0  0  0  0  2  0  0  0  0  0  0
  1 26  1  0  0  0  0
  3 16  1  1  0  0  0
  4 23  2  0  0  0  0
  5 15  2  0  0  0  0
  6  7  1  1  0  0  0
  6 19  1  0  0  0  0
  6  3  1  0  0  0  0
  7  3  1  0  0  0  0
  9 27  1  1  0  0  0
 10 22  2  0  0  0  0
 10 17  1  0  0  0  0
 11 20  2  0  0  0  0
 11  5  1  0  0  0  0
 12  8  2  0  0  0  0
 13 24  1  6  0  0  0
 13  9  1  0  0  0  0
 13 20  1  0  0  0  0
 14  2  1  0  0  0  0
 15  4  1  0  0  0  0
 15 12  1  0  0  0  0
 16  8  1  0  0  0  0
 17 28  1  6  0  0  0
 17 25  1  0  0  0  0
 18  1  2  0  0  0  0
 18  4  1  0  0  0  0
 19  5  1  1  0  0  0
 19  3  1  0  0  0  0
 20 18  1  0  0  0  0
 22 24  1  0  0  0  0
 23 21  1  0  0  0  0
 25  9  1  0  0  0  0
 25 14  1  1  0  0  0
 26 21  2  0  0  0  0
 27  2  1  0  0  0  0
 27  1  1  0  0  0  0
 28 29  1  0  0  0  0
 30 33  1  0  0  0  0
 31 33  1  0  0  0  0
 32 29  1  1  0  0  0
 32 31  1  0  0  0  0
 34 32  1  0  0  0  0
 34 30  1  0  0  0  0
M  END
>  <MODEL>
1

>  <REMARK>
 VINA RESULT:      -9.6      0.000      0.000
  Name = 
  3 active torsions:
  status: ('A' for Active; 'I' for Inactive)
    1  A    between atoms: C_17  and  O_28
    2  A    between atoms: O_28  and  C_29
    3  A    between atoms: C_29  and  C_32
                            x       y       z     vdW  Elec       q    Type
                         _______ _______ _______ _____ _____    ______ ____

>  <TORSDO>
F 3

$$$$
=
 OpenBabel11112418023D

 34 42  0  0  1  0  0  0  0  0999 V2000
  189.6840  175.4800  142.5790 C   0  0  0  0  0  0  0  0  0  0  0  0
  192.1290  174.8960  142.0270 C   0  0  0  0  0  2  0  0  0  0  0  0
  185.1880  178.4610  146.5520 C   0  0  1  0  0  0  0  0  0  0  0  0
  187.4980  176.3520  143.2140 C   0  0  0  0  0  0  0  0  0  0  0  0
  187.2920  177.4540  145.4720 C   0  0  0  0  0  0  0  0  0  0  0  0
  186.6540  178.3220  147.8350 C   0  0  1  0  0  3  0  0  0  0  0  0
  185.2970  178.6150  147.9670 O   0  0  0  0  0  0  0  0  0  0  0  0
  184.5720  178.5940  144.1860 C   0  0  0  0  0  3  0  0  0  0  0  0
  191.5140  175.2600  144.2870 C   0  0  2  0  0  3  0  0  0  0  0  0
  193.7140  175.9030  146.4250 C   0  0  0  0  0  3  0  0  0  0  0  0
  188.6800  177.1730  145.6850 N   0  0  0  0  0  0  0  0  0  0  0  0
  185.5770  177.9180  143.6010 C   0  0  0  0  0  3  0  0  0  0  0  0
  190.9110  176.4130  145.0860 C   0  0  1  0  0  3  0  0  0  0  0  0
  193.3350  174.7680  142.8510 N   0  0  0  0  0  2  0  0  0  0  0  0
  186.5670  176.9610  144.2380 C   0  0  0  0  0  0  0  0  0  0  0  0
  184.2700  178.7060  145.6290 C   0  0  0  0  0  2  0  0  0  0  0  0
  193.7230  174.8740  145.3230 C   0  0  1  0  0  3  0  0  0  0  0  0
  188.8540  176.1170  143.5180 C   0  0  0  0  0  0  0  0  0  0  0  0
  186.5770  177.9730  146.4530 C   0  0  2  0  0  3  0  0  0  0  0  0
  189.4240  176.5490  144.8220 C   0  0  0  0  0  0  0  0  0  0  0  0
  187.8270  175.3210  141.0340 C   0  0  0  0  0  3  0  0  0  0  0  0
  192.6100  176.4590  146.9580 C   0  0  0  0  0  3  0  0  0  0  0  0
  186.9930  175.9320  141.9730 C   0  0  0  0  0  3  0  0  0  0  0  0
  191.1930  176.1350  146.5650 C   0  0  0  0  0  2  0  0  0  0  0  0
  192.9950  175.4390  144.1080 C   0  0  2  0  0  3  0  0  0  0  0  0
  189.1710  175.0970  141.3340 C   0  0  0  0  0  3  0  0  0  0  0  0
  191.0390  175.2020  142.9330 N   0  0  0  0  0  0  0  0  0  0  0  0
  195.0490  174.5740  144.9980 O   0  0  0  0  0  0  0  0  0  0  0  0
  195.7100  174.4880  146.2260 C   0  0  0  0  0  2  0  0  0  0  0  0
  196.8500  171.8690  144.6420 O   0  0  0  0  0  0  0  0  0  0  0  0
  197.6280  174.0920  144.7140 C   0  0  0  0  0  2  0  0  0  0  0  0
  197.0320  173.7630  146.0520 C   0  0  2  0  0  3  0  0  0  0  0  0
  197.7530  172.7500  144.0360 C   0  0  0  0  0  2  0  0  0  0  0  0
  196.7900  172.2730  145.9830 C   0  0  0  0  0  2  0  0  0  0  0  0
  1 27  1  0  0  0  0
  1 18  1  0  0  0  0
  2 14  1  0  0  0  0
  2 27  1  0  0  0  0
  3 16  1  6  0  0  0
  3  6  1  0  0  0  0
  3  7  1  0  0  0  0
  4 18  2  0  0  0  0
  4 15  1  0  0  0  0
  5 11  1  0  0  0  0
  6  7  1  1  0  0  0
  8 16  1  0  0  0  0
  9 27  1  6  0  0  0
  9 13  1  0  0  0  0
 10 22  2  0  0  0  0
 12  8  2  0  0  0  0
 12 15  1  0  0  0  0
 13 24  1  1  0  0  0
 15  5  2  0  0  0  0
 17 28  1  6  0  0  0
 17 10  1  0  0  0  0
 18 20  1  0  0  0  0
 19  5  1  1  0  0  0
 19  3  1  0  0  0  0
 19  6  1  0  0  0  0
 20 13  1  0  0  0  0
 20 11  2  0  0  0  0
 21 26  1  0  0  0  0
 21 23  2  0  0  0  0
 23  4  1  0  0  0  0
 24 22  1  0  0  0  0
 25 14  1  6  0  0  0
 25  9  1  0  0  0  0
 25 17  1  0  0  0  0
 26  1  2  0  0  0  0
 28 29  1  0  0  0  0
 30 34  1  0  0  0  0
 31 32  1  0  0  0  0
 32 29  1  6  0  0  0
 33 30  1  0  0  0  0
 33 31  1  0  0  0  0
 34 32  1  0  0  0  0
M  END
>  <MODEL>
2

>  <REMARK>
 VINA RESULT:      -9.3      3.455     10.216
  Name = 
  3 active torsions:
  status: ('A' for Active; 'I' for Inactive)
    1  A    between atoms: C_17  and  O_28
    2  A    between atoms: O_28  and  C_29
    3  A    between atoms: C_29  and  C_32
                            x       y       z     vdW  Elec       q    Type
                         _______ _______ _______ _____ _____    ______ ____

>  <TORSDO>
F 3

$$$$
=
 OpenBabel11112418023D

 34 42  0  0  1  0  0  0  0  0999 V2000
  189.9710  175.3900  142.7500 C   0  0  0  0  0  0  0  0  0  0  0  0
  192.4510  174.9510  142.2230 C   0  0  0  0  0  2  0  0  0  0  0  0
  185.2740  178.2800  146.5540 C   0  0  1  0  0  0  0  0  0  0  0  0
  187.7280  176.1390  143.3410 C   0  0  0  0  0  0  0  0  0  0  0  0
  187.4450  177.3620  145.5270 C   0  0  0  0  0  0  0  0  0  0  0  0
  186.7480  178.3260  147.8360 C   0  0  1  0  0  3  0  0  0  0  0  0
  185.3730  178.5280  147.9570 O   0  0  0  0  0  0  0  0  0  0  0  0
  184.6490  178.2190  144.1880 C   0  0  0  0  0  3  0  0  0  0  0  0
  191.8140  175.4090  144.4590 C   0  0  2  0  0  3  0  0  0  0  0  0
  193.9630  176.3410  146.5410 C   0  0  0  0  0  3  0  0  0  0  0  0
  188.8500  177.1950  145.7500 N   0  0  0  0  0  0  0  0  0  0  0  0
  185.6990  177.5840  143.6400 C   0  0  0  0  0  3  0  0  0  0  0  0
  191.1300  176.5630  145.1890 C   0  0  1  0  0  3  0  0  0  0  0  0
  193.6640  174.9620  143.0470 N   0  0  0  0  0  2  0  0  0  0  0  0
  186.7560  176.7420  144.3300 C   0  0  0  0  0  0  0  0  0  0  0  0
  184.3400  178.3990  145.6230 C   0  0  0  0  0  2  0  0  0  0  0  0
  194.0460  175.2490  145.5050 C   0  0  1  0  0  3  0  0  0  0  0  0
  189.0980  176.0220  143.6530 C   0  0  0  0  0  0  0  0  0  0  0  0
  186.6950  177.8880  146.4780 C   0  0  2  0  0  3  0  0  0  0  0  0
  189.6360  176.5740  144.9240 C   0  0  0  0  0  0  0  0  0  0  0  0
  188.1300  175.0010  141.2270 C   0  0  0  0  0  3  0  0  0  0  0  0
  192.8220  176.8470  147.0450 C   0  0  0  0  0  3  0  0  0  0  0  0
  187.2540  175.6080  142.1310 C   0  0  0  0  0  3  0  0  0  0  0  0
  191.4310  176.3980  146.6800 C   0  0  0  0  0  2  0  0  0  0  0  0
  193.2780  175.6830  144.2610 C   0  0  2  0  0  3  0  0  0  0  0  0
  189.4870  174.8940  141.5340 C   0  0  0  0  0  3  0  0  0  0  0  0
  191.3430  175.2330  143.1130 N   0  0  0  0  0  0  0  0  0  0  0  0
  195.3900  175.0260  145.1930 O   0  0  0  0  0  0  0  0  0  0  0  0
  195.7630  173.9290  145.9740 C   0  0  0  0  0  2  0  0  0  0  0  0
  196.8190  170.8510  146.2520 O   0  0  0  0  0  0  0  0  0  0  0  0
  194.7620  171.7170  145.4970 C   0  0  0  0  0  2  0  0  0  0  0  0
  195.8440  172.6830  145.1100 C   0  0  2  0  0  3  0  0  0  0  0  0
  195.5160  170.4760  145.9040 C   0  0  0  0  0  2  0  0  0  0  0  0
  197.1210  171.9350  145.4170 C   0  0  0  0  0  2  0  0  0  0  0  0
  1 27  1  0  0  0  0
  1 18  1  0  0  0  0
  2 14  1  0  0  0  0
  2 27  1  0  0  0  0
  3 16  1  6  0  0  0
  3  6  1  0  0  0  0
  3  7  1  0  0  0  0
  4 18  2  0  0  0  0
  4 15  1  0  0  0  0
  5 11  1  0  0  0  0
  6  7  1  1  0  0  0
  8 16  1  0  0  0  0
  9 27  1  6  0  0  0
  9 13  1  0  0  0  0
 10 22  2  0  0  0  0
 12  8  2  0  0  0  0
 12 15  1  0  0  0  0
 13 24  1  1  0  0  0
 15  5  2  0  0  0  0
 17 28  1  6  0  0  0
 17 10  1  0  0  0  0
 18 20  1  0  0  0  0
 19  5  1  1  0  0  0
 19  3  1  0  0  0  0
 19  6  1  0  0  0  0
 20 13  1  0  0  0  0
 20 11  2  0  0  0  0
 21 26  1  0  0  0  0
 21 23  2  0  0  0  0
 23  4  1  0  0  0  0
 24 22  1  0  0  0  0
 25 14  1  6  0  0  0
 25  9  1  0  0  0  0
 25 17  1  0  0  0  0
 26  1  2  0  0  0  0
 28 29  1  0  0  0  0
 31 33  1  0  0  0  0
 32 34  1  0  0  0  0
 32 31  1  0  0  0  0
 32 29  1  1  0  0  0
 33 30  1  0  0  0  0
 34 30  1  0  0  0  0
M  END
>  <MODEL>
3

>  <REMARK>
 VINA RESULT:      -9.3      3.537     10.123
  Name = 
  3 active torsions:
  status: ('A' for Active; 'I' for Inactive)
    1  A    between atoms: C_17  and  O_28
    2  A    between atoms: O_28  and  C_29
    3  A    between atoms: C_29  and  C_32
                            x       y       z     vdW  Elec       q    Type
                         _______ _______ _______ _____ _____    ______ ____

>  <TORSDO>
F 3

$$$$
=
 OpenBabel11112418023D

 34 42  0  0  1  0  0  0  0  0999 V2000
  189.8620  174.8250  144.7160 C   0  0  0  0  0  0  0  0  0  0  0  0
  191.3570  173.0560  143.5950 C   0  0  0  0  0  2  0  0  0  0  0  0
  184.2930  178.5490  144.7210 C   0  0  1  0  0  0  0  0  0  0  0  0
  188.1670  176.3030  145.6560 C   0  0  0  0  0  0  0  0  0  0  0  0
  186.2550  176.9860  144.1610 C   0  0  0  0  0  0  0  0  0  0  0  0
  184.3670  178.1500  142.8100 C   0  0  1  0  0  3  0  0  0  0  0  0
  183.6330  179.0650  143.5640 O   0  0  0  0  0  0  0  0  0  0  0  0
  184.9240  177.8160  146.9690 C   0  0  0  0  0  3  0  0  0  0  0  0
  189.9520  174.3990  142.2400 C   0  0  2  0  0  3  0  0  0  0  0  0
  189.2450  173.4860  139.3270 C   0  0  0  0  0  3  0  0  0  0  0  0
  186.8520  176.2070  143.1180 N   0  0  0  0  0  0  0  0  0  0  0  0
  186.0560  177.1310  146.7290 C   0  0  0  0  0  3  0  0  0  0  0  0
  188.4510  174.6580  142.1380 C   0  0  1  0  0  3  0  0  0  0  0  0
  191.5220  172.6240  142.2040 N   0  0  0  0  0  2  0  0  0  0  0  0
  186.9410  177.1740  145.4970 C   0  0  0  0  0  0  0  0  0  0  0  0
  184.1580  178.6660  146.0330 C   0  0  0  0  0  2  0  0  0  0  0  0
  190.5710  173.4590  140.0420 C   0  0  1  0  0  3  0  0  0  0  0  0
  188.6780  175.5680  144.5670 C   0  0  0  0  0  0  0  0  0  0  0  0
  185.1920  177.7220  143.8940 C   0  0  2  0  0  3  0  0  0  0  0  0
  187.9680  175.5570  143.2600 C   0  0  0  0  0  0  0  0  0  0  0  0
  190.0250  175.5320  147.0250 C   0  0  0  0  0  3  0  0  0  0  0  0
  188.2050  174.2770  139.6510 C   0  0  0  0  0  3  0  0  0  0  0  0
  188.8620  176.2900  146.8750 C   0  0  0  0  0  3  0  0  0  0  0  0
  188.1920  175.2880  140.7670 C   0  0  0  0  0  2  0  0  0  0  0  0
  190.3370  173.1420  141.5150 C   0  0  2  0  0  3  0  0  0  0  0  0
  190.5240  174.7980  145.9490 C   0  0  0  0  0  3  0  0  0  0  0  0
  190.3890  174.1340  143.5820 N   0  0  0  0  0  0  0  0  0  0  0  0
  191.3790  172.4790  139.4570 O   0  0  0  0  0  0  0  0  0  0  0  0
  191.0380  172.4940  138.1020 C   0  0  0  0  0  2  0  0  0  0  0  0
  190.9260  169.3500  138.9790 O   0  0  0  0  0  0  0  0  0  0  0  0
  190.0450  170.4620  137.0970 C   0  0  0  0  0  2  0  0  0  0  0  0
  191.3290  171.1400  137.4810 C   0  0  2  0  0  3  0  0  0  0  0  0
  190.0660  169.1770  137.8870 C   0  0  0  0  0  2  0  0  0  0  0  0
  191.9250  170.2210  138.5220 C   0  0  0  0  0  2  0  0  0  0  0  0
  1 26  1  0  0  0  0
  3 16  1  1  0  0  0
  4 23  2  0  0  0  0
  5 15  2  0  0  0  0
  6  7  1  6  0  0  0
  6 19  1  0  0  0  0
  6  3  1  0  0  0  0
  7  3  1  0  0  0  0
  9 27  1  1  0  0  0
 10 22  2  0  0  0  0
 10 17  1  0  0  0  0
 11 20  2  0  0  0  0
 11  5  1  0  0  0  0
 12  8  2  0  0  0  0
 13 24  1  6  0  0  0
 13  9  1  0  0  0  0
 13 20  1  0  0  0  0
 14  2  1  0  0  0  0
 15  4  1  0  0  0  0
 15 12  1  0  0  0  0
 16  8  1  0  0  0  0
 17 28  1  6  0  0  0
 17 25  1  0  0  0  0
 18  1  2  0  0  0  0
 18  4  1  0  0  0  0
 19  5  1  6  0  0  0
 19  3  1  0  0  0  0
 20 18  1  0  0  0  0
 22 24  1  0  0  0  0
 23 21  1  0  0  0  0
 25 14  1  1  0  0  0
 25  9  1  0  0  0  0
 26 21  2  0  0  0  0
 27  2  1  0  0  0  0
 27  1  1  0  0  0  0
 29 28  1  0  0  0  0
 31 32  1  0  0  0  0
 31 33  1  0  0  0  0
 32 29  1  1  0  0  0
 32 34  1  0  0  0  0
 33 30  1  0  0  0  0
 34 30  1  0  0  0  0
M  END
>  <MODEL>
4

>  <REMARK>
 VINA RESULT:      -9.1      3.472      8.113
  Name = 
  3 active torsions:
  status: ('A' for Active; 'I' for Inactive)
    1  A    between atoms: C_17  and  O_28
    2  A    between atoms: O_28  and  C_29
    3  A    between atoms: C_29  and  C_32
                            x       y       z     vdW  Elec       q    Type
                         _______ _______ _______ _____ _____    ______ ____

>  <TORSDO>
F 3

$$$$
=
 OpenBabel11112418023D

 34 42  0  0  1  0  0  0  0  0999 V2000
  192.5640  176.1950  144.8520 C   0  0  0  0  0  0  0  0  0  0  0  0
  190.9260  177.8700  143.7870 C   0  0  0  0  0  2  0  0  0  0  0  0
  194.9410  169.9550  145.3950 C   0  0  1  0  0  0  0  0  0  0  0  0
  194.1290  174.4540  145.5320 C   0  0  0  0  0  0  0  0  0  0  0  0
  193.6030  172.0830  144.8580 C   0  0  0  0  0  0  0  0  0  0  0  0
  193.1910  169.5280  144.6380 C   0  0  1  0  0  3  0  0  0  0  0  0
  194.1790  168.7560  145.2480 O   0  0  0  0  0  0  0  0  0  0  0  0
  196.7020  171.6420  145.6020 C   0  0  0  0  0  3  0  0  0  0  0  0
  190.3000  175.5900  143.9450 C   0  0  2  0  0  3  0  0  0  0  0  0
  187.9910  174.4700  142.1450 C   0  0  0  0  0  3  0  0  0  0  0  0
  192.4140  172.5740  144.2300 N   0  0  0  0  0  0  0  0  0  0  0  0
  196.0020  172.7860  145.4970 C   0  0  0  0  0  3  0  0  0  0  0  0
  190.8550  174.2630  143.4340 C   0  0  1  0  0  3  0  0  0  0  0  0
  189.6060  177.7180  143.1670 N   0  0  0  0  0  2  0  0  0  0  0  0
  194.5080  172.9960  145.6570 C   0  0  0  0  0  0  0  0  0  0  0  0
  196.1810  170.2660  145.7420 C   0  0  0  0  0  2  0  0  0  0  0  0
  188.0610  175.7640  142.9160 C   0  0  1  0  0  3  0  0  0  0  0  0
  192.9350  174.8390  144.8900 C   0  0  0  0  0  0  0  0  0  0  0  0
  193.8150  170.7810  144.9190 C   0  0  2  0  0  3  0  0  0  0  0  0
  192.0650  173.8250  144.2360 C   0  0  0  0  0  0  0  0  0  0  0  0
  194.5670  176.7860  146.0770 C   0  0  0  0  0  3  0  0  0  0  0  0
  188.7250  173.3720  142.4040 C   0  0  0  0  0  3  0  0  0  0  0  0
  194.9270  175.4380  146.1380 C   0  0  0  0  0  3  0  0  0  0  0  0
  189.7250  173.2340  143.5220 C   0  0  0  0  0  2  0  0  0  0  0  0
  189.4930  176.2860  142.8860 C   0  0  2  0  0  3  0  0  0  0  0  0
  193.3880  177.1660  145.4330 C   0  0  0  0  0  3  0  0  0  0  0  0
  191.3220  176.5530  144.2440 N   0  0  0  0  0  0  0  0  0  0  0  0
  187.1940  176.6880  142.3250 O   0  0  0  0  0  0  0  0  0  0  0  0
  186.0600  176.6900  143.1410 C   0  0  0  0  0  2  0  0  0  0  0  0
  184.6460  178.9060  145.0800 O   0  0  0  0  0  0  0  0  0  0  0  0
  185.5670  176.7910  145.5640 C   0  0  0  0  0  2  0  0  0  0  0  0
  186.3630  177.4020  144.4470 C   0  0  2  0  0  3  0  0  0  0  0  0
  184.7440  177.9410  146.0890 C   0  0  0  0  0  2  0  0  0  0  0  0
  185.8580  178.8240  144.3790 C   0  0  0  0  0  2  0  0  0  0  0  0
  1 18  2  0  0  0  0
  1 26  1  0  0  0  0
  2 27  1  0  0  0  0
  3 16  1  6  0  0  0
  4 15  1  0  0  0  0
  4 23  2  0  0  0  0
  5 15  2  0  0  0  0
  6 19  1  0  0  0  0
  6  7  1  1  0  0  0
  6  3  1  0  0  0  0
  7  3  1  0  0  0  0
  8 16  1  0  0  0  0
  9 27  1  6  0  0  0
 10 22  2  0  0  0  0
 10 17  1  0  0  0  0
 11 20  2  0  0  0  0
 11  5  1  0  0  0  0
 12  8  2  0  0  0  0
 12 15  1  0  0  0  0
 13 24  1  1  0  0  0
 13  9  1  0  0  0  0
 13 20  1  0  0  0  0
 14  2  1  0  0  0  0
 17 28  1  6  0  0  0
 18  4  1  0  0  0  0
 19  5  1  1  0  0  0
 19  3  1  0  0  0  0
 20 18  1  0  0  0  0
 21 23  1  0  0  0  0
 22 24  1  0  0  0  0
 25 17  1  0  0  0  0
 25 14  1  1  0  0  0
 25  9  1  0  0  0  0
 26 21  2  0  0  0  0
 27  1  1  0  0  0  0
 28 29  1  0  0  0  0
 30 33  1  0  0  0  0
 31 33  1  0  0  0  0
 32 29  1  6  0  0  0
 32 31  1  0  0  0  0
 34 32  1  0  0  0  0
 34 30  1  0  0  0  0
M  END
>  <MODEL>
5

>  <REMARK>
 VINA RESULT:      -9.1      3.671      6.070
  Name = 
  3 active torsions:
  status: ('A' for Active; 'I' for Inactive)
    1  A    between atoms: C_17  and  O_28
    2  A    between atoms: O_28  and  C_29
    3  A    between atoms: C_29  and  C_32
                            x       y       z     vdW  Elec       q    Type
                         _______ _______ _______ _____ _____    ______ ____

>  <TORSDO>
F 3

$$$$
=
 OpenBabel11112418023D

 34 42  0  0  1  0  0  0  0  0999 V2000
  188.5490  177.3830  146.2960 C   0  0  0  0  0  0  0  0  0  0  0  0
  190.4630  176.3330  147.6580 C   0  0  0  0  0  2  0  0  0  0  0  0
  185.1980  178.0010  140.5270 C   0  0  1  0  0  0  0  0  0  0  0  0
  186.7080  178.0520  144.8450 C   0  0  0  0  0  0  0  0  0  0  0  0
  186.8720  177.4570  142.4010 C   0  0  0  0  0  0  0  0  0  0  0  0
  186.8810  177.3170  139.8080 C   0  0  1  0  0  3  0  0  0  0  0  0
  185.7650  177.9110  139.2190 O   0  0  0  0  0  0  0  0  0  0  0  0
  183.7220  178.1040  142.4770 C   0  0  0  0  0  3  0  0  0  0  0  0
  190.7150  176.5710  145.3140 C   0  0  2  0  0  3  0  0  0  0  0  0
  192.8710  174.8820  143.7900 C   0  0  0  0  0  3  0  0  0  0  0  0
  188.1430  176.8580  142.6790 N   0  0  0  0  0  0  0  0  0  0  0  0
  184.5960  177.9940  143.4920 C   0  0  0  0  0  3  0  0  0  0  0  0
  189.9730  176.0750  144.0760 C   0  0  1  0  0  3  0  0  0  0  0  0
  191.7610  175.7640  147.2820 N   0  0  0  0  0  2  0  0  0  0  0  0
  186.0990  178.2010  143.4690 C   0  0  0  0  0  0  0  0  0  0  0  0
  184.0130  178.2970  141.0400 C   0  0  0  0  0  2  0  0  0  0  0  0
  192.9840  175.6170  145.1020 C   0  0  1  0  0  3  0  0  0  0  0  0
  187.9670  177.4420  145.0170 C   0  0  0  0  0  0  0  0  0  0  0  0
  186.4550  177.5440  141.1520 C   0  0  2  0  0  3  0  0  0  0  0  0
  188.6840  176.8450  143.8590 C   0  0  0  0  0  0  0  0  0  0  0  0
  186.6290  178.5220  147.2320 C   0  0  0  0  0  3  0  0  0  0  0  0
  191.9650  175.1430  142.8300 C   0  0  0  0  0  3  0  0  0  0  0  0
  186.0580  178.6040  145.9600 C   0  0  0  0  0  3  0  0  0  0  0  0
  190.9220  176.2280  142.8860 C   0  0  0  0  0  2  0  0  0  0  0  0
  191.6540  175.5240  145.8420 C   0  0  2  0  0  3  0  0  0  0  0  0
  187.8710  177.9100  147.4020 C   0  0  0  0  0  3  0  0  0  0  0  0
  189.8500  176.8100  146.4350 N   0  0  0  0  0  0  0  0  0  0  0  0
  194.0030  175.0330  145.8590 O   0  0  0  0  0  0  0  0  0  0  0  0
  194.7370  174.2700  144.9480 C   0  0  0  0  0  2  0  0  0  0  0  0
  197.4560  172.5160  145.3950 O   0  0  0  0  0  0  0  0  0  0  0  0
  196.9610  174.2380  143.8640 C   0  0  0  0  0  2  0  0  0  0  0  0
  196.2220  174.5220  145.1390 C   0  0  2  0  0  3  0  0  0  0  0  0
  197.9400  173.1570  144.2480 C   0  0  0  0  0  2  0  0  0  0  0  0
  196.7860  173.5150  146.1150 C   0  0  0  0  0  2  0  0  0  0  0  0
  1 27  1  0  0  0  0
  1 26  1  0  0  0  0
  3 16  1  1  0  0  0
  3 19  1  0  0  0  0
  4 18  1  0  0  0  0
  4 23  2  0  0  0  0
  5 11  1  0  0  0  0
  5 15  2  0  0  0  0
  6  7  1  6  0  0  0
  6  3  1  0  0  0  0
  6 19  1  0  0  0  0
  7  3  1  0  0  0  0
  8 12  2  0  0  0  0
  9 25  1  0  0  0  0
  9 27  1  1  0  0  0
 10 17  1  0  0  0  0
 11 20  2  0  0  0  0
 13 24  1  6  0  0  0
 13  9  1  0  0  0  0
 14  2  1  0  0  0  0
 15 12  1  0  0  0  0
 15  4  1  0  0  0  0
 16  8  1  0  0  0  0
 17 25  1  0  0  0  0
 17 28  1  1  0  0  0
 18  1  2  0  0  0  0
 19  5  1  6  0  0  0
 20 13  1  0  0  0  0
 20 18  1  0  0  0  0
 21 26  2  0  0  0  0
 22 24  1  0  0  0  0
 22 10  2  0  0  0  0
 23 21  1  0  0  0  0
 25 14  1  1  0  0  0
 27  2  1  0  0  0  0
 29 28  1  0  0  0  0
 30 34  1  0  0  0  0
 31 33  1  0  0  0  0
 31 32  1  0  0  0  0
 32 29  1  6  0  0  0
 32 34  1  0  0  0  0
 33 30  1  0  0  0  0
M  END
>  <MODEL>
6

>  <REMARK>
 VINA RESULT:      -8.8      2.497      9.598
  Name = 
  3 active torsions:
  status: ('A' for Active; 'I' for Inactive)
    1  A    between atoms: C_17  and  O_28
    2  A    between atoms: O_28  and  C_29
    3  A    between atoms: C_29  and  C_32
                            x       y       z     vdW  Elec       q    Type
                         _______ _______ _______ _____ _____    ______ ____

>  <TORSDO>
F 3

$$$$
=
 OpenBabel11112418023D

 34 42  0  0  1  0  0  0  0  0999 V2000
  190.2900  175.4800  144.9480 C   0  0  0  0  0  0  0  0  0  0  0  0
  191.9210  173.6950  144.0680 C   0  0  0  0  0  2  0  0  0  0  0  0
  184.3820  178.6200  144.5860 C   0  0  1  0  0  0  0  0  0  0  0  0
  188.4830  176.9300  145.7060 C   0  0  0  0  0  0  0  0  0  0  0  0
  186.4730  177.1740  144.2040 C   0  0  0  0  0  0  0  0  0  0  0  0
  184.4430  177.9160  142.7640 C   0  0  1  0  0  3  0  0  0  0  0  0
  183.6430  178.8720  143.3910 O   0  0  0  0  0  0  0  0  0  0  0  0
  185.1450  178.3340  146.8950 C   0  0  0  0  0  3  0  0  0  0  0  0
  190.3530  174.6570  142.5740 C   0  0  2  0  0  3  0  0  0  0  0  0
  189.6590  173.2090  139.8830 C   0  0  0  0  0  3  0  0  0  0  0  0
  187.1160  176.2900  143.2780 N   0  0  0  0  0  0  0  0  0  0  0  0
  186.3320  177.7270  146.7210 C   0  0  0  0  0  3  0  0  0  0  0  0
  188.8310  174.7550  142.4960 C   0  0  1  0  0  3  0  0  0  0  0  0
  192.0890  173.0540  142.7600 N   0  0  0  0  0  2  0  0  0  0  0  0
  187.1730  177.6450  145.4610 C   0  0  0  0  0  0  0  0  0  0  0  0
  184.2730  178.9410  145.8670 C   0  0  0  0  0  2  0  0  0  0  0  0
  191.0010  173.4240  140.5340 C   0  0  1  0  0  3  0  0  0  0  0  0
  189.0340  176.0750  144.7310 C   0  0  0  0  0  0  0  0  0  0  0  0
  185.3360  177.7530  143.8670 C   0  0  2  0  0  3  0  0  0  0  0  0
  188.2930  175.7800  143.4760 C   0  0  0  0  0  0  0  0  0  0  0  0
  190.4460  176.5750  147.1010 C   0  0  0  0  0  3  0  0  0  0  0  0
  188.5560  173.9430  140.1180 C   0  0  0  0  0  3  0  0  0  0  0  0
  189.2090  177.1860  146.8800 C   0  0  0  0  0  3  0  0  0  0  0  0
  188.4740  175.1200  141.0530 C   0  0  0  0  0  2  0  0  0  0  0  0
  190.8410  173.3370  142.0480 C   0  0  2  0  0  3  0  0  0  0  0  0
  190.9850  175.7200  146.1390 C   0  0  0  0  0  3  0  0  0  0  0  0
  190.8510  174.6620  143.9210 N   0  0  0  0  0  0  0  0  0  0  0  0
  191.8850  172.4400  140.0820 O   0  0  0  0  0  0  0  0  0  0  0  0
  192.4880  172.9910  138.9480 C   0  0  0  0  0  2  0  0  0  0  0  0
  195.6630  173.7550  138.9990 O   0  0  0  0  0  0  0  0  0  0  0  0
  193.8080  174.9140  138.1230 C   0  0  0  0  0  2  0  0  0  0  0  0
  193.3570  174.1700  139.3460 C   0  0  2  0  0  3  0  0  0  0  0  0
  195.3130  174.8450  138.1940 C   0  0  0  0  0  2  0  0  0  0  0  0
  194.6450  173.6680  139.9580 C   0  0  0  0  0  2  0  0  0  0  0  0
  1 26  1  0  0  0  0
  3 16  1  1  0  0  0
  4 23  2  0  0  0  0
  5 15  2  0  0  0  0
  6  7  1  6  0  0  0
  6 19  1  0  0  0  0
  6  3  1  0  0  0  0
  7  3  1  0  0  0  0
  9 27  1  1  0  0  0
 10 22  2  0  0  0  0
 10 17  1  0  0  0  0
 11 20  2  0  0  0  0
 11  5  1  0  0  0  0
 12  8  2  0  0  0  0
 13 24  1  6  0  0  0
 13  9  1  0  0  0  0
 13 20  1  0  0  0  0
 14  2  1  0  0  0  0
 15  4  1  0  0  0  0
 15 12  1  0  0  0  0
 16  8  1  0  0  0  0
 17 28  1  6  0  0  0
 17 25  1  0  0  0  0
 18  1  2  0  0  0  0
 18  4  1  0  0  0  0
 19  5  1  6  0  0  0
 19  3  1  0  0  0  0
 20 18  1  0  0  0  0
 22 24  1  0  0  0  0
 23 21  1  0  0  0  0
 25  9  1  0  0  0  0
 25 14  1  1  0  0  0
 26 21  2  0  0  0  0
 27  2  1  0  0  0  0
 27  1  1  0  0  0  0
 29 28  1  0  0  0  0
 30 34  1  0  0  0  0
 31 33  1  0  0  0  0
 31 32  1  0  0  0  0
 32 29  1  6  0  0  0
 32 34  1  0  0  0  0
 33 30  1  0  0  0  0
M  END
>  <MODEL>
7

>  <REMARK>
 VINA RESULT:      -8.8      2.835      8.550
  Name = 
  3 active torsions:
  status: ('A' for Active; 'I' for Inactive)
    1  A    between atoms: C_17  and  O_28
    2  A    between atoms: O_28  and  C_29
    3  A    between atoms: C_29  and  C_32
                            x       y       z     vdW  Elec       q    Type
                         _______ _______ _______ _____ _____    ______ ____

>  <TORSDO>
F 3

$$$$
=
 OpenBabel11112418023D

 34 42  0  0  1  0  0  0  0  0999 V2000
  190.0410  174.4280  143.9590 C   0  0  0  0  0  0  0  0  0  0  0  0
  189.4770  176.3680  145.5530 C   0  0  0  0  0  2  0  0  0  0  0  0
  190.1950  171.8660  137.7710 C   0  0  1  0  0  0  0  0  0  0  0  0
  190.6710  172.8480  142.2130 C   0  0  0  0  0  0  0  0  0  0  0  0
  189.8160  173.2830  139.8820 C   0  0  0  0  0  0  0  0  0  0  0  0
  188.8340  173.2360  137.4780 C   0  0  1  0  0  3  0  0  0  0  0  0
  189.2510  172.1340  136.7330 O   0  0  0  0  0  0  0  0  0  0  0  0
  192.1280  171.1840  139.1090 C   0  0  0  0  0  3  0  0  0  0  0  0
  188.2350  176.1290  143.5490 C   0  0  2  0  0  3  0  0  0  0  0  0
  186.5970  178.5500  142.4210 C   0  0  0  0  0  3  0  0  0  0  0  0
  189.1500  174.4440  140.3920 N   0  0  0  0  0  0  0  0  0  0  0  0
  191.8700  171.7760  140.2890 C   0  0  0  0  0  3  0  0  0  0  0  0
  188.5560  176.1140  142.0570 C   0  0  1  0  0  3  0  0  0  0  0  0
  188.5160  177.4730  145.4810 N   0  0  0  0  0  2  0  0  0  0  0  0
  190.5520  172.3290  140.7980 C   0  0  0  0  0  0  0  0  0  0  0  0
  191.2360  171.0630  137.9370 C   0  0  0  0  0  2  0  0  0  0  0  0
  186.7160  178.0540  143.8400 C   0  0  1  0  0  3  0  0  0  0  0  0
  189.9770  174.0060  142.6200 C   0  0  0  0  0  0  0  0  0  0  0  0
  189.6190  172.9200  138.6280 C   0  0  2  0  0  3  0  0  0  0  0  0
  189.1870  174.7990  141.6400 C   0  0  0  0  0  0  0  0  0  0  0  0
  191.4870  172.5610  144.4880 C   0  0  0  0  0  3  0  0  0  0  0  0
  186.8380  177.8160  141.3190 C   0  0  0  0  0  3  0  0  0  0  0  0
  191.4080  172.1250  143.1640 C   0  0  0  0  0  3  0  0  0  0  0  0
  187.2450  176.3660  141.3090 C   0  0  0  0  0  2  0  0  0  0  0  0
  188.1300  177.5340  144.0690 C   0  0  2  0  0  3  0  0  0  0  0  0
  190.8070  173.7120  144.8860 C   0  0  0  0  0  3  0  0  0  0  0  0
  189.2840  175.5720  144.3580 N   0  0  0  0  0  0  0  0  0  0  0  0
  186.4390  179.1110  144.7120 O   0  0  0  0  0  0  0  0  0  0  0  0
  185.0460  179.1330  144.8200 C   0  0  0  0  0  2  0  0  0  0  0  0
  185.5890  176.8650  147.1070 O   0  0  0  0  0  0  0  0  0  0  0  0
  185.7550  179.2140  147.1890 C   0  0  0  0  0  2  0  0  0  0  0  0
  184.6350  178.8590  146.2550 C   0  0  2  0  0  3  0  0  0  0  0  0
  186.0540  177.9190  147.9020 C   0  0  0  0  0  2  0  0  0  0  0  0
  184.4550  177.3720  146.4560 C   0  0  0  0  0  2  0  0  0  0  0  0
  1 27  1  0  0  0  0
  1 26  1  0  0  0  0
  3 16  1  6  0  0  0
  3 19  1  0  0  0  0
  4 18  1  0  0  0  0
  4 23  2  0  0  0  0
  5 11  1  0  0  0  0
  5 15  2  0  0  0  0
  6  7  1  1  0  0  0
  6  3  1  0  0  0  0
  6 19  1  0  0  0  0
  7  3  1  0  0  0  0
  8 12  2  0  0  0  0
  9 25  1  0  0  0  0
  9 27  1  1  0  0  0
 10 17  1  0  0  0  0
 11 20  2  0  0  0  0
 12 15  1  0  0  0  0
 13 24  1  6  0  0  0
 13  9  1  0  0  0  0
 14  2  1  0  0  0  0
 15  4  1  0  0  0  0
 16  8  1  0  0  0  0
 17 25  1  0  0  0  0
 17 28  1  1  0  0  0
 18  1  2  0  0  0  0
 19  5  1  1  0  0  0
 20 13  1  0  0  0  0
 20 18  1  0  0  0  0
 21 26  2  0  0  0  0
 22 10  2  0  0  0  0
 23 21  1  0  0  0  0
 24 22  1  0  0  0  0
 25 14  1  1  0  0  0
 27  2  1  0  0  0  0
 28 29  1  0  0  0  0
 30 33  1  0  0  0  0
 31 33  1  0  0  0  0
 32 29  1  6  0  0  0
 32 34  1  0  0  0  0
 32 31  1  0  0  0  0
 34 30  1  0  0  0  0
M  END
>  <MODEL>
8

>  <REMARK>
 VINA RESULT:      -8.6      3.635      6.116
  Name = 
  3 active torsions:
  status: ('A' for Active; 'I' for Inactive)
    1  A    between atoms: C_17  and  O_28
    2  A    between atoms: O_28  and  C_29
    3  A    between atoms: C_29  and  C_32
                            x       y       z     vdW  Elec       q    Type
                         _______ _______ _______ _____ _____    ______ ____

>  <TORSDO>
F 3

$$$$
=
 OpenBabel11112418023D

 34 42  0  0  1  0  0  0  0  0999 V2000
  192.1330  176.4200  145.7350 C   0  0  0  0  0  0  0  0  0  0  0  0
  189.8840  177.0820  146.7970 C   0  0  0  0  0  2  0  0  0  0  0  0
  195.8670  175.3090  140.2850 C   0  0  1  0  0  0  0  0  0  0  0  0
  194.1850  176.0410  144.4750 C   0  0  0  0  0  0  0  0  0  0  0  0
  193.9870  175.7650  141.9770 C   0  0  0  0  0  0  0  0  0  0  0  0
  194.1040  175.0970  139.4700 C   0  0  1  0  0  3  0  0  0  0  0  0
  195.3950  174.7890  139.0410 O   0  0  0  0  0  0  0  0  0  0  0  0
  197.1510  176.3360  142.0990 C   0  0  0  0  0  3  0  0  0  0  0  0
  189.8900  176.0690  144.6550 C   0  0  2  0  0  3  0  0  0  0  0  0
  187.3860  176.3320  142.7890 C   0  0  0  0  0  3  0  0  0  0  0  0
  192.5710  175.9270  142.1170 N   0  0  0  0  0  0  0  0  0  0  0  0
  196.2270  176.4320  143.0710 C   0  0  0  0  0  3  0  0  0  0  0  0
  190.4930  176.3950  143.2900 C   0  0  1  0  0  3  0  0  0  0  0  0
  188.4980  177.0090  146.3260 N   0  0  0  0  0  2  0  0  0  0  0  0
  194.8980  175.7080  143.1840 C   0  0  0  0  0  0  0  0  0  0  0  0
  197.0430  175.6250  140.8070 C   0  0  0  0  0  2  0  0  0  0  0  0
  187.4520  176.0410  144.2670 C   0  0  1  0  0  3  0  0  0  0  0  0
  192.7830  176.1850  144.5100 C   0  0  0  0  0  0  0  0  0  0  0  0
  194.4910  175.4570  140.7970 C   0  0  2  0  0  3  0  0  0  0  0  0
  191.9810  176.1050  143.2600 C   0  0  0  0  0  0  0  0  0  0  0  0
  194.2630  176.3810  146.8840 C   0  0  0  0  0  3  0  0  0  0  0  0
  188.3890  176.1310  141.9140 C   0  0  0  0  0  3  0  0  0  0  0  0
  194.9110  176.1240  145.6740 C   0  0  0  0  0  3  0  0  0  0  0  0
  189.7410  175.5590  142.2510 C   0  0  0  0  0  2  0  0  0  0  0  0
  188.6100  176.8210  144.8780 C   0  0  2  0  0  3  0  0  0  0  0  0
  192.8760  176.5320  146.9150 C   0  0  0  0  0  3  0  0  0  0  0  0
  190.7070  176.5060  145.7520 N   0  0  0  0  0  0  0  0  0  0  0  0
  186.2430  176.4250  144.8550 O   0  0  0  0  0  0  0  0  0  0  0  0
  185.7900  177.4960  144.0810 C   0  0  0  0  0  2  0  0  0  0  0  0
  185.2390  178.0030  147.2610 O   0  0  0  0  0  0  0  0  0  0  0  0
  185.9420  179.4750  145.5600 C   0  0  0  0  0  2  0  0  0  0  0  0
  185.0110  178.4680  144.9490 C   0  0  2  0  0  3  0  0  0  0  0  0
  185.7510  179.2880  147.0440 C   0  0  0  0  0  2  0  0  0  0  0  0
  184.4380  177.7370  146.1410 C   0  0  0  0  0  2  0  0  0  0  0  0
  1 27  1  0  0  0  0
  1 26  1  0  0  0  0
  3 19  1  0  0  0  0
  3 16  1  6  0  0  0
  4 18  1  0  0  0  0
  4 23  2  0  0  0  0
  5 11  1  0  0  0  0
  5 15  2  0  0  0  0
  6  7  1  1  0  0  0
  6  3  1  0  0  0  0
  6 19  1  0  0  0  0
  7  3  1  0  0  0  0
  8 12  2  0  0  0  0
  9 25  1  0  0  0  0
  9 27  1  1  0  0  0
 10 17  1  0  0  0  0
 11 20  2  0  0  0  0
 12 15  1  0  0  0  0
 13 24  1  6  0  0  0
 13  9  1  0  0  0  0
 14  2  1  0  0  0  0
 15  4  1  0  0  0  0
 16  8  1  0  0  0  0
 17 28  1  1  0  0  0
 17 25  1  0  0  0  0
 18  1  2  0  0  0  0
 19  5  1  1  0  0  0
 20 13  1  0  0  0  0
 20 18  1  0  0  0  0
 21 26  2  0  0  0  0
 22 24  1  0  0  0  0
 22 10  2  0  0  0  0
 23 21  1  0  0  0  0
 25 14  1  1  0  0  0
 27  2  1  0  0  0  0
 29 28  1  0  0  0  0
 31 33  1  0  0  0  0
 32 29  1  6  0  0  0
 32 31  1  0  0  0  0
 32 34  1  0  0  0  0
 33 30  1  0  0  0  0
 34 30  1  0  0  0  0
M  END
>  <MODEL>
9

>  <REMARK>
 VINA RESULT:      -8.6      3.686      5.980
  Name = 
  3 active torsions:
  status: ('A' for Active; 'I' for Inactive)
    1  A    between atoms: C_17  and  O_28
    2  A    between atoms: O_28  and  C_29
    3  A    between atoms: C_29  and  C_32
                            x       y       z     vdW  Elec       q    Type
                         _______ _______ _______ _____ _____    ______ ____

>  <TORSDO>
F 3

$$$$
