=
 OpenBabel11112418003D

 34 40  0  0  1  0  0  0  0  0999 V2000
  191.1110  177.1430  144.8560 C   0  0  0  0  0  0  0  0  0  0  0  0
  193.3000  176.2820  145.8340 C   0  0  0  0  0  3  0  0  0  0  0  0
  184.7180  178.7620  144.9300 C   0  0  2  0  0  3  0  0  0  0  0  0
  188.9010  177.6690  143.9510 C   0  0  0  0  0  0  0  0  0  0  0  0
  186.9300  177.8960  145.5260 C   0  0  1  0  0  3  0  0  0  0  0  0
  184.6240  177.6700  146.7540 C   0  0  0  0  0  2  0  0  0  0  0  0
  183.7200  178.6860  146.0640 C   0  0  0  0  0  2  0  0  0  0  0  0
  185.4480  177.9660  142.6670 C   0  0  0  0  0  2  0  0  0  0  0  0
  191.3070  175.8600  146.9200 C   0  0  0  0  0  0  0  0  0  0  0  0
  187.6080  176.8180  146.3620 C   0  0  0  0  0  2  0  0  0  0  0  0
  186.7800  178.6370  143.0570 C   0  0  0  0  0  2  0  0  0  0  0  0
  189.8130  175.8190  147.1460 C   0  0  1  0  0  3  0  0  0  0  0  0
  193.4080  175.1570  146.5280 C   0  0  0  0  0  3  0  0  0  0  0  0
  187.4890  177.9280  144.1480 N   0  0  0  0  0  0  0  0  0  0  0  0
  184.2520  178.4310  143.5250 C   0  0  0  0  0  2  0  0  0  0  0  0
  189.7120  177.2450  145.0250 C   0  0  0  0  0  0  0  0  0  0  0  0
  185.4450  177.5700  145.4820 C   0  0  1  0  0  3  0  0  0  0  0  0
  189.1230  176.9980  146.4040 C   0  0  1  0  0  3  0  0  0  0  0  0
  190.8750  177.7400  142.5220 C   0  0  0  0  0  3  0  0  0  0  0  0
  189.4980  177.8850  142.6970 C   0  0  0  0  0  3  0  0  0  0  0  0
  192.1490  174.8790  147.2070 C   0  0  0  0  0  3  0  0  0  0  0  0
  191.6840  177.3940  143.6030 C   0  0  0  0  0  3  0  0  0  0  0  0
  191.9590  176.8960  146.0740 C   0  0  2  0  0  3  0  0  0  0  0  0
  189.2480  174.4690  146.6790 C   0  0  0  0  0  2  0  0  0  0  0  0
  189.6330  174.1850  145.2370 C   0  0  0  0  0  2  0  0  0  0  0  0
  189.9770  172.7180  145.0640 C   0  0  0  0  0  2  0  0  0  0  0  0
  191.3460  172.5920  144.4340 C   0  0  0  0  0  2  0  0  0  0  0  0
  191.5540  173.7240  143.4470 C   0  0  0  0  0  2  0  0  0  0  0  0
  191.5830  173.1940  142.0230 C   0  0  0  0  0  2  0  0  0  0  0  0
  187.9930  172.9810  141.6310 C   0  0  0  0  0  2  0  0  0  0  0  0
  189.6690  174.6360  141.8370 O   0  0  0  0  0  0  0  0  0  0  0  0
  190.2810  173.4960  141.2970 C   0  0  2  0  0  3  0  0  0  0  0  0
  188.2980  174.4610  141.6010 C   0  0  0  0  0  2  0  0  0  0  0  0
  189.3320  172.3330  141.4510 C   0  0  0  0  0  2  0  0  0  0  0  0
  1 16  1  0  0  0  0
  1 23  1  0  0  0  0
  2 13  2  0  0  0  0
  3 15  1  6  0  0  0
  3 17  1  0  0  0  0
  3  7  1  0  0  0  0
  4 14  1  0  0  0  0
  4 16  2  0  0  0  0
  5 10  1  1  0  0  0
  7  6  1  0  0  0  0
  8 11  1  0  0  0  0
  8 15  1  0  0  0  0
  9 12  1  0  0  0  0
  9 21  2  0  0  0  0
 11 14  1  0  0  0  0
 12 24  1  6  0  0  0
 13 21  1  0  0  0  0
 14  5  1  0  0  0  0
 16 18  1  0  0  0  0
 17  5  1  0  0  0  0
 17  6  1  1  0  0  0
 18 10  1  6  0  0  0
 18 12  1  0  0  0  0
 19 20  2  0  0  0  0
 19 22  1  0  0  0  0
 20  4  1  0  0  0  0
 22  1  2  0  0  0  0
 23  2  1  6  0  0  0
 23  9  1  0  0  0  0
 25 24  1  0  0  0  0
 26 25  1  0  0  0  0
 27 26  1  0  0  0  0
 28 27  1  0  0  0  0
 29 28  1  0  0  0  0
 32 34  1  0  0  0  0
 32 31  1  0  0  0  0
 32 29  1  1  0  0  0
 33 30  1  0  0  0  0
 33 31  1  0  0  0  0
 34 30  1  0  0  0  0
M  END
>  <MODEL>
1

>  <REMARK>
 VINA RESULT:      -8.4      0.000      0.000
  Name = 
  7 active torsions:
  status: ('A' for Active; 'I' for Inactive)
    1  A    between atoms: C_10  and  C_17
    2  A    between atoms: C_10  and  C_22
    3  A    between atoms: C_13  and  C_24
    4  A    between atoms: C_17  and  C_28
    5  A    between atoms: C_22  and  C_24
    6  A    between atoms: C_28  and  C_29
    7  A    between atoms: C_29  and  C_32
                            x       y       z     vdW  Elec       q    Type
                         _______ _______ _______ _____ _____    ______ ____

>  <TORSDO>
F 7

$$$$
=
 OpenBabel11112418003D

 34 40  0  0  1  0  0  0  0  0999 V2000
  186.1380  178.2180  145.1410 C   0  0  0  0  0  0  0  0  0  0  0  0
  184.0660  178.9940  143.8770 C   0  0  0  0  0  3  0  0  0  0  0  0
  192.4930  176.6050  145.8500 C   0  0  2  0  0  3  0  0  0  0  0  0
  188.1140  177.2090  146.1690 C   0  0  0  0  0  0  0  0  0  0  0  0
  190.3130  177.2120  144.9130 C   0  0  1  0  0  3  0  0  0  0  0  0
  192.5570  176.5590  143.7230 C   0  0  0  0  0  2  0  0  0  0  0  0
  193.6080  176.6130  144.8270 C   0  0  0  0  0  2  0  0  0  0  0  0
  191.0230  175.2900  147.3990 C   0  0  0  0  0  2  0  0  0  0  0  0
  185.9220  178.2660  142.7120 C   0  0  0  0  0  0  0  0  0  0  0  0
  189.4730  177.0740  143.6510 C   0  0  0  0  0  2  0  0  0  0  0  0
  190.1860  176.5840  147.4150 C   0  0  0  0  0  2  0  0  0  0  0  0
  187.2890  177.6630  142.4850 C   0  0  1  0  0  3  0  0  0  0  0  0
  183.6830  178.4970  142.7090 C   0  0  0  0  0  3  0  0  0  0  0  0
  189.5190  176.8600  146.1210 N   0  0  0  0  0  0  0  0  0  0  0  0
  192.4650  175.4980  146.8880 C   0  0  0  0  0  2  0  0  0  0  0  0
  187.4650  177.7420  145.0350 C   0  0  0  0  0  0  0  0  0  0  0  0
  191.5010  176.2720  144.7740 C   0  0  1  0  0  3  0  0  0  0  0  0
  188.2020  177.9160  143.7180 C   0  0  1  0  0  3  0  0  0  0  0  0
  186.0610  177.5020  147.4520 C   0  0  0  0  0  3  0  0  0  0  0  0
  187.3860  177.0710  147.3640 C   0  0  0  0  0  3  0  0  0  0  0  0
  184.8500  178.0260  141.9730 C   0  0  0  0  0  3  0  0  0  0  0  0
  185.4460  178.0960  146.3520 C   0  0  0  0  0  3  0  0  0  0  0  0
  185.5570  178.9680  143.9730 C   0  0  2  0  0  3  0  0  0  0  0  0
  187.1590  176.1600  142.1960 C   0  0  0  0  0  2  0  0  0  0  0  0
  187.8160  175.7980  140.8750 C   0  0  0  0  0  2  0  0  0  0  0  0
  188.6270  174.5260  141.0220 C   0  0  0  0  0  2  0  0  0  0  0  0
  187.9470  173.6070  142.0120 C   0  0  0  0  0  2  0  0  0  0  0  0
  188.9430  172.5810  142.5170 C   0  0  0  0  0  2  0  0  0  0  0  0
  189.8200  173.1780  143.6050 C   0  0  0  0  0  2  0  0  0  0  0  0
  193.4090  173.1060  143.1630 C   0  0  0  0  0  2  0  0  0  0  0  0
  191.8170  172.7590  144.8760 O   0  0  0  0  0  0  0  0  0  0  0  0
  191.1760  172.4920  143.6570 C   0  0  2  0  0  3  0  0  0  0  0  0
  193.1870  172.6720  144.5930 C   0  0  0  0  0  2  0  0  0  0  0  0
  192.0500  173.0080  142.5410 C   0  0  0  0  0  2  0  0  0  0  0  0
  1 22  1  0  0  0  0
  3  7  1  6  0  0  0
  3 15  1  0  0  0  0
  4 20  2  0  0  0  0
  5 10  1  6  0  0  0
  5 14  1  0  0  0  0
  6  7  1  0  0  0  0
  8 11  1  0  0  0  0
  9 23  1  0  0  0  0
 12 24  1  1  0  0  0
 12  9  1  0  0  0  0
 12 18  1  0  0  0  0
 13  2  2  0  0  0  0
 14  4  1  0  0  0  0
 14 11  1  0  0  0  0
 15  8  1  0  0  0  0
 16  1  2  0  0  0  0
 16  4  1  0  0  0  0
 17  6  1  6  0  0  0
 17  5  1  0  0  0  0
 17  3  1  0  0  0  0
 18 10  1  1  0  0  0
 18 16  1  0  0  0  0
 20 19  1  0  0  0  0
 21 13  1  0  0  0  0
 21  9  2  0  0  0  0
 22 19  2  0  0  0  0
 23  2  1  1  0  0  0
 23  1  1  0  0  0  0
 25 26  1  0  0  0  0
 25 24  1  0  0  0  0
 26 27  1  0  0  0  0
 27 28  1  0  0  0  0
 28 29  1  0  0  0  0
 30 33  1  0  0  0  0
 32 29  1  1  0  0  0
 32 31  1  0  0  0  0
 33 31  1  0  0  0  0
 34 30  1  0  0  0  0
 34 32  1  0  0  0  0
M  END
>  <MODEL>
2

>  <REMARK>
 VINA RESULT:      -8.3      1.430      6.216
  Name = 
  7 active torsions:
  status: ('A' for Active; 'I' for Inactive)
    1  A    between atoms: C_10  and  C_17
    2  A    between atoms: C_10  and  C_22
    3  A    between atoms: C_13  and  C_24
    4  A    between atoms: C_17  and  C_28
    5  A    between atoms: C_22  and  C_24
    6  A    between atoms: C_28  and  C_29
    7  A    between atoms: C_29  and  C_32
                            x       y       z     vdW  Elec       q    Type
                         _______ _______ _______ _____ _____    ______ ____

>  <TORSDO>
F 7

$$$$
=
 OpenBabel11112418003D

 34 40  0  0  1  0  0  0  0  0999 V2000
  191.1470  177.1540  144.8170 C   0  0  0  0  0  0  0  0  0  0  0  0
  193.3420  176.3110  145.7980 C   0  0  0  0  0  3  0  0  0  0  0  0
  184.7380  178.7110  144.8840 C   0  0  2  0  0  3  0  0  0  0  0  0
  188.9330  177.6610  143.9100 C   0  0  0  0  0  0  0  0  0  0  0  0
  186.9570  177.8650  145.4820 C   0  0  1  0  0  3  0  0  0  0  0  0
  184.6510  177.6150  146.7050 C   0  0  0  0  0  2  0  0  0  0  0  0
  183.7390  178.6230  146.0150 C   0  0  0  0  0  2  0  0  0  0  0  0
  185.4800  177.9280  142.6200 C   0  0  0  0  0  2  0  0  0  0  0  0
  191.3510  175.8680  146.8790 C   0  0  0  0  0  0  0  0  0  0  0  0
  187.6440  176.7920  146.3170 C   0  0  0  0  0  2  0  0  0  0  0  0
  186.8040  178.6100  143.0140 C   0  0  0  0  0  2  0  0  0  0  0  0
  189.8570  175.8120  147.1020 C   0  0  1  0  0  3  0  0  0  0  0  0
  193.4600  175.1850  146.4890 C   0  0  0  0  0  3  0  0  0  0  0  0
  187.5190  177.9060  144.1050 N   0  0  0  0  0  0  0  0  0  0  0  0
  184.2770  178.3800  143.4770 C   0  0  0  0  0  2  0  0  0  0  0  0
  189.7460  177.2420  144.9850 C   0  0  0  0  0  0  0  0  0  0  0  0
  185.4750  177.5250  145.4340 C   0  0  1  0  0  3  0  0  0  0  0  0
  189.1570  176.9860  146.3620 C   0  0  1  0  0  3  0  0  0  0  0  0
  190.9090  177.7550  142.4840 C   0  0  0  0  0  3  0  0  0  0  0  0
  189.5300  177.8850  142.6580 C   0  0  0  0  0  3  0  0  0  0  0  0
  192.2020  174.8950  147.1650 C   0  0  0  0  0  3  0  0  0  0  0  0
  191.7190  177.4130  143.5660 C   0  0  0  0  0  3  0  0  0  0  0  0
  191.9950  176.9120  146.0370 C   0  0  2  0  0  3  0  0  0  0  0  0
  189.3060  174.4580  146.6310 C   0  0  0  0  0  2  0  0  0  0  0  0
  190.1730  173.8670  145.5310 C   0  0  0  0  0  2  0  0  0  0  0  0
  189.3840  173.7580  144.2410 C   0  0  0  0  0  2  0  0  0  0  0  0
  190.3000  174.0230  143.0670 C   0  0  0  0  0  2  0  0  0  0  0  0
  191.7330  173.7400  143.4700 C   0  0  0  0  0  2  0  0  0  0  0  0
  192.6910  174.1500  142.3630 C   0  0  0  0  0  2  0  0  0  0  0  0
  195.9450  174.2750  143.9400 C   0  0  0  0  0  2  0  0  0  0  0  0
  194.1050  172.8010  143.7640 O   0  0  0  0  0  0  0  0  0  0  0  0
  194.0920  173.6140  142.6210 C   0  0  2  0  0  3  0  0  0  0  0  0
  195.4100  172.9000  144.2660 C   0  0  0  0  0  2  0  0  0  0  0  0
  195.0410  174.7650  142.8500 C   0  0  0  0  0  2  0  0  0  0  0  0
  1 16  1  0  0  0  0
  1 23  1  0  0  0  0
  2 13  2  0  0  0  0
  3 15  1  6  0  0  0
  3 17  1  0  0  0  0
  3  7  1  0  0  0  0
  4 14  1  0  0  0  0
  4 16  2  0  0  0  0
  5 10  1  1  0  0  0
  7  6  1  0  0  0  0
  8 11  1  0  0  0  0
  8 15  1  0  0  0  0
  9 12  1  0  0  0  0
  9 21  2  0  0  0  0
 11 14  1  0  0  0  0
 12 24  1  6  0  0  0
 13 21  1  0  0  0  0
 14  5  1  0  0  0  0
 16 18  1  0  0  0  0
 17  5  1  0  0  0  0
 17  6  1  1  0  0  0
 18 10  1  6  0  0  0
 18 12  1  0  0  0  0
 19 20  2  0  0  0  0
 19 22  1  0  0  0  0
 20  4  1  0  0  0  0
 22  1  2  0  0  0  0
 23  2  1  6  0  0  0
 23  9  1  0  0  0  0
 25 24  1  0  0  0  0
 26 25  1  0  0  0  0
 27 28  1  0  0  0  0
 27 26  1  0  0  0  0
 29 28  1  0  0  0  0
 30 33  1  0  0  0  0
 31 33  1  0  0  0  0
 32 29  1  1  0  0  0
 32 34  1  0  0  0  0
 32 31  1  0  0  0  0
 34 30  1  0  0  0  0
M  END
>  <MODEL>
3

>  <REMARK>
 VINA RESULT:      -8.0      1.546      2.566
  Name = 
  7 active torsions:
  status: ('A' for Active; 'I' for Inactive)
    1  A    between atoms: C_10  and  C_17
    2  A    between atoms: C_10  and  C_22
    3  A    between atoms: C_13  and  C_24
    4  A    between atoms: C_17  and  C_28
    5  A    between atoms: C_22  and  C_24
    6  A    between atoms: C_28  and  C_29
    7  A    between atoms: C_29  and  C_32
                            x       y       z     vdW  Elec       q    Type
                         _______ _______ _______ _____ _____    ______ ____

>  <TORSDO>
F 7

$$$$
=
 OpenBabel11112418003D

 34 40  0  0  1  0  0  0  0  0999 V2000
  189.7230  174.3640  144.6680 C   0  0  0  0  0  0  0  0  0  0  0  0
  191.4890  173.1230  143.3150 C   0  0  0  0  0  3  0  0  0  0  0  0
  184.6760  178.5060  145.6010 C   0  0  2  0  0  3  0  0  0  0  0  0
  188.1920  175.8240  145.8960 C   0  0  0  0  0  0  0  0  0  0  0  0
  186.5370  177.2530  144.6180 C   0  0  1  0  0  3  0  0  0  0  0  0
  185.1070  179.2230  143.6440 C   0  0  0  0  0  2  0  0  0  0  0  0
  183.9190  179.3420  144.5930 C   0  0  0  0  0  2  0  0  0  0  0  0
  186.1850  178.4170  147.6010 C   0  0  0  0  0  2  0  0  0  0  0  0
  190.4270  174.9630  142.4110 C   0  0  0  0  0  0  0  0  0  0  0  0
  187.6100  177.3510  143.5430 C   0  0  0  0  0  2  0  0  0  0  0  0
  186.3660  176.9460  147.1770 C   0  0  0  0  0  2  0  0  0  0  0  0
  189.5330  176.1810  142.3560 C   0  0  1  0  0  3  0  0  0  0  0  0
  192.2940  173.7070  142.4370 C   0  0  0  0  0  3  0  0  0  0  0  0
  187.1180  176.7960  145.9090 N   0  0  0  0  0  0  0  0  0  0  0  0
  184.9440  179.0880  146.9760 C   0  0  0  0  0  2  0  0  0  0  0  0
  188.7850  175.4210  144.6800 C   0  0  0  0  0  0  0  0  0  0  0  0
  185.9250  178.6360  144.7790 C   0  0  1  0  0  3  0  0  0  0  0  0
  188.3530  176.0310  143.3570 C   0  0  1  0  0  3  0  0  0  0  0  0
  189.5870  174.2120  147.0800 C   0  0  0  0  0  3  0  0  0  0  0  0
  188.6280  175.2260  147.0910 C   0  0  0  0  0  3  0  0  0  0  0  0
  191.6320  174.8760  141.8710 C   0  0  0  0  0  3  0  0  0  0  0  0
  190.1170  173.7650  145.8710 C   0  0  0  0  0  3  0  0  0  0  0  0
  190.1710  173.8260  143.3360 C   0  0  2  0  0  3  0  0  0  0  0  0
  190.3510  177.4460  142.6550 C   0  0  0  0  0  2  0  0  0  0  0  0
  191.5680  177.1230  143.5060 C   0  0  0  0  0  2  0  0  0  0  0  0
  191.3960  177.6830  144.9040 C   0  0  0  0  0  2  0  0  0  0  0  0
  192.0410  176.7490  145.9040 C   0  0  0  0  0  2  0  0  0  0  0  0
  193.1620  175.9830  145.2290 C   0  0  0  0  0  2  0  0  0  0  0  0
  193.5850  174.7960  146.0780 C   0  0  0  0  0  2  0  0  0  0  0  0
  196.7770  173.0990  145.9630 C   0  0  0  0  0  2  0  0  0  0  0  0
  194.4850  172.6080  145.6550 O   0  0  0  0  0  0  0  0  0  0  0  0
  194.6550  173.9720  145.3780 C   0  0  2  0  0  3  0  0  0  0  0  0
  195.7680  172.0520  145.5500 C   0  0  0  0  0  2  0  0  0  0  0  0
  196.0190  174.3880  145.8710 C   0  0  0  0  0  2  0  0  0  0  0  0
  1 16  2  0  0  0  0
  1 22  1  0  0  0  0
  3  7  1  6  0  0  0
  3 15  1  0  0  0  0
  4 14  1  0  0  0  0
  4 20  2  0  0  0  0
  5 10  1  6  0  0  0
  5 17  1  0  0  0  0
  5 14  1  0  0  0  0
  6  7  1  0  0  0  0
  9 23  1  0  0  0  0
 11  8  1  0  0  0  0
 12  9  1  0  0  0  0
 12 24  1  1  0  0  0
 12 18  1  0  0  0  0
 13  2  2  0  0  0  0
 14 11  1  0  0  0  0
 15  8  1  0  0  0  0
 16  4  1  0  0  0  0
 17  6  1  6  0  0  0
 17  3  1  0  0  0  0
 18 10  1  1  0  0  0
 18 16  1  0  0  0  0
 19 20  1  0  0  0  0
 21  9  2  0  0  0  0
 21 13  1  0  0  0  0
 22 19  2  0  0  0  0
 23  2  1  1  0  0  0
 23  1  1  0  0  0  0
 24 25  1  0  0  0  0
 25 26  1  0  0  0  0
 26 27  1  0  0  0  0
 28 27  1  0  0  0  0
 28 29  1  0  0  0  0
 32 31  1  0  0  0  0
 32 34  1  0  0  0  0
 32 29  1  1  0  0  0
 33 31  1  0  0  0  0
 33 30  1  0  0  0  0
 34 30  1  0  0  0  0
M  END
>  <MODEL>
4

>  <REMARK>
 VINA RESULT:      -7.6      1.962      4.790
  Name = 
  7 active torsions:
  status: ('A' for Active; 'I' for Inactive)
    1  A    between atoms: C_10  and  C_17
    2  A    between atoms: C_10  and  C_22
    3  A    between atoms: C_13  and  C_24
    4  A    between atoms: C_17  and  C_28
    5  A    between atoms: C_22  and  C_24
    6  A    between atoms: C_28  and  C_29
    7  A    between atoms: C_29  and  C_32
                            x       y       z     vdW  Elec       q    Type
                         _______ _______ _______ _____ _____    ______ ____

>  <TORSDO>
F 7

$$$$
=
 OpenBabel11112418003D

 34 40  0  0  1  0  0  0  0  0999 V2000
  186.0030  177.4120  142.1750 C   0  0  0  0  0  0  0  0  0  0  0  0
  184.7480  179.1480  143.5550 C   0  0  0  0  0  3  0  0  0  0  0  0
  189.8030  172.1110  141.1980 C   0  0  2  0  0  3  0  0  0  0  0  0
  187.4770  175.8770  140.9700 C   0  0  0  0  0  0  0  0  0  0  0  0
  188.5910  173.9780  142.2210 C   0  0  1  0  0  3  0  0  0  0  0  0
  190.2980  172.2800  143.2610 C   0  0  0  0  0  2  0  0  0  0  0  0
  190.4390  171.1840  142.2100 C   0  0  0  0  0  2  0  0  0  0  0  0
  190.0930  173.8100  139.3770 C   0  0  0  0  0  2  0  0  0  0  0  0
  186.3640  177.8330  144.5500 C   0  0  0  0  0  0  0  0  0  0  0  0
  188.6390  174.9270  143.4100 C   0  0  0  0  0  2  0  0  0  0  0  0
  188.6000  174.0860  139.6410 C   0  0  0  0  0  2  0  0  0  0  0  0
  187.4880  176.8270  144.6520 C   0  0  1  0  0  3  0  0  0  0  0  0
  185.2790  179.8040  144.5780 C   0  0  0  0  0  3  0  0  0  0  0  0
  188.3510  174.7230  140.9560 N   0  0  0  0  0  0  0  0  0  0  0  0
  190.5760  172.4550  139.9380 C   0  0  0  0  0  2  0  0  0  0  0  0
  186.9730  176.3840  142.1860 C   0  0  0  0  0  0  0  0  0  0  0  0
  189.9290  173.2570  142.1600 C   0  0  1  0  0  3  0  0  0  0  0  0
  187.3710  175.7700  143.5180 C   0  0  1  0  0  3  0  0  0  0  0  0
  186.1490  177.5270  139.7610 C   0  0  0  0  0  3  0  0  0  0  0  0
  187.0740  176.4810  139.7670 C   0  0  0  0  0  3  0  0  0  0  0  0
  186.3080  178.9830  145.2030 C   0  0  0  0  0  3  0  0  0  0  0  0
  185.5960  177.9760  140.9590 C   0  0  0  0  0  3  0  0  0  0  0  0
  185.3370  177.7770  143.4740 C   0  0  2  0  0  3  0  0  0  0  0  0
  188.8440  177.5470  144.5950 C   0  0  0  0  0  2  0  0  0  0  0  0
  189.6140  177.3670  145.8930 C   0  0  0  0  0  2  0  0  0  0  0  0
  188.8910  176.3910  146.8020 C   0  0  0  0  0  2  0  0  0  0  0  0
  189.8970  175.4610  147.4430 C   0  0  0  0  0  2  0  0  0  0  0  0
  190.8280  174.9140  146.3800 C   0  0  0  0  0  2  0  0  0  0  0  0
  192.2640  174.9050  146.8790 C   0  0  0  0  0  2  0  0  0  0  0  0
  193.4960  176.3940  143.8220 C   0  0  0  0  0  2  0  0  0  0  0  0
  194.2540  175.9410  146.0150 O   0  0  0  0  0  0  0  0  0  0  0  0
  193.2490  175.0060  145.7250 C   0  0  2  0  0  3  0  0  0  0  0  0
  194.6750  176.4220  144.7670 C   0  0  0  0  0  2  0  0  0  0  0  0
  192.5270  175.4600  144.4800 C   0  0  0  0  0  2  0  0  0  0  0  0
  1 16  1  0  0  0  0
  1 23  1  0  0  0  0
  2 13  2  0  0  0  0
  3 15  1  6  0  0  0
  3 17  1  0  0  0  0
  3  7  1  0  0  0  0
  4 16  2  0  0  0  0
  5 10  1  1  0  0  0
  7  6  1  0  0  0  0
  8 11  1  0  0  0  0
  8 15  1  0  0  0  0
  9 12  1  0  0  0  0
  9 21  2  0  0  0  0
 11 14  1  0  0  0  0
 12 24  1  6  0  0  0
 13 21  1  0  0  0  0
 14  4  1  0  0  0  0
 14  5  1  0  0  0  0
 16 18  1  0  0  0  0
 17  5  1  0  0  0  0
 17  6  1  1  0  0  0
 18 10  1  6  0  0  0
 18 12  1  0  0  0  0
 19 20  2  0  0  0  0
 19 22  1  0  0  0  0
 20  4  1  0  0  0  0
 22  1  2  0  0  0  0
 23  2  1  6  0  0  0
 23  9  1  0  0  0  0
 24 25  1  0  0  0  0
 25 26  1  0  0  0  0
 26 27  1  0  0  0  0
 28 29  1  0  0  0  0
 28 27  1  0  0  0  0
 30 34  1  0  0  0  0
 30 33  1  0  0  0  0
 32 31  1  0  0  0  0
 32 29  1  1  0  0  0
 33 31  1  0  0  0  0
 34 32  1  0  0  0  0
M  END
>  <MODEL>
5

>  <REMARK>
 VINA RESULT:      -7.5      2.045      6.324
  Name = 
  7 active torsions:
  status: ('A' for Active; 'I' for Inactive)
    1  A    between atoms: C_10  and  C_17
    2  A    between atoms: C_10  and  C_22
    3  A    between atoms: C_13  and  C_24
    4  A    between atoms: C_17  and  C_28
    5  A    between atoms: C_22  and  C_24
    6  A    between atoms: C_28  and  C_29
    7  A    between atoms: C_29  and  C_32
                            x       y       z     vdW  Elec       q    Type
                         _______ _______ _______ _____ _____    ______ ____

>  <TORSDO>
F 7

$$$$
=
 OpenBabel11112418003D

 34 40  0  0  1  0  0  0  0  0999 V2000
  190.2960  174.5090  145.6950 C   0  0  0  0  0  0  0  0  0  0  0  0
  188.2810  175.4330  146.9520 C   0  0  0  0  0  3  0  0  0  0  0  0
  196.3640  174.6710  143.1160 C   0  0  2  0  0  3  0  0  0  0  0  0
  192.1630  173.8430  144.2630 C   0  0  0  0  0  0  0  0  0  0  0  0
  194.2410  175.2890  144.1690 C   0  0  1  0  0  3  0  0  0  0  0  0
  196.2660  176.7760  143.4180 C   0  0  0  0  0  2  0  0  0  0  0  0
  197.3900  175.7830  143.1400 C   0  0  0  0  0  2  0  0  0  0  0  0
  194.8260  173.2100  141.7800 C   0  0  0  0  0  2  0  0  0  0  0  0
  189.9150  176.8690  146.1780 C   0  0  0  0  0  0  0  0  0  0  0  0
  193.3000  176.4710  144.3630 C   0  0  0  0  0  2  0  0  0  0  0  0
  194.2000  172.9140  143.1570 C   0  0  0  0  0  2  0  0  0  0  0  0
  191.1540  177.3170  145.4360 C   0  0  1  0  0  3  0  0  0  0  0  0
  187.7440  176.6220  146.7160 C   0  0  0  0  0  3  0  0  0  0  0  0
  193.4910  174.0800  143.7350 N   0  0  0  0  0  0  0  0  0  0  0  0
  196.2420  173.8190  141.8670 C   0  0  0  0  0  2  0  0  0  0  0  0
  191.5230  174.8140  145.0630 C   0  0  0  0  0  0  0  0  0  0  0  0
  195.2570  175.6850  143.1090 C   0  0  1  0  0  3  0  0  0  0  0  0
  192.1810  176.1530  145.3500 C   0  0  1  0  0  3  0  0  0  0  0  0
  190.2780  172.3400  144.6220 C   0  0  0  0  0  3  0  0  0  0  0  0
  191.5110  172.6200  144.0310 C   0  0  0  0  0  3  0  0  0  0  0  0
  188.7680  177.5300  146.2160 C   0  0  0  0  0  3  0  0  0  0  0  0
  189.6820  173.2710  145.4710 C   0  0  0  0  0  3  0  0  0  0  0  0
  189.7540  175.4860  146.7030 C   0  0  2  0  0  3  0  0  0  0  0  0
  190.7740  177.8200  144.0360 C   0  0  0  0  0  2  0  0  0  0  0  0
  190.2830  176.6800  143.1590 C   0  0  0  0  0  2  0  0  0  0  0  0
  188.8320  176.8980  142.7770 C   0  0  0  0  0  2  0  0  0  0  0  0
  188.0360  175.6510  143.0910 C   0  0  0  0  0  2  0  0  0  0  0  0
  186.5560  175.9810  143.0830 C   0  0  0  0  0  2  0  0  0  0  0  0
  186.2860  177.2040  142.2220 C   0  0  0  0  0  2  0  0  0  0  0  0
  185.1560  178.9050  145.2090 C   0  0  0  0  0  2  0  0  0  0  0  0
  186.0990  179.4320  143.1060 O   0  0  0  0  0  0  0  0  0  0  0  0
  185.4190  178.2140  142.9580 C   0  0  2  0  0  3  0  0  0  0  0  0
  185.5610  180.0120  144.2630 C   0  0  0  0  0  2  0  0  0  0  0  0
  185.0850  177.6900  144.3330 C   0  0  0  0  0  2  0  0  0  0  0  0
  1 23  1  0  0  0  0
  3 15  1  6  0  0  0
  3  7  1  0  0  0  0
  4 16  1  0  0  0  0
  5 10  1  6  0  0  0
  7  6  1  0  0  0  0
  8 15  1  0  0  0  0
  8 11  1  0  0  0  0
  9 21  2  0  0  0  0
  9 23  1  0  0  0  0
 11 14  1  0  0  0  0
 12 24  1  6  0  0  0
 12  9  1  0  0  0  0
 13  2  2  0  0  0  0
 14  5  1  0  0  0  0
 14  4  1  0  0  0  0
 16 18  1  0  0  0  0
 16  1  2  0  0  0  0
 17  3  1  0  0  0  0
 17  6  1  1  0  0  0
 17  5  1  0  0  0  0
 18 10  1  6  0  0  0
 18 12  1  0  0  0  0
 19 22  2  0  0  0  0
 20  4  2  0  0  0  0
 20 19  1  0  0  0  0
 21 13  1  0  0  0  0
 22  1  1  0  0  0  0
 23  2  1  6  0  0  0
 25 24  1  0  0  0  0
 26 27  1  0  0  0  0
 26 25  1  0  0  0  0
 28 27  1  0  0  0  0
 29 28  1  0  0  0  0
 31 33  1  0  0  0  0
 32 29  1  1  0  0  0
 32 31  1  0  0  0  0
 32 34  1  0  0  0  0
 33 30  1  0  0  0  0
 34 30  1  0  0  0  0
M  END
>  <MODEL>
6

>  <REMARK>
 VINA RESULT:      -7.2      2.641      7.211
  Name = 
  7 active torsions:
  status: ('A' for Active; 'I' for Inactive)
    1  A    between atoms: C_10  and  C_17
    2  A    between atoms: C_10  and  C_22
    3  A    between atoms: C_13  and  C_24
    4  A    between atoms: C_17  and  C_28
    5  A    between atoms: C_22  and  C_24
    6  A    between atoms: C_28  and  C_29
    7  A    between atoms: C_29  and  C_32
                            x       y       z     vdW  Elec       q    Type
                         _______ _______ _______ _____ _____    ______ ____

>  <TORSDO>
F 7

$$$$
=
 OpenBabel11112418003D

 34 40  0  0  1  0  0  0  0  0999 V2000
  186.2670  177.8400  144.4790 C   0  0  0  0  0  0  0  0  0  0  0  0
  184.3620  178.6610  143.0000 C   0  0  0  0  0  3  0  0  0  0  0  0
  192.5440  176.5310  146.0240 C   0  0  2  0  0  3  0  0  0  0  0  0
  188.1340  176.8160  145.6820 C   0  0  0  0  0  0  0  0  0  0  0  0
  190.4950  177.1330  144.8230 C   0  0  1  0  0  3  0  0  0  0  0  0
  192.9450  176.7950  143.9500 C   0  0  0  0  0  2  0  0  0  0  0  0
  193.8010  176.7540  145.2120 C   0  0  0  0  0  2  0  0  0  0  0  0
  190.9630  174.9220  147.1190 C   0  0  0  0  0  2  0  0  0  0  0  0
  186.4320  178.2220  142.0760 C   0  0  0  0  0  0  0  0  0  0  0  0
  189.8780  177.1260  143.4310 C   0  0  0  0  0  2  0  0  0  0  0  0
  190.0290  176.1470  147.1640 C   0  0  0  0  0  2  0  0  0  0  0  0
  187.8640  177.7420  142.0040 C   0  0  1  0  0  3  0  0  0  0  0  0
  184.2110  178.3140  141.7280 C   0  0  0  0  0  3  0  0  0  0  0  0
  189.5530  176.5640  145.8240 N   0  0  0  0  0  0  0  0  0  0  0  0
  192.4450  175.2880  146.8880 C   0  0  0  0  0  2  0  0  0  0  0  0
  187.6290  177.4650  144.5360 C   0  0  0  0  0  0  0  0  0  0  0  0
  191.7640  176.2960  144.7630 C   0  0  1  0  0  3  0  0  0  0  0  0
  188.5470  177.8700  143.3950 C   0  0  1  0  0  3  0  0  0  0  0  0
  185.8870  176.7980  146.6310 C   0  0  0  0  0  3  0  0  0  0  0  0
  187.2410  176.4650  146.7090 C   0  0  0  0  0  3  0  0  0  0  0  0
  185.5140  178.0250  141.1430 C   0  0  0  0  0  3  0  0  0  0  0  0
  185.4050  177.5040  145.5300 C   0  0  0  0  0  3  0  0  0  0  0  0
  185.8160  178.7130  143.3390 C   0  0  2  0  0  3  0  0  0  0  0  0
  187.9060  176.2900  141.5030 C   0  0  0  0  0  2  0  0  0  0  0  0
  187.0690  175.3810  142.3880 C   0  0  0  0  0  2  0  0  0  0  0  0
  187.5240  173.9420  142.2430 C   0  0  0  0  0  2  0  0  0  0  0  0
  188.9730  173.8280  142.6650 C   0  0  0  0  0  2  0  0  0  0  0  0
  189.7830  173.2330  141.5310 C   0  0  0  0  0  2  0  0  0  0  0  0
  188.8770  172.8330  140.3780 C   0  0  0  0  0  2  0  0  0  0  0  0
  190.7660  173.2730  137.3250 C   0  0  0  0  0  2  0  0  0  0  0  0
  188.5130  173.0860  138.0150 O   0  0  0  0  0  0  0  0  0  0  0  0
  189.2380  173.5860  139.1070 C   0  0  2  0  0  3  0  0  0  0  0  0
  189.3190  173.3390  136.8960 C   0  0  0  0  0  2  0  0  0  0  0  0
  190.7090  173.4150  138.8150 C   0  0  0  0  0  2  0  0  0  0  0  0
  1 16  2  0  0  0  0
  1 22  1  0  0  0  0
  3  7  1  6  0  0  0
  3 15  1  0  0  0  0
  4 14  1  0  0  0  0
  4 20  2  0  0  0  0
  5 10  1  6  0  0  0
  5 14  1  0  0  0  0
  6  7  1  0  0  0  0
  8 11  1  0  0  0  0
  9 23  1  0  0  0  0
 12 24  1  1  0  0  0
 12  9  1  0  0  0  0
 12 18  1  0  0  0  0
 13  2  2  0  0  0  0
 14 11  1  0  0  0  0
 15  8  1  0  0  0  0
 16  4  1  0  0  0  0
 17  6  1  6  0  0  0
 17  5  1  0  0  0  0
 17  3  1  0  0  0  0
 18 10  1  6  0  0  0
 18 16  1  0  0  0  0
 19 20  1  0  0  0  0
 21 13  1  0  0  0  0
 21  9  2  0  0  0  0
 22 19  2  0  0  0  0
 23  2  1  6  0  0  0
 23  1  1  0  0  0  0
 24 25  1  0  0  0  0
 26 25  1  0  0  0  0
 26 27  1  0  0  0  0
 28 27  1  0  0  0  0
 29 28  1  0  0  0  0
 30 34  1  0  0  0  0
 31 32  1  0  0  0  0
 32 29  1  1  0  0  0
 33 30  1  0  0  0  0
 33 31  1  0  0  0  0
 34 32  1  0  0  0  0
M  END
>  <MODEL>
7

>  <REMARK>
 VINA RESULT:      -7.2      1.822      6.128
  Name = 
  7 active torsions:
  status: ('A' for Active; 'I' for Inactive)
    1  A    between atoms: C_10  and  C_17
    2  A    between atoms: C_10  and  C_22
    3  A    between atoms: C_13  and  C_24
    4  A    between atoms: C_17  and  C_28
    5  A    between atoms: C_22  and  C_24
    6  A    between atoms: C_28  and  C_29
    7  A    between atoms: C_29  and  C_32
                            x       y       z     vdW  Elec       q    Type
                         _______ _______ _______ _____ _____    ______ ____

>  <TORSDO>
F 7

$$$$
=
 OpenBabel11112418003D

 34 40  0  0  1  0  0  0  0  0999 V2000
  186.3390  177.0010  144.4890 C   0  0  0  0  0  0  0  0  0  0  0  0
  185.1340  178.4020  146.2440 C   0  0  0  0  0  3  0  0  0  0  0  0
  190.5560  172.4220  142.3100 C   0  0  2  0  0  3  0  0  0  0  0  0
  187.7630  175.8140  142.8940 C   0  0  0  0  0  0  0  0  0  0  0  0
  189.3130  173.9900  143.7230 C   0  0  1  0  0  3  0  0  0  0  0  0
  191.3790  172.4720  144.2720 C   0  0  0  0  0  2  0  0  0  0  0  0
  191.4730  171.5090  143.0930 C   0  0  0  0  0  2  0  0  0  0  0  0
  190.3020  174.3050  140.6730 C   0  0  0  0  0  2  0  0  0  0  0  0
  187.0550  177.2510  146.8070 C   0  0  0  0  0  0  0  0  0  0  0  0
  189.4470  174.8240  144.9900 C   0  0  0  0  0  2  0  0  0  0  0  0
  188.8560  174.3350  141.2050 C   0  0  0  0  0  2  0  0  0  0  0  0
  188.2990  176.4140  146.6110 C   0  0  1  0  0  3  0  0  0  0  0  0
  185.7480  179.0320  147.2370 C   0  0  0  0  0  3  0  0  0  0  0  0
  188.7620  174.8050  142.6070 N   0  0  0  0  0  0  0  0  0  0  0  0
  191.0450  172.9890  140.9910 C   0  0  0  0  0  2  0  0  0  0  0  0
  187.4190  176.1290  144.2260 C   0  0  0  0  0  0  0  0  0  0  0  0
  190.7010  173.4810  143.3650 C   0  0  1  0  0  3  0  0  0  0  0  0
  188.1210  175.4600  145.3970 C   0  0  1  0  0  3  0  0  0  0  0  0
  186.0440  177.3570  142.1130 C   0  0  0  0  0  3  0  0  0  0  0  0
  187.0810  176.4610  141.8490 C   0  0  0  0  0  3  0  0  0  0  0  0
  186.9670  178.3150  147.5890 C   0  0  0  0  0  3  0  0  0  0  0  0
  185.6570  177.6090  143.4280 C   0  0  0  0  0  3  0  0  0  0  0  0
  185.8700  177.1440  145.9130 C   0  0  2  0  0  3  0  0  0  0  0  0
  189.5200  177.3260  146.4200 C   0  0  0  0  0  2  0  0  0  0  0  0
  190.5370  177.1180  147.5290 C   0  0  0  0  0  2  0  0  0  0  0  0
  191.8830  176.7380  146.9440 C   0  0  0  0  0  2  0  0  0  0  0  0
  192.1810  175.2900  147.2640 C   0  0  0  0  0  2  0  0  0  0  0  0
  193.1510  174.7350  146.2400 C   0  0  0  0  0  2  0  0  0  0  0  0
  194.2960  175.7080  146.0070 C   0  0  0  0  0  2  0  0  0  0  0  0
  194.5330  175.6920  142.3980 C   0  0  0  0  0  2  0  0  0  0  0  0
  195.7210  176.5380  144.2580 O   0  0  0  0  0  0  0  0  0  0  0  0
  195.0140  175.4100  144.7000 C   0  0  2  0  0  3  0  0  0  0  0  0
  195.7790  176.4090  142.8630 C   0  0  0  0  0  2  0  0  0  0  0  0
  194.0050  175.0410  143.6400 C   0  0  0  0  0  2  0  0  0  0  0  0
  1 23  1  0  0  0  0
  2 13  2  0  0  0  0
  3 15  1  6  0  0  0
  3  7  1  0  0  0  0
  3 17  1  0  0  0  0
  4 16  2  0  0  0  0
  5 10  1  1  0  0  0
  7  6  1  0  0  0  0
  8 15  1  0  0  0  0
  8 11  1  0  0  0  0
  9 21  2  0  0  0  0
 11 14  1  0  0  0  0
 12 24  1  6  0  0  0
 12  9  1  0  0  0  0
 13 21  1  0  0  0  0
 14  4  1  0  0  0  0
 14  5  1  0  0  0  0
 16  1  1  0  0  0  0
 16 18  1  0  0  0  0
 17  5  1  0  0  0  0
 17  6  1  1  0  0  0
 18 10  1  6  0  0  0
 18 12  1  0  0  0  0
 19 22  1  0  0  0  0
 20 19  2  0  0  0  0
 20  4  1  0  0  0  0
 22  1  2  0  0  0  0
 23  2  1  6  0  0  0
 23  9  1  0  0  0  0
 24 25  1  0  0  0  0
 26 27  1  0  0  0  0
 26 25  1  0  0  0  0
 28 27  1  0  0  0  0
 29 28  1  0  0  0  0
 30 33  1  0  0  0  0
 30 34  1  0  0  0  0
 31 32  1  0  0  0  0
 32 29  1  1  0  0  0
 33 31  1  0  0  0  0
 34 32  1  0  0  0  0
M  END
>  <MODEL>
8

>  <REMARK>
 VINA RESULT:      -7.2      2.078      5.971
  Name = 
  7 active torsions:
  status: ('A' for Active; 'I' for Inactive)
    1  A    between atoms: C_10  and  C_17
    2  A    between atoms: C_10  and  C_22
    3  A    between atoms: C_13  and  C_24
    4  A    between atoms: C_17  and  C_28
    5  A    between atoms: C_22  and  C_24
    6  A    between atoms: C_28  and  C_29
    7  A    between atoms: C_29  and  C_32
                            x       y       z     vdW  Elec       q    Type
                         _______ _______ _______ _____ _____    ______ ____

>  <TORSDO>
F 7

$$$$
=
 OpenBabel11112418003D

 34 40  0  0  1  0  0  0  0  0999 V2000
  192.1810  176.2010  145.7220 C   0  0  0  0  0  0  0  0  0  0  0  0
  190.1050  176.0010  147.1860 C   0  0  0  0  0  3  0  0  0  0  0  0
  195.6940  175.6630  140.1660 C   0  0  2  0  0  3  0  0  0  0  0  0
  194.1730  176.0710  144.3090 C   0  0  0  0  0  0  0  0  0  0  0  0
  193.9270  175.5010  141.8540 C   0  0  1  0  0  3  0  0  0  0  0  0
  194.1060  174.4310  139.4670 C   0  0  0  0  0  2  0  0  0  0  0  0
  195.2690  175.1620  138.8040 C   0  0  0  0  0  2  0  0  0  0  0  0
  197.1260  175.3620  142.2030 C   0  0  0  0  0  2  0  0  0  0  0  0
  190.2180  174.8590  145.1820 C   0  0  0  0  0  0  0  0  0  0  0  0
  192.7570  174.6250  142.2820 C   0  0  0  0  0  2  0  0  0  0  0  0
  196.1520  176.3850  142.8200 C   0  0  0  0  0  2  0  0  0  0  0  0
  190.8230  174.3190  143.9070 C   0  0  1  0  0  3  0  0  0  0  0  0
  189.3550  174.9100  147.2600 C   0  0  0  0  0  3  0  0  0  0  0  0
  194.7880  175.8430  143.0180 N   0  0  0  0  0  0  0  0  0  0  0  0
  197.0910  175.3340  140.6590 C   0  0  0  0  0  2  0  0  0  0  0  0
  192.7970  175.8310  144.5050 C   0  0  0  0  0  0  0  0  0  0  0  0
  194.7250  174.7210  140.8210 C   0  0  1  0  0  3  0  0  0  0  0  0
  191.9300  175.2780  143.3860 C   0  0  1  0  0  3  0  0  0  0  0  0
  194.3260  176.9090  146.5940 C   0  0  0  0  0  3  0  0  0  0  0  0
  194.9280  176.5860  145.3780 C   0  0  0  0  0  3  0  0  0  0  0  0
  189.4310  174.1790  146.0010 C   0  0  0  0  0  3  0  0  0  0  0  0
  192.9520  176.7410  146.7590 C   0  0  0  0  0  3  0  0  0  0  0  0
  190.6810  176.1250  145.8120 C   0  0  2  0  0  3  0  0  0  0  0  0
  191.3850  172.9090  144.1480 C   0  0  0  0  0  2  0  0  0  0  0  0
  190.8330  171.9200  143.1350 C   0  0  0  0  0  2  0  0  0  0  0  0
  189.3280  172.0640  143.0250 C   0  0  0  0  0  2  0  0  0  0  0  0
  188.9610  172.4420  141.6070 C   0  0  0  0  0  2  0  0  0  0  0  0
  187.9590  173.5800  141.6310 C   0  0  0  0  0  2  0  0  0  0  0  0
  188.5580  174.8330  141.0130 C   0  0  0  0  0  2  0  0  0  0  0  0
  187.2940  176.7230  143.8260 C   0  0  0  0  0  2  0  0  0  0  0  0
  189.0100  176.8690  142.2060 O   0  0  0  0  0  0  0  0  0  0  0  0
  187.9860  176.0890  141.6510 C   0  0  2  0  0  3  0  0  0  0  0  0
  188.4030  177.5760  143.2540 C   0  0  0  0  0  2  0  0  0  0  0  0
  187.0310  175.7070  142.7560 C   0  0  0  0  0  2  0  0  0  0  0  0
  1 23  1  0  0  0  0
  1 22  1  0  0  0  0
  2 13  2  0  0  0  0
  3  7  1  6  0  0  0
  3 15  1  0  0  0  0
  3 17  1  0  0  0  0
  4 16  1  0  0  0  0
  4 20  2  0  0  0  0
  5 10  1  1  0  0  0
  5 14  1  0  0  0  0
  7  6  1  0  0  0  0
  8 11  1  0  0  0  0
  9 23  1  0  0  0  0
  9 21  2  0  0  0  0
 11 14  1  0  0  0  0
 12 24  1  1  0  0  0
 12  9  1  0  0  0  0
 14  4  1  0  0  0  0
 15  8  1  0  0  0  0
 16  1  2  0  0  0  0
 17  6  1  6  0  0  0
 17  5  1  0  0  0  0
 18 10  1  6  0  0  0
 18 12  1  0  0  0  0
 18 16  1  0  0  0  0
 19 22  2  0  0  0  0
 20 19  1  0  0  0  0
 21 13  1  0  0  0  0
 23  2  1  1  0  0  0
 25 24  1  0  0  0  0
 26 25  1  0  0  0  0
 27 28  1  0  0  0  0
 27 26  1  0  0  0  0
 29 28  1  0  0  0  0
 31 33  1  0  0  0  0
 32 29  1  1  0  0  0
 32 31  1  0  0  0  0
 32 34  1  0  0  0  0
 33 30  1  0  0  0  0
 34 30  1  0  0  0  0
M  END
>  <MODEL>
9

>  <REMARK>
 VINA RESULT:      -7.1      2.875      6.772
  Name = 
  7 active torsions:
  status: ('A' for Active; 'I' for Inactive)
    1  A    between atoms: C_10  and  C_17
    2  A    between atoms: C_10  and  C_22
    3  A    between atoms: C_13  and  C_24
    4  A    between atoms: C_17  and  C_28
    5  A    between atoms: C_22  and  C_24
    6  A    between atoms: C_28  and  C_29
    7  A    between atoms: C_29  and  C_32
                            x       y       z     vdW  Elec       q    Type
                         _______ _______ _______ _____ _____    ______ ____

>  <TORSDO>
F 7

$$$$
