=
 OpenBabel11112417583D

 34 40  0  0  1  0  0  0  0  0999 V2000
  189.7040  175.5500  142.7610 C   0  0  0  0  0  0  0  0  0  0  0  0
  191.4580  173.9440  143.5230 C   0  0  0  0  0  2  0  0  0  0  0  0
  183.9940  178.5360  144.7370 C   0  0  0  0  0  2  0  0  0  0  0  0
  187.5150  176.4670  143.2850 C   0  0  0  0  0  0  0  0  0  0  0  0
  187.1350  177.2100  145.6080 C   0  0  0  0  0  0  0  0  0  0  0  0
  184.7620  177.0560  146.5710 C   0  0  0  0  0  2  0  0  0  0  0  0
  184.0890  178.3810  146.2490 C   0  0  0  0  0  2  0  0  0  0  0  0
  185.9370  179.7330  144.5690 C   0  0  0  0  0  2  0  0  0  0  0  0
  191.6570  176.2130  144.2460 C   0  0  1  0  0  3  0  0  0  0  0  0
  192.5660  175.2890  147.1700 C   0  0  0  0  0  2  0  0  0  0  0  0
  188.4030  177.0560  145.8620 N   0  0  0  0  0  0  0  0  0  0  0  0
  186.7240  178.7720  143.6750 C   0  0  0  0  0  2  0  0  0  0  0  0
  190.6430  176.3420  145.3190 N   0  0  2  0  0  0  0  0  0  0  0  0
  192.4360  173.9670  144.5350 O   0  0  0  0  0  0  0  0  0  0  0  0
  186.6560  177.3230  144.1720 C   0  0  1  0  0  3  0  0  0  0  0  0
  184.5590  179.7420  144.2800 O   0  0  0  0  0  0  0  0  0  0  0  0
  193.5000  175.6090  146.0070 C   0  0  2  0  0  3  0  0  0  0  0  0
  188.8740  176.2990  143.5990 C   0  0  0  0  0  0  0  0  0  0  0  0
  186.2070  177.2110  146.7010 N   0  0  0  0  0  2  0  0  0  0  0  0
  189.4310  177.0020  144.8100 C   0  0  1  0  0  3  0  0  0  0  0  0
  187.8150  175.1210  141.2970 C   0  0  0  0  0  3  0  0  0  0  0  0
  191.6950  176.4880  147.5370 C   0  0  0  0  0  2  0  0  0  0  0  0
  186.9870  175.8770  142.1320 C   0  0  0  0  0  3  0  0  0  0  0  0
  191.1950  177.2550  146.3170 C   0  0  0  0  0  2  0  0  0  0  0  0
  192.8250  175.3130  144.6610 C   0  0  2  0  0  3  0  0  0  0  0  0
  189.1690  174.9580  141.6090 C   0  0  0  0  0  3  0  0  0  0  0  0
  191.1520  175.3670  143.0940 C   0  0  2  0  0  3  0  0  0  0  0  0
  194.7850  174.8060  146.1240 C   0  0  0  0  0  2  0  0  0  0  0  0
  195.7340  175.1590  144.9910 C   0  0  0  0  0  2  0  0  0  0  0  0
  196.9590  171.9060  145.7570 C   0  0  0  0  0  2  0  0  0  0  0  0
  195.8850  173.0670  143.9460 C   0  0  0  0  0  2  0  0  0  0  0  0
  196.6280  174.0440  144.7300 N   0  0  0  0  0  0  0  0  0  0  0  0
  196.2940  171.6890  144.4200 C   0  0  0  0  0  2  0  0  0  0  0  0
  196.8810  173.3950  146.0070 C   0  0  0  0  0  2  0  0  0  0  0  0
  1 27  1  0  0  0  0
  1 18  1  0  0  0  0
  2 14  1  0  0  0  0
  3  7  1  0  0  0  0
  4 18  2  0  0  0  0
  4 15  1  0  0  0  0
  5 11  2  0  0  0  0
  5 19  1  0  0  0  0
  6 19  1  0  0  0  0
  7  6  1  0  0  0  0
  9 25  1  0  0  0  0
  9 13  1  0  0  0  0
 10 22  1  0  0  0  0
 12 15  1  0  0  0  0
 12  8  1  0  0  0  0
 13 24  1  0  0  0  0
 14 25  1  0  0  0  0
 15  5  1  0  0  0  0
 16  8  1  0  0  0  0
 16  3  1  0  0  0  0
 17 28  1  0  0  0  0
 17 10  1  0  0  0  0
 18 20  1  0  0  0  0
 20 13  1  0  0  0  0
 20 11  1  0  0  0  0
 21 26  1  0  0  0  0
 21 23  2  0  0  0  0
 23  4  1  0  0  0  0
 24 22  1  0  0  0  0
 25 17  1  0  0  0  0
 26  1  2  0  0  0  0
 27  2  1  0  0  0  0
 27  9  1  0  0  0  0
 29 28  1  0  0  0  0
 30 34  1  0  0  0  0
 31 33  1  0  0  0  0
 31 32  1  0  0  0  0
 32 29  1  0  0  0  0
 32 34  1  0  0  0  0
 33 30  1  0  0  0  0
M  END
>  <MODEL>
1

>  <REMARK>
 VINA RESULT:      -8.6      0.000      0.000
  Name = 
  3 active torsions:
  status: ('A' for Active; 'I' for Inactive)
    1  A    between atoms: C_17  and  C_28
    2  A    between atoms: C_28  and  C_29
    3  A    between atoms: C_29  and  N_32
                            x       y       z     vdW  Elec       q    Type
                         _______ _______ _______ _____ _____    ______ ____

>  <TORSDO>
F 3

$$$$
=
 OpenBabel11112417583D

 34 40  0  0  1  0  0  0  0  0999 V2000
  190.3850  176.9920  146.3250 C   0  0  0  0  0  0  0  0  0  0  0  0
  187.9210  176.7790  145.9730 C   0  0  0  0  0  2  0  0  0  0  0  0
  196.1370  173.4950  145.9870 C   0  0  0  0  0  2  0  0  0  0  0  0
  192.4650  175.7440  146.4820 C   0  0  0  0  0  0  0  0  0  0  0  0
  192.8970  174.0560  144.7340 C   0  0  0  0  0  0  0  0  0  0  0  0
  194.2800  171.9840  145.3460 C   0  0  0  0  0  2  0  0  0  0  0  0
  195.7300  172.3480  145.0710 C   0  0  0  0  0  2  0  0  0  0  0  0
  195.6670  175.1170  144.4420 C   0  0  0  0  0  2  0  0  0  0  0  0
  189.2770  177.1750  144.0450 C   0  0  1  0  0  3  0  0  0  0  0  0
  187.5500  175.1210  142.3060 C   0  0  0  0  0  2  0  0  0  0  0  0
  191.8730  174.4970  144.0590 N   0  0  0  0  0  0  0  0  0  0  0  0
  194.5810  175.8660  145.2170 C   0  0  0  0  0  2  0  0  0  0  0  0
  189.9050  175.8610  143.7670 N   0  0  2  0  0  0  0  0  0  0  0  0
  187.1080  176.5550  144.8460 O   0  0  0  0  0  0  0  0  0  0  0  0
  193.5280  174.9220  145.8090 C   0  0  1  0  0  3  0  0  0  0  0  0
  196.6700  174.5900  145.2790 O   0  0  0  0  0  0  0  0  0  0  0  0
  187.3080  176.6240  142.4070 C   0  0  2  0  0  3  0  0  0  0  0  0
  191.3590  176.1830  145.7340 C   0  0  0  0  0  0  0  0  0  0  0  0
  193.3710  172.7270  144.4800 N   0  0  0  0  0  2  0  0  0  0  0  0
  191.2860  175.8290  144.2720 C   0  0  1  0  0  3  0  0  0  0  0  0
  191.6110  176.9140  148.4200 C   0  0  0  0  0  3  0  0  0  0  0  0
  188.9430  174.8110  141.7630 C   0  0  0  0  0  2  0  0  0  0  0  0
  192.5890  176.1120  147.8250 C   0  0  0  0  0  3  0  0  0  0  0  0
  190.0160  175.7430  142.3150 C   0  0  0  0  0  2  0  0  0  0  0  0
  187.7720  177.1650  143.7670 C   0  0  2  0  0  3  0  0  0  0  0  0
  190.5130  177.3540  147.6730 C   0  0  0  0  0  3  0  0  0  0  0  0
  189.2040  177.4590  145.5310 C   0  0  2  0  0  3  0  0  0  0  0  0
  185.8350  176.9380  142.2050 C   0  0  0  0  0  2  0  0  0  0  0  0
  185.6540  178.3990  141.8280 C   0  0  0  0  0  2  0  0  0  0  0  0
  184.2620  178.5450  145.1010 C   0  0  0  0  0  2  0  0  0  0  0  0
  185.8070  179.7690  143.7240 C   0  0  0  0  0  2  0  0  0  0  0  0
  184.8720  179.0780  142.8470 N   0  0  0  0  0  0  0  0  0  0  0  0
  185.2810  179.6580  145.1380 C   0  0  0  0  0  2  0  0  0  0  0  0
  184.2650  178.0470  143.6730 C   0  0  0  0  0  2  0  0  0  0  0  0
  1 26  1  0  0  0  0
  4 23  2  0  0  0  0
  5 15  1  0  0  0  0
  7  6  1  0  0  0  0
  7  3  1  0  0  0  0
  8 12  1  0  0  0  0
  8 16  1  0  0  0  0
  9 27  1  0  0  0  0
 10 17  1  0  0  0  0
 11 20  1  0  0  0  0
 11  5  2  0  0  0  0
 12 15  1  0  0  0  0
 13  9  1  0  0  0  0
 13 20  1  0  0  0  0
 14  2  1  0  0  0  0
 15  4  1  0  0  0  0
 16  3  1  0  0  0  0
 17 25  1  0  0  0  0
 18  1  2  0  0  0  0
 18  4  1  0  0  0  0
 19  5  1  0  0  0  0
 19  6  1  0  0  0  0
 20 18  1  0  0  0  0
 22 10  1  0  0  0  0
 22 24  1  0  0  0  0
 23 21  1  0  0  0  0
 24 13  1  0  0  0  0
 25  9  1  0  0  0  0
 25 14  1  0  0  0  0
 26 21  2  0  0  0  0
 27  2  1  0  0  0  0
 27  1  1  0  0  0  0
 28 17  1  0  0  0  0
 29 28  1  0  0  0  0
 29 32  1  0  0  0  0
 30 33  1  0  0  0  0
 31 33  1  0  0  0  0
 32 34  1  0  0  0  0
 32 31  1  0  0  0  0
 34 30  1  0  0  0  0
M  END
>  <MODEL>
2

>  <REMARK>
 VINA RESULT:      -8.6      1.825      8.848
  Name = 
  3 active torsions:
  status: ('A' for Active; 'I' for Inactive)
    1  A    between atoms: C_17  and  C_28
    2  A    between atoms: C_28  and  C_29
    3  A    between atoms: C_29  and  N_32
                            x       y       z     vdW  Elec       q    Type
                         _______ _______ _______ _____ _____    ______ ____

>  <TORSDO>
F 3

$$$$
=
 OpenBabel11112417583D

 34 40  0  0  1  0  0  0  0  0999 V2000
  190.6010  174.2180  143.0200 C   0  0  0  0  0  0  0  0  0  0  0  0
  189.1690  176.2600  143.1460 C   0  0  0  0  0  2  0  0  0  0  0  0
  196.7740  171.9400  144.4830 C   0  0  0  0  0  2  0  0  0  0  0  0
  192.8720  173.3890  143.2720 C   0  0  0  0  0  0  0  0  0  0  0  0
  194.1040  174.0840  145.2950 C   0  0  0  0  0  0  0  0  0  0  0  0
  196.6540  174.3230  145.1550 C   0  0  0  0  0  2  0  0  0  0  0  0
  197.2260  172.9620  145.5180 C   0  0  0  0  0  2  0  0  0  0  0  0
  194.9610  171.2590  145.7020 C   0  0  0  0  0  2  0  0  0  0  0  0
  189.3530  174.9240  145.1190 C   0  0  1  0  0  3  0  0  0  0  0  0
  189.5250  177.5270  146.9670 C   0  0  0  0  0  2  0  0  0  0  0  0
  193.0080  174.5900  145.7850 N   0  0  0  0  0  0  0  0  0  0  0  0
  193.8590  171.6450  144.7130 C   0  0  0  0  0  2  0  0  0  0  0  0
  190.6930  175.2580  145.6590 N   0  0  2  0  0  0  0  0  0  0  0  0
  188.6270  177.0130  144.2040 O   0  0  0  0  0  0  0  0  0  0  0  0
  194.0340  173.0680  144.1690 C   0  0  1  0  0  3  0  0  0  0  0  0
  196.1400  170.8260  145.0640 O   0  0  0  0  0  0  0  0  0  0  0  0
  188.2480  176.7720  146.6100 C   0  0  2  0  0  3  0  0  0  0  0  0
  191.7130  173.9590  143.8260 C   0  0  0  0  0  0  0  0  0  0  0  0
  195.3630  174.5470  145.7990 N   0  0  0  0  0  2  0  0  0  0  0  0
  191.6670  174.2120  145.3100 C   0  0  1  0  0  3  0  0  0  0  0  0
  191.8080  173.3510  141.0990 C   0  0  0  0  0  3  0  0  0  0  0  0
  190.5250  176.6300  147.6910 C   0  0  0  0  0  2  0  0  0  0  0  0
  192.9170  173.0850  141.9080 C   0  0  0  0  0  3  0  0  0  0  0  0
  190.5840  175.2190  147.1150 C   0  0  0  0  0  2  0  0  0  0  0  0
  188.3750  176.0950  145.2390 C   0  0  2  0  0  3  0  0  0  0  0  0
  190.6530  173.9140  141.6530 C   0  0  0  0  0  3  0  0  0  0  0  0
  189.3650  174.8270  143.6060 C   0  0  2  0  0  3  0  0  0  0  0  0
  187.0570  177.7150  146.6100 C   0  0  0  0  0  2  0  0  0  0  0  0
  185.8140  176.9960  146.1140 C   0  0  0  0  0  2  0  0  0  0  0  0
  185.4680  179.9310  144.1300 C   0  0  0  0  0  2  0  0  0  0  0  0
  185.2170  177.5500  143.9160 C   0  0  0  0  0  2  0  0  0  0  0  0
  185.0070  177.9010  145.3130 N   0  0  0  0  0  0  0  0  0  0  0  0
  185.2470  178.8350  143.1180 C   0  0  0  0  0  2  0  0  0  0  0  0
  185.5810  179.2280  145.4640 C   0  0  0  0  0  2  0  0  0  0  0  0
  1 27  1  0  0  0  0
  1 18  1  0  0  0  0
  2 27  1  0  0  0  0
  2 14  1  0  0  0  0
  3 16  1  0  0  0  0
  3  7  1  0  0  0  0
  4 18  2  0  0  0  0
  4 15  1  0  0  0  0
  5 11  2  0  0  0  0
  5 19  1  0  0  0  0
  6  7  1  0  0  0  0
  6 19  1  0  0  0  0
  9 25  1  0  0  0  0
  9 13  1  0  0  0  0
 10 22  1  0  0  0  0
 12  8  1  0  0  0  0
 13 24  1  0  0  0  0
 14 25  1  0  0  0  0
 15 12  1  0  0  0  0
 15  5  1  0  0  0  0
 16  8  1  0  0  0  0
 17 10  1  0  0  0  0
 18 20  1  0  0  0  0
 20 13  1  0  0  0  0
 20 11  1  0  0  0  0
 21 26  1  0  0  0  0
 21 23  2  0  0  0  0
 23  4  1  0  0  0  0
 24 22  1  0  0  0  0
 25 17  1  0  0  0  0
 26  1  2  0  0  0  0
 27  9  1  0  0  0  0
 28 17  1  0  0  0  0
 29 28  1  0  0  0  0
 30 34  1  0  0  0  0
 31 32  1  0  0  0  0
 32 34  1  0  0  0  0
 32 29  1  0  0  0  0
 33 31  1  0  0  0  0
 33 30  1  0  0  0  0
M  END
>  <MODEL>
3

>  <REMARK>
 VINA RESULT:      -8.5      1.962      8.617
  Name = 
  3 active torsions:
  status: ('A' for Active; 'I' for Inactive)
    1  A    between atoms: C_17  and  C_28
    2  A    between atoms: C_28  and  C_29
    3  A    between atoms: C_29  and  N_32
                            x       y       z     vdW  Elec       q    Type
                         _______ _______ _______ _____ _____    ______ ____

>  <TORSDO>
F 3

$$$$
=
 OpenBabel11112417583D

 34 40  0  0  1  0  0  0  0  0999 V2000
  191.9130  176.2820  145.1470 C   0  0  0  0  0  0  0  0  0  0  0  0
  189.7480  177.1990  145.9900 C   0  0  0  0  0  2  0  0  0  0  0  0
  194.7740  170.6230  142.8630 C   0  0  0  0  0  2  0  0  0  0  0  0
  193.0890  174.2370  144.5620 C   0  0  0  0  0  0  0  0  0  0  0  0
  191.8900  172.6200  143.1340 C   0  0  0  0  0  0  0  0  0  0  0  0
  192.4080  170.1230  143.4070 C   0  0  0  0  0  2  0  0  0  0  0  0
  193.5470  169.8210  142.4470 C   0  0  0  0  0  2  0  0  0  0  0  0
  194.3280  172.3600  141.4410 C   0  0  0  0  0  2  0  0  0  0  0  0
  190.0300  177.0480  143.6210 C   0  0  1  0  0  3  0  0  0  0  0  0
  187.0130  176.0600  143.2410 C   0  0  0  0  0  2  0  0  0  0  0  0
  190.9520  173.5010  142.9290 N   0  0  0  0  0  0  0  0  0  0  0  0
  194.1670  173.4720  142.4780 C   0  0  0  0  0  2  0  0  0  0  0  0
  189.8440  175.6080  143.3250 N   0  0  2  0  0  0  0  0  0  0  0  0
  188.4830  177.4140  145.4120 O   0  0  0  0  0  0  0  0  0  0  0  0
  193.2510  173.0640  143.6380 C   0  0  1  0  0  3  0  0  0  0  0  0
  195.2930  171.4020  141.8110 O   0  0  0  0  0  0  0  0  0  0  0  0
  187.4900  177.5080  143.1760 C   0  0  2  0  0  3  0  0  0  0  0  0
  192.0520  175.1560  144.3310 C   0  0  0  0  0  0  0  0  0  0  0  0
  191.5900  171.2330  142.9300 N   0  0  0  0  0  2  0  0  0  0  0  0
  191.1450  174.9440  143.1470 C   0  0  1  0  0  3  0  0  0  0  0  0
  193.8410  175.5660  146.4390 C   0  0  0  0  0  3  0  0  0  0  0  0
  187.7030  175.1930  142.1910 C   0  0  0  0  0  2  0  0  0  0  0  0
  193.9840  174.4450  145.6170 C   0  0  0  0  0  3  0  0  0  0  0  0
  189.1820  175.5250  142.0250 C   0  0  0  0  0  2  0  0  0  0  0  0
  188.7260  177.7200  144.0610 C   0  0  2  0  0  3  0  0  0  0  0  0
  192.8100  176.4830  146.2040 C   0  0  0  0  0  3  0  0  0  0  0  0
  190.8070  177.2620  144.9050 C   0  0  2  0  0  3  0  0  0  0  0  0
  186.3800  178.4500  143.6100 C   0  0  0  0  0  2  0  0  0  0  0  0
  185.1390  177.6630  143.9950 C   0  0  0  0  0  2  0  0  0  0  0  0
  185.5900  177.6680  147.5250 C   0  0  0  0  0  2  0  0  0  0  0  0
  185.4560  179.2330  145.7060 C   0  0  0  0  0  2  0  0  0  0  0  0
  184.7090  178.0410  145.3300 N   0  0  0  0  0  0  0  0  0  0  0  0
  185.7930  179.1210  147.1770 C   0  0  0  0  0  2  0  0  0  0  0  0
  185.1710  177.0010  146.2350 C   0  0  0  0  0  2  0  0  0  0  0  0
  1 26  1  0  0  0  0
  4 23  2  0  0  0  0
  5 15  1  0  0  0  0
  7  3  1  0  0  0  0
  7  6  1  0  0  0  0
  8 16  1  0  0  0  0
  8 12  1  0  0  0  0
  9 25  1  0  0  0  0
  9 27  1  0  0  0  0
 11  5  2  0  0  0  0
 11 20  1  0  0  0  0
 12 15  1  0  0  0  0
 13  9  1  0  0  0  0
 14  2  1  0  0  0  0
 15  4  1  0  0  0  0
 16  3  1  0  0  0  0
 17 10  1  0  0  0  0
 17 28  1  0  0  0  0
 17 25  1  0  0  0  0
 18  4  1  0  0  0  0
 18  1  2  0  0  0  0
 19  5  1  0  0  0  0
 19  6  1  0  0  0  0
 20 13  1  0  0  0  0
 20 18  1  0  0  0  0
 22 10  1  0  0  0  0
 23 21  1  0  0  0  0
 24 22  1  0  0  0  0
 24 13  1  0  0  0  0
 25 14  1  0  0  0  0
 26 21  2  0  0  0  0
 27  1  1  0  0  0  0
 27  2  1  0  0  0  0
 28 29  1  0  0  0  0
 29 32  1  0  0  0  0
 31 33  1  0  0  0  0
 32 31  1  0  0  0  0
 32 34  1  0  0  0  0
 33 30  1  0  0  0  0
 34 30  1  0  0  0  0
M  END
>  <MODEL>
4

>  <REMARK>
 VINA RESULT:      -8.5      2.326      8.742
  Name = 
  3 active torsions:
  status: ('A' for Active; 'I' for Inactive)
    1  A    between atoms: C_17  and  C_28
    2  A    between atoms: C_28  and  C_29
    3  A    between atoms: C_29  and  N_32
                            x       y       z     vdW  Elec       q    Type
                         _______ _______ _______ _____ _____    ______ ____

>  <TORSDO>
F 3

$$$$
=
 OpenBabel11112417583D

 34 40  0  0  1  0  0  0  0  0999 V2000
  191.0400  176.3880  147.0080 C   0  0  0  0  0  0  0  0  0  0  0  0
  193.2150  176.0240  145.8330 C   0  0  0  0  0  2  0  0  0  0  0  0
  184.9030  179.0400  146.1570 C   0  0  0  0  0  2  0  0  0  0  0  0
  188.9050  177.5420  146.8820 C   0  0  0  0  0  0  0  0  0  0  0  0
  187.6860  177.4190  144.7390 C   0  0  0  0  0  0  0  0  0  0  0  0
  186.1880  179.3900  144.0660 C   0  0  0  0  0  2  0  0  0  0  0  0
  184.8120  179.0880  144.6370 C   0  0  0  0  0  2  0  0  0  0  0  0
  185.1910  176.7710  146.2360 C   0  0  0  0  0  2  0  0  0  0  0  0
  191.4530  174.4710  145.3900 C   0  0  1  0  0  3  0  0  0  0  0  0
  192.1990  174.3840  142.2820 C   0  0  0  0  0  2  0  0  0  0  0  0
  188.5320  176.5250  144.3120 N   0  0  0  0  0  0  0  0  0  0  0  0
  186.5720  176.7370  146.8930 C   0  0  0  0  0  2  0  0  0  0  0  0
  190.5450  175.2040  144.4760 N   0  0  2  0  0  0  0  0  0  0  0  0
  193.6120  175.2610  144.7200 O   0  0  0  0  0  0  0  0  0  0  0  0
  187.5630  177.6990  146.2260 C   0  0  1  0  0  3  0  0  0  0  0  0
  184.3960  177.8410  146.6920 O   0  0  0  0  0  0  0  0  0  0  0  0
  192.7290  173.4330  143.3520 C   0  0  2  0  0  3  0  0  0  0  0  0
  189.8070  176.5870  146.3820 C   0  0  0  0  0  0  0  0  0  0  0  0
  186.9260  178.1640  143.7790 N   0  0  0  0  0  2  0  0  0  0  0  0
  189.3870  175.7350  145.2130 C   0  0  1  0  0  3  0  0  0  0  0  0
  190.4820  178.1090  148.6270 C   0  0  0  0  0  3  0  0  0  0  0  0
  190.6770  174.3280  142.1830 C   0  0  0  0  0  2  0  0  0  0  0  0
  189.2450  178.3020  148.0060 C   0  0  0  0  0  3  0  0  0  0  0  0
  189.9970  174.2210  143.5450 C   0  0  0  0  0  2  0  0  0  0  0  0
  192.7850  174.1230  144.7210 C   0  0  2  0  0  3  0  0  0  0  0  0
  191.3770  177.1550  148.1310 C   0  0  0  0  0  3  0  0  0  0  0  0
  192.0050  175.3720  146.4770 C   0  0  2  0  0  3  0  0  0  0  0  0
  194.1110  172.9270  142.9730 C   0  0  0  0  0  2  0  0  0  0  0  0
  194.6160  171.9410  144.0130 C   0  0  0  0  0  2  0  0  0  0  0  0
  197.2440  174.2910  144.5050 C   0  0  0  0  0  2  0  0  0  0  0  0
  195.9990  172.6630  145.7630 C   0  0  0  0  0  2  0  0  0  0  0  0
  195.9900  172.2560  144.3650 N   0  0  0  0  0  0  0  0  0  0  0  0
  196.9980  173.7900  145.9070 C   0  0  0  0  0  2  0  0  0  0  0  0
  196.3570  173.4480  143.6180 C   0  0  0  0  0  2  0  0  0  0  0  0
  1 26  1  0  0  0  0
  2 27  1  0  0  0  0
  3 16  1  0  0  0  0
  4 23  2  0  0  0  0
  5 15  1  0  0  0  0
  6  7  1  0  0  0  0
  7  3  1  0  0  0  0
  8 16  1  0  0  0  0
  8 12  1  0  0  0  0
  9 27  1  0  0  0  0
 10 17  1  0  0  0  0
 11  5  2  0  0  0  0
 11 20  1  0  0  0  0
 13 20  1  0  0  0  0
 13  9  1  0  0  0  0
 14 25  1  0  0  0  0
 14  2  1  0  0  0  0
 15  4  1  0  0  0  0
 15 12  1  0  0  0  0
 17 25  1  0  0  0  0
 18  4  1  0  0  0  0
 18  1  2  0  0  0  0
 19  6  1  0  0  0  0
 19  5  1  0  0  0  0
 20 18  1  0  0  0  0
 22 10  1  0  0  0  0
 22 24  1  0  0  0  0
 23 21  1  0  0  0  0
 24 13  1  0  0  0  0
 25  9  1  0  0  0  0
 26 21  2  0  0  0  0
 27  1  1  0  0  0  0
 28 17  1  0  0  0  0
 28 29  1  0  0  0  0
 29 32  1  0  0  0  0
 30 33  1  0  0  0  0
 31 33  1  0  0  0  0
 32 31  1  0  0  0  0
 34 32  1  0  0  0  0
 34 30  1  0  0  0  0
M  END
>  <MODEL>
5

>  <REMARK>
 VINA RESULT:      -8.3      1.670      3.717
  Name = 
  3 active torsions:
  status: ('A' for Active; 'I' for Inactive)
    1  A    between atoms: C_17  and  C_28
    2  A    between atoms: C_28  and  C_29
    3  A    between atoms: C_29  and  N_32
                            x       y       z     vdW  Elec       q    Type
                         _______ _______ _______ _____ _____    ______ ____

>  <TORSDO>
F 3

$$$$
=
 OpenBabel11112417583D

 34 40  0  0  1  0  0  0  0  0999 V2000
  191.0430  176.4560  146.9700 C   0  0  0  0  0  0  0  0  0  0  0  0
  193.2340  176.1900  145.8010 C   0  0  0  0  0  2  0  0  0  0  0  0
  184.8420  178.9690  146.1590 C   0  0  0  0  0  2  0  0  0  0  0  0
  188.8780  177.5550  146.8650 C   0  0  0  0  0  0  0  0  0  0  0  0
  187.6770  177.4700  144.7110 C   0  0  0  0  0  0  0  0  0  0  0  0
  186.1310  179.4210  144.0910 C   0  0  0  0  0  2  0  0  0  0  0  0
  184.7600  179.0640  144.6410 C   0  0  0  0  0  2  0  0  0  0  0  0
  185.1910  176.7070  146.1660 C   0  0  0  0  0  2  0  0  0  0  0  0
  191.5180  174.6050  145.2940 C   0  0  1  0  0  3  0  0  0  0  0  0
  192.2880  174.6400  142.1900 C   0  0  0  0  0  2  0  0  0  0  0  0
  188.5500  176.6140  144.2610 N   0  0  0  0  0  0  0  0  0  0  0  0
  186.5680  176.6880  146.8320 C   0  0  0  0  0  2  0  0  0  0  0  0
  190.5970  175.3430  144.3980 N   0  0  2  0  0  0  0  0  0  0  0  0
  193.6590  175.4740  144.6660 O   0  0  0  0  0  0  0  0  0  0  0  0
  187.5360  177.6980  146.2050 C   0  0  1  0  0  3  0  0  0  0  0  0
  184.3640  177.7390  146.6500 O   0  0  0  0  0  0  0  0  0  0  0  0
  192.8360  173.6690  143.2320 C   0  0  2  0  0  3  0  0  0  0  0  0
  189.8090  176.6420  146.3420 C   0  0  0  0  0  0  0  0  0  0  0  0
  186.9040  178.2250  143.7690 N   0  0  0  0  0  2  0  0  0  0  0  0
  189.4200  175.8180  145.1420 C   0  0  1  0  0  3  0  0  0  0  0  0
  190.4270  178.1080  148.6400 C   0  0  0  0  0  3  0  0  0  0  0  0
  190.7690  174.5460  142.0780 C   0  0  0  0  0  2  0  0  0  0  0  0
  189.1900  178.2870  148.0160 C   0  0  0  0  0  3  0  0  0  0  0  0
  190.0830  174.3770  143.4300 C   0  0  0  0  0  2  0  0  0  0  0  0
  192.8640  174.3150  144.6240 C   0  0  2  0  0  3  0  0  0  0  0  0
  191.3510  177.1940  148.1210 C   0  0  0  0  0  3  0  0  0  0  0  0
  192.0380  175.4850  146.4130 C   0  0  2  0  0  3  0  0  0  0  0  0
  194.2340  173.2140  142.8480 C   0  0  0  0  0  2  0  0  0  0  0  0
  194.7180  173.9720  141.6240 C   0  0  0  0  0  2  0  0  0  0  0  0
  196.7840  176.4440  143.1380 C   0  0  0  0  0  2  0  0  0  0  0  0
  196.4610  174.0620  143.1890 C   0  0  0  0  0  2  0  0  0  0  0  0
  196.0260  174.5490  141.8870 N   0  0  0  0  0  0  0  0  0  0  0  0
  197.1810  175.1960  143.8860 C   0  0  0  0  0  2  0  0  0  0  0  0
  195.8330  175.9790  142.0590 C   0  0  0  0  0  2  0  0  0  0  0  0
  1 26  1  0  0  0  0
  2 27  1  0  0  0  0
  3 16  1  0  0  0  0
  4 23  2  0  0  0  0
  5 15  1  0  0  0  0
  6  7  1  0  0  0  0
  7  3  1  0  0  0  0
  8 16  1  0  0  0  0
  8 12  1  0  0  0  0
  9 27  1  0  0  0  0
 10 17  1  0  0  0  0
 11  5  2  0  0  0  0
 11 20  1  0  0  0  0
 13 20  1  0  0  0  0
 13  9  1  0  0  0  0
 14  2  1  0  0  0  0
 15 12  1  0  0  0  0
 15  4  1  0  0  0  0
 17 25  1  0  0  0  0
 18  4  1  0  0  0  0
 18  1  2  0  0  0  0
 19  6  1  0  0  0  0
 19  5  1  0  0  0  0
 20 18  1  0  0  0  0
 22 10  1  0  0  0  0
 22 24  1  0  0  0  0
 23 21  1  0  0  0  0
 24 13  1  0  0  0  0
 25 14  1  0  0  0  0
 25  9  1  0  0  0  0
 26 21  2  0  0  0  0
 27  1  1  0  0  0  0
 28 17  1  0  0  0  0
 29 32  1  0  0  0  0
 29 28  1  0  0  0  0
 30 33  1  0  0  0  0
 31 33  1  0  0  0  0
 32 34  1  0  0  0  0
 32 31  1  0  0  0  0
 34 30  1  0  0  0  0
M  END
>  <MODEL>
6

>  <REMARK>
 VINA RESULT:      -8.3      1.896      3.895
  Name = 
  3 active torsions:
  status: ('A' for Active; 'I' for Inactive)
    1  A    between atoms: C_17  and  C_28
    2  A    between atoms: C_28  and  C_29
    3  A    between atoms: C_29  and  N_32
                            x       y       z     vdW  Elec       q    Type
                         _______ _______ _______ _____ _____    ______ ____

>  <TORSDO>
F 3

$$$$
=
 OpenBabel11112417583D

 34 40  0  0  1  0  0  0  0  0999 V2000
  189.9930  176.8880  146.2770 C   0  0  0  0  0  0  0  0  0  0  0  0
  187.5020  176.6960  146.2820 C   0  0  0  0  0  2  0  0  0  0  0  0
  195.5550  174.0020  143.7970 C   0  0  0  0  0  2  0  0  0  0  0  0
  192.0520  175.7630  145.6430 C   0  0  0  0  0  0  0  0  0  0  0  0
  192.1570  174.8100  143.3690 C   0  0  0  0  0  0  0  0  0  0  0  0
  193.5960  172.7210  142.9810 C   0  0  0  0  0  2  0  0  0  0  0  0
  194.9830  173.2260  142.6170 C   0  0  0  0  0  2  0  0  0  0  0  0
  194.8510  176.0350  143.0170 C   0  0  0  0  0  2  0  0  0  0  0  0
  188.5160  177.8000  144.4200 C   0  0  1  0  0  3  0  0  0  0  0  0
  186.4900  176.3990  142.3800 C   0  0  0  0  0  2  0  0  0  0  0  0
  191.0400  175.4090  143.0690 N   0  0  0  0  0  0  0  0  0  0  0  0
  193.9230  176.4160  144.1720 C   0  0  0  0  0  2  0  0  0  0  0  0
  189.0690  176.6950  143.6000 N   0  0  2  0  0  0  0  0  0  0  0  0
  186.5060  176.8390  145.2980 O   0  0  0  0  0  0  0  0  0  0  0  0
  192.9730  175.2770  144.5610 C   0  0  1  0  0  3  0  0  0  0  0  0
  195.9740  175.2970  143.4400 O   0  0  0  0  0  0  0  0  0  0  0  0
  186.2900  177.7610  143.0400 C   0  0  2  0  0  3  0  0  0  0  0  0
  190.8410  176.3820  145.2890 C   0  0  0  0  0  0  0  0  0  0  0  0
  192.5630  173.6760  142.5910 N   0  0  0  0  0  2  0  0  0  0  0  0
  190.5160  176.5550  143.8280 C   0  0  1  0  0  3  0  0  0  0  0  0
  191.5550  176.1450  147.9800 C   0  0  0  0  0  3  0  0  0  0  0  0
  187.7660  176.3630  141.5420 C   0  0  0  0  0  2  0  0  0  0  0  0
  192.4080  175.6460  146.9900 C   0  0  0  0  0  3  0  0  0  0  0  0
  188.9310  177.0950  142.2020 C   0  0  0  0  0  2  0  0  0  0  0  0
  186.9850  177.8170  144.4070 C   0  0  2  0  0  3  0  0  0  0  0  0
  190.3530  176.7650  147.6260 C   0  0  0  0  0  3  0  0  0  0  0  0
  188.7010  177.5470  145.9020 C   0  0  2  0  0  3  0  0  0  0  0  0
  184.8080  178.0560  143.2050 C   0  0  0  0  0  2  0  0  0  0  0  0
  184.1670  178.3110  141.8510 C   0  0  0  0  0  2  0  0  0  0  0  0
  180.7010  179.1240  141.8600 C   0  0  0  0  0  2  0  0  0  0  0  0
  182.2840  177.9160  140.5120 C   0  0  0  0  0  2  0  0  0  0  0  0
  182.7690  177.9160  141.8850 N   0  0  0  0  0  0  0  0  0  0  0  0
  180.8640  178.4390  140.5250 C   0  0  0  0  0  2  0  0  0  0  0  0
  182.0420  178.9870  142.5460 C   0  0  0  0  0  2  0  0  0  0  0  0
  1 26  1  0  0  0  0
  4 23  2  0  0  0  0
  5 15  1  0  0  0  0
  7  6  1  0  0  0  0
  7  3  1  0  0  0  0
  8 16  1  0  0  0  0
  8 12  1  0  0  0  0
  9 27  1  0  0  0  0
 10 17  1  0  0  0  0
 11  5  2  0  0  0  0
 11 20  1  0  0  0  0
 12 15  1  0  0  0  0
 13 20  1  0  0  0  0
 13  9  1  0  0  0  0
 14  2  1  0  0  0  0
 15  4  1  0  0  0  0
 16  3  1  0  0  0  0
 17 28  1  0  0  0  0
 17 25  1  0  0  0  0
 18  4  1  0  0  0  0
 18  1  2  0  0  0  0
 19  6  1  0  0  0  0
 19  5  1  0  0  0  0
 20 18  1  0  0  0  0
 22 24  1  0  0  0  0
 22 10  1  0  0  0  0
 23 21  1  0  0  0  0
 24 13  1  0  0  0  0
 25  9  1  0  0  0  0
 25 14  1  0  0  0  0
 26 21  2  0  0  0  0
 27  1  1  0  0  0  0
 27  2  1  0  0  0  0
 29 32  1  0  0  0  0
 29 28  1  0  0  0  0
 30 34  1  0  0  0  0
 31 33  1  0  0  0  0
 31 32  1  0  0  0  0
 32 34  1  0  0  0  0
 33 30  1  0  0  0  0
M  END
>  <MODEL>
7

>  <REMARK>
 VINA RESULT:      -8.2      2.556      9.474
  Name = 
  3 active torsions:
  status: ('A' for Active; 'I' for Inactive)
    1  A    between atoms: C_17  and  C_28
    2  A    between atoms: C_28  and  C_29
    3  A    between atoms: C_29  and  N_32
                            x       y       z     vdW  Elec       q    Type
                         _______ _______ _______ _____ _____    ______ ____

>  <TORSDO>
F 3

$$$$
=
 OpenBabel11112417583D

 34 40  0  0  1  0  0  0  0  0999 V2000
  190.5550  173.6750  142.6530 C   0  0  0  0  0  0  0  0  0  0  0  0
  192.2900  172.5840  144.0800 C   0  0  0  0  0  2  0  0  0  0  0  0
  185.0470  177.5450  142.9850 C   0  0  0  0  0  2  0  0  0  0  0  0
  188.4250  174.8450  142.6940 C   0  0  0  0  0  0  0  0  0  0  0  0
  188.1810  176.6780  144.3290 C   0  0  0  0  0  0  0  0  0  0  0  0
  185.8540  177.1560  145.2960 C   0  0  0  0  0  2  0  0  0  0  0  0
  185.2100  178.1710  144.3650 C   0  0  0  0  0  2  0  0  0  0  0  0
  187.0180  178.3900  142.1850 C   0  0  0  0  0  2  0  0  0  0  0  0
  192.5980  174.8940  143.5480 C   0  0  1  0  0  3  0  0  0  0  0  0
  193.6150  175.5270  146.5130 C   0  0  0  0  0  2  0  0  0  0  0  0
  189.4550  176.6070  144.5950 N   0  0  0  0  0  0  0  0  0  0  0  0
  187.7290  177.0690  141.8830 C   0  0  0  0  0  2  0  0  0  0  0  0
  191.6410  175.6000  144.4330 N   0  0  2  0  0  0  0  0  0  0  0  0
  193.3160  173.0640  144.9150 O   0  0  0  0  0  0  0  0  0  0  0  0
  187.6380  176.0750  143.0470 C   0  0  1  0  0  3  0  0  0  0  0  0
  185.6280  178.3250  141.9660 O   0  0  0  0  0  0  0  0  0  0  0  0
  194.5030  175.1660  145.3250 C   0  0  2  0  0  3  0  0  0  0  0  0
  189.7910  174.7880  143.0170 C   0  0  0  0  0  0  0  0  0  0  0  0
  187.3080  177.2790  145.2940 N   0  0  0  0  0  2  0  0  0  0  0  0
  190.4280  175.9750  143.6900 C   0  0  1  0  0  3  0  0  0  0  0  0
  188.5840  172.6650  141.6560 C   0  0  0  0  0  3  0  0  0  0  0  0
  192.8020  176.7910  146.2430 C   0  0  0  0  0  2  0  0  0  0  0  0
  187.8230  173.7820  142.0130 C   0  0  0  0  0  3  0  0  0  0  0  0
  192.2700  176.8620  144.8160 C   0  0  0  0  0  2  0  0  0  0  0  0
  193.7540  174.2670  144.3320 C   0  0  2  0  0  3  0  0  0  0  0  0
  189.9460  172.6120  141.9730 C   0  0  0  0  0  3  0  0  0  0  0  0
  192.0110  173.6100  142.9970 C   0  0  2  0  0  3  0  0  0  0  0  0
  195.7650  174.4660  145.8010 C   0  0  0  0  0  2  0  0  0  0  0  0
  196.6500  174.1100  144.6180 C   0  0  0  0  0  2  0  0  0  0  0  0
  196.5440  170.8530  146.0500 C   0  0  0  0  0  2  0  0  0  0  0  0
  196.5440  171.8880  143.8800 C   0  0  0  0  0  2  0  0  0  0  0  0
  197.2170  172.7860  144.8080 N   0  0  0  0  0  0  0  0  0  0  0  0
  196.3490  170.5620  144.5830 C   0  0  0  0  0  2  0  0  0  0  0  0
  196.8160  172.3380  146.1310 C   0  0  0  0  0  2  0  0  0  0  0  0
  1 27  1  0  0  0  0
  1 18  1  0  0  0  0
  2 14  1  0  0  0  0
  3  7  1  0  0  0  0
  4 18  2  0  0  0  0
  4 15  1  0  0  0  0
  5 11  2  0  0  0  0
  5 19  1  0  0  0  0
  7  6  1  0  0  0  0
  9 25  1  0  0  0  0
  9 13  1  0  0  0  0
 12  8  1  0  0  0  0
 12 15  1  0  0  0  0
 13 24  1  0  0  0  0
 15  5  1  0  0  0  0
 16  8  1  0  0  0  0
 16  3  1  0  0  0  0
 17 28  1  0  0  0  0
 17 10  1  0  0  0  0
 18 20  1  0  0  0  0
 19  6  1  0  0  0  0
 20 13  1  0  0  0  0
 20 11  1  0  0  0  0
 21 26  1  0  0  0  0
 21 23  2  0  0  0  0
 22 10  1  0  0  0  0
 23  4  1  0  0  0  0
 24 22  1  0  0  0  0
 25 14  1  0  0  0  0
 25 17  1  0  0  0  0
 26  1  2  0  0  0  0
 27  9  1  0  0  0  0
 27  2  1  0  0  0  0
 29 32  1  0  0  0  0
 29 28  1  0  0  0  0
 30 34  1  0  0  0  0
 31 33  1  0  0  0  0
 31 32  1  0  0  0  0
 32 34  1  0  0  0  0
 33 30  1  0  0  0  0
M  END
>  <MODEL>
8

>  <REMARK>
 VINA RESULT:      -8.2      1.423      1.875
  Name = 
  3 active torsions:
  status: ('A' for Active; 'I' for Inactive)
    1  A    between atoms: C_17  and  C_28
    2  A    between atoms: C_28  and  C_29
    3  A    between atoms: C_29  and  N_32
                            x       y       z     vdW  Elec       q    Type
                         _______ _______ _______ _____ _____    ______ ____

>  <TORSDO>
F 3

$$$$
=
 OpenBabel11112417583D

 34 40  0  0  1  0  0  0  0  0999 V2000
  192.7480  176.5540  144.8670 C   0  0  0  0  0  0  0  0  0  0  0  0
  190.3980  177.3510  145.1500 C   0  0  0  0  0  2  0  0  0  0  0  0
  196.5270  170.9740  144.9310 C   0  0  0  0  0  2  0  0  0  0  0  0
  194.2210  174.6380  145.1280 C   0  0  0  0  0  0  0  0  0  0  0  0
  193.4210  172.4770  144.2440 C   0  0  0  0  0  0  0  0  0  0  0  0
  194.1830  170.3210  145.4050 C   0  0  0  0  0  2  0  0  0  0  0  0
  195.4690  169.9000  144.7110 C   0  0  0  0  0  2  0  0  0  0  0  0
  196.0790  172.0550  142.9650 C   0  0  0  0  0  2  0  0  0  0  0  0
  191.0120  176.4750  143.0130 C   0  0  1  0  0  3  0  0  0  0  0  0
  188.2080  174.9620  142.7340 C   0  0  0  0  0  2  0  0  0  0  0  0
  192.4230  173.0860  143.6680 N   0  0  0  0  0  0  0  0  0  0  0  0
  195.6520  173.4080  143.5370 C   0  0  0  0  0  2  0  0  0  0  0  0
  191.0360  175.0070  143.2150 N   0  0  2  0  0  0  0  0  0  0  0  0
  189.2060  177.1650  144.4250 O   0  0  0  0  0  0  0  0  0  0  0  0
  194.6410  173.2670  144.6820 C   0  0  1  0  0  3  0  0  0  0  0  0
  197.0890  171.4340  143.7250 O   0  0  0  0  0  0  0  0  0  0  0  0
  188.5190  176.3630  142.2160 C   0  0  2  0  0  3  0  0  0  0  0  0
  193.1250  175.2580  144.5040 C   0  0  0  0  0  0  0  0  0  0  0  0
  193.3140  171.0720  144.5050 N   0  0  0  0  0  2  0  0  0  0  0  0
  192.4170  174.5310  143.3920 C   0  0  1  0  0  3  0  0  0  0  0  0
  194.5540  176.6100  146.4900 C   0  0  0  0  0  3  0  0  0  0  0  0
  189.1290  173.9160  142.1110 C   0  0  0  0  0  2  0  0  0  0  0  0
  194.9350  175.3170  146.1200 C   0  0  0  0  0  3  0  0  0  0  0  0
  190.5690  174.4000  141.9710 C   0  0  0  0  0  2  0  0  0  0  0  0
  189.5910  177.0430  143.0780 C   0  0  2  0  0  3  0  0  0  0  0  0
  193.4650  177.2280  145.8650 C   0  0  0  0  0  3  0  0  0  0  0  0
  191.5790  177.2170  144.2060 C   0  0  2  0  0  3  0  0  0  0  0  0
  187.2590  177.2130  142.2000 C   0  0  0  0  0  2  0  0  0  0  0  0
  186.1350  176.5050  142.9390 C   0  0  0  0  0  2  0  0  0  0  0  0
  185.5800  178.9630  145.4530 C   0  0  0  0  0  2  0  0  0  0  0  0
  185.6300  178.7910  143.0560 C   0  0  0  0  0  2  0  0  0  0  0  0
  185.2830  177.4830  143.5950 N   0  0  0  0  0  0  0  0  0  0  0  0
  185.5610  179.7890  144.1910 C   0  0  0  0  0  2  0  0  0  0  0  0
  185.6850  177.5270  144.9910 C   0  0  0  0  0  2  0  0  0  0  0  0
  1 26  1  0  0  0  0
  4 23  2  0  0  0  0
  5 19  1  0  0  0  0
  5 15  1  0  0  0  0
  7  3  1  0  0  0  0
  7  6  1  0  0  0  0
  8 12  1  0  0  0  0
  8 16  1  0  0  0  0
  9 25  1  0  0  0  0
  9 13  1  0  0  0  0
  9 27  1  0  0  0  0
 11  5  2  0  0  0  0
 12 15  1  0  0  0  0
 13 20  1  0  0  0  0
 14  2  1  0  0  0  0
 15  4  1  0  0  0  0
 16  3  1  0  0  0  0
 17 10  1  0  0  0  0
 17 25  1  0  0  0  0
 18  1  2  0  0  0  0
 18  4  1  0  0  0  0
 19  6  1  0  0  0  0
 20 11  1  0  0  0  0
 20 18  1  0  0  0  0
 22 10  1  0  0  0  0
 23 21  1  0  0  0  0
 24 22  1  0  0  0  0
 24 13  1  0  0  0  0
 25 14  1  0  0  0  0
 26 21  2  0  0  0  0
 27  1  1  0  0  0  0
 27  2  1  0  0  0  0
 28 17  1  0  0  0  0
 28 29  1  0  0  0  0
 29 32  1  0  0  0  0
 31 32  1  0  0  0  0
 31 33  1  0  0  0  0
 32 34  1  0  0  0  0
 33 30  1  0  0  0  0
 34 30  1  0  0  0  0
M  END
>  <MODEL>
9

>  <REMARK>
 VINA RESULT:      -8.1      2.177      9.075
  Name = 
  3 active torsions:
  status: ('A' for Active; 'I' for Inactive)
    1  A    between atoms: C_17  and  C_28
    2  A    between atoms: C_28  and  C_29
    3  A    between atoms: C_29  and  N_32
                            x       y       z     vdW  Elec       q    Type
                         _______ _______ _______ _____ _____    ______ ____

>  <TORSDO>
F 3

$$$$
