=
 OpenBabel11112417023D

 31 35  0  0  1  0  0  0  0  0999 V2000
  184.8160  177.8850  146.8290 C   0  0  0  0  0  0  0  0  0  0  0  0
  187.0620  176.0180  144.3930 C   0  0  2  0  0  3  0  0  0  0  0  0
  186.8400  176.6480  143.0260 C   0  0  0  0  0  0  0  0  0  0  0  0
  185.5140  178.0050  141.5030 C   0  0  0  0  0  0  0  0  0  0  0  0
  186.6240  176.9100  145.5320 C   0  0  0  0  0  0  0  0  0  0  0  0
  185.7390  178.6310  147.5640 C   0  0  0  0  0  3  0  0  0  0  0  0
  185.7230  177.4600  142.7710 C   0  0  0  0  0  3  0  0  0  0  0  0
  189.4290  176.7680  144.8260 C   0  0  2  0  0  3  0  0  0  0  0  0
  183.4920  177.9960  147.0930 F   0  0  0  0  0  0  0  0  0  0  0  0
  188.8220  175.5120  142.1720 O   0  0  0  0  0  0  0  0  0  0  0  0
  184.4390  178.7980  141.2750 F   0  0  0  0  0  0  0  0  0  0  0  0
  189.0390  177.4710  146.1250 C   0  0  0  0  0  2  0  0  0  0  0  0
  188.5200  175.5550  144.5850 C   0  0  2  0  0  3  0  0  0  0  0  0
  185.2560  177.0270  145.8190 C   0  0  0  0  0  3  0  0  0  0  0  0
  186.4110  177.7320  140.4680 C   0  0  0  0  0  3  0  0  0  0  0  0
  187.5570  177.6630  146.2810 C   0  0  0  0  0  0  0  0  0  0  0  0
  187.1050  178.5120  147.2970 C   0  0  0  0  0  3  0  0  0  0  0  0
  188.9650  174.7450  143.3650 C   0  0  0  0  0  2  0  0  0  0  0  0
  187.7220  176.3500  141.9650 C   0  0  0  0  0  0  0  0  0  0  0  0
  187.5130  176.9050  140.6990 C   0  0  0  0  0  3  0  0  0  0  0  0
  191.5940  177.9860  143.4230 O   0  0  0  0  0  0  0  0  0  0  0  0
  191.8630  177.0130  144.1800 C   0  0  0  0  0  0  0  0  0  0  0  0
  190.8230  176.3520  144.9040 N   0  0  0  0  0  2  0  0  0  0  0  0
  193.5960  173.6170  144.8270 C   0  0  1  0  0  3  0  0  0  0  0  0
  193.6460  175.5330  143.2150 C   0  0  0  0  0  2  0  0  0  0  0  0
  193.8060  176.7550  146.7080 C   0  0  0  0  0  2  0  0  0  0  0  0
  193.1170  172.3260  145.0400 O   0  0  0  0  0  1  0  0  0  0  0  0
  193.0840  174.1360  143.4870 C   0  0  0  0  0  2  0  0  0  0  0  0
  193.5320  175.9450  145.6890 C   0  0  0  0  0  0  0  0  0  0  0  0
  193.2730  176.5270  144.3230 C   0  0  2  0  0  3  0  0  0  0  0  0
  193.1380  174.5240  145.9660 C   0  0  0  0  0  2  0  0  0  0  0  0
  1  9  1  0  0  0  0
  1  6  1  0  0  0  0
  2  3  1  6  0  0  0
  2 13  1  0  0  0  0
  2  5  1  0  0  0  0
  4  7  2  0  0  0  0
  5 14  1  0  0  0  0
  5 16  2  0  0  0  0
  7  3  1  0  0  0  0
  8 23  1  1  0  0  0
  8 12  1  0  0  0  0
 10 18  1  0  0  0  0
 11  4  1  0  0  0  0
 12 16  1  0  0  0  0
 13 18  1  6  0  0  0
 13  8  1  0  0  0  0
 14  1  2  0  0  0  0
 15 20  2  0  0  0  0
 15  4  1  0  0  0  0
 16 17  1  0  0  0  0
 17  6  2  0  0  0  0
 19 10  1  0  0  0  0
 19  3  2  0  0  0  0
 20 19  1  0  0  0  0
 21 22  2  0  0  0  0
 22 23  1  0  0  0  0
 24 27  1  1  0  0  0
 24 31  1  0  0  0  0
 25 28  1  0  0  0  0
 25 30  1  0  0  0  0
 28 24  1  0  0  0  0
 29 31  1  0  0  0  0
 29 26  2  0  0  0  0
 30 22  1  1  0  0  0
 30 29  1  0  0  0  0
M  END
>  <MODEL>
1

>  <REMARK>
 VINA RESULT:      -9.1      0.000      0.000
  Name = 
  2 active torsions:
  status: ('A' for Active; 'I' for Inactive)
    1  A    between atoms: C_5  and  C_30
    2  A    between atoms: C_10  and  N_16
                            x       y       z     vdW  Elec       q    Type
                         _______ _______ _______ _____ _____    ______ ____

>  <TORSDO>
F 2

$$$$
=
 OpenBabel11112417023D

 31 35  0  0  1  0  0  0  0  0999 V2000
  184.6640  178.2430  146.8550 C   0  0  0  0  0  0  0  0  0  0  0  0
  187.2940  176.0780  145.1620 C   0  0  2  0  0  3  0  0  0  0  0  0
  187.4640  176.6220  143.7520 C   0  0  0  0  0  0  0  0  0  0  0  0
  186.6600  177.9460  141.8750 C   0  0  0  0  0  0  0  0  0  0  0  0
  186.6570  177.0720  146.1060 C   0  0  0  0  0  0  0  0  0  0  0  0
  185.4310  178.9810  147.7580 C   0  0  0  0  0  3  0  0  0  0  0  0
  186.5080  177.4800  143.1820 C   0  0  0  0  0  3  0  0  0  0  0  0
  189.5310  176.7130  146.1340 C   0  0  2  0  0  3  0  0  0  0  0  0
  183.3280  178.4500  146.7730 F   0  0  0  0  0  0  0  0  0  0  0  0
  189.5030  175.3120  143.4830 O   0  0  0  0  0  0  0  0  0  0  0  0
  185.7380  178.7830  141.3430 F   0  0  0  0  0  0  0  0  0  0  0  0
  188.8870  177.5280  147.2550 C   0  0  0  0  0  2  0  0  0  0  0  0
  188.6200  175.5430  145.7380 C   0  0  2  0  0  3  0  0  0  0  0  0
  185.2740  177.2910  146.0340 C   0  0  0  0  0  3  0  0  0  0  0  0
  187.7620  177.5480  141.1150 C   0  0  0  0  0  3  0  0  0  0  0  0
  187.4310  177.8190  147.0240 C   0  0  0  0  0  0  0  0  0  0  0  0
  186.8080  178.7630  147.8480 C   0  0  0  0  0  3  0  0  0  0  0  0
  189.2890  174.6240  144.7130 C   0  0  0  0  0  2  0  0  0  0  0  0
  188.5550  176.1980  142.9630 C   0  0  0  0  0  0  0  0  0  0  0  0
  188.7060  176.6740  141.6580 C   0  0  0  0  0  3  0  0  0  0  0  0
  191.9980  177.0670  144.7460 O   0  0  0  0  0  0  0  0  0  0  0  0
  192.0290  176.4410  145.8400 C   0  0  0  0  0  0  0  0  0  0  0  0
  190.8270  176.2210  146.5810 N   0  0  0  0  0  2  0  0  0  0  0  0
  195.6990  176.2830  144.6320 C   0  0  1  0  0  3  0  0  0  0  0  0
  194.3460  177.0280  146.6040 C   0  0  0  0  0  2  0  0  0  0  0  0
  193.4350  173.5760  145.6190 C   0  0  0  0  0  2  0  0  0  0  0  0
  196.3410  176.7090  143.4710 O   0  0  0  0  0  1  0  0  0  0  0  0
  195.0100  177.4700  145.2990 C   0  0  0  0  0  2  0  0  0  0  0  0
  193.8890  174.8210  145.5000 C   0  0  0  0  0  0  0  0  0  0  0  0
  193.3230  175.9080  146.3760 C   0  0  2  0  0  3  0  0  0  0  0  0
  194.6830  175.1980  144.2840 C   0  0  0  0  0  2  0  0  0  0  0  0
  1  6  1  0  0  0  0
  2  3  1  6  0  0  0
  2 13  1  0  0  0  0
  2  5  1  0  0  0  0
  4  7  2  0  0  0  0
  5 16  2  0  0  0  0
  6 17  2  0  0  0  0
  7  3  1  0  0  0  0
  8 23  1  1  0  0  0
  8 12  1  0  0  0  0
  9  1  1  0  0  0  0
 10 18  1  0  0  0  0
 11  4  1  0  0  0  0
 13 18  1  6  0  0  0
 13  8  1  0  0  0  0
 14  5  1  0  0  0  0
 14  1  2  0  0  0  0
 15 20  2  0  0  0  0
 15  4  1  0  0  0  0
 16 12  1  0  0  0  0
 16 17  1  0  0  0  0
 19 10  1  0  0  0  0
 19  3  2  0  0  0  0
 20 19  1  0  0  0  0
 21 22  2  0  0  0  0
 22 23  1  0  0  0  0
 24 27  1  6  0  0  0
 24 28  1  0  0  0  0
 28 25  1  0  0  0  0
 29 26  2  0  0  0  0
 29 30  1  0  0  0  0
 30 22  1  6  0  0  0
 30 25  1  0  0  0  0
 31 24  1  0  0  0  0
 31 29  1  0  0  0  0
M  END
>  <MODEL>
2

>  <REMARK>
 VINA RESULT:      -9.1      1.452      2.051
  Name = 
  2 active torsions:
  status: ('A' for Active; 'I' for Inactive)
    1  A    between atoms: C_5  and  C_30
    2  A    between atoms: C_10  and  N_16
                            x       y       z     vdW  Elec       q    Type
                         _______ _______ _______ _____ _____    ______ ____

>  <TORSDO>
F 2

$$$$
=
 OpenBabel11112417023D

 31 35  0  0  1  0  0  0  0  0999 V2000
  194.6140  176.3830  145.0640 C   0  0  0  0  0  0  0  0  0  0  0  0
  191.2110  177.0060  143.4830 C   0  0  2  0  0  3  0  0  0  0  0  0
  190.8830  175.7720  142.6550 C   0  0  0  0  0  0  0  0  0  0  0  0
  191.5720  173.7380  141.5110 C   0  0  0  0  0  0  0  0  0  0  0  0
  192.2730  176.7500  144.5280 C   0  0  0  0  0  0  0  0  0  0  0  0
  194.2800  176.1720  146.4020 C   0  0  0  0  0  3  0  0  0  0  0  0
  191.8800  174.8480  142.3000 C   0  0  0  0  0  3  0  0  0  0  0  0
  189.4820  176.7660  145.3010 C   0  0  2  0  0  3  0  0  0  0  0  0
  195.9070  176.3040  144.6670 F   0  0  0  0  0  0  0  0  0  0  0  0
  188.5680  176.5100  142.4570 O   0  0  0  0  0  0  0  0  0  0  0  0
  192.5400  172.8470  141.1880 F   0  0  0  0  0  0  0  0  0  0  0  0
  190.5430  176.7570  146.4010 C   0  0  0  0  0  2  0  0  0  0  0  0
  189.9500  177.6250  144.1190 C   0  0  2  0  0  3  0  0  0  0  0  0
  193.6150  176.6720  144.1310 C   0  0  0  0  0  3  0  0  0  0  0  0
  190.2660  173.5460  141.0540 C   0  0  0  0  0  3  0  0  0  0  0  0
  191.9380  176.5400  145.8850 C   0  0  0  0  0  0  0  0  0  0  0  0
  192.9480  176.2600  146.8130 C   0  0  0  0  0  3  0  0  0  0  0  0
  188.8600  177.7710  143.0560 C   0  0  0  0  0  2  0  0  0  0  0  0
  189.5750  175.5880  142.1580 C   0  0  0  0  0  0  0  0  0  0  0  0
  189.2700  174.4700  141.3760 C   0  0  0  0  0  3  0  0  0  0  0  0
  187.8740  175.4670  147.2680 O   0  0  0  0  0  0  0  0  0  0  0  0
  187.4790  176.5840  146.8350 C   0  0  0  0  0  0  0  0  0  0  0  0
  188.2320  177.2840  145.8440 N   0  0  0  0  0  2  0  0  0  0  0  0
  184.7920  179.0070  145.4690 C   0  0  1  0  0  3  0  0  0  0  0  0
  184.9940  176.7430  146.5220 C   0  0  0  0  0  2  0  0  0  0  0  0
  186.8770  179.2670  148.4710 C   0  0  0  0  0  2  0  0  0  0  0  0
  184.6450  179.6880  144.2630 O   0  0  0  0  0  1  0  0  0  0  0  0
  184.8870  177.5080  145.2010 C   0  0  0  0  0  2  0  0  0  0  0  0
  186.2910  178.6930  147.4240 C   0  0  0  0  0  0  0  0  0  0  0  0
  186.2070  177.1910  147.3470 C   0  0  2  0  0  3  0  0  0  0  0  0
  186.0440  179.5050  146.1870 C   0  0  0  0  0  2  0  0  0  0  0  0
  1  6  1  0  0  0  0
  2  3  1  1  0  0  0
  2 13  1  0  0  0  0
  2  5  1  0  0  0  0
  4  7  2  0  0  0  0
  5 16  2  0  0  0  0
  6 17  2  0  0  0  0
  7  3  1  0  0  0  0
  8 23  1  1  0  0  0
  8 12  1  0  0  0  0
  9  1  1  0  0  0  0
 10 18  1  0  0  0  0
 11  4  1  0  0  0  0
 13 18  1  6  0  0  0
 13  8  1  0  0  0  0
 14  5  1  0  0  0  0
 14  1  2  0  0  0  0
 15 20  2  0  0  0  0
 15  4  1  0  0  0  0
 16 12  1  0  0  0  0
 16 17  1  0  0  0  0
 19 10  1  0  0  0  0
 19  3  2  0  0  0  0
 20 19  1  0  0  0  0
 22 21  2  0  0  0  0
 23 22  1  0  0  0  0
 24 27  1  6  0  0  0
 24 31  1  0  0  0  0
 25 30  1  0  0  0  0
 28 24  1  0  0  0  0
 28 25  1  0  0  0  0
 29 26  2  0  0  0  0
 30 22  1  6  0  0  0
 30 29  1  0  0  0  0
 31 29  1  0  0  0  0
M  END
>  <MODEL>
3

>  <REMARK>
 VINA RESULT:      -8.9      3.592      7.051
  Name = 
  2 active torsions:
  status: ('A' for Active; 'I' for Inactive)
    1  A    between atoms: C_5  and  C_30
    2  A    between atoms: C_10  and  N_16
                            x       y       z     vdW  Elec       q    Type
                         _______ _______ _______ _____ _____    ______ ____

>  <TORSDO>
F 2

$$$$
=
 OpenBabel11112417023D

 31 35  0  0  1  0  0  0  0  0999 V2000
  185.9750  178.2250  140.8820 C   0  0  0  0  0  0  0  0  0  0  0  0
  188.3310  178.0180  143.8610 C   0  0  2  0  0  3  0  0  0  0  0  0
  187.4820  177.6270  145.0620 C   0  0  0  0  0  0  0  0  0  0  0  0
  185.3180  177.4140  146.1540 C   0  0  0  0  0  0  0  0  0  0  0  0
  187.6700  177.6960  142.5400 C   0  0  0  0  0  0  0  0  0  0  0  0
  186.3320  177.0920  140.1490 C   0  0  0  0  0  3  0  0  0  0  0  0
  186.0820  177.7450  145.0330 C   0  0  0  0  0  3  0  0  0  0  0  0
  189.6920  175.9130  143.6000 C   0  0  2  0  0  3  0  0  0  0  0  0
  184.9780  179.0310  140.4420 F   0  0  0  0  0  0  0  0  0  0  0  0
  189.5000  177.1260  146.3350 O   0  0  0  0  0  0  0  0  0  0  0  0
  183.9680  177.5200  146.1080 F   0  0  0  0  0  0  0  0  0  0  0  0
  189.2200  175.7080  142.1610 C   0  0  0  0  0  2  0  0  0  0  0  0
  189.7460  177.4100  143.9320 C   0  0  2  0  0  3  0  0  0  0  0  0
  186.6420  178.5260  142.0720 C   0  0  0  0  0  3  0  0  0  0  0  0
  185.9440  176.9740  147.3220 C   0  0  0  0  0  3  0  0  0  0  0  0
  188.0320  176.5520  141.7930 C   0  0  0  0  0  0  0  0  0  0  0  0
  187.3630  176.2650  140.5990 C   0  0  0  0  0  3  0  0  0  0  0  0
  190.3420  177.6630  145.3190 C   0  0  0  0  0  2  0  0  0  0  0  0
  188.1070  177.2160  146.2580 C   0  0  0  0  0  0  0  0  0  0  0  0
  187.3360  176.8770  147.3740 C   0  0  0  0  0  3  0  0  0  0  0  0
  190.2760  173.6800  145.2760 O   0  0  0  0  0  0  0  0  0  0  0  0
  191.2290  174.1810  144.6180 C   0  0  0  0  0  0  0  0  0  0  0  0
  191.0050  175.3060  143.7660 N   0  0  0  0  0  2  0  0  0  0  0  0
  194.8250  175.5910  144.8120 C   0  0  1  0  0  3  0  0  0  0  0  0
  193.2950  174.0290  146.0340 C   0  0  0  0  0  2  0  0  0  0  0  0
  193.3510  173.2440  142.4150 C   0  0  0  0  0  2  0  0  0  0  0  0
  195.3460  176.8830  144.7910 O   0  0  0  0  0  1  0  0  0  0  0  0
  193.8350  175.4590  145.9660 C   0  0  0  0  0  2  0  0  0  0  0  0
  193.4590  173.9610  143.5300 C   0  0  0  0  0  0  0  0  0  0  0  0
  192.6110  173.6120  144.7260 C   0  0  2  0  0  3  0  0  0  0  0  0
  194.1390  175.2960  143.4800 C   0  0  0  0  0  2  0  0  0  0  0  0
  1 14  1  0  0  0  0
  2  5  1  6  0  0  0
  2 13  1  0  0  0  0
  2  3  1  0  0  0  0
  3 19  1  0  0  0  0
  4 15  2  0  0  0  0
  6 17  1  0  0  0  0
  6  1  2  0  0  0  0
  7  3  2  0  0  0  0
  7  4  1  0  0  0  0
  8 23  1  6  0  0  0
  8 13  1  0  0  0  0
  9  1  1  0  0  0  0
 11  4  1  0  0  0  0
 12  8  1  0  0  0  0
 13 18  1  1  0  0  0
 14  5  2  0  0  0  0
 15 20  1  0  0  0  0
 16 12  1  0  0  0  0
 16  5  1  0  0  0  0
 17 16  2  0  0  0  0
 18 10  1  0  0  0  0
 19 10  1  0  0  0  0
 19 20  2  0  0  0  0
 22 21  2  0  0  0  0
 23 22  1  0  0  0  0
 24 27  1  6  0  0  0
 24 28  1  0  0  0  0
 26 29  2  0  0  0  0
 28 25  1  0  0  0  0
 29 30  1  0  0  0  0
 30 22  1  6  0  0  0
 30 25  1  0  0  0  0
 31 29  1  0  0  0  0
 31 24  1  0  0  0  0
M  END
>  <MODEL>
4

>  <REMARK>
 VINA RESULT:      -8.6      1.623      4.474
  Name = 
  2 active torsions:
  status: ('A' for Active; 'I' for Inactive)
    1  A    between atoms: C_5  and  C_30
    2  A    between atoms: C_10  and  N_16
                            x       y       z     vdW  Elec       q    Type
                         _______ _______ _______ _____ _____    ______ ____

>  <TORSDO>
F 2

$$$$
=
 OpenBabel11112417023D

 31 35  0  0  1  0  0  0  0  0999 V2000
  184.8870  177.8350  146.5520 C   0  0  0  0  0  0  0  0  0  0  0  0
  186.8600  175.9290  143.9170 C   0  0  2  0  0  3  0  0  0  0  0  0
  186.5840  176.6140  142.5870 C   0  0  0  0  0  0  0  0  0  0  0  0
  185.2390  178.0890  141.1960 C   0  0  0  0  0  0  0  0  0  0  0  0
  186.5480  176.8060  145.1080 C   0  0  0  0  0  0  0  0  0  0  0  0
  185.8960  178.5050  147.2440 C   0  0  0  0  0  3  0  0  0  0  0  0
  185.5000  177.4930  142.4310 C   0  0  0  0  0  3  0  0  0  0  0  0
  189.2890  176.5350  144.2110 C   0  0  2  0  0  3  0  0  0  0  0  0
  183.5910  178.0080  146.9070 F   0  0  0  0  0  0  0  0  0  0  0  0
  188.4390  175.4010  141.5690 O   0  0  0  0  0  0  0  0  0  0  0  0
  184.1980  178.9460  141.0640 F   0  0  0  0  0  0  0  0  0  0  0  0
  189.0250  177.2160  145.5540 C   0  0  0  0  0  2  0  0  0  0  0  0
  188.2990  175.3820  143.9980 C   0  0  2  0  0  3  0  0  0  0  0  0
  185.2110  176.9880  145.4900 C   0  0  0  0  0  3  0  0  0  0  0  0
  186.0500  177.8020  140.0960 C   0  0  0  0  0  3  0  0  0  0  0  0
  187.5680  177.4830  145.8140 C   0  0  0  0  0  0  0  0  0  0  0  0
  187.2330  178.3220  146.8820 C   0  0  0  0  0  3  0  0  0  0  0  0
  188.6170  174.5890  142.7280 C   0  0  0  0  0  2  0  0  0  0  0  0
  187.3760  176.3030  141.4610 C   0  0  0  0  0  0  0  0  0  0  0  0
  187.1160  176.9090  140.2280 C   0  0  0  0  0  3  0  0  0  0  0  0
  190.4390  174.7510  146.1170 O   0  0  0  0  0  0  0  0  0  0  0  0
  191.1710  175.1410  145.1670 C   0  0  0  0  0  0  0  0  0  0  0  0
  190.6590  176.0420  144.1830 N   0  0  0  0  0  2  0  0  0  0  0  0
  194.6710  176.7570  145.4710 C   0  0  1  0  0  3  0  0  0  0  0  0
  193.3430  174.8410  146.3870 C   0  0  0  0  0  2  0  0  0  0  0  0
  193.1780  174.9000  142.6870 C   0  0  0  0  0  2  0  0  0  0  0  0
  195.1030  178.0590  145.7190 O   0  0  0  0  0  1  0  0  0  0  0  0
  193.7820  176.2890  146.6190 C   0  0  0  0  0  2  0  0  0  0  0  0
  193.3220  175.3530  143.9300 C   0  0  0  0  0  0  0  0  0  0  0  0
  192.5920  174.6760  145.0600 C   0  0  2  0  0  3  0  0  0  0  0  0
  193.9080  176.7160  144.1490 C   0  0  0  0  0  2  0  0  0  0  0  0
  1  9  1  0  0  0  0
  1  6  1  0  0  0  0
  2  3  1  6  0  0  0
  2 13  1  0  0  0  0
  2  5  1  0  0  0  0
  4  7  2  0  0  0  0
  5 14  1  0  0  0  0
  5 16  2  0  0  0  0
  7  3  1  0  0  0  0
  8 23  1  1  0  0  0
  8 12  1  0  0  0  0
 10 18  1  0  0  0  0
 11  4  1  0  0  0  0
 12 16  1  0  0  0  0
 13 18  1  6  0  0  0
 13  8  1  0  0  0  0
 14  1  2  0  0  0  0
 15 20  2  0  0  0  0
 15  4  1  0  0  0  0
 16 17  1  0  0  0  0
 17  6  2  0  0  0  0
 19 10  1  0  0  0  0
 19  3  2  0  0  0  0
 20 19  1  0  0  0  0
 22 21  2  0  0  0  0
 23 22  1  0  0  0  0
 24 27  1  1  0  0  0
 24 28  1  0  0  0  0
 25 28  1  0  0  0  0
 26 29  2  0  0  0  0
 29 31  1  0  0  0  0
 29 30  1  0  0  0  0
 30 22  1  1  0  0  0
 30 25  1  0  0  0  0
 31 24  1  0  0  0  0
M  END
>  <MODEL>
5

>  <REMARK>
 VINA RESULT:      -8.3      1.250      2.132
  Name = 
  2 active torsions:
  status: ('A' for Active; 'I' for Inactive)
    1  A    between atoms: C_5  and  C_30
    2  A    between atoms: C_10  and  N_16
                            x       y       z     vdW  Elec       q    Type
                         _______ _______ _______ _____ _____    ______ ____

>  <TORSDO>
F 2

$$$$
=
 OpenBabel11112417023D

 31 35  0  0  1  0  0  0  0  0999 V2000
  191.8860  173.1000  141.5970 C   0  0  0  0  0  0  0  0  0  0  0  0
  191.0280  174.0190  145.1870 C   0  0  2  0  0  3  0  0  0  0  0  0
  192.0960  174.9980  145.6530 C   0  0  0  0  0  0  0  0  0  0  0  0
  194.2940  176.0140  145.4160 C   0  0  0  0  0  0  0  0  0  0  0  0
  190.9400  173.9150  143.6810 C   0  0  0  0  0  0  0  0  0  0  0  0
  190.8930  173.7690  140.8790 C   0  0  0  0  0  3  0  0  0  0  0  0
  193.3090  175.1370  144.9590 C   0  0  0  0  0  3  0  0  0  0  0  0
  189.0390  175.5660  145.1130 C   0  0  2  0  0  3  0  0  0  0  0  0
  192.8310  172.3840  140.9410 F   0  0  0  0  0  0  0  0  0  0  0  0
  190.7300  175.5780  147.5880 O   0  0  0  0  0  0  0  0  0  0  0  0
  195.4530  176.1480  144.7290 F   0  0  0  0  0  0  0  0  0  0  0  0
  188.7830  175.2740  143.6350 C   0  0  0  0  0  2  0  0  0  0  0  0
  189.6480  174.3360  145.7990 C   0  0  2  0  0  3  0  0  0  0  0  0
  191.9080  173.1710  142.9920 C   0  0  0  0  0  3  0  0  0  0  0  0
  194.0840  176.7530  146.5830 C   0  0  0  0  0  3  0  0  0  0  0  0
  189.9330  174.5880  142.9520 C   0  0  0  0  0  0  0  0  0  0  0  0
  189.9150  174.5020  141.5560 C   0  0  0  0  0  3  0  0  0  0  0  0
  189.7930  174.5410  147.3080 C   0  0  0  0  0  2  0  0  0  0  0  0
  191.9080  175.7220  146.8500 C   0  0  0  0  0  0  0  0  0  0  0  0
  192.8940  176.6060  147.2990 C   0  0  0  0  0  3  0  0  0  0  0  0
  188.6530  177.8420  146.7890 O   0  0  0  0  0  0  0  0  0  0  0  0
  187.6570  177.0980  146.5760 C   0  0  0  0  0  0  0  0  0  0  0  0
  187.7840  175.9370  145.7530 N   0  0  0  0  0  2  0  0  0  0  0  0
  184.4190  178.8970  145.4630 C   0  0  1  0  0  3  0  0  0  0  0  0
  185.1790  176.7210  146.4450 C   0  0  0  0  0  2  0  0  0  0  0  0
  186.6200  179.5750  148.3140 C   0  0  0  0  0  2  0  0  0  0  0  0
  184.0410  179.5400  144.2870 O   0  0  0  0  0  1  0  0  0  0  0  0
  184.8120  177.4560  145.1530 C   0  0  0  0  0  2  0  0  0  0  0  0
  186.0930  178.8970  147.2980 C   0  0  0  0  0  0  0  0  0  0  0  0
  186.3260  177.4130  147.1910 C   0  0  2  0  0  3  0  0  0  0  0  0
  185.5860  179.6470  146.1020 C   0  0  0  0  0  2  0  0  0  0  0  0
  1 14  1  0  0  0  0
  2  5  1  6  0  0  0
  2  3  1  0  0  0  0
  2 13  1  0  0  0  0
  3 19  1  0  0  0  0
  4 15  2  0  0  0  0
  6 17  1  0  0  0  0
  6  1  2  0  0  0  0
  7  4  1  0  0  0  0
  7  3  2  0  0  0  0
  8 23  1  1  0  0  0
  8 13  1  0  0  0  0
  9  1  1  0  0  0  0
 11  4  1  0  0  0  0
 12  8  1  0  0  0  0
 13 18  1  1  0  0  0
 14  5  2  0  0  0  0
 15 20  1  0  0  0  0
 16 12  1  0  0  0  0
 16  5  1  0  0  0  0
 17 16  2  0  0  0  0
 18 10  1  0  0  0  0
 19 20  2  0  0  0  0
 19 10  1  0  0  0  0
 22 21  2  0  0  0  0
 23 22  1  0  0  0  0
 24 27  1  6  0  0  0
 24 31  1  0  0  0  0
 25 30  1  0  0  0  0
 28 24  1  0  0  0  0
 28 25  1  0  0  0  0
 29 26  2  0  0  0  0
 30 22  1  6  0  0  0
 30 29  1  0  0  0  0
 31 29  1  0  0  0  0
M  END
>  <MODEL>
6

>  <REMARK>
 VINA RESULT:      -8.3      3.781      7.847
  Name = 
  2 active torsions:
  status: ('A' for Active; 'I' for Inactive)
    1  A    between atoms: C_5  and  C_30
    2  A    between atoms: C_10  and  N_16
                            x       y       z     vdW  Elec       q    Type
                         _______ _______ _______ _____ _____    ______ ____

>  <TORSDO>
F 2

$$$$
=
 OpenBabel11112417023D

 31 35  0  0  1  0  0  0  0  0999 V2000
  185.8180  178.9750  143.0950 C   0  0  0  0  0  0  0  0  0  0  0  0
  189.1200  177.2080  143.7620 C   0  0  2  0  0  3  0  0  0  0  0  0
  188.9370  176.4120  145.0450 C   0  0  0  0  0  0  0  0  0  0  0  0
  187.7330  175.9610  147.1110 C   0  0  0  0  0  0  0  0  0  0  0  0
  187.8100  177.5840  143.1080 C   0  0  0  0  0  0  0  0  0  0  0  0
  185.3210  178.2610  142.0040 C   0  0  0  0  0  3  0  0  0  0  0  0
  187.8700  176.6770  145.9210 C   0  0  0  0  0  3  0  0  0  0  0  0
  189.3070  175.3140  142.1100 C   0  0  2  0  0  3  0  0  0  0  0  0
  185.0980  179.9920  143.6250 F   0  0  0  0  0  0  0  0  0  0  0  0
  190.9920  175.1840  144.5870 O   0  0  0  0  0  0  0  0  0  0  0  0
  186.6920  176.2180  147.9390 F   0  0  0  0  0  0  0  0  0  0  0  0
  188.1250  175.8260  141.2880 C   0  0  0  0  0  2  0  0  0  0  0  0
  190.0480  176.4880  142.7630 C   0  0  2  0  0  3  0  0  0  0  0  0
  187.0580  178.6390  143.6440 C   0  0  0  0  0  3  0  0  0  0  0  0
  188.6680  174.9810  147.4490 C   0  0  0  0  0  3  0  0  0  0  0  0
  187.3050  176.8650  142.0000 C   0  0  0  0  0  0  0  0  0  0  0  0
  186.0660  177.2160  141.4530 C   0  0  0  0  0  3  0  0  0  0  0  0
  191.3170  176.0280  143.4850 C   0  0  0  0  0  2  0  0  0  0  0  0
  189.8960  175.4450  145.4140 C   0  0  0  0  0  0  0  0  0  0  0  0
  189.7480  174.7250  146.6030 C   0  0  0  0  0  3  0  0  0  0  0  0
  189.6620  172.4840  142.1610 O   0  0  0  0  0  0  0  0  0  0  0  0
  190.3300  173.1410  141.3160 C   0  0  0  0  0  0  0  0  0  0  0  0
  190.2050  174.5620  141.2440 N   0  0  0  0  0  2  0  0  0  0  0  0
  190.2740  172.0160  137.6160 C   0  0  1  0  0  3  0  0  0  0  0  0
  191.6780  173.3450  139.2090 C   0  0  0  0  0  2  0  0  0  0  0  0
  190.8170  170.0480  140.6600 C   0  0  0  0  0  2  0  0  0  0  0  0
  189.3160  172.0990  136.6080 O   0  0  0  0  0  1  0  0  0  0  0  0
  190.5880  173.4150  138.1380 C   0  0  0  0  0  2  0  0  0  0  0  0
  190.7130  171.1320  139.8950 C   0  0  0  0  0  0  0  0  0  0  0  0
  191.2720  172.4440  140.3820 C   0  0  2  0  0  3  0  0  0  0  0  0
  189.7530  171.1270  138.7430 C   0  0  0  0  0  2  0  0  0  0  0  0
  1  9  1  0  0  0  0
  1 14  1  0  0  0  0
  2  5  1  6  0  0  0
  2  3  1  0  0  0  0
  3 19  2  0  0  0  0
  3  7  1  0  0  0  0
  4 15  1  0  0  0  0
  4 11  1  0  0  0  0
  5 14  2  0  0  0  0
  6  1  2  0  0  0  0
  7  4  2  0  0  0  0
  8 23  1  6  0  0  0
  8 13  1  0  0  0  0
 10 19  1  0  0  0  0
 12 16  1  0  0  0  0
 12  8  1  0  0  0  0
 13 18  1  1  0  0  0
 13  2  1  0  0  0  0
 16  5  1  0  0  0  0
 17 16  2  0  0  0  0
 17  6  1  0  0  0  0
 18 10  1  0  0  0  0
 19 20  1  0  0  0  0
 20 15  2  0  0  0  0
 22 21  2  0  0  0  0
 23 22  1  0  0  0  0
 24 27  1  6  0  0  0
 24 28  1  0  0  0  0
 24 31  1  0  0  0  0
 25 30  1  0  0  0  0
 28 25  1  0  0  0  0
 29 30  1  0  0  0  0
 29 26  2  0  0  0  0
 30 22  1  6  0  0  0
 31 29  1  0  0  0  0
M  END
>  <MODEL>
7

>  <REMARK>
 VINA RESULT:      -7.9      3.361      5.699
  Name = 
  2 active torsions:
  status: ('A' for Active; 'I' for Inactive)
    1  A    between atoms: C_5  and  C_30
    2  A    between atoms: C_10  and  N_16
                            x       y       z     vdW  Elec       q    Type
                         _______ _______ _______ _____ _____    ______ ____

>  <TORSDO>
F 2

$$$$
=
 OpenBabel11112417023D

 31 35  0  0  1  0  0  0  0  0999 V2000
  185.7820  179.1390  143.2990 C   0  0  0  0  0  0  0  0  0  0  0  0
  188.9670  177.0780  143.5740 C   0  0  2  0  0  3  0  0  0  0  0  0
  188.8630  176.2860  144.8690 C   0  0  0  0  0  0  0  0  0  0  0  0
  187.8710  175.9210  147.0610 C   0  0  0  0  0  0  0  0  0  0  0  0
  187.6290  177.5760  143.0780 C   0  0  0  0  0  0  0  0  0  0  0  0
  185.0990  178.4850  142.2730 C   0  0  0  0  0  3  0  0  0  0  0  0
  187.9330  176.6350  145.8630 C   0  0  0  0  0  3  0  0  0  0  0  0
  188.7900  175.1940  141.9090 C   0  0  2  0  0  3  0  0  0  0  0  0
  185.2210  180.2100  143.9110 F   0  0  0  0  0  0  0  0  0  0  0  0
  190.7330  174.8860  144.1720 O   0  0  0  0  0  0  0  0  0  0  0  0
  186.9600  176.2590  148.0050 F   0  0  0  0  0  0  0  0  0  0  0  0
  187.5720  175.8190  141.2310 C   0  0  0  0  0  2  0  0  0  0  0  0
  189.7040  176.2900  142.4730 C   0  0  2  0  0  3  0  0  0  0  0  0
  187.0420  178.6880  143.6980 C   0  0  0  0  0  3  0  0  0  0  0  0
  188.7480  174.8570  147.2860 C   0  0  0  0  0  3  0  0  0  0  0  0
  186.9360  176.9180  142.0360 C   0  0  0  0  0  0  0  0  0  0  0  0
  185.6790  177.3840  141.6370 C   0  0  0  0  0  3  0  0  0  0  0  0
  191.0020  175.7100  143.0410 C   0  0  0  0  0  2  0  0  0  0  0  0
  189.7680  175.2340  145.1220 C   0  0  0  0  0  0  0  0  0  0  0  0
  189.6950  174.5160  146.3190 C   0  0  0  0  0  3  0  0  0  0  0  0
  189.0520  172.3550  142.0230 O   0  0  0  0  0  0  0  0  0  0  0  0
  189.5970  172.9540  141.0550 C   0  0  0  0  0  0  0  0  0  0  0  0
  189.5110  174.3760  140.9440 N   0  0  0  0  0  2  0  0  0  0  0  0
  193.2900  172.6210  139.9560 C   0  0  1  0  0  3  0  0  0  0  0  0
  191.3440  171.2000  140.6420 C   0  0  0  0  0  2  0  0  0  0  0  0
  190.3430  173.6100  138.0140 C   0  0  0  0  0  2  0  0  0  0  0  0
  194.4730  173.2120  140.3940 O   0  0  0  0  0  1  0  0  0  0  0  0
  192.6180  171.9000  141.1210 C   0  0  0  0  0  2  0  0  0  0  0  0
  191.0360  173.0970  139.0270 C   0  0  0  0  0  0  0  0  0  0  0  0
  190.3520  172.1860  140.0130 C   0  0  2  0  0  3  0  0  0  0  0  0
  192.3660  173.6930  139.3830 C   0  0  0  0  0  2  0  0  0  0  0  0
  1 14  1  0  0  0  0
  1  9  1  0  0  0  0
  2  5  1  6  0  0  0
  2  3  1  0  0  0  0
  3 19  2  0  0  0  0
  3  7  1  0  0  0  0
  4 15  1  0  0  0  0
  4 11  1  0  0  0  0
  5 14  2  0  0  0  0
  6  1  2  0  0  0  0
  7  4  2  0  0  0  0
  8 23  1  6  0  0  0
  8 13  1  0  0  0  0
 10 19  1  0  0  0  0
 12  8  1  0  0  0  0
 12 16  1  0  0  0  0
 13 18  1  1  0  0  0
 13  2  1  0  0  0  0
 16  5  1  0  0  0  0
 17 16  2  0  0  0  0
 17  6  1  0  0  0  0
 18 10  1  0  0  0  0
 19 20  1  0  0  0  0
 20 15  2  0  0  0  0
 22 21  2  0  0  0  0
 23 22  1  0  0  0  0
 24 27  1  1  0  0  0
 24 28  1  0  0  0  0
 25 28  1  0  0  0  0
 26 29  2  0  0  0  0
 29 31  1  0  0  0  0
 29 30  1  0  0  0  0
 30 25  1  0  0  0  0
 30 22  1  1  0  0  0
 31 24  1  0  0  0  0
M  END
>  <MODEL>
8

>  <REMARK>
 VINA RESULT:      -7.8      2.986      5.293
  Name = 
  2 active torsions:
  status: ('A' for Active; 'I' for Inactive)
    1  A    between atoms: C_5  and  C_30
    2  A    between atoms: C_10  and  N_16
                            x       y       z     vdW  Elec       q    Type
                         _______ _______ _______ _____ _____    ______ ____

>  <TORSDO>
F 2

$$$$
=
 OpenBabel11112417023D

 31 35  0  0  1  0  0  0  0  0999 V2000
  185.6090  178.2870  141.1790 C   0  0  0  0  0  0  0  0  0  0  0  0
  188.3420  178.1290  143.8190 C   0  0  2  0  0  3  0  0  0  0  0  0
  187.7160  177.5060  145.0580 C   0  0  0  0  0  0  0  0  0  0  0  0
  185.7590  176.8820  146.3630 C   0  0  0  0  0  0  0  0  0  0  0  0
  187.5610  177.8460  142.5570 C   0  0  0  0  0  0  0  0  0  0  0  0
  186.0100  177.2940  140.2840 C   0  0  0  0  0  3  0  0  0  0  0  0
  186.3210  177.4260  145.2070 C   0  0  0  0  0  3  0  0  0  0  0  0
  189.9180  176.2750  143.1620 C   0  0  2  0  0  3  0  0  0  0  0  0
  184.4680  178.9820  140.9530 F   0  0  0  0  0  0  0  0  0  0  0  0
  189.9310  177.1750  146.0210 O   0  0  0  0  0  0  0  0  0  0  0  0
  184.4130  176.7990  146.4870 F   0  0  0  0  0  0  0  0  0  0  0  0
  189.2920  176.1450  141.7730 C   0  0  0  0  0  2  0  0  0  0  0  0
  189.8210  177.7250  143.6540 C   0  0  2  0  0  3  0  0  0  0  0  0
  186.3820  178.5630  142.3090 C   0  0  0  0  0  3  0  0  0  0  0  0
  186.5850  176.4240  147.3920 C   0  0  0  0  0  3  0  0  0  0  0  0
  187.9670  176.8430  141.6460 C   0  0  0  0  0  0  0  0  0  0  0  0
  187.1900  176.5820  140.5130 C   0  0  0  0  0  3  0  0  0  0  0  0
  190.5570  177.9230  144.9820 C   0  0  0  0  0  2  0  0  0  0  0  0
  188.5400  177.0730  146.1180 C   0  0  0  0  0  0  0  0  0  0  0  0
  187.9730  176.5210  147.2700 C   0  0  0  0  0  3  0  0  0  0  0  0
  190.9490  173.8590  144.2750 O   0  0  0  0  0  0  0  0  0  0  0  0
  191.7590  174.6190  143.6750 C   0  0  0  0  0  0  0  0  0  0  0  0
  191.3090  175.8480  143.1030 N   0  0  0  0  0  2  0  0  0  0  0  0
  193.8880  171.4450  144.2660 C   0  0  1  0  0  3  0  0  0  0  0  0
  193.4360  173.1650  142.5030 C   0  0  0  0  0  2  0  0  0  0  0  0
  194.1900  174.7830  145.7480 C   0  0  0  0  0  2  0  0  0  0  0  0
  193.5810  170.1560  144.6990 O   0  0  0  0  0  1  0  0  0  0  0  0
  193.0700  171.7730  143.0210 C   0  0  0  0  0  2  0  0  0  0  0  0
  193.7900  173.8460  144.8930 C   0  0  0  0  0  0  0  0  0  0  0  0
  193.2080  174.2500  143.5630 C   0  0  2  0  0  3  0  0  0  0  0  0
  193.5910  172.4420  145.3830 C   0  0  0  0  0  2  0  0  0  0  0  0
  1 14  1  0  0  0  0
  2  5  1  6  0  0  0
  2  3  1  0  0  0  0
  3  7  2  0  0  0  0
  3 19  1  0  0  0  0
  4 11  1  0  0  0  0
  4 15  2  0  0  0  0
  6 17  1  0  0  0  0
  6  1  2  0  0  0  0
  7  4  1  0  0  0  0
  8 23  1  6  0  0  0
  8 13  1  0  0  0  0
  9  1  1  0  0  0  0
 10 19  1  0  0  0  0
 12  8  1  0  0  0  0
 13  2  1  0  0  0  0
 13 18  1  1  0  0  0
 14  5  2  0  0  0  0
 16 12  1  0  0  0  0
 16  5  1  0  0  0  0
 17 16  2  0  0  0  0
 18 10  1  0  0  0  0
 19 20  2  0  0  0  0
 20 15  1  0  0  0  0
 22 21  2  0  0  0  0
 23 22  1  0  0  0  0
 24 27  1  1  0  0  0
 24 31  1  0  0  0  0
 25 28  1  0  0  0  0
 25 30  1  0  0  0  0
 28 24  1  0  0  0  0
 29 31  1  0  0  0  0
 29 26  2  0  0  0  0
 30 22  1  1  0  0  0
 30 29  1  0  0  0  0
M  END
>  <MODEL>
9

>  <REMARK>
 VINA RESULT:      -7.8      1.656      4.205
  Name = 
  2 active torsions:
  status: ('A' for Active; 'I' for Inactive)
    1  A    between atoms: C_5  and  C_30
    2  A    between atoms: C_10  and  N_16
                            x       y       z     vdW  Elec       q    Type
                         _______ _______ _______ _____ _____    ______ ____

>  <TORSDO>
F 2

$$$$
