=
 OpenBabel11112417333D

 37 42  0  0  1  0  0  0  0  0999 V2000
  189.4770  176.8860  144.8970 C   0  0  1  0  0  3  0  0  0  0  0  0
  191.8330  175.7190  142.8140 O   0  0  0  0  0  0  0  0  0  0  0  0
  186.9550  177.5160  145.1560 C   0  0  2  0  0  3  0  0  0  0  0  0
  189.9020  175.6080  144.1990 C   0  0  2  0  0  3  0  0  0  0  0  0
  188.1430  177.2140  144.2150 C   0  0  2  0  0  3  0  0  0  0  0  0
  191.4040  175.3550  144.0990 C   0  0  2  0  0  3  0  0  0  0  0  0
  187.1760  176.9410  146.5490 C   0  0  0  0  0  2  0  0  0  0  0  0
  187.9230  176.0780  143.2310 C   0  0  0  0  0  2  0  0  0  0  0  0
  190.7200  176.7380  147.0720 C   0  0  0  0  0  2  0  0  0  0  0  0
  188.4180  177.3810  147.0240 O   0  0  0  0  0  0  0  0  0  0  0  0
  191.4710  173.2240  142.3930 C   0  0  0  0  0  2  0  0  0  0  0  0
  191.8420  174.6200  141.9030 C   0  0  1  0  0  3  0  0  0  0  0  0
  189.3650  176.5620  146.3950 C   0  0  1  0  0  3  0  0  0  0  0  0
  189.2630  175.5900  142.8880 N   0  0  2  0  0  0  0  0  0  0  0  0
  192.2480  176.0390  145.1880 C   0  0  1  0  0  3  0  0  0  0  0  0
  190.4510  174.0080  141.5750 C   0  0  2  0  0  3  0  0  0  0  0  0
  189.2830  174.2390  142.4520 N   0  0  0  0  0  0  0  0  0  0  0  0
  191.7430  175.7090  146.5940 C   0  0  0  0  0  2  0  0  0  0  0  0
  194.1600  174.5120  145.7010 C   0  0  0  0  0  3  0  0  0  0  0  0
  193.6930  175.6650  145.0590 C   0  0  0  0  0  0  0  0  0  0  0  0
  194.5850  176.4520  144.3140 C   0  0  0  0  0  3  0  0  0  0  0  0
  196.8100  176.8700  143.4790 O   0  0  0  0  0  1  0  0  0  0  0  0
  196.3900  174.9350  144.8580 C   0  0  0  0  0  3  0  0  0  0  0  0
  195.9310  176.0880  144.2160 C   0  0  0  0  0  0  0  0  0  0  0  0
  195.5060  174.1470  145.6010 C   0  0  0  0  0  3  0  0  0  0  0  0
  188.1320  173.9400  141.5890 C   0  0  0  0  0  2  0  0  0  0  0  0
  188.5410  173.8860  140.1150 C   0  0  1  0  0  3  0  0  0  0  0  0
  189.4120  171.7700  139.1100 C   0  0  0  0  0  1  0  0  0  0  0  0
  188.1660  172.5530  139.4800 C   0  0  0  0  0  2  0  0  0  0  0  0
  187.9240  175.0460  139.3450 C   0  0  0  0  0  2  0  0  0  0  0  0
  187.8600  174.7470  137.8560 C   0  0  0  0  0  2  0  0  0  0  0  0
  186.9270  175.5800  137.2360 O   0  0  0  0  0  1  0  0  0  0  0  0
  185.7350  177.0580  144.6260 O   0  0  0  0  0  0  0  0  0  0  0  0
  184.8290  178.1370  144.6140 C   0  0  0  0  0  0  0  0  0  0  0  0
  184.0060  178.1040  145.7300 F   0  0  0  0  0  0  0  0  0  0  0  0
  185.5040  179.3480  144.5650 F   0  0  0  0  0  0  0  0  0  0  0  0
  184.0370  178.0340  143.4870 F   0  0  0  0  0  0  0  0  0  0  0  0
  1 13  1  0  0  0  0
  2  6  1  0  0  0  0
  3  7  1  0  0  0  0
  4  1  1  0  0  0  0
  5  1  1  0  0  0  0
  5  3  1  0  0  0  0
  6  4  1  0  0  0  0
  6 15  1  0  0  0  0
  7 10  1  0  0  0  0
  8  5  1  0  0  0  0
 12 11  1  0  0  0  0
 12  2  1  0  0  0  0
 13 10  1  0  0  0  0
 13  9  1  0  0  0  0
 14  8  1  0  0  0  0
 14  4  1  0  0  0  0
 15 18  1  0  0  0  0
 16 12  1  0  0  0  0
 16 11  1  0  0  0  0
 16 17  1  0  0  0  0
 17 14  1  0  0  0  0
 18  9  1  0  0  0  0
 20 15  1  0  0  0  0
 20 19  2  0  0  0  0
 21 20  1  0  0  0  0
 22 24  1  0  0  0  0
 23 25  2  0  0  0  0
 24 21  2  0  0  0  0
 24 23  1  0  0  0  0
 25 19  1  0  0  0  0
 26 17  1  0  0  0  0
 27 26  1  0  0  0  0
 28 29  1  0  0  0  0
 29 27  1  0  0  0  0
 30 27  1  0  0  0  0
 31 30  1  0  0  0  0
 32 31  1  0  0  0  0
 33  3  1  0  0  0  0
 34 33  1  0  0  0  0
 34 35  1  0  0  0  0
 36 34  1  0  0  0  0
 37 34  1  0  0  0  0
M  END
>  <MODEL>
1

>  <REMARK>
 VINA RESULT:      -7.7      0.000      0.000
  Name = 
  8 active torsions:
  status: ('A' for Active; 'I' for Inactive)
    1  A    between atoms: C_1  and  C_4
    2  A    between atoms: C_1  and  N_27
    3  A    between atoms: C_2  and  O_22
    4  A    between atoms: C_4  and  C_12
    5  A    between atoms: C_4  and  C_37
    6  A    between atoms: C_6  and  O_22
    7  A    between atoms: C_8  and  C_12
    8  A    between atoms: C_23  and  C_30
                            x       y       z     vdW  Elec       q    Type
                         _______ _______ _______ _____ _____    ______ ____

>  <TORSDO>
F 8

$$$$
=
 OpenBabel11112417333D

 37 42  0  0  1  0  0  0  0  0999 V2000
  190.6840  175.6900  144.7570 C   0  0  1  0  0  3  0  0  0  0  0  0
  189.0250  176.3390  141.9140 O   0  0  0  0  0  0  0  0  0  0  0  0
  191.2450  176.5410  147.1630 C   0  0  2  0  0  3  0  0  0  0  0  0
  189.2720  175.7560  144.2080 C   0  0  2  0  0  3  0  0  0  0  0  0
  190.7140  176.8610  145.7480 C   0  0  2  0  0  3  0  0  0  0  0  0
  189.0710  175.2400  142.7850 C   0  0  2  0  0  3  0  0  0  0  0  0
  191.1560  175.0530  147.4770 C   0  0  0  0  0  2  0  0  0  0  0  0
  189.3140  177.4490  145.6930 C   0  0  0  0  0  2  0  0  0  0  0  0
  191.2960  173.2900  144.3550 C   0  0  0  0  0  2  0  0  0  0  0  0
  191.7820  174.3390  146.4480 O   0  0  0  0  0  0  0  0  0  0  0  0
  186.5120  176.0500  142.2830 C   0  0  0  0  0  2  0  0  0  0  0  0
  187.6940  176.7930  141.6690 C   0  0  1  0  0  3  0  0  0  0  0  0
  190.8500  174.3050  145.4020 C   0  0  1  0  0  3  0  0  0  0  0  0
  188.8060  177.1290  144.3550 N   0  0  2  0  0  0  0  0  0  0  0  0
  190.1050  174.1990  142.3230 C   0  0  1  0  0  3  0  0  0  0  0  0
  186.9460  177.3760  142.9010 C   0  0  2  0  0  3  0  0  0  0  0  0
  187.3890  177.0820  144.2800 N   0  0  0  0  0  0  0  0  0  0  0  0
  190.2180  173.0300  143.3050 C   0  0  0  0  0  2  0  0  0  0  0  0
  188.4910  173.2060  140.6940 C   0  0  0  0  0  3  0  0  0  0  0  0
  189.7780  173.6900  140.9530 C   0  0  0  0  0  0  0  0  0  0  0  0
  190.7390  173.6840  139.9300 C   0  0  0  0  0  3  0  0  0  0  0  0
  191.3670  173.1920  137.6530 O   0  0  0  0  0  1  0  0  0  0  0  0
  189.1260  172.7150  138.4090 C   0  0  0  0  0  3  0  0  0  0  0  0
  190.4130  173.1960  138.6620 C   0  0  0  0  0  0  0  0  0  0  0  0
  188.1640  172.7190  139.4240 C   0  0  0  0  0  3  0  0  0  0  0  0
  186.7770  178.1510  145.0800 C   0  0  0  0  0  2  0  0  0  0  0  0
  185.5590  177.6390  145.8540 C   0  0  1  0  0  3  0  0  0  0  0  0
  186.5070  178.5640  147.9730 C   0  0  0  0  0  1  0  0  0  0  0  0
  185.9060  177.3400  147.3070 C   0  0  0  0  0  2  0  0  0  0  0  0
  184.4100  178.6350  145.7660 C   0  0  0  0  0  2  0  0  0  0  0  0
  184.4460  179.4030  144.4550 C   0  0  0  0  0  2  0  0  0  0  0  0
  183.7170  178.7260  143.4770 O   0  0  0  0  0  1  0  0  0  0  0  0
  190.5850  177.2900  148.1540 O   0  0  0  0  0  0  0  0  0  0  0  0
  191.5500  177.7530  149.0690 C   0  0  0  0  0  0  0  0  0  0  0  0
  192.8020  177.8210  148.4760 F   0  0  0  0  0  0  0  0  0  0  0  0
  191.2000  178.9980  149.5700 F   0  0  0  0  0  0  0  0  0  0  0  0
  191.6190  176.8640  150.1240 F   0  0  0  0  0  0  0  0  0  0  0  0
  1 13  1  0  0  0  0
  1  5  1  0  0  0  0
  2  6  1  0  0  0  0
  3  7  1  0  0  0  0
  3 33  1  0  0  0  0
  4 14  1  0  0  0  0
  4  1  1  0  0  0  0
  5  3  1  0  0  0  0
  6  4  1  0  0  0  0
  8  5  1  0  0  0  0
  9 13  1  0  0  0  0
 10  7  1  0  0  0  0
 11 16  1  0  0  0  0
 12  2  1  0  0  0  0
 12 11  1  0  0  0  0
 12 16  1  0  0  0  0
 13 10  1  0  0  0  0
 14  8  1  0  0  0  0
 15  6  1  0  0  0  0
 15 18  1  0  0  0  0
 16 17  1  0  0  0  0
 17 14  1  0  0  0  0
 17 26  1  0  0  0  0
 18  9  1  0  0  0  0
 19 20  1  0  0  0  0
 20 15  1  0  0  0  0
 21 20  2  0  0  0  0
 22 24  1  0  0  0  0
 23 24  2  0  0  0  0
 23 25  1  0  0  0  0
 24 21  1  0  0  0  0
 25 19  2  0  0  0  0
 26 27  1  0  0  0  0
 27 29  1  0  0  0  0
 29 28  1  0  0  0  0
 30 27  1  0  0  0  0
 31 30  1  0  0  0  0
 32 31  1  0  0  0  0
 33 34  1  0  0  0  0
 34 36  1  0  0  0  0
 34 37  1  0  0  0  0
 35 34  1  0  0  0  0
M  END
>  <MODEL>
2

>  <REMARK>
 VINA RESULT:      -7.6      3.577      6.583
  Name = 
  8 active torsions:
  status: ('A' for Active; 'I' for Inactive)
    1  A    between atoms: C_1  and  C_4
    2  A    between atoms: C_1  and  N_27
    3  A    between atoms: C_2  and  O_22
    4  A    between atoms: C_4  and  C_12
    5  A    between atoms: C_4  and  C_37
    6  A    between atoms: C_6  and  O_22
    7  A    between atoms: C_8  and  C_12
    8  A    between atoms: C_23  and  C_30
                            x       y       z     vdW  Elec       q    Type
                         _______ _______ _______ _____ _____    ______ ____

>  <TORSDO>
F 8

$$$$
=
 OpenBabel11112417333D

 37 42  0  0  1  0  0  0  0  0999 V2000
  190.7610  174.8040  145.4720 C   0  0  1  0  0  3  0  0  0  0  0  0
  187.8610  175.0980  143.8130 O   0  0  0  0  0  0  0  0  0  0  0  0
  193.1000  173.6420  145.5270 C   0  0  2  0  0  3  0  0  0  0  0  0
  190.1950  175.3730  144.1850 C   0  0  2  0  0  3  0  0  0  0  0  0
  191.6590  173.6670  144.9700 C   0  0  2  0  0  3  0  0  0  0  0  0
  188.8140  176.0170  144.2760 C   0  0  2  0  0  3  0  0  0  0  0  0
  193.5270  175.0060  146.0520 C   0  0  0  0  0  2  0  0  0  0  0  0
  191.5450  173.7240  143.4560 C   0  0  0  0  0  2  0  0  0  0  0  0
  190.5510  176.7490  147.0450 C   0  0  0  0  0  2  0  0  0  0  0  0
  192.5630  175.4580  146.9610 O   0  0  0  0  0  0  0  0  0  0  0  0
  188.2240  176.3870  141.6360 C   0  0  0  0  0  2  0  0  0  0  0  0
  187.5670  175.2600  142.4250 C   0  0  1  0  0  3  0  0  0  0  0  0
  191.5130  175.9470  146.1730 C   0  0  1  0  0  3  0  0  0  0  0  0
  190.2310  174.3130  143.1840 N   0  0  2  0  0  0  0  0  0  0  0  0
  188.4440  176.5580  145.6680 C   0  0  1  0  0  3  0  0  0  0  0  0
  188.7430  174.9650  141.4520 C   0  0  2  0  0  3  0  0  0  0  0  0
  190.1450  174.9540  141.9190 N   0  0  0  0  0  0  0  0  0  0  0  0
  189.5140  177.5040  146.2170 C   0  0  0  0  0  2  0  0  0  0  0  0
  186.0760  176.7590  146.4430 C   0  0  0  0  0  3  0  0  0  0  0  0
  187.1130  177.2450  145.6400 C   0  0  0  0  0  0  0  0  0  0  0  0
  186.8890  178.3620  144.8190 C   0  0  0  0  0  3  0  0  0  0  0  0
  185.4180  180.0850  143.9890 O   0  0  0  0  0  1  0  0  0  0  0  0
  184.6050  178.4910  145.6080 C   0  0  0  0  0  3  0  0  0  0  0  0
  185.6360  178.9820  144.8040 C   0  0  0  0  0  0  0  0  0  0  0  0
  184.8240  177.3800  146.4280 C   0  0  0  0  0  3  0  0  0  0  0  0
  190.8540  174.1900  140.8850 C   0  0  0  0  0  2  0  0  0  0  0  0
  189.8980  173.2750  140.1150 C   0  0  1  0  0  3  0  0  0  0  0  0
  188.6530  173.5610  137.9680 C   0  0  0  0  0  1  0  0  0  0  0  0
  190.0250  173.4730  138.6100 C   0  0  0  0  0  2  0  0  0  0  0  0
  190.1310  171.8170  140.4920 C   0  0  0  0  0  2  0  0  0  0  0  0
  191.6070  171.4590  140.4210 C   0  0  0  0  0  2  0  0  0  0  0  0
  191.9780  170.7150  141.5420 O   0  0  0  0  0  1  0  0  0  0  0  0
  194.0240  173.1740  144.5740 O   0  0  0  0  0  0  0  0  0  0  0  0
  194.8210  172.1860  145.1850 C   0  0  0  0  0  0  0  0  0  0  0  0
  195.9510  172.7480  145.7600 F   0  0  0  0  0  0  0  0  0  0  0  0
  194.1010  171.4940  146.1460 F   0  0  0  0  0  0  0  0  0  0  0  0
  195.2280  171.2890  144.2160 F   0  0  0  0  0  0  0  0  0  0  0  0
  1 13  1  0  0  0  0
  2  6  1  0  0  0  0
  3  7  1  0  0  0  0
  4  6  1  0  0  0  0
  4  1  1  0  0  0  0
  5  1  1  0  0  0  0
  5  3  1  0  0  0  0
  6 15  1  0  0  0  0
  7 10  1  0  0  0  0
  8  5  1  0  0  0  0
 11 12  1  0  0  0  0
 12  2  1  0  0  0  0
 13 10  1  0  0  0  0
 13  9  1  0  0  0  0
 14  8  1  0  0  0  0
 14  4  1  0  0  0  0
 15 18  1  0  0  0  0
 16 11  1  0  0  0  0
 16 17  1  0  0  0  0
 16 12  1  0  0  0  0
 17 14  1  0  0  0  0
 18  9  1  0  0  0  0
 20 15  1  0  0  0  0
 20 19  2  0  0  0  0
 21 20  1  0  0  0  0
 22 24  1  0  0  0  0
 23 25  2  0  0  0  0
 24 21  2  0  0  0  0
 24 23  1  0  0  0  0
 25 19  1  0  0  0  0
 26 17  1  0  0  0  0
 27 30  1  0  0  0  0
 27 26  1  0  0  0  0
 28 29  1  0  0  0  0
 29 27  1  0  0  0  0
 31 30  1  0  0  0  0
 31 32  1  0  0  0  0
 33 34  1  0  0  0  0
 33  3  1  0  0  0  0
 34 35  1  0  0  0  0
 34 36  1  0  0  0  0
 37 34  1  0  0  0  0
M  END
>  <MODEL>
3

>  <REMARK>
 VINA RESULT:      -7.6      4.060      7.011
  Name = 
  8 active torsions:
  status: ('A' for Active; 'I' for Inactive)
    1  A    between atoms: C_1  and  C_4
    2  A    between atoms: C_1  and  N_27
    3  A    between atoms: C_2  and  O_22
    4  A    between atoms: C_4  and  C_12
    5  A    between atoms: C_4  and  C_37
    6  A    between atoms: C_6  and  O_22
    7  A    between atoms: C_8  and  C_12
    8  A    between atoms: C_23  and  C_30
                            x       y       z     vdW  Elec       q    Type
                         _______ _______ _______ _____ _____    ______ ____

>  <TORSDO>
F 8

$$$$
=
 OpenBabel11112417333D

 37 42  0  0  1  0  0  0  0  0999 V2000
  188.8140  176.7230  144.8640 C   0  0  1  0  0  3  0  0  0  0  0  0
  191.5400  175.8180  143.1300 O   0  0  0  0  0  0  0  0  0  0  0  0
  186.3530  177.5840  144.7070 C   0  0  2  0  0  3  0  0  0  0  0  0
  189.3190  175.6140  143.9600 C   0  0  2  0  0  3  0  0  0  0  0  0
  187.7170  177.3760  144.0140 C   0  0  2  0  0  3  0  0  0  0  0  0
  190.7790  175.2040  144.1370 C   0  0  2  0  0  3  0  0  0  0  0  0
  186.1790  176.6590  145.9040 C   0  0  0  0  0  2  0  0  0  0  0  0
  187.6810  176.5570  142.7350 C   0  0  0  0  0  2  0  0  0  0  0  0
  189.4580  175.8830  147.1390 C   0  0  0  0  0  2  0  0  0  0  0  0
  187.2870  176.8050  146.7490 O   0  0  0  0  0  0  0  0  0  0  0  0
  191.1380  173.5720  141.9780 C   0  0  0  0  0  2  0  0  0  0  0  0
  191.7080  174.9860  141.9820 C   0  0  1  0  0  3  0  0  0  0  0  0
  188.3080  176.0540  146.1520 C   0  0  1  0  0  3  0  0  0  0  0  0
  189.0300  176.0030  142.5850 N   0  0  2  0  0  0  0  0  0  0  0  0
  191.3640  175.4830  145.5320 C   0  0  1  0  0  3  0  0  0  0  0  0
  190.4080  174.6580  141.1950 C   0  0  2  0  0  3  0  0  0  0  0  0
  189.0740  174.8110  141.8140 N   0  0  0  0  0  0  0  0  0  0  0  0
  190.5010  174.8830  146.6440 C   0  0  0  0  0  2  0  0  0  0  0  0
  193.7970  175.8640  145.9600 C   0  0  0  0  0  3  0  0  0  0  0  0
  192.7680  174.9720  145.6370 C   0  0  0  0  0  0  0  0  0  0  0  0
  193.0680  173.6190  145.4110 C   0  0  0  0  0  3  0  0  0  0  0  0
  194.6800  171.8290  145.2810 O   0  0  0  0  0  1  0  0  0  0  0  0
  195.4100  174.0630  145.8290 C   0  0  0  0  0  3  0  0  0  0  0  0
  194.3870  173.1670  145.5070 C   0  0  0  0  0  0  0  0  0  0  0  0
  195.1160  175.4110  146.0560 C   0  0  0  0  0  3  0  0  0  0  0  0
  188.1610  174.8840  140.6660 C   0  0  0  0  0  2  0  0  0  0  0  0
  188.6420  173.9970  139.5150 C   0  0  1  0  0  3  0  0  0  0  0  0
  189.4030  171.6270  139.2920 C   0  0  0  0  0  1  0  0  0  0  0  0
  188.2750  172.5360  139.7440 C   0  0  0  0  0  2  0  0  0  0  0  0
  188.0850  174.4930  138.1860 C   0  0  0  0  0  2  0  0  0  0  0  0
  189.0810  174.2820  137.0580 C   0  0  0  0  0  2  0  0  0  0  0  0
  188.7000  175.0140  135.9340 O   0  0  0  0  0  1  0  0  0  0  0  0
  185.2790  177.4310  143.8120 O   0  0  0  0  0  0  0  0  0  0  0  0
  184.5100  178.6120  143.8420 C   0  0  0  0  0  0  0  0  0  0  0  0
  183.7960  178.7070  145.0270 F   0  0  0  0  0  0  0  0  0  0  0  0
  185.3160  179.7300  143.6890 F   0  0  0  0  0  0  0  0  0  0  0  0
  183.6100  178.5780  142.7950 F   0  0  0  0  0  0  0  0  0  0  0  0
  1 13  1  0  0  0  0
  2  6  1  0  0  0  0
  3  7  1  0  0  0  0
  4  6  1  0  0  0  0
  4  1  1  0  0  0  0
  5  3  1  0  0  0  0
  5  1  1  0  0  0  0
  6 15  1  0  0  0  0
  7 10  1  0  0  0  0
  8  5  1  0  0  0  0
 11 12  1  0  0  0  0
 12  2  1  0  0  0  0
 13 10  1  0  0  0  0
 13  9  1  0  0  0  0
 14  8  1  0  0  0  0
 14  4  1  0  0  0  0
 15 20  1  0  0  0  0
 15 18  1  0  0  0  0
 16 17  1  0  0  0  0
 16 11  1  0  0  0  0
 16 12  1  0  0  0  0
 17 14  1  0  0  0  0
 18  9  1  0  0  0  0
 19 25  1  0  0  0  0
 20 19  2  0  0  0  0
 21 24  2  0  0  0  0
 21 20  1  0  0  0  0
 22 24  1  0  0  0  0
 23 25  2  0  0  0  0
 24 23  1  0  0  0  0
 26 17  1  0  0  0  0
 27 29  1  0  0  0  0
 27 26  1  0  0  0  0
 28 29  1  0  0  0  0
 30 27  1  0  0  0  0
 31 30  1  0  0  0  0
 32 31  1  0  0  0  0
 33 34  1  0  0  0  0
 33  3  1  0  0  0  0
 34 35  1  0  0  0  0
 36 34  1  0  0  0  0
 37 34  1  0  0  0  0
M  END
>  <MODEL>
4

>  <REMARK>
 VINA RESULT:      -7.5      1.382      1.621
  Name = 
  8 active torsions:
  status: ('A' for Active; 'I' for Inactive)
    1  A    between atoms: C_1  and  C_4
    2  A    between atoms: C_1  and  N_27
    3  A    between atoms: C_2  and  O_22
    4  A    between atoms: C_4  and  C_12
    5  A    between atoms: C_4  and  C_37
    6  A    between atoms: C_6  and  O_22
    7  A    between atoms: C_8  and  C_12
    8  A    between atoms: C_23  and  C_30
                            x       y       z     vdW  Elec       q    Type
                         _______ _______ _______ _____ _____    ______ ____

>  <TORSDO>
F 8

$$$$
=
 OpenBabel11112417333D

 37 42  0  0  1  0  0  0  0  0999 V2000
  190.7200  174.3380  141.4450 C   0  0  1  0  0  3  0  0  0  0  0  0
  189.7140  177.3950  142.3910 O   0  0  0  0  0  0  0  0  0  0  0  0
  192.7730  172.7600  141.0990 C   0  0  2  0  0  3  0  0  0  0  0  0
  190.5920  175.2030  142.6840 C   0  0  2  0  0  3  0  0  0  0  0  0
  192.2390  174.1970  141.2880 C   0  0  2  0  0  3  0  0  0  0  0  0
  189.3540  176.0920  142.7680 C   0  0  2  0  0  3  0  0  0  0  0  0
  191.7860  171.7180  141.6080 C   0  0  0  0  0  2  0  0  0  0  0  0
  192.8200  174.9590  142.4670 C   0  0  0  0  0  2  0  0  0  0  0  0
  188.5060  173.1570  141.3950 C   0  0  0  0  0  2  0  0  0  0  0  0
  190.5380  171.9550  141.0190 O   0  0  0  0  0  0  0  0  0  0  0  0
  189.9670  177.6550  144.9210 C   0  0  0  0  0  2  0  0  0  0  0  0
  190.0680  178.2140  143.5060 C   0  0  1  0  0  3  0  0  0  0  0  0
  189.9850  173.0210  141.7410 C   0  0  1  0  0  3  0  0  0  0  0  0
  191.8220  175.9770  142.8090 N   0  0  2  0  0  0  0  0  0  0  0  0
  188.1420  175.5900  141.9650 C   0  0  1  0  0  3  0  0  0  0  0  0
  191.3440  177.7790  144.2790 C   0  0  2  0  0  3  0  0  0  0  0  0
  191.8870  176.4090  144.1600 N   0  0  0  0  0  0  0  0  0  0  0  0
  187.7860  174.1420  142.3130 C   0  0  0  0  0  2  0  0  0  0  0  0
  186.4220  176.6110  143.4630 C   0  0  0  0  0  3  0  0  0  0  0  0
  186.9540  176.4770  142.1760 C   0  0  0  0  0  0  0  0  0  0  0  0
  186.3630  177.1690  141.1060 C   0  0  0  0  0  3  0  0  0  0  0  0
  184.6680  178.6660  140.2660 O   0  0  0  0  0  1  0  0  0  0  0  0
  184.7240  178.1150  142.6140 C   0  0  0  0  0  3  0  0  0  0  0  0
  185.2500  177.9850  141.3270 C   0  0  0  0  0  0  0  0  0  0  0  0
  185.3090  177.4290  143.6830 C   0  0  0  0  0  3  0  0  0  0  0  0
  193.2790  176.5430  144.6100 C   0  0  0  0  0  2  0  0  0  0  0  0
  193.4730  175.9450  146.0060 C   0  0  1  0  0  3  0  0  0  0  0  0
  191.6080  175.3500  147.5590 C   0  0  0  0  0  1  0  0  0  0  0  0
  192.3910  174.9230  146.3310 C   0  0  0  0  0  2  0  0  0  0  0  0
  194.8590  175.3270  146.1370 C   0  0  0  0  0  2  0  0  0  0  0  0
  195.6110  175.3730  144.8170 C   0  0  0  0  0  2  0  0  0  0  0  0
  195.7710  174.0840  144.3070 O   0  0  0  0  0  1  0  0  0  0  0  0
  194.0290  172.5810  141.7050 O   0  0  0  0  0  0  0  0  0  0  0  0
  195.0160  172.6660  140.7040 C   0  0  0  0  0  0  0  0  0  0  0  0
  196.0020  171.7100  140.8990 F   0  0  0  0  0  0  0  0  0  0  0  0
  194.4570  172.5120  139.4440 F   0  0  0  0  0  0  0  0  0  0  0  0
  195.6040  173.9140  140.7690 F   0  0  0  0  0  0  0  0  0  0  0  0
  1 13  1  0  0  0  0
  1  4  1  0  0  0  0
  2  6  1  0  0  0  0
  2 12  1  0  0  0  0
  3  5  1  0  0  0  0
  3  7  1  0  0  0  0
  3 33  1  0  0  0  0
  4  6  1  0  0  0  0
  4 14  1  0  0  0  0
  5  1  1  0  0  0  0
  5  8  1  0  0  0  0
  8 14  1  0  0  0  0
  9 13  1  0  0  0  0
  9 18  1  0  0  0  0
 10  7  1  0  0  0  0
 10 13  1  0  0  0  0
 12 16  1  0  0  0  0
 12 11  1  0  0  0  0
 14 17  1  0  0  0  0
 15 20  1  0  0  0  0
 15 18  1  0  0  0  0
 15  6  1  0  0  0  0
 16 11  1  0  0  0  0
 17 16  1  0  0  0  0
 17 26  1  0  0  0  0
 19 25  1  0  0  0  0
 20 19  2  0  0  0  0
 21 24  2  0  0  0  0
 21 20  1  0  0  0  0
 22 24  1  0  0  0  0
 23 25  2  0  0  0  0
 24 23  1  0  0  0  0
 26 27  1  0  0  0  0
 27 30  1  0  0  0  0
 27 29  1  0  0  0  0
 29 28  1  0  0  0  0
 31 30  1  0  0  0  0
 32 31  1  0  0  0  0
 34 37  1  0  0  0  0
 34 35  1  0  0  0  0
 34 33  1  0  0  0  0
 36 34  1  0  0  0  0
M  END
>  <MODEL>
5

>  <REMARK>
 VINA RESULT:      -7.3      4.241      8.503
  Name = 
  8 active torsions:
  status: ('A' for Active; 'I' for Inactive)
    1  A    between atoms: C_1  and  C_4
    2  A    between atoms: C_1  and  N_27
    3  A    between atoms: C_2  and  O_22
    4  A    between atoms: C_4  and  C_12
    5  A    between atoms: C_4  and  C_37
    6  A    between atoms: C_6  and  O_22
    7  A    between atoms: C_8  and  C_12
    8  A    between atoms: C_23  and  C_30
                            x       y       z     vdW  Elec       q    Type
                         _______ _______ _______ _____ _____    ______ ____

>  <TORSDO>
F 8

$$$$
=
 OpenBabel11112417333D

 37 42  0  0  1  0  0  0  0  0999 V2000
  190.5350  176.8300  145.0520 C   0  0  1  0  0  3  0  0  0  0  0  0
  192.8520  175.9330  142.7980 O   0  0  0  0  0  0  0  0  0  0  0  0
  188.0470  177.5410  145.4140 C   0  0  2  0  0  3  0  0  0  0  0  0
  190.8990  175.6790  144.1340 C   0  0  2  0  0  3  0  0  0  0  0  0
  189.2290  177.3500  144.4380 C   0  0  2  0  0  3  0  0  0  0  0  0
  192.3860  175.3650  143.9940 C   0  0  2  0  0  3  0  0  0  0  0  0
  188.2180  176.7100  146.6790 C   0  0  0  0  0  2  0  0  0  0  0  0
  188.9620  176.4260  143.2610 C   0  0  0  0  0  2  0  0  0  0  0  0
  191.7390  176.2170  147.1680 C   0  0  0  0  0  2  0  0  0  0  0  0
  189.4750  176.9860  147.2300 O   0  0  0  0  0  0  0  0  0  0  0  0
  192.3610  173.5800  141.9270 C   0  0  0  0  0  2  0  0  0  0  0  0
  192.8130  175.0190  141.7020 C   0  0  1  0  0  3  0  0  0  0  0  0
  190.3850  176.2440  146.4660 C   0  0  1  0  0  3  0  0  0  0  0  0
  190.2770  175.9360  142.8400 N   0  0  2  0  0  0  0  0  0  0  0  0
  193.2520  175.7900  145.1920 C   0  0  1  0  0  3  0  0  0  0  0  0
  191.3950  174.5560  141.2630 C   0  0  2  0  0  3  0  0  0  0  0  0
  190.2300  174.6880  142.1640 N   0  0  0  0  0  0  0  0  0  0  0  0
  192.7100  175.2380  146.5130 C   0  0  0  0  0  2  0  0  0  0  0  0
  195.1760  174.2980  145.7550 C   0  0  0  0  0  3  0  0  0  0  0  0
  194.6760  175.3660  145.0020 C   0  0  0  0  0  0  0  0  0  0  0  0
  195.5160  176.0240  144.0900 C   0  0  0  0  0  3  0  0  0  0  0  0
  197.6710  176.2690  143.0330 O   0  0  0  0  0  1  0  0  0  0  0  0
  197.3370  174.5480  144.6910 C   0  0  0  0  0  3  0  0  0  0  0  0
  196.8430  175.6150  143.9360 C   0  0  0  0  0  0  0  0  0  0  0  0
  196.5040  173.8880  145.6000 C   0  0  0  0  0  3  0  0  0  0  0  0
  189.0760  174.6160  141.2570 C   0  0  0  0  0  2  0  0  0  0  0  0
  188.4140  173.2360  141.3080 C   0  0  1  0  0  3  0  0  0  0  0  0
  188.5670  172.6790  138.8770 C   0  0  0  0  0  1  0  0  0  0  0  0
  189.0130  172.2900  140.2740 C   0  0  0  0  0  2  0  0  0  0  0  0
  188.5160  172.6440  142.7080 C   0  0  0  0  0  2  0  0  0  0  0  0
  189.5600  171.5410  142.7650 C   0  0  0  0  0  2  0  0  0  0  0  0
  190.3380  171.6710  143.9150 O   0  0  0  0  0  1  0  0  0  0  0  0
  186.8110  177.2560  144.8050 O   0  0  0  0  0  0  0  0  0  0  0  0
  186.0170  178.4190  144.8600 C   0  0  0  0  0  0  0  0  0  0  0  0
  184.6690  178.1010  144.7850 F   0  0  0  0  0  0  0  0  0  0  0  0
  186.2670  179.1340  146.0210 F   0  0  0  0  0  0  0  0  0  0  0  0
  186.3340  179.2190  143.7790 F   0  0  0  0  0  0  0  0  0  0  0  0
  1 13  1  0  0  0  0
  2  6  1  0  0  0  0
  3  7  1  0  0  0  0
  4  1  1  0  0  0  0
  5  1  1  0  0  0  0
  5  3  1  0  0  0  0
  6  4  1  0  0  0  0
  6 15  1  0  0  0  0
  7 10  1  0  0  0  0
  8  5  1  0  0  0  0
 12 11  1  0  0  0  0
 12  2  1  0  0  0  0
 13  9  1  0  0  0  0
 13 10  1  0  0  0  0
 14  8  1  0  0  0  0
 14  4  1  0  0  0  0
 15 18  1  0  0  0  0
 16 12  1  0  0  0  0
 16 11  1  0  0  0  0
 16 17  1  0  0  0  0
 17 14  1  0  0  0  0
 18  9  1  0  0  0  0
 20 15  1  0  0  0  0
 20 19  2  0  0  0  0
 21 20  1  0  0  0  0
 22 24  1  0  0  0  0
 23 25  2  0  0  0  0
 24 21  2  0  0  0  0
 24 23  1  0  0  0  0
 25 19  1  0  0  0  0
 26 27  1  0  0  0  0
 26 17  1  0  0  0  0
 27 30  1  0  0  0  0
 28 29  1  0  0  0  0
 29 27  1  0  0  0  0
 30 31  1  0  0  0  0
 31 32  1  0  0  0  0
 33 34  1  0  0  0  0
 33  3  1  0  0  0  0
 34 36  1  0  0  0  0
 35 34  1  0  0  0  0
 37 34  1  0  0  0  0
M  END
>  <MODEL>
6

>  <REMARK>
 VINA RESULT:      -7.3      1.696      2.175
  Name = 
  8 active torsions:
  status: ('A' for Active; 'I' for Inactive)
    1  A    between atoms: C_1  and  C_4
    2  A    between atoms: C_1  and  N_27
    3  A    between atoms: C_2  and  O_22
    4  A    between atoms: C_4  and  C_12
    5  A    between atoms: C_4  and  C_37
    6  A    between atoms: C_6  and  O_22
    7  A    between atoms: C_8  and  C_12
    8  A    between atoms: C_23  and  C_30
                            x       y       z     vdW  Elec       q    Type
                         _______ _______ _______ _____ _____    ______ ____

>  <TORSDO>
F 8

$$$$
=
 OpenBabel11112417333D

 37 42  0  0  1  0  0  0  0  0999 V2000
  186.7380  176.8770  143.1940 C   0  0  1  0  0  3  0  0  0  0  0  0
  189.0060  174.4850  142.5720 O   0  0  0  0  0  0  0  0  0  0  0  0
  185.8010  178.5440  144.9750 C   0  0  2  0  0  3  0  0  0  0  0  0
  188.2300  176.6950  142.9950 C   0  0  2  0  0  3  0  0  0  0  0  0
  186.6430  177.2840  144.6700 C   0  0  2  0  0  3  0  0  0  0  0  0
  188.6560  175.6840  141.9330 C   0  0  2  0  0  3  0  0  0  0  0  0
  185.6500  179.4340  143.7490 C   0  0  0  0  0  2  0  0  0  0  0  0
  188.0830  177.3290  145.1510 C   0  0  0  0  0  2  0  0  0  0  0  0
  185.9450  177.3310  140.8560 C   0  0  0  0  0  2  0  0  0  0  0  0
  185.1690  178.6580  142.6870 O   0  0  0  0  0  0  0  0  0  0  0  0
  191.3400  175.5140  142.4060 C   0  0  0  0  0  2  0  0  0  0  0  0
  190.4020  174.3980  142.8550 C   0  0  1  0  0  3  0  0  0  0  0  0
  186.2830  177.9610  142.2030 C   0  0  1  0  0  3  0  0  0  0  0  0
  188.8130  176.3880  144.2960 N   0  0  2  0  0  0  0  0  0  0  0  0
  187.6230  175.4450  140.8180 C   0  0  1  0  0  3  0  0  0  0  0  0
  190.9470  175.4350  143.8770 C   0  0  2  0  0  3  0  0  0  0  0  0
  190.2000  176.6720  144.1900 N   0  0  0  0  0  0  0  0  0  0  0  0
  187.1770  176.7540  140.1620 C   0  0  0  0  0  2  0  0  0  0  0  0
  188.5420  173.2160  140.1600 C   0  0  0  0  0  3  0  0  0  0  0  0
  188.1620  174.5080  139.7810 C   0  0  0  0  0  0  0  0  0  0  0  0
  188.2970  174.9050  138.4410 C   0  0  0  0  0  3  0  0  0  0  0  0
  188.9430  174.4120  136.1690 O   0  0  0  0  0  1  0  0  0  0  0  0
  189.1870  172.7260  137.8780 C   0  0  0  0  0  3  0  0  0  0  0  0
  188.8100  174.0150  137.4930 C   0  0  0  0  0  0  0  0  0  0  0  0
  189.0530  172.3260  139.2110 C   0  0  0  0  0  3  0  0  0  0  0  0
  190.7570  177.1000  145.4800 C   0  0  0  0  0  2  0  0  0  0  0  0
  191.4700  175.9460  146.1900 C   0  0  1  0  0  3  0  0  0  0  0  0
  193.8340  175.1420  146.1280 C   0  0  0  0  0  1  0  0  0  0  0  0
  192.9200  176.2930  146.5030 C   0  0  0  0  0  2  0  0  0  0  0  0
  190.7210  175.5520  147.4570 C   0  0  0  0  0  2  0  0  0  0  0  0
  189.6260  174.5420  147.1580 C   0  0  0  0  0  2  0  0  0  0  0  0
  188.3990  175.0030  147.6370 O   0  0  0  0  0  1  0  0  0  0  0  0
  186.3280  179.2800  146.0520 O   0  0  0  0  0  0  0  0  0  0  0  0
  185.5620  178.9890  147.1980 C   0  0  0  0  0  0  0  0  0  0  0  0
  185.9910  177.8130  147.7940 F   0  0  0  0  0  0  0  0  0  0  0  0
  185.6270  180.0290  148.1130 F   0  0  0  0  0  0  0  0  0  0  0  0
  184.2440  178.8270  146.8180 F   0  0  0  0  0  0  0  0  0  0  0  0
  1  5  1  0  0  0  0
  2 12  1  0  0  0  0
  3 33  1  0  0  0  0
  4  1  1  0  0  0  0
  4 14  1  0  0  0  0
  5  3  1  0  0  0  0
  5  8  1  0  0  0  0
  6  2  1  0  0  0  0
  6  4  1  0  0  0  0
  7  3  1  0  0  0  0
  9 13  1  0  0  0  0
 10  7  1  0  0  0  0
 11 12  1  0  0  0  0
 11 16  1  0  0  0  0
 12 16  1  0  0  0  0
 13 10  1  0  0  0  0
 13  1  1  0  0  0  0
 14  8  1  0  0  0  0
 15  6  1  0  0  0  0
 16 17  1  0  0  0  0
 17 14  1  0  0  0  0
 17 26  1  0  0  0  0
 18 15  1  0  0  0  0
 18  9  1  0  0  0  0
 20 19  1  0  0  0  0
 20 15  1  0  0  0  0
 21 20  2  0  0  0  0
 22 24  1  0  0  0  0
 23 25  1  0  0  0  0
 24 23  2  0  0  0  0
 24 21  1  0  0  0  0
 25 19  2  0  0  0  0
 26 27  1  0  0  0  0
 27 29  1  0  0  0  0
 27 30  1  0  0  0  0
 28 29  1  0  0  0  0
 31 30  1  0  0  0  0
 31 32  1  0  0  0  0
 33 34  1  0  0  0  0
 34 35  1  0  0  0  0
 34 36  1  0  0  0  0
 37 34  1  0  0  0  0
M  END
>  <MODEL>
7

>  <REMARK>
 VINA RESULT:      -7.1      2.231      6.372
  Name = 
  8 active torsions:
  status: ('A' for Active; 'I' for Inactive)
    1  A    between atoms: C_1  and  C_4
    2  A    between atoms: C_1  and  N_27
    3  A    between atoms: C_2  and  O_22
    4  A    between atoms: C_4  and  C_12
    5  A    between atoms: C_4  and  C_37
    6  A    between atoms: C_6  and  O_22
    7  A    between atoms: C_8  and  C_12
    8  A    between atoms: C_23  and  C_30
                            x       y       z     vdW  Elec       q    Type
                         _______ _______ _______ _____ _____    ______ ____

>  <TORSDO>
F 8

$$$$
=
 OpenBabel11112417333D

 37 42  0  0  1  0  0  0  0  0999 V2000
  192.3610  175.3700  142.0750 C   0  0  1  0  0  3  0  0  0  0  0  0
  191.8210  176.9000  145.0110 O   0  0  0  0  0  0  0  0  0  0  0  0
  194.1690  174.5380  140.3830 C   0  0  2  0  0  3  0  0  0  0  0  0
  192.5140  175.1410  143.5670 C   0  0  2  0  0  3  0  0  0  0  0  0
  193.8160  175.4310  141.5940 C   0  0  2  0  0  3  0  0  0  0  0  0
  191.3970  175.6830  144.4560 C   0  0  2  0  0  3  0  0  0  0  0  0
  193.1760  173.3960  140.2130 C   0  0  0  0  0  2  0  0  0  0  0  0
  194.6460  175.1940  142.8440 C   0  0  0  0  0  2  0  0  0  0  0  0
  190.0600  174.4680  141.6360 C   0  0  0  0  0  2  0  0  0  0  0  0
  191.8810  173.9290  140.1820 O   0  0  0  0  0  0  0  0  0  0  0  0
  192.4900  175.3580  146.9370 C   0  0  0  0  0  2  0  0  0  0  0  0
  192.4230  176.7400  146.2960 C   0  0  1  0  0  3  0  0  0  0  0  0
  191.5550  174.1850  141.5200 C   0  0  1  0  0  3  0  0  0  0  0  0
  193.8180  175.6610  143.9600 N   0  0  2  0  0  0  0  0  0  0  0  0
  190.0320  175.8270  143.7630 C   0  0  1  0  0  3  0  0  0  0  0  0
  193.7560  175.9390  146.3170 C   0  0  2  0  0  3  0  0  0  0  0  0
  194.1360  175.0480  145.2010 N   0  0  0  0  0  0  0  0  0  0  0  0
  189.5930  174.5250  143.0880 C   0  0  0  0  0  2  0  0  0  0  0  0
  188.8740  175.6400  145.9700 C   0  0  0  0  0  3  0  0  0  0  0  0
  188.9840  176.2820  144.7320 C   0  0  0  0  0  0  0  0  0  0  0  0
  188.1100  177.3350  144.4180 C   0  0  0  0  0  3  0  0  0  0  0  0
  186.2720  178.7770  145.0190 O   0  0  0  0  0  1  0  0  0  0  0  0
  187.0310  177.0910  146.5700 C   0  0  0  0  0  3  0  0  0  0  0  0
  187.1350  177.7370  145.3350 C   0  0  0  0  0  0  0  0  0  0  0  0
  187.9000  176.0430  146.8880 C   0  0  0  0  0  3  0  0  0  0  0  0
  195.5870  174.8860  145.3600 C   0  0  0  0  0  2  0  0  0  0  0  0
  195.9470  173.4540  145.7630 C   0  0  1  0  0  3  0  0  0  0  0  0
  195.3260  171.0600  145.4020 C   0  0  0  0  0  1  0  0  0  0  0  0
  194.8090  172.4860  145.4610 C   0  0  0  0  0  2  0  0  0  0  0  0
  197.2320  173.0100  145.0760 C   0  0  0  0  0  2  0  0  0  0  0  0
  197.9170  174.1750  144.3820 C   0  0  0  0  0  2  0  0  0  0  0  0
  197.9410  173.9690  143.0020 O   0  0  0  0  0  1  0  0  0  0  0  0
  195.4810  174.0370  140.4650 O   0  0  0  0  0  0  0  0  0  0  0  0
  196.2940  174.7920  139.5980 C   0  0  0  0  0  0  0  0  0  0  0  0
  196.6690  175.9890  140.1900 F   0  0  0  0  0  0  0  0  0  0  0  0
  197.4240  174.0770  139.2300 F   0  0  0  0  0  0  0  0  0  0  0  0
  195.5720  175.0810  138.4560 F   0  0  0  0  0  0  0  0  0  0  0  0
  1  4  1  0  0  0  0
  2 12  1  0  0  0  0
  3 33  1  0  0  0  0
  3  5  1  0  0  0  0
  4 14  1  0  0  0  0
  4  6  1  0  0  0  0
  5  1  1  0  0  0  0
  5  8  1  0  0  0  0
  6  2  1  0  0  0  0
  7  3  1  0  0  0  0
  8 14  1  0  0  0  0
  9 18  1  0  0  0  0
 10  7  1  0  0  0  0
 10 13  1  0  0  0  0
 12 16  1  0  0  0  0
 12 11  1  0  0  0  0
 13  9  1  0  0  0  0
 13  1  1  0  0  0  0
 14 17  1  0  0  0  0
 15  6  1  0  0  0  0
 15 20  1  0  0  0  0
 16 11  1  0  0  0  0
 17 26  1  0  0  0  0
 17 16  1  0  0  0  0
 18 15  1  0  0  0  0
 19 25  1  0  0  0  0
 20 19  2  0  0  0  0
 21 20  1  0  0  0  0
 21 24  2  0  0  0  0
 22 24  1  0  0  0  0
 23 25  2  0  0  0  0
 24 23  1  0  0  0  0
 26 27  1  0  0  0  0
 28 29  1  0  0  0  0
 29 27  1  0  0  0  0
 30 27  1  0  0  0  0
 31 30  1  0  0  0  0
 32 31  1  0  0  0  0
 34 35  1  0  0  0  0
 34 33  1  0  0  0  0
 36 34  1  0  0  0  0
 37 34  1  0  0  0  0
M  END
>  <MODEL>
8

>  <REMARK>
 VINA RESULT:      -7.1      4.432      8.445
  Name = 
  8 active torsions:
  status: ('A' for Active; 'I' for Inactive)
    1  A    between atoms: C_1  and  C_4
    2  A    between atoms: C_1  and  N_27
    3  A    between atoms: C_2  and  O_22
    4  A    between atoms: C_4  and  C_12
    5  A    between atoms: C_4  and  C_37
    6  A    between atoms: C_6  and  O_22
    7  A    between atoms: C_8  and  C_12
    8  A    between atoms: C_23  and  C_30
                            x       y       z     vdW  Elec       q    Type
                         _______ _______ _______ _____ _____    ______ ____

>  <TORSDO>
F 8

$$$$
=
 OpenBabel11112417333D

 37 42  0  0  1  0  0  0  0  0999 V2000
  188.5630  175.1060  142.6350 C   0  0  1  0  0  3  0  0  0  0  0  0
  191.1100  173.0100  143.2440 O   0  0  0  0  0  0  0  0  0  0  0  0
  187.1620  177.1120  143.5500 C   0  0  2  0  0  3  0  0  0  0  0  0
  190.0760  175.0920  142.7360 C   0  0  2  0  0  3  0  0  0  0  0  0
  188.1540  175.9640  143.8390 C   0  0  2  0  0  3  0  0  0  0  0  0
  190.7830  173.8600  142.1760 C   0  0  2  0  0  3  0  0  0  0  0  0
  187.1680  177.5090  142.0800 C   0  0  0  0  0  2  0  0  0  0  0  0
  189.4670  176.3810  144.4790 C   0  0  0  0  0  2  0  0  0  0  0  0
  188.1910  174.6280  140.1990 C   0  0  0  0  0  2  0  0  0  0  0  0
  186.9670  176.3600  141.3040 O   0  0  0  0  0  0  0  0  0  0  0  0
  193.3330  174.2600  143.0680 C   0  0  0  0  0  2  0  0  0  0  0  0
  192.4300  173.2310  143.7410 C   0  0  1  0  0  3  0  0  0  0  0  0
  188.2100  175.7160  141.2690 C   0  0  1  0  0  3  0  0  0  0  0  0
  190.4260  175.3280  144.1310 N   0  0  2  0  0  0  0  0  0  0  0  0
  190.0070  173.1110  141.0800 C   0  0  1  0  0  3  0  0  0  0  0  0
  192.6760  174.6190  144.3970 C   0  0  2  0  0  3  0  0  0  0  0  0
  191.7780  175.7640  144.1370 N   0  0  0  0  0  0  0  0  0  0  0  0
  189.5790  174.0440  139.9440 C   0  0  0  0  0  2  0  0  0  0  0  0
  191.9530  172.2470  139.7720 C   0  0  0  0  0  3  0  0  0  0  0  0
  190.8130  171.9720  140.5340 C   0  0  0  0  0  0  0  0  0  0  0  0
  190.4410  170.6390  140.7690 C   0  0  0  0  0  3  0  0  0  0  0  0
  190.8320  168.2760  140.4760 O   0  0  0  0  0  1  0  0  0  0  0  0
  192.3420  169.8740  139.4820 C   0  0  0  0  0  3  0  0  0  0  0  0
  191.2040  169.5940  140.2430 C   0  0  0  0  0  0  0  0  0  0  0  0
  192.7180  171.2000  139.2460 C   0  0  0  0  0  3  0  0  0  0  0  0
  192.0390  176.6770  145.2580 C   0  0  0  0  0  2  0  0  0  0  0  0
  192.7220  175.9500  146.4190 C   0  0  1  0  0  3  0  0  0  0  0  0
  194.5690  177.4930  145.7470 C   0  0  0  0  0  1  0  0  0  0  0  0
  193.9680  176.6920  146.8870 C   0  0  0  0  0  2  0  0  0  0  0  0
  191.7470  175.7480  147.5720 C   0  0  0  0  0  2  0  0  0  0  0  0
  191.0520  177.0470  147.9410 C   0  0  0  0  0  2  0  0  0  0  0  0
  191.5660  177.5480  149.1380 O   0  0  0  0  0  1  0  0  0  0  0  0
  187.4070  178.2350  144.3600 O   0  0  0  0  0  0  0  0  0  0  0  0
  186.3720  178.3240  145.3120 C   0  0  0  0  0  0  0  0  0  0  0  0
  186.8200  177.9420  146.5670 F   0  0  0  0  0  0  0  0  0  0  0  0
  185.8620  179.6130  145.3680 F   0  0  0  0  0  0  0  0  0  0  0  0
  185.3530  177.4700  144.9360 F   0  0  0  0  0  0  0  0  0  0  0  0
  1  4  1  0  0  0  0
  1  5  1  0  0  0  0
  2 12  1  0  0  0  0
  3  5  1  0  0  0  0
  3 33  1  0  0  0  0
  4 14  1  0  0  0  0
  5  8  1  0  0  0  0
  6  4  1  0  0  0  0
  6  2  1  0  0  0  0
  7  3  1  0  0  0  0
  9 13  1  0  0  0  0
 10  7  1  0  0  0  0
 11 12  1  0  0  0  0
 11 16  1  0  0  0  0
 12 16  1  0  0  0  0
 13 10  1  0  0  0  0
 13  1  1  0  0  0  0
 14 17  1  0  0  0  0
 14  8  1  0  0  0  0
 15  6  1  0  0  0  0
 17 16  1  0  0  0  0
 17 26  1  0  0  0  0
 18  9  1  0  0  0  0
 18 15  1  0  0  0  0
 19 20  1  0  0  0  0
 20 21  2  0  0  0  0
 20 15  1  0  0  0  0
 23 24  2  0  0  0  0
 24 22  1  0  0  0  0
 24 21  1  0  0  0  0
 25 23  1  0  0  0  0
 25 19  2  0  0  0  0
 26 27  1  0  0  0  0
 27 29  1  0  0  0  0
 27 30  1  0  0  0  0
 28 29  1  0  0  0  0
 30 31  1  0  0  0  0
 31 32  1  0  0  0  0
 33 34  1  0  0  0  0
 34 36  1  0  0  0  0
 34 35  1  0  0  0  0
 37 34  1  0  0  0  0
M  END
>  <MODEL>
9

>  <REMARK>
 VINA RESULT:      -7.1      2.387      6.303
  Name = 
  8 active torsions:
  status: ('A' for Active; 'I' for Inactive)
    1  A    between atoms: C_1  and  C_4
    2  A    between atoms: C_1  and  N_27
    3  A    between atoms: C_2  and  O_22
    4  A    between atoms: C_4  and  C_12
    5  A    between atoms: C_4  and  C_37
    6  A    between atoms: C_6  and  O_22
    7  A    between atoms: C_8  and  C_12
    8  A    between atoms: C_23  and  C_30
                            x       y       z     vdW  Elec       q    Type
                         _______ _______ _______ _____ _____    ______ ____

>  <TORSDO>
F 8

$$$$
