=
 OpenBabel11112416473D

 31 35  0  0  1  0  0  0  0  0999 V2000
  186.8040  177.1350  140.9130 C   0  0  0  0  0  0  0  0  0  0  0  0
  187.7980  176.1350  144.4700 C   0  0  0  0  0  0  0  0  0  0  0  0
  186.9320  176.8240  145.3650 C   0  0  0  0  0  0  0  0  0  0  0  0
  184.9990  178.2430  145.8160 C   0  0  0  0  0  0  0  0  0  0  0  0
  187.6430  176.1470  142.9770 C   0  0  0  0  0  0  0  0  0  0  0  0
  187.4410  176.1420  140.1680 C   0  0  0  0  0  3  0  0  0  0  0  0
  185.8370  177.5800  144.9160 C   0  0  0  0  0  3  0  0  0  0  0  0
  189.8180  174.6270  144.1170 C   0  0  2  0  0  3  0  0  0  0  0  0
  186.0660  178.1190  140.2700 O   0  0  0  0  0  1  0  0  0  0  0  0
  188.2100  175.9770  147.2630 C   0  0  0  0  0  3  0  0  0  0  0  0
  183.8510  179.0410  145.3110 C   0  0  0  0  0  1  0  0  0  0  0  0
  189.1010  174.0860  142.8800 C   0  0  0  0  0  2  0  0  0  0  0  0
  188.8520  175.3560  145.0120 C   0  0  0  0  0  0  0  0  0  0  0  0
  186.9080  177.1370  142.3060 C   0  0  0  0  0  3  0  0  0  0  0  0
  185.2410  178.1580  147.1880 C   0  0  0  0  0  3  0  0  0  0  0  0
  188.3030  175.1620  142.2080 C   0  0  0  0  0  0  0  0  0  0  0  0
  188.1890  175.1560  140.8150 C   0  0  0  0  0  3  0  0  0  0  0  0
  189.0510  175.2910  146.3930 C   0  0  0  0  0  3  0  0  0  0  0  0
  187.1560  176.7380  146.7650 C   0  0  0  0  0  0  0  0  0  0  0  0
  186.3160  177.4050  147.6610 C   0  0  0  0  0  3  0  0  0  0  0  0
  192.5530  174.4270  144.9480 O   0  0  0  0  0  0  0  0  0  0  0  0
  192.2340  175.3920  144.2000 C   0  0  0  0  0  0  0  0  0  0  0  0
  190.8990  175.5160  143.7090 N   0  0  0  0  0  2  0  0  0  0  0  0
  196.1890  175.7530  143.3460 C   0  0  1  0  0  3  0  0  0  0  0  0
  193.8020  176.1540  142.4030 C   0  0  0  0  0  2  0  0  0  0  0  0
  194.0140  177.0850  145.9650 O   0  0  0  0  0  0  0  0  0  0  0  0
  197.4740  174.9690  143.5090 C   0  0  0  0  0  1  0  0  0  0  0  0
  194.9930  174.7750  142.3910 S   0  0  0  0  0  0  0  0  0  0  0  0
  194.3190  176.5700  144.8580 C   0  0  0  0  0  0  0  0  0  0  0  0
  193.2520  176.4160  143.8070 C   0  0  2  0  0  3  0  0  0  0  0  0
  195.6510  176.0870  144.6570 N   0  0  0  0  0  2  0  0  0  0  0  0
  1 14  1  0  0  0  0
  2 13  2  0  0  0  0
  2  3  1  0  0  0  0
  3 19  1  0  0  0  0
  4 15  2  0  0  0  0
  5  2  1  0  0  0  0
  6 17  1  0  0  0  0
  6  1  2  0  0  0  0
  7  3  2  0  0  0  0
  7  4  1  0  0  0  0
  8 23  1  6  0  0  0
  8 13  1  0  0  0  0
  9  1  1  0  0  0  0
 11  4  1  0  0  0  0
 12  8  1  0  0  0  0
 13 18  1  0  0  0  0
 14  5  2  0  0  0  0
 15 20  1  0  0  0  0
 16 12  1  0  0  0  0
 16  5  1  0  0  0  0
 17 16  2  0  0  0  0
 18 10  2  0  0  0  0
 19 10  1  0  0  0  0
 19 20  2  0  0  0  0
 22 21  2  0  0  0  0
 23 22  1  0  0  0  0
 24 27  1  1  0  0  0
 24 31  1  0  0  0  0
 25 30  1  0  0  0  0
 28 25  1  0  0  0  0
 28 24  1  0  0  0  0
 29 26  2  0  0  0  0
 30 22  1  1  0  0  0
 30 29  1  0  0  0  0
 31 29  1  0  0  0  0
M  END
>  <MODEL>
1

>  <REMARK>
 VINA RESULT:      -9.2      0.000      0.000
  Name = 
  2 active torsions:
  status: ('A' for Active; 'I' for Inactive)
    1  A    between atoms: C_5  and  C_30
    2  A    between atoms: C_10  and  N_16
                            x       y       z     vdW  Elec       q    Type
                         _______ _______ _______ _____ _____    ______ ____

>  <TORSDO>
F 2

$$$$
=
 OpenBabel11112416473D

 31 35  0  0  1  0  0  0  0  0999 V2000
  187.4500  176.1670  140.7080 C   0  0  0  0  0  0  0  0  0  0  0  0
  187.5660  176.3320  144.5280 C   0  0  0  0  0  0  0  0  0  0  0  0
  186.4940  177.1680  144.9520 C   0  0  0  0  0  0  0  0  0  0  0  0
  184.4810  178.4710  144.5030 C   0  0  0  0  0  0  0  0  0  0  0  0
  187.7800  175.8990  143.1070 C   0  0  0  0  0  0  0  0  0  0  0  0
  188.2700  175.0650  140.4620 C   0  0  0  0  0  3  0  0  0  0  0  0
  185.5260  177.6570  144.0590 C   0  0  0  0  0  3  0  0  0  0  0  0
  189.6410  174.9810  145.1150 C   0  0  2  0  0  3  0  0  0  0  0  0
  186.8720  176.8510  139.6470 O   0  0  0  0  0  1  0  0  0  0  0  0
  187.2880  177.0260  147.2550 C   0  0  0  0  0  3  0  0  0  0  0  0
  183.4750  178.9790  143.5340 C   0  0  0  0  0  1  0  0  0  0  0  0
  189.2600  174.0420  143.9710 C   0  0  0  0  0  2  0  0  0  0  0  0
  188.4710  175.8450  145.5050 C   0  0  0  0  0  0  0  0  0  0  0  0
  187.2110  176.5810  142.0200 C   0  0  0  0  0  3  0  0  0  0  0  0
  184.3820  178.8080  145.8530 C   0  0  0  0  0  3  0  0  0  0  0  0
  188.6280  174.8000  142.8420 C   0  0  0  0  0  0  0  0  0  0  0  0
  188.8570  174.3810  141.5280 C   0  0  0  0  0  3  0  0  0  0  0  0
  188.3290  176.1990  146.8480 C   0  0  0  0  0  3  0  0  0  0  0  0
  186.3720  177.5100  146.3250 C   0  0  0  0  0  0  0  0  0  0  0  0
  185.3250  178.3260  146.7620 C   0  0  0  0  0  3  0  0  0  0  0  0
  192.3990  174.4420  145.6800 O   0  0  0  0  0  0  0  0  0  0  0  0
  192.1200  175.5120  145.0720 C   0  0  0  0  0  0  0  0  0  0  0  0
  190.7710  175.8110  144.7140 N   0  0  0  0  0  2  0  0  0  0  0  0
  196.0420  175.6200  144.0160 C   0  0  1  0  0  3  0  0  0  0  0  0
  193.6530  176.2970  143.2540 C   0  0  0  0  0  2  0  0  0  0  0  0
  194.1320  176.8910  146.8610 O   0  0  0  0  0  0  0  0  0  0  0  0
  197.2610  174.7220  144.0370 C   0  0  0  0  0  1  0  0  0  0  0  0
  194.7170  174.8310  143.0570 S   0  0  0  0  0  0  0  0  0  0  0  0
  194.3320  176.4520  145.6990 C   0  0  0  0  0  0  0  0  0  0  0  0
  193.2020  176.4790  144.7040 C   0  0  2  0  0  3  0  0  0  0  0  0
  195.6050  175.8800  145.3800 N   0  0  0  0  0  2  0  0  0  0  0  0
  1 14  1  0  0  0  0
  2  3  2  0  0  0  0
  2 13  1  0  0  0  0
  3 19  1  0  0  0  0
  4 15  1  0  0  0  0
  5  2  1  0  0  0  0
  6  1  2  0  0  0  0
  6 17  1  0  0  0  0
  7  4  2  0  0  0  0
  7  3  1  0  0  0  0
  8 23  1  6  0  0  0
  8 13  1  0  0  0  0
  9  1  1  0  0  0  0
 11  4  1  0  0  0  0
 12  8  1  0  0  0  0
 13 18  2  0  0  0  0
 14  5  2  0  0  0  0
 15 20  2  0  0  0  0
 16  5  1  0  0  0  0
 16 12  1  0  0  0  0
 17 16  2  0  0  0  0
 18 10  1  0  0  0  0
 19 20  1  0  0  0  0
 19 10  2  0  0  0  0
 22 21  2  0  0  0  0
 23 22  1  0  0  0  0
 24 27  1  1  0  0  0
 24 31  1  0  0  0  0
 25 30  1  0  0  0  0
 28 25  1  0  0  0  0
 28 24  1  0  0  0  0
 29 26  2  0  0  0  0
 30 22  1  1  0  0  0
 30 29  1  0  0  0  0
 31 29  1  0  0  0  0
M  END
>  <MODEL>
2

>  <REMARK>
 VINA RESULT:      -9.2      0.879      1.086
  Name = 
  2 active torsions:
  status: ('A' for Active; 'I' for Inactive)
    1  A    between atoms: C_5  and  C_30
    2  A    between atoms: C_10  and  N_16
                            x       y       z     vdW  Elec       q    Type
                         _______ _______ _______ _____ _____    ______ ____

>  <TORSDO>
F 2

$$$$
=
 OpenBabel11112416473D

 31 35  0  0  1  0  0  0  0  0999 V2000
  189.0910  173.8480  140.7370 C   0  0  0  0  0  0  0  0  0  0  0  0
  188.5690  175.4650  144.1640 C   0  0  0  0  0  0  0  0  0  0  0  0
  187.6970  176.5780  143.9840 C   0  0  0  0  0  0  0  0  0  0  0  0
  186.2130  177.9400  142.6090 C   0  0  0  0  0  0  0  0  0  0  0  0
  188.9080  174.4820  143.0830 C   0  0  0  0  0  0  0  0  0  0  0  0
  189.6210  172.6100  141.1030 C   0  0  0  0  0  3  0  0  0  0  0  0
  187.0670  176.8450  142.7570 C   0  0  0  0  0  3  0  0  0  0  0  0
  190.0750  174.1020  145.6970 C   0  0  2  0  0  3  0  0  0  0  0  0
  188.9110  174.1570  139.3960 O   0  0  0  0  0  1  0  0  0  0  0  0
  188.0050  177.2050  146.3220 C   0  0  0  0  0  3  0  0  0  0  0  0
  185.5650  178.2010  141.2970 C   0  0  0  0  0  1  0  0  0  0  0  0
  189.6670  172.8760  144.8800 C   0  0  0  0  0  2  0  0  0  0  0  0
  189.1250  175.2440  145.4500 C   0  0  0  0  0  0  0  0  0  0  0  0
  188.7410  174.7770  141.7200 C   0  0  0  0  0  3  0  0  0  0  0  0
  185.9690  178.7880  143.6890 C   0  0  0  0  0  3  0  0  0  0  0  0
  189.4690  173.2340  143.4380 C   0  0  0  0  0  0  0  0  0  0  0  0
  189.8080  172.3030  142.4520 C   0  0  0  0  0  3  0  0  0  0  0  0
  188.8460  176.1130  146.5070 C   0  0  0  0  0  3  0  0  0  0  0  0
  187.4290  177.4430  145.0770 C   0  0  0  0  0  0  0  0  0  0  0  0
  186.5750  178.5390  144.9210 C   0  0  0  0  0  3  0  0  0  0  0  0
  192.0490  175.0890  147.5250 O   0  0  0  0  0  0  0  0  0  0  0  0
  192.3570  175.0260  146.3030 C   0  0  0  0  0  0  0  0  0  0  0  0
  191.4360  174.4930  145.3510 N   0  0  0  0  0  2  0  0  0  0  0  0
  194.4240  175.7960  142.8910 C   0  0  1  0  0  3  0  0  0  0  0  0
  193.6020  176.8480  145.1190 C   0  0  0  0  0  2  0  0  0  0  0  0
  194.8180  173.4030  145.6270 O   0  0  0  0  0  0  0  0  0  0  0  0
  194.3360  175.5090  141.4070 C   0  0  0  0  0  1  0  0  0  0  0  0
  192.9310  176.6730  143.4350 S   0  0  0  0  0  0  0  0  0  0  0  0
  194.4120  174.4380  145.0370 C   0  0  0  0  0  0  0  0  0  0  0  0
  193.6980  175.4980  145.8340 C   0  0  2  0  0  3  0  0  0  0  0  0
  194.5800  174.5450  143.6200 N   0  0  0  0  0  2  0  0  0  0  0  0
  1  6  2  0  0  0  0
  1 14  1  0  0  0  0
  2 13  1  0  0  0  0
  3  2  2  0  0  0  0
  3 19  1  0  0  0  0
  4  7  2  0  0  0  0
  4 15  1  0  0  0  0
  5 16  1  0  0  0  0
  5  2  1  0  0  0  0
  6 17  1  0  0  0  0
  7  3  1  0  0  0  0
  8 23  1  6  0  0  0
  9  1  1  0  0  0  0
 10 18  1  0  0  0  0
 11  4  1  0  0  0  0
 12  8  1  0  0  0  0
 13  8  1  0  0  0  0
 13 18  2  0  0  0  0
 14  5  2  0  0  0  0
 15 20  2  0  0  0  0
 16 12  1  0  0  0  0
 17 16  2  0  0  0  0
 19 10  2  0  0  0  0
 20 19  1  0  0  0  0
 22 21  2  0  0  0  0
 23 22  1  0  0  0  0
 24 27  1  6  0  0  0
 24 28  1  0  0  0  0
 24 31  1  0  0  0  0
 25 30  1  0  0  0  0
 28 25  1  0  0  0  0
 29 26  2  0  0  0  0
 29 30  1  0  0  0  0
 30 22  1  6  0  0  0
 31 29  1  0  0  0  0
M  END
>  <MODEL>
3

>  <REMARK>
 VINA RESULT:      -8.6      1.990      2.847
  Name = 
  2 active torsions:
  status: ('A' for Active; 'I' for Inactive)
    1  A    between atoms: C_5  and  C_30
    2  A    between atoms: C_10  and  N_16
                            x       y       z     vdW  Elec       q    Type
                         _______ _______ _______ _____ _____    ______ ____

>  <TORSDO>
F 2

$$$$
=
 OpenBabel11112416473D

 31 35  0  0  1  0  0  0  0  0999 V2000
  190.5490  176.5420  146.7060 C   0  0  0  0  0  0  0  0  0  0  0  0
  187.7990  177.7140  144.3180 C   0  0  0  0  0  0  0  0  0  0  0  0
  186.6510  178.0190  145.1050 C   0  0  0  0  0  0  0  0  0  0  0  0
  185.5440  178.3230  147.2570 C   0  0  0  0  0  0  0  0  0  0  0  0
  189.1380  177.3540  144.8930 C   0  0  0  0  0  0  0  0  0  0  0  0
  191.6750  176.6440  145.8880 C   0  0  0  0  0  3  0  0  0  0  0  0
  186.6830  178.0150  146.5090 C   0  0  0  0  0  3  0  0  0  0  0  0
  188.8590  177.4490  142.0200 C   0  0  2  0  0  3  0  0  0  0  0  0
  190.6790  176.0940  148.0130 O   0  0  0  0  0  1  0  0  0  0  0  0
  185.3560  178.4070  143.0740 C   0  0  0  0  0  3  0  0  0  0  0  0
  185.6050  178.3060  148.7420 C   0  0  0  0  0  1  0  0  0  0  0  0
  190.1680  177.9160  142.6550 C   0  0  0  0  0  2  0  0  0  0  0  0
  187.6900  177.7870  142.9060 C   0  0  0  0  0  0  0  0  0  0  0  0
  189.2910  176.8920  146.2100 C   0  0  0  0  0  3  0  0  0  0  0  0
  184.3500  178.6450  146.6110 C   0  0  0  0  0  3  0  0  0  0  0  0
  190.2830  177.4290  144.0680 C   0  0  0  0  0  0  0  0  0  0  0  0
  191.5420  177.0880  144.5710 C   0  0  0  0  0  3  0  0  0  0  0  0
  186.4770  178.1230  142.3020 C   0  0  0  0  0  3  0  0  0  0  0  0
  185.4320  178.3600  144.4630 C   0  0  0  0  0  0  0  0  0  0  0  0
  184.2950  178.6650  145.2170 C   0  0  0  0  0  3  0  0  0  0  0  0
  187.4610  176.0400  139.9530 O   0  0  0  0  0  0  0  0  0  0  0  0
  188.1510  175.3630  140.7630 C   0  0  0  0  0  0  0  0  0  0  0  0
  188.9130  176.0110  141.7810 N   0  0  0  0  0  2  0  0  0  0  0  0
  190.2680  172.1580  142.0880 C   0  0  1  0  0  3  0  0  0  0  0  0
  187.8920  173.2060  142.0070 C   0  0  0  0  0  2  0  0  0  0  0  0
  189.6570  173.6270  138.7970 O   0  0  0  0  0  0  0  0  0  0  0  0
  191.5990  171.8540  142.7410 C   0  0  0  0  0  1  0  0  0  0  0  0
  189.3180  173.2960  143.1370 S   0  0  0  0  0  0  0  0  0  0  0  0
  189.4660  173.3920  140.0180 C   0  0  0  0  0  0  0  0  0  0  0  0
  188.1910  173.8700  140.6620 C   0  0  2  0  0  3  0  0  0  0  0  0
  190.4920  172.7380  140.7710 N   0  0  0  0  0  2  0  0  0  0  0  0
  1  9  1  0  0  0  0
  2  5  1  0  0  0  0
  2  3  1  0  0  0  0
  3  7  1  0  0  0  0
  4 11  1  0  0  0  0
  5 14  2  0  0  0  0
  6  1  2  0  0  0  0
  7  4  2  0  0  0  0
  8 23  1  1  0  0  0
  8 12  1  0  0  0  0
  8 13  1  0  0  0  0
 10 19  1  0  0  0  0
 12 16  1  0  0  0  0
 13  2  2  0  0  0  0
 14  1  1  0  0  0  0
 15  4  1  0  0  0  0
 16 17  2  0  0  0  0
 16  5  1  0  0  0  0
 17  6  1  0  0  0  0
 18 13  1  0  0  0  0
 18 10  2  0  0  0  0
 19  3  2  0  0  0  0
 19 20  1  0  0  0  0
 20 15  2  0  0  0  0
 21 22  2  0  0  0  0
 22 23  1  0  0  0  0
 24 27  1  1  0  0  0
 24 28  1  0  0  0  0
 25 28  1  0  0  0  0
 26 29  2  0  0  0  0
 29 30  1  0  0  0  0
 29 31  1  0  0  0  0
 30 22  1  1  0  0  0
 30 25  1  0  0  0  0
 31 24  1  0  0  0  0
M  END
>  <MODEL>
4

>  <REMARK>
 VINA RESULT:      -8.3      2.937      5.401
  Name = 
  2 active torsions:
  status: ('A' for Active; 'I' for Inactive)
    1  A    between atoms: C_5  and  C_30
    2  A    between atoms: C_10  and  N_16
                            x       y       z     vdW  Elec       q    Type
                         _______ _______ _______ _____ _____    ______ ____

>  <TORSDO>
F 2

$$$$
=
 OpenBabel11112416473D

 31 35  0  0  1  0  0  0  0  0999 V2000
  188.4670  174.3060  139.2300 C   0  0  0  0  0  0  0  0  0  0  0  0
  188.1250  175.5550  142.8290 C   0  0  0  0  0  0  0  0  0  0  0  0
  187.2070  176.6430  142.8190 C   0  0  0  0  0  0  0  0  0  0  0  0
  185.5880  178.0740  141.6860 C   0  0  0  0  0  0  0  0  0  0  0  0
  188.4230  174.6980  141.6340 C   0  0  0  0  0  0  0  0  0  0  0  0
  189.0620  173.0610  139.4340 C   0  0  0  0  0  3  0  0  0  0  0  0
  186.4860  177.0050  141.6680 C   0  0  0  0  0  3  0  0  0  0  0  0
  189.7770  174.1080  144.1160 C   0  0  2  0  0  3  0  0  0  0  0  0
  188.1860  174.7380  137.9410 O   0  0  0  0  0  1  0  0  0  0  0  0
  187.6510  177.0490  145.1830 C   0  0  0  0  0  3  0  0  0  0  0  0
  184.8430  178.4370  140.4520 C   0  0  0  0  0  1  0  0  0  0  0  0
  189.3570  172.9540  143.2080 C   0  0  0  0  0  2  0  0  0  0  0  0
  188.7750  175.2300  144.0470 C   0  0  0  0  0  0  0  0  0  0  0  0
  188.1540  175.1180  140.3220 C   0  0  0  0  0  3  0  0  0  0  0  0
  185.3890  178.8010  142.8610 C   0  0  0  0  0  3  0  0  0  0  0  0
  189.0480  173.4440  141.8240 C   0  0  0  0  0  0  0  0  0  0  0  0
  189.3510  172.6290  140.7300 C   0  0  0  0  0  3  0  0  0  0  0  0
  188.5390  175.9790  145.2020 C   0  0  0  0  0  3  0  0  0  0  0  0
  186.9840  177.3860  144.0080 C   0  0  0  0  0  0  0  0  0  0  0  0
  186.0860  178.4560  144.0200 C   0  0  0  0  0  3  0  0  0  0  0  0
  192.0130  174.4730  145.8710 O   0  0  0  0  0  0  0  0  0  0  0  0
  192.1570  174.7950  144.6590 C   0  0  0  0  0  0  0  0  0  0  0  0
  191.0980  174.5870  143.7250 N   0  0  0  0  0  2  0  0  0  0  0  0
  196.1780  174.3260  145.0020 C   0  0  1  0  0  3  0  0  0  0  0  0
  194.2220  174.4100  143.2960 C   0  0  0  0  0  2  0  0  0  0  0  0
  193.8330  176.9780  145.9140 O   0  0  0  0  0  0  0  0  0  0  0  0
  197.1780  173.6190  145.8920 C   0  0  0  0  0  1  0  0  0  0  0  0
  195.0370  173.1120  144.2800 S   0  0  0  0  0  0  0  0  0  0  0  0
  194.2540  175.9530  145.3170 C   0  0  0  0  0  0  0  0  0  0  0  0
  193.4450  175.3880  144.1790 C   0  0  2  0  0  3  0  0  0  0  0  0
  195.4500  175.3180  145.7800 N   0  0  0  0  0  2  0  0  0  0  0  0
  1  6  2  0  0  0  0
  1 14  1  0  0  0  0
  2 13  1  0  0  0  0
  3  2  2  0  0  0  0
  3 19  1  0  0  0  0
  4 15  1  0  0  0  0
  5 16  1  0  0  0  0
  5  2  1  0  0  0  0
  6 17  1  0  0  0  0
  7  4  2  0  0  0  0
  7  3  1  0  0  0  0
  8 23  1  6  0  0  0
  9  1  1  0  0  0  0
 10 18  1  0  0  0  0
 11  4  1  0  0  0  0
 12  8  1  0  0  0  0
 13  8  1  0  0  0  0
 13 18  2  0  0  0  0
 14  5  2  0  0  0  0
 15 20  2  0  0  0  0
 16 12  1  0  0  0  0
 17 16  2  0  0  0  0
 19 20  1  0  0  0  0
 19 10  2  0  0  0  0
 22 21  2  0  0  0  0
 23 22  1  0  0  0  0
 24 31  1  0  0  0  0
 24 27  1  1  0  0  0
 25 30  1  0  0  0  0
 25 28  1  0  0  0  0
 28 24  1  0  0  0  0
 29 31  1  0  0  0  0
 29 26  2  0  0  0  0
 30 22  1  1  0  0  0
 30 29  1  0  0  0  0
M  END
>  <MODEL>
5

>  <REMARK>
 VINA RESULT:      -8.3      1.764      2.651
  Name = 
  2 active torsions:
  status: ('A' for Active; 'I' for Inactive)
    1  A    between atoms: C_5  and  C_30
    2  A    between atoms: C_10  and  N_16
                            x       y       z     vdW  Elec       q    Type
                         _______ _______ _______ _____ _____    ______ ____

>  <TORSDO>
F 2

$$$$
=
 OpenBabel11112416473D

 31 35  0  0  1  0  0  0  0  0999 V2000
  190.7680  176.7660  146.7610 C   0  0  0  0  0  0  0  0  0  0  0  0
  188.0190  177.0190  144.1120 C   0  0  0  0  0  0  0  0  0  0  0  0
  186.8810  177.6110  144.7320 C   0  0  0  0  0  0  0  0  0  0  0  0
  185.7930  178.7040  146.6210 C   0  0  0  0  0  0  0  0  0  0  0  0
  189.3570  176.8760  144.7770 C   0  0  0  0  0  0  0  0  0  0  0  0
  191.8900  176.5410  145.9620 C   0  0  0  0  0  3  0  0  0  0  0  0
  186.9230  178.1250  146.0390 C   0  0  0  0  0  3  0  0  0  0  0  0
  189.0600  175.9090  142.0720 C   0  0  2  0  0  3  0  0  0  0  0  0
  190.9010  176.8290  148.1410 O   0  0  0  0  0  1  0  0  0  0  0  0
  185.5780  177.2450  142.7020 C   0  0  0  0  0  3  0  0  0  0  0  0
  185.8640  179.2350  148.0080 C   0  0  0  0  0  1  0  0  0  0  0  0
  190.3800  176.5570  142.4890 C   0  0  0  0  0  2  0  0  0  0  0  0
  187.9020  176.5690  142.7730 C   0  0  0  0  0  0  0  0  0  0  0  0
  189.5120  176.9290  146.1720 C   0  0  0  0  0  3  0  0  0  0  0  0
  184.5990  178.7850  145.9040 C   0  0  0  0  0  3  0  0  0  0  0  0
  190.4980  176.6230  143.9820 C   0  0  0  0  0  0  0  0  0  0  0  0
  191.7550  176.4710  144.5740 C   0  0  0  0  0  3  0  0  0  0  0  0
  186.6900  176.6780  142.0880 C   0  0  0  0  0  3  0  0  0  0  0  0
  185.6630  177.7120  144.0110 C   0  0  0  0  0  0  0  0  0  0  0  0
  184.5350  178.2910  144.6000 C   0  0  0  0  0  3  0  0  0  0  0  0
  190.1830  173.8620  140.4100 O   0  0  0  0  0  0  0  0  0  0  0  0
  189.6220  173.5080  141.4840 C   0  0  0  0  0  0  0  0  0  0  0  0
  189.0920  174.4840  142.3800 N   0  0  0  0  0  2  0  0  0  0  0  0
  191.8310  170.4530  143.0010 C   0  0  1  0  0  3  0  0  0  0  0  0
  189.6600  171.8370  143.3480 C   0  0  0  0  0  2  0  0  0  0  0  0
  190.2140  171.0780  139.7820 O   0  0  0  0  0  0  0  0  0  0  0  0
  193.2810  170.1070  143.2640 C   0  0  0  0  0  1  0  0  0  0  0  0
  191.3940  171.9750  143.8890 S   0  0  0  0  0  0  0  0  0  0  0  0
  190.4460  171.2120  141.0120 C   0  0  0  0  0  0  0  0  0  0  0  0
  189.5160  172.0580  141.8410 C   0  0  2  0  0  3  0  0  0  0  0  0
  191.6200  170.6140  141.5690 N   0  0  0  0  0  2  0  0  0  0  0  0
  1  9  1  0  0  0  0
  2  3  1  0  0  0  0
  2  5  1  0  0  0  0
  3  7  1  0  0  0  0
  4 11  1  0  0  0  0
  5 14  2  0  0  0  0
  6  1  2  0  0  0  0
  7  4  2  0  0  0  0
  8 23  1  1  0  0  0
  8 12  1  0  0  0  0
  8 13  1  0  0  0  0
 10 19  1  0  0  0  0
 12 16  1  0  0  0  0
 13  2  2  0  0  0  0
 14  1  1  0  0  0  0
 15  4  1  0  0  0  0
 16 17  2  0  0  0  0
 16  5  1  0  0  0  0
 17  6  1  0  0  0  0
 18 10  2  0  0  0  0
 18 13  1  0  0  0  0
 19 20  1  0  0  0  0
 19  3  2  0  0  0  0
 20 15  2  0  0  0  0
 21 22  2  0  0  0  0
 22 23  1  0  0  0  0
 24 27  1  6  0  0  0
 24 28  1  0  0  0  0
 25 28  1  0  0  0  0
 26 29  2  0  0  0  0
 29 31  1  0  0  0  0
 29 30  1  0  0  0  0
 30 22  1  1  0  0  0
 30 25  1  0  0  0  0
 31 24  1  0  0  0  0
M  END
>  <MODEL>
6

>  <REMARK>
 VINA RESULT:      -8.2      2.918      5.134
  Name = 
  2 active torsions:
  status: ('A' for Active; 'I' for Inactive)
    1  A    between atoms: C_5  and  C_30
    2  A    between atoms: C_10  and  N_16
                            x       y       z     vdW  Elec       q    Type
                         _______ _______ _______ _____ _____    ______ ____

>  <TORSDO>
F 2

$$$$
=
 OpenBabel11112416473D

 31 35  0  0  1  0  0  0  0  0999 V2000
  187.7700  176.0930  140.7530 C   0  0  0  0  0  0  0  0  0  0  0  0
  188.4630  175.4410  144.4580 C   0  0  0  0  0  0  0  0  0  0  0  0
  187.7480  176.4200  145.2050 C   0  0  0  0  0  0  0  0  0  0  0  0
  186.1560  178.2620  145.3590 C   0  0  0  0  0  0  0  0  0  0  0  0
  188.3410  175.2660  142.9720 C   0  0  0  0  0  0  0  0  0  0  0  0
  188.1930  174.8900  140.1850 C   0  0  0  0  0  3  0  0  0  0  0  0
  186.8480  177.3140  144.6010 C   0  0  0  0  0  3  0  0  0  0  0  0
  190.1190  173.5090  144.4180 C   0  0  2  0  0  3  0  0  0  0  0  0
  187.2710  177.1040  139.9430 O   0  0  0  0  0  1  0  0  0  0  0  0
  188.7810  175.6120  147.2630 C   0  0  0  0  0  3  0  0  0  0  0  0
  185.2150  179.1990  144.6920 C   0  0  0  0  0  1  0  0  0  0  0  0
  189.3260  172.9540  143.2360 C   0  0  0  0  0  2  0  0  0  0  0  0
  189.3150  174.5470  145.1550 C   0  0  0  0  0  0  0  0  0  0  0  0
  187.8470  176.2790  142.1350 C   0  0  0  0  0  3  0  0  0  0  0  0
  186.3490  178.3310  146.7390 C   0  0  0  0  0  3  0  0  0  0  0  0
  188.7890  174.0630  142.3820 C   0  0  0  0  0  0  0  0  0  0  0  0
  188.7010  173.8760  140.9990 C   0  0  0  0  0  3  0  0  0  0  0  0
  189.4710  174.6450  146.5390 C   0  0  0  0  0  3  0  0  0  0  0  0
  187.9240  176.4950  146.6120 C   0  0  0  0  0  0  0  0  0  0  0  0
  187.2300  177.4470  147.3640 C   0  0  0  0  0  3  0  0  0  0  0  0
  192.5480  172.0640  143.9450 O   0  0  0  0  0  0  0  0  0  0  0  0
  192.5640  173.3140  143.7760 C   0  0  0  0  0  0  0  0  0  0  0  0
  191.3730  174.0830  143.9440 N   0  0  0  0  0  2  0  0  0  0  0  0
  194.9420  176.4160  144.8860 C   0  0  1  0  0  3  0  0  0  0  0  0
  194.9130  173.8550  144.4540 C   0  0  0  0  0  2  0  0  0  0  0  0
  192.9470  175.6680  141.9150 O   0  0  0  0  0  0  0  0  0  0  0  0
  194.8840  177.6490  145.7620 C   0  0  0  0  0  1  0  0  0  0  0  0
  194.6080  174.9380  145.8870 S   0  0  0  0  0  0  0  0  0  0  0  0
  193.5760  175.4390  142.9810 C   0  0  0  0  0  0  0  0  0  0  0  0
  193.8300  174.0110  143.3850 C   0  0  2  0  0  3  0  0  0  0  0  0
  193.9710  176.5380  143.8080 N   0  0  0  0  0  2  0  0  0  0  0  0
  1 14  1  0  0  0  0
  2 13  2  0  0  0  0
  2  3  1  0  0  0  0
  3 19  1  0  0  0  0
  4 15  2  0  0  0  0
  5  2  1  0  0  0  0
  6  1  2  0  0  0  0
  6 17  1  0  0  0  0
  7  3  2  0  0  0  0
  7  4  1  0  0  0  0
  8 23  1  6  0  0  0
  8 13  1  0  0  0  0
  9  1  1  0  0  0  0
 11  4  1  0  0  0  0
 12  8  1  0  0  0  0
 13 18  1  0  0  0  0
 14  5  2  0  0  0  0
 15 20  1  0  0  0  0
 16  5  1  0  0  0  0
 16 12  1  0  0  0  0
 17 16  2  0  0  0  0
 18 10  2  0  0  0  0
 19 10  1  0  0  0  0
 19 20  2  0  0  0  0
 22 23  1  0  0  0  0
 22 21  2  0  0  0  0
 24 27  1  1  0  0  0
 24 28  1  0  0  0  0
 25 28  1  0  0  0  0
 26 29  2  0  0  0  0
 29 30  1  0  0  0  0
 29 31  1  0  0  0  0
 30 22  1  1  0  0  0
 30 25  1  0  0  0  0
 31 24  1  0  0  0  0
M  END
>  <MODEL>
7

>  <REMARK>
 VINA RESULT:      -8.2      1.655      1.990
  Name = 
  2 active torsions:
  status: ('A' for Active; 'I' for Inactive)
    1  A    between atoms: C_5  and  C_30
    2  A    between atoms: C_10  and  N_16
                            x       y       z     vdW  Elec       q    Type
                         _______ _______ _______ _____ _____    ______ ____

>  <TORSDO>
F 2

$$$$
=
 OpenBabel11112416473D

 31 35  0  0  1  0  0  0  0  0999 V2000
  185.1370  177.5100  146.7450 C   0  0  0  0  0  0  0  0  0  0  0  0
  186.6940  177.4460  143.2510 C   0  0  0  0  0  0  0  0  0  0  0  0
  185.6530  177.7040  142.3140 C   0  0  0  0  0  0  0  0  0  0  0  0
  183.3560  178.3220  141.7760 C   0  0  0  0  0  0  0  0  0  0  0  0
  186.5220  177.5260  144.7400 C   0  0  0  0  0  0  0  0  0  0  0  0
  186.2760  177.6240  147.5440 C   0  0  0  0  0  3  0  0  0  0  0  0
  184.3580  178.0690  142.7160 C   0  0  0  0  0  3  0  0  0  0  0  0
  189.1200  176.8180  143.6970 C   0  0  2  0  0  3  0  0  0  0  0  0
  183.8810  177.4500  147.3330 O   0  0  0  0  0  1  0  0  0  0  0  0
  187.1990  177.2860  140.4730 C   0  0  0  0  0  3  0  0  0  0  0  0
  181.9920  178.7000  142.2300 C   0  0  0  0  0  1  0  0  0  0  0  0
  189.0350  177.6880  144.9500 C   0  0  0  0  0  2  0  0  0  0  0  0
  187.9850  177.1290  142.7570 C   0  0  0  0  0  0  0  0  0  0  0  0
  185.2610  177.4590  145.3550 C   0  0  0  0  0  3  0  0  0  0  0  0
  183.6340  178.2180  140.4130 C   0  0  0  0  0  3  0  0  0  0  0  0
  187.6680  177.6160  145.5620 C   0  0  0  0  0  0  0  0  0  0  0  0
  187.5400  177.6780  146.9530 C   0  0  0  0  0  3  0  0  0  0  0  0
  188.2220  177.0460  141.3840 C   0  0  0  0  0  3  0  0  0  0  0  0
  185.9230  177.6150  140.9230 C   0  0  0  0  0  0  0  0  0  0  0  0
  184.9160  177.8670  139.9880 C   0  0  0  0  0  3  0  0  0  0  0  0
  190.7080  174.7420  142.5220 O   0  0  0  0  0  0  0  0  0  0  0  0
  189.8750  174.4140  143.4120 C   0  0  0  0  0  0  0  0  0  0  0  0
  189.0940  175.4090  144.0730 N   0  0  0  0  0  2  0  0  0  0  0  0
  191.3170  170.7130  142.5570 C   0  0  1  0  0  3  0  0  0  0  0  0
  190.9550  172.4230  144.4790 C   0  0  0  0  0  2  0  0  0  0  0  0
  188.0530  172.3230  142.2060 O   0  0  0  0  0  0  0  0  0  0  0  0
  192.1340  170.0200  141.4880 C   0  0  0  0  0  1  0  0  0  0  0  0
  192.2790  172.0750  143.2760 S   0  0  0  0  0  0  0  0  0  0  0  0
  189.2210  172.1460  142.6390 C   0  0  0  0  0  0  0  0  0  0  0  0
  189.7030  172.9790  143.7980 C   0  0  2  0  0  3  0  0  0  0  0  0
  190.0770  171.2100  141.9770 N   0  0  0  0  0  2  0  0  0  0  0  0
  1  9  1  0  0  0  0
  1  6  1  0  0  0  0
  2  5  1  0  0  0  0
  3  7  1  0  0  0  0
  3  2  2  0  0  0  0
  4 11  1  0  0  0  0
  4  7  2  0  0  0  0
  5 14  1  0  0  0  0
  5 16  2  0  0  0  0
  8 23  1  1  0  0  0
  8 12  1  0  0  0  0
 10 19  2  0  0  0  0
 10 18  1  0  0  0  0
 12 16  1  0  0  0  0
 13  2  1  0  0  0  0
 13  8  1  0  0  0  0
 14  1  2  0  0  0  0
 15  4  1  0  0  0  0
 16 17  1  0  0  0  0
 17  6  2  0  0  0  0
 18 13  2  0  0  0  0
 19  3  1  0  0  0  0
 20 15  2  0  0  0  0
 20 19  1  0  0  0  0
 21 22  2  0  0  0  0
 22 23  1  0  0  0  0
 24 27  1  6  0  0  0
 24 28  1  0  0  0  0
 26 29  2  0  0  0  0
 28 25  1  0  0  0  0
 29 30  1  0  0  0  0
 30 22  1  6  0  0  0
 30 25  1  0  0  0  0
 31 24  1  0  0  0  0
 31 29  1  0  0  0  0
M  END
>  <MODEL>
8

>  <REMARK>
 VINA RESULT:      -8.2      3.297      5.445
  Name = 
  2 active torsions:
  status: ('A' for Active; 'I' for Inactive)
    1  A    between atoms: C_5  and  C_30
    2  A    between atoms: C_10  and  N_16
                            x       y       z     vdW  Elec       q    Type
                         _______ _______ _______ _____ _____    ______ ____

>  <TORSDO>
F 2

$$$$
=
 OpenBabel11112416473D

 31 35  0  0  1  0  0  0  0  0999 V2000
  189.1970  174.9070  146.9210 C   0  0  0  0  0  0  0  0  0  0  0  0
  188.1280  176.9550  143.8710 C   0  0  0  0  0  0  0  0  0  0  0  0
  187.0290  177.7700  144.2680 C   0  0  0  0  0  0  0  0  0  0  0  0
  185.5240  178.6660  145.9660 C   0  0  0  0  0  0  0  0  0  0  0  0
  188.9270  176.1070  144.8170 C   0  0  0  0  0  0  0  0  0  0  0  0
  190.4580  174.4660  146.5190 C   0  0  0  0  0  3  0  0  0  0  0  0
  186.6020  177.8540  145.6030 C   0  0  0  0  0  3  0  0  0  0  0  0
  189.6570  176.1040  142.0230 C   0  0  2  0  0  3  0  0  0  0  0  0
  188.6970  174.5410  148.1630 O   0  0  0  0  0  1  0  0  0  0  0  0
  186.7490  178.5220  141.9630 C   0  0  0  0  0  3  0  0  0  0  0  0
  185.0900  178.7310  147.3860 C   0  0  0  0  0  1  0  0  0  0  0  0
  190.7580  176.0200  143.0790 C   0  0  0  0  0  2  0  0  0  0  0  0
  188.5210  176.9660  142.5090 C   0  0  0  0  0  0  0  0  0  0  0  0
  188.4370  175.7190  146.0750 C   0  0  0  0  0  3  0  0  0  0  0  0
  184.8550  179.4140  144.9970 C   0  0  0  0  0  3  0  0  0  0  0  0
  190.1950  175.6330  144.4130 C   0  0  0  0  0  0  0  0  0  0  0  0
  190.9570  174.8300  145.2670 C   0  0  0  0  0  3  0  0  0  0  0  0
  187.8290  177.7380  141.5730 C   0  0  0  0  0  3  0  0  0  0  0  0
  186.3460  178.5470  143.2960 C   0  0  0  0  0  0  0  0  0  0  0  0
  185.2670  179.3560  143.6640 C   0  0  0  0  0  3  0  0  0  0  0  0
  191.0300  174.1660  140.4200 O   0  0  0  0  0  0  0  0  0  0  0  0
  189.8860  173.8630  140.8590 C   0  0  0  0  0  0  0  0  0  0  0  0
  189.1750  174.7640  141.7070 N   0  0  0  0  0  2  0  0  0  0  0  0
  190.6480  170.4530  138.7870 C   0  0  1  0  0  3  0  0  0  0  0  0
  190.0230  171.3780  141.1320 C   0  0  0  0  0  2  0  0  0  0  0  0
  188.1910  173.1400  138.4600 O   0  0  0  0  0  0  0  0  0  0  0  0
  191.6130  169.9390  137.7390 C   0  0  0  0  0  1  0  0  0  0  0  0
  191.5730  171.0280  140.2400 S   0  0  0  0  0  0  0  0  0  0  0  0
  189.0520  172.4140  139.0220 C   0  0  0  0  0  0  0  0  0  0  0  0
  189.2620  172.5490  140.5070 C   0  0  2  0  0  3  0  0  0  0  0  0
  189.8490  171.5330  138.2250 N   0  0  0  0  0  2  0  0  0  0  0  0
  1  9  1  0  0  0  0
  2  3  1  0  0  0  0
  2  5  1  0  0  0  0
  3  7  1  0  0  0  0
  4 11  1  0  0  0  0
  5 14  1  0  0  0  0
  6  1  1  0  0  0  0
  7  4  2  0  0  0  0
  8 23  1  1  0  0  0
  8 13  1  0  0  0  0
  8 12  1  0  0  0  0
 10 19  1  0  0  0  0
 12 16  1  0  0  0  0
 13  2  2  0  0  0  0
 14  1  2  0  0  0  0
 15  4  1  0  0  0  0
 16  5  2  0  0  0  0
 16 17  1  0  0  0  0
 17  6  2  0  0  0  0
 18 10  2  0  0  0  0
 18 13  1  0  0  0  0
 19 20  1  0  0  0  0
 19  3  2  0  0  0  0
 20 15  2  0  0  0  0
 21 22  2  0  0  0  0
 22 23  1  0  0  0  0
 24 27  1  6  0  0  0
 24 28  1  0  0  0  0
 26 29  2  0  0  0  0
 28 25  1  0  0  0  0
 29 30  1  0  0  0  0
 30 22  1  6  0  0  0
 30 25  1  0  0  0  0
 31 24  1  0  0  0  0
 31 29  1  0  0  0  0
M  END
>  <MODEL>
9

>  <REMARK>
 VINA RESULT:      -8.1      3.275      5.674
  Name = 
  2 active torsions:
  status: ('A' for Active; 'I' for Inactive)
    1  A    between atoms: C_5  and  C_30
    2  A    between atoms: C_10  and  N_16
                            x       y       z     vdW  Elec       q    Type
                         _______ _______ _______ _____ _____    ______ ____

>  <TORSDO>
F 2

$$$$
