=
 OpenBabel11112416553D

 31 35  0  0  1  0  0  0  0  0999 V2000
  184.8400  178.3290  146.7530 C   0  0  0  0  0  0  0  0  0  0  0  0
  187.3500  175.9510  145.2990 C   0  0  2  0  0  3  0  0  0  0  0  0
  187.4200  176.3130  143.8220 C   0  0  0  0  0  0  0  0  0  0  0  0
  186.3620  177.2750  141.8500 C   0  0  0  0  0  0  0  0  0  0  0  0
  186.7580  177.0530  146.1500 C   0  0  0  0  0  0  0  0  0  0  0  0
  185.6050  179.1240  147.6070 C   0  0  0  0  0  3  0  0  0  0  0  0
  186.3550  177.0030  143.2190 C   0  0  0  0  0  3  0  0  0  0  0  0
  189.6220  176.6310  146.1810 C   0  0  2  0  0  3  0  0  0  0  0  0
  183.5130  178.5620  146.6200 F   0  0  0  0  0  0  0  0  0  0  0  0
  189.6540  175.1070  143.5680 C   0  0  0  0  0  2  0  0  0  0  0  0
  185.0330  178.1550  141.1280 Cl  0  0  0  0  0  0  0  0  0  0  0  0
  189.0020  177.5080  147.2670 C   0  0  0  0  0  2  0  0  0  0  0  0
  188.6920  175.4490  145.8670 C   0  0  2  0  0  3  0  0  0  0  0  0
  185.4260  177.3210  146.0540 N   0  0  0  0  0  0  0  0  0  0  0  0
  187.4250  176.8430  141.0580 C   0  0  0  0  0  3  0  0  0  0  0  0
  187.5630  177.8370  147.0050 C   0  0  0  0  0  0  0  0  0  0  0  0
  186.9700  178.8670  147.7370 C   0  0  0  0  0  3  0  0  0  0  0  0
  189.3260  174.4460  144.9040 C   0  0  0  0  0  2  0  0  0  0  0  0
  188.4760  175.8430  143.0020 C   0  0  0  0  0  0  0  0  0  0  0  0
  188.4780  176.1300  141.6330 C   0  0  0  0  0  3  0  0  0  0  0  0
  192.1190  177.0990  144.8720 O   0  0  0  0  0  0  0  0  0  0  0  0
  192.1340  176.4210  145.9320 C   0  0  0  0  0  0  0  0  0  0  0  0
  190.9180  176.1470  146.6330 N   0  0  0  0  0  2  0  0  0  0  0  0
  195.6220  176.2560  144.4750 C   0  0  1  0  0  3  0  0  0  0  0  0
  194.4860  176.9910  146.5900 C   0  0  0  0  0  2  0  0  0  0  0  0
  192.9970  173.5970  145.4120 C   0  0  0  0  0  1  0  0  0  0  0  0
  196.1010  176.6890  143.2400 O   0  0  0  0  0  1  0  0  0  0  0  0
  195.0320  177.4420  145.2350 C   0  0  0  0  0  2  0  0  0  0  0  0
  194.0090  174.7130  145.6050 C   0  0  2  0  0  3  0  0  0  0  0  0
  193.4430  175.8790  146.4360 C   0  0  2  0  0  3  0  0  0  0  0  0
  194.5600  175.1820  144.2590 C   0  0  0  0  0  2  0  0  0  0  0  0
  1  6  1  0  0  0  0
  2  3  1  6  0  0  0
  2 13  1  0  0  0  0
  2  5  1  0  0  0  0
  4  7  2  0  0  0  0
  5 16  2  0  0  0  0
  6 17  2  0  0  0  0
  7  3  1  0  0  0  0
  8 23  1  1  0  0  0
  8 12  1  0  0  0  0
  9  1  1  0  0  0  0
 10 18  1  0  0  0  0
 11  4  1  0  0  0  0
 13 18  1  6  0  0  0
 13  8  1  0  0  0  0
 14  5  1  0  0  0  0
 14  1  2  0  0  0  0
 15 20  2  0  0  0  0
 15  4  1  0  0  0  0
 16 12  1  0  0  0  0
 16 17  1  0  0  0  0
 19 10  1  0  0  0  0
 19  3  2  0  0  0  0
 20 19  1  0  0  0  0
 21 22  2  0  0  0  0
 22 23  1  0  0  0  0
 24 27  1  6  0  0  0
 24 28  1  0  0  0  0
 28 25  1  0  0  0  0
 29 26  1  6  0  0  0
 29 30  1  0  0  0  0
 30 22  1  6  0  0  0
 30 25  1  0  0  0  0
 31 24  1  0  0  0  0
 31 29  1  0  0  0  0
M  END
>  <MODEL>
1

>  <REMARK>
 VINA RESULT:      -9.1      0.000      0.000
  Name = 
  2 active torsions:
  status: ('A' for Active; 'I' for Inactive)
    1  A    between atoms: C_5  and  C_30
    2  A    between atoms: C_10  and  N_16
                            x       y       z     vdW  Elec       q    Type
                         _______ _______ _______ _____ _____    ______ ____

>  <TORSDO>
F 2

$$$$
=
 OpenBabel11112416553D

 31 35  0  0  1  0  0  0  0  0999 V2000
  184.8930  177.7430  146.7190 C   0  0  0  0  0  0  0  0  0  0  0  0
  187.1910  175.9330  144.3710 C   0  0  2  0  0  3  0  0  0  0  0  0
  186.9170  176.5480  143.0060 C   0  0  0  0  0  0  0  0  0  0  0  0
  185.3970  177.7140  141.5030 C   0  0  0  0  0  0  0  0  0  0  0  0
  186.7200  176.8020  145.5170 C   0  0  0  0  0  0  0  0  0  0  0  0
  185.7660  178.4570  147.5400 C   0  0  0  0  0  3  0  0  0  0  0  0
  185.7030  177.2120  142.7680 C   0  0  0  0  0  3  0  0  0  0  0  0
  189.5460  176.6920  144.8980 C   0  0  2  0  0  3  0  0  0  0  0  0
  183.5550  177.8510  146.8980 F   0  0  0  0  0  0  0  0  0  0  0  0
  189.1230  175.6510  142.0900 C   0  0  0  0  0  2  0  0  0  0  0  0
  183.8860  178.5570  141.2390 Cl  0  0  0  0  0  0  0  0  0  0  0  0
  189.1150  177.2980  146.2320 C   0  0  0  0  0  2  0  0  0  0  0  0
  188.6550  175.4880  144.5560 C   0  0  2  0  0  3  0  0  0  0  0  0
  185.3830  176.9390  145.7390 N   0  0  0  0  0  0  0  0  0  0  0  0
  186.2920  177.5410  140.4480 C   0  0  0  0  0  3  0  0  0  0  0  0
  187.6330  177.5100  146.3280 C   0  0  0  0  0  0  0  0  0  0  0  0
  187.1410  178.3300  147.3450 C   0  0  0  0  0  3  0  0  0  0  0  0
  189.1360  174.7390  143.3140 C   0  0  0  0  0  2  0  0  0  0  0  0
  187.8020  176.3420  141.9190 C   0  0  0  0  0  0  0  0  0  0  0  0
  187.4920  176.8580  140.6570 C   0  0  0  0  0  3  0  0  0  0  0  0
  191.7620  178.0720  143.7350 O   0  0  0  0  0  0  0  0  0  0  0  0
  192.0040  177.0190  144.3810 C   0  0  0  0  0  0  0  0  0  0  0  0
  190.9390  176.2790  144.9840 N   0  0  0  0  0  2  0  0  0  0  0  0
  193.5700  173.6030  144.8160 C   0  0  1  0  0  3  0  0  0  0  0  0
  193.7880  175.6090  143.3220 C   0  0  0  0  0  2  0  0  0  0  0  0
  193.4070  176.7600  147.0180 C   0  0  0  0  0  1  0  0  0  0  0  0
  192.9730  172.3510  144.9480 O   0  0  0  0  0  1  0  0  0  0  0  0
  193.1550  174.2260  143.4860 C   0  0  0  0  0  2  0  0  0  0  0  0
  193.7720  175.8790  145.8360 C   0  0  2  0  0  3  0  0  0  0  0  0
  193.4240  176.5360  144.4870 C   0  0  2  0  0  3  0  0  0  0  0  0
  193.1410  174.4950  145.9780 C   0  0  0  0  0  2  0  0  0  0  0  0
  1  9  1  0  0  0  0
  1  6  1  0  0  0  0
  2  3  1  6  0  0  0
  2 13  1  0  0  0  0
  2  5  1  0  0  0  0
  4  7  2  0  0  0  0
  5 14  1  0  0  0  0
  5 16  2  0  0  0  0
  7  3  1  0  0  0  0
  8 23  1  1  0  0  0
  8 12  1  0  0  0  0
 10 18  1  0  0  0  0
 11  4  1  0  0  0  0
 12 16  1  0  0  0  0
 13 18  1  6  0  0  0
 13  8  1  0  0  0  0
 14  1  2  0  0  0  0
 15 20  2  0  0  0  0
 15  4  1  0  0  0  0
 16 17  1  0  0  0  0
 17  6  2  0  0  0  0
 19 10  1  0  0  0  0
 19  3  2  0  0  0  0
 20 19  1  0  0  0  0
 21 22  2  0  0  0  0
 22 23  1  0  0  0  0
 24 27  1  1  0  0  0
 24 31  1  0  0  0  0
 25 28  1  0  0  0  0
 25 30  1  0  0  0  0
 28 24  1  0  0  0  0
 29 31  1  0  0  0  0
 29 26  1  1  0  0  0
 30 22  1  1  0  0  0
 30 29  1  0  0  0  0
M  END
>  <MODEL>
2

>  <REMARK>
 VINA RESULT:      -9.0      1.373      2.044
  Name = 
  2 active torsions:
  status: ('A' for Active; 'I' for Inactive)
    1  A    between atoms: C_5  and  C_30
    2  A    between atoms: C_10  and  N_16
                            x       y       z     vdW  Elec       q    Type
                         _______ _______ _______ _____ _____    ______ ____

>  <TORSDO>
F 2

$$$$
=
 OpenBabel11112416553D

 31 35  0  0  1  0  0  0  0  0999 V2000
  194.4160  176.4150  145.1070 C   0  0  0  0  0  0  0  0  0  0  0  0
  191.0620  177.0160  143.5390 C   0  0  2  0  0  3  0  0  0  0  0  0
  190.8050  175.7840  142.6820 C   0  0  0  0  0  0  0  0  0  0  0  0
  191.6790  173.8980  141.4140 C   0  0  0  0  0  0  0  0  0  0  0  0
  192.1210  176.7920  144.5960 C   0  0  0  0  0  0  0  0  0  0  0  0
  194.1190  176.2810  146.4640 C   0  0  0  0  0  3  0  0  0  0  0  0
  191.8820  174.9860  142.2640 C   0  0  0  0  0  3  0  0  0  0  0  0
  189.3330  176.8280  145.3760 C   0  0  2  0  0  3  0  0  0  0  0  0
  195.6940  176.2930  144.6790 F   0  0  0  0  0  0  0  0  0  0  0  0
  188.3080  176.2980  142.5800 C   0  0  0  0  0  2  0  0  0  0  0  0
  193.0370  172.9070  140.9240 Cl  0  0  0  0  0  0  0  0  0  0  0  0
  190.3970  176.9270  146.4680 C   0  0  0  0  0  2  0  0  0  0  0  0
  189.7760  177.6200  144.1380 C   0  0  2  0  0  3  0  0  0  0  0  0
  193.4220  176.6670  144.2140 N   0  0  0  0  0  0  0  0  0  0  0  0
  190.3970  173.6030  140.9510 C   0  0  0  0  0  3  0  0  0  0  0  0
  191.7830  176.6620  145.9610 C   0  0  0  0  0  0  0  0  0  0  0  0
  192.7970  176.4150  146.8880 C   0  0  0  0  0  3  0  0  0  0  0  0
  188.6850  177.6940  143.0690 C   0  0  0  0  0  2  0  0  0  0  0  0
  189.5120  175.5010  142.1750 C   0  0  0  0  0  0  0  0  0  0  0  0
  189.3180  174.4020  141.3320 C   0  0  0  0  0  3  0  0  0  0  0  0
  187.6870  175.5670  147.3440 O   0  0  0  0  0  0  0  0  0  0  0  0
  187.2960  176.6690  146.8740 C   0  0  0  0  0  0  0  0  0  0  0  0
  188.0720  177.3480  145.8830 N   0  0  0  0  0  2  0  0  0  0  0  0
  184.8510  179.1490  145.3980 C   0  0  1  0  0  3  0  0  0  0  0  0
  184.8370  176.8560  146.4190 C   0  0  0  0  0  2  0  0  0  0  0  0
  187.1600  179.1960  148.4800 C   0  0  0  0  0  1  0  0  0  0  0  0
  184.9000  179.8510  144.1950 O   0  0  0  0  0  1  0  0  0  0  0  0
  184.8760  177.6500  145.1130 C   0  0  0  0  0  2  0  0  0  0  0  0
  186.0160  178.7670  147.5790 C   0  0  2  0  0  3  0  0  0  0  0  0
  185.9910  177.2450  147.3490 C   0  0  2  0  0  3  0  0  0  0  0  0
  186.0430  179.5450  146.2640 C   0  0  0  0  0  2  0  0  0  0  0  0
  1  6  1  0  0  0  0
  2  3  1  1  0  0  0
  2 13  1  0  0  0  0
  2  5  1  0  0  0  0
  4  7  2  0  0  0  0
  5 16  2  0  0  0  0
  6 17  2  0  0  0  0
  7  3  1  0  0  0  0
  8 23  1  1  0  0  0
  8 12  1  0  0  0  0
  9  1  1  0  0  0  0
 10 18  1  0  0  0  0
 11  4  1  0  0  0  0
 13 18  1  6  0  0  0
 13  8  1  0  0  0  0
 14  5  1  0  0  0  0
 14  1  2  0  0  0  0
 15 20  2  0  0  0  0
 15  4  1  0  0  0  0
 16 12  1  0  0  0  0
 16 17  1  0  0  0  0
 19 10  1  0  0  0  0
 19  3  2  0  0  0  0
 20 19  1  0  0  0  0
 22 21  2  0  0  0  0
 23 22  1  0  0  0  0
 24 27  1  6  0  0  0
 24 31  1  0  0  0  0
 25 30  1  0  0  0  0
 28 24  1  0  0  0  0
 28 25  1  0  0  0  0
 29 26  1  1  0  0  0
 30 22  1  6  0  0  0
 30 29  1  0  0  0  0
 31 29  1  0  0  0  0
M  END
>  <MODEL>
3

>  <REMARK>
 VINA RESULT:      -9.0      3.780      7.150
  Name = 
  2 active torsions:
  status: ('A' for Active; 'I' for Inactive)
    1  A    between atoms: C_5  and  C_30
    2  A    between atoms: C_10  and  N_16
                            x       y       z     vdW  Elec       q    Type
                         _______ _______ _______ _____ _____    ______ ____

>  <TORSDO>
F 2

$$$$
=
 OpenBabel11112416553D

 31 35  0  0  1  0  0  0  0  0999 V2000
  186.2140  178.1180  140.7870 C   0  0  0  0  0  0  0  0  0  0  0  0
  188.5600  177.9340  143.7080 C   0  0  2  0  0  3  0  0  0  0  0  0
  187.6590  177.7690  144.9230 C   0  0  0  0  0  0  0  0  0  0  0  0
  185.4870  178.0940  145.9780 C   0  0  0  0  0  0  0  0  0  0  0  0
  187.8720  177.5780  142.4080 C   0  0  0  0  0  0  0  0  0  0  0  0
  186.4900  176.9500  140.0770 C   0  0  0  0  0  3  0  0  0  0  0  0
  186.3120  178.1620  144.8540 C   0  0  0  0  0  3  0  0  0  0  0  0
  189.7630  175.7130  143.5610 C   0  0  2  0  0  3  0  0  0  0  0  0
  185.2560  178.9680  140.3470 F   0  0  0  0  0  0  0  0  0  0  0  0
  189.6070  176.9160  146.3310 C   0  0  0  0  0  2  0  0  0  0  0  0
  183.8070  178.5690  145.8580 Cl  0  0  0  0  0  0  0  0  0  0  0  0
  189.3250  175.5050  142.1120 C   0  0  0  0  0  2  0  0  0  0  0  0
  189.9150  177.2130  143.8530 C   0  0  2  0  0  3  0  0  0  0  0  0
  186.9050  178.4050  141.9230 N   0  0  0  0  0  0  0  0  0  0  0  0
  186.0030  177.6520  147.1950 C   0  0  0  0  0  3  0  0  0  0  0  0
  188.1780  176.3870  141.7150 C   0  0  0  0  0  0  0  0  0  0  0  0
  187.4830  176.0880  140.5420 C   0  0  0  0  0  3  0  0  0  0  0  0
  190.5070  177.4830  145.2360 C   0  0  0  0  0  2  0  0  0  0  0  0
  188.1830  177.3600  146.1740 C   0  0  0  0  0  0  0  0  0  0  0  0
  187.3460  177.2850  147.2920 C   0  0  0  0  0  3  0  0  0  0  0  0
  190.1350  173.4300  145.2400 O   0  0  0  0  0  0  0  0  0  0  0  0
  191.1440  173.8820  144.6370 C   0  0  0  0  0  0  0  0  0  0  0  0
  191.0260  175.0250  143.7860 N   0  0  0  0  0  2  0  0  0  0  0  0
  194.7170  174.9780  144.0470 C   0  0  1  0  0  3  0  0  0  0  0  0
  193.3210  173.9790  145.8790 C   0  0  0  0  0  2  0  0  0  0  0  0
  192.4730  172.2590  142.4960 C   0  0  0  0  0  1  0  0  0  0  0  0
  195.2170  176.1710  143.5290 O   0  0  0  0  0  1  0  0  0  0  0  0
  193.8930  175.2730  145.2980 C   0  0  0  0  0  2  0  0  0  0  0  0
  193.2810  172.9890  143.5530 C   0  0  2  0  0  3  0  0  0  0  0  0
  192.4790  173.2220  144.8470 C   0  0  2  0  0  3  0  0  0  0  0  0
  193.8550  174.2900  142.9930 C   0  0  0  0  0  2  0  0  0  0  0  0
  1 14  1  0  0  0  0
  2  5  1  6  0  0  0
  2 13  1  0  0  0  0
  2  3  1  0  0  0  0
  3 19  1  0  0  0  0
  4 15  2  0  0  0  0
  6 17  1  0  0  0  0
  6  1  2  0  0  0  0
  7  3  2  0  0  0  0
  7  4  1  0  0  0  0
  8 23  1  6  0  0  0
  8 13  1  0  0  0  0
  9  1  1  0  0  0  0
 11  4  1  0  0  0  0
 12  8  1  0  0  0  0
 13 18  1  1  0  0  0
 14  5  2  0  0  0  0
 15 20  1  0  0  0  0
 16 12  1  0  0  0  0
 16  5  1  0  0  0  0
 17 16  2  0  0  0  0
 18 10  1  0  0  0  0
 19 10  1  0  0  0  0
 19 20  2  0  0  0  0
 22 21  2  0  0  0  0
 23 22  1  0  0  0  0
 24 27  1  6  0  0  0
 24 28  1  0  0  0  0
 28 25  1  0  0  0  0
 29 26  1  6  0  0  0
 29 30  1  0  0  0  0
 30 22  1  6  0  0  0
 30 25  1  0  0  0  0
 31 29  1  0  0  0  0
 31 24  1  0  0  0  0
M  END
>  <MODEL>
4

>  <REMARK>
 VINA RESULT:      -8.8      2.332      4.291
  Name = 
  2 active torsions:
  status: ('A' for Active; 'I' for Inactive)
    1  A    between atoms: C_5  and  C_30
    2  A    between atoms: C_10  and  N_16
                            x       y       z     vdW  Elec       q    Type
                         _______ _______ _______ _____ _____    ______ ____

>  <TORSDO>
F 2

$$$$
=
 OpenBabel11112416553D

 31 35  0  0  1  0  0  0  0  0999 V2000
  192.1590  173.3200  141.4930 C   0  0  0  0  0  0  0  0  0  0  0  0
  191.4430  174.1800  145.0740 C   0  0  2  0  0  3  0  0  0  0  0  0
  192.4810  175.2330  145.4370 C   0  0  0  0  0  0  0  0  0  0  0  0
  194.6650  176.2390  145.0520 C   0  0  0  0  0  0  0  0  0  0  0  0
  191.2550  174.0250  143.5800 C   0  0  0  0  0  0  0  0  0  0  0  0
  191.0330  173.7890  140.8170 C   0  0  0  0  0  3  0  0  0  0  0  0
  193.6650  175.3350  144.6900 C   0  0  0  0  0  3  0  0  0  0  0  0
  189.2630  175.4610  145.1130 C   0  0  2  0  0  3  0  0  0  0  0  0
  193.1710  172.7410  140.8040 F   0  0  0  0  0  0  0  0  0  0  0  0
  191.1080  175.9800  147.4530 C   0  0  0  0  0  2  0  0  0  0  0  0
  196.1220  176.3620  144.0910 Cl  0  0  0  0  0  0  0  0  0  0  0  0
  188.9160  175.0300  143.6890 C   0  0  0  0  0  2  0  0  0  0  0  0
  190.0990  174.3730  145.8020 C   0  0  2  0  0  3  0  0  0  0  0  0
  192.2440  173.4440  142.8450 N   0  0  0  0  0  0  0  0  0  0  0  0
  194.5040  177.0410  146.1820 C   0  0  0  0  0  3  0  0  0  0  0  0
  190.1010  174.5110  142.9290 C   0  0  0  0  0  0  0  0  0  0  0  0
  189.9980  174.3780  141.5430 C   0  0  0  0  0  3  0  0  0  0  0  0
  190.3420  174.6710  147.2810 C   0  0  0  0  0  2  0  0  0  0  0  0
  192.3440  176.0230  146.6050 C   0  0  0  0  0  0  0  0  0  0  0  0
  193.3470  176.9330  146.9540 C   0  0  0  0  0  3  0  0  0  0  0  0
  188.4980  177.9450  146.3030 O   0  0  0  0  0  0  0  0  0  0  0  0
  187.7080  176.9720  146.4250 C   0  0  0  0  0  0  0  0  0  0  0  0
  188.0350  175.7000  145.8560 N   0  0  0  0  0  2  0  0  0  0  0  0
  184.5080  178.8770  145.7610 C   0  0  1  0  0  3  0  0  0  0  0  0
  185.2330  176.5730  146.4460 C   0  0  0  0  0  2  0  0  0  0  0  0
  187.3300  179.2310  148.3590 C   0  0  0  0  0  1  0  0  0  0  0  0
  184.1450  179.6720  144.6760 O   0  0  0  0  0  1  0  0  0  0  0  0
  184.8170  177.4640  145.2750 C   0  0  0  0  0  2  0  0  0  0  0  0
  186.1550  178.6090  147.6260 C   0  0  2  0  0  3  0  0  0  0  0  0
  186.4330  177.1560  147.1990 C   0  0  2  0  0  3  0  0  0  0  0  0
  185.7300  179.4820  146.4460 C   0  0  0  0  0  2  0  0  0  0  0  0
  1 14  1  0  0  0  0
  2  5  1  6  0  0  0
  2  3  1  0  0  0  0
  2 13  1  0  0  0  0
  3 19  1  0  0  0  0
  4 15  2  0  0  0  0
  6  1  2  0  0  0  0
  6 17  1  0  0  0  0
  7  4  1  0  0  0  0
  7  3  2  0  0  0  0
  8 13  1  0  0  0  0
  8 23  1  1  0  0  0
  9  1  1  0  0  0  0
 11  4  1  0  0  0  0
 12  8  1  0  0  0  0
 13 18  1  1  0  0  0
 14  5  2  0  0  0  0
 15 20  1  0  0  0  0
 16  5  1  0  0  0  0
 16 12  1  0  0  0  0
 17 16  2  0  0  0  0
 18 10  1  0  0  0  0
 19 20  2  0  0  0  0
 19 10  1  0  0  0  0
 21 22  2  0  0  0  0
 23 22  1  0  0  0  0
 24 27  1  6  0  0  0
 24 31  1  0  0  0  0
 25 30  1  0  0  0  0
 28 24  1  0  0  0  0
 28 25  1  0  0  0  0
 29 26  1  6  0  0  0
 30 22  1  6  0  0  0
 30 29  1  0  0  0  0
 31 29  1  0  0  0  0
M  END
>  <MODEL>
5

>  <REMARK>
 VINA RESULT:      -8.0      3.942      7.906
  Name = 
  2 active torsions:
  status: ('A' for Active; 'I' for Inactive)
    1  A    between atoms: C_5  and  C_30
    2  A    between atoms: C_10  and  N_16
                            x       y       z     vdW  Elec       q    Type
                         _______ _______ _______ _____ _____    ______ ____

>  <TORSDO>
F 2

$$$$
=
 OpenBabel11112416553D

 31 35  0  0  1  0  0  0  0  0999 V2000
  187.0680  176.2970  139.1450 C   0  0  0  0  0  0  0  0  0  0  0  0
  188.3530  177.5610  142.4350 C   0  0  2  0  0  3  0  0  0  0  0  0
  187.1100  177.7480  143.2930 C   0  0  0  0  0  0  0  0  0  0  0  0
  184.7110  178.1450  143.4460 C   0  0  0  0  0  0  0  0  0  0  0  0
  188.1230  176.6470  141.2510 C   0  0  0  0  0  0  0  0  0  0  0  0
  187.5690  174.9970  139.0800 C   0  0  0  0  0  3  0  0  0  0  0  0
  185.8530  177.8940  142.6830 C   0  0  0  0  0  3  0  0  0  0  0  0
  189.5600  175.6400  143.5540 C   0  0  2  0  0  3  0  0  0  0  0  0
  186.2950  176.7750  138.1410 F   0  0  0  0  0  0  0  0  0  0  0  0
  188.5100  177.7710  145.4260 C   0  0  0  0  0  2  0  0  0  0  0  0
  183.1540  178.3020  142.6620 Cl  0  0  0  0  0  0  0  0  0  0  0  0
  189.6120  174.8390  142.2540 C   0  0  0  0  0  2  0  0  0  0  0  0
  189.5950  177.1440  143.2450 C   0  0  2  0  0  3  0  0  0  0  0  0
  187.3540  177.0860  140.2150 N   0  0  0  0  0  0  0  0  0  0  0  0
  184.8120  178.2740  144.8310 C   0  0  0  0  0  3  0  0  0  0  0  0
  188.6460  175.3370  141.2190 C   0  0  0  0  0  0  0  0  0  0  0  0
  188.3680  174.5220  140.1200 C   0  0  0  0  0  3  0  0  0  0  0  0
  189.7080  177.9980  144.5080 C   0  0  0  0  0  2  0  0  0  0  0  0
  187.2080  177.9200  144.6960 C   0  0  0  0  0  0  0  0  0  0  0  0
  186.0560  178.1610  145.4530 C   0  0  0  0  0  3  0  0  0  0  0  0
  189.3890  174.2990  146.0720 O   0  0  0  0  0  0  0  0  0  0  0  0
  190.5360  174.5950  145.6450 C   0  0  0  0  0  0  0  0  0  0  0  0
  190.6890  175.2700  144.3930 N   0  0  0  0  0  2  0  0  0  0  0  0
  193.9350  176.1930  146.0970 C   0  0  1  0  0  3  0  0  0  0  0  0
  192.0360  175.3500  147.5070 C   0  0  0  0  0  2  0  0  0  0  0  0
  192.7410  172.8420  144.6200 C   0  0  0  0  0  1  0  0  0  0  0  0
  194.4820  177.3260  145.4980 O   0  0  0  0  0  1  0  0  0  0  0  0
  192.6650  176.5800  146.8500 C   0  0  0  0  0  2  0  0  0  0  0  0
  193.0000  173.9130  145.6650 C   0  0  2  0  0  3  0  0  0  0  0  0
  191.7380  174.2530  146.4800 C   0  0  2  0  0  3  0  0  0  0  0  0
  193.6210  175.1540  145.0250 C   0  0  0  0  0  2  0  0  0  0  0  0
  1 14  1  0  0  0  0
  2  5  1  6  0  0  0
  2 13  1  0  0  0  0
  2  3  1  0  0  0  0
  3 19  1  0  0  0  0
  4 15  2  0  0  0  0
  6  1  2  0  0  0  0
  6 17  1  0  0  0  0
  7  3  2  0  0  0  0
  7  4  1  0  0  0  0
  8 23  1  1  0  0  0
  9  1  1  0  0  0  0
 11  4  1  0  0  0  0
 12  8  1  0  0  0  0
 13  8  1  0  0  0  0
 13 18  1  1  0  0  0
 14  5  2  0  0  0  0
 15 20  1  0  0  0  0
 16  5  1  0  0  0  0
 16 12  1  0  0  0  0
 17 16  2  0  0  0  0
 18 10  1  0  0  0  0
 19 10  1  0  0  0  0
 19 20  2  0  0  0  0
 22 21  2  0  0  0  0
 23 22  1  0  0  0  0
 24 27  1  6  0  0  0
 24 28  1  0  0  0  0
 28 25  1  0  0  0  0
 29 26  1  6  0  0  0
 29 30  1  0  0  0  0
 30 22  1  6  0  0  0
 30 25  1  0  0  0  0
 31 29  1  0  0  0  0
 31 24  1  0  0  0  0
M  END
>  <MODEL>
6

>  <REMARK>
 VINA RESULT:      -7.9      2.641      4.605
  Name = 
  2 active torsions:
  status: ('A' for Active; 'I' for Inactive)
    1  A    between atoms: C_5  and  C_30
    2  A    between atoms: C_10  and  N_16
                            x       y       z     vdW  Elec       q    Type
                         _______ _______ _______ _____ _____    ______ ____

>  <TORSDO>
F 2

$$$$
=
 OpenBabel11112416553D

 31 35  0  0  1  0  0  0  0  0999 V2000
  193.2040  172.6200  140.7670 C   0  0  0  0  0  0  0  0  0  0  0  0
  191.3340  173.5380  143.8870 C   0  0  2  0  0  3  0  0  0  0  0  0
  192.2030  174.5860  144.5690 C   0  0  0  0  0  0  0  0  0  0  0  0
  194.4030  175.5640  144.9340 C   0  0  0  0  0  0  0  0  0  0  0  0
  191.6580  173.3640  142.4190 C   0  0  0  0  0  0  0  0  0  0  0  0
  192.3790  173.0900  139.7450 C   0  0  0  0  0  3  0  0  0  0  0  0
  193.5710  174.6650  144.2640 C   0  0  0  0  0  3  0  0  0  0  0  0
  189.2870  174.8430  143.1740 C   0  0  2  0  0  3  0  0  0  0  0  0
  194.3800  172.0200  140.4660 F   0  0  0  0  0  0  0  0  0  0  0  0
  190.2400  175.3760  145.9940 C   0  0  0  0  0  2  0  0  0  0  0  0
  196.1010  175.6580  144.5200 Cl  0  0  0  0  0  0  0  0  0  0  0  0
  189.4350  174.3950  141.7210 C   0  0  0  0  0  2  0  0  0  0  0  0
  189.8250  173.7550  144.1160 C   0  0  2  0  0  3  0  0  0  0  0  0
  192.8290  172.7630  142.0660 N   0  0  0  0  0  0  0  0  0  0  0  0
  193.8820  176.3830  145.9340 C   0  0  0  0  0  3  0  0  0  0  0  0
  190.7990  173.8520  141.4110 C   0  0  0  0  0  0  0  0  0  0  0  0
  191.1680  173.7000  140.0740 C   0  0  0  0  0  3  0  0  0  0  0  0
  189.5590  174.0720  145.5870 C   0  0  0  0  0  2  0  0  0  0  0  0
  191.6910  175.3940  145.6140 C   0  0  0  0  0  0  0  0  0  0  0  0
  192.5300  176.2990  146.2720 C   0  0  0  0  0  3  0  0  0  0  0  0
  188.1750  177.3890  143.8430 O   0  0  0  0  0  0  0  0  0  0  0  0
  187.3890  176.4070  143.7820 C   0  0  0  0  0  0  0  0  0  0  0  0
  187.8830  175.1050  143.4570 N   0  0  0  0  0  2  0  0  0  0  0  0
  185.2240  179.4840  144.1790 C   0  0  1  0  0  3  0  0  0  0  0  0
  185.2140  177.3110  142.9200 C   0  0  0  0  0  2  0  0  0  0  0  0
  186.3650  176.7010  146.5840 C   0  0  0  0  0  1  0  0  0  0  0  0
  185.5590  180.8340  144.1000 O   0  0  0  0  0  1  0  0  0  0  0  0
  185.5600  178.8000  142.8560 C   0  0  0  0  0  2  0  0  0  0  0  0
  185.6550  177.3480  145.4090 C   0  0  2  0  0  3  0  0  0  0  0  0
  185.9310  176.6160  144.0820 C   0  0  2  0  0  3  0  0  0  0  0  0
  185.9960  178.8350  145.3240 C   0  0  0  0  0  2  0  0  0  0  0  0
  1 14  1  0  0  0  0
  2  5  1  6  0  0  0
  2 13  1  0  0  0  0
  2  3  1  0  0  0  0
  3 19  1  0  0  0  0
  4 15  2  0  0  0  0
  6 17  1  0  0  0  0
  6  1  2  0  0  0  0
  7  3  2  0  0  0  0
  7  4  1  0  0  0  0
  8 23  1  1  0  0  0
  8 13  1  0  0  0  0
  9  1  1  0  0  0  0
 11  4  1  0  0  0  0
 12  8  1  0  0  0  0
 13 18  1  1  0  0  0
 14  5  2  0  0  0  0
 15 20  1  0  0  0  0
 16 12  1  0  0  0  0
 16  5  1  0  0  0  0
 17 16  2  0  0  0  0
 18 10  1  0  0  0  0
 19 10  1  0  0  0  0
 19 20  2  0  0  0  0
 22 21  2  0  0  0  0
 23 22  1  0  0  0  0
 24 27  1  6  0  0  0
 24 31  1  0  0  0  0
 25 30  1  0  0  0  0
 28 25  1  0  0  0  0
 28 24  1  0  0  0  0
 29 26  1  1  0  0  0
 30 22  1  6  0  0  0
 30 29  1  0  0  0  0
 31 29  1  0  0  0  0
M  END
>  <MODEL>
7

>  <REMARK>
 VINA RESULT:      -7.7      4.347      8.211
  Name = 
  2 active torsions:
  status: ('A' for Active; 'I' for Inactive)
    1  A    between atoms: C_5  and  C_30
    2  A    between atoms: C_10  and  N_16
                            x       y       z     vdW  Elec       q    Type
                         _______ _______ _______ _____ _____    ______ ____

>  <TORSDO>
F 2

$$$$
=
 OpenBabel11112416553D

 31 35  0  0  1  0  0  0  0  0999 V2000
  190.7600  171.5430  142.9310 C   0  0  0  0  0  0  0  0  0  0  0  0
  189.7350  174.3020  145.2560 C   0  0  2  0  0  3  0  0  0  0  0  0
  191.0370  174.9880  145.6460 C   0  0  0  0  0  0  0  0  0  0  0  0
  193.4520  174.8780  145.9470 C   0  0  0  0  0  0  0  0  0  0  0  0
  189.8580  173.4720  143.9970 C   0  0  0  0  0  0  0  0  0  0  0  0
  190.2150  171.9320  141.7070 C   0  0  0  0  0  3  0  0  0  0  0  0
  192.2550  174.2990  145.5220 C   0  0  0  0  0  3  0  0  0  0  0  0
  188.5440  176.0480  143.8650 C   0  0  2  0  0  3  0  0  0  0  0  0
  191.4810  170.4000  143.0180 F   0  0  0  0  0  0  0  0  0  0  0  0
  189.7820  177.0650  146.4300 C   0  0  0  0  0  2  0  0  0  0  0  0
  194.9580  174.0060  145.7620 Cl  0  0  0  0  0  0  0  0  0  0  0  0
  188.3800  175.0850  142.6900 C   0  0  0  0  0  2  0  0  0  0  0  0
  188.5360  175.2680  145.1880 C   0  0  2  0  0  3  0  0  0  0  0  0
  190.5700  172.3110  144.0370 N   0  0  0  0  0  0  0  0  0  0  0  0
  193.4470  176.1480  146.5230 C   0  0  0  0  0  3  0  0  0  0  0  0
  189.2910  173.8960  142.7760 C   0  0  0  0  0  0  0  0  0  0  0  0
  189.4710  173.1100  141.6370 C   0  0  0  0  0  3  0  0  0  0  0  0
  188.5340  176.1870  146.4090 C   0  0  0  0  0  2  0  0  0  0  0  0
  191.0370  176.2610  146.2680 C   0  0  0  0  0  0  0  0  0  0  0  0
  192.2430  176.8370  146.6810 C   0  0  0  0  0  3  0  0  0  0  0  0
  188.3230  178.2540  142.0610 O   0  0  0  0  0  0  0  0  0  0  0  0
  187.4070  178.1010  142.9120 C   0  0  0  0  0  0  0  0  0  0  0  0
  187.4600  177.0200  143.8460 N   0  0  0  0  0  2  0  0  0  0  0  0
  184.4560  178.5910  145.2280 C   0  0  1  0  0  3  0  0  0  0  0  0
  186.3170  179.9420  144.2200 C   0  0  0  0  0  2  0  0  0  0  0  0
  184.7990  177.5820  141.5270 C   0  0  0  0  0  1  0  0  0  0  0  0
  184.0670  177.8660  146.3530 O   0  0  0  0  0  1  0  0  0  0  0  0
  185.8590  179.1520  145.4460 C   0  0  0  0  0  2  0  0  0  0  0  0
  184.8790  178.4560  142.7660 C   0  0  2  0  0  3  0  0  0  0  0  0
  186.2720  179.0860  142.9500 C   0  0  2  0  0  3  0  0  0  0  0  0
  184.4330  177.6800  144.0040 C   0  0  0  0  0  2  0  0  0  0  0  0
  1  9  1  0  0  0  0
  1 14  1  0  0  0  0
  2  5  1  6  0  0  0
  2  3  1  0  0  0  0
  3 19  1  0  0  0  0
  4 15  2  0  0  0  0
  5 14  2  0  0  0  0
  6  1  2  0  0  0  0
  7  3  2  0  0  0  0
  7  4  1  0  0  0  0
  8 23  1  1  0  0  0
  8 13  1  0  0  0  0
 11  4  1  0  0  0  0
 12 16  1  0  0  0  0
 12  8  1  0  0  0  0
 13  2  1  0  0  0  0
 13 18  1  1  0  0  0
 15 20  1  0  0  0  0
 16  5  1  0  0  0  0
 17  6  1  0  0  0  0
 17 16  2  0  0  0  0
 18 10  1  0  0  0  0
 19 10  1  0  0  0  0
 19 20  2  0  0  0  0
 21 22  2  0  0  0  0
 22 23  1  0  0  0  0
 24 28  1  0  0  0  0
 24 27  1  1  0  0  0
 25 28  1  0  0  0  0
 29 26  1  6  0  0  0
 29 30  1  0  0  0  0
 29 31  1  0  0  0  0
 30 22  1  1  0  0  0
 30 25  1  0  0  0  0
 31 24  1  0  0  0  0
M  END
>  <MODEL>
8

>  <REMARK>
 VINA RESULT:      -7.6      3.964      7.875
  Name = 
  2 active torsions:
  status: ('A' for Active; 'I' for Inactive)
    1  A    between atoms: C_5  and  C_30
    2  A    between atoms: C_10  and  N_16
                            x       y       z     vdW  Elec       q    Type
                         _______ _______ _______ _____ _____    ______ ____

>  <TORSDO>
F 2

$$$$
=
 OpenBabel11112416553D

 31 35  0  0  1  0  0  0  0  0999 V2000
  186.0930  177.2050  142.4730 C   0  0  0  0  0  0  0  0  0  0  0  0
  188.3980  174.2640  142.7990 C   0  0  2  0  0  3  0  0  0  0  0  0
  188.9140  174.0140  141.3890 C   0  0  0  0  0  0  0  0  0  0  0  0
  188.6040  174.2100  138.9810 C   0  0  0  0  0  0  0  0  0  0  0  0
  187.8250  175.6520  142.9830 C   0  0  0  0  0  0  0  0  0  0  0  0
  186.7470  178.2100  143.1870 C   0  0  0  0  0  3  0  0  0  0  0  0
  188.1920  174.4940  140.2850 C   0  0  0  0  0  3  0  0  0  0  0  0
  190.4500  175.0580  144.0470 C   0  0  2  0  0  3  0  0  0  0  0  0
  184.9140  177.4690  141.8600 F   0  0  0  0  0  0  0  0  0  0  0  0
  190.8680  172.6380  142.2810 C   0  0  0  0  0  2  0  0  0  0  0  0
  187.6980  174.8380  137.6220 Cl  0  0  0  0  0  0  0  0  0  0  0  0
  189.7480  176.3340  144.5080 C   0  0  0  0  0  2  0  0  0  0  0  0
  189.4270  173.9230  143.8940 C   0  0  2  0  0  3  0  0  0  0  0  0
  186.6380  175.9630  142.3890 N   0  0  0  0  0  0  0  0  0  0  0  0
  189.7340  173.4230  138.7630 C   0  0  0  0  0  3  0  0  0  0  0  0
  188.5140  176.6430  143.7140 C   0  0  0  0  0  0  0  0  0  0  0  0
  187.9580  177.9200  143.8160 C   0  0  0  0  0  3  0  0  0  0  0  0
  190.0870  172.5770  143.5910 C   0  0  0  0  0  2  0  0  0  0  0  0
  190.0380  173.1830  141.1570 C   0  0  0  0  0  0  0  0  0  0  0  0
  190.4490  172.9130  139.8480 C   0  0  0  0  0  3  0  0  0  0  0  0
  193.2680  175.0360  143.5710 O   0  0  0  0  0  0  0  0  0  0  0  0
  192.8680  174.7050  144.7180 C   0  0  0  0  0  0  0  0  0  0  0  0
  191.4700  174.6910  145.0190 N   0  0  0  0  0  2  0  0  0  0  0  0
  196.6420  174.4520  144.7290 C   0  0  1  0  0  3  0  0  0  0  0  0
  194.8080  175.4600  146.1160 C   0  0  0  0  0  2  0  0  0  0  0  0
  193.7980  171.8710  145.0120 C   0  0  0  0  0  1  0  0  0  0  0  0
  197.5630  174.7080  143.7150 O   0  0  0  0  0  1  0  0  0  0  0  0
  195.8370  175.7170  145.0140 C   0  0  0  0  0  2  0  0  0  0  0  0
  194.6870  173.0400  145.3950 C   0  0  2  0  0  3  0  0  0  0  0  0
  193.8760  174.2980  145.7560 C   0  0  2  0  0  3  0  0  0  0  0  0
  195.7170  173.3180  144.3000 C   0  0  0  0  0  2  0  0  0  0  0  0
  1  6  1  0  0  0  0
  2  3  1  6  0  0  0
  2  5  1  0  0  0  0
  2 13  1  0  0  0  0
  4  7  1  0  0  0  0
  5 16  2  0  0  0  0
  6 17  2  0  0  0  0
  7  3  2  0  0  0  0
  8 12  1  0  0  0  0
  8 23  1  1  0  0  0
  9  1  1  0  0  0  0
 10 18  1  0  0  0  0
 11  4  1  0  0  0  0
 13 18  1  6  0  0  0
 13  8  1  0  0  0  0
 14  1  2  0  0  0  0
 14  5  1  0  0  0  0
 15  4  2  0  0  0  0
 15 20  1  0  0  0  0
 16 17  1  0  0  0  0
 16 12  1  0  0  0  0
 19  3  1  0  0  0  0
 19 10  1  0  0  0  0
 20 19  2  0  0  0  0
 21 22  2  0  0  0  0
 22 23  1  0  0  0  0
 24 27  1  6  0  0  0
 24 28  1  0  0  0  0
 28 25  1  0  0  0  0
 29 26  1  6  0  0  0
 29 30  1  0  0  0  0
 30 22  1  6  0  0  0
 30 25  1  0  0  0  0
 31 24  1  0  0  0  0
 31 29  1  0  0  0  0
M  END
>  <MODEL>
9

>  <REMARK>
 VINA RESULT:      -7.5      2.631      3.431
  Name = 
  2 active torsions:
  status: ('A' for Active; 'I' for Inactive)
    1  A    between atoms: C_5  and  C_30
    2  A    between atoms: C_10  and  N_16
                            x       y       z     vdW  Elec       q    Type
                         _______ _______ _______ _____ _____    ______ ____

>  <TORSDO>
F 2

$$$$
