=
 OpenBabel11112417373D

 28 32  0  0  1  0  0  0  0  0999 V2000
  191.1170  174.6230  142.3740 C   0  0  0  0  0  0  0  0  0  0  0  0
  188.3220  178.5090  141.5900 O   0  0  0  0  0  0  0  0  0  0  0  0
  190.4580  174.8630  147.3010 C   0  0  0  0  0  1  0  0  0  0  0  0
  189.3530  172.4560  142.1600 C   0  0  0  0  0  3  0  0  0  0  0  0
  188.5140  176.2630  146.5730 C   0  0  2  0  0  3  0  0  0  0  0  0
  192.1190  175.7100  142.5930 C   0  0  0  0  0  2  0  0  0  0  0  0
  187.1150  176.7920  140.3170 O   0  0  0  0  0  0  0  0  0  0  0  0
  187.2750  177.4330  141.6670 S   0  0  0  0  0  0  0  0  0  0  0  0
  185.8850  178.5560  143.5870 C   0  0  0  0  0  0  0  0  0  0  0  0
  187.7210  176.2200  142.8370 N   0  0  2  0  0  0  0  0  0  0  0  0
  193.7260  176.4740  145.7270 O   0  0  0  0  0  1  0  0  0  0  0  0
  189.4070  176.5790  144.4550 C   0  0  1  0  0  3  0  0  0  0  0  0
  186.7060  177.7880  144.4650 N   0  0  0  0  0  2  0  0  0  0  0  0
  185.7340  178.1510  142.1670 C   0  0  0  0  0  2  0  0  0  0  0  0
  192.9050  176.6860  144.6200 C   0  0  2  0  0  3  0  0  0  0  0  0
  189.7430  174.8120  142.6470 C   0  0  0  0  0  0  0  0  0  0  0  0
  190.0530  176.1450  146.5980 C   0  0  2  0  0  3  0  0  0  0  0  0
  185.2690  179.9810  144.0910 S   0  0  0  0  0  0  0  0  0  0  0  0
  191.5410  177.1980  145.0950 C   0  0  0  0  0  2  0  0  0  0  0  0
  188.8750  173.7110  142.5400 C   0  0  0  0  0  3  0  0  0  0  0  0
  191.5850  173.3590  141.9940 C   0  0  0  0  0  3  0  0  0  0  0  0
  190.7070  172.2800  141.8810 C   0  0  0  0  0  3  0  0  0  0  0  0
  192.8140  175.4510  143.8470 N   0  0  0  0  0  2  0  0  0  0  0  0
  188.2440  176.0010  145.1140 C   0  0  2  0  0  3  0  0  0  0  0  0
  190.5570  176.1270  145.2090 N   0  0  2  0  0  0  0  0  0  0  0  0
  187.1180  176.4070  144.1920 C   0  0  2  0  0  3  0  0  0  0  0  0
  188.1110  177.6620  147.0140 C   0  0  0  0  0  1  0  0  0  0  0  0
  189.1910  176.1800  143.0060 C   0  0  1  0  0  3  0  0  0  0  0  0
  1  6  1  0  0  0  0
  1 16  1  0  0  0  0
  2  8  2  0  0  0  0
  4 20  1  0  0  0  0
  5 17  1  0  0  0  0
  5 27  1  6  0  0  0
  6 23  1  0  0  0  0
  7  8  2  0  0  0  0
  8 14  1  0  0  0  0
  9 18  2  0  0  0  0
  9 13  1  0  0  0  0
 10  8  1  6  0  0  0
 10 28  1  0  0  0  0
 10 26  1  0  0  0  0
 12 24  1  0  0  0  0
 12 25  1  0  0  0  0
 14  9  1  0  0  0  0
 15 19  1  0  0  0  0
 15 11  1  0  0  0  0
 16 28  1  0  0  0  0
 17  3  1  0  0  0  0
 19 25  1  0  0  0  0
 20 16  2  0  0  0  0
 21  1  2  0  0  0  0
 22 21  1  0  0  0  0
 22  4  2  0  0  0  0
 23 15  1  0  0  0  0
 24  5  1  0  0  0  0
 25 17  1  0  0  0  0
 26 13  1  0  0  0  0
 26 24  1  0  0  0  0
 28 12  1  0  0  0  0
M  END
>  <MODEL>
1

>  <REMARK>
 VINA RESULT:      -7.8      0.000      0.000
  Name = 
  0 active torsions:
  status: ('A' for Active; 'I' for Inactive)
                            x       y       z     vdW  Elec       q    Type
                         _______ _______ _______ _____ _____    ______ ____

>  <TORSDO>
F 0

$$$$
=
 OpenBabel11112417373D

 28 32  0  0  1  0  0  0  0  0999 V2000
  189.8540  175.2580  147.0500 C   0  0  0  0  0  0  0  0  0  0  0  0
  185.1910  176.1040  146.0180 O   0  0  0  0  0  0  0  0  0  0  0  0
  191.3190  176.4170  142.4380 C   0  0  0  0  0  1  0  0  0  0  0  0
  190.7890  177.7030  148.0510 C   0  0  0  0  0  3  0  0  0  0  0  0
  189.0660  177.5090  142.4240 C   0  0  2  0  0  3  0  0  0  0  0  0
  189.4790  173.9410  146.4530 C   0  0  0  0  0  2  0  0  0  0  0  0
  185.5780  177.7210  147.8240 O   0  0  0  0  0  0  0  0  0  0  0  0
  185.6550  177.4980  146.3400 S   0  0  0  0  0  0  0  0  0  0  0  0
  184.9050  178.5570  144.0600 C   0  0  0  0  0  0  0  0  0  0  0  0
  187.2940  177.7430  145.7990 N   0  0  2  0  0  0  0  0  0  0  0  0
  190.7710  172.5980  143.3690 O   0  0  0  0  0  1  0  0  0  0  0  0
  188.3530  176.2900  144.2640 C   0  0  1  0  0  3  0  0  0  0  0  0
  186.2250  178.2430  143.6190 N   0  0  0  0  0  2  0  0  0  0  0  0
  184.6130  178.6670  145.5110 C   0  0  0  0  0  2  0  0  0  0  0  0
  189.8140  173.1050  144.2460 C   0  0  2  0  0  3  0  0  0  0  0  0
  189.2240  176.4600  146.6550 C   0  0  0  0  0  0  0  0  0  0  0  0
  189.8240  176.1690  142.5270 C   0  0  2  0  0  3  0  0  0  0  0  0
  183.6800  178.6040  142.9830 S   0  0  0  0  0  0  0  0  0  0  0  0
  189.0050  174.1950  143.5340 C   0  0  0  0  0  2  0  0  0  0  0  0
  189.7120  177.6780  147.1630 C   0  0  0  0  0  3  0  0  0  0  0  0
  190.9340  175.2960  147.9410 C   0  0  0  0  0  3  0  0  0  0  0  0
  191.3970  176.5120  148.4450 C   0  0  0  0  0  3  0  0  0  0  0  0
  190.4790  173.5850  145.4540 N   0  0  0  0  0  2  0  0  0  0  0  0
  188.5910  177.6650  143.8450 C   0  0  2  0  0  3  0  0  0  0  0  0
  189.5060  175.5340  143.8240 N   0  0  2  0  0  0  0  0  0  0  0  0
  187.4190  178.3940  144.4590 C   0  0  2  0  0  3  0  0  0  0  0  0
  187.9270  177.3660  141.4250 C   0  0  0  0  0  1  0  0  0  0  0  0
  188.0170  176.4520  145.7360 C   0  0  1  0  0  3  0  0  0  0  0  0
  1 21  1  0  0  0  0
  2  8  2  0  0  0  0
  3 17  1  0  0  0  0
  4 22  1  0  0  0  0
  5 27  1  6  0  0  0
  5 17  1  0  0  0  0
  5 24  1  0  0  0  0
  6  1  1  0  0  0  0
  8  7  2  0  0  0  0
  9 14  1  0  0  0  0
 10  8  1  6  0  0  0
 11 15  1  0  0  0  0
 12 28  1  0  0  0  0
 13  9  1  0  0  0  0
 13 26  1  0  0  0  0
 14  8  1  0  0  0  0
 15 23  1  0  0  0  0
 16  1  2  0  0  0  0
 16 20  1  0  0  0  0
 17 25  1  0  0  0  0
 18  9  2  0  0  0  0
 19 25  1  0  0  0  0
 19 15  1  0  0  0  0
 20  4  2  0  0  0  0
 21 22  2  0  0  0  0
 23  6  1  0  0  0  0
 24 12  1  0  0  0  0
 24 26  1  0  0  0  0
 25 12  1  0  0  0  0
 26 10  1  0  0  0  0
 28 10  1  0  0  0  0
 28 16  1  0  0  0  0
M  END
>  <MODEL>
2

>  <REMARK>
 VINA RESULT:      -7.8      2.672      4.703
  Name = 
  0 active torsions:
  status: ('A' for Active; 'I' for Inactive)
                            x       y       z     vdW  Elec       q    Type
                         _______ _______ _______ _____ _____    ______ ____

>  <TORSDO>
F 0

$$$$
=
 OpenBabel11112417373D

 28 32  0  0  1  0  0  0  0  0999 V2000
  190.4150  176.8580  144.8440 C   0  0  0  0  0  0  0  0  0  0  0  0
  194.7870  176.3090  142.8170 O   0  0  0  0  0  0  0  0  0  0  0  0
  189.4500  171.9810  144.6200 C   0  0  0  0  0  1  0  0  0  0  0  0
  190.9150  176.7160  147.5990 C   0  0  0  0  0  3  0  0  0  0  0  0
  191.9390  171.9040  144.3640 C   0  0  2  0  0  3  0  0  0  0  0  0
  190.0320  176.8610  143.4010 C   0  0  0  0  0  2  0  0  0  0  0  0
  195.3890  177.2970  144.9820 O   0  0  0  0  0  0  0  0  0  0  0  0
  195.1150  176.0110  144.2540 S   0  0  0  0  0  0  0  0  0  0  0  0
  196.1510  173.6440  143.8020 C   0  0  0  0  0  0  0  0  0  0  0  0
  193.7960  175.1740  145.0280 N   0  0  2  0  0  0  0  0  0  0  0  0
  188.0440  174.3440  141.7570 O   0  0  0  0  0  1  0  0  0  0  0  0
  192.0520  174.1520  143.8030 C   0  0  1  0  0  3  0  0  0  0  0  0
  194.8290  173.1570  144.0260 N   0  0  0  0  0  2  0  0  0  0  0  0
  196.5510  174.9740  144.3230 C   0  0  0  0  0  2  0  0  0  0  0  0
  189.1800  175.1030  142.0350 C   0  0  2  0  0  3  0  0  0  0  0  0
  191.5410  176.1430  145.3140 C   0  0  0  0  0  0  0  0  0  0  0  0
  190.6140  172.3830  143.7340 C   0  0  2  0  0  3  0  0  0  0  0  0
  197.1590  172.8280  142.8110 S   0  0  0  0  0  0  0  0  0  0  0  0
  190.3830  174.1680  142.2030 C   0  0  0  0  0  2  0  0  0  0  0  0
  191.7710  176.0780  146.7000 C   0  0  0  0  0  3  0  0  0  0  0  0
  189.5630  177.4940  145.7560 C   0  0  0  0  0  3  0  0  0  0  0  0
  189.8140  177.4290  147.1270 C   0  0  0  0  0  3  0  0  0  0  0  0
  188.9290  175.9280  143.2130 N   0  0  0  0  0  2  0  0  0  0  0  0
  192.5170  173.2180  144.8200 C   0  0  2  0  0  3  0  0  0  0  0  0
  190.6490  173.8550  143.6030 N   0  0  2  0  0  0  0  0  0  0  0  0
  193.9330  173.6870  145.0600 C   0  0  2  0  0  3  0  0  0  0  0  0
  192.7810  171.2170  143.2990 C   0  0  0  0  0  1  0  0  0  0  0  0
  192.5170  175.4890  144.3530 C   0  0  1  0  0  3  0  0  0  0  0  0
  1 16  2  0  0  0  0
  1 21  1  0  0  0  0
  2  8  2  0  0  0  0
  5 27  1  6  0  0  0
  5 24  1  0  0  0  0
  6  1  1  0  0  0  0
  8 14  1  0  0  0  0
  8  7  2  0  0  0  0
  9 13  1  0  0  0  0
  9 14  1  0  0  0  0
 10  8  1  6  0  0  0
 10 26  1  0  0  0  0
 11 15  1  0  0  0  0
 12 28  1  0  0  0  0
 12 24  1  0  0  0  0
 13 26  1  0  0  0  0
 15 19  1  0  0  0  0
 15 23  1  0  0  0  0
 16 20  1  0  0  0  0
 17  5  1  0  0  0  0
 17  3  1  0  0  0  0
 18  9  2  0  0  0  0
 19 25  1  0  0  0  0
 20  4  2  0  0  0  0
 21 22  2  0  0  0  0
 22  4  1  0  0  0  0
 23  6  1  0  0  0  0
 24 26  1  0  0  0  0
 25 17  1  0  0  0  0
 25 12  1  0  0  0  0
 28 10  1  0  0  0  0
 28 16  1  0  0  0  0
M  END
>  <MODEL>
3

>  <REMARK>
 VINA RESULT:      -7.3      3.455      7.004
  Name = 
  0 active torsions:
  status: ('A' for Active; 'I' for Inactive)
                            x       y       z     vdW  Elec       q    Type
                         _______ _______ _______ _____ _____    ______ ____

>  <TORSDO>
F 0

$$$$
=
 OpenBabel11112417373D

 28 32  0  0  1  0  0  0  0  0999 V2000
  188.1010  177.2000  145.1710 C   0  0  0  0  0  0  0  0  0  0  0  0
  192.9260  176.9950  144.7250 O   0  0  0  0  0  0  0  0  0  0  0  0
  187.4410  173.1600  142.3410 C   0  0  0  0  0  1  0  0  0  0  0  0
  187.5670  175.7500  147.5100 C   0  0  0  0  0  3  0  0  0  0  0  0
  189.8540  172.8410  142.9310 C   0  0  2  0  0  3  0  0  0  0  0  0
  188.2700  177.9160  143.8710 C   0  0  0  0  0  2  0  0  0  0  0  0
  192.6660  176.7910  147.1570 O   0  0  0  0  0  0  0  0  0  0  0  0
  192.7180  176.0320  145.8610 S   0  0  0  0  0  0  0  0  0  0  0  0
  193.9230  174.0050  144.7120 C   0  0  0  0  0  0  0  0  0  0  0  0
  191.2350  175.1390  145.6500 N   0  0  2  0  0  0  0  0  0  0  0  0
  187.0990  176.7430  140.6700 O   0  0  0  0  0  1  0  0  0  0  0  0
  190.0900  175.0550  143.5830 C   0  0  1  0  0  3  0  0  0  0  0  0
  192.6270  173.6700  144.2200 N   0  0  0  0  0  2  0  0  0  0  0  0
  194.0620  174.8780  145.9040 C   0  0  0  0  0  2  0  0  0  0  0  0
  188.0310  177.1170  141.6380 C   0  0  2  0  0  3  0  0  0  0  0  0
  189.0000  176.1930  145.5890 C   0  0  0  0  0  0  0  0  0  0  0  0
  188.8350  173.7440  142.2030 C   0  0  2  0  0  3  0  0  0  0  0  0
  195.2480  173.5900  143.8560 S   0  0  0  0  0  0  0  0  0  0  0  0
  189.1190  176.0420  141.7320 C   0  0  0  0  0  2  0  0  0  0  0  0
  188.7110  175.4720  146.7620 C   0  0  0  0  0  3  0  0  0  0  0  0
  186.9550  177.4700  145.9300 C   0  0  0  0  0  3  0  0  0  0  0  0
  186.6910  176.7540  147.0980 C   0  0  0  0  0  3  0  0  0  0  0  0
  187.3410  177.3430  142.9040 N   0  0  0  0  0  2  0  0  0  0  0  0
  190.1830  173.7040  144.1200 C   0  0  2  0  0  3  0  0  0  0  0  0
  188.8670  175.0920  142.8100 N   0  0  2  0  0  0  0  0  0  0  0  0
  191.3980  173.7980  145.0130 C   0  0  2  0  0  3  0  0  0  0  0  0
  191.0480  172.5980  142.0190 C   0  0  0  0  0  1  0  0  0  0  0  0
  190.2800  175.9120  144.8230 C   0  0  1  0  0  3  0  0  0  0  0  0
  1 16  2  0  0  0  0
  1 21  1  0  0  0  0
  2  8  2  0  0  0  0
  5 27  1  6  0  0  0
  5 24  1  0  0  0  0
  6  1  1  0  0  0  0
  8 14  1  0  0  0  0
  8  7  2  0  0  0  0
  9 14  1  0  0  0  0
 10  8  1  6  0  0  0
 11 15  1  0  0  0  0
 12 24  1  0  0  0  0
 12 28  1  0  0  0  0
 13  9  1  0  0  0  0
 13 26  1  0  0  0  0
 15 19  1  0  0  0  0
 15 23  1  0  0  0  0
 16 20  1  0  0  0  0
 17  3  1  0  0  0  0
 17 25  1  0  0  0  0
 17  5  1  0  0  0  0
 18  9  2  0  0  0  0
 19 25  1  0  0  0  0
 20  4  2  0  0  0  0
 21 22  2  0  0  0  0
 22  4  1  0  0  0  0
 23  6  1  0  0  0  0
 24 26  1  0  0  0  0
 25 12  1  0  0  0  0
 26 10  1  0  0  0  0
 28 16  1  0  0  0  0
 28 10  1  0  0  0  0
M  END
>  <MODEL>
4

>  <REMARK>
 VINA RESULT:      -7.3      2.657      6.408
  Name = 
  0 active torsions:
  status: ('A' for Active; 'I' for Inactive)
                            x       y       z     vdW  Elec       q    Type
                         _______ _______ _______ _____ _____    ______ ____

>  <TORSDO>
F 0

$$$$
=
 OpenBabel11112417373D

 28 32  0  0  1  0  0  0  0  0999 V2000
  187.0070  176.5240  144.5680 C   0  0  0  0  0  0  0  0  0  0  0  0
  189.0490  172.1790  143.8840 O   0  0  0  0  0  0  0  0  0  0  0  0
  191.3390  178.9030  143.9820 C   0  0  0  0  0  1  0  0  0  0  0  0
  186.1470  177.2870  142.0120 C   0  0  0  0  0  3  0  0  0  0  0  0
  191.9380  176.7190  142.9120 C   0  0  2  0  0  3  0  0  0  0  0  0
  187.5010  176.2510  145.9510 C   0  0  0  0  0  2  0  0  0  0  0  0
  187.4150  172.2280  142.0530 O   0  0  0  0  0  0  0  0  0  0  0  0
  188.8150  172.5960  142.4580 S   0  0  0  0  0  0  0  0  0  0  0  0
  191.3110  172.3370  141.6950 C   0  0  0  0  0  0  0  0  0  0  0  0
  189.0420  174.3140  142.2720 N   0  0  2  0  0  0  0  0  0  0  0  0
  190.0750  178.1080  147.6590 O   0  0  0  0  0  1  0  0  0  0  0  0
  190.1430  175.6300  143.8980 C   0  0  1  0  0  3  0  0  0  0  0  0
  191.4360  173.7120  142.0530 N   0  0  0  0  0  2  0  0  0  0  0  0
  189.9730  171.7630  141.4070 C   0  0  0  0  0  2  0  0  0  0  0  0
  189.4760  177.0040  147.0520 C   0  0  2  0  0  3  0  0  0  0  0  0
  187.6650  176.0100  143.4280 C   0  0  0  0  0  0  0  0  0  0  0  0
  191.5210  177.4170  144.2260 C   0  0  2  0  0  3  0  0  0  0  0  0
  192.6090  171.3530  141.7890 S   0  0  0  0  0  0  0  0  0  0  0  0
  190.4640  176.3750  146.0630 C   0  0  0  0  0  2  0  0  0  0  0  0
  187.2230  176.4100  142.1540 C   0  0  0  0  0  3  0  0  0  0  0  0
  185.9290  177.4050  144.4140 C   0  0  0  0  0  3  0  0  0  0  0  0
  185.4960  177.7810  143.1410 C   0  0  0  0  0  3  0  0  0  0  0  0
  188.2280  177.4230  146.4220 N   0  0  0  0  0  2  0  0  0  0  0  0
  190.6710  175.9740  142.5850 C   0  0  2  0  0  3  0  0  0  0  0  0
  190.2470  176.8340  144.6960 N   0  0  2  0  0  0  0  0  0  0  0  0
  190.3980  174.7170  141.7920 C   0  0  2  0  0  3  0  0  0  0  0  0
  193.1200  175.8010  143.1860 C   0  0  0  0  0  1  0  0  0  0  0  0
  188.7990  175.0100  143.5570 C   0  0  1  0  0  3  0  0  0  0  0  0
  1  6  1  0  0  0  0
  3 17  1  0  0  0  0
  4 20  2  0  0  0  0
  4 22  1  0  0  0  0
  5 27  1  1  0  0  0
  5 17  1  0  0  0  0
  6 23  1  0  0  0  0
  7  8  2  0  0  0  0
  8  2  2  0  0  0  0
  9 18  2  0  0  0  0
  9 13  1  0  0  0  0
 10  8  1  1  0  0  0
 10 28  1  0  0  0  0
 12 25  1  0  0  0  0
 14  9  1  0  0  0  0
 14  8  1  0  0  0  0
 15 11  1  0  0  0  0
 16 28  1  0  0  0  0
 16  1  2  0  0  0  0
 17 25  1  0  0  0  0
 19 15  1  0  0  0  0
 20 16  1  0  0  0  0
 21  1  1  0  0  0  0
 22 21  2  0  0  0  0
 23 15  1  0  0  0  0
 24  5  1  0  0  0  0
 24 12  1  0  0  0  0
 25 19  1  0  0  0  0
 26 13  1  0  0  0  0
 26 10  1  0  0  0  0
 26 24  1  0  0  0  0
 28 12  1  0  0  0  0
M  END
>  <MODEL>
5

>  <REMARK>
 VINA RESULT:      -7.2      2.855      5.500
  Name = 
  0 active torsions:
  status: ('A' for Active; 'I' for Inactive)
                            x       y       z     vdW  Elec       q    Type
                         _______ _______ _______ _____ _____    ______ ____

>  <TORSDO>
F 0

$$$$
=
 OpenBabel11112417373D

 28 32  0  0  1  0  0  0  0  0999 V2000
  188.2240  176.2830  145.1580 C   0  0  0  0  0  0  0  0  0  0  0  0
  189.0160  171.8300  143.4080 O   0  0  0  0  0  0  0  0  0  0  0  0
  193.0520  177.4700  144.9450 C   0  0  0  0  0  1  0  0  0  0  0  0
  187.6610  177.8230  142.8840 C   0  0  0  0  0  3  0  0  0  0  0  0
  193.0550  175.5160  143.3780 C   0  0  2  0  0  3  0  0  0  0  0  0
  188.5950  175.5730  146.4190 C   0  0  0  0  0  2  0  0  0  0  0  0
  187.4970  172.7440  141.7100 O   0  0  0  0  0  0  0  0  0  0  0  0
  188.9350  172.6140  142.1270 S   0  0  0  0  0  0  0  0  0  0  0  0
  191.2810  171.8740  141.2170 C   0  0  0  0  0  0  0  0  0  0  0  0
  189.6270  174.2010  142.3300 N   0  0  2  0  0  0  0  0  0  0  0  0
  191.5410  176.2150  148.3930 O   0  0  0  0  0  1  0  0  0  0  0  0
  191.0100  174.7550  144.1650 C   0  0  1  0  0  3  0  0  0  0  0  0
  191.7690  173.0420  141.8750 N   0  0  0  0  0  2  0  0  0  0  0  0
  189.8440  171.7670  140.8640 C   0  0  0  0  0  2  0  0  0  0  0  0
  190.6770  175.4870  147.5760 C   0  0  2  0  0  3  0  0  0  0  0  0
  188.7410  175.8890  143.9030 C   0  0  0  0  0  0  0  0  0  0  0  0
  192.8170  175.9750  144.8330 C   0  0  2  0  0  3  0  0  0  0  0  0
  192.2590  170.5820  141.0270 S   0  0  0  0  0  0  0  0  0  0  0  0
  191.4760  174.8610  146.4280 C   0  0  0  0  0  2  0  0  0  0  0  0
  188.4520  176.6790  142.7750 C   0  0  0  0  0  3  0  0  0  0  0  0
  187.4320  177.4340  145.2560 C   0  0  0  0  0  3  0  0  0  0  0  0
  187.1450  178.1980  144.1240 C   0  0  0  0  0  3  0  0  0  0  0  0
  189.6040  176.3620  147.1140 N   0  0  0  0  0  2  0  0  0  0  0  0
  191.6400  175.2380  142.9440 C   0  0  2  0  0  3  0  0  0  0  0  0
  191.4220  175.6660  145.2120 N   0  0  2  0  0  0  0  0  0  0  0  0
  191.0520  174.3220  141.8970 C   0  0  2  0  0  3  0  0  0  0  0  0
  193.9350  174.2750  143.3830 C   0  0  0  0  0  1  0  0  0  0  0  0
  189.5560  174.6190  143.7490 C   0  0  1  0  0  3  0  0  0  0  0  0
  1 21  1  0  0  0  0
  1  6  1  0  0  0  0
  4 22  1  0  0  0  0
  5 27  1  1  0  0  0
  5 17  1  0  0  0  0
  6 23  1  0  0  0  0
  7  8  2  0  0  0  0
  8  2  2  0  0  0  0
  9 13  1  0  0  0  0
 10  8  1  1  0  0  0
 10 28  1  0  0  0  0
 12 25  1  0  0  0  0
 13 26  1  0  0  0  0
 14  9  1  0  0  0  0
 14  8  1  0  0  0  0
 15 11  1  0  0  0  0
 16  1  2  0  0  0  0
 17  3  1  0  0  0  0
 17 25  1  0  0  0  0
 18  9  2  0  0  0  0
 19 15  1  0  0  0  0
 20  4  2  0  0  0  0
 20 16  1  0  0  0  0
 22 21  2  0  0  0  0
 23 15  1  0  0  0  0
 24  5  1  0  0  0  0
 24 12  1  0  0  0  0
 25 19  1  0  0  0  0
 26 10  1  0  0  0  0
 26 24  1  0  0  0  0
 28 16  1  0  0  0  0
 28 12  1  0  0  0  0
M  END
>  <MODEL>
6

>  <REMARK>
 VINA RESULT:      -7.2      2.815      5.533
  Name = 
  0 active torsions:
  status: ('A' for Active; 'I' for Inactive)
                            x       y       z     vdW  Elec       q    Type
                         _______ _______ _______ _____ _____    ______ ____

>  <TORSDO>
F 0

$$$$
=
 OpenBabel11112417373D

 28 32  0  0  1  0  0  0  0  0999 V2000
  194.0170  173.9450  145.1640 C   0  0  0  0  0  0  0  0  0  0  0  0
  190.0130  175.1160  147.6380 O   0  0  0  0  0  0  0  0  0  0  0  0
  191.5690  173.7910  140.8340 C   0  0  0  0  0  1  0  0  0  0  0  0
  195.1710  176.4170  144.5180 C   0  0  0  0  0  3  0  0  0  0  0  0
  189.9270  175.1290  142.1700 C   0  0  2  0  0  3  0  0  0  0  0  0
  193.4410  172.5840  145.3820 C   0  0  0  0  0  2  0  0  0  0  0  0
  191.4480  177.0490  148.1170 O   0  0  0  0  0  0  0  0  0  0  0  0
  190.4430  176.4750  147.1590 S   0  0  0  0  0  0  0  0  0  0  0  0
  188.1850  177.0560  145.9560 C   0  0  0  0  0  0  0  0  0  0  0  0
  191.1470  176.3740  145.5670 N   0  0  2  0  0  0  0  0  0  0  0  0
  192.2000  170.4000  142.7980 O   0  0  0  0  0  1  0  0  0  0  0  0
  190.8810  174.4780  144.1820 C   0  0  1  0  0  3  0  0  0  0  0  0
  188.7930  176.4810  144.8010 N   0  0  0  0  0  2  0  0  0  0  0  0
  189.0290  177.5400  147.0770 C   0  0  0  0  0  2  0  0  0  0  0  0
  192.1400  171.2180  143.9250 C   0  0  2  0  0  3  0  0  0  0  0  0
  193.1970  175.0910  145.0570 C   0  0  0  0  0  0  0  0  0  0  0  0
  190.6350  173.7640  142.0300 C   0  0  2  0  0  3  0  0  0  0  0  0
  186.5630  177.0050  146.1290 S   0  0  0  0  0  0  0  0  0  0  0  0
  190.9770  172.2040  143.7710 C   0  0  0  0  0  2  0  0  0  0  0  0
  193.7940  176.3210  144.7260 C   0  0  0  0  0  3  0  0  0  0  0  0
  195.3970  174.0530  144.9540 C   0  0  0  0  0  3  0  0  0  0  0  0
  195.9740  175.2840  144.6380 C   0  0  0  0  0  3  0  0  0  0  0  0
  193.4290  171.8790  144.1070 N   0  0  0  0  0  2  0  0  0  0  0  0
  190.6210  175.6730  143.3910 C   0  0  2  0  0  3  0  0  0  0  0  0
  191.4140  173.4980  143.2580 N   0  0  2  0  0  0  0  0  0  0  0  0
  190.2050  176.6700  144.4460 C   0  0  2  0  0  3  0  0  0  0  0  0
  188.4380  174.9020  142.3800 C   0  0  0  0  0  1  0  0  0  0  0  0
  191.7060  175.0230  145.3340 C   0  0  1  0  0  3  0  0  0  0  0  0
  1  6  1  0  0  0  0
  3 17  1  0  0  0  0
  4 22  2  0  0  0  0
  4 20  1  0  0  0  0
  5 27  1  1  0  0  0
  5 24  1  0  0  0  0
  8  2  2  0  0  0  0
  8  7  2  0  0  0  0
  9 18  2  0  0  0  0
  9 14  1  0  0  0  0
 10  8  1  1  0  0  0
 11 15  1  0  0  0  0
 12 28  1  0  0  0  0
 13  9  1  0  0  0  0
 14  8  1  0  0  0  0
 15 23  1  0  0  0  0
 16  1  1  0  0  0  0
 16 28  1  0  0  0  0
 17  5  1  0  0  0  0
 17 25  1  0  0  0  0
 19 15  1  0  0  0  0
 20 16  2  0  0  0  0
 21  1  2  0  0  0  0
 22 21  1  0  0  0  0
 23  6  1  0  0  0  0
 24 12  1  0  0  0  0
 24 26  1  0  0  0  0
 25 19  1  0  0  0  0
 25 12  1  0  0  0  0
 26 13  1  0  0  0  0
 26 10  1  0  0  0  0
 28 10  1  0  0  0  0
M  END
>  <MODEL>
7

>  <REMARK>
 VINA RESULT:      -7.1      2.973      5.226
  Name = 
  0 active torsions:
  status: ('A' for Active; 'I' for Inactive)
                            x       y       z     vdW  Elec       q    Type
                         _______ _______ _______ _____ _____    ______ ____

>  <TORSDO>
F 0

$$$$
=
 OpenBabel11112417373D

 28 32  0  0  1  0  0  0  0  0999 V2000
  195.0080  173.4310  144.7900 C   0  0  0  0  0  0  0  0  0  0  0  0
  192.3800  174.4910  140.8530 O   0  0  0  0  0  0  0  0  0  0  0  0
  191.5200  175.1960  147.8700 C   0  0  0  0  0  1  0  0  0  0  0  0
  194.3110  170.7820  145.3860 C   0  0  0  0  0  3  0  0  0  0  0  0
  190.1190  174.8940  145.8160 C   0  0  2  0  0  3  0  0  0  0  0  0
  195.3810  174.8660  144.6100 C   0  0  0  0  0  2  0  0  0  0  0  0
  192.6290  172.0600  140.6170 O   0  0  0  0  0  0  0  0  0  0  0  0
  191.7940  173.1550  141.2190 S   0  0  0  0  0  0  0  0  0  0  0  0
  189.3140  173.9930  141.3860 C   0  0  0  0  0  0  0  0  0  0  0  0
  191.7380  172.9590  142.9500 N   0  0  2  0  0  0  0  0  0  0  0  0
  194.5670  177.5410  146.8840 O   0  0  0  0  0  1  0  0  0  0  0  0
  191.9830  174.7770  144.4410 C   0  0  1  0  0  3  0  0  0  0  0  0
  189.6100  174.2150  142.7640 N   0  0  0  0  0  2  0  0  0  0  0  0
  190.1400  173.0510  140.5920 C   0  0  0  0  0  2  0  0  0  0  0  0
  194.5420  176.8170  145.6920 C   0  0  2  0  0  3  0  0  0  0  0  0
  193.7460  172.9350  144.3910 C   0  0  0  0  0  0  0  0  0  0  0  0
  191.3130  175.6510  146.4370 C   0  0  2  0  0  3  0  0  0  0  0  0
  188.1950  174.9150  140.6390 S   0  0  0  0  0  0  0  0  0  0  0  0
  193.0890  176.6450  145.2370 C   0  0  0  0  0  2  0  0  0  0  0  0
  193.4120  171.6050  144.7050 C   0  0  0  0  0  3  0  0  0  0  0  0
  195.9010  172.5970  145.4730 C   0  0  0  0  0  3  0  0  0  0  0  0
  195.5580  171.2760  145.7650 C   0  0  0  0  0  3  0  0  0  0  0  0
  195.2330  175.5460  145.8900 N   0  0  0  0  0  2  0  0  0  0  0  0
  190.8420  173.9780  144.8640 C   0  0  2  0  0  3  0  0  0  0  0  0
  192.5290  175.3620  145.6470 N   0  0  2  0  0  0  0  0  0  0  0  0
  190.4270  173.3050  143.5770 C   0  0  2  0  0  3  0  0  0  0  0  0
  189.2070  175.8880  145.1140 C   0  0  0  0  0  1  0  0  0  0  0  0
  192.7760  173.7920  143.5990 C   0  0  1  0  0  3  0  0  0  0  0  0
  1 21  1  0  0  0  0
  2  8  2  0  0  0  0
  4 22  1  0  0  0  0
  5 27  1  6  0  0  0
  5 17  1  0  0  0  0
  6  1  1  0  0  0  0
  6 23  1  0  0  0  0
  7  8  2  0  0  0  0
  9 13  1  0  0  0  0
 10  8  1  6  0  0  0
 10 26  1  0  0  0  0
 10 28  1  0  0  0  0
 12 24  1  0  0  0  0
 12 25  1  0  0  0  0
 13 26  1  0  0  0  0
 14  8  1  0  0  0  0
 14  9  1  0  0  0  0
 15 23  1  0  0  0  0
 15 11  1  0  0  0  0
 16 20  1  0  0  0  0
 16  1  2  0  0  0  0
 17  3  1  0  0  0  0
 18  9  2  0  0  0  0
 19 25  1  0  0  0  0
 19 15  1  0  0  0  0
 20  4  2  0  0  0  0
 21 22  2  0  0  0  0
 24  5  1  0  0  0  0
 25 17  1  0  0  0  0
 26 24  1  0  0  0  0
 28 16  1  0  0  0  0
 28 12  1  0  0  0  0
M  END
>  <MODEL>
8

>  <REMARK>
 VINA RESULT:      -6.9      3.406      4.659
  Name = 
  0 active torsions:
  status: ('A' for Active; 'I' for Inactive)
                            x       y       z     vdW  Elec       q    Type
                         _______ _______ _______ _____ _____    ______ ____

>  <TORSDO>
F 0

$$$$
=
 OpenBabel11112417373D

 28 32  0  0  1  0  0  0  0  0999 V2000
  190.8500  175.1800  143.1710 C   0  0  0  0  0  0  0  0  0  0  0  0
  187.8530  175.7310  146.9440 O   0  0  0  0  0  0  0  0  0  0  0  0
  187.4180  176.7500  139.9270 C   0  0  0  0  0  1  0  0  0  0  0  0
  192.2230  177.6200  143.0250 C   0  0  0  0  0  3  0  0  0  0  0  0
  186.4190  177.6650  142.0340 C   0  0  2  0  0  3  0  0  0  0  0  0
  190.1160  173.8810  143.1090 C   0  0  0  0  0  2  0  0  0  0  0  0
  189.6780  177.2510  147.5630 O   0  0  0  0  0  0  0  0  0  0  0  0
  188.3820  177.1330  146.8120 S   0  0  0  0  0  0  0  0  0  0  0  0
  186.0350  178.2780  146.5680 C   0  0  0  0  0  0  0  0  0  0  0  0
  188.6420  177.5390  145.1370 N   0  0  2  0  0  0  0  0  0  0  0  0
  187.9100  172.8470  140.4530 O   0  0  0  0  0  1  0  0  0  0  0  0
  187.7120  176.2750  143.3680 C   0  0  1  0  0  3  0  0  0  0  0  0
  186.2280  178.0970  145.1660 N   0  0  0  0  0  2  0  0  0  0  0  0
  187.2020  178.2700  147.4850 C   0  0  0  0  0  2  0  0  0  0  0  0
  188.2760  173.2210  141.7460 C   0  0  2  0  0  3  0  0  0  0  0  0
  190.2430  176.3540  143.6740 C   0  0  0  0  0  0  0  0  0  0  0  0
  186.8200  176.3830  141.2720 C   0  0  2  0  0  3  0  0  0  0  0  0
  184.5240  178.3010  147.1830 S   0  0  0  0  0  0  0  0  0  0  0  0
  187.3030  174.2900  142.2560 C   0  0  0  0  0  2  0  0  0  0  0  0
  190.9460  177.5700  143.5850 C   0  0  0  0  0  3  0  0  0  0  0  0
  192.1320  175.2430  142.6110 C   0  0  0  0  0  3  0  0  0  0  0  0
  192.8190  176.4560  142.5430 C   0  0  0  0  0  3  0  0  0  0  0  0
  189.6650  173.6700  141.7400 N   0  0  0  0  0  2  0  0  0  0  0  0
  187.4780  177.6890  143.1040 C   0  0  2  0  0  3  0  0  0  0  0  0
  187.8190  175.6420  142.0710 N   0  0  2  0  0  0  0  0  0  0  0  0
  187.5180  178.2830  144.4920 C   0  0  2  0  0  3  0  0  0  0  0  0
  185.0120  177.5000  142.5880 C   0  0  0  0  0  1  0  0  0  0  0  0
  188.8800  176.3140  144.3390 C   0  0  1  0  0  3  0  0  0  0  0  0
  1 16  1  0  0  0  0
  3 17  1  0  0  0  0
  4 20  1  0  0  0  0
  5 27  1  1  0  0  0
  5 24  1  0  0  0  0
  6  1  1  0  0  0  0
  8  2  2  0  0  0  0
  8 14  1  0  0  0  0
  8  7  2  0  0  0  0
  9 18  2  0  0  0  0
  9 14  1  0  0  0  0
 10  8  1  1  0  0  0
 11 15  1  0  0  0  0
 12 28  1  0  0  0  0
 13  9  1  0  0  0  0
 15 19  1  0  0  0  0
 16 28  1  0  0  0  0
 17  5  1  0  0  0  0
 17 25  1  0  0  0  0
 20 16  2  0  0  0  0
 21  1  2  0  0  0  0
 22 21  1  0  0  0  0
 22  4  2  0  0  0  0
 23 15  1  0  0  0  0
 23  6  1  0  0  0  0
 24 12  1  0  0  0  0
 24 26  1  0  0  0  0
 25 19  1  0  0  0  0
 25 12  1  0  0  0  0
 26 10  1  0  0  0  0
 26 13  1  0  0  0  0
 28 10  1  0  0  0  0
M  END
>  <MODEL>
9

>  <REMARK>
 VINA RESULT:      -6.9      2.607      4.800
  Name = 
  0 active torsions:
  status: ('A' for Active; 'I' for Inactive)
                            x       y       z     vdW  Elec       q    Type
                         _______ _______ _______ _____ _____    ______ ____

>  <TORSDO>
F 0

$$$$
