=
 OpenBabel11112417013D

 31 35  0  0  1  0  0  0  0  0999 V2000
  184.8450  178.1310  146.8260 C   0  0  0  0  0  0  0  0  0  0  0  0
  187.4790  175.8120  145.3530 C   0  0  2  0  0  3  0  0  0  0  0  0
  187.5330  176.1190  143.8580 C   0  0  0  0  0  0  0  0  0  0  0  0
  186.4930  177.1310  141.7860 C   0  0  0  0  0  0  0  0  0  0  0  0
  186.8450  176.9190  146.1670 C   0  0  0  0  0  0  0  0  0  0  0  0
  185.6190  179.0030  147.5940 C   0  0  0  0  0  3  0  0  0  0  0  0
  186.3030  176.7340  143.2190 C   0  0  0  0  0  2  0  0  0  0  0  0
  189.7270  176.6230  146.1670 C   0  0  2  0  0  3  0  0  0  0  0  0
  183.5010  178.2940  146.7650 F   0  0  0  0  0  0  0  0  0  0  0  0
  189.7540  174.9660  143.6560 C   0  0  0  0  0  2  0  0  0  0  0  0
  185.6440  177.8690  141.2250 O   0  0  0  0  0  0  0  0  0  0  0  0
  189.0890  177.5630  147.1880 C   0  0  0  0  0  2  0  0  0  0  0  0
  188.8350  175.3920  145.9450 C   0  0  2  0  0  3  0  0  0  0  0  0
  185.4550  177.0920  146.1200 C   0  0  0  0  0  3  0  0  0  0  0  0
  187.6290  176.6150  141.0190 C   0  0  0  0  0  3  0  0  0  0  0  0
  187.6250  177.7960  146.9540 C   0  0  0  0  0  0  0  0  0  0  0  0
  187.0030  178.8280  147.6640 C   0  0  0  0  0  3  0  0  0  0  0  0
  189.4870  174.3600  145.0290 C   0  0  0  0  0  2  0  0  0  0  0  0
  188.5470  175.6540  143.0810 C   0  0  0  0  0  0  0  0  0  0  0  0
  188.5810  175.9160  141.6310 C   0  0  0  0  0  3  0  0  0  0  0  0
  192.1840  177.0880  144.7990 O   0  0  0  0  0  0  0  0  0  0  0  0
  192.2390  176.4920  145.9090 C   0  0  0  0  0  0  0  0  0  0  0  0
  191.0440  176.2190  146.6400 N   0  0  0  0  0  2  0  0  0  0  0  0
  195.6870  175.7170  144.5170 N   0  0  0  0  0  0  0  0  0  0  0  0
  194.6500  177.0970  146.2610 C   0  0  0  0  0  2  0  0  0  0  0  0
  192.9600  173.7610  145.9840 F   0  0  0  0  0  0  0  0  0  0  0  0
  196.1740  175.7610  143.1510 C   0  0  0  0  0  1  0  0  0  0  0  0
  195.1790  177.0520  144.8250 C   0  0  0  0  0  2  0  0  0  0  0  0
  194.0010  174.6710  145.9500 C   0  0  2  0  0  3  0  0  0  0  0  0
  193.5560  176.0460  146.4720 C   0  0  2  0  0  3  0  0  0  0  0  0
  194.5670  174.7800  144.5340 C   0  0  0  0  0  2  0  0  0  0  0  0
  1  6  1  0  0  0  0
  2  3  1  6  0  0  0
  2 13  1  0  0  0  0
  2  5  1  0  0  0  0
  4  7  1  0  0  0  0
  5 16  2  0  0  0  0
  6 17  2  0  0  0  0
  7  3  1  0  0  0  0
  8 23  1  1  0  0  0
  8 12  1  0  0  0  0
  9  1  1  0  0  0  0
 10 18  1  0  0  0  0
 11  4  2  0  0  0  0
 13 18  1  6  0  0  0
 13  8  1  0  0  0  0
 14  5  1  0  0  0  0
 14  1  2  0  0  0  0
 15 20  2  0  0  0  0
 15  4  1  0  0  0  0
 16 12  1  0  0  0  0
 16 17  1  0  0  0  0
 19 10  1  0  0  0  0
 19  3  2  0  0  0  0
 20 19  1  0  0  0  0
 21 22  2  0  0  0  0
 22 23  1  0  0  0  0
 24 31  1  0  0  0  0
 24 28  1  0  0  0  0
 25 30  1  0  0  0  0
 27 24  1  0  0  0  0
 28 25  1  0  0  0  0
 29 26  1  6  0  0  0
 29 30  1  0  0  0  0
 30 22  1  6  0  0  0
 31 29  1  0  0  0  0
M  END
>  <MODEL>
1

>  <REMARK>
 VINA RESULT:      -9.2      0.000      0.000
  Name = 
  2 active torsions:
  status: ('A' for Active; 'I' for Inactive)
    1  A    between atoms: C_5  and  C_30
    2  A    between atoms: C_10  and  N_16
                            x       y       z     vdW  Elec       q    Type
                         _______ _______ _______ _____ _____    ______ ____

>  <TORSDO>
F 2

$$$$
=
 OpenBabel11112417013D

 31 35  0  0  1  0  0  0  0  0999 V2000
  184.7840  177.8100  146.7360 C   0  0  0  0  0  0  0  0  0  0  0  0
  187.1850  175.9840  144.4150 C   0  0  2  0  0  3  0  0  0  0  0  0
  186.9470  176.5530  143.0180 C   0  0  0  0  0  0  0  0  0  0  0  0
  185.5000  177.8370  141.3880 C   0  0  0  0  0  0  0  0  0  0  0  0
  186.6720  176.8810  145.5200 C   0  0  0  0  0  0  0  0  0  0  0  0
  185.6540  178.5860  147.5050 C   0  0  0  0  0  3  0  0  0  0  0  0
  185.5960  177.1810  142.7320 C   0  0  0  0  0  2  0  0  0  0  0  0
  189.5120  176.7990  144.9570 C   0  0  2  0  0  3  0  0  0  0  0  0
  183.4470  177.8830  146.9450 F   0  0  0  0  0  0  0  0  0  0  0  0
  189.1350  175.6180  142.2160 C   0  0  0  0  0  2  0  0  0  0  0  0
  184.5330  178.5990  141.1330 O   0  0  0  0  0  0  0  0  0  0  0  0
  189.0400  177.4960  146.2320 C   0  0  0  0  0  2  0  0  0  0  0  0
  188.6430  175.5660  144.6690 C   0  0  2  0  0  3  0  0  0  0  0  0
  185.2920  176.9590  145.7530 C   0  0  0  0  0  3  0  0  0  0  0  0
  186.4930  177.5480  140.3500 C   0  0  0  0  0  3  0  0  0  0  0  0
  187.5500  177.6600  146.3070 C   0  0  0  0  0  0  0  0  0  0  0  0
  187.0320  178.5020  147.2960 C   0  0  0  0  0  3  0  0  0  0  0  0
  189.1520  174.7620  143.4760 C   0  0  0  0  0  2  0  0  0  0  0  0
  187.8160  176.3070  142.0010 C   0  0  0  0  0  0  0  0  0  0  0  0
  187.5680  176.8230  140.6430 C   0  0  0  0  0  3  0  0  0  0  0  0
  191.7270  178.1330  143.7540 O   0  0  0  0  0  0  0  0  0  0  0  0
  191.9740  177.1330  144.4830 C   0  0  0  0  0  0  0  0  0  0  0  0
  190.9090  176.4150  145.1060 N   0  0  0  0  0  2  0  0  0  0  0  0
  193.7300  173.7900  144.8930 N   0  0  0  0  0  0  0  0  0  0  0  0
  193.8870  175.8200  143.5240 C   0  0  0  0  0  2  0  0  0  0  0  0
  192.9910  176.6400  147.0720 F   0  0  0  0  0  0  0  0  0  0  0  0
  193.1860  172.4450  144.9010 C   0  0  0  0  0  1  0  0  0  0  0  0
  193.3430  174.3920  143.6190 C   0  0  0  0  0  2  0  0  0  0  0  0
  193.5920  175.9510  146.0340 C   0  0  2  0  0  3  0  0  0  0  0  0
  193.3860  176.6730  144.6940 C   0  0  2  0  0  3  0  0  0  0  0  0
  193.0630  174.5180  145.9710 C   0  0  0  0  0  2  0  0  0  0  0  0
  1  9  1  0  0  0  0
  1  6  1  0  0  0  0
  2  3  1  6  0  0  0
  2 13  1  0  0  0  0
  2  5  1  0  0  0  0
  4  7  1  0  0  0  0
  5 14  1  0  0  0  0
  5 16  2  0  0  0  0
  7  3  1  0  0  0  0
  8 23  1  1  0  0  0
  8 12  1  0  0  0  0
 10 18  1  0  0  0  0
 11  4  2  0  0  0  0
 12 16  1  0  0  0  0
 13 18  1  6  0  0  0
 13  8  1  0  0  0  0
 14  1  2  0  0  0  0
 15 20  2  0  0  0  0
 15  4  1  0  0  0  0
 16 17  1  0  0  0  0
 17  6  2  0  0  0  0
 19 10  1  0  0  0  0
 19  3  2  0  0  0  0
 20 19  1  0  0  0  0
 21 22  2  0  0  0  0
 22 23  1  0  0  0  0
 24 27  1  0  0  0  0
 24 31  1  0  0  0  0
 25 28  1  0  0  0  0
 25 30  1  0  0  0  0
 28 24  1  0  0  0  0
 29 26  1  1  0  0  0
 30 22  1  6  0  0  0
 30 29  1  0  0  0  0
 31 29  1  0  0  0  0
M  END
>  <MODEL>
2

>  <REMARK>
 VINA RESULT:      -9.0      1.343      1.836
  Name = 
  2 active torsions:
  status: ('A' for Active; 'I' for Inactive)
    1  A    between atoms: C_5  and  C_30
    2  A    between atoms: C_10  and  N_16
                            x       y       z     vdW  Elec       q    Type
                         _______ _______ _______ _____ _____    ______ ____

>  <TORSDO>
F 2

$$$$
=
 OpenBabel11112417013D

 31 35  0  0  1  0  0  0  0  0999 V2000
  194.5600  176.4740  145.0970 C   0  0  0  0  0  0  0  0  0  0  0  0
  191.1320  176.9630  143.5160 C   0  0  2  0  0  3  0  0  0  0  0  0
  190.8770  175.7290  142.6540 C   0  0  0  0  0  0  0  0  0  0  0  0
  191.7370  173.6810  141.4420 C   0  0  0  0  0  0  0  0  0  0  0  0
  192.2060  176.7510  144.5600 C   0  0  0  0  0  0  0  0  0  0  0  0
  194.2360  176.2820  146.4410 C   0  0  0  0  0  3  0  0  0  0  0  0
  192.0820  174.9520  142.1580 C   0  0  0  0  0  2  0  0  0  0  0  0
  189.4200  176.7200  145.3550 C   0  0  2  0  0  3  0  0  0  0  0  0
  195.8540  176.4290  144.6980 F   0  0  0  0  0  0  0  0  0  0  0  0
  188.4230  176.2490  142.5560 C   0  0  0  0  0  2  0  0  0  0  0  0
  192.6360  172.8350  141.2060 O   0  0  0  0  0  0  0  0  0  0  0  0
  190.4900  176.7690  146.4440 C   0  0  0  0  0  2  0  0  0  0  0  0
  189.8560  177.5520  144.1400 C   0  0  2  0  0  3  0  0  0  0  0  0
  193.5490  176.7120  144.1630 C   0  0  0  0  0  3  0  0  0  0  0  0
  190.3730  173.4480  140.9630 C   0  0  0  0  0  3  0  0  0  0  0  0
  191.8830  176.5670  145.9240 C   0  0  0  0  0  0  0  0  0  0  0  0
  192.9040  176.3390  146.8530 C   0  0  0  0  0  3  0  0  0  0  0  0
  188.7670  177.6400  143.0740 C   0  0  0  0  0  2  0  0  0  0  0  0
  189.6390  175.4610  142.1580 C   0  0  0  0  0  0  0  0  0  0  0  0
  189.3990  174.2900  141.2940 C   0  0  0  0  0  3  0  0  0  0  0  0
  187.8500  175.4290  147.3540 O   0  0  0  0  0  0  0  0  0  0  0  0
  187.4280  176.5290  146.9010 C   0  0  0  0  0  0  0  0  0  0  0  0
  188.1620  177.2210  145.8910 N   0  0  0  0  0  2  0  0  0  0  0  0
  184.8890  179.0470  145.6200 N   0  0  0  0  0  0  0  0  0  0  0  0
  184.9600  176.7570  146.4980 C   0  0  0  0  0  2  0  0  0  0  0  0
  187.3810  178.9800  148.3030 F   0  0  0  0  0  0  0  0  0  0  0  0
  184.8700  179.8060  144.3840 C   0  0  0  0  0  1  0  0  0  0  0  0
  184.9450  177.6360  145.2450 C   0  0  0  0  0  2  0  0  0  0  0  0
  186.2230  178.6350  147.6300 C   0  0  2  0  0  3  0  0  0  0  0  0
  186.1430  177.1190  147.4030 C   0  0  2  0  0  3  0  0  0  0  0  0
  186.1320  179.3930  146.3060 C   0  0  0  0  0  2  0  0  0  0  0  0
  1  6  1  0  0  0  0
  2  3  1  1  0  0  0
  2 13  1  0  0  0  0
  2  5  1  0  0  0  0
  4  7  1  0  0  0  0
  5 16  2  0  0  0  0
  6 17  2  0  0  0  0
  7  3  1  0  0  0  0
  8 23  1  1  0  0  0
  8 12  1  0  0  0  0
  9  1  1  0  0  0  0
 10 18  1  0  0  0  0
 11  4  2  0  0  0  0
 13 18  1  6  0  0  0
 13  8  1  0  0  0  0
 14  5  1  0  0  0  0
 14  1  2  0  0  0  0
 15 20  2  0  0  0  0
 15  4  1  0  0  0  0
 16 12  1  0  0  0  0
 16 17  1  0  0  0  0
 19 10  1  0  0  0  0
 19  3  2  0  0  0  0
 20 19  1  0  0  0  0
 22 21  2  0  0  0  0
 23 22  1  0  0  0  0
 24 31  1  0  0  0  0
 25 30  1  0  0  0  0
 27 24  1  0  0  0  0
 28 24  1  0  0  0  0
 28 25  1  0  0  0  0
 29 26  1  6  0  0  0
 30 22  1  6  0  0  0
 30 29  1  0  0  0  0
 31 29  1  0  0  0  0
M  END
>  <MODEL>
3

>  <REMARK>
 VINA RESULT:      -8.6      2.775      7.130
  Name = 
  2 active torsions:
  status: ('A' for Active; 'I' for Inactive)
    1  A    between atoms: C_5  and  C_30
    2  A    between atoms: C_10  and  N_16
                            x       y       z     vdW  Elec       q    Type
                         _______ _______ _______ _____ _____    ______ ____

>  <TORSDO>
F 2

$$$$
=
 OpenBabel11112417013D

 31 35  0  0  1  0  0  0  0  0999 V2000
  186.1730  178.1860  140.8920 C   0  0  0  0  0  0  0  0  0  0  0  0
  188.4910  177.9160  143.8980 C   0  0  2  0  0  3  0  0  0  0  0  0
  187.5950  177.6810  145.1120 C   0  0  0  0  0  0  0  0  0  0  0  0
  185.3130  177.7500  146.2020 C   0  0  0  0  0  0  0  0  0  0  0  0
  187.8140  177.5950  142.5840 C   0  0  0  0  0  0  0  0  0  0  0  0
  186.4660  177.0150  140.1910 C   0  0  0  0  0  3  0  0  0  0  0  0
  186.1540  178.1460  145.0260 C   0  0  0  0  0  2  0  0  0  0  0  0
  189.7300  175.7260  143.6910 C   0  0  2  0  0  3  0  0  0  0  0  0
  185.2330  179.0410  140.4200 F   0  0  0  0  0  0  0  0  0  0  0  0
  189.5560  176.8840  146.4620 C   0  0  0  0  0  2  0  0  0  0  0  0
  184.0620  177.8550  146.1380 O   0  0  0  0  0  0  0  0  0  0  0  0
  189.2570  175.5210  142.2530 C   0  0  0  0  0  2  0  0  0  0  0  0
  189.8610  177.2240  144.0020 C   0  0  2  0  0  3  0  0  0  0  0  0
  186.8470  178.4760  142.0800 C   0  0  0  0  0  3  0  0  0  0  0  0
  185.9430  177.2980  147.4440 C   0  0  0  0  0  3  0  0  0  0  0  0
  188.1160  176.4160  141.8650 C   0  0  0  0  0  0  0  0  0  0  0  0
  187.4410  176.1400  140.6720 C   0  0  0  0  0  3  0  0  0  0  0  0
  190.4530  177.4820  145.3850 C   0  0  0  0  0  2  0  0  0  0  0  0
  188.1150  177.2820  146.3030 C   0  0  0  0  0  0  0  0  0  0  0  0
  187.2560  177.0920  147.4860 C   0  0  0  0  0  3  0  0  0  0  0  0
  190.1710  173.4620  145.3660 O   0  0  0  0  0  0  0  0  0  0  0  0
  191.1600  173.9150  144.7270 C   0  0  0  0  0  0  0  0  0  0  0  0
  191.0090  175.0530  143.8780 N   0  0  0  0  0  2  0  0  0  0  0  0
  194.7260  174.8500  143.8150 N   0  0  0  0  0  0  0  0  0  0  0  0
  193.4400  174.0960  145.7630 C   0  0  0  0  0  2  0  0  0  0  0  0
  192.2820  172.3940  142.6280 F   0  0  0  0  0  0  0  0  0  0  0  0
  195.2420  176.0410  143.1660 C   0  0  0  0  0  1  0  0  0  0  0  0
  194.0130  175.2980  145.0090 C   0  0  0  0  0  2  0  0  0  0  0  0
  193.1750  172.9830  143.5060 C   0  0  2  0  0  3  0  0  0  0  0  0
  192.5110  173.2780  144.8590 C   0  0  2  0  0  3  0  0  0  0  0  0
  193.7600  174.2560  142.8940 C   0  0  0  0  0  2  0  0  0  0  0  0
  1 14  1  0  0  0  0
  2  5  1  6  0  0  0
  2 13  1  0  0  0  0
  2  3  1  0  0  0  0
  3 19  2  0  0  0  0
  4 15  1  0  0  0  0
  6 17  1  0  0  0  0
  6  1  2  0  0  0  0
  7  3  1  0  0  0  0
  7  4  1  0  0  0  0
  8 23  1  6  0  0  0
  8 13  1  0  0  0  0
  9  1  1  0  0  0  0
 11  4  2  0  0  0  0
 12  8  1  0  0  0  0
 13 18  1  1  0  0  0
 14  5  2  0  0  0  0
 15 20  2  0  0  0  0
 16 12  1  0  0  0  0
 16  5  1  0  0  0  0
 17 16  2  0  0  0  0
 18 10  1  0  0  0  0
 19 10  1  0  0  0  0
 19 20  1  0  0  0  0
 22 21  2  0  0  0  0
 23 22  1  0  0  0  0
 24 28  1  0  0  0  0
 27 24  1  0  0  0  0
 28 25  1  0  0  0  0
 29 26  1  6  0  0  0
 29 30  1  0  0  0  0
 30 22  1  6  0  0  0
 30 25  1  0  0  0  0
 31 29  1  0  0  0  0
 31 24  1  0  0  0  0
M  END
>  <MODEL>
4

>  <REMARK>
 VINA RESULT:      -8.4      2.310      4.315
  Name = 
  2 active torsions:
  status: ('A' for Active; 'I' for Inactive)
    1  A    between atoms: C_5  and  C_30
    2  A    between atoms: C_10  and  N_16
                            x       y       z     vdW  Elec       q    Type
                         _______ _______ _______ _____ _____    ______ ____

>  <TORSDO>
F 2

$$$$
=
 OpenBabel11112417013D

 31 35  0  0  1  0  0  0  0  0999 V2000
  191.9410  173.1700  141.5660 C   0  0  0  0  0  0  0  0  0  0  0  0
  191.1760  174.0730  145.1830 C   0  0  2  0  0  3  0  0  0  0  0  0
  192.2620  175.0530  145.6200 C   0  0  0  0  0  0  0  0  0  0  0  0
  194.5370  176.1040  145.2770 C   0  0  0  0  0  0  0  0  0  0  0  0
  191.0410  173.9600  143.6800 C   0  0  0  0  0  0  0  0  0  0  0  0
  190.8890  173.7840  140.8830 C   0  0  0  0  0  3  0  0  0  0  0  0
  193.5850  175.0170  144.8790 C   0  0  0  0  0  2  0  0  0  0  0  0
  189.1020  175.5120  145.1710 C   0  0  2  0  0  3  0  0  0  0  0  0
  192.8920  172.4930  140.8780 F   0  0  0  0  0  0  0  0  0  0  0  0
  190.8780  175.7810  147.5840 C   0  0  0  0  0  2  0  0  0  0  0  0
  195.5530  176.3330  144.5720 O   0  0  0  0  0  0  0  0  0  0  0  0
  188.8090  175.1900  143.7060 C   0  0  0  0  0  2  0  0  0  0  0  0
  189.8120  174.3300  145.8460 C   0  0  2  0  0  3  0  0  0  0  0  0
  192.0130  173.2550  142.9580 C   0  0  0  0  0  3  0  0  0  0  0  0
  194.3250  176.8590  146.5140 C   0  0  0  0  0  3  0  0  0  0  0  0
  189.9720  174.5710  142.9860 C   0  0  0  0  0  0  0  0  0  0  0  0
  189.9040  174.4720  141.5930 C   0  0  0  0  0  3  0  0  0  0  0  0
  190.0130  174.5510  147.3430 C   0  0  0  0  0  2  0  0  0  0  0  0
  192.1400  175.7710  146.7680 C   0  0  0  0  0  0  0  0  0  0  0  0
  193.2050  176.6900  147.2110 C   0  0  0  0  0  3  0  0  0  0  0  0
  188.5930  177.8590  146.7080 O   0  0  0  0  0  0  0  0  0  0  0  0
  187.6590  177.0160  146.6040 C   0  0  0  0  0  0  0  0  0  0  0  0
  187.8520  175.8150  145.8560 N   0  0  0  0  0  2  0  0  0  0  0  0
  184.3970  178.7340  145.6920 N   0  0  0  0  0  0  0  0  0  0  0  0
  185.1900  176.5680  146.5270 C   0  0  0  0  0  2  0  0  0  0  0  0
  187.1380  179.3990  148.0280 F   0  0  0  0  0  0  0  0  0  0  0  0
  184.0170  179.4310  144.4780 C   0  0  0  0  0  1  0  0  0  0  0  0
  184.7800  177.3800  145.2960 C   0  0  0  0  0  2  0  0  0  0  0  0
  186.0380  178.7410  147.5070 C   0  0  2  0  0  3  0  0  0  0  0  0
  186.3390  177.2530  147.2740 C   0  0  2  0  0  3  0  0  0  0  0  0
  185.5780  179.4150  146.2150 C   0  0  0  0  0  2  0  0  0  0  0  0
  1 14  1  0  0  0  0
  2  5  1  6  0  0  0
  2  3  1  0  0  0  0
  2 13  1  0  0  0  0
  3 19  2  0  0  0  0
  4 15  1  0  0  0  0
  6  1  2  0  0  0  0
  6 17  1  0  0  0  0
  7  4  1  0  0  0  0
  7  3  1  0  0  0  0
  8 13  1  0  0  0  0
  8 23  1  1  0  0  0
  9  1  1  0  0  0  0
 11  4  2  0  0  0  0
 12  8  1  0  0  0  0
 13 18  1  1  0  0  0
 14  5  2  0  0  0  0
 15 20  2  0  0  0  0
 16  5  1  0  0  0  0
 16 12  1  0  0  0  0
 17 16  2  0  0  0  0
 18 10  1  0  0  0  0
 19 20  1  0  0  0  0
 19 10  1  0  0  0  0
 22 21  2  0  0  0  0
 23 22  1  0  0  0  0
 24 31  1  0  0  0  0
 25 30  1  0  0  0  0
 27 24  1  0  0  0  0
 28 24  1  0  0  0  0
 28 25  1  0  0  0  0
 29 26  1  6  0  0  0
 30 22  1  6  0  0  0
 30 29  1  0  0  0  0
 31 29  1  0  0  0  0
M  END
>  <MODEL>
5

>  <REMARK>
 VINA RESULT:      -7.9      2.755      7.846
  Name = 
  2 active torsions:
  status: ('A' for Active; 'I' for Inactive)
    1  A    between atoms: C_5  and  C_30
    2  A    between atoms: C_10  and  N_16
                            x       y       z     vdW  Elec       q    Type
                         _______ _______ _______ _____ _____    ______ ____

>  <TORSDO>
F 2

$$$$
=
 OpenBabel11112417013D

 31 35  0  0  1  0  0  0  0  0999 V2000
  186.2130  177.2450  142.4070 C   0  0  0  0  0  0  0  0  0  0  0  0
  188.9300  174.9480  143.7580 C   0  0  2  0  0  3  0  0  0  0  0  0
  189.2210  173.9320  142.6560 C   0  0  0  0  0  0  0  0  0  0  0  0
  188.5490  172.7630  140.5150 C   0  0  0  0  0  0  0  0  0  0  0  0
  188.2320  176.1930  143.2550 C   0  0  0  0  0  0  0  0  0  0  0  0
  186.9030  178.4480  142.2420 C   0  0  0  0  0  3  0  0  0  0  0  0
  188.1290  173.6640  141.6380 C   0  0  0  0  0  2  0  0  0  0  0  0
  191.0650  176.2910  143.8520 C   0  0  2  0  0  3  0  0  0  0  0  0
  184.9020  177.1650  142.0730 F   0  0  0  0  0  0  0  0  0  0  0  0
  191.3930  173.3020  143.7470 C   0  0  0  0  0  2  0  0  0  0  0  0
  187.8280  172.6660  139.4900 O   0  0  0  0  0  0  0  0  0  0  0  0
  190.3260  177.6040  143.6020 C   0  0  0  0  0  2  0  0  0  0  0  0
  190.1620  175.3040  144.6070 C   0  0  2  0  0  3  0  0  0  0  0  0
  186.8740  176.1250  142.9150 C   0  0  0  0  0  3  0  0  0  0  0  0
  189.7630  171.9520  140.6310 C   0  0  0  0  0  3  0  0  0  0  0  0
  188.9250  177.4140  143.0970 C   0  0  0  0  0  0  0  0  0  0  0  0
  188.2510  178.5330  142.5950 C   0  0  0  0  0  3  0  0  0  0  0  0
  190.8960  174.0240  144.9940 C   0  0  0  0  0  2  0  0  0  0  0  0
  190.3180  173.1300  142.7100 C   0  0  0  0  0  0  0  0  0  0  0  0
  190.5800  172.1220  141.6660 C   0  0  0  0  0  3  0  0  0  0  0  0
  193.7260  175.8410  142.9310 O   0  0  0  0  0  0  0  0  0  0  0  0
  193.5830  176.3190  144.0900 C   0  0  0  0  0  0  0  0  0  0  0  0
  192.2780  176.5580  144.6150 N   0  0  0  0  0  2  0  0  0  0  0  0
  196.8130  174.5470  145.0160 N   0  0  0  0  0  0  0  0  0  0  0  0
  196.0650  176.7010  144.1100 C   0  0  0  0  0  2  0  0  0  0  0  0
  193.7370  175.4680  146.7790 F   0  0  0  0  0  0  0  0  0  0  0  0
  197.3070  173.2410  144.6230 C   0  0  0  0  0  1  0  0  0  0  0  0
  196.5830  175.2980  143.7840 C   0  0  0  0  0  2  0  0  0  0  0  0
  194.9410  175.6660  146.1270 C   0  0  2  0  0  3  0  0  0  0  0  0
  194.7790  176.6280  144.9400 C   0  0  2  0  0  3  0  0  0  0  0  0
  195.5260  174.3290  145.6720 C   0  0  0  0  0  2  0  0  0  0  0  0
  1 14  1  0  0  0  0
  2  3  1  6  0  0  0
  2 13  1  0  0  0  0
  3 19  2  0  0  0  0
  4 15  1  0  0  0  0
  4  7  1  0  0  0  0
  5  2  1  0  0  0  0
  6  1  2  0  0  0  0
  6 17  1  0  0  0  0
  7  3  1  0  0  0  0
  8 13  1  0  0  0  0
  8 23  1  1  0  0  0
  9  1  1  0  0  0  0
 10 18  1  0  0  0  0
 11  4  2  0  0  0  0
 12  8  1  0  0  0  0
 13 18  1  6  0  0  0
 14  5  2  0  0  0  0
 15 20  2  0  0  0  0
 16  5  1  0  0  0  0
 16 12  1  0  0  0  0
 17 16  2  0  0  0  0
 19 10  1  0  0  0  0
 20 19  1  0  0  0  0
 21 22  2  0  0  0  0
 22 23  1  0  0  0  0
 24 31  1  0  0  0  0
 25 30  1  0  0  0  0
 27 24  1  0  0  0  0
 28 25  1  0  0  0  0
 28 24  1  0  0  0  0
 29 26  1  6  0  0  0
 30 22  1  6  0  0  0
 30 29  1  0  0  0  0
 31 29  1  0  0  0  0
M  END
>  <MODEL>
6

>  <REMARK>
 VINA RESULT:      -7.8      2.856      3.499
  Name = 
  2 active torsions:
  status: ('A' for Active; 'I' for Inactive)
    1  A    between atoms: C_5  and  C_30
    2  A    between atoms: C_10  and  N_16
                            x       y       z     vdW  Elec       q    Type
                         _______ _______ _______ _____ _____    ______ ____

>  <TORSDO>
F 2

$$$$
=
 OpenBabel11112417013D

 31 35  0  0  1  0  0  0  0  0999 V2000
  186.4000  177.9360  140.9340 C   0  0  0  0  0  0  0  0  0  0  0  0
  188.6640  177.7930  143.9910 C   0  0  2  0  0  3  0  0  0  0  0  0
  187.7520  177.5340  145.1880 C   0  0  0  0  0  0  0  0  0  0  0  0
  185.4470  177.5180  146.2300 C   0  0  0  0  0  0  0  0  0  0  0  0
  188.0280  177.4310  142.6660 C   0  0  0  0  0  0  0  0  0  0  0  0
  186.7570  176.7710  140.2520 C   0  0  0  0  0  3  0  0  0  0  0  0
  186.2950  177.9370  145.0670 C   0  0  0  0  0  2  0  0  0  0  0  0
  189.9970  175.6550  143.8340 C   0  0  2  0  0  3  0  0  0  0  0  0
  185.4360  178.7460  140.4340 F   0  0  0  0  0  0  0  0  0  0  0  0
  189.7160  176.8340  146.5880 C   0  0  0  0  0  2  0  0  0  0  0  0
  184.1940  177.5700  146.1380 O   0  0  0  0  0  0  0  0  0  0  0  0
  189.5630  175.4160  142.3890 C   0  0  0  0  0  2  0  0  0  0  0  0
  190.0580  177.1610  144.1310 C   0  0  2  0  0  3  0  0  0  0  0  0
  187.0360  178.2650  142.1330 C   0  0  0  0  0  3  0  0  0  0  0  0
  186.0680  177.1060  147.4900 C   0  0  0  0  0  3  0  0  0  0  0  0
  188.3940  176.2580  141.9680 C   0  0  0  0  0  0  0  0  0  0  0  0
  187.7570  175.9420  140.7630 C   0  0  0  0  0  3  0  0  0  0  0  0
  190.6090  177.4570  145.5230 C   0  0  0  0  0  2  0  0  0  0  0  0
  188.2630  177.1690  146.3940 C   0  0  0  0  0  0  0  0  0  0  0  0
  187.3880  176.9550  147.5620 C   0  0  0  0  0  3  0  0  0  0  0  0
  192.4320  176.4480  142.5810 O   0  0  0  0  0  0  0  0  0  0  0  0
  192.4830  175.4910  143.4020 C   0  0  0  0  0  0  0  0  0  0  0  0
  191.2970  175.0380  144.0550 N   0  0  0  0  0  2  0  0  0  0  0  0
  193.6020  171.9210  144.0590 N   0  0  0  0  0  0  0  0  0  0  0  0
  194.1580  173.8050  142.5890 C   0  0  0  0  0  2  0  0  0  0  0  0
  193.3220  174.9830  146.0500 F   0  0  0  0  0  0  0  0  0  0  0  0
  192.8280  170.6960  144.1190 C   0  0  0  0  0  1  0  0  0  0  0  0
  193.3660  172.5040  142.7410 C   0  0  0  0  0  2  0  0  0  0  0  0
  193.8200  174.1370  145.0750 C   0  0  2  0  0  3  0  0  0  0  0  0
  193.7840  174.8020  143.6910 C   0  0  2  0  0  3  0  0  0  0  0  0
  193.0460  172.8190  145.0690 C   0  0  0  0  0  2  0  0  0  0  0  0
  1 14  1  0  0  0  0
  2  5  1  6  0  0  0
  2 13  1  0  0  0  0
  2  3  1  0  0  0  0
  3 19  2  0  0  0  0
  4 15  1  0  0  0  0
  6 17  1  0  0  0  0
  6  1  2  0  0  0  0
  7  3  1  0  0  0  0
  7  4  1  0  0  0  0
  8 23  1  6  0  0  0
  8 13  1  0  0  0  0
  9  1  1  0  0  0  0
 11  4  2  0  0  0  0
 12  8  1  0  0  0  0
 13 18  1  1  0  0  0
 14  5  2  0  0  0  0
 15 20  2  0  0  0  0
 16 12  1  0  0  0  0
 16  5  1  0  0  0  0
 17 16  2  0  0  0  0
 18 10  1  0  0  0  0
 19 10  1  0  0  0  0
 19 20  1  0  0  0  0
 21 22  2  0  0  0  0
 22 23  1  0  0  0  0
 24 27  1  0  0  0  0
 24 31  1  0  0  0  0
 25 28  1  0  0  0  0
 25 30  1  0  0  0  0
 28 24  1  0  0  0  0
 29 26  1  1  0  0  0
 30 22  1  6  0  0  0
 30 29  1  0  0  0  0
 31 29  1  0  0  0  0
M  END
>  <MODEL>
7

>  <REMARK>
 VINA RESULT:      -7.4      2.433      4.517
  Name = 
  2 active torsions:
  status: ('A' for Active; 'I' for Inactive)
    1  A    between atoms: C_5  and  C_30
    2  A    between atoms: C_10  and  N_16
                            x       y       z     vdW  Elec       q    Type
                         _______ _______ _______ _____ _____    ______ ____

>  <TORSDO>
F 2

$$$$
=
 OpenBabel11112417013D

 31 35  0  0  1  0  0  0  0  0999 V2000
  186.5370  177.8650  147.3570 C   0  0  0  0  0  0  0  0  0  0  0  0
  188.0720  175.6150  144.6990 C   0  0  2  0  0  3  0  0  0  0  0  0
  187.6540  176.1950  143.3500 C   0  0  0  0  0  0  0  0  0  0  0  0
  186.1420  177.6890  141.9770 C   0  0  0  0  0  0  0  0  0  0  0  0
  187.9530  176.6030  145.8380 C   0  0  0  0  0  0  0  0  0  0  0  0
  187.6630  178.4880  147.8980 C   0  0  0  0  0  3  0  0  0  0  0  0
  186.3980  177.0460  143.3070 C   0  0  0  0  0  2  0  0  0  0  0  0
  190.5640  176.0180  144.7270 C   0  0  2  0  0  3  0  0  0  0  0  0
  185.3030  178.1750  147.8220 F   0  0  0  0  0  0  0  0  0  0  0  0
  189.4420  174.8810  142.1780 C   0  0  0  0  0  2  0  0  0  0  0  0
  185.2860  178.6040  141.8820 O   0  0  0  0  0  0  0  0  0  0  0  0
  190.4860  176.8050  146.0340 C   0  0  0  0  0  2  0  0  0  0  0  0
  189.4600  174.9510  144.6790 C   0  0  2  0  0  3  0  0  0  0  0  0
  186.6830  176.9240  146.3350 C   0  0  0  0  0  3  0  0  0  0  0  0
  186.8390  177.2160  140.7800 C   0  0  0  0  0  3  0  0  0  0  0  0
  189.0920  177.2280  146.3960 C   0  0  0  0  0  0  0  0  0  0  0  0
  188.9360  178.1620  147.4240 C   0  0  0  0  0  3  0  0  0  0  0  0
  189.5720  174.0530  143.4500 C   0  0  0  0  0  2  0  0  0  0  0  0
  188.2430  175.7870  142.1950 C   0  0  0  0  0  0  0  0  0  0  0  0
  187.8140  176.3180  140.8880 C   0  0  0  0  0  3  0  0  0  0  0  0
  192.5260  176.6530  142.7590 O   0  0  0  0  0  0  0  0  0  0  0  0
  192.8190  175.7690  143.6090 C   0  0  0  0  0  0  0  0  0  0  0  0
  191.8770  175.3970  144.6160 N   0  0  0  0  0  2  0  0  0  0  0  0
  195.4080  174.9750  140.9460 N   0  0  0  0  0  0  0  0  0  0  0  0
  195.2730  176.0410  143.1520 C   0  0  0  0  0  2  0  0  0  0  0  0
  193.0470  173.0290  142.9600 F   0  0  0  0  0  0  0  0  0  0  0  0
  195.4040  175.2640  139.5250 C   0  0  0  0  0  1  0  0  0  0  0  0
  195.2690  176.2560  141.6360 C   0  0  0  0  0  2  0  0  0  0  0  0
  194.1540  173.8170  142.7000 C   0  0  2  0  0  3  0  0  0  0  0  0
  194.1520  175.0830  143.5690 C   0  0  2  0  0  3  0  0  0  0  0  0
  194.2170  174.1720  141.2150 C   0  0  0  0  0  2  0  0  0  0  0  0
  1  9  1  0  0  0  0
  1  6  1  0  0  0  0
  2  3  1  6  0  0  0
  2  5  1  0  0  0  0
  4  7  1  0  0  0  0
  5 14  1  0  0  0  0
  5 16  2  0  0  0  0
  7  3  1  0  0  0  0
  8 23  1  1  0  0  0
  8 12  1  0  0  0  0
 10 19  1  0  0  0  0
 10 18  1  0  0  0  0
 11  4  2  0  0  0  0
 12 16  1  0  0  0  0
 13 18  1  6  0  0  0
 13  2  1  0  0  0  0
 13  8  1  0  0  0  0
 14  1  2  0  0  0  0
 15 20  2  0  0  0  0
 15  4  1  0  0  0  0
 16 17  1  0  0  0  0
 17  6  2  0  0  0  0
 19  3  2  0  0  0  0
 20 19  1  0  0  0  0
 21 22  2  0  0  0  0
 22 23  1  0  0  0  0
 24 31  1  0  0  0  0
 24 28  1  0  0  0  0
 25 30  1  0  0  0  0
 27 24  1  0  0  0  0
 28 25  1  0  0  0  0
 29 26  1  6  0  0  0
 29 30  1  0  0  0  0
 30 22  1  6  0  0  0
 31 29  1  0  0  0  0
M  END
>  <MODEL>
8

>  <REMARK>
 VINA RESULT:      -7.4      1.722      2.199
  Name = 
  2 active torsions:
  status: ('A' for Active; 'I' for Inactive)
    1  A    between atoms: C_5  and  C_30
    2  A    between atoms: C_10  and  N_16
                            x       y       z     vdW  Elec       q    Type
                         _______ _______ _______ _____ _____    ______ ____

>  <TORSDO>
F 2

$$$$
=
 OpenBabel11112417013D

 31 35  0  0  1  0  0  0  0  0999 V2000
  190.0020  171.7620  141.9030 C   0  0  0  0  0  0  0  0  0  0  0  0
  189.6870  174.6290  144.3860 C   0  0  2  0  0  3  0  0  0  0  0  0
  191.0350  175.3460  144.3880 C   0  0  0  0  0  0  0  0  0  0  0  0
  193.5070  175.3740  143.8510 C   0  0  0  0  0  0  0  0  0  0  0  0
  189.4670  173.7720  143.1590 C   0  0  0  0  0  0  0  0  0  0  0  0
  189.1600  172.1770  140.8690 C   0  0  0  0  0  3  0  0  0  0  0  0
  192.2550  174.5560  143.9540 C   0  0  0  0  0  2  0  0  0  0  0  0
  188.1480  176.3440  143.3560 C   0  0  2  0  0  3  0  0  0  0  0  0
  190.6760  170.5910  141.7990 F   0  0  0  0  0  0  0  0  0  0  0  0
  190.0140  177.3600  145.4850 C   0  0  0  0  0  2  0  0  0  0  0  0
  194.5160  174.8990  143.2690 O   0  0  0  0  0  0  0  0  0  0  0  0
  187.7150  175.3840  142.2490 C   0  0  0  0  0  2  0  0  0  0  0  0
  188.4920  175.5650  144.6340 C   0  0  2  0  0  3  0  0  0  0  0  0
  190.1500  172.5540  143.0430 C   0  0  0  0  0  3  0  0  0  0  0  0
  193.5810  176.6960  144.4740 C   0  0  0  0  0  3  0  0  0  0  0  0
  188.6070  174.1840  142.1150 C   0  0  0  0  0  0  0  0  0  0  0  0
  188.4590  173.3780  140.9820 C   0  0  0  0  0  3  0  0  0  0  0  0
  188.8080  176.4870  145.8080 C   0  0  0  0  0  2  0  0  0  0  0  0
  191.1820  176.5670  144.9670 C   0  0  0  0  0  0  0  0  0  0  0  0
  192.4910  177.2440  145.0030 C   0  0  0  0  0  3  0  0  0  0  0  0
  187.2190  178.3150  141.5170 O   0  0  0  0  0  0  0  0  0  0  0  0
  186.6530  178.2550  142.6430 C   0  0  0  0  0  0  0  0  0  0  0  0
  187.0770  177.2970  143.6130 N   0  0  0  0  0  2  0  0  0  0  0  0
  184.5310  178.9780  145.7090 N   0  0  0  0  0  0  0  0  0  0  0  0
  185.9400  180.1750  144.0960 C   0  0  0  0  0  2  0  0  0  0  0  0
  183.9460  177.4780  142.4190 F   0  0  0  0  0  0  0  0  0  0  0  0
  184.5500  178.3650  147.0230 C   0  0  0  0  0  1  0  0  0  0  0  0
  185.8750  179.4990  145.4680 C   0  0  0  0  0  2  0  0  0  0  0  0
  184.2250  178.4780  143.3330 C   0  0  2  0  0  3  0  0  0  0  0  0
  185.5370  179.1970  142.9870 C   0  0  2  0  0  3  0  0  0  0  0  0
  184.2700  177.9070  144.7500 C   0  0  0  0  0  2  0  0  0  0  0  0
  1 14  1  0  0  0  0
  2  5  1  6  0  0  0
  2  3  1  0  0  0  0
  2 13  1  0  0  0  0
  3 19  2  0  0  0  0
  4  7  1  0  0  0  0
  4 15  1  0  0  0  0
  6 17  1  0  0  0  0
  6  1  2  0  0  0  0
  7  3  1  0  0  0  0
  8 23  1  1  0  0  0
  8 13  1  0  0  0  0
  9  1  1  0  0  0  0
 10 18  1  0  0  0  0
 11  4  2  0  0  0  0
 12  8  1  0  0  0  0
 13 18  1  1  0  0  0
 14  5  2  0  0  0  0
 15 20  2  0  0  0  0
 16 12  1  0  0  0  0
 16  5  1  0  0  0  0
 17 16  2  0  0  0  0
 19 20  1  0  0  0  0
 19 10  1  0  0  0  0
 21 22  2  0  0  0  0
 22 23  1  0  0  0  0
 24 27  1  0  0  0  0
 25 28  1  0  0  0  0
 28 24  1  0  0  0  0
 29 26  1  6  0  0  0
 29 31  1  0  0  0  0
 30 22  1  1  0  0  0
 30 29  1  0  0  0  0
 30 25  1  0  0  0  0
 31 24  1  0  0  0  0
M  END
>  <MODEL>
9

>  <REMARK>
 VINA RESULT:      -7.4      2.848      7.806
  Name = 
  2 active torsions:
  status: ('A' for Active; 'I' for Inactive)
    1  A    between atoms: C_5  and  C_30
    2  A    between atoms: C_10  and  N_16
                            x       y       z     vdW  Elec       q    Type
                         _______ _______ _______ _____ _____    ______ ____

>  <TORSDO>
F 2

$$$$
