=
 OpenBabel11112417533D

 34 41  0  0  1  0  0  0  0  0999 V2000
  189.2840  175.1360  142.7140 C   0  0  0  0  0  0  0  0  0  0  0  0
  191.3880  173.6500  142.6170 C   0  0  0  0  0  3  0  0  0  0  0  0
  184.7390  178.2000  145.9830 C   0  0  1  0  0  3  0  0  0  0  0  0
  187.3460  176.5950  143.0140 C   0  0  0  0  0  0  0  0  0  0  0  0
  186.9370  177.5330  145.2200 C   0  0  0  0  0  0  0  0  0  0  0  0
  186.1150  178.2480  147.6030 C   0  0  0  0  0  2  0  0  0  0  0  0
  184.5920  178.2910  147.4860 C   0  0  0  0  0  2  0  0  0  0  0  0
  184.8050  179.3670  143.8900 C   0  0  0  0  0  2  0  0  0  0  0  0
  190.7810  174.6860  144.6460 C   0  0  0  0  0  0  0  0  0  0  0  0
  192.8970  175.3910  146.8890 C   0  0  0  0  0  2  0  0  0  0  0  0
  188.0550  176.9140  145.6830 N   0  0  0  0  0  0  0  0  0  0  0  0
  185.2600  178.0140  143.2860 C   0  0  0  0  0  2  0  0  0  0  0  0
  190.0350  175.4560  145.4560 C   0  0  0  0  0  0  0  0  0  0  0  0
  192.4060  173.2470  143.6960 C   0  0  0  0  0  3  0  0  0  0  0  0
  186.5580  177.4140  143.8490 C   0  0  0  0  0  0  0  0  0  0  0  0
  184.1090  179.2490  145.1910 N   0  0  0  0  0  2  0  0  0  0  0  0
  193.1220  174.9400  145.4470 C   0  0  2  0  0  3  0  0  0  0  0  0
  188.4870  175.9520  143.5390 C   0  0  0  0  0  0  0  0  0  0  0  0
  186.2090  178.4840  146.1080 C   0  0  2  0  0  3  0  0  0  0  0  0
  188.8290  176.1240  144.8950 C   0  0  0  0  0  0  0  0  0  0  0  0
  187.8160  175.5910  140.8450 C   0  0  0  0  0  3  0  0  0  0  0  0
  191.7420  176.3760  147.0160 C   0  0  0  0  0  2  0  0  0  0  0  0
  187.0230  176.4030  141.6610 C   0  0  0  0  0  3  0  0  0  0  0  0
  190.4050  175.6580  146.8940 C   0  0  0  0  0  2  0  0  0  0  0  0
  192.0260  173.9570  145.0100 C   0  0  1  0  0  3  0  0  0  0  0  0
  188.9460  174.9590  141.3680 C   0  0  0  0  0  3  0  0  0  0  0  0
  190.4340  174.5030  143.2900 N   0  0  0  0  0  0  0  0  0  0  0  0
  194.3790  174.3340  145.3640 O   0  0  0  0  0  0  0  0  0  0  0  0
  195.2750  175.3910  145.1840 C   0  0  0  0  0  2  0  0  0  0  0  0
  197.6040  176.1560  143.0500 O   0  0  0  0  0  0  0  0  0  0  0  0
  195.8660  174.5640  142.9310 C   0  0  0  0  0  2  0  0  0  0  0  0
  195.3660  175.7460  143.7110 C   0  0  2  0  0  3  0  0  0  0  0  0
  197.1520  175.0550  142.3100 C   0  0  0  0  0  2  0  0  0  0  0  0
  196.4410  176.7910  143.5130 C   0  0  0  0  0  2  0  0  0  0  0  0
  1 27  1  0  0  0  0
  1 18  1  0  0  0  0
  2 27  1  0  0  0  0
  2 14  2  0  0  0  0
  3 19  1  0  0  0  0
  3  7  1  1  0  0  0
  4 18  2  0  0  0  0
  4 15  1  0  0  0  0
  5 11  1  0  0  0  0
  5 19  1  0  0  0  0
  7  6  1  0  0  0  0
  8 16  1  0  0  0  0
  9 25  1  0  0  0  0
  9 13  2  0  0  0  0
 10 22  1  0  0  0  0
 12 15  1  0  0  0  0
 12  8  1  0  0  0  0
 13 24  1  0  0  0  0
 15  5  2  0  0  0  0
 16  3  1  0  0  0  0
 17 28  1  1  0  0  0
 17 10  1  0  0  0  0
 18 20  1  0  0  0  0
 19  6  1  1  0  0  0
 20 13  1  0  0  0  0
 20 11  2  0  0  0  0
 21 26  1  0  0  0  0
 21 23  2  0  0  0  0
 23  4  1  0  0  0  0
 24 22  1  0  0  0  0
 25 14  1  6  0  0  0
 25 17  1  0  0  0  0
 26  1  2  0  0  0  0
 27  9  1  0  0  0  0
 29 28  1  0  0  0  0
 30 34  1  0  0  0  0
 31 32  1  0  0  0  0
 32 29  1  1  0  0  0
 33 31  1  0  0  0  0
 33 30  1  0  0  0  0
 34 32  1  0  0  0  0
M  END
>  <MODEL>
1

>  <REMARK>
 VINA RESULT:      -9.1      0.000      0.000
  Name = 
  3 active torsions:
  status: ('A' for Active; 'I' for Inactive)
    1  A    between atoms: C_17  and  O_28
    2  A    between atoms: O_28  and  C_29
    3  A    between atoms: C_29  and  C_32
                            x       y       z     vdW  Elec       q    Type
                         _______ _______ _______ _____ _____    ______ ____

>  <TORSDO>
F 3

$$$$
=
 OpenBabel11112417533D

 34 41  0  0  1  0  0  0  0  0999 V2000
  189.2030  174.9780  142.6690 C   0  0  0  0  0  0  0  0  0  0  0  0
  191.2280  173.3850  142.6140 C   0  0  0  0  0  3  0  0  0  0  0  0
  184.6960  178.1980  145.8400 C   0  0  1  0  0  3  0  0  0  0  0  0
  187.3330  176.5310  142.9330 C   0  0  0  0  0  0  0  0  0  0  0  0
  186.8850  177.4340  145.1450 C   0  0  0  0  0  0  0  0  0  0  0  0
  186.0070  178.1330  147.5120 C   0  0  0  0  0  2  0  0  0  0  0  0
  184.4940  178.2590  147.3380 C   0  0  0  0  0  2  0  0  0  0  0  0
  184.9070  179.4120  143.7830 C   0  0  0  0  0  2  0  0  0  0  0  0
  190.5950  174.4010  144.6440 C   0  0  0  0  0  0  0  0  0  0  0  0
  192.6540  174.9380  146.9870 C   0  0  0  0  0  2  0  0  0  0  0  0
  187.9500  176.7450  145.6350 N   0  0  0  0  0  0  0  0  0  0  0  0
  185.3150  178.0510  143.1620 C   0  0  0  0  0  2  0  0  0  0  0  0
  189.8590  175.1900  145.4460 C   0  0  0  0  0  0  0  0  0  0  0  0
  192.1790  172.9020  143.7200 C   0  0  0  0  0  3  0  0  0  0  0  0
  186.5560  177.3690  143.7580 C   0  0  0  0  0  0  0  0  0  0  0  0
  184.1530  179.2980  145.0530 N   0  0  0  0  0  2  0  0  0  0  0  0
  192.9120  174.5110  145.5430 C   0  0  2  0  0  3  0  0  0  0  0  0
  188.4170  175.8140  143.4840 C   0  0  0  0  0  0  0  0  0  0  0  0
  186.1730  178.4000  146.0300 C   0  0  2  0  0  3  0  0  0  0  0  0
  188.7120  175.9350  144.8560 C   0  0  0  0  0  0  0  0  0  0  0  0
  187.8360  175.5570  140.7570 C   0  0  0  0  0  3  0  0  0  0  0  0
  191.5470  175.9790  147.0950 C   0  0  0  0  0  2  0  0  0  0  0  0
  187.0540  176.3900  141.5630 C   0  0  0  0  0  3  0  0  0  0  0  0
  190.1810  175.3370  146.9020 C   0  0  0  0  0  2  0  0  0  0  0  0
  191.7850  173.5980  145.0370 C   0  0  1  0  0  3  0  0  0  0  0  0
  188.9100  174.8520  141.3070 C   0  0  0  0  0  3  0  0  0  0  0  0
  190.2940  174.2710  143.2720 N   0  0  0  0  0  0  0  0  0  0  0  0
  194.1380  173.8410  145.4920 O   0  0  0  0  0  0  0  0  0  0  0  0
  195.0950  174.8250  145.7550 C   0  0  0  0  0  2  0  0  0  0  0  0
  196.9950  172.2100  146.0930 O   0  0  0  0  0  0  0  0  0  0  0  0
  196.2930  173.3670  144.1590 C   0  0  0  0  0  2  0  0  0  0  0  0
  196.4570  174.3650  145.2690 C   0  0  2  0  0  3  0  0  0  0  0  0
  196.9470  172.1160  144.6950 C   0  0  0  0  0  2  0  0  0  0  0  0
  197.1410  173.5790  146.3640 C   0  0  0  0  0  2  0  0  0  0  0  0
  1 27  1  0  0  0  0
  1 18  1  0  0  0  0
  2 27  1  0  0  0  0
  2 14  2  0  0  0  0
  3 19  1  0  0  0  0
  3  7  1  1  0  0  0
  4 18  2  0  0  0  0
  4 15  1  0  0  0  0
  5 11  1  0  0  0  0
  5 19  1  0  0  0  0
  7  6  1  0  0  0  0
  8 16  1  0  0  0  0
  9 25  1  0  0  0  0
  9 13  2  0  0  0  0
 10 22  1  0  0  0  0
 12 15  1  0  0  0  0
 12  8  1  0  0  0  0
 13 24  1  0  0  0  0
 15  5  2  0  0  0  0
 16  3  1  0  0  0  0
 17 28  1  1  0  0  0
 17 10  1  0  0  0  0
 18 20  1  0  0  0  0
 19  6  1  1  0  0  0
 20 13  1  0  0  0  0
 20 11  2  0  0  0  0
 21 26  1  0  0  0  0
 21 23  2  0  0  0  0
 23  4  1  0  0  0  0
 24 22  1  0  0  0  0
 25 14  1  6  0  0  0
 25 17  1  0  0  0  0
 26  1  2  0  0  0  0
 27  9  1  0  0  0  0
 28 29  1  0  0  0  0
 30 34  1  0  0  0  0
 31 33  1  0  0  0  0
 31 32  1  0  0  0  0
 32 29  1  1  0  0  0
 32 34  1  0  0  0  0
 33 30  1  0  0  0  0
M  END
>  <MODEL>
2

>  <REMARK>
 VINA RESULT:      -8.9      1.219      1.436
  Name = 
  3 active torsions:
  status: ('A' for Active; 'I' for Inactive)
    1  A    between atoms: C_17  and  O_28
    2  A    between atoms: O_28  and  C_29
    3  A    between atoms: C_29  and  C_32
                            x       y       z     vdW  Elec       q    Type
                         _______ _______ _______ _____ _____    ______ ____

>  <TORSDO>
F 3

$$$$
=
 OpenBabel11112417533D

 34 41  0  0  1  0  0  0  0  0999 V2000
  190.3720  174.4340  142.5000 C   0  0  0  0  0  0  0  0  0  0  0  0
  192.6950  173.3220  142.3970 C   0  0  0  0  0  3  0  0  0  0  0  0
  185.5520  177.0390  145.7730 C   0  0  1  0  0  3  0  0  0  0  0  0
  188.2280  175.5710  142.7950 C   0  0  0  0  0  0  0  0  0  0  0  0
  187.7860  176.6690  144.9190 C   0  0  0  0  0  0  0  0  0  0  0  0
  186.9870  177.5010  147.2710 C   0  0  0  0  0  2  0  0  0  0  0  0
  185.4760  177.2730  147.2650 C   0  0  0  0  0  2  0  0  0  0  0  0
  185.2940  177.9570  143.5730 C   0  0  0  0  0  2  0  0  0  0  0  0
  192.0310  174.4630  144.3500 C   0  0  0  0  0  0  0  0  0  0  0  0
  194.1140  175.7630  146.3450 C   0  0  0  0  0  2  0  0  0  0  0  0
  189.0200  176.3040  145.3570 N   0  0  0  0  0  0  0  0  0  0  0  0
  185.9450  176.6400  143.0780 C   0  0  0  0  0  2  0  0  0  0  0  0
  191.2090  175.1840  145.1310 C   0  0  0  0  0  0  0  0  0  0  0  0
  193.8270  173.2200  143.4310 C   0  0  0  0  0  3  0  0  0  0  0  0
  187.3580  176.3350  143.5990 C   0  0  0  0  0  0  0  0  0  0  0  0
  184.7040  177.8710  144.9290 N   0  0  0  0  0  2  0  0  0  0  0  0
  194.3330  175.1970  144.9430 C   0  0  2  0  0  3  0  0  0  0  0  0
  189.4920  175.1920  143.2950 C   0  0  0  0  0  0  0  0  0  0  0  0
  186.9540  177.5790  145.7580 C   0  0  2  0  0  3  0  0  0  0  0  0
  189.8740  175.5710  144.5970 C   0  0  0  0  0  0  0  0  0  0  0  0
  188.7440  174.4220  140.7090 C   0  0  0  0  0  3  0  0  0  0  0  0
  192.8140  176.5480  146.4570 C   0  0  0  0  0  2  0  0  0  0  0  0
  187.8680  175.1760  141.4960 C   0  0  0  0  0  3  0  0  0  0  0  0
  191.6180  175.6060  146.5100 C   0  0  0  0  0  2  0  0  0  0  0  0
  193.4030  174.0000  144.6920 C   0  0  1  0  0  3  0  0  0  0  0  0
  189.9950  174.0520  141.2080 C   0  0  0  0  0  3  0  0  0  0  0  0
  191.6460  174.0730  143.0490 N   0  0  0  0  0  0  0  0  0  0  0  0
  195.6700  174.8060  144.8280 O   0  0  0  0  0  0  0  0  0  0  0  0
  196.0050  174.3000  146.0860 C   0  0  0  0  0  2  0  0  0  0  0  0
  196.7510  171.4910  144.6300 O   0  0  0  0  0  0  0  0  0  0  0  0
  197.8670  173.5700  144.6340 C   0  0  0  0  0  2  0  0  0  0  0  0
  197.2130  173.3870  145.9720 C   0  0  2  0  0  3  0  0  0  0  0  0
  197.7740  172.2060  143.9940 C   0  0  0  0  0  2  0  0  0  0  0  0
  196.7540  171.9470  145.9570 C   0  0  0  0  0  2  0  0  0  0  0  0
  1 27  1  0  0  0  0
  1 18  1  0  0  0  0
  2 27  1  0  0  0  0
  2 14  2  0  0  0  0
  3  7  1  1  0  0  0
  4 18  2  0  0  0  0
  4 15  1  0  0  0  0
  5 11  1  0  0  0  0
  5 19  1  0  0  0  0
  7  6  1  0  0  0  0
  8 16  1  0  0  0  0
  9 25  1  0  0  0  0
  9 13  2  0  0  0  0
 10 22  1  0  0  0  0
 12  8  1  0  0  0  0
 12 15  1  0  0  0  0
 13 24  1  0  0  0  0
 15  5  2  0  0  0  0
 16  3  1  0  0  0  0
 17 28  1  1  0  0  0
 17 10  1  0  0  0  0
 18 20  1  0  0  0  0
 19  3  1  0  0  0  0
 19  6  1  1  0  0  0
 20 13  1  0  0  0  0
 20 11  2  0  0  0  0
 21 26  1  0  0  0  0
 21 23  2  0  0  0  0
 22 24  1  0  0  0  0
 23  4  1  0  0  0  0
 25 14  1  6  0  0  0
 25 17  1  0  0  0  0
 26  1  2  0  0  0  0
 27  9  1  0  0  0  0
 28 29  1  0  0  0  0
 30 34  1  0  0  0  0
 31 32  1  0  0  0  0
 32 29  1  6  0  0  0
 33 30  1  0  0  0  0
 33 31  1  0  0  0  0
 34 32  1  0  0  0  0
M  END
>  <MODEL>
3

>  <REMARK>
 VINA RESULT:      -8.9      1.656      2.045
  Name = 
  3 active torsions:
  status: ('A' for Active; 'I' for Inactive)
    1  A    between atoms: C_17  and  O_28
    2  A    between atoms: O_28  and  C_29
    3  A    between atoms: C_29  and  C_32
                            x       y       z     vdW  Elec       q    Type
                         _______ _______ _______ _____ _____    ______ ____

>  <TORSDO>
F 3

$$$$
=
 OpenBabel11112417533D

 34 41  0  0  1  0  0  0  0  0999 V2000
  189.4950  174.8630  141.9840 C   0  0  0  0  0  0  0  0  0  0  0  0
  187.0610  175.5390  142.4970 C   0  0  0  0  0  3  0  0  0  0  0  0
  195.7900  175.6730  142.6510 C   0  0  1  0  0  3  0  0  0  0  0  0
  191.8610  174.3270  141.6830 C   0  0  0  0  0  0  0  0  0  0  0  0
  193.4700  175.2970  143.2270 C   0  0  0  0  0  0  0  0  0  0  0  0
  195.3450  176.6010  144.5100 C   0  0  0  0  0  2  0  0  0  0  0  0
  196.4980  176.6940  143.5120 C   0  0  0  0  0  2  0  0  0  0  0  0
  195.5880  173.3710  142.0080 C   0  0  0  0  0  2  0  0  0  0  0  0
  188.8090  176.3420  143.8590 C   0  0  0  0  0  0  0  0  0  0  0  0
  188.3640  177.1580  146.8840 C   0  0  0  0  0  2  0  0  0  0  0  0
  192.4530  175.9020  143.8960 N   0  0  0  0  0  0  0  0  0  0  0  0
  194.3090  173.8190  141.2540 C   0  0  0  0  0  2  0  0  0  0  0  0
  190.0820  176.4830  144.2680 C   0  0  0  0  0  0  0  0  0  0  0  0
  186.4590  176.4450  143.5820 C   0  0  0  0  0  3  0  0  0  0  0  0
  193.2000  174.4580  142.1040 C   0  0  0  0  0  0  0  0  0  0  0  0
  196.5360  174.4700  142.3010 N   0  0  0  0  0  2  0  0  0  0  0  0
  187.4300  176.4180  145.9280 C   0  0  2  0  0  3  0  0  0  0  0  0
  190.8360  174.9900  142.3910 C   0  0  0  0  0  0  0  0  0  0  0  0
  194.8520  175.3660  143.7840 C   0  0  2  0  0  3  0  0  0  0  0  0
  191.1560  175.7860  143.5090 C   0  0  0  0  0  0  0  0  0  0  0  0
  190.1830  173.4210  140.1660 C   0  0  0  0  0  3  0  0  0  0  0  0
  189.8160  176.7220  146.7300 C   0  0  0  0  0  2  0  0  0  0  0  0
  191.5170  173.5440  140.5690 C   0  0  0  0  0  3  0  0  0  0  0  0
  190.4260  177.3130  145.4670 C   0  0  0  0  0  2  0  0  0  0  0  0
  187.6010  176.9370  144.4930 C   0  0  1  0  0  3  0  0  0  0  0  0
  189.1720  174.0780  140.8720 C   0  0  0  0  0  3  0  0  0  0  0  0
  188.4870  175.5540  142.7340 N   0  0  0  0  0  0  0  0  0  0  0  0
  186.1140  176.6090  146.3600 O   0  0  0  0  0  0  0  0  0  0  0  0
  186.2010  177.5920  147.3490 C   0  0  0  0  0  2  0  0  0  0  0  0
  185.3960  179.5840  144.9100 O   0  0  0  0  0  0  0  0  0  0  0  0
  184.0690  178.1430  146.2260 C   0  0  0  0  0  2  0  0  0  0  0  0
  185.1740  178.6800  147.0880 C   0  0  2  0  0  3  0  0  0  0  0  0
  184.1220  179.0040  144.9880 C   0  0  0  0  0  2  0  0  0  0  0  0
  185.7990  179.7660  146.2410 C   0  0  0  0  0  2  0  0  0  0  0  0
  1 18  1  0  0  0  0
  1 27  1  0  0  0  0
  2 27  1  0  0  0  0
  2 14  2  0  0  0  0
  3  7  1  1  0  0  0
  3 19  1  0  0  0  0
  4 15  2  0  0  0  0
  4 18  1  0  0  0  0
  5 19  1  0  0  0  0
  5 11  2  0  0  0  0
  7  6  1  0  0  0  0
  8 16  1  0  0  0  0
  9 13  2  0  0  0  0
  9 25  1  0  0  0  0
 12  8  1  0  0  0  0
 12 15  1  0  0  0  0
 13 24  1  0  0  0  0
 15  5  1  0  0  0  0
 16  3  1  0  0  0  0
 17 28  1  1  0  0  0
 17 10  1  0  0  0  0
 18 20  2  0  0  0  0
 19  6  1  1  0  0  0
 20 11  1  0  0  0  0
 20 13  1  0  0  0  0
 21 23  2  0  0  0  0
 21 26  1  0  0  0  0
 22 10  1  0  0  0  0
 23  4  1  0  0  0  0
 24 22  1  0  0  0  0
 25 14  1  6  0  0  0
 25 17  1  0  0  0  0
 26  1  2  0  0  0  0
 27  9  1  0  0  0  0
 28 29  1  0  0  0  0
 30 33  1  0  0  0  0
 30 34  1  0  0  0  0
 31 32  1  0  0  0  0
 32 29  1  6  0  0  0
 33 31  1  0  0  0  0
 34 32  1  0  0  0  0
M  END
>  <MODEL>
4

>  <REMARK>
 VINA RESULT:      -8.6      3.155      8.163
  Name = 
  3 active torsions:
  status: ('A' for Active; 'I' for Inactive)
    1  A    between atoms: C_17  and  O_28
    2  A    between atoms: O_28  and  C_29
    3  A    between atoms: C_29  and  C_32
                            x       y       z     vdW  Elec       q    Type
                         _______ _______ _______ _____ _____    ______ ____

>  <TORSDO>
F 3

$$$$
=
 OpenBabel11112417533D

 34 41  0  0  1  0  0  0  0  0999 V2000
  192.3690  175.8860  145.5200 C   0  0  0  0  0  0  0  0  0  0  0  0
  190.4230  177.5700  145.3670 C   0  0  0  0  0  3  0  0  0  0  0  0
  194.6290  169.9180  145.4350 C   0  0  1  0  0  3  0  0  0  0  0  0
  194.0860  174.1460  145.5560 C   0  0  0  0  0  0  0  0  0  0  0  0
  193.5120  171.9390  144.7120 C   0  0  0  0  0  0  0  0  0  0  0  0
  192.9260  169.4260  144.2640 C   0  0  0  0  0  2  0  0  0  0  0  0
  193.8500  168.6440  145.1970 C   0  0  0  0  0  2  0  0  0  0  0  0
  196.5410  171.2480  144.8630 C   0  0  0  0  0  2  0  0  0  0  0  0
  190.1210  175.3610  144.6010 C   0  0  0  0  0  0  0  0  0  0  0  0
  188.0160  174.6160  142.3600 C   0  0  0  0  0  2  0  0  0  0  0  0
  192.2640  172.3870  144.4110 N   0  0  0  0  0  0  0  0  0  0  0  0
  195.8760  172.3560  145.7200 C   0  0  0  0  0  2  0  0  0  0  0  0
  190.4810  174.0930  144.3350 C   0  0  0  0  0  0  0  0  0  0  0  0
  188.9820  177.4220  144.8570 C   0  0  0  0  0  3  0  0  0  0  0  0
  194.4820  172.8230  145.2750 C   0  0  0  0  0  0  0  0  0  0  0  0
  196.0610  169.8790  145.1610 N   0  0  0  0  0  2  0  0  0  0  0  0
  188.5080  175.9890  142.8150 C   0  0  2  0  0  3  0  0  0  0  0  0
  192.7740  174.5660  145.2490 C   0  0  0  0  0  0  0  0  0  0  0  0
  193.9190  170.5700  144.2830 C   0  0  2  0  0  3  0  0  0  0  0  0
  191.8640  173.6580  144.6710 C   0  0  0  0  0  0  0  0  0  0  0  0
  194.5660  176.3780  146.4070 C   0  0  0  0  0  3  0  0  0  0  0  0
  189.1370  173.5870  142.3020 C   0  0  0  0  0  2  0  0  0  0  0  0
  194.9730  175.0670  146.1380 C   0  0  0  0  0  3  0  0  0  0  0  0
  189.5230  173.1300  143.7020 C   0  0  0  0  0  2  0  0  0  0  0  0
  188.8000  175.9870  144.3220 C   0  0  1  0  0  3  0  0  0  0  0  0
  193.2670  176.7890  146.0980 C   0  0  0  0  0  3  0  0  0  0  0  0
  191.0280  176.2680  145.1900 N   0  0  0  0  0  0  0  0  0  0  0  0
  187.5240  176.9340  142.5110 O   0  0  0  0  0  0  0  0  0  0  0  0
  186.3160  176.3080  142.8300 C   0  0  0  0  0  2  0  0  0  0  0  0
  185.8920  178.6960  144.9940 O   0  0  0  0  0  0  0  0  0  0  0  0
  185.7020  178.6950  142.6420 C   0  0  0  0  0  2  0  0  0  0  0  0
  185.2610  177.3530  143.1480 C   0  0  2  0  0  3  0  0  0  0  0  0
  185.7770  179.5470  143.8860 C   0  0  0  0  0  2  0  0  0  0  0  0
  185.1770  177.5400  144.6460 C   0  0  0  0  0  2  0  0  0  0  0  0
  1 26  1  0  0  0  0
  3  7  1  6  0  0  0
  4 23  2  0  0  0  0
  5 15  2  0  0  0  0
  6  7  1  0  0  0  0
  8 16  1  0  0  0  0
  8 12  1  0  0  0  0
  9 27  1  0  0  0  0
 10 17  1  0  0  0  0
 11 20  2  0  0  0  0
 11  5  1  0  0  0  0
 13  9  2  0  0  0  0
 13 20  1  0  0  0  0
 14  2  2  0  0  0  0
 15  4  1  0  0  0  0
 15 12  1  0  0  0  0
 16  3  1  0  0  0  0
 17 28  1  1  0  0  0
 17 25  1  0  0  0  0
 18  1  2  0  0  0  0
 18  4  1  0  0  0  0
 19  6  1  1  0  0  0
 19  5  1  0  0  0  0
 19  3  1  0  0  0  0
 20 18  1  0  0  0  0
 22 10  1  0  0  0  0
 22 24  1  0  0  0  0
 23 21  1  0  0  0  0
 24 13  1  0  0  0  0
 25  9  1  0  0  0  0
 25 14  1  6  0  0  0
 26 21  2  0  0  0  0
 27  2  1  0  0  0  0
 27  1  1  0  0  0  0
 28 29  1  0  0  0  0
 31 32  1  0  0  0  0
 31 33  1  0  0  0  0
 32 29  1  1  0  0  0
 32 34  1  0  0  0  0
 33 30  1  0  0  0  0
 34 30  1  0  0  0  0
M  END
>  <MODEL>
5

>  <REMARK>
 VINA RESULT:      -8.6      3.276      8.961
  Name = 
  3 active torsions:
  status: ('A' for Active; 'I' for Inactive)
    1  A    between atoms: C_17  and  O_28
    2  A    between atoms: O_28  and  C_29
    3  A    between atoms: C_29  and  C_32
                            x       y       z     vdW  Elec       q    Type
                         _______ _______ _______ _____ _____    ______ ____

>  <TORSDO>
F 3

$$$$
=
 OpenBabel11112417533D

 34 41  0  0  1  0  0  0  0  0999 V2000
  192.2000  176.1800  145.5940 C   0  0  0  0  0  0  0  0  0  0  0  0
  189.9940  176.2250  146.9270 C   0  0  0  0  0  3  0  0  0  0  0  0
  195.6020  174.5320  140.4520 C   0  0  1  0  0  3  0  0  0  0  0  0
  194.1700  176.1050  144.1480 C   0  0  0  0  0  0  0  0  0  0  0  0
  193.8620  175.5290  141.8060 C   0  0  0  0  0  0  0  0  0  0  0  0
  193.7570  174.5010  139.3980 C   0  0  0  0  0  2  0  0  0  0  0  0
  195.1090  173.8130  139.2170 C   0  0  0  0  0  2  0  0  0  0  0  0
  196.8150  176.3960  141.3500 C   0  0  0  0  0  2  0  0  0  0  0  0
  189.9600  175.7040  144.6280 C   0  0  0  0  0  0  0  0  0  0  0  0
  187.4270  176.2270  142.8070 C   0  0  0  0  0  2  0  0  0  0  0  0
  192.5210  175.4330  142.0130 N   0  0  0  0  0  0  0  0  0  0  0  0
  196.2630  175.9370  142.7250 C   0  0  0  0  0  2  0  0  0  0  0  0
  190.4850  175.4970  143.4080 C   0  0  0  0  0  0  0  0  0  0  0  0
  188.5420  175.9430  146.5100 C   0  0  0  0  0  3  0  0  0  0  0  0
  194.7350  175.8990  142.8730 C   0  0  0  0  0  0  0  0  0  0  0  0
  196.8070  175.3410  140.3100 N   0  0  0  0  0  2  0  0  0  0  0  0
  187.7150  176.6980  144.2310 C   0  0  2  0  0  3  0  0  0  0  0  0
  192.7760  175.9730  144.3270 C   0  0  0  0  0  0  0  0  0  0  0  0
  194.3940  175.4250  140.4170 C   0  0  2  0  0  3  0  0  0  0  0  0
  191.9570  175.6300  143.2320 C   0  0  0  0  0  0  0  0  0  0  0  0
  194.3900  176.6460  146.5130 C   0  0  0  0  0  3  0  0  0  0  0  0
  188.6590  176.2890  141.9140 C   0  0  0  0  0  2  0  0  0  0  0  0
  194.9650  176.4420  145.2550 C   0  0  0  0  0  3  0  0  0  0  0  0
  189.6170  175.1510  142.2360 C   0  0  0  0  0  2  0  0  0  0  0  0
  188.5210  175.6390  144.9990 C   0  0  1  0  0  3  0  0  0  0  0  0
  193.0090  176.5170  146.6840 C   0  0  0  0  0  3  0  0  0  0  0  0
  190.7800  176.0370  145.7280 N   0  0  0  0  0  0  0  0  0  0  0  0
  186.4970  176.9400  144.8720 O   0  0  0  0  0  0  0  0  0  0  0  0
  186.0200  178.1230  144.3020 C   0  0  0  0  0  2  0  0  0  0  0  0
  184.0660  177.8960  146.8890 O   0  0  0  0  0  0  0  0  0  0  0  0
  186.2340  178.8000  146.6700 C   0  0  0  0  0  2  0  0  0  0  0  0
  185.4930  179.0440  145.3870 C   0  0  2  0  0  3  0  0  0  0  0  0
  185.1600  178.3590  147.6330 C   0  0  0  0  0  2  0  0  0  0  0  0
  184.0660  178.6660  145.7170 C   0  0  0  0  0  2  0  0  0  0  0  0
  1 27  1  0  0  0  0
  1 26  1  0  0  0  0
  3  7  1  6  0  0  0
  4 18  1  0  0  0  0
  4 23  2  0  0  0  0
  5 11  1  0  0  0  0
  5 15  2  0  0  0  0
  7  6  1  0  0  0  0
  8 12  1  0  0  0  0
  9 25  1  0  0  0  0
  9 27  1  0  0  0  0
 10 17  1  0  0  0  0
 11 20  2  0  0  0  0
 12 15  1  0  0  0  0
 13  9  2  0  0  0  0
 14  2  2  0  0  0  0
 15  4  1  0  0  0  0
 16  3  1  0  0  0  0
 16  8  1  0  0  0  0
 17 28  1  1  0  0  0
 17 25  1  0  0  0  0
 18  1  2  0  0  0  0
 19  6  1  6  0  0  0
 19  3  1  0  0  0  0
 19  5  1  0  0  0  0
 20 13  1  0  0  0  0
 20 18  1  0  0  0  0
 21 26  2  0  0  0  0
 22 24  1  0  0  0  0
 22 10  1  0  0  0  0
 23 21  1  0  0  0  0
 24 13  1  0  0  0  0
 25 14  1  1  0  0  0
 27  2  1  0  0  0  0
 29 28  1  0  0  0  0
 30 33  1  0  0  0  0
 31 33  1  0  0  0  0
 32 29  1  6  0  0  0
 32 34  1  0  0  0  0
 32 31  1  0  0  0  0
 34 30  1  0  0  0  0
M  END
>  <MODEL>
6

>  <REMARK>
 VINA RESULT:      -8.5      3.189      8.965
  Name = 
  3 active torsions:
  status: ('A' for Active; 'I' for Inactive)
    1  A    between atoms: C_17  and  O_28
    2  A    between atoms: O_28  and  C_29
    3  A    between atoms: C_29  and  C_32
                            x       y       z     vdW  Elec       q    Type
                         _______ _______ _______ _____ _____    ______ ____

>  <TORSDO>
F 3

$$$$
=
 OpenBabel11112417533D

 34 41  0  0  1  0  0  0  0  0999 V2000
  189.6990  173.8100  142.5790 C   0  0  0  0  0  0  0  0  0  0  0  0
  187.4450  175.0480  142.4100 C   0  0  0  0  0  3  0  0  0  0  0  0
  195.7940  173.5070  144.4490 C   0  0  1  0  0  3  0  0  0  0  0  0
  191.8860  172.7680  142.9110 C   0  0  0  0  0  0  0  0  0  0  0  0
  193.3870  173.7340  144.5610 C   0  0  0  0  0  0  0  0  0  0  0  0
  195.2670  174.9070  145.9590 C   0  0  0  0  0  2  0  0  0  0  0  0
  196.5640  174.5410  145.2390 C   0  0  0  0  0  2  0  0  0  0  0  0
  195.1650  171.2040  144.2180 C   0  0  0  0  0  2  0  0  0  0  0  0
  189.0710  175.7860  143.9490 C   0  0  0  0  0  0  0  0  0  0  0  0
  188.3170  177.3480  146.5950 C   0  0  0  0  0  2  0  0  0  0  0  0
  192.4430  174.6640  144.8660 N   0  0  0  0  0  0  0  0  0  0  0  0
  194.1800  171.7070  143.1320 C   0  0  0  0  0  2  0  0  0  0  0  0
  190.2510  175.7660  144.5930 C   0  0  0  0  0  0  0  0  0  0  0  0
  186.8970  176.2790  143.1480 C   0  0  0  0  0  3  0  0  0  0  0  0
  193.1240  172.7280  143.5830 C   0  0  0  0  0  0  0  0  0  0  0  0
  196.2820  172.1340  144.5030 N   0  0  0  0  0  2  0  0  0  0  0  0
  187.4130  176.6040  145.6130 C   0  0  2  0  0  3  0  0  0  0  0  0
  190.9410  173.7630  143.2400 C   0  0  0  0  0  0  0  0  0  0  0  0
  194.6280  173.6580  145.3850 C   0  0  2  0  0  3  0  0  0  0  0  0
  191.2430  174.7170  144.2320 C   0  0  0  0  0  0  0  0  0  0  0  0
  190.3290  171.8820  141.2590 C   0  0  0  0  0  3  0  0  0  0  0  0
  189.6270  176.6130  146.8480 C   0  0  0  0  0  2  0  0  0  0  0  0
  191.5640  171.8320  141.9140 C   0  0  0  0  0  3  0  0  0  0  0  0
  190.5690  176.7670  145.6620 C   0  0  0  0  0  2  0  0  0  0  0  0
  187.9480  176.7350  144.1790 C   0  0  1  0  0  3  0  0  0  0  0  0
  189.3970  172.8680  141.5900 C   0  0  0  0  0  3  0  0  0  0  0  0
  188.7710  174.8380  142.9470 N   0  0  0  0  0  0  0  0  0  0  0  0
  186.1260  177.1430  145.7020 O   0  0  0  0  0  0  0  0  0  0  0  0
  186.3100  178.4270  146.2180 C   0  0  0  0  0  2  0  0  0  0  0  0
  185.1810  179.0740  143.2400 O   0  0  0  0  0  0  0  0  0  0  0  0
  184.0420  178.6660  145.2660 C   0  0  0  0  0  2  0  0  0  0  0  0
  185.3200  179.3870  145.5840 C   0  0  2  0  0  3  0  0  0  0  0  0
  183.9130  178.7980  143.7680 C   0  0  0  0  0  2  0  0  0  0  0  0
  185.8370  179.8200  144.2310 C   0  0  0  0  0  2  0  0  0  0  0  0
  1 27  1  0  0  0  0
  1 18  1  0  0  0  0
  2 27  1  0  0  0  0
  2 14  2  0  0  0  0
  3 16  1  0  0  0  0
  3  7  1  1  0  0  0
  3 19  1  0  0  0  0
  4 18  2  0  0  0  0
  4 15  1  0  0  0  0
  5 11  1  0  0  0  0
  5 19  1  0  0  0  0
  7  6  1  0  0  0  0
  8 16  1  0  0  0  0
  9 25  1  0  0  0  0
  9 13  2  0  0  0  0
 10 22  1  0  0  0  0
 12 15  1  0  0  0  0
 12  8  1  0  0  0  0
 13 24  1  0  0  0  0
 15  5  2  0  0  0  0
 17 28  1  6  0  0  0
 17 10  1  0  0  0  0
 18 20  1  0  0  0  0
 19  6  1  6  0  0  0
 20 13  1  0  0  0  0
 20 11  2  0  0  0  0
 21 26  1  0  0  0  0
 21 23  2  0  0  0  0
 23  4  1  0  0  0  0
 24 22  1  0  0  0  0
 25 14  1  6  0  0  0
 25 17  1  0  0  0  0
 26  1  2  0  0  0  0
 27  9  1  0  0  0  0
 28 29  1  0  0  0  0
 30 33  1  0  0  0  0
 30 34  1  0  0  0  0
 31 32  1  0  0  0  0
 32 29  1  6  0  0  0
 33 31  1  0  0  0  0
 34 32  1  0  0  0  0
M  END
>  <MODEL>
7

>  <REMARK>
 VINA RESULT:      -8.4      3.205      8.305
  Name = 
  3 active torsions:
  status: ('A' for Active; 'I' for Inactive)
    1  A    between atoms: C_17  and  O_28
    2  A    between atoms: O_28  and  C_29
    3  A    between atoms: C_29  and  C_32
                            x       y       z     vdW  Elec       q    Type
                         _______ _______ _______ _____ _____    ______ ____

>  <TORSDO>
F 3

$$$$
=
 OpenBabel11112417533D

 34 41  0  0  1  0  0  0  0  0999 V2000
  191.5440  175.8810  143.5410 C   0  0  0  0  0  0  0  0  0  0  0  0
  190.4350  177.2660  145.4110 C   0  0  0  0  0  3  0  0  0  0  0  0
  191.2860  171.4690  138.9360 C   0  0  1  0  0  3  0  0  0  0  0  0
  192.3940  174.5380  141.6840 C   0  0  0  0  0  0  0  0  0  0  0  0
  190.7890  173.4730  140.2000 C   0  0  0  0  0  0  0  0  0  0  0  0
  189.2130  171.9160  138.8010 C   0  0  0  0  0  2  0  0  0  0  0  0
  190.0730  170.6950  138.4730 C   0  0  0  0  0  2  0  0  0  0  0  0
  193.1780  172.8090  138.3210 C   0  0  0  0  0  2  0  0  0  0  0  0
  189.0900  176.1430  143.8330 C   0  0  0  0  0  0  0  0  0  0  0  0
  186.1780  177.1240  143.0820 C   0  0  0  0  0  2  0  0  0  0  0  0
  189.7720  174.0270  140.9130 N   0  0  0  0  0  0  0  0  0  0  0  0
  193.3360  173.0690  139.8420 C   0  0  0  0  0  2  0  0  0  0  0  0
  188.8390  175.3740  142.7590 C   0  0  0  0  0  0  0  0  0  0  0  0
  188.9590  177.5210  145.7550 C   0  0  0  0  0  3  0  0  0  0  0  0
  192.1470  173.7360  140.5500 C   0  0  0  0  0  0  0  0  0  0  0  0
  192.3880  171.6010  137.9900 N   0  0  0  0  0  2  0  0  0  0  0  0
  187.2650  177.8320  143.8900 C   0  0  2  0  0  3  0  0  0  0  0  0
  191.3100  175.0760  142.4100 C   0  0  0  0  0  0  0  0  0  0  0  0
  190.4790  172.7370  138.9400 C   0  0  2  0  0  3  0  0  0  0  0  0
  189.9880  174.8040  142.0050 C   0  0  0  0  0  0  0  0  0  0  0  0
  193.9300  175.6180  143.2350 C   0  0  0  0  0  3  0  0  0  0  0  0
  186.7410  176.3800  141.8780 C   0  0  0  0  0  2  0  0  0  0  0  0
  193.7020  174.8180  142.1110 C   0  0  0  0  0  3  0  0  0  0  0  0
  187.4350  175.0970  142.3130 C   0  0  0  0  0  2  0  0  0  0  0  0
  188.0850  176.8160  144.6990 C   0  0  1  0  0  3  0  0  0  0  0  0
  192.8540  176.1500  143.9490 C   0  0  0  0  0  3  0  0  0  0  0  0
  190.4140  176.4080  144.2470 N   0  0  0  0  0  0  0  0  0  0  0  0
  186.6520  178.7530  144.7440 O   0  0  0  0  0  0  0  0  0  0  0  0
  185.2890  178.4560  144.6730 C   0  0  0  0  0  2  0  0  0  0  0  0
  185.9250  176.7940  147.3920 O   0  0  0  0  0  0  0  0  0  0  0  0
  185.5670  179.1000  147.0430 C   0  0  0  0  0  2  0  0  0  0  0  0
  184.7100  178.3400  146.0720 C   0  0  2  0  0  3  0  0  0  0  0  0
  186.0400  178.0450  148.0130 C   0  0  0  0  0  2  0  0  0  0  0  0
  184.8160  176.9060  146.5410 C   0  0  0  0  0  2  0  0  0  0  0  0
  1 26  1  0  0  0  0
  1 27  1  0  0  0  0
  2 14  2  0  0  0  0
  3  7  1  6  0  0  0
  3 19  1  0  0  0  0
  4 23  2  0  0  0  0
  4 18  1  0  0  0  0
  5 15  2  0  0  0  0
  5 11  1  0  0  0  0
  7  6  1  0  0  0  0
  8 12  1  0  0  0  0
  9 27  1  0  0  0  0
  9 25  1  0  0  0  0
 10 17  1  0  0  0  0
 11 20  2  0  0  0  0
 12 15  1  0  0  0  0
 13  9  2  0  0  0  0
 15  4  1  0  0  0  0
 16  8  1  0  0  0  0
 16  3  1  0  0  0  0
 17 25  1  0  0  0  0
 17 28  1  1  0  0  0
 18  1  2  0  0  0  0
 19  6  1  1  0  0  0
 19  5  1  0  0  0  0
 20 18  1  0  0  0  0
 20 13  1  0  0  0  0
 21 26  2  0  0  0  0
 22 24  1  0  0  0  0
 22 10  1  0  0  0  0
 23 21  1  0  0  0  0
 24 13  1  0  0  0  0
 25 14  1  1  0  0  0
 27  2  1  0  0  0  0
 29 28  1  0  0  0  0
 30 33  1  0  0  0  0
 31 33  1  0  0  0  0
 32 29  1  6  0  0  0
 32 34  1  0  0  0  0
 32 31  1  0  0  0  0
 34 30  1  0  0  0  0
M  END
>  <MODEL>
8

>  <REMARK>
 VINA RESULT:      -8.2      3.301      8.561
  Name = 
  3 active torsions:
  status: ('A' for Active; 'I' for Inactive)
    1  A    between atoms: C_17  and  O_28
    2  A    between atoms: O_28  and  C_29
    3  A    between atoms: C_29  and  C_32
                            x       y       z     vdW  Elec       q    Type
                         _______ _______ _______ _____ _____    ______ ____

>  <TORSDO>
F 3

$$$$
=
 OpenBabel11112417533D

 34 41  0  0  1  0  0  0  0  0999 V2000
  190.8930  175.6530  144.9660 C   0  0  0  0  0  0  0  0  0  0  0  0
  192.6910  174.4460  143.5670 C   0  0  0  0  0  3  0  0  0  0  0  0
  185.3990  178.8640  145.4530 C   0  0  1  0  0  3  0  0  0  0  0  0
  189.0480  176.7610  146.1250 C   0  0  0  0  0  0  0  0  0  0  0  0
  186.9620  177.0940  144.9210 C   0  0  0  0  0  0  0  0  0  0  0  0
  184.8330  177.9180  143.6350 C   0  0  0  0  0  2  0  0  0  0  0  0
  184.4400  179.2170  144.3380 C   0  0  0  0  0  2  0  0  0  0  0  0
  185.6890  177.9180  147.6380 C   0  0  0  0  0  2  0  0  0  0  0  0
  190.5730  174.8780  142.6270 C   0  0  0  0  0  0  0  0  0  0  0  0
  189.3510  173.1010  140.3120 C   0  0  0  0  0  2  0  0  0  0  0  0
  187.4940  176.4680  143.8380 N   0  0  0  0  0  0  0  0  0  0  0  0
  187.2090  178.0130  147.3450 C   0  0  0  0  0  2  0  0  0  0  0  0
  189.3080  175.3340  142.6050 C   0  0  0  0  0  0  0  0  0  0  0  0
  192.6800  173.9210  142.1230 C   0  0  0  0  0  3  0  0  0  0  0  0
  187.7210  177.2370  146.1210 C   0  0  0  0  0  0  0  0  0  0  0  0
  184.8530  178.8120  146.8040 N   0  0  0  0  0  2  0  0  0  0  0  0
  190.5770  172.8490  141.1870 C   0  0  2  0  0  3  0  0  0  0  0  0
  189.5720  176.1360  144.9730 C   0  0  0  0  0  0  0  0  0  0  0  0
  185.5180  177.4680  144.9100 C   0  0  2  0  0  3  0  0  0  0  0  0
  188.7690  175.9990  143.8220 C   0  0  0  0  0  0  0  0  0  0  0  0
  191.1820  176.4110  147.2460 C   0  0  0  0  0  3  0  0  0  0  0  0
  188.1920  173.7010  141.0950 C   0  0  0  0  0  2  0  0  0  0  0  0
  189.8690  176.8920  147.2570 C   0  0  0  0  0  3  0  0  0  0  0  0
  188.4440  175.1730  141.3910 C   0  0  0  0  0  2  0  0  0  0  0  0
  191.2820  174.1720  141.5260 C   0  0  1  0  0  3  0  0  0  0  0  0
  191.6950  175.7910  146.1040 C   0  0  0  0  0  3  0  0  0  0  0  0
  191.3820  175.0240  143.7740 N   0  0  0  0  0  0  0  0  0  0  0  0
  191.4460  171.9990  140.4970 O   0  0  0  0  0  0  0  0  0  0  0  0
  190.7510  170.7920  140.3840 C   0  0  0  0  0  2  0  0  0  0  0  0
  189.6920  171.0910  137.3260 O   0  0  0  0  0  0  0  0  0  0  0  0
  191.8820  171.0770  138.2040 C   0  0  0  0  0  2  0  0  0  0  0  0
  191.0370  170.1550  139.0360 C   0  0  2  0  0  3  0  0  0  0  0  0
  191.0260  171.3620  136.9940 C   0  0  0  0  0  2  0  0  0  0  0  0
  189.7490  170.0400  138.2530 C   0  0  0  0  0  2  0  0  0  0  0  0
  1 18  2  0  0  0  0
  1 26  1  0  0  0  0
  2 27  1  0  0  0  0
  3  7  1  6  0  0  0
  3 16  1  0  0  0  0
  4 23  2  0  0  0  0
  5 15  2  0  0  0  0
  6  7  1  0  0  0  0
  9 27  1  0  0  0  0
 10 22  1  0  0  0  0
 10 17  1  0  0  0  0
 11  5  1  0  0  0  0
 12  8  1  0  0  0  0
 13  9  2  0  0  0  0
 13 20  1  0  0  0  0
 14  2  2  0  0  0  0
 15  4  1  0  0  0  0
 15 12  1  0  0  0  0
 16  8  1  0  0  0  0
 17 28  1  6  0  0  0
 17 25  1  0  0  0  0
 18  4  1  0  0  0  0
 19  6  1  6  0  0  0
 19  5  1  0  0  0  0
 19  3  1  0  0  0  0
 20 11  2  0  0  0  0
 20 18  1  0  0  0  0
 21 23  1  0  0  0  0
 22 24  1  0  0  0  0
 24 13  1  0  0  0  0
 25 14  1  1  0  0  0
 25  9  1  0  0  0  0
 26 21  2  0  0  0  0
 27  1  1  0  0  0  0
 29 28  1  0  0  0  0
 30 34  1  0  0  0  0
 31 32  1  0  0  0  0
 32 29  1  1  0  0  0
 33 30  1  0  0  0  0
 33 31  1  0  0  0  0
 34 32  1  0  0  0  0
M  END
>  <MODEL>
9

>  <REMARK>
 VINA RESULT:      -8.2      3.027      5.389
  Name = 
  3 active torsions:
  status: ('A' for Active; 'I' for Inactive)
    1  A    between atoms: C_17  and  O_28
    2  A    between atoms: O_28  and  C_29
    3  A    between atoms: C_29  and  C_32
                            x       y       z     vdW  Elec       q    Type
                         _______ _______ _______ _____ _____    ______ ____

>  <TORSDO>
F 3

$$$$
