=
 OpenBabel11112416403D

 32 37  0  0  1  0  0  0  0  0999 V2000
  189.9940  175.1400  145.1330 C   0  0  1  0  0  3  0  0  0  0  0  0
  188.5120  174.7730  141.2270 C   0  0  0  0  0  2  0  0  0  0  0  0
  187.7880  176.0970  141.4190 C   0  0  0  0  0  2  0  0  0  0  0  0
  188.0730  176.2030  146.3670 C   0  0  0  0  0  0  0  0  0  0  0  0
  187.0570  177.3040  146.5420 C   0  0  2  0  0  3  0  0  0  0  0  0
  192.3150  175.1480  146.2790 C   0  0  2  0  0  3  0  0  0  0  0  0
  191.8940  174.4350  143.8490 C   0  0  0  0  0  2  0  0  0  0  0  0
  185.2850  178.1520  145.2010 C   0  0  1  0  0  3  0  0  0  0  0  0
  189.3140  174.4980  142.4870 C   0  0  0  0  0  2  0  0  0  0  0  0
  190.8890  175.4860  144.0070 N   0  0  1  0  0  0  0  0  0  0  0  0
  190.1890  175.6490  142.7840 N   0  0  2  0  0  0  0  0  0  0  0  0
  188.5690  177.0190  144.1000 C   0  0  0  0  0  0  0  0  0  0  0  0
  184.7430  177.5700  146.4920 C   0  0  0  0  0  2  0  0  0  0  0  0
  192.8760  174.4460  145.0270 C   0  0  2  0  0  3  0  0  0  0  0  0
  185.8170  176.8040  147.1270 N   0  0  0  0  0  2  0  0  0  0  0  0
  188.7080  177.1430  141.6420 O   0  0  0  0  0  0  0  0  0  0  0  0
  189.4170  176.9060  142.8500 C   0  0  2  0  0  3  0  0  0  0  0  0
  187.5260  177.8520  144.1220 C   0  0  0  0  0  3  0  0  0  0  0  0
  190.8020  174.9550  146.4380 C   0  0  0  0  0  2  0  0  0  0  0  0
  188.2110  175.2700  147.3910 O   0  0  0  0  0  1  0  0  0  0  0  0
  184.9840  179.6370  145.1420 C   0  0  0  0  0  1  0  0  0  0  0  0
  188.8760  176.1620  145.2770 C   0  0  0  0  0  0  0  0  0  0  0  0
  186.7070  177.9390  145.2870 N   0  0  0  0  0  0  0  0  0  0  0  0
  193.4730  172.2230  144.0880 C   0  0  0  0  0  2  0  0  0  0  0  0
  193.2890  173.0230  145.3620 C   0  0  1  0  0  3  0  0  0  0  0  0
  194.6810  172.7660  144.8190 C   0  0  1  0  0  3  0  0  0  0  0  0
  195.3270  171.6570  145.6260 C   0  0  0  0  0  2  0  0  0  0  0  0
  196.7760  171.9450  145.8100 C   0  0  0  0  0  0  0  0  0  0  0  0
  197.1790  173.1530  146.3630 O   0  0  0  0  0  1  0  0  0  0  0  0
  197.6360  171.1060  145.4360 O   0  0  0  0  0  0  0  0  0  0  0  0
  193.9300  176.8290  146.8060 O   0  0  0  0  0  1  0  0  0  0  0  0
  192.6580  176.6300  146.2680 C   0  0  0  0  0  2  0  0  0  0  0  0
  1 22  1  0  0  0  0
  1 19  1  1  0  0  0
  2  3  1  0  0  0  0
  2  9  1  0  0  0  0
  3 16  1  0  0  0  0
  4 20  1  0  0  0  0
  5  4  1  6  0  0  0
  5 15  1  0  0  0  0
  6 32  1  6  0  0  0
  6 19  1  0  0  0  0
  8 21  1  1  0  0  0
  8 23  1  0  0  0  0
  8 13  1  0  0  0  0
 10  7  1  6  0  0  0
 10  1  1  0  0  0  0
 11  9  1  1  0  0  0
 11 17  1  0  0  0  0
 11 10  1  0  0  0  0
 12 18  2  0  0  0  0
 12 22  1  0  0  0  0
 13 15  1  0  0  0  0
 14  7  1  6  0  0  0
 14 25  1  0  0  0  0
 14  6  1  0  0  0  0
 17 16  1  6  0  0  0
 17 12  1  0  0  0  0
 18 23  1  0  0  0  0
 22  4  2  0  0  0  0
 23  5  1  0  0  0  0
 24 26  1  0  0  0  0
 25 24  1  6  0  0  0
 26 25  1  0  0  0  0
 26 27  1  1  0  0  0
 27 28  1  0  0  0  0
 28 29  1  0  0  0  0
 30 28  2  0  0  0  0
 32 31  1  0  0  0  0
M  END
>  <MODEL>
1

>  <REMARK>
 VINA RESULT:      -8.1      0.000      0.000
  Name = 
  4 active torsions:
  status: ('A' for Active; 'I' for Inactive)
    1  A    between atoms: C_7  and  C_19
    2  A    between atoms: C_10  and  C_17
    3  A    between atoms: C_20  and  C_29
    4  A    between atoms: C_29  and  C_30
                            x       y       z     vdW  Elec       q    Type
                         _______ _______ _______ _____ _____    ______ ____

>  <TORSDO>
F 4

$$$$
=
 OpenBabel11112416403D

 32 37  0  0  1  0  0  0  0  0999 V2000
  191.3370  175.4660  144.5270 C   0  0  1  0  0  3  0  0  0  0  0  0
  190.9990  172.3760  141.7120 C   0  0  0  0  0  2  0  0  0  0  0  0
  192.0440  171.5990  142.4970 C   0  0  0  0  0  2  0  0  0  0  0  0
  193.7880  175.4390  145.1010 C   0  0  0  0  0  0  0  0  0  0  0  0
  195.0290  174.7300  145.5830 C   0  0  2  0  0  3  0  0  0  0  0  0
  189.7450  176.7740  146.0940 C   0  0  2  0  0  3  0  0  0  0  0  0
  188.9720  175.2340  144.1920 C   0  0  0  0  0  2  0  0  0  0  0  0
  196.2720  172.8550  144.8090 C   0  0  1  0  0  3  0  0  0  0  0  0
  190.7240  173.6670  142.4620 C   0  0  0  0  0  2  0  0  0  0  0  0
  190.1840  174.5440  144.6320 N   0  0  1  0  0  0  0  0  0  0  0  0
  190.3560  173.3660  143.8590 N   0  0  2  0  0  0  0  0  0  0  0  0
  192.6520  173.2740  144.8360 C   0  0  0  0  0  0  0  0  0  0  0  0
  197.1190  174.1120  144.7580 C   0  0  0  0  0  2  0  0  0  0  0  0
  188.5770  176.3220  145.1970 C   0  0  2  0  0  3  0  0  0  0  0  0
  196.2320  175.2610  144.9500 N   0  0  0  0  0  2  0  0  0  0  0  0
  191.5820  171.3110  143.7990 O   0  0  0  0  0  0  0  0  0  0  0  0
  191.3770  172.5230  144.5110 C   0  0  2  0  0  3  0  0  0  0  0  0
  193.7880  172.6020  145.0280 C   0  0  0  0  0  3  0  0  0  0  0  0
  191.0960  176.7400  145.3700 C   0  0  0  0  0  2  0  0  0  0  0  0
  193.8410  176.8220  144.9490 O   0  0  0  0  0  1  0  0  0  0  0  0
  196.8840  171.8620  145.7780 C   0  0  0  0  0  1  0  0  0  0  0  0
  192.6360  174.7620  144.8890 C   0  0  0  0  0  0  0  0  0  0  0  0
  194.9970  173.3080  145.3050 N   0  0  0  0  0  0  0  0  0  0  0  0
  187.1150  177.0350  143.3170 C   0  0  0  0  0  2  0  0  0  0  0  0
  187.9910  177.5130  144.4580 C   0  0  1  0  0  3  0  0  0  0  0  0
  186.4820  177.5030  144.6090 C   0  0  1  0  0  3  0  0  0  0  0  0
  185.9600  178.9150  144.4370 C   0  0  0  0  0  2  0  0  0  0  0  0
  184.4830  178.9350  144.6260 C   0  0  0  0  0  0  0  0  0  0  0  0
  183.9470  178.9230  145.9060 O   0  0  0  0  0  1  0  0  0  0  0  0
  183.7220  178.9290  143.6240 O   0  0  0  0  0  0  0  0  0  0  0  0
  191.0600  176.0730  147.9630 O   0  0  0  0  0  1  0  0  0  0  0  0
  189.8070  175.9380  147.3630 C   0  0  0  0  0  2  0  0  0  0  0  0
  1 10  1  0  0  0  0
  1 22  1  0  0  0  0
  1 19  1  1  0  0  0
  2  9  1  0  0  0  0
  2  3  1  0  0  0  0
  3 16  1  0  0  0  0
  4  5  1  0  0  0  0
  5 15  1  6  0  0  0
  6 32  1  1  0  0  0
  8 23  1  0  0  0  0
  8 21  1  1  0  0  0
 10  7  1  6  0  0  0
 11  9  1  6  0  0  0
 11 17  1  0  0  0  0
 11 10  1  0  0  0  0
 12 22  1  0  0  0  0
 12 18  2  0  0  0  0
 13  8  1  0  0  0  0
 13 15  1  0  0  0  0
 14  7  1  6  0  0  0
 14  6  1  0  0  0  0
 17 16  1  6  0  0  0
 17 12  1  0  0  0  0
 18 23  1  0  0  0  0
 19  6  1  0  0  0  0
 20  4  1  0  0  0  0
 22  4  2  0  0  0  0
 23  5  1  0  0  0  0
 24 26  1  0  0  0  0
 25 24  1  6  0  0  0
 25 26  1  0  0  0  0
 25 14  1  0  0  0  0
 26 27  1  6  0  0  0
 27 28  1  0  0  0  0
 28 29  1  0  0  0  0
 30 28  2  0  0  0  0
 32 31  1  0  0  0  0
M  END
>  <MODEL>
2

>  <REMARK>
 VINA RESULT:      -7.8      2.684      8.295
  Name = 
  4 active torsions:
  status: ('A' for Active; 'I' for Inactive)
    1  A    between atoms: C_7  and  C_19
    2  A    between atoms: C_10  and  C_17
    3  A    between atoms: C_20  and  C_29
    4  A    between atoms: C_29  and  C_30
                            x       y       z     vdW  Elec       q    Type
                         _______ _______ _______ _____ _____    ______ ____

>  <TORSDO>
F 4

$$$$
=
 OpenBabel11112416403D

 32 37  0  0  1  0  0  0  0  0999 V2000
  191.3380  175.7160  144.4340 C   0  0  1  0  0  3  0  0  0  0  0  0
  190.8720  173.5630  140.8650 C   0  0  0  0  0  2  0  0  0  0  0  0
  192.0320  172.6770  141.2940 C   0  0  0  0  0  2  0  0  0  0  0  0
  193.8330  175.7190  144.7690 C   0  0  0  0  0  0  0  0  0  0  0  0
  195.1530  175.0010  144.9130 C   0  0  2  0  0  3  0  0  0  0  0  0
  189.8500  176.3800  146.4460 C   0  0  2  0  0  3  0  0  0  0  0  0
  188.9670  175.4050  144.2420 C   0  0  0  0  0  2  0  0  0  0  0  0
  196.4040  173.5370  143.5160 C   0  0  1  0  0  3  0  0  0  0  0  0
  190.6100  174.5540  141.9850 C   0  0  0  0  0  2  0  0  0  0  0  0
  190.2520  174.7150  144.3550 N   0  0  1  0  0  0  0  0  0  0  0  0
  190.4040  173.8310  143.2550 N   0  0  2  0  0  0  0  0  0  0  0  0
  192.7890  173.6410  143.9670 C   0  0  0  0  0  0  0  0  0  0  0  0
  197.1760  174.8170  143.7710 C   0  0  0  0  0  2  0  0  0  0  0  0
  188.6220  176.1180  145.5550 C   0  0  2  0  0  3  0  0  0  0  0  0
  196.2550  175.7870  144.3690 N   0  0  0  0  0  2  0  0  0  0  0  0
  191.7200  171.9870  142.4850 O   0  0  0  0  0  0  0  0  0  0  0  0
  191.5280  172.9180  143.5400 C   0  0  2  0  0  3  0  0  0  0  0  0
  193.9720  173.0340  143.8550 C   0  0  0  0  0  3  0  0  0  0  0  0
  191.1210  176.6660  145.6340 C   0  0  0  0  0  2  0  0  0  0  0  0
  193.7990  177.0860  145.0310 O   0  0  0  0  0  1  0  0  0  0  0  0
  197.1630  172.3570  144.0920 C   0  0  0  0  0  1  0  0  0  0  0  0
  192.7020  175.0420  144.4610 C   0  0  0  0  0  0  0  0  0  0  0  0
  195.1650  173.7230  144.2280 N   0  0  0  0  0  0  0  0  0  0  0  0
  186.6770  177.1540  144.4030 C   0  0  0  0  0  2  0  0  0  0  0  0
  187.9020  177.4220  145.2550 C   0  0  1  0  0  3  0  0  0  0  0  0
  186.5260  177.3910  145.8890 C   0  0  1  0  0  3  0  0  0  0  0  0
  186.0630  178.8150  146.1320 C   0  0  0  0  0  2  0  0  0  0  0  0
  184.7210  179.0210  145.5230 C   0  0  0  0  0  0  0  0  0  0  0  0
  184.5910  179.7850  144.3700 O   0  0  0  0  0  0  0  0  0  0  0  0
  183.7000  178.5290  146.0700 O   0  0  0  0  0  1  0  0  0  0  0  0
  188.9010  174.5070  147.5850 O   0  0  0  0  0  1  0  0  0  0  0  0
  190.0860  175.2190  147.3990 C   0  0  0  0  0  2  0  0  0  0  0  0
  1 22  1  0  0  0  0
  1 19  1  1  0  0  0
  2  3  1  0  0  0  0
  2  9  1  0  0  0  0
  3 16  1  0  0  0  0
  4  5  1  0  0  0  0
  4 20  1  0  0  0  0
  5 15  1  6  0  0  0
  6 32  1  6  0  0  0
  8 13  1  0  0  0  0
  8 21  1  1  0  0  0
  8 23  1  0  0  0  0
 10  7  1  6  0  0  0
 10  1  1  0  0  0  0
 11  9  1  6  0  0  0
 11 17  1  0  0  0  0
 11 10  1  0  0  0  0
 12 22  1  0  0  0  0
 13 15  1  0  0  0  0
 14  7  1  6  0  0  0
 14  6  1  0  0  0  0
 17 16  1  6  0  0  0
 17 12  1  0  0  0  0
 18 12  2  0  0  0  0
 18 23  1  0  0  0  0
 19  6  1  0  0  0  0
 22  4  2  0  0  0  0
 23  5  1  0  0  0  0
 24 26  1  0  0  0  0
 25 24  1  6  0  0  0
 25 14  1  0  0  0  0
 25 26  1  0  0  0  0
 26 27  1  6  0  0  0
 28 30  1  0  0  0  0
 28 27  1  0  0  0  0
 29 28  2  0  0  0  0
 32 31  1  0  0  0  0
M  END
>  <MODEL>
3

>  <REMARK>
 VINA RESULT:      -7.6      2.668      8.238
  Name = 
  4 active torsions:
  status: ('A' for Active; 'I' for Inactive)
    1  A    between atoms: C_7  and  C_19
    2  A    between atoms: C_10  and  C_17
    3  A    between atoms: C_20  and  C_29
    4  A    between atoms: C_29  and  C_30
                            x       y       z     vdW  Elec       q    Type
                         _______ _______ _______ _____ _____    ______ ____

>  <TORSDO>
F 4

$$$$
=
 OpenBabel11112416403D

 32 37  0  0  1  0  0  0  0  0999 V2000
  190.9720  174.7500  144.7050 C   0  0  1  0  0  3  0  0  0  0  0  0
  193.9380  176.7580  146.8860 C   0  0  0  0  0  2  0  0  0  0  0  0
  194.9500  176.3160  145.8400 C   0  0  0  0  0  2  0  0  0  0  0  0
  192.1870  172.7240  143.8340 C   0  0  0  0  0  0  0  0  0  0  0  0
  193.3210  172.0830  143.0730 C   0  0  2  0  0  3  0  0  0  0  0  0
  188.6900  175.3410  143.6330 C   0  0  2  0  0  3  0  0  0  0  0  0
  189.9570  176.8460  145.2820 C   0  0  0  0  0  2  0  0  0  0  0  0
  195.6880  172.0950  143.3060 C   0  0  1  0  0  3  0  0  0  0  0  0
  192.5720  176.2660  146.4420 C   0  0  0  0  0  2  0  0  0  0  0  0
  191.0700  176.2200  144.5680 N   0  0  1  0  0  0  0  0  0  0  0  0
  192.2940  176.7340  145.0700 N   0  0  2  0  0  0  0  0  0  0  0  0
  193.3840  174.8720  143.8140 C   0  0  0  0  0  0  0  0  0  0  0  0
  195.1420  170.6920  143.4930 C   0  0  0  0  0  2  0  0  0  0  0  0
  188.6310  176.5670  144.5650 C   0  0  2  0  0  3  0  0  0  0  0  0
  193.6880  170.7910  143.6410 N   0  0  0  0  0  2  0  0  0  0  0  0
  194.6320  176.8560  144.5760 O   0  0  0  0  0  0  0  0  0  0  0  0
  193.3770  176.3510  144.1440 C   0  0  2  0  0  3  0  0  0  0  0  0
  194.4990  174.3000  143.3540 C   0  0  0  0  0  3  0  0  0  0  0  0
  189.6170  174.2390  144.1620 C   0  0  0  0  0  2  0  0  0  0  0  0
  191.1320  171.9120  144.2440 O   0  0  0  0  0  1  0  0  0  0  0  0
  196.5980  172.1330  142.0940 C   0  0  0  0  0  1  0  0  0  0  0  0
  192.1600  174.0590  144.0530 C   0  0  0  0  0  0  0  0  0  0  0  0
  194.5180  172.9010  143.0710 N   0  0  0  0  0  0  0  0  0  0  0  0
  187.5640  177.5310  146.5930 C   0  0  0  0  0  2  0  0  0  0  0  0
  187.5210  176.3960  145.5880 C   0  0  1  0  0  3  0  0  0  0  0  0
  186.5500  177.5530  145.4700 C   0  0  1  0  0  3  0  0  0  0  0  0
  185.1970  177.1160  145.9990 C   0  0  0  0  0  2  0  0  0  0  0  0
  184.4160  178.3070  146.4330 C   0  0  0  0  0  0  0  0  0  0  0  0
  183.6940  179.0410  145.5020 O   0  0  0  0  0  0  0  0  0  0  0  0
  184.4360  178.6660  147.6380 O   0  0  0  0  0  1  0  0  0  0  0  0
  188.6790  177.0490  141.9620 O   0  0  0  0  0  1  0  0  0  0  0  0
  189.1070  175.7480  142.2280 C   0  0  0  0  0  2  0  0  0  0  0  0
  1 19  1  6  0  0  0
  3  2  1  0  0  0  0
  4 22  2  0  0  0  0
  4 20  1  0  0  0  0
  5 15  1  1  0  0  0
  5  4  1  0  0  0  0
  6 32  1  6  0  0  0
  6 19  1  0  0  0  0
  6 14  1  0  0  0  0
  8 21  1  6  0  0  0
  8 13  1  0  0  0  0
  9  2  1  0  0  0  0
 10  1  1  0  0  0  0
 10 11  1  0  0  0  0
 10  7  1  1  0  0  0
 11  9  1  1  0  0  0
 12 22  1  0  0  0  0
 13 15  1  0  0  0  0
 14  7  1  1  0  0  0
 14 25  1  0  0  0  0
 16  3  1  0  0  0  0
 17 12  1  1  0  0  0
 17 16  1  0  0  0  0
 17 11  1  0  0  0  0
 18 12  2  0  0  0  0
 22  1  1  0  0  0  0
 23  5  1  0  0  0  0
 23  8  1  0  0  0  0
 23 18  1  0  0  0  0
 25 24  1  1  0  0  0
 26 25  1  0  0  0  0
 26 27  1  1  0  0  0
 26 24  1  0  0  0  0
 27 28  1  0  0  0  0
 28 30  1  0  0  0  0
 29 28  2  0  0  0  0
 31 32  1  0  0  0  0
M  END
>  <MODEL>
4

>  <REMARK>
 VINA RESULT:      -7.5      2.573      8.534
  Name = 
  4 active torsions:
  status: ('A' for Active; 'I' for Inactive)
    1  A    between atoms: C_7  and  C_19
    2  A    between atoms: C_10  and  C_17
    3  A    between atoms: C_20  and  C_29
    4  A    between atoms: C_29  and  C_30
                            x       y       z     vdW  Elec       q    Type
                         _______ _______ _______ _____ _____    ______ ____

>  <TORSDO>
F 4

$$$$
=
 OpenBabel11112416403D

 32 37  0  0  1  0  0  0  0  0999 V2000
  189.1310  175.3750  144.2910 C   0  0  1  0  0  3  0  0  0  0  0  0
  191.1430  176.0440  147.9100 C   0  0  0  0  0  2  0  0  0  0  0  0
  192.4090  175.5110  147.2590 C   0  0  0  0  0  2  0  0  0  0  0  0
  190.1970  173.2610  143.4360 C   0  0  0  0  0  0  0  0  0  0  0  0
  191.4070  172.4570  143.0270 C   0  0  2  0  0  3  0  0  0  0  0  0
  187.7200  176.7720  142.6300 C   0  0  2  0  0  3  0  0  0  0  0  0
  188.3830  177.5470  144.9850 C   0  0  0  0  0  2  0  0  0  0  0  0
  193.3800  171.7450  144.1490 C   0  0  1  0  0  3  0  0  0  0  0  0
  190.0500  176.0500  146.8560 C   0  0  0  0  0  2  0  0  0  0  0  0
  189.5560  176.7550  144.6130 N   0  0  1  0  0  0  0  0  0  0  0  0
  190.5030  176.8010  145.6700 N   0  0  2  0  0  0  0  0  0  0  0  0
  191.6620  174.9430  144.4720 C   0  0  0  0  0  0  0  0  0  0  0  0
  192.5520  170.5490  143.7180 C   0  0  0  0  0  2  0  0  0  0  0  0
  187.4870  177.7870  143.7640 C   0  0  2  0  0  3  0  0  0  0  0  0
  191.2320  171.0370  143.3140 N   0  0  0  0  0  2  0  0  0  0  0  0
  192.7940  176.3240  146.1710 O   0  0  0  0  0  0  0  0  0  0  0  0
  191.7900  176.2830  145.1670 C   0  0  2  0  0  3  0  0  0  0  0  0
  192.7340  174.1580  144.3400 C   0  0  0  0  0  3  0  0  0  0  0  0
  188.0880  175.3760  143.1500 C   0  0  0  0  0  2  0  0  0  0  0  0
  188.9380  172.7320  143.1670 O   0  0  0  0  0  1  0  0  0  0  0  0
  194.7220  171.7220  143.4440 C   0  0  0  0  0  1  0  0  0  0  0  0
  190.3300  174.4900  143.9860 C   0  0  0  0  0  0  0  0  0  0  0  0
  192.6110  172.8830  143.7130 N   0  0  0  0  0  0  0  0  0  0  0  0
  185.7090  179.0280  144.9820 C   0  0  0  0  0  2  0  0  0  0  0  0
  186.0280  177.7750  144.1900 C   0  0  1  0  0  3  0  0  0  0  0  0
  185.3040  178.9300  143.5280 C   0  0  1  0  0  3  0  0  0  0  0  0
  183.8280  178.5960  143.4320 C   0  0  0  0  0  2  0  0  0  0  0  0
  183.4690  178.2910  142.0200 C   0  0  0  0  0  0  0  0  0  0  0  0
  182.1370  178.2710  141.6320 O   0  0  0  0  0  1  0  0  0  0  0  0
  184.3720  178.0210  141.1870 O   0  0  0  0  0  0  0  0  0  0  0  0
  188.8110  178.6660  141.6650 O   0  0  0  0  0  1  0  0  0  0  0  0
  188.7850  177.2710  141.6660 C   0  0  0  0  0  2  0  0  0  0  0  0
  1 19  1  6  0  0  0
  1 10  1  0  0  0  0
  3  2  1  0  0  0  0
  4 22  2  0  0  0  0
  5 15  1  1  0  0  0
  5  4  1  0  0  0  0
  5 23  1  0  0  0  0
  6 32  1  6  0  0  0
  6 19  1  0  0  0  0
  6 14  1  0  0  0  0
  8 21  1  6  0  0  0
  9  2  1  0  0  0  0
 10  7  1  1  0  0  0
 10 11  1  0  0  0  0
 11  9  1  1  0  0  0
 13  8  1  0  0  0  0
 14 25  1  0  0  0  0
 14  7  1  1  0  0  0
 15 13  1  0  0  0  0
 16  3  1  0  0  0  0
 17 12  1  1  0  0  0
 17 11  1  0  0  0  0
 17 16  1  0  0  0  0
 18 12  2  0  0  0  0
 20  4  1  0  0  0  0
 22  1  1  0  0  0  0
 22 12  1  0  0  0  0
 23  8  1  0  0  0  0
 23 18  1  0  0  0  0
 25 24  1  1  0  0  0
 26 27  1  1  0  0  0
 26 25  1  0  0  0  0
 26 24  1  0  0  0  0
 28 27  1  0  0  0  0
 29 28  1  0  0  0  0
 30 28  2  0  0  0  0
 31 32  1  0  0  0  0
M  END
>  <MODEL>
5

>  <REMARK>
 VINA RESULT:      -7.3      2.532      8.556
  Name = 
  4 active torsions:
  status: ('A' for Active; 'I' for Inactive)
    1  A    between atoms: C_7  and  C_19
    2  A    between atoms: C_10  and  C_17
    3  A    between atoms: C_20  and  C_29
    4  A    between atoms: C_29  and  C_30
                            x       y       z     vdW  Elec       q    Type
                         _______ _______ _______ _____ _____    ______ ____

>  <TORSDO>
F 4

$$$$
=
 OpenBabel11112416403D

 32 37  0  0  1  0  0  0  0  0999 V2000
  191.1250  175.4360  143.5960 C   0  0  1  0  0  3  0  0  0  0  0  0
  194.1340  175.2920  146.5130 C   0  0  0  0  0  2  0  0  0  0  0  0
  195.1560  175.5490  145.4160 C   0  0  0  0  0  2  0  0  0  0  0  0
  192.2220  174.3620  141.6010 C   0  0  0  0  0  0  0  0  0  0  0  0
  193.3370  174.2740  140.5880 C   0  0  2  0  0  3  0  0  0  0  0  0
  188.9430  176.7710  143.1990 C   0  0  2  0  0  3  0  0  0  0  0  0
  190.2450  176.7350  145.4110 C   0  0  0  0  0  2  0  0  0  0  0  0
  195.6870  173.9310  140.7370 C   0  0  1  0  0  3  0  0  0  0  0  0
  192.7560  175.3230  145.8770 C   0  0  0  0  0  2  0  0  0  0  0  0
  191.3380  176.6290  144.4440 N   0  0  1  0  0  0  0  0  0  0  0  0
  192.5740  176.5890  145.1410 N   0  0  2  0  0  0  0  0  0  0  0  0
  193.5760  175.9010  142.9610 C   0  0  0  0  0  0  0  0  0  0  0  0
  195.0300  172.7940  139.9770 C   0  0  0  0  0  2  0  0  0  0  0  0
  188.9340  177.1010  144.7040 C   0  0  2  0  0  3  0  0  0  0  0  0
  193.5830  172.8960  140.1760 N   0  0  0  0  0  2  0  0  0  0  0  0
  194.9340  176.8040  144.8090 O   0  0  0  0  0  0  0  0  0  0  0  0
  193.6650  176.8070  144.1710 C   0  0  2  0  0  3  0  0  0  0  0  0
  194.6640  175.6700  142.2230 C   0  0  0  0  0  3  0  0  0  0  0  0
  189.7600  175.5150  142.8720 C   0  0  0  0  0  2  0  0  0  0  0  0
  191.0930  173.5720  141.4020 O   0  0  0  0  0  1  0  0  0  0  0  0
  196.6490  174.6680  139.8250 C   0  0  0  0  0  1  0  0  0  0  0  0
  192.2860  175.2340  142.6340 C   0  0  0  0  0  0  0  0  0  0  0  0
  194.5910  174.7930  141.0990 N   0  0  0  0  0  0  0  0  0  0  0  0
  187.8480  176.6180  146.8880 C   0  0  0  0  0  2  0  0  0  0  0  0
  187.7720  176.4030  145.3890 C   0  0  1  0  0  3  0  0  0  0  0  0
  186.8880  177.4390  146.0550 C   0  0  1  0  0  3  0  0  0  0  0  0
  185.4870  176.8760  146.1930 C   0  0  0  0  0  2  0  0  0  0  0  0
  184.4940  177.9850  146.1780 C   0  0  0  0  0  0  0  0  0  0  0  0
  184.0660  178.5180  144.9700 O   0  0  0  0  0  0  0  0  0  0  0  0
  184.0670  178.4610  147.2620 O   0  0  0  0  0  1  0  0  0  0  0  0
  188.5200  178.2910  141.4040 O   0  0  0  0  0  1  0  0  0  0  0  0
  189.4490  177.9540  142.3890 C   0  0  0  0  0  2  0  0  0  0  0  0
  1 19  1  6  0  0  0
  1 10  1  0  0  0  0
  3  2  1  0  0  0  0
  4 22  2  0  0  0  0
  5 15  1  1  0  0  0
  5 23  1  0  0  0  0
  5  4  1  0  0  0  0
  6 32  1  6  0  0  0
  6 14  1  0  0  0  0
  8 21  1  6  0  0  0
  8 23  1  0  0  0  0
  9  2  1  0  0  0  0
 10 11  1  0  0  0  0
 10  7  1  1  0  0  0
 11  9  1  6  0  0  0
 13 15  1  0  0  0  0
 13  8  1  0  0  0  0
 14 25  1  0  0  0  0
 14  7  1  1  0  0  0
 16  3  1  0  0  0  0
 17 12  1  6  0  0  0
 17 16  1  0  0  0  0
 17 11  1  0  0  0  0
 18 12  2  0  0  0  0
 19  6  1  0  0  0  0
 20  4  1  0  0  0  0
 22 12  1  0  0  0  0
 22  1  1  0  0  0  0
 23 18  1  0  0  0  0
 25 26  1  0  0  0  0
 25 24  1  1  0  0  0
 26 27  1  1  0  0  0
 26 24  1  0  0  0  0
 28 27  1  0  0  0  0
 28 30  1  0  0  0  0
 29 28  2  0  0  0  0
 31 32  1  0  0  0  0
M  END
>  <MODEL>
6

>  <REMARK>
 VINA RESULT:      -7.3      2.942      8.552
  Name = 
  4 active torsions:
  status: ('A' for Active; 'I' for Inactive)
    1  A    between atoms: C_7  and  C_19
    2  A    between atoms: C_10  and  C_17
    3  A    between atoms: C_20  and  C_29
    4  A    between atoms: C_29  and  C_30
                            x       y       z     vdW  Elec       q    Type
                         _______ _______ _______ _____ _____    ______ ____

>  <TORSDO>
F 4

$$$$
=
 OpenBabel11112416403D

 32 37  0  0  1  0  0  0  0  0999 V2000
  189.2180  175.8380  142.9580 C   0  0  1  0  0  3  0  0  0  0  0  0
  191.3040  176.7910  146.4700 C   0  0  0  0  0  2  0  0  0  0  0  0
  189.9650  176.9650  147.1710 C   0  0  0  0  0  2  0  0  0  0  0  0
  187.2070  177.3480  143.0700 C   0  0  0  0  0  0  0  0  0  0  0  0
  185.9800  177.8730  143.7750 C   0  0  2  0  0  3  0  0  0  0  0  0
  189.1620  173.8770  141.2690 C   0  0  2  0  0  3  0  0  0  0  0  0
  190.9700  174.2010  143.0630 C   0  0  0  0  0  2  0  0  0  0  0  0
  185.6050  178.9740  145.8500 C   0  0  1  0  0  3  0  0  0  0  0  0
  191.0240  176.3410  145.0470 C   0  0  0  0  0  2  0  0  0  0  0  0
  189.7950  174.7320  143.7540 N   0  0  1  0  0  0  0  0  0  0  0  0
  190.1680  175.1390  145.0620 N   0  0  2  0  0  0  0  0  0  0  0  0
  187.9440  176.2670  145.1540 C   0  0  0  0  0  0  0  0  0  0  0  0
  185.2130  179.8730  144.6920 C   0  0  0  0  0  2  0  0  0  0  0  0
  190.5540  173.4650  141.7840 C   0  0  2  0  0  3  0  0  0  0  0  0
  185.7390  179.2770  143.4620 N   0  0  0  0  0  2  0  0  0  0  0  0
  189.2440  175.7520  147.1820 O   0  0  0  0  0  0  0  0  0  0  0  0
  188.9410  175.3650  145.8500 C   0  0  2  0  0  3  0  0  0  0  0  0
  187.0080  176.8980  145.8660 C   0  0  0  0  0  3  0  0  0  0  0  0
  188.8440  175.3540  141.5380 C   0  0  0  0  0  2  0  0  0  0  0  0
  187.4130  177.7250  141.7460 O   0  0  0  0  0  1  0  0  0  0  0  0
  184.3850  178.6660  146.6960 C   0  0  0  0  0  1  0  0  0  0  0  0
  188.0460  176.4820  143.6840 C   0  0  0  0  0  0  0  0  0  0  0  0
  186.0850  177.7720  145.2180 N   0  0  0  0  0  0  0  0  0  0  0  0
  192.8890  172.9820  141.0800 C   0  0  0  0  0  2  0  0  0  0  0  0
  191.6000  173.6850  140.7040 C   0  0  1  0  0  3  0  0  0  0  0  0
  191.9530  172.3530  140.0710 C   0  0  1  0  0  3  0  0  0  0  0  0
  192.4790  172.5980  138.6700 C   0  0  0  0  0  2  0  0  0  0  0  0
  191.9430  171.5640  137.7420 C   0  0  0  0  0  0  0  0  0  0  0  0
  192.1680  171.6740  136.3770 O   0  0  0  0  0  0  0  0  0  0  0  0
  191.2590  170.6090  138.1920 O   0  0  0  0  0  1  0  0  0  0  0  0
  188.6610  171.9160  142.5390 O   0  0  0  0  0  1  0  0  0  0  0  0
  188.0800  172.9900  141.8650 C   0  0  0  0  0  2  0  0  0  0  0  0
  1 19  1  6  0  0  0
  1 22  1  0  0  0  0
  1 10  1  0  0  0  0
  2  3  1  0  0  0  0
  3 16  1  0  0  0  0
  4 22  2  0  0  0  0
  5  4  1  6  0  0  0
  5 23  1  0  0  0  0
  6 19  1  0  0  0  0
  6 14  1  0  0  0  0
  6 32  1  1  0  0  0
  8 21  1  1  0  0  0
  9  2  1  0  0  0  0
 10  7  1  6  0  0  0
 10 11  1  0  0  0  0
 11  9  1  6  0  0  0
 11 17  1  0  0  0  0
 12 18  2  0  0  0  0
 13  8  1  0  0  0  0
 14  7  1  1  0  0  0
 15  5  1  0  0  0  0
 15 13  1  0  0  0  0
 17 12  1  6  0  0  0
 17 16  1  0  0  0  0
 20  4  1  0  0  0  0
 22 12  1  0  0  0  0
 23  8  1  0  0  0  0
 23 18  1  0  0  0  0
 25 24  1  1  0  0  0
 25 14  1  0  0  0  0
 26 27  1  6  0  0  0
 26 25  1  0  0  0  0
 26 24  1  0  0  0  0
 28 30  1  0  0  0  0
 28 27  1  0  0  0  0
 29 28  2  0  0  0  0
 32 31  1  0  0  0  0
M  END
>  <MODEL>
7

>  <REMARK>
 VINA RESULT:      -6.9      3.233      5.275
  Name = 
  4 active torsions:
  status: ('A' for Active; 'I' for Inactive)
    1  A    between atoms: C_7  and  C_19
    2  A    between atoms: C_10  and  C_17
    3  A    between atoms: C_20  and  C_29
    4  A    between atoms: C_29  and  C_30
                            x       y       z     vdW  Elec       q    Type
                         _______ _______ _______ _____ _____    ______ ____

>  <TORSDO>
F 4

$$$$
=
 OpenBabel11112416403D

 32 37  0  0  1  0  0  0  0  0999 V2000
  189.7070  174.7540  143.0920 C   0  0  1  0  0  3  0  0  0  0  0  0
  193.3910  174.2050  145.0190 C   0  0  0  0  0  2  0  0  0  0  0  0
  194.0530  174.1440  143.6510 C   0  0  0  0  0  2  0  0  0  0  0  0
  189.9220  173.3080  141.0430 C   0  0  0  0  0  0  0  0  0  0  0  0
  190.6360  172.8980  139.7780 C   0  0  2  0  0  3  0  0  0  0  0  0
  187.7890  176.4920  143.1460 C   0  0  2  0  0  3  0  0  0  0  0  0
  189.6810  176.3590  144.8760 C   0  0  0  0  0  2  0  0  0  0  0  0
  192.8130  172.0690  139.2980 C   0  0  1  0  0  3  0  0  0  0  0  0
  191.9140  174.4810  144.8050 C   0  0  0  0  0  2  0  0  0  0  0  0
  190.3840  175.9400  143.6640 N   0  0  1  0  0  0  0  0  0  0  0  0
  191.7460  175.6910  143.9780 N   0  0  2  0  0  0  0  0  0  0  0  0
  191.8850  174.6250  141.7250 C   0  0  0  0  0  0  0  0  0  0  0  0
  191.7600  171.0420  138.9300 C   0  0  0  0  0  2  0  0  0  0  0  0
  188.3050  176.9390  144.5270 C   0  0  2  0  0  3  0  0  0  0  0  0
  190.4880  171.4700  139.5160 N   0  0  0  0  0  2  0  0  0  0  0  0
  193.8860  175.3630  142.9590 O   0  0  0  0  0  0  0  0  0  0  0  0
  192.5050  175.5870  142.7160 C   0  0  2  0  0  3  0  0  0  0  0  0
  192.6310  174.1040  140.7480 C   0  0  0  0  0  3  0  0  0  0  0  0
  188.2240  175.0670  142.7840 C   0  0  0  0  0  2  0  0  0  0  0  0
  188.6640  172.7660  141.2900 O   0  0  0  0  0  1  0  0  0  0  0  0
  193.5640  172.5030  138.0550 C   0  0  0  0  0  1  0  0  0  0  0  0
  190.4580  174.2280  141.8790 C   0  0  0  0  0  0  0  0  0  0  0  0
  192.0580  173.1740  139.8310 N   0  0  0  0  0  0  0  0  0  0  0  0
  188.0330  176.0600  146.8370 C   0  0  0  0  0  2  0  0  0  0  0  0
  187.3040  176.5670  145.6080 C   0  0  1  0  0  3  0  0  0  0  0  0
  187.5010  177.4760  146.8060 C   0  0  1  0  0  3  0  0  0  0  0  0
  186.2030  177.5490  147.5870 C   0  0  0  0  0  2  0  0  0  0  0  0
  185.5500  178.8660  147.3590 C   0  0  0  0  0  0  0  0  0  0  0  0
  186.0090  179.9930  148.0280 O   0  0  0  0  0  1  0  0  0  0  0  0
  184.5620  178.9530  146.5860 O   0  0  0  0  0  0  0  0  0  0  0  0
  187.4730  178.6380  142.1430 O   0  0  0  0  0  1  0  0  0  0  0  0
  188.2260  177.4660  142.0640 C   0  0  0  0  0  2  0  0  0  0  0  0
  1 19  1  6  0  0  0
  1 10  1  0  0  0  0
  3  2  1  0  0  0  0
  4 20  1  0  0  0  0
  4 22  2  0  0  0  0
  5 15  1  1  0  0  0
  5 23  1  0  0  0  0
  5  4  1  0  0  0  0
  6 32  1  6  0  0  0
  6 14  1  0  0  0  0
  8 21  1  6  0  0  0
  8 23  1  0  0  0  0
  9  2  1  0  0  0  0
 10 11  1  0  0  0  0
 10  7  1  1  0  0  0
 11  9  1  6  0  0  0
 12 22  1  0  0  0  0
 13  8  1  0  0  0  0
 13 15  1  0  0  0  0
 14  7  1  1  0  0  0
 14 25  1  0  0  0  0
 16  3  1  0  0  0  0
 17 12  1  6  0  0  0
 17 16  1  0  0  0  0
 17 11  1  0  0  0  0
 18 12  2  0  0  0  0
 19  6  1  0  0  0  0
 22  1  1  0  0  0  0
 23 18  1  0  0  0  0
 25 26  1  0  0  0  0
 25 24  1  1  0  0  0
 26 24  1  0  0  0  0
 26 27  1  1  0  0  0
 28 27  1  0  0  0  0
 28 29  1  0  0  0  0
 30 28  2  0  0  0  0
 32 31  1  0  0  0  0
M  END
>  <MODEL>
8

>  <REMARK>
 VINA RESULT:      -6.7      2.986      8.147
  Name = 
  4 active torsions:
  status: ('A' for Active; 'I' for Inactive)
    1  A    between atoms: C_7  and  C_19
    2  A    between atoms: C_10  and  C_17
    3  A    between atoms: C_20  and  C_29
    4  A    between atoms: C_29  and  C_30
                            x       y       z     vdW  Elec       q    Type
                         _______ _______ _______ _____ _____    ______ ____

>  <TORSDO>
F 4

$$$$
=
 OpenBabel11112416403D

 32 37  0  0  1  0  0  0  0  0999 V2000
  189.9330  175.2390  143.3990 C   0  0  1  0  0  3  0  0  0  0  0  0
  192.0410  176.3320  146.8550 C   0  0  0  0  0  2  0  0  0  0  0  0
  190.7080  176.4880  147.5710 C   0  0  0  0  0  2  0  0  0  0  0  0
  187.8830  176.6960  143.5040 C   0  0  0  0  0  0  0  0  0  0  0  0
  186.6530  177.2050  144.2140 C   0  0  2  0  0  3  0  0  0  0  0  0
  189.9060  173.2360  141.7580 C   0  0  2  0  0  3  0  0  0  0  0  0
  191.7290  173.6520  143.5170 C   0  0  0  0  0  2  0  0  0  0  0  0
  186.2770  178.3460  146.2670 C   0  0  1  0  0  3  0  0  0  0  0  0
  191.7540  175.8400  145.4480 C   0  0  0  0  0  2  0  0  0  0  0  0
  190.5510  174.1680  144.2130 N   0  0  1  0  0  0  0  0  0  0  0  0
  190.9310  174.6160  145.5040 N   0  0  2  0  0  0  0  0  0  0  0  0
  188.6780  175.6870  145.6020 C   0  0  0  0  0  0  0  0  0  0  0  0
  185.8440  179.2050  145.0940 C   0  0  0  0  0  2  0  0  0  0  0  0
  191.3160  172.8730  142.2620 C   0  0  2  0  0  3  0  0  0  0  0  0
  186.3690  178.5940  143.8710 N   0  0  0  0  0  2  0  0  0  0  0  0
  190.0200  175.2560  147.6230 O   0  0  0  0  0  0  0  0  0  0  0  0
  189.7090  174.8290  146.3050 C   0  0  2  0  0  3  0  0  0  0  0  0
  187.7360  176.3100  146.3130 C   0  0  0  0  0  3  0  0  0  0  0  0
  189.5520  174.7090  141.9960 C   0  0  0  0  0  2  0  0  0  0  0  0
  188.0600  177.0460  142.1680 O   0  0  0  0  0  1  0  0  0  0  0  0
  185.0780  178.0260  147.1380 C   0  0  0  0  0  1  0  0  0  0  0  0
  188.7540  175.8680  144.1260 C   0  0  0  0  0  0  0  0  0  0  0  0
  186.7810  177.1420  145.6570 N   0  0  0  0  0  0  0  0  0  0  0  0
  193.7300  172.7730  141.6750 C   0  0  0  0  0  2  0  0  0  0  0  0
  192.3400  173.0950  141.1620 C   0  0  1  0  0  3  0  0  0  0  0  0
  192.9930  171.7720  140.8130 C   0  0  1  0  0  3  0  0  0  0  0  0
  193.5180  171.8420  139.3920 C   0  0  0  0  0  2  0  0  0  0  0  0
  194.8310  171.1460  139.3040 C   0  0  0  0  0  0  0  0  0  0  0  0
  195.9350  171.8110  138.7860 O   0  0  0  0  0  0  0  0  0  0  0  0
  194.9330  169.9470  139.6690 O   0  0  0  0  0  1  0  0  0  0  0  0
  187.5810  172.7380  141.9960 O   0  0  0  0  0  1  0  0  0  0  0  0
  188.8570  172.3350  142.3910 C   0  0  0  0  0  2  0  0  0  0  0  0
  1 19  1  6  0  0  0
  1 22  1  0  0  0  0
  1 10  1  0  0  0  0
  2  3  1  0  0  0  0
  3 16  1  0  0  0  0
  4 22  2  0  0  0  0
  5  4  1  6  0  0  0
  5 23  1  0  0  0  0
  6 19  1  0  0  0  0
  6 14  1  0  0  0  0
  6 32  1  1  0  0  0
  8 21  1  1  0  0  0
  9  2  1  0  0  0  0
 10  7  1  6  0  0  0
 10 11  1  0  0  0  0
 11  9  1  6  0  0  0
 11 17  1  0  0  0  0
 12 18  2  0  0  0  0
 13  8  1  0  0  0  0
 14  7  1  1  0  0  0
 15  5  1  0  0  0  0
 15 13  1  0  0  0  0
 17 12  1  6  0  0  0
 17 16  1  0  0  0  0
 20  4  1  0  0  0  0
 22 12  1  0  0  0  0
 23  8  1  0  0  0  0
 23 18  1  0  0  0  0
 25 24  1  1  0  0  0
 25 14  1  0  0  0  0
 26 27  1  6  0  0  0
 26 25  1  0  0  0  0
 26 24  1  0  0  0  0
 28 27  1  0  0  0  0
 28 30  1  0  0  0  0
 29 28  2  0  0  0  0
 31 32  1  0  0  0  0
M  END
>  <MODEL>
9

>  <REMARK>
 VINA RESULT:      -6.7      2.665      4.665
  Name = 
  4 active torsions:
  status: ('A' for Active; 'I' for Inactive)
    1  A    between atoms: C_7  and  C_19
    2  A    between atoms: C_10  and  C_17
    3  A    between atoms: C_20  and  C_29
    4  A    between atoms: C_29  and  C_30
                            x       y       z     vdW  Elec       q    Type
                         _______ _______ _______ _____ _____    ______ ____

>  <TORSDO>
F 4

$$$$
