=
 OpenBabel11112417293D

 37 43  0  0  1  0  0  0  0  0999 V2000
  194.7470  174.3010  144.6560 C   0  0  2  0  0  3  0  0  0  0  0  0
  194.2840  173.7130  140.0530 C   0  0  1  0  0  0  0  0  0  0  0  0
  190.7300  173.4630  142.1160 C   0  0  0  0  0  0  0  0  0  0  0  0
  190.5060  175.9880  145.1010 C   0  0  0  0  0  2  0  0  0  0  0  0
  191.9680  172.7350  140.1960 C   0  0  0  0  0  0  0  0  0  0  0  0
  190.9900  174.1260  143.4460 C   0  0  2  0  0  3  0  0  0  0  0  0
  194.1390  175.9530  146.3500 N   0  0  0  0  0  0  0  0  0  0  0  0
  191.9070  173.2200  141.4880 C   0  0  0  0  0  0  0  0  0  0  0  0
  190.1810  175.4320  143.7030 C   0  0  1  0  0  3  0  0  0  0  0  0
  190.8060  172.3960  139.5690 N   0  0  0  0  0  0  0  0  0  0  0  0
  194.8520  175.7630  145.0930 C   0  0  0  0  0  2  0  0  0  0  0  0
  193.0140  173.7090  142.1870 N   0  0  0  0  0  0  0  0  0  0  0  0
  193.8750  174.9640  139.5880 O   0  0  0  0  0  1  0  0  0  0  0  0
  188.2290  173.4830  142.0910 C   0  0  0  0  0  2  0  0  0  0  0  0
  189.5950  172.5810  140.1830 C   0  0  0  0  0  3  0  0  0  0  0  0
  194.3530  173.7410  141.5950 C   0  0  0  0  0  2  0  0  0  0  0  0
  192.7240  175.5840  146.1760 C   0  0  1  0  0  3  0  0  0  0  0  0
  191.9270  176.5070  145.2340 C   0  0  0  0  0  2  0  0  0  0  0  0
  189.5310  173.1270  141.4810 C   0  0  0  0  0  0  0  0  0  0  0  0
  192.5340  174.3980  143.3830 C   0  0  2  0  0  3  0  0  0  0  0  0
  193.3100  172.6280  139.5330 C   0  0  0  0  0  2  0  0  0  0  0  0
  188.6430  175.2060  143.6290 C   0  0  2  0  0  3  0  0  0  0  0  0
  195.6670  173.4220  139.5120 C   0  0  0  0  0  1  0  0  0  0  0  0
  192.5880  174.2070  145.8460 O   0  0  0  0  0  0  0  0  0  0  0  0
  194.2540  177.3530  146.7320 C   0  0  0  0  0  1  0  0  0  0  0  0
  193.2630  173.8890  144.6370 C   0  0  2  0  0  3  0  0  0  0  0  0
  188.1940  174.9220  142.2740 N   0  0  0  0  0  2  0  0  0  0  0  0
  187.5040  176.4550  145.5120 C   0  0  0  0  0  3  0  0  0  0  0  0
  187.8480  176.3690  144.1540 C   0  0  0  0  0  0  0  0  0  0  0  0
  187.4500  177.3790  143.2730 C   0  0  0  0  0  3  0  0  0  0  0  0
  186.3250  179.4460  142.8850 F   0  0  0  0  0  0  0  0  0  0  0  0
  186.3660  178.5510  145.0940 C   0  0  0  0  0  3  0  0  0  0  0  0
  186.7090  178.4700  143.7420 C   0  0  0  0  0  0  0  0  0  0  0  0
  186.7640  177.5450  145.9790 C   0  0  0  0  0  3  0  0  0  0  0  0
  195.5700  173.3800  145.5610 C   0  0  1  0  0  3  0  0  0  0  0  0
  195.4800  171.9420  145.0830 C   0  0  0  0  0  1  0  0  0  0  0  0
  196.9650  173.7860  145.5560 N   0  0  0  0  0  1  0  0  0  0  0  0
  1 11  1  0  0  0  0
  1 35  1  1  0  0  0
  2 23  1  6  0  0  0
  2 16  1  0  0  0  0
  4 18  1  0  0  0  0
  5  8  2  0  0  0  0
  6  3  1  6  0  0  0
  6  9  1  0  0  0  0
  7 25  1  0  0  0  0
  8  3  1  0  0  0  0
  8 12  1  0  0  0  0
  9  4  1  1  0  0  0
 10 15  2  0  0  0  0
 10  5  1  0  0  0  0
 11  7  1  0  0  0  0
 13  2  1  0  0  0  0
 14 27  1  0  0  0  0
 15 19  1  0  0  0  0
 16 12  1  0  0  0  0
 17 18  1  6  0  0  0
 17  7  1  0  0  0  0
 19 14  1  0  0  0  0
 19  3  2  0  0  0  0
 20 12  1  6  0  0  0
 20  6  1  0  0  0  0
 20 26  1  0  0  0  0
 21  2  1  0  0  0  0
 21  5  1  0  0  0  0
 22  9  1  0  0  0  0
 22 29  1  6  0  0  0
 24 17  1  0  0  0  0
 26  1  1  0  0  0  0
 26 24  1  1  0  0  0
 27 22  1  0  0  0  0
 28 34  1  0  0  0  0
 29 28  2  0  0  0  0
 30 33  2  0  0  0  0
 30 29  1  0  0  0  0
 31 33  1  0  0  0  0
 32 34  2  0  0  0  0
 33 32  1  0  0  0  0
 35 36  1  6  0  0  0
 37 35  1  0  0  0  0
M  END
>  <MODEL>
1

>  <REMARK>
 VINA RESULT:      -8.2      0.000      0.000
  Name = 
  2 active torsions:
  status: ('A' for Active; 'I' for Inactive)
    1  A    between atoms: C_1  and  C_4
    2  A    between atoms: C_23  and  C_30
                            x       y       z     vdW  Elec       q    Type
                         _______ _______ _______ _____ _____    ______ ____

>  <TORSDO>
F 2

$$$$
=
 OpenBabel11112417293D

 37 43  0  0  1  0  0  0  0  0999 V2000
  195.1000  174.4590  144.4650 C   0  0  2  0  0  3  0  0  0  0  0  0
  194.4000  173.7430  139.9100 C   0  0  1  0  0  0  0  0  0  0  0  0
  190.9860  173.3840  142.1830 C   0  0  0  0  0  0  0  0  0  0  0  0
  190.8200  175.9670  145.1220 C   0  0  0  0  0  2  0  0  0  0  0  0
  192.1430  172.6670  140.2090 C   0  0  0  0  0  0  0  0  0  0  0  0
  191.2910  174.0890  143.4810 C   0  0  2  0  0  3  0  0  0  0  0  0
  194.5160  176.1220  146.1560 N   0  0  0  0  0  0  0  0  0  0  0  0
  192.1350  173.1790  141.4920 C   0  0  0  0  0  0  0  0  0  0  0  0
  190.4400  175.3640  143.7580 C   0  0  1  0  0  3  0  0  0  0  0  0
  190.9640  172.2620  139.6580 N   0  0  0  0  0  0  0  0  0  0  0  0
  195.1640  175.9340  144.8640 C   0  0  0  0  0  2  0  0  0  0  0  0
  193.2560  173.7320  142.1150 N   0  0  0  0  0  0  0  0  0  0  0  0
  193.9090  174.9630  139.4440 O   0  0  0  0  0  1  0  0  0  0  0  0
  188.4900  173.2920  142.3040 C   0  0  0  0  0  2  0  0  0  0  0  0
  189.7830  172.4070  140.3390 C   0  0  0  0  0  3  0  0  0  0  0  0
  194.5560  173.8100  141.4450 C   0  0  0  0  0  2  0  0  0  0  0  0
  193.1120  175.6870  146.0740 C   0  0  1  0  0  3  0  0  0  0  0  0
  192.2210  176.5510  145.1600 C   0  0  0  0  0  2  0  0  0  0  0  0
  189.7690  172.9810  141.6270 C   0  0  0  0  0  0  0  0  0  0  0  0
  192.8160  174.4280  143.3220 C   0  0  2  0  0  3  0  0  0  0  0  0
  193.4480  172.6040  139.4710 C   0  0  0  0  0  2  0  0  0  0  0  0
  188.9120  175.0680  143.7790 C   0  0  2  0  0  3  0  0  0  0  0  0
  195.7610  173.5010  139.2950 C   0  0  0  0  0  1  0  0  0  0  0  0
  193.0200  174.2980  145.7810 O   0  0  0  0  0  0  0  0  0  0  0  0
  194.5890  177.5350  146.5020 C   0  0  0  0  0  1  0  0  0  0  0  0
  193.6380  173.9810  144.5410 C   0  0  2  0  0  3  0  0  0  0  0  0
  188.3990  174.7320  142.4580 N   0  0  0  0  0  2  0  0  0  0  0  0
  187.8240  177.3400  143.5460 C   0  0  0  0  0  3  0  0  0  0  0  0
  188.0970  176.2060  144.3250 C   0  0  0  0  0  0  0  0  0  0  0  0
  187.6000  176.1270  145.6310 C   0  0  0  0  0  3  0  0  0  0  0  0
  186.3610  177.0960  147.4230 F   0  0  0  0  0  0  0  0  0  0  0  0
  186.5710  178.3050  145.3800 C   0  0  0  0  0  3  0  0  0  0  0  0
  186.8380  177.1760  146.1580 C   0  0  0  0  0  0  0  0  0  0  0  0
  187.0630  178.3870  144.0730 C   0  0  0  0  0  3  0  0  0  0  0  0
  196.0160  173.5970  145.3390 C   0  0  1  0  0  3  0  0  0  0  0  0
  195.8390  172.1260  145.0090 C   0  0  0  0  0  1  0  0  0  0  0  0
  197.4060  173.9590  145.1210 N   0  0  0  0  0  1  0  0  0  0  0  0
  1 26  1  0  0  0  0
  1 11  1  0  0  0  0
  1 35  1  1  0  0  0
  2 23  1  6  0  0  0
  2 16  1  0  0  0  0
  4 18  1  0  0  0  0
  5  8  1  0  0  0  0
  6  3  1  6  0  0  0
  6  9  1  0  0  0  0
  7 25  1  0  0  0  0
  8 12  1  0  0  0  0
  8  3  2  0  0  0  0
  9 22  1  0  0  0  0
  9  4  1  1  0  0  0
 10  5  2  0  0  0  0
 10 15  1  0  0  0  0
 11  7  1  0  0  0  0
 13  2  1  0  0  0  0
 14 27  1  0  0  0  0
 15 19  2  0  0  0  0
 16 12  1  0  0  0  0
 17 18  1  6  0  0  0
 17  7  1  0  0  0  0
 19  3  1  0  0  0  0
 19 14  1  0  0  0  0
 20 12  1  6  0  0  0
 20  6  1  0  0  0  0
 20 26  1  0  0  0  0
 21  2  1  0  0  0  0
 21  5  1  0  0  0  0
 22 29  1  6  0  0  0
 24 17  1  0  0  0  0
 26 24  1  1  0  0  0
 27 22  1  0  0  0  0
 28 34  2  0  0  0  0
 28 29  1  0  0  0  0
 29 30  2  0  0  0  0
 30 33  1  0  0  0  0
 32 33  2  0  0  0  0
 33 31  1  0  0  0  0
 34 32  1  0  0  0  0
 35 36  1  6  0  0  0
 37 35  1  0  0  0  0
M  END
>  <MODEL>
2

>  <REMARK>
 VINA RESULT:      -8.0      0.913      1.208
  Name = 
  2 active torsions:
  status: ('A' for Active; 'I' for Inactive)
    1  A    between atoms: C_1  and  C_4
    2  A    between atoms: C_23  and  C_30
                            x       y       z     vdW  Elec       q    Type
                         _______ _______ _______ _____ _____    ______ ____

>  <TORSDO>
F 2

$$$$
=
 OpenBabel11112417293D

 37 43  0  0  1  0  0  0  0  0999 V2000
  189.4030  173.6390  140.8330 C   0  0  2  0  0  3  0  0  0  0  0  0
  188.2120  177.7400  142.7080 C   0  0  1  0  0  0  0  0  0  0  0  0
  190.7370  175.5120  145.0760 C   0  0  0  0  0  0  0  0  0  0  0  0
  193.4310  173.5460  143.0230 C   0  0  0  0  0  2  0  0  0  0  0  0
  188.9800  177.1420  145.0300 C   0  0  0  0  0  0  0  0  0  0  0  0
  191.3680  174.5010  144.1510 C   0  0  2  0  0  3  0  0  0  0  0  0
  191.3970  172.5690  139.9140 N   0  0  0  0  0  0  0  0  0  0  0  0
  189.6720  176.0880  144.4660 C   0  0  0  0  0  0  0  0  0  0  0  0
  192.9050  174.6530  143.9540 C   0  0  1  0  0  3  0  0  0  0  0  0
  189.3180  177.5510  146.2860 N   0  0  0  0  0  0  0  0  0  0  0  0
  190.5200  173.7270  139.7930 C   0  0  0  0  0  2  0  0  0  0  0  0
  189.4950  175.6600  143.1480 N   0  0  0  0  0  0  0  0  0  0  0  0
  189.2910  178.5750  142.4170 O   0  0  0  0  0  1  0  0  0  0  0  0
  192.3230  175.3990  147.0060 C   0  0  0  0  0  2  0  0  0  0  0  0
  190.3590  176.9660  146.9590 C   0  0  0  0  0  3  0  0  0  0  0  0
  188.5400  176.3040  142.2440 C   0  0  0  0  0  2  0  0  0  0  0  0
  191.9770  172.5260  141.2670 C   0  0  1  0  0  3  0  0  0  0  0  0
  192.9490  173.6780  141.5890 C   0  0  0  0  0  2  0  0  0  0  0  0
  191.1000  175.9270  146.3600 C   0  0  0  0  0  0  0  0  0  0  0  0
  190.5810  174.7400  142.8140 C   0  0  2  0  0  3  0  0  0  0  0  0
  187.9030  177.8060  144.2230 C   0  0  0  0  0  2  0  0  0  0  0  0
  193.6910  174.5580  145.2940 C   0  0  2  0  0  3  0  0  0  0  0  0
  187.0000  178.2290  141.9440 C   0  0  0  0  0  1  0  0  0  0  0  0
  190.9660  172.3640  142.2550 O   0  0  0  0  0  0  0  0  0  0  0  0
  192.4500  172.6880  138.9160 C   0  0  0  0  0  1  0  0  0  0  0  0
  190.0280  173.4330  142.2250 C   0  0  2  0  0  3  0  0  0  0  0  0
  193.4550  175.7100  146.1530 N   0  0  0  0  0  2  0  0  0  0  0  0
  195.8920  173.4010  145.7600 C   0  0  0  0  0  3  0  0  0  0  0  0
  195.1740  174.4110  145.1010 C   0  0  0  0  0  0  0  0  0  0  0  0
  195.8450  175.2940  144.2480 C   0  0  0  0  0  3  0  0  0  0  0  0
  197.8710  176.0310  143.2300 F   0  0  0  0  0  0  0  0  0  0  0  0
  197.9380  174.1680  144.7160 C   0  0  0  0  0  3  0  0  0  0  0  0
  197.2250  175.1730  144.0560 C   0  0  0  0  0  0  0  0  0  0  0  0
  197.2710  173.2810  145.5670 C   0  0  0  0  0  3  0  0  0  0  0  0
  188.4060  172.5250  140.4990 C   0  0  1  0  0  3  0  0  0  0  0  0
  187.2690  172.5070  141.5060 C   0  0  0  0  0  1  0  0  0  0  0  0
  187.8500  172.7290  139.1730 N   0  0  0  0  0  1  0  0  0  0  0  0
  1 35  1  6  0  0  0
  1 26  1  0  0  0  0
  2 23  1  6  0  0  0
  2 21  1  0  0  0  0
  3 19  1  0  0  0  0
  5 10  2  0  0  0  0
  6  3  1  1  0  0  0
  7 17  1  0  0  0  0
  8  5  1  0  0  0  0
  8  3  2  0  0  0  0
  9  4  1  6  0  0  0
  9  6  1  0  0  0  0
  9 22  1  0  0  0  0
 10 15  1  0  0  0  0
 11  7  1  0  0  0  0
 11  1  1  0  0  0  0
 12  8  1  0  0  0  0
 13  2  1  0  0  0  0
 16  2  1  0  0  0  0
 16 12  1  0  0  0  0
 17 18  1  1  0  0  0
 17 24  1  0  0  0  0
 18  4  1  0  0  0  0
 19 15  2  0  0  0  0
 19 14  1  0  0  0  0
 20 12  1  1  0  0  0
 20  6  1  0  0  0  0
 21  5  1  0  0  0  0
 22 29  1  6  0  0  0
 22 27  1  0  0  0  0
 25  7  1  0  0  0  0
 26 24  1  6  0  0  0
 26 20  1  0  0  0  0
 27 14  1  0  0  0  0
 29 28  2  0  0  0  0
 30 29  1  0  0  0  0
 31 33  1  0  0  0  0
 32 34  2  0  0  0  0
 33 30  2  0  0  0  0
 33 32  1  0  0  0  0
 34 28  1  0  0  0  0
 35 36  1  1  0  0  0
 37 35  1  0  0  0  0
M  END
>  <MODEL>
3

>  <REMARK>
 VINA RESULT:      -7.9      2.833      7.587
  Name = 
  2 active torsions:
  status: ('A' for Active; 'I' for Inactive)
    1  A    between atoms: C_1  and  C_4
    2  A    between atoms: C_23  and  C_30
                            x       y       z     vdW  Elec       q    Type
                         _______ _______ _______ _____ _____    ______ ____

>  <TORSDO>
F 2

$$$$
=
 OpenBabel11112417293D

 37 43  0  0  1  0  0  0  0  0999 V2000
  189.6750  175.8900  145.0080 C   0  0  2  0  0  3  0  0  0  0  0  0
  194.3050  176.1830  145.4880 C   0  0  1  0  0  0  0  0  0  0  0  0
  193.0510  172.7160  143.6560 C   0  0  0  0  0  0  0  0  0  0  0  0
  189.9990  173.2620  141.2640 C   0  0  0  0  0  2  0  0  0  0  0  0
  194.7200  173.7400  145.0390 C   0  0  0  0  0  0  0  0  0  0  0  0
  191.6500  173.0010  143.1730 C   0  0  2  0  0  3  0  0  0  0  0  0
  188.0270  175.9270  143.2050 N   0  0  0  0  0  0  0  0  0  0  0  0
  193.4360  173.6760  144.5330 C   0  0  0  0  0  0  0  0  0  0  0  0
  191.4710  172.9960  141.6260 C   0  0  1  0  0  3  0  0  0  0  0  0
  195.5990  172.7470  144.7240 N   0  0  0  0  0  0  0  0  0  0  0  0
  189.1190  176.6730  143.8180 C   0  0  0  0  0  2  0  0  0  0  0  0
  192.4880  174.6900  144.6890 N   0  0  0  0  0  0  0  0  0  0  0  0
  194.7500  176.6280  144.2430 O   0  0  0  0  0  1  0  0  0  0  0  0
  193.5940  170.7000  142.2800 C   0  0  0  0  0  2  0  0  0  0  0  0
  195.2380  171.7310  143.8770 C   0  0  0  0  0  3  0  0  0  0  0  0
  192.7840  175.9230  145.4220 C   0  0  0  0  0  2  0  0  0  0  0  0
  188.5180  174.6140  142.7530 C   0  0  1  0  0  3  0  0  0  0  0  0
  189.5350  174.6690  141.5960 C   0  0  0  0  0  2  0  0  0  0  0  0
  193.9440  171.6960  143.3180 C   0  0  0  0  0  0  0  0  0  0  0  0
  191.3700  174.4170  143.7890 C   0  0  2  0  0  3  0  0  0  0  0  0
  195.0950  174.9160  145.8940 C   0  0  0  0  0  2  0  0  0  0  0  0
  191.8790  171.6400  140.9810 C   0  0  2  0  0  3  0  0  0  0  0  0
  194.5660  177.2660  146.5130 C   0  0  0  0  0  1  0  0  0  0  0  0
  188.9710  173.8290  143.8490 O   0  0  0  0  0  0  0  0  0  0  0  0
  187.5260  176.6960  142.0750 C   0  0  0  0  0  1  0  0  0  0  0  0
  190.0340  174.4650  144.5460 C   0  0  2  0  0  3  0  0  0  0  0  0
  193.3170  171.4110  141.0460 N   0  0  0  0  0  2  0  0  0  0  0  0
  191.9050  172.4060  138.5710 C   0  0  0  0  0  3  0  0  0  0  0  0
  191.4460  171.5100  139.5480 C   0  0  0  0  0  0  0  0  0  0  0  0
  190.5760  170.4770  139.1870 C   0  0  0  0  0  3  0  0  0  0  0  0
  189.3160  169.3370  137.5130 F   0  0  0  0  0  0  0  0  0  0  0  0
  190.6170  171.2350  136.8870 C   0  0  0  0  0  3  0  0  0  0  0  0
  190.1610  170.3390  137.8580 C   0  0  0  0  0  0  0  0  0  0  0  0
  191.4900  172.2670  137.2430 C   0  0  0  0  0  3  0  0  0  0  0  0
  188.6900  175.8650  146.1800 C   0  0  1  0  0  3  0  0  0  0  0  0
  189.1710  174.9160  147.2620 C   0  0  0  0  0  1  0  0  0  0  0  0
  188.5560  177.1940  146.7520 N   0  0  0  0  0  1  0  0  0  0  0  0
  1 35  1  1  0  0  0
  2 21  1  0  0  0  0
  2 23  1  1  0  0  0
  3  8  1  0  0  0  0
  4 18  1  0  0  0  0
  5 21  1  0  0  0  0
  6  3  1  6  0  0  0
  6 20  1  0  0  0  0
  7 11  1  0  0  0  0
  8 12  1  0  0  0  0
  8  5  2  0  0  0  0
  9  4  1  1  0  0  0
  9  6  1  0  0  0  0
 10  5  1  0  0  0  0
 11  1  1  0  0  0  0
 12 16  1  0  0  0  0
 13  2  1  0  0  0  0
 14 19  1  0  0  0  0
 15 10  2  0  0  0  0
 16  2  1  0  0  0  0
 17 18  1  6  0  0  0
 17  7  1  0  0  0  0
 17 24  1  0  0  0  0
 19  3  2  0  0  0  0
 19 15  1  0  0  0  0
 20 26  1  0  0  0  0
 20 12  1  1  0  0  0
 22 29  1  6  0  0  0
 22 27  1  0  0  0  0
 22  9  1  0  0  0  0
 25  7  1  0  0  0  0
 26 24  1  6  0  0  0
 26  1  1  0  0  0  0
 27 14  1  0  0  0  0
 28 29  1  0  0  0  0
 30 29  2  0  0  0  0
 31 33  1  0  0  0  0
 32 34  1  0  0  0  0
 32 33  2  0  0  0  0
 33 30  1  0  0  0  0
 34 28  2  0  0  0  0
 35 37  1  0  0  0  0
 35 36  1  1  0  0  0
M  END
>  <MODEL>
4

>  <REMARK>
 VINA RESULT:      -7.7      2.876      6.789
  Name = 
  2 active torsions:
  status: ('A' for Active; 'I' for Inactive)
    1  A    between atoms: C_1  and  C_4
    2  A    between atoms: C_23  and  C_30
                            x       y       z     vdW  Elec       q    Type
                         _______ _______ _______ _____ _____    ______ ____

>  <TORSDO>
F 2

$$$$
=
 OpenBabel11112417293D

 37 43  0  0  1  0  0  0  0  0999 V2000
  189.6610  175.7630  144.8600 C   0  0  2  0  0  3  0  0  0  0  0  0
  194.2940  176.0410  145.3140 C   0  0  1  0  0  0  0  0  0  0  0  0
  193.0080  172.5100  143.6320 C   0  0  0  0  0  0  0  0  0  0  0  0
  189.9520  172.9780  141.2280 C   0  0  0  0  0  2  0  0  0  0  0  0
  194.6890  173.5790  144.9660 C   0  0  0  0  0  0  0  0  0  0  0  0
  191.6080  172.7850  143.1420 C   0  0  2  0  0  3  0  0  0  0  0  0
  188.0060  175.7360  143.0630 N   0  0  0  0  0  0  0  0  0  0  0  0
  193.4040  173.5030  144.4670 C   0  0  0  0  0  0  0  0  0  0  0  0
  191.4240  172.7170  141.5970 C   0  0  1  0  0  3  0  0  0  0  0  0
  195.5600  172.5670  144.6900 N   0  0  0  0  0  0  0  0  0  0  0  0
  189.1060  176.5000  143.6410 C   0  0  0  0  0  2  0  0  0  0  0  0
  192.4630  174.5300  144.5840 N   0  0  0  0  0  0  0  0  0  0  0  0
  194.7380  176.4310  144.0500 O   0  0  0  0  0  1  0  0  0  0  0  0
  193.5330  170.4340  142.3400 C   0  0  0  0  0  2  0  0  0  0  0  0
  195.1880  171.5190  143.8880 C   0  0  0  0  0  3  0  0  0  0  0  0
  192.7710  175.7900  145.2630 C   0  0  0  0  0  2  0  0  0  0  0  0
  188.4870  174.4020  142.6640 C   0  0  1  0  0  3  0  0  0  0  0  0
  189.5000  174.4020  141.5030 C   0  0  0  0  0  2  0  0  0  0  0  0
  193.8930  171.4710  143.3340 C   0  0  0  0  0  0  0  0  0  0  0  0
  191.3400  174.2280  143.6990 C   0  0  2  0  0  3  0  0  0  0  0  0
  195.0760  174.7860  145.7700 C   0  0  0  0  0  2  0  0  0  0  0  0
  191.8200  171.3320  141.0090 C   0  0  2  0  0  3  0  0  0  0  0  0
  194.5660  177.1640  146.2920 C   0  0  0  0  0  1  0  0  0  0  0  0
  188.9370  173.6600  143.7910 O   0  0  0  0  0  0  0  0  0  0  0  0
  187.5080  176.4620  141.9030 C   0  0  0  0  0  1  0  0  0  0  0  0
  190.0070  174.3170  144.4580 C   0  0  2  0  0  3  0  0  0  0  0  0
  193.2560  171.0960  141.0780 N   0  0  0  0  0  2  0  0  0  0  0  0
  190.4630  170.1440  139.2340 C   0  0  0  0  0  3  0  0  0  0  0  0
  191.3810  171.1460  139.5830 C   0  0  0  0  0  0  0  0  0  0  0  0
  191.8960  171.9890  138.5930 C   0  0  0  0  0  3  0  0  0  0  0  0
  192.0020  172.6500  136.3050 F   0  0  0  0  0  0  0  0  0  0  0  0
  190.5880  170.8310  136.9160 C   0  0  0  0  0  3  0  0  0  0  0  0
  191.5000  171.8320  137.2600 C   0  0  0  0  0  0  0  0  0  0  0  0
  190.0680  169.9880  137.9020 C   0  0  0  0  0  3  0  0  0  0  0  0
  188.6790  175.7950  146.0350 C   0  0  1  0  0  3  0  0  0  0  0  0
  189.1770  174.9190  147.1710 C   0  0  0  0  0  1  0  0  0  0  0  0
  188.5270  177.1530  146.5270 N   0  0  0  0  0  1  0  0  0  0  0  0
  1 35  1  1  0  0  0
  2 21  1  0  0  0  0
  2 23  1  1  0  0  0
  3  8  1  0  0  0  0
  4 18  1  0  0  0  0
  5 21  1  0  0  0  0
  6  3  1  6  0  0  0
  6 20  1  0  0  0  0
  7 11  1  0  0  0  0
  8 12  1  0  0  0  0
  8  5  2  0  0  0  0
  9  4  1  1  0  0  0
  9  6  1  0  0  0  0
 10  5  1  0  0  0  0
 11  1  1  0  0  0  0
 12 16  1  0  0  0  0
 13  2  1  0  0  0  0
 14 19  1  0  0  0  0
 15 10  2  0  0  0  0
 16  2  1  0  0  0  0
 17 18  1  6  0  0  0
 17  7  1  0  0  0  0
 17 24  1  0  0  0  0
 19  3  2  0  0  0  0
 19 15  1  0  0  0  0
 20 26  1  0  0  0  0
 20 12  1  1  0  0  0
 22 29  1  6  0  0  0
 22 27  1  0  0  0  0
 22  9  1  0  0  0  0
 25  7  1  0  0  0  0
 26 24  1  6  0  0  0
 26  1  1  0  0  0  0
 27 14  1  0  0  0  0
 28 29  1  0  0  0  0
 30 29  2  0  0  0  0
 31 33  1  0  0  0  0
 32 33  2  0  0  0  0
 32 34  1  0  0  0  0
 33 30  1  0  0  0  0
 34 28  2  0  0  0  0
 35 37  1  0  0  0  0
 35 36  1  1  0  0  0
M  END
>  <MODEL>
5

>  <REMARK>
 VINA RESULT:      -7.5      2.831      6.775
  Name = 
  2 active torsions:
  status: ('A' for Active; 'I' for Inactive)
    1  A    between atoms: C_1  and  C_4
    2  A    between atoms: C_23  and  C_30
                            x       y       z     vdW  Elec       q    Type
                         _______ _______ _______ _____ _____    ______ ____

>  <TORSDO>
F 2

$$$$
=
 OpenBabel11112417293D

 37 43  0  0  1  0  0  0  0  0999 V2000
  193.8180  172.8140  144.4100 C   0  0  2  0  0  3  0  0  0  0  0  0
  194.5020  172.3060  139.8250 C   0  0  1  0  0  0  0  0  0  0  0  0
  190.5380  172.6820  140.8720 C   0  0  0  0  0  0  0  0  0  0  0  0
  189.9580  175.2150  143.8020 C   0  0  0  0  0  2  0  0  0  0  0  0
  192.1010  171.7460  139.3130 C   0  0  0  0  0  0  0  0  0  0  0  0
  190.5430  173.2930  142.2510 C   0  0  2  0  0  3  0  0  0  0  0  0
  193.0690  174.5510  145.9570 N   0  0  0  0  0  0  0  0  0  0  0  0
  191.7820  172.2370  140.5640 C   0  0  0  0  0  0  0  0  0  0  0  0
  189.9270  174.7200  142.3450 C   0  0  1  0  0  3  0  0  0  0  0  0
  191.1080  171.6130  138.3890 N   0  0  0  0  0  0  0  0  0  0  0  0
  194.0480  174.2360  144.9230 C   0  0  0  0  0  2  0  0  0  0  0  0
  192.7290  172.5270  141.5490 N   0  0  0  0  0  0  0  0  0  0  0  0
  194.4490  173.6070  139.3250 O   0  0  0  0  0  1  0  0  0  0  0  0
  188.1750  173.1370  140.1930 C   0  0  0  0  0  2  0  0  0  0  0  0
  189.8260  172.0070  138.6720 C   0  0  0  0  0  3  0  0  0  0  0  0
  194.1630  172.3250  141.3310 C   0  0  0  0  0  2  0  0  0  0  0  0
  191.7100  174.4330  145.4020 C   0  0  1  0  0  3  0  0  0  0  0  0
  191.3590  175.4790  144.3250 C   0  0  0  0  0  2  0  0  0  0  0  0
  189.5130  172.5590  139.9310 C   0  0  0  0  0  0  0  0  0  0  0  0
  192.0720  173.2920  142.6080 C   0  0  2  0  0  3  0  0  0  0  0  0
  193.5340  171.4060  139.0210 C   0  0  0  0  0  2  0  0  0  0  0  0
  188.4490  174.7650  141.8610 C   0  0  2  0  0  3  0  0  0  0  0  0
  195.9100  171.7780  139.6530 C   0  0  0  0  0  1  0  0  0  0  0  0
  191.4370  173.1000  144.9880 O   0  0  0  0  0  0  0  0  0  0  0  0
  193.3120  175.9100  146.4170 C   0  0  0  0  0  1  0  0  0  0  0  0
  192.3450  172.6660  143.9840 C   0  0  2  0  0  3  0  0  0  0  0  0
  188.3350  174.5610  140.4240 N   0  0  0  0  0  2  0  0  0  0  0  0
  188.1520  177.2680  141.6430 C   0  0  0  0  0  3  0  0  0  0  0  0
  187.7500  176.0490  142.2100 C   0  0  0  0  0  0  0  0  0  0  0  0
  186.6810  176.0230  143.1120 C   0  0  0  0  0  3  0  0  0  0  0  0
  184.9830  177.1780  144.3250 F   0  0  0  0  0  0  0  0  0  0  0  0
  186.4210  178.4210  142.8860 C   0  0  0  0  0  3  0  0  0  0  0  0
  186.0170  177.2070  143.4500 C   0  0  0  0  0  0  0  0  0  0  0  0
  187.4880  178.4510  141.9820 C   0  0  0  0  0  3  0  0  0  0  0  0
  194.2040  171.7660  145.4570 C   0  0  1  0  0  3  0  0  0  0  0  0
  193.9330  170.3660  144.9370 C   0  0  0  0  0  1  0  0  0  0  0  0
  195.6150  171.8770  145.7830 N   0  0  0  0  0  1  0  0  0  0  0  0
  1 11  1  0  0  0  0
  1 35  1  1  0  0  0
  2 23  1  6  0  0  0
  2 16  1  0  0  0  0
  4 18  1  0  0  0  0
  5  8  2  0  0  0  0
  6  3  1  6  0  0  0
  6  9  1  0  0  0  0
  6 20  1  0  0  0  0
  7 25  1  0  0  0  0
  8  3  1  0  0  0  0
  8 12  1  0  0  0  0
  9  4  1  1  0  0  0
 10 15  2  0  0  0  0
 10  5  1  0  0  0  0
 11  7  1  0  0  0  0
 13  2  1  0  0  0  0
 14 27  1  0  0  0  0
 15 19  1  0  0  0  0
 16 12  1  0  0  0  0
 17 18  1  6  0  0  0
 17  7  1  0  0  0  0
 19 14  1  0  0  0  0
 19  3  2  0  0  0  0
 20 12  1  6  0  0  0
 20 26  1  0  0  0  0
 21  5  1  0  0  0  0
 21  2  1  0  0  0  0
 22 29  1  6  0  0  0
 22  9  1  0  0  0  0
 24 17  1  0  0  0  0
 26  1  1  0  0  0  0
 26 24  1  1  0  0  0
 27 22  1  0  0  0  0
 28 34  2  0  0  0  0
 28 29  1  0  0  0  0
 29 30  2  0  0  0  0
 30 33  1  0  0  0  0
 32 33  2  0  0  0  0
 33 31  1  0  0  0  0
 34 32  1  0  0  0  0
 35 36  1  6  0  0  0
 35 37  1  0  0  0  0
M  END
>  <MODEL>
6

>  <REMARK>
 VINA RESULT:      -7.4      1.574      1.949
  Name = 
  2 active torsions:
  status: ('A' for Active; 'I' for Inactive)
    1  A    between atoms: C_1  and  C_4
    2  A    between atoms: C_23  and  C_30
                            x       y       z     vdW  Elec       q    Type
                         _______ _______ _______ _____ _____    ______ ____

>  <TORSDO>
F 2

$$$$
=
 OpenBabel11112417293D

 37 43  0  0  1  0  0  0  0  0999 V2000
  191.9050  172.3400  140.3770 C   0  0  2  0  0  3  0  0  0  0  0  0
  194.6540  171.0120  143.9030 C   0  0  1  0  0  0  0  0  0  0  0  0
  193.1530  174.8230  144.3220 C   0  0  0  0  0  0  0  0  0  0  0  0
  189.4700  175.1730  143.0370 C   0  0  0  0  0  2  0  0  0  0  0  0
  194.9710  173.3390  144.8110 C   0  0  0  0  0  0  0  0  0  0  0  0
  191.9670  174.8930  143.3920 C   0  0  2  0  0  3  0  0  0  0  0  0
  189.5410  172.8260  139.9960 N   0  0  0  0  0  0  0  0  0  0  0  0
  193.8950  173.7250  144.0360 C   0  0  0  0  0  0  0  0  0  0  0  0
  190.5880  175.0800  144.0910 C   0  0  1  0  0  3  0  0  0  0  0  0
  195.3590  174.1450  145.8400 N   0  0  0  0  0  0  0  0  0  0  0  0
  190.4740  171.8080  140.4650 C   0  0  0  0  0  2  0  0  0  0  0  0
  193.3360  172.9290  143.0330 N   0  0  0  0  0  0  0  0  0  0  0  0
  193.7630  170.5990  144.8940 O   0  0  0  0  0  1  0  0  0  0  0  0
  192.6830  176.7940  145.7890 C   0  0  0  0  0  2  0  0  0  0  0  0
  194.6650  175.2890  146.1380 C   0  0  0  0  0  3  0  0  0  0  0  0
  193.8590  171.5990  142.7160 C   0  0  0  0  0  2  0  0  0  0  0  0
  189.6760  174.0380  140.8210 C   0  0  1  0  0  3  0  0  0  0  0  0
  189.2310  173.8730  142.2870 C   0  0  0  0  0  2  0  0  0  0  0  0
  193.5340  175.6530  145.3790 C   0  0  0  0  0  0  0  0  0  0  0  0
  192.0580  173.5190  142.6370 C   0  0  2  0  0  3  0  0  0  0  0  0
  195.6490  172.0370  144.5000 C   0  0  0  0  0  2  0  0  0  0  0  0
  190.5280  176.3700  144.9580 C   0  0  2  0  0  3  0  0  0  0  0  0
  195.4310  169.8090  143.4160 C   0  0  0  0  0  1  0  0  0  0  0  0
  190.9760  174.6030  140.6980 O   0  0  0  0  0  0  0  0  0  0  0  0
  188.1910  172.2910  140.0990 C   0  0  0  0  0  1  0  0  0  0  0  0
  191.9850  173.6900  141.1120 C   0  0  2  0  0  3  0  0  0  0  0  0
  191.3730  176.2770  146.1410 N   0  0  0  0  0  2  0  0  0  0  0  0
  188.5390  176.0720  146.4920 C   0  0  0  0  0  3  0  0  0  0  0  0
  189.1360  176.7220  145.4020 C   0  0  0  0  0  0  0  0  0  0  0  0
  188.4310  177.7170  144.7160 C   0  0  0  0  0  3  0  0  0  0  0  0
  186.4540  179.0230  144.4460 F   0  0  0  0  0  0  0  0  0  0  0  0
  186.5400  177.4080  146.1980 C   0  0  0  0  0  3  0  0  0  0  0  0
  187.1340  178.0600  145.1130 C   0  0  0  0  0  0  0  0  0  0  0  0
  187.2420  176.4160  146.8880 C   0  0  0  0  0  3  0  0  0  0  0  0
  192.3720  172.4670  138.9240 C   0  0  1  0  0  3  0  0  0  0  0  0
  193.8060  172.9630  138.8660 C   0  0  0  0  0  1  0  0  0  0  0  0
  192.2990  171.1780  138.2580 N   0  0  0  0  0  1  0  0  0  0  0  0
  1 35  1  6  0  0  0
  1 11  1  0  0  0  0
  1 26  1  0  0  0  0
  2 23  1  6  0  0  0
  2 21  1  0  0  0  0
  2 13  1  0  0  0  0
  3 19  1  0  0  0  0
  5 10  2  0  0  0  0
  6  9  1  0  0  0  0
  6  3  1  1  0  0  0
  7 25  1  0  0  0  0
  7 11  1  0  0  0  0
  7 17  1  0  0  0  0
  8  3  2  0  0  0  0
  8  5  1  0  0  0  0
  9  4  1  6  0  0  0
  9 22  1  0  0  0  0
 10 15  1  0  0  0  0
 12  8  1  0  0  0  0
 14 27  1  0  0  0  0
 16 12  1  0  0  0  0
 16  2  1  0  0  0  0
 17 18  1  1  0  0  0
 18  4  1  0  0  0  0
 19 14  1  0  0  0  0
 19 15  2  0  0  0  0
 20 12  1  6  0  0  0
 20  6  1  0  0  0  0
 21  5  1  0  0  0  0
 22 29  1  1  0  0  0
 22 27  1  0  0  0  0
 24 17  1  0  0  0  0
 26 24  1  1  0  0  0
 26 20  1  0  0  0  0
 28 34  1  0  0  0  0
 29 28  2  0  0  0  0
 30 33  2  0  0  0  0
 30 29  1  0  0  0  0
 31 33  1  0  0  0  0
 32 34  2  0  0  0  0
 33 32  1  0  0  0  0
 35 36  1  1  0  0  0
 37 35  1  0  0  0  0
M  END
>  <MODEL>
7

>  <REMARK>
 VINA RESULT:      -7.4      1.599      5.238
  Name = 
  2 active torsions:
  status: ('A' for Active; 'I' for Inactive)
    1  A    between atoms: C_1  and  C_4
    2  A    between atoms: C_23  and  C_30
                            x       y       z     vdW  Elec       q    Type
                         _______ _______ _______ _____ _____    ______ ____

>  <TORSDO>
F 2

$$$$
=
 OpenBabel11112417293D

 37 43  0  0  1  0  0  0  0  0999 V2000
  194.7430  174.2710  143.2640 C   0  0  2  0  0  3  0  0  0  0  0  0
  194.2890  174.0160  138.6300 C   0  0  1  0  0  0  0  0  0  0  0  0
  190.7310  173.6150  140.6630 C   0  0  0  0  0  0  0  0  0  0  0  0
  190.5000  175.9190  143.8210 C   0  0  0  0  0  2  0  0  0  0  0  0
  191.9740  173.0290  138.6980 C   0  0  0  0  0  0  0  0  0  0  0  0
  190.9880  174.1810  142.0370 C   0  0  2  0  0  3  0  0  0  0  0  0
  194.1310  175.7970  145.0720 N   0  0  0  0  0  0  0  0  0  0  0  0
  191.9100  173.4190  140.0210 C   0  0  0  0  0  0  0  0  0  0  0  0
  190.1780  175.4650  142.3860 C   0  0  1  0  0  3  0  0  0  0  0  0
  190.8130  172.7350  138.0450 N   0  0  0  0  0  0  0  0  0  0  0  0
  194.8460  175.6980  143.8050 C   0  0  0  0  0  2  0  0  0  0  0  0
  193.0150  173.8570  140.7560 N   0  0  0  0  0  0  0  0  0  0  0  0
  193.8810  175.2960  138.2550 O   0  0  0  0  0  1  0  0  0  0  0  0
  188.2310  173.6350  140.6340 C   0  0  0  0  0  2  0  0  0  0  0  0
  189.6000  172.8740  138.6690 C   0  0  0  0  0  3  0  0  0  0  0  0
  194.3550  173.9330  140.1710 C   0  0  0  0  0  2  0  0  0  0  0  0
  192.7160  175.4400  144.8690 C   0  0  1  0  0  3  0  0  0  0  0  0
  191.9210  176.4280  143.9940 C   0  0  0  0  0  2  0  0  0  0  0  0
  189.5340  173.3260  140.0030 C   0  0  0  0  0  0  0  0  0  0  0  0
  192.5330  174.4580  141.9980 C   0  0  2  0  0  3  0  0  0  0  0  0
  193.3170  172.9710  138.0320 C   0  0  0  0  0  2  0  0  0  0  0  0
  188.6400  175.2440  142.2940 C   0  0  2  0  0  3  0  0  0  0  0  0
  195.6730  173.7660  138.0720 C   0  0  0  0  0  1  0  0  0  0  0  0
  192.5820  174.0910  144.4410 O   0  0  0  0  0  0  0  0  0  0  0  0
  194.2430  177.1660  145.5540 C   0  0  0  0  0  1  0  0  0  0  0  0
  193.2600  173.8600  143.2120 C   0  0  2  0  0  3  0  0  0  0  0  0
  188.1940  175.0580  140.9200 N   0  0  0  0  0  2  0  0  0  0  0  0
  187.7770  177.6220  142.2800 C   0  0  0  0  0  3  0  0  0  0  0  0
  187.8430  176.3650  142.8990 C   0  0  0  0  0  0  0  0  0  0  0  0
  187.1550  176.1460  144.0970 C   0  0  0  0  0  3  0  0  0  0  0  0
  185.7440  176.9600  145.8380 F   0  0  0  0  0  0  0  0  0  0  0  0
  186.3460  178.4280  144.0590 C   0  0  0  0  0  3  0  0  0  0  0  0
  186.4070  177.1760  144.6770 C   0  0  0  0  0  0  0  0  0  0  0  0
  187.0300  178.6510  142.8600 C   0  0  0  0  0  3  0  0  0  0  0  0
  195.5650  173.2880  144.1020 C   0  0  1  0  0  3  0  0  0  0  0  0
  195.3940  171.8710  143.5830 C   0  0  0  0  0  1  0  0  0  0  0  0
  196.9740  173.6370  144.0480 N   0  0  0  0  0  1  0  0  0  0  0  0
  1 11  1  0  0  0  0
  1 35  1  1  0  0  0
  2 23  1  6  0  0  0
  2 16  1  0  0  0  0
  4 18  1  0  0  0  0
  5  8  2  0  0  0  0
  6  3  1  6  0  0  0
  6  9  1  0  0  0  0
  7 25  1  0  0  0  0
  8  3  1  0  0  0  0
  8 12  1  0  0  0  0
  9  4  1  1  0  0  0
 10 15  2  0  0  0  0
 10  5  1  0  0  0  0
 11  7  1  0  0  0  0
 13  2  1  0  0  0  0
 14 27  1  0  0  0  0
 15 19  1  0  0  0  0
 16 12  1  0  0  0  0
 17 18  1  6  0  0  0
 17  7  1  0  0  0  0
 19 14  1  0  0  0  0
 19  3  2  0  0  0  0
 20 12  1  6  0  0  0
 20  6  1  0  0  0  0
 20 26  1  0  0  0  0
 21  2  1  0  0  0  0
 21  5  1  0  0  0  0
 22  9  1  0  0  0  0
 22 29  1  6  0  0  0
 24 17  1  0  0  0  0
 26  1  1  0  0  0  0
 26 24  1  1  0  0  0
 27 22  1  0  0  0  0
 28 34  2  0  0  0  0
 28 29  1  0  0  0  0
 29 30  2  0  0  0  0
 30 33  1  0  0  0  0
 32 33  2  0  0  0  0
 33 31  1  0  0  0  0
 34 32  1  0  0  0  0
 35 36  1  6  0  0  0
 37 35  1  0  0  0  0
M  END
>  <MODEL>
8

>  <REMARK>
 VINA RESULT:      -7.3      1.402      1.692
  Name = 
  2 active torsions:
  status: ('A' for Active; 'I' for Inactive)
    1  A    between atoms: C_1  and  C_4
    2  A    between atoms: C_23  and  C_30
                            x       y       z     vdW  Elec       q    Type
                         _______ _______ _______ _____ _____    ______ ____

>  <TORSDO>
F 2

$$$$
=
 OpenBabel11112417293D

 37 43  0  0  1  0  0  0  0  0999 V2000
  187.8810  176.9180  144.7850 C   0  0  2  0  0  3  0  0  0  0  0  0
  192.2900  176.2800  146.1660 C   0  0  1  0  0  0  0  0  0  0  0  0
  190.9160  173.3510  143.6200 C   0  0  0  0  0  0  0  0  0  0  0  0
  188.5670  174.7380  140.8090 C   0  0  0  0  0  2  0  0  0  0  0  0
  192.3950  173.8740  145.4320 C   0  0  0  0  0  0  0  0  0  0  0  0
  189.7130  173.9490  142.9320 C   0  0  2  0  0  3  0  0  0  0  0  0
  186.6800  177.4770  142.7330 N   0  0  0  0  0  0  0  0  0  0  0  0
  191.2550  174.1120  144.6900 C   0  0  0  0  0  0  0  0  0  0  0  0
  189.8670  174.1610  141.3960 C   0  0  1  0  0  3  0  0  0  0  0  0
  193.1510  172.7780  145.1380 N   0  0  0  0  0  0  0  0  0  0  0  0
  187.7220  177.9280  143.6470 C   0  0  0  0  0  2  0  0  0  0  0  0
  190.4690  175.2590  144.8200 N   0  0  0  0  0  0  0  0  0  0  0  0
  193.0540  176.7780  145.1100 O   0  0  0  0  0  1  0  0  0  0  0  0
  191.4100  171.4460  142.0760 C   0  0  0  0  0  2  0  0  0  0  0  0
  192.8200  171.9550  144.0930 C   0  0  0  0  0  3  0  0  0  0  0  0
  190.7960  176.3200  145.7760 C   0  0  0  0  0  2  0  0  0  0  0  0
  187.0400  176.1580  142.1840 C   0  0  1  0  0  3  0  0  0  0  0  0
  188.2740  176.1590  141.2610 C   0  0  0  0  0  2  0  0  0  0  0  0
  191.6860  172.2300  143.3020 C   0  0  0  0  0  0  0  0  0  0  0  0
  189.5380  175.3100  143.6940 C   0  0  2  0  0  3  0  0  0  0  0  0
  192.7630  174.8480  146.5130 C   0  0  0  0  0  2  0  0  0  0  0  0
  190.1810  172.8380  140.6390 C   0  0  2  0  0  3  0  0  0  0  0  0
  192.4970  177.1660  147.3750 C   0  0  0  0  0  1  0  0  0  0  0  0
  187.1180  175.1780  143.2120 O   0  0  0  0  0  0  0  0  0  0  0  0
  186.5590  178.4550  141.6610 C   0  0  0  0  0  1  0  0  0  0  0  0
  188.0970  175.5160  144.1860 C   0  0  2  0  0  3  0  0  0  0  0  0
  191.5170  172.3380  140.9370 N   0  0  0  0  0  2  0  0  0  0  0  0
  189.0490  172.2640  138.4510 C   0  0  0  0  0  3  0  0  0  0  0  0
  190.0470  172.9620  139.1480 C   0  0  0  0  0  0  0  0  0  0  0  0
  190.9310  173.7910  138.4480 C   0  0  0  0  0  3  0  0  0  0  0  0
  191.6810  174.7230  136.3850 F   0  0  0  0  0  0  0  0  0  0  0  0
  189.8280  173.2220  136.3670 C   0  0  0  0  0  3  0  0  0  0  0  0
  190.8220  173.9200  137.0590 C   0  0  0  0  0  0  0  0  0  0  0  0
  188.9410  172.3950  137.0630 C   0  0  0  0  0  3  0  0  0  0  0  0
  186.6790  176.9410  145.7330 C   0  0  1  0  0  3  0  0  0  0  0  0
  187.0690  176.4160  147.1030 C   0  0  0  0  0  1  0  0  0  0  0  0
  186.1790  178.2970  145.8800 N   0  0  0  0  0  1  0  0  0  0  0  0
  1 35  1  1  0  0  0
  2 21  1  0  0  0  0
  2 23  1  1  0  0  0
  3  8  1  0  0  0  0
  4 18  1  0  0  0  0
  5 21  1  0  0  0  0
  6  3  1  1  0  0  0
  6 20  1  0  0  0  0
  7 11  1  0  0  0  0
  8 12  1  0  0  0  0
  8  5  2  0  0  0  0
  9  4  1  6  0  0  0
  9  6  1  0  0  0  0
 10  5  1  0  0  0  0
 11  1  1  0  0  0  0
 12 16  1  0  0  0  0
 13  2  1  0  0  0  0
 14 19  1  0  0  0  0
 15 10  2  0  0  0  0
 16  2  1  0  0  0  0
 17 18  1  1  0  0  0
 17  7  1  0  0  0  0
 17 24  1  0  0  0  0
 19  3  2  0  0  0  0
 19 15  1  0  0  0  0
 20 26  1  0  0  0  0
 20 12  1  1  0  0  0
 22 29  1  6  0  0  0
 22 27  1  0  0  0  0
 22  9  1  0  0  0  0
 25  7  1  0  0  0  0
 26 24  1  6  0  0  0
 26  1  1  0  0  0  0
 27 14  1  0  0  0  0
 28 29  1  0  0  0  0
 30 29  2  0  0  0  0
 31 33  1  0  0  0  0
 32 33  2  0  0  0  0
 32 34  1  0  0  0  0
 33 30  1  0  0  0  0
 34 28  2  0  0  0  0
 35 37  1  0  0  0  0
 35 36  1  1  0  0  0
M  END
>  <MODEL>
9

>  <REMARK>
 VINA RESULT:      -7.3      2.862      6.940
  Name = 
  2 active torsions:
  status: ('A' for Active; 'I' for Inactive)
    1  A    between atoms: C_1  and  C_4
    2  A    between atoms: C_23  and  C_30
                            x       y       z     vdW  Elec       q    Type
                         _______ _______ _______ _____ _____    ______ ____

>  <TORSDO>
F 2

$$$$
