=
 OpenBabel11112416223D

 30 35  0  0  1  0  0  0  0  0999 V2000
  186.6080  177.1610  143.8720 C   0  0  0  0  0  0  0  0  0  0  0  0
  184.8800  178.2530  145.3330 C   0  0  0  0  0  0  0  0  0  0  0  0
  188.7730  175.9640  147.1640 N   0  0  0  0  0  2  0  0  0  0  0  0
  187.7790  176.3570  143.7670 C   0  0  0  0  0  0  0  0  0  0  0  0
  186.0460  177.7840  142.6140 C   0  0  0  0  0  2  0  0  0  0  0  0
  187.8210  175.7100  140.0700 O   0  0  0  0  0  1  0  0  0  0  0  0
  190.5330  175.5340  142.7240 C   0  0  1  0  0  3  0  0  0  0  0  0
  187.6730  176.4740  141.2330 C   0  0  1  0  0  3  0  0  0  0  0  0
  190.8450  175.4750  144.2130 C   0  0  2  0  0  3  0  0  0  0  0  0
  189.8240  175.4560  146.4830 C   0  0  0  0  0  0  0  0  0  0  0  0
  186.2220  176.9280  141.3610 C   0  0  2  0  0  3  0  0  0  0  0  0
  188.0070  175.6250  142.4570 C   0  0  1  0  0  3  0  0  0  0  0  0
  184.4110  178.5440  146.6170 C   0  0  0  0  0  3  0  0  0  0  0  0
  191.7340  174.2620  144.3960 C   0  0  0  0  0  2  0  0  0  0  0  0
  191.7390  174.9070  142.0430 C   0  0  0  0  0  2  0  0  0  0  0  0
  184.1300  178.7100  144.2550 O   0  0  0  0  0  1  0  0  0  0  0  0
  187.9440  176.3500  146.1790 C   0  0  0  0  0  0  0  0  0  0  0  0
  185.0980  178.1040  147.7460 C   0  0  0  0  0  3  0  0  0  0  0  0
  186.0740  177.5010  145.1580 C   0  0  0  0  0  0  0  0  0  0  0  0
  188.4720  176.0490  144.9520 C   0  0  0  0  0  0  0  0  0  0  0  0
  190.8640  175.0510  147.0680 O   0  0  0  0  0  0  0  0  0  0  0  0
  189.6910  175.4840  145.1290 N   0  0  0  0  0  0  0  0  0  0  0  0
  192.5310  174.1670  143.1120 C   0  0  0  0  0  2  0  0  0  0  0  0
  189.0970  173.3990  142.9020 C   0  0  0  0  0  1  0  0  0  0  0  0
  186.2670  177.3620  147.6020 C   0  0  0  0  0  3  0  0  0  0  0  0
  186.7540  177.0540  146.3270 C   0  0  0  0  0  0  0  0  0  0  0  0
  189.2700  174.7890  142.3010 C   0  0  2  0  0  3  0  0  0  0  0  0
  185.8020  177.7330  140.1370 C   0  0  0  0  0  2  0  0  0  0  0  0
  183.3170  177.9060  140.2600 C   0  0  0  0  0  1  0  0  0  0  0  0
  184.6260  178.6460  140.4520 C   0  0  0  0  0  2  0  0  0  0  0  0
  1 19  1  0  0  0  0
  2 13  1  0  0  0  0
  4  1  2  0  0  0  0
  4 20  1  0  0  0  0
  5  1  1  0  0  0  0
  7 15  1  6  0  0  0
  7  9  1  0  0  0  0
  8  6  1  6  0  0  0
  8 11  1  0  0  0  0
  8 12  1  0  0  0  0
  9 14  1  6  0  0  0
  9 22  1  0  0  0  0
 10 21  2  0  0  0  0
 10  3  1  0  0  0  0
 11 28  1  6  0  0  0
 11  5  1  0  0  0  0
 12  4  1  1  0  0  0
 13 18  2  0  0  0  0
 15 23  1  0  0  0  0
 16  2  1  0  0  0  0
 17 26  1  0  0  0  0
 17  3  1  0  0  0  0
 19  2  2  0  0  0  0
 19 26  1  0  0  0  0
 20 22  1  0  0  0  0
 20 17  2  0  0  0  0
 22 10  1  0  0  0  0
 23 14  1  0  0  0  0
 25 18  1  0  0  0  0
 26 25  2  0  0  0  0
 27 12  1  0  0  0  0
 27  7  1  0  0  0  0
 27 24  1  1  0  0  0
 28 30  1  0  0  0  0
 29 30  1  0  0  0  0
M  END
>  <MODEL>
1

>  <REMARK>
 VINA RESULT:      -8.8      0.000      0.000
  Name = 
  2 active torsions:
  status: ('A' for Active; 'I' for Inactive)
    1  A    between atoms: C_11  and  C_28
    2  A    between atoms: C_28  and  C_30
                            x       y       z     vdW  Elec       q    Type
                         _______ _______ _______ _____ _____    ______ ____

>  <TORSDO>
F 2

$$$$
=
 OpenBabel11112416223D

 30 35  0  0  1  0  0  0  0  0999 V2000
  187.5490  176.9660  144.2770 C   0  0  0  0  0  0  0  0  0  0  0  0
  185.4310  178.0310  145.1080 C   0  0  0  0  0  0  0  0  0  0  0  0
  189.3450  177.4440  147.9510 N   0  0  0  0  0  2  0  0  0  0  0  0
  188.8550  176.4720  144.5610 C   0  0  0  0  0  0  0  0  0  0  0  0
  187.0880  176.9970  142.8380 C   0  0  0  0  0  2  0  0  0  0  0  0
  189.6140  174.6930  141.3440 O   0  0  0  0  0  1  0  0  0  0  0  0
  191.8460  176.0300  144.1120 C   0  0  1  0  0  3  0  0  0  0  0  0
  189.1380  175.7340  142.1480 C   0  0  1  0  0  3  0  0  0  0  0  0
  191.9210  176.5310  145.5470 C   0  0  2  0  0  3  0  0  0  0  0  0
  190.5700  177.0070  147.5850 C   0  0  0  0  0  0  0  0  0  0  0  0
  187.6250  175.8490  141.9850 C   0  0  2  0  0  3  0  0  0  0  0  0
  189.4270  175.4310  143.6160 C   0  0  1  0  0  3  0  0  0  0  0  0
  184.7140  178.6030  146.1640 C   0  0  0  0  0  3  0  0  0  0  0  0
  192.9850  175.6890  146.2210 C   0  0  0  0  0  2  0  0  0  0  0  0
  193.2450  175.5200  143.8000 C   0  0  0  0  0  2  0  0  0  0  0  0
  184.7910  177.9240  143.8790 O   0  0  0  0  0  1  0  0  0  0  0  0
  188.6280  177.2840  146.8270 C   0  0  0  0  0  0  0  0  0  0  0  0
  185.2830  178.7260  147.4300 C   0  0  0  0  0  3  0  0  0  0  0  0
  186.7600  177.5670  145.3110 C   0  0  0  0  0  0  0  0  0  0  0  0
  189.3940  176.7360  145.8340 C   0  0  0  0  0  0  0  0  0  0  0  0
  191.5610  177.0710  148.3600 O   0  0  0  0  0  0  0  0  0  0  0  0
  190.6540  176.5640  146.3010 N   0  0  0  0  0  0  0  0  0  0  0  0
  193.9820  175.3750  145.1240 C   0  0  0  0  0  2  0  0  0  0  0  0
  190.8390  173.7920  144.9050 C   0  0  0  0  0  1  0  0  0  0  0  0
  186.5810  178.2760  147.6550 C   0  0  0  0  0  3  0  0  0  0  0  0
  187.3160  177.6970  146.6160 C   0  0  0  0  0  0  0  0  0  0  0  0
  190.8350  174.9120  143.8720 C   0  0  2  0  0  3  0  0  0  0  0  0
  187.2600  176.0920  140.5250 C   0  0  0  0  0  2  0  0  0  0  0  0
  185.4760  177.7140  139.8850 C   0  0  0  0  0  1  0  0  0  0  0  0
  186.9330  177.5560  140.2720 C   0  0  0  0  0  2  0  0  0  0  0  0
  1  4  2  0  0  0  0
  1 19  1  0  0  0  0
  2 19  2  0  0  0  0
  2 13  1  0  0  0  0
  4 20  1  0  0  0  0
  5  1  1  0  0  0  0
  7 15  1  1  0  0  0
  7  9  1  0  0  0  0
  8  6  1  6  0  0  0
  8 12  1  0  0  0  0
  9 14  1  1  0  0  0
  9 22  1  0  0  0  0
 10  3  1  0  0  0  0
 10 21  2  0  0  0  0
 11 28  1  6  0  0  0
 11  8  1  0  0  0  0
 11  5  1  0  0  0  0
 12 27  1  0  0  0  0
 12  4  1  1  0  0  0
 13 18  2  0  0  0  0
 15 23  1  0  0  0  0
 16  2  1  0  0  0  0
 17  3  1  0  0  0  0
 18 25  1  0  0  0  0
 19 26  1  0  0  0  0
 20 22  1  0  0  0  0
 20 17  2  0  0  0  0
 22 10  1  0  0  0  0
 23 14  1  0  0  0  0
 26 17  1  0  0  0  0
 26 25  2  0  0  0  0
 27  7  1  0  0  0  0
 27 24  1  1  0  0  0
 29 30  1  0  0  0  0
 30 28  1  0  0  0  0
M  END
>  <MODEL>
2

>  <REMARK>
 VINA RESULT:      -8.4      1.452      1.855
  Name = 
  2 active torsions:
  status: ('A' for Active; 'I' for Inactive)
    1  A    between atoms: C_11  and  C_28
    2  A    between atoms: C_28  and  C_30
                            x       y       z     vdW  Elec       q    Type
                         _______ _______ _______ _____ _____    ______ ____

>  <TORSDO>
F 2

$$$$
=
 OpenBabel11112416223D

 30 35  0  0  1  0  0  0  0  0999 V2000
  187.9070  176.2840  142.6320 C   0  0  0  0  0  0  0  0  0  0  0  0
  185.9170  177.7830  142.3060 C   0  0  0  0  0  0  0  0  0  0  0  0
  188.5050  177.7450  146.4350 N   0  0  0  0  0  2  0  0  0  0  0  0
  188.9170  175.7740  143.4980 C   0  0  0  0  0  0  0  0  0  0  0  0
  187.9440  175.8910  141.1730 C   0  0  0  0  0  2  0  0  0  0  0  0
  190.2540  172.9690  141.3930 O   0  0  0  0  0  1  0  0  0  0  0  0
  191.7270  174.8930  144.3190 C   0  0  1  0  0  3  0  0  0  0  0  0
  189.7840  174.2610  141.6530 C   0  0  1  0  0  3  0  0  0  0  0  0
  191.4490  175.8260  145.4890 C   0  0  2  0  0  3  0  0  0  0  0  0
  189.6580  177.0840  146.6770 C   0  0  0  0  0  0  0  0  0  0  0  0
  188.4630  174.4770  140.9200 C   0  0  2  0  0  3  0  0  0  0  0  0
  189.5200  174.4260  143.1480 C   0  0  1  0  0  3  0  0  0  0  0  0
  185.0440  178.7420  142.8280 C   0  0  0  0  0  3  0  0  0  0  0  0
  192.0370  175.1420  146.7070 C   0  0  0  0  0  2  0  0  0  0  0  0
  193.0070  174.1630  144.6930 C   0  0  0  0  0  2  0  0  0  0  0  0
  185.6930  177.3480  141.0040 O   0  0  0  0  0  1  0  0  0  0  0  0
  188.1640  177.3030  145.2130 C   0  0  0  0  0  0  0  0  0  0  0  0
  185.1950  179.2110  144.1300 C   0  0  0  0  0  3  0  0  0  0  0  0
  186.9800  177.2720  143.1000 C   0  0  0  0  0  0  0  0  0  0  0  0
  189.0680  176.3810  144.7590 C   0  0  0  0  0  0  0  0  0  0  0  0
  190.3410  177.2920  147.7160 O   0  0  0  0  0  0  0  0  0  0  0  0
  190.0470  176.2380  145.6850 N   0  0  0  0  0  0  0  0  0  0  0  0
  193.2370  174.3820  146.1820 C   0  0  0  0  0  2  0  0  0  0  0  0
  190.0620  173.1600  145.2560 C   0  0  0  0  0  1  0  0  0  0  0  0
  186.2250  178.7250  144.9300 C   0  0  0  0  0  3  0  0  0  0  0  0
  187.1080  177.7610  144.4320 C   0  0  0  0  0  0  0  0  0  0  0  0
  190.6280  173.8730  144.0330 C   0  0  2  0  0  3  0  0  0  0  0  0
  188.6410  174.2660  139.4210 C   0  0  0  0  0  2  0  0  0  0  0  0
  189.1950  172.1800  138.1700 C   0  0  0  0  0  1  0  0  0  0  0  0
  188.1400  172.8950  138.9920 C   0  0  0  0  0  2  0  0  0  0  0  0
  1 19  2  0  0  0  0
  1  4  1  0  0  0  0
  2 13  2  0  0  0  0
  2 19  1  0  0  0  0
  3 10  1  0  0  0  0
  4 20  2  0  0  0  0
  5  1  1  0  0  0  0
  7 15  1  1  0  0  0
  7  9  1  0  0  0  0
  8  6  1  1  0  0  0
  8 12  1  0  0  0  0
  9 22  1  0  0  0  0
  9 14  1  1  0  0  0
 10 21  2  0  0  0  0
 11 28  1  6  0  0  0
 11  5  1  0  0  0  0
 11  8  1  0  0  0  0
 12  4  1  6  0  0  0
 12 27  1  0  0  0  0
 13 18  1  0  0  0  0
 15 23  1  0  0  0  0
 16  2  1  0  0  0  0
 17  3  1  0  0  0  0
 18 25  2  0  0  0  0
 19 26  1  0  0  0  0
 20 17  1  0  0  0  0
 20 22  1  0  0  0  0
 22 10  1  0  0  0  0
 23 14  1  0  0  0  0
 26 25  1  0  0  0  0
 26 17  2  0  0  0  0
 27  7  1  0  0  0  0
 27 24  1  1  0  0  0
 29 30  1  0  0  0  0
 30 28  1  0  0  0  0
M  END
>  <MODEL>
3

>  <REMARK>
 VINA RESULT:      -8.3      2.027      3.304
  Name = 
  2 active torsions:
  status: ('A' for Active; 'I' for Inactive)
    1  A    between atoms: C_11  and  C_28
    2  A    between atoms: C_28  and  C_30
                            x       y       z     vdW  Elec       q    Type
                         _______ _______ _______ _____ _____    ______ ____

>  <TORSDO>
F 2

$$$$
=
 OpenBabel11112416223D

 30 35  0  0  1  0  0  0  0  0999 V2000
  188.0510  176.5290  144.6810 C   0  0  0  0  0  0  0  0  0  0  0  0
  186.5790  178.3960  145.4930 C   0  0  0  0  0  0  0  0  0  0  0  0
  186.7910  177.0950  140.8020 N   0  0  0  0  0  2  0  0  0  0  0  0
  188.5880  175.7920  143.5870 C   0  0  0  0  0  0  0  0  0  0  0  0
  188.3620  176.0630  146.0850 C   0  0  0  0  0  2  0  0  0  0  0  0
  191.2430  173.8090  145.3490 O   0  0  0  0  0  1  0  0  0  0  0  0
  189.4540  173.3030  142.0360 C   0  0  1  0  0  3  0  0  0  0  0  0
  189.9770  174.3800  145.1750 C   0  0  1  0  0  3  0  0  0  0  0  0
  188.5930  173.9370  140.9530 C   0  0  2  0  0  3  0  0  0  0  0  0
  187.4410  176.0360  140.2700 C   0  0  0  0  0  0  0  0  0  0  0  0
  189.7490  175.4440  146.2450 C   0  0  2  0  0  3  0  0  0  0  0  0
  189.9010  175.0650  143.8120 C   0  0  1  0  0  3  0  0  0  0  0  0
  185.6680  179.4160  145.1990 C   0  0  0  0  0  3  0  0  0  0  0  0
  189.3320  173.6970  139.6510 C   0  0  0  0  0  2  0  0  0  0  0  0
  190.1770  172.1580  141.3450 C   0  0  0  0  0  2  0  0  0  0  0  0
  186.9450  178.2240  146.8240 O   0  0  0  0  0  1  0  0  0  0  0  0
  187.1720  177.0570  142.0900 C   0  0  0  0  0  0  0  0  0  0  0  0
  185.2690  179.6600  143.8880 C   0  0  0  0  0  3  0  0  0  0  0  0
  187.1110  177.5860  144.4520 C   0  0  0  0  0  0  0  0  0  0  0  0
  188.0480  176.0290  142.3090 C   0  0  0  0  0  0  0  0  0  0  0  0
  187.2770  175.6860  139.0710 O   0  0  0  0  0  0  0  0  0  0  0  0
  188.2220  175.3500  141.1480 N   0  0  0  0  0  0  0  0  0  0  0  0
  190.0370  172.3700  139.8450 C   0  0  0  0  0  2  0  0  0  0  0  0
  191.2710  175.1030  141.7000 C   0  0  0  0  0  1  0  0  0  0  0  0
  185.7780  178.8850  142.8500 C   0  0  0  0  0  3  0  0  0  0  0  0
  186.6930  177.8610  143.1180 C   0  0  0  0  0  0  0  0  0  0  0  0
  190.4800  174.2380  142.6730 C   0  0  2  0  0  3  0  0  0  0  0  0
  189.8730  174.8370  147.6380 C   0  0  0  0  0  2  0  0  0  0  0  0
  191.4460  176.7400  147.9930 C   0  0  0  0  0  1  0  0  0  0  0  0
  191.1510  175.2910  148.3270 C   0  0  0  0  0  2  0  0  0  0  0  0
  1  5  1  0  0  0  0
  2 16  1  0  0  0  0
  3 17  1  0  0  0  0
  4  1  2  0  0  0  0
  5 11  1  0  0  0  0
  7 15  1  6  0  0  0
  7 27  1  0  0  0  0
  8  6  1  1  0  0  0
  8 11  1  0  0  0  0
  9 14  1  6  0  0  0
  9 22  1  0  0  0  0
  9  7  1  0  0  0  0
 10  3  1  0  0  0  0
 10 22  1  0  0  0  0
 11 28  1  1  0  0  0
 12  4  1  6  0  0  0
 12  8  1  0  0  0  0
 13  2  1  0  0  0  0
 14 23  1  0  0  0  0
 17 20  2  0  0  0  0
 17 26  1  0  0  0  0
 18 13  2  0  0  0  0
 19  1  1  0  0  0  0
 19  2  2  0  0  0  0
 20  4  1  0  0  0  0
 21 10  2  0  0  0  0
 22 20  1  0  0  0  0
 23 15  1  0  0  0  0
 25 26  2  0  0  0  0
 25 18  1  0  0  0  0
 26 19  1  0  0  0  0
 27 24  1  6  0  0  0
 27 12  1  0  0  0  0
 28 30  1  0  0  0  0
 29 30  1  0  0  0  0
M  END
>  <MODEL>
4

>  <REMARK>
 VINA RESULT:      -8.2      2.200      5.304
  Name = 
  2 active torsions:
  status: ('A' for Active; 'I' for Inactive)
    1  A    between atoms: C_11  and  C_28
    2  A    between atoms: C_28  and  C_30
                            x       y       z     vdW  Elec       q    Type
                         _______ _______ _______ _____ _____    ______ ____

>  <TORSDO>
F 2

$$$$
=
 OpenBabel11112416223D

 30 35  0  0  1  0  0  0  0  0999 V2000
  186.9160  176.7120  143.7450 C   0  0  0  0  0  0  0  0  0  0  0  0
  185.1740  178.1530  142.6490 C   0  0  0  0  0  0  0  0  0  0  0  0
  188.1720  175.2830  140.0930 N   0  0  0  0  0  2  0  0  0  0  0  0
  188.0250  175.8280  143.6100 C   0  0  0  0  0  0  0  0  0  0  0  0
  186.3550  176.9560  145.1280 C   0  0  0  0  0  2  0  0  0  0  0  0
  189.2020  175.6730  147.1700 O   0  0  0  0  0  1  0  0  0  0  0  0
  189.7400  173.3670  144.2000 C   0  0  1  0  0  3  0  0  0  0  0  0
  188.2630  175.6830  146.1330 C   0  0  1  0  0  3  0  0  0  0  0  0
  189.6620  173.2110  142.6880 C   0  0  2  0  0  3  0  0  0  0  0  0
  189.0530  174.3780  140.5740 C   0  0  0  0  0  0  0  0  0  0  0  0
  187.4030  176.9390  146.2390 C   0  0  2  0  0  3  0  0  0  0  0  0
  188.9790  175.7200  144.7850 C   0  0  1  0  0  3  0  0  0  0  0  0
  184.5740  178.6190  141.4750 C   0  0  0  0  0  3  0  0  0  0  0  0
  191.0360  172.7420  142.2540 C   0  0  0  0  0  2  0  0  0  0  0  0
  190.7770  172.3490  144.6480 C   0  0  0  0  0  2  0  0  0  0  0  0
  184.6900  178.6400  143.8570 O   0  0  0  0  0  1  0  0  0  0  0  0
  187.7190  175.8740  141.2120 C   0  0  0  0  0  0  0  0  0  0  0  0
  185.0180  178.1900  140.2260 C   0  0  0  0  0  3  0  0  0  0  0  0
  186.2510  177.2260  142.5850 C   0  0  0  0  0  0  0  0  0  0  0  0
  188.3370  175.3600  142.3190 C   0  0  0  0  0  0  0  0  0  0  0  0
  189.6430  173.5580  139.8220 O   0  0  0  0  0  0  0  0  0  0  0  0
  189.1900  174.3830  141.9280 N   0  0  0  0  0  0  0  0  0  0  0  0
  191.5430  171.9050  143.4100 C   0  0  0  0  0  2  0  0  0  0  0  0
  191.3300  175.3820  143.9490 C   0  0  0  0  0  1  0  0  0  0  0  0
  186.0720  177.2870  140.1360 C   0  0  0  0  0  3  0  0  0  0  0  0
  186.6920  176.8090  141.2960 C   0  0  0  0  0  0  0  0  0  0  0  0
  190.1520  174.7550  144.6840 C   0  0  2  0  0  3  0  0  0  0  0  0
  186.7040  176.9970  147.5920 C   0  0  0  0  0  2  0  0  0  0  0  0
  185.9670  179.3800  147.6510 C   0  0  0  0  0  1  0  0  0  0  0  0
  185.5080  177.9380  147.5570 C   0  0  0  0  0  2  0  0  0  0  0  0
  1  5  1  0  0  0  0
  2 16  1  0  0  0  0
  3 10  1  0  0  0  0
  3 17  1  0  0  0  0
  4  1  1  0  0  0  0
  5 11  1  0  0  0  0
  7 15  1  6  0  0  0
  7 27  1  0  0  0  0
  8 11  1  0  0  0  0
  8  6  1  1  0  0  0
  9 14  1  6  0  0  0
  9  7  1  0  0  0  0
 10 22  1  0  0  0  0
 11 28  1  1  0  0  0
 12  4  1  6  0  0  0
 12  8  1  0  0  0  0
 13  2  2  0  0  0  0
 14 23  1  0  0  0  0
 17 26  2  0  0  0  0
 17 20  1  0  0  0  0
 18 13  1  0  0  0  0
 19  2  1  0  0  0  0
 19  1  2  0  0  0  0
 20  4  2  0  0  0  0
 21 10  2  0  0  0  0
 22 20  1  0  0  0  0
 22  9  1  0  0  0  0
 23 15  1  0  0  0  0
 25 18  2  0  0  0  0
 25 26  1  0  0  0  0
 26 19  1  0  0  0  0
 27 24  1  6  0  0  0
 27 12  1  0  0  0  0
 30 28  1  0  0  0  0
 30 29  1  0  0  0  0
M  END
>  <MODEL>
5

>  <REMARK>
 VINA RESULT:      -8.1      1.669      4.886
  Name = 
  2 active torsions:
  status: ('A' for Active; 'I' for Inactive)
    1  A    between atoms: C_11  and  C_28
    2  A    between atoms: C_28  and  C_30
                            x       y       z     vdW  Elec       q    Type
                         _______ _______ _______ _____ _____    ______ ____

>  <TORSDO>
F 2

$$$$
=
 OpenBabel11112416223D

 30 35  0  0  1  0  0  0  0  0999 V2000
  189.6640  175.0190  143.9980 C   0  0  0  0  0  0  0  0  0  0  0  0
  191.1770  173.4300  142.7740 C   0  0  0  0  0  0  0  0  0  0  0  0
  187.6640  175.9450  140.5200 N   0  0  0  0  0  2  0  0  0  0  0  0
  188.5330  175.8840  143.9730 C   0  0  0  0  0  0  0  0  0  0  0  0
  190.4990  174.9610  145.2570 C   0  0  0  0  0  2  0  0  0  0  0  0
  188.1000  176.5320  147.6440 O   0  0  0  0  0  1  0  0  0  0  0  0
  186.9220  178.4150  144.5630 C   0  0  1  0  0  3  0  0  0  0  0  0
  188.8090  176.3740  146.4490 C   0  0  1  0  0  3  0  0  0  0  0  0
  186.6890  178.3620  143.0590 C   0  0  2  0  0  3  0  0  0  0  0  0
  186.8810  176.9140  141.0430 C   0  0  0  0  0  0  0  0  0  0  0  0
  189.6980  175.1380  146.5460 C   0  0  2  0  0  3  0  0  0  0  0  0
  187.8350  176.1580  145.2920 C   0  0  1  0  0  3  0  0  0  0  0  0
  191.5360  172.8030  141.5770 C   0  0  0  0  0  3  0  0  0  0  0  0
  185.2460  178.7780  142.8550 C   0  0  0  0  0  2  0  0  0  0  0  0
  185.9770  179.4920  145.0710 C   0  0  0  0  0  2  0  0  0  0  0  0
  191.9060  173.1080  143.9130 O   0  0  0  0  0  1  0  0  0  0  0  0
  188.3470  175.5090  141.5910 C   0  0  0  0  0  0  0  0  0  0  0  0
  190.8400  173.0610  140.3980 C   0  0  0  0  0  3  0  0  0  0  0  0
  190.0900  174.3470  142.8060 C   0  0  0  0  0  0  0  0  0  0  0  0
  187.9560  176.1740  142.7220 C   0  0  0  0  0  0  0  0  0  0  0  0
  186.1330  177.6280  140.3230 O   0  0  0  0  0  0  0  0  0  0  0  0
  187.0210  177.0950  142.3840 N   0  0  0  0  0  0  0  0  0  0  0  0
  184.9670  179.7690  143.9660 C   0  0  0  0  0  2  0  0  0  0  0  0
  185.3570  176.3960  144.9150 C   0  0  0  0  0  1  0  0  0  0  0  0
  189.7700  173.9510  140.4040 C   0  0  0  0  0  3  0  0  0  0  0  0
  189.3890  174.5870  141.5900 C   0  0  0  0  0  0  0  0  0  0  0  0
  186.6460  177.1090  145.3030 C   0  0  2  0  0  3  0  0  0  0  0  0
  190.6590  175.2590  147.7230 C   0  0  0  0  0  2  0  0  0  0  0  0
  191.5330  177.3640  148.7370 C   0  0  0  0  0  1  0  0  0  0  0  0
  191.6100  176.4330  147.5430 C   0  0  0  0  0  2  0  0  0  0  0  0
  1  5  1  0  0  0  0
  2 19  1  0  0  0  0
  2 16  1  0  0  0  0
  3 10  1  0  0  0  0
  3 17  1  0  0  0  0
  4  1  1  0  0  0  0
  5 11  1  0  0  0  0
  7 15  1  1  0  0  0
  7 27  1  0  0  0  0
  8 11  1  0  0  0  0
  8  6  1  1  0  0  0
  9 14  1  1  0  0  0
  9  7  1  0  0  0  0
 10 22  1  0  0  0  0
 11 28  1  1  0  0  0
 12  4  1  6  0  0  0
 12 27  1  0  0  0  0
 12  8  1  0  0  0  0
 13  2  2  0  0  0  0
 14 23  1  0  0  0  0
 17 20  1  0  0  0  0
 18 25  2  0  0  0  0
 18 13  1  0  0  0  0
 19  1  2  0  0  0  0
 20  4  2  0  0  0  0
 21 10  2  0  0  0  0
 22 20  1  0  0  0  0
 22  9  1  0  0  0  0
 23 15  1  0  0  0  0
 25 26  1  0  0  0  0
 26 17  2  0  0  0  0
 26 19  1  0  0  0  0
 27 24  1  6  0  0  0
 30 28  1  0  0  0  0
 30 29  1  0  0  0  0
M  END
>  <MODEL>
6

>  <REMARK>
 VINA RESULT:      -8.1      2.219      7.224
  Name = 
  2 active torsions:
  status: ('A' for Active; 'I' for Inactive)
    1  A    between atoms: C_11  and  C_28
    2  A    between atoms: C_28  and  C_30
                            x       y       z     vdW  Elec       q    Type
                         _______ _______ _______ _____ _____    ______ ____

>  <TORSDO>
F 2

$$$$
=
 OpenBabel11112416223D

 30 35  0  0  1  0  0  0  0  0999 V2000
  189.3230  175.5750  144.1440 C   0  0  0  0  0  0  0  0  0  0  0  0
  191.2290  174.7170  145.5380 C   0  0  0  0  0  0  0  0  0  0  0  0
  187.8860  177.7930  147.3010 N   0  0  0  0  0  2  0  0  0  0  0  0
  188.2010  176.4440  144.0210 C   0  0  0  0  0  0  0  0  0  0  0  0
  189.6030  174.5970  143.0260 C   0  0  0  0  0  2  0  0  0  0  0  0
  187.5040  176.1270  140.3460 O   0  0  0  0  0  1  0  0  0  0  0  0
  185.3520  177.2580  143.2660 C   0  0  1  0  0  3  0  0  0  0  0  0
  187.8230  175.6740  141.6310 C   0  0  1  0  0  3  0  0  0  0  0  0
  185.3280  177.7270  144.7130 C   0  0  2  0  0  3  0  0  0  0  0  0
  186.7560  178.2180  146.6930 C   0  0  0  0  0  0  0  0  0  0  0  0
  189.2440  175.1180  141.6350 C   0  0  2  0  0  3  0  0  0  0  0  0
  187.7740  176.8380  142.6190 C   0  0  1  0  0  3  0  0  0  0  0  0
  191.9130  174.7160  146.7570 C   0  0  0  0  0  3  0  0  0  0  0  0
  184.5600  179.0330  144.7070 C   0  0  0  0  0  2  0  0  0  0  0  0
  184.0770  177.8130  142.6500 C   0  0  0  0  0  2  0  0  0  0  0  0
  191.7360  173.9240  144.5150 O   0  0  0  0  0  1  0  0  0  0  0  0
  188.4910  177.0840  146.3340 C   0  0  0  0  0  0  0  0  0  0  0  0
  191.4760  175.4990  147.8230 C   0  0  0  0  0  3  0  0  0  0  0  0
  190.0680  175.5210  145.3670 C   0  0  0  0  0  0  0  0  0  0  0  0
  187.7620  177.1160  145.1770 C   0  0  0  0  0  0  0  0  0  0  0  0
  185.8690  178.8650  147.3100 O   0  0  0  0  0  0  0  0  0  0  0  0
  186.6310  177.8310  145.3940 N   0  0  0  0  0  0  0  0  0  0  0  0
  183.5430  178.8800  143.5960 C   0  0  0  0  0  2  0  0  0  0  0  0
  186.9150  179.2050  142.6200 C   0  0  0  0  0  1  0  0  0  0  0  0
  190.3450  176.2980  147.6800 C   0  0  0  0  0  3  0  0  0  0  0  0
  189.6460  176.3200  146.4680 C   0  0  0  0  0  0  0  0  0  0  0  0
  186.5540  177.7340  142.4540 C   0  0  2  0  0  3  0  0  0  0  0  0
  189.3810  173.9880  140.6220 C   0  0  0  0  0  2  0  0  0  0  0  0
  190.1840  171.6410  140.8840 C   0  0  0  0  0  1  0  0  0  0  0  0
  189.1030  172.6350  141.2610 C   0  0  0  0  0  2  0  0  0  0  0  0
  1 19  1  0  0  0  0
  2 13  1  0  0  0  0
  4  1  2  0  0  0  0
  4 20  1  0  0  0  0
  5  1  1  0  0  0  0
  7 15  1  6  0  0  0
  7  9  1  0  0  0  0
  8  6  1  6  0  0  0
  8 11  1  0  0  0  0
  8 12  1  0  0  0  0
  9 14  1  6  0  0  0
  9 22  1  0  0  0  0
 10  3  1  0  0  0  0
 10 21  2  0  0  0  0
 11 28  1  6  0  0  0
 11  5  1  0  0  0  0
 12  4  1  1  0  0  0
 13 18  2  0  0  0  0
 15 23  1  0  0  0  0
 16  2  1  0  0  0  0
 17 26  1  0  0  0  0
 17  3  1  0  0  0  0
 19  2  2  0  0  0  0
 19 26  1  0  0  0  0
 20 22  1  0  0  0  0
 20 17  2  0  0  0  0
 22 10  1  0  0  0  0
 23 14  1  0  0  0  0
 25 18  1  0  0  0  0
 26 25  2  0  0  0  0
 27 12  1  0  0  0  0
 27 24  1  1  0  0  0
 27  7  1  0  0  0  0
 28 30  1  0  0  0  0
 29 30  1  0  0  0  0
M  END
>  <MODEL>
7

>  <REMARK>
 VINA RESULT:      -8.1      1.822      5.662
  Name = 
  2 active torsions:
  status: ('A' for Active; 'I' for Inactive)
    1  A    between atoms: C_11  and  C_28
    2  A    between atoms: C_28  and  C_30
                            x       y       z     vdW  Elec       q    Type
                         _______ _______ _______ _____ _____    ______ ____

>  <TORSDO>
F 2

$$$$
=
 OpenBabel11112416223D

 30 35  0  0  1  0  0  0  0  0999 V2000
  188.4530  175.9590  143.8230 C   0  0  0  0  0  0  0  0  0  0  0  0
  186.1580  176.8390  144.3430 C   0  0  0  0  0  0  0  0  0  0  0  0
  189.8470  177.1400  147.5130 N   0  0  0  0  0  2  0  0  0  0  0  0
  189.7780  175.6790  144.2660 C   0  0  0  0  0  0  0  0  0  0  0  0
  188.1210  175.7430  142.3640 C   0  0  0  0  0  2  0  0  0  0  0  0
  191.0270  173.6120  141.3930 O   0  0  0  0  0  1  0  0  0  0  0  0
  192.8290  175.5760  144.0990 C   0  0  1  0  0  3  0  0  0  0  0  0
  190.3600  174.6780  142.0070 C   0  0  1  0  0  3  0  0  0  0  0  0
  192.7150  176.2650  145.4520 C   0  0  2  0  0  3  0  0  0  0  0  0
  191.1430  176.8210  147.3000 C   0  0  0  0  0  0  0  0  0  0  0  0
  188.8650  174.5730  141.7210 C   0  0  2  0  0  3  0  0  0  0  0  0
  190.5520  174.6080  143.5200 C   0  0  1  0  0  3  0  0  0  0  0  0
  185.2880  177.4450  145.2540 C   0  0  0  0  0  3  0  0  0  0  0  0
  193.8090  175.6620  146.3110 C   0  0  0  0  0  2  0  0  0  0  0  0
  194.3000  175.2160  143.9630 C   0  0  0  0  0  2  0  0  0  0  0  0
  185.6470  176.4910  143.0970 O   0  0  0  0  0  1  0  0  0  0  0  0
  189.2560  176.7430  146.3740 C   0  0  0  0  0  0  0  0  0  0  0  0
  185.7230  177.8040  146.5270 C   0  0  0  0  0  3  0  0  0  0  0  0
  187.5100  176.5810  144.7030 C   0  0  0  0  0  0  0  0  0  0  0  0
  190.1670  176.1740  145.5250 C   0  0  0  0  0  0  0  0  0  0  0  0
  192.0460  177.1130  148.1290 O   0  0  0  0  0  0  0  0  0  0  0  0
  191.3920  176.2300  146.1010 N   0  0  0  0  0  0  0  0  0  0  0  0
  194.9290  175.3410  145.3440 C   0  0  0  0  0  2  0  0  0  0  0  0
  192.0290  173.3480  145.1240 C   0  0  0  0  0  1  0  0  0  0  0  0
  187.0400  177.5600  146.9060 C   0  0  0  0  0  3  0  0  0  0  0  0
  187.9280  176.9510  146.0140 C   0  0  0  0  0  0  0  0  0  0  0  0
  191.9830  174.3140  143.9460 C   0  0  2  0  0  3  0  0  0  0  0  0
  188.6050  174.5750  140.2190 C   0  0  0  0  0  2  0  0  0  0  0  0
  188.5510  173.0460  138.2490 C   0  0  0  0  0  1  0  0  0  0  0  0
  188.2210  173.1890  139.7220 C   0  0  0  0  0  2  0  0  0  0  0  0
  1  4  2  0  0  0  0
  1 19  1  0  0  0  0
  2 19  2  0  0  0  0
  2 13  1  0  0  0  0
  4 20  1  0  0  0  0
  5  1  1  0  0  0  0
  7 15  1  1  0  0  0
  7  9  1  0  0  0  0
  8  6  1  6  0  0  0
  8 12  1  0  0  0  0
  9 22  1  0  0  0  0
  9 14  1  1  0  0  0
 10  3  1  0  0  0  0
 10 21  2  0  0  0  0
 11 28  1  6  0  0  0
 11  8  1  0  0  0  0
 11  5  1  0  0  0  0
 12 27  1  0  0  0  0
 12  4  1  1  0  0  0
 13 18  2  0  0  0  0
 15 23  1  0  0  0  0
 16  2  1  0  0  0  0
 17  3  1  0  0  0  0
 18 25  1  0  0  0  0
 19 26  1  0  0  0  0
 20 22  1  0  0  0  0
 20 17  2  0  0  0  0
 22 10  1  0  0  0  0
 23 14  1  0  0  0  0
 26 17  1  0  0  0  0
 26 25  2  0  0  0  0
 27  7  1  0  0  0  0
 27 24  1  1  0  0  0
 29 30  1  0  0  0  0
 30 28  1  0  0  0  0
M  END
>  <MODEL>
8

>  <REMARK>
 VINA RESULT:      -8.0      2.087      3.162
  Name = 
  2 active torsions:
  status: ('A' for Active; 'I' for Inactive)
    1  A    between atoms: C_11  and  C_28
    2  A    between atoms: C_28  and  C_30
                            x       y       z     vdW  Elec       q    Type
                         _______ _______ _______ _____ _____    ______ ____

>  <TORSDO>
F 2

$$$$
=
 OpenBabel11112416223D

 30 35  0  0  1  0  0  0  0  0999 V2000
  189.1800  176.3610  144.8700 C   0  0  0  0  0  0  0  0  0  0  0  0
  190.2580  176.9630  147.0580 C   0  0  0  0  0  0  0  0  0  0  0  0
  191.9990  173.4420  144.1740 N   0  0  0  0  0  2  0  0  0  0  0  0
  189.1240  175.4970  143.7380 C   0  0  0  0  0  0  0  0  0  0  0  0
  188.2780  177.5740  144.8960 C   0  0  0  0  0  2  0  0  0  0  0  0
  185.8750  176.5950  142.2140 O   0  0  0  0  0  1  0  0  0  0  0  0
  188.8760  174.7590  140.7820 C   0  0  1  0  0  3  0  0  0  0  0  0
  187.1210  176.7630  142.8280 C   0  0  1  0  0  3  0  0  0  0  0  0
  190.1470  173.9800  141.0880 C   0  0  2  0  0  3  0  0  0  0  0  0
  191.5850  173.1180  142.9290 C   0  0  0  0  0  0  0  0  0  0  0  0
  186.9250  177.3600  144.2190 C   0  0  2  0  0  3  0  0  0  0  0  0
  187.8050  175.4080  142.9930 C   0  0  1  0  0  3  0  0  0  0  0  0
  191.2580  176.7200  148.0060 C   0  0  0  0  0  3  0  0  0  0  0  0
  190.0230  172.6780  140.3220 C   0  0  0  0  0  2  0  0  0  0  0  0
  188.4600  174.3040  139.3920 C   0  0  0  0  0  2  0  0  0  0  0  0
  189.3520  177.9830  147.3250 O   0  0  0  0  0  1  0  0  0  0  0  0
  191.1050  174.3720  144.5480 C   0  0  0  0  0  0  0  0  0  0  0  0
  192.1900  175.7030  147.8170 C   0  0  0  0  0  3  0  0  0  0  0  0
  190.1800  176.1720  145.8790 C   0  0  0  0  0  0  0  0  0  0  0  0
  190.1680  174.5690  143.5700 C   0  0  0  0  0  0  0  0  0  0  0  0
  192.2270  172.3150  142.2000 O   0  0  0  0  0  0  0  0  0  0  0  0
  190.4710  173.7780  142.5120 N   0  0  0  0  0  0  0  0  0  0  0  0
  189.2370  173.0340  139.0770 C   0  0  0  0  0  2  0  0  0  0  0  0
  187.4690  173.0670  142.1280 C   0  0  0  0  0  1  0  0  0  0  0  0
  192.1330  174.9120  146.6730 C   0  0  0  0  0  3  0  0  0  0  0  0
  191.1400  175.1320  145.7120 C   0  0  0  0  0  0  0  0  0  0  0  0
  187.7260  174.5230  141.7570 C   0  0  2  0  0  3  0  0  0  0  0  0
  186.1890  178.6920  144.1320 C   0  0  0  0  0  2  0  0  0  0  0  0
  184.1850  178.7810  145.6150 C   0  0  0  0  0  1  0  0  0  0  0  0
  185.6580  179.1210  145.4910 C   0  0  0  0  0  2  0  0  0  0  0  0
  1  5  1  0  0  0  0
  1 19  1  0  0  0  0
  2 16  1  0  0  0  0
  2 13  1  0  0  0  0
  3 17  1  0  0  0  0
  4  1  2  0  0  0  0
  7 15  1  6  0  0  0
  7  9  1  0  0  0  0
  7 27  1  0  0  0  0
  8  6  1  1  0  0  0
  8 12  1  0  0  0  0
  8 11  1  0  0  0  0
  9 14  1  6  0  0  0
  9 22  1  0  0  0  0
 10  3  1  0  0  0  0
 11 28  1  6  0  0  0
 11  5  1  0  0  0  0
 12  4  1  6  0  0  0
 17 26  1  0  0  0  0
 18 13  2  0  0  0  0
 19  2  2  0  0  0  0
 20  4  1  0  0  0  0
 20 17  2  0  0  0  0
 21 10  2  0  0  0  0
 22 10  1  0  0  0  0
 22 20  1  0  0  0  0
 23 15  1  0  0  0  0
 23 14  1  0  0  0  0
 25 18  1  0  0  0  0
 26 19  1  0  0  0  0
 26 25  2  0  0  0  0
 27 24  1  1  0  0  0
 27 12  1  0  0  0  0
 28 30  1  0  0  0  0
 30 29  1  0  0  0  0
M  END
>  <MODEL>
9

>  <REMARK>
 VINA RESULT:      -7.9      2.364      4.424
  Name = 
  2 active torsions:
  status: ('A' for Active; 'I' for Inactive)
    1  A    between atoms: C_11  and  C_28
    2  A    between atoms: C_28  and  C_30
                            x       y       z     vdW  Elec       q    Type
                         _______ _______ _______ _____ _____    ______ ____

>  <TORSDO>
F 2

$$$$
