=
 OpenBabel11112417353D

 28 32  0  0  1  0  0  0  0  0999 V2000
  186.1130  177.4460  145.9140 C   0  0  0  0  0  0  0  0  0  0  0  0
  185.8990  177.4030  141.1240 O   0  0  0  0  0  0  0  0  0  0  0  0
  192.2280  176.8440  144.9550 O   0  0  0  0  0  0  0  0  0  0  0  0
  184.6470  179.1240  144.2080 C   0  0  0  0  0  3  0  0  0  0  0  0
  190.7080  175.2950  144.0540 N   0  0  0  0  0  0  0  0  0  0  0  0
  186.8840  176.7070  146.9590 C   0  0  0  0  0  2  0  0  0  0  0  0
  188.2470  178.1500  141.2370 O   0  0  0  0  0  0  0  0  0  0  0  0
  187.3230  176.9650  141.3150 S   0  0  0  0  0  0  0  0  0  0  0  0
  188.2370  174.5250  140.4140 C   0  0  0  0  0  0  0  0  0  0  0  0
  187.5000  176.1450  142.8380 N   0  0  1  0  0  0  0  0  0  0  0  0
  189.5640  178.8700  148.2060 O   0  0  0  0  0  0  0  0  0  0  0  0
  188.7030  176.2470  144.8910 C   0  0  1  0  0  3  0  0  0  0  0  0
  188.4620  174.1200  141.8460 C   0  0  0  0  0  2  0  0  0  0  0  0
  187.7260  175.8220  140.0760 N   0  0  0  0  0  2  0  0  0  0  0  0
  189.0440  177.8630  147.6590 C   0  0  0  0  0  0  0  0  0  0  0  0
  186.5690  177.6590  144.5770 C   0  0  0  0  0  0  0  0  0  0  0  0
  191.0440  176.4330  144.8190 C   0  0  0  0  0  0  0  0  0  0  0  0
  188.4770  173.6970  139.4980 O   0  0  0  0  0  0  0  0  0  0  0  0
  189.9290  176.8930  146.9430 C   0  0  0  0  0  2  0  0  0  0  0  0
  185.8240  178.5240  143.7610 C   0  0  0  0  0  3  0  0  0  0  0  0
  184.9270  178.0540  146.3470 C   0  0  0  0  0  3  0  0  0  0  0  0
  184.1920  178.8790  145.5000 C   0  0  0  0  0  3  0  0  0  0  0  0
  187.6320  177.6610  147.7660 N   0  0  0  0  0  2  0  0  0  0  0  0
  189.2720  175.0940  144.0580 C   0  0  1  0  0  3  0  0  0  0  0  0
  189.8670  177.0820  145.4350 C   0  0  2  0  0  3  0  0  0  0  0  0
  188.7150  175.3630  142.6830 C   0  0  2  0  0  3  0  0  0  0  0  0
  191.6660  174.3950  143.4330 C   0  0  0  0  0  1  0  0  0  0  0  0
  187.8200  177.0540  143.9420 C   0  0  2  0  0  3  0  0  0  0  0  0
  1 21  1  0  0  0  0
  1  6  1  0  0  0  0
  2  8  2  0  0  0  0
  4 22  1  0  0  0  0
  5 24  1  0  0  0  0
  5 17  1  0  0  0  0
  6 23  1  0  0  0  0
  7  8  2  0  0  0  0
  9 13  1  0  0  0  0
 10  8  1  6  0  0  0
 10 28  1  0  0  0  0
 12 25  1  0  0  0  0
 13 26  1  0  0  0  0
 14  9  1  0  0  0  0
 14  8  1  0  0  0  0
 15 23  1  0  0  0  0
 15 11  2  0  0  0  0
 16  1  2  0  0  0  0
 17  3  2  0  0  0  0
 17 25  1  0  0  0  0
 18  9  2  0  0  0  0
 19 15  1  0  0  0  0
 20  4  2  0  0  0  0
 20 16  1  0  0  0  0
 22 21  2  0  0  0  0
 24 12  1  0  0  0  0
 25 19  1  0  0  0  0
 26 10  1  0  0  0  0
 26 24  1  0  0  0  0
 27  5  1  0  0  0  0
 28 16  1  0  0  0  0
 28 12  1  0  0  0  0
M  END
>  <MODEL>
1

>  <REMARK>
 VINA RESULT:      -8.6      0.000      0.000
  Name = 
  0 active torsions:
  status: ('A' for Active; 'I' for Inactive)
                            x       y       z     vdW  Elec       q    Type
                         _______ _______ _______ _____ _____    ______ ____

>  <TORSDO>
F 0

$$$$
=
 OpenBabel11112417353D

 28 32  0  0  1  0  0  0  0  0999 V2000
  187.7790  176.2690  146.3440 C   0  0  0  0  0  0  0  0  0  0  0  0
  186.2770  177.5200  141.9660 O   0  0  0  0  0  0  0  0  0  0  0  0
  193.3210  175.8220  143.5600 O   0  0  0  0  0  0  0  0  0  0  0  0
  186.0750  178.3740  145.6080 C   0  0  0  0  0  3  0  0  0  0  0  0
  191.4740  174.6030  142.7700 N   0  0  0  0  0  0  0  0  0  0  0  0
  188.7290  175.2610  146.9050 C   0  0  0  0  0  2  0  0  0  0  0  0
  188.6290  178.1600  141.5880 O   0  0  0  0  0  0  0  0  0  0  0  0
  187.6510  177.0170  141.6250 S   0  0  0  0  0  0  0  0  0  0  0  0
  188.0500  174.8900  139.9170 C   0  0  0  0  0  0  0  0  0  0  0  0
  188.1530  175.8150  142.7760 N   0  0  1  0  0  0  0  0  0  0  0  0
  191.8400  176.9530  147.8370 O   0  0  0  0  0  0  0  0  0  0  0  0
  189.8690  175.3360  144.3560 C   0  0  1  0  0  3  0  0  0  0  0  0
  188.6130  174.1120  141.0740 C   0  0  0  0  0  2  0  0  0  0  0  0
  187.5940  176.2410  140.0770 N   0  0  0  0  0  2  0  0  0  0  0  0
  191.0980  176.1410  147.2260 C   0  0  0  0  0  0  0  0  0  0  0  0
  187.8760  176.8250  145.0310 C   0  0  0  0  0  0  0  0  0  0  0  0
  192.1110  175.4860  143.6680 C   0  0  0  0  0  0  0  0  0  0  0  0
  187.9540  174.3340  138.7930 O   0  0  0  0  0  0  0  0  0  0  0  0
  191.6590  175.3820  146.0670 C   0  0  0  0  0  2  0  0  0  0  0  0
  187.0240  177.8920  144.7080 C   0  0  0  0  0  3  0  0  0  0  0  0
  186.8180  176.7630  147.2370 C   0  0  0  0  0  3  0  0  0  0  0  0
  185.9640  177.8010  146.8710 C   0  0  0  0  0  3  0  0  0  0  0  0
  189.7540  175.9470  147.6770 N   0  0  0  0  0  2  0  0  0  0  0  0
  190.0800  174.4380  143.1330 C   0  0  1  0  0  3  0  0  0  0  0  0
  191.2110  175.9710  144.7370 C   0  0  2  0  0  3  0  0  0  0  0  0
  189.2000  175.0790  142.0890 C   0  0  2  0  0  3  0  0  0  0  0  0
  192.1370  173.8840  141.6950 C   0  0  0  0  0  1  0  0  0  0  0  0
  188.8450  176.3870  143.9350 C   0  0  2  0  0  3  0  0  0  0  0  0
  1  6  1  0  0  0  0
  1 21  1  0  0  0  0
  3 17  2  0  0  0  0
  4 22  1  0  0  0  0
  5 24  1  0  0  0  0
  5 17  1  0  0  0  0
  6 23  1  0  0  0  0
  7  8  2  0  0  0  0
  8  2  2  0  0  0  0
  9 14  1  0  0  0  0
  9 13  1  0  0  0  0
 10  8  1  6  0  0  0
 10 28  1  0  0  0  0
 12 25  1  0  0  0  0
 13 26  1  0  0  0  0
 14  8  1  0  0  0  0
 15 23  1  0  0  0  0
 15 11  2  0  0  0  0
 16  1  2  0  0  0  0
 17 25  1  0  0  0  0
 18  9  2  0  0  0  0
 19 15  1  0  0  0  0
 20 16  1  0  0  0  0
 20  4  2  0  0  0  0
 22 21  2  0  0  0  0
 24 12  1  0  0  0  0
 25 19  1  0  0  0  0
 26 10  1  0  0  0  0
 26 24  1  0  0  0  0
 27  5  1  0  0  0  0
 28 12  1  0  0  0  0
 28 16  1  0  0  0  0
M  END
>  <MODEL>
2

>  <REMARK>
 VINA RESULT:      -8.4      1.439      1.793
  Name = 
  0 active torsions:
  status: ('A' for Active; 'I' for Inactive)
                            x       y       z     vdW  Elec       q    Type
                         _______ _______ _______ _____ _____    ______ ____

>  <TORSDO>
F 0

$$$$
=
 OpenBabel11112417353D

 28 32  0  0  1  0  0  0  0  0999 V2000
  192.4350  175.6420  144.2180 C   0  0  0  0  0  0  0  0  0  0  0  0
  189.6620  174.3690  140.5180 O   0  0  0  0  0  0  0  0  0  0  0  0
  186.9930  176.6200  147.0640 O   0  0  0  0  0  0  0  0  0  0  0  0
  192.6810  173.4190  142.5240 C   0  0  0  0  0  3  0  0  0  0  0  0
  187.5040  177.6960  145.0390 N   0  0  0  0  0  0  0  0  0  0  0  0
  192.4080  176.7150  145.2590 C   0  0  0  0  0  2  0  0  0  0  0  0
  187.9500  173.9390  142.2400 O   0  0  0  0  0  0  0  0  0  0  0  0
  188.6240  174.9940  141.4060 S   0  0  0  0  0  0  0  0  0  0  0  0
  187.1490  177.1850  140.6160 C   0  0  0  0  0  0  0  0  0  0  0  0
  189.3500  176.2070  142.4170 N   0  0  1  0  0  0  0  0  0  0  0  0
  191.2490  175.2700  148.4180 O   0  0  0  0  0  0  0  0  0  0  0  0
  189.6720  176.7940  144.7020 C   0  0  1  0  0  3  0  0  0  0  0  0
  187.8160  177.9820  141.7030 C   0  0  0  0  0  2  0  0  0  0  0  0
  187.4520  175.7970  140.4140 N   0  0  0  0  0  2  0  0  0  0  0  0
  191.2370  176.0310  147.4160 C   0  0  0  0  0  0  0  0  0  0  0  0
  191.2740  175.1270  143.5620 C   0  0  0  0  0  0  0  0  0  0  0  0
  187.8050  176.8490  146.1270 C   0  0  0  0  0  0  0  0  0  0  0  0
  186.3290  177.7560  139.8520 O   0  0  0  0  0  0  0  0  0  0  0  0
  190.0220  176.8600  147.1530 C   0  0  0  0  0  2  0  0  0  0  0  0
  191.4330  173.9990  142.7430 C   0  0  0  0  0  3  0  0  0  0  0  0
  193.6830  175.0490  143.9860 C   0  0  0  0  0  3  0  0  0  0  0  0
  193.8100  173.9510  143.1380 C   0  0  0  0  0  3  0  0  0  0  0  0
  192.3950  176.1000  146.5780 N   0  0  0  0  0  2  0  0  0  0  0  0
  188.6170  177.7340  144.1110 C   0  0  1  0  0  3  0  0  0  0  0  0
  189.1610  176.2660  146.0480 C   0  0  2  0  0  3  0  0  0  0  0  0
  188.2350  177.0450  142.8250 C   0  0  2  0  0  3  0  0  0  0  0  0
  186.2950  178.4930  144.9100 C   0  0  0  0  0  1  0  0  0  0  0  0
  189.8520  175.6700  143.6850 C   0  0  2  0  0  3  0  0  0  0  0  0
  1  6  1  0  0  0  0
  2  8  2  0  0  0  0
  4 20  2  0  0  0  0
  4 22  1  0  0  0  0
  5 17  1  0  0  0  0
  6 23  1  0  0  0  0
  8  7  2  0  0  0  0
  9 13  1  0  0  0  0
 10  8  1  6  0  0  0
 10 26  1  0  0  0  0
 10 28  1  0  0  0  0
 12 25  1  0  0  0  0
 13 26  1  0  0  0  0
 14  9  1  0  0  0  0
 14  8  1  0  0  0  0
 15 11  2  0  0  0  0
 16 28  1  0  0  0  0
 16  1  2  0  0  0  0
 17  3  2  0  0  0  0
 18  9  2  0  0  0  0
 19 15  1  0  0  0  0
 20 16  1  0  0  0  0
 21  1  1  0  0  0  0
 22 21  2  0  0  0  0
 23 15  1  0  0  0  0
 24 12  1  0  0  0  0
 24  5  1  0  0  0  0
 25 17  1  0  0  0  0
 25 19  1  0  0  0  0
 26 24  1  0  0  0  0
 27  5  1  0  0  0  0
 28 12  1  0  0  0  0
M  END
>  <MODEL>
3

>  <REMARK>
 VINA RESULT:      -8.1      1.993      5.181
  Name = 
  0 active torsions:
  status: ('A' for Active; 'I' for Inactive)
                            x       y       z     vdW  Elec       q    Type
                         _______ _______ _______ _____ _____    ______ ____

>  <TORSDO>
F 0

$$$$
=
 OpenBabel11112417353D

 28 32  0  0  1  0  0  0  0  0999 V2000
  185.3230  177.7830  144.6510 C   0  0  0  0  0  0  0  0  0  0  0  0
  188.4580  176.4280  141.2860 O   0  0  0  0  0  0  0  0  0  0  0  0
  190.3850  178.1180  148.2480 O   0  0  0  0  0  0  0  0  0  0  0  0
  185.5140  178.6370  141.9850 C   0  0  0  0  0  3  0  0  0  0  0  0
  189.8280  176.1260  147.1330 N   0  0  0  0  0  0  0  0  0  0  0  0
  185.1280  177.5090  146.1080 C   0  0  0  0  0  2  0  0  0  0  0  0
  190.1180  177.6080  142.6760 O   0  0  0  0  0  0  0  0  0  0  0  0
  189.3380  176.3340  142.5000 S   0  0  0  0  0  0  0  0  0  0  0  0
  190.5010  173.9610  143.2840 C   0  0  0  0  0  0  0  0  0  0  0  0
  188.3800  175.9980  143.9110 N   0  0  1  0  0  0  0  0  0  0  0  0
  186.3170  180.3930  148.0260 O   0  0  0  0  0  0  0  0  0  0  0  0
  187.8450  176.8680  146.0630 C   0  0  1  0  0  3  0  0  0  0  0  0
  189.6610  174.0020  144.5320 C   0  0  0  0  0  2  0  0  0  0  0  0
  190.4260  175.0000  142.2990 N   0  0  0  0  0  2  0  0  0  0  0  0
  186.2680  179.1970  147.6380 C   0  0  0  0  0  0  0  0  0  0  0  0
  186.5830  177.7150  143.9810 C   0  0  0  0  0  0  0  0  0  0  0  0
  189.6010  177.4690  147.5040 C   0  0  0  0  0  0  0  0  0  0  0  0
  191.2650  172.9800  143.0920 O   0  0  0  0  0  0  0  0  0  0  0  0
  187.3550  178.2580  148.0530 C   0  0  0  0  0  2  0  0  0  0  0  0
  186.6450  178.1750  142.6560 C   0  0  0  0  0  3  0  0  0  0  0  0
  184.1950  178.2480  143.9620 C   0  0  0  0  0  3  0  0  0  0  0  0
  184.2840  178.6630  142.6350 C   0  0  0  0  0  3  0  0  0  0  0  0
  185.1610  178.7670  146.8390 N   0  0  0  0  0  2  0  0  0  0  0  0
  188.7750  175.6650  146.2490 C   0  0  1  0  0  3  0  0  0  0  0  0
  188.3560  178.0230  146.9310 C   0  0  2  0  0  3  0  0  0  0  0  0
  189.3290  175.4480  144.8640 C   0  0  2  0  0  3  0  0  0  0  0  0
  190.9060  175.2910  147.6380 C   0  0  0  0  0  1  0  0  0  0  0  0
  187.8970  177.2120  144.5760 C   0  0  2  0  0  3  0  0  0  0  0  0
  1  6  1  0  0  0  0
  2  8  2  0  0  0  0
  4 22  2  0  0  0  0
  4 20  1  0  0  0  0
  5 17  1  0  0  0  0
  5 27  1  0  0  0  0
  6 23  1  0  0  0  0
  8  7  2  0  0  0  0
  9 13  1  0  0  0  0
 10  8  1  6  0  0  0
 10 28  1  0  0  0  0
 10 26  1  0  0  0  0
 12 24  1  0  0  0  0
 12 25  1  0  0  0  0
 13 26  1  0  0  0  0
 14  8  1  0  0  0  0
 14  9  1  0  0  0  0
 15 11  2  0  0  0  0
 15 19  1  0  0  0  0
 16 28  1  0  0  0  0
 16  1  1  0  0  0  0
 17  3  2  0  0  0  0
 18  9  2  0  0  0  0
 20 16  2  0  0  0  0
 21  1  2  0  0  0  0
 22 21  1  0  0  0  0
 23 15  1  0  0  0  0
 24  5  1  0  0  0  0
 25 17  1  0  0  0  0
 25 19  1  0  0  0  0
 26 24  1  0  0  0  0
 28 12  1  0  0  0  0
M  END
>  <MODEL>
4

>  <REMARK>
 VINA RESULT:      -8.0      1.983      2.820
  Name = 
  0 active torsions:
  status: ('A' for Active; 'I' for Inactive)
                            x       y       z     vdW  Elec       q    Type
                         _______ _______ _______ _____ _____    ______ ____

>  <TORSDO>
F 0

$$$$
=
 OpenBabel11112417353D

 28 32  0  0  1  0  0  0  0  0999 V2000
  189.6300  173.0360  143.2830 C   0  0  0  0  0  0  0  0  0  0  0  0
  189.9110  176.2390  146.8400 O   0  0  0  0  0  0  0  0  0  0  0  0
  187.1290  177.7810  140.1380 O   0  0  0  0  0  0  0  0  0  0  0  0
  191.7800  173.5570  145.0100 C   0  0  0  0  0  3  0  0  0  0  0  0
  186.2060  177.0670  142.1770 N   0  0  0  0  0  0  0  0  0  0  0  0
  188.6270  172.6860  142.2320 C   0  0  0  0  0  2  0  0  0  0  0  0
  189.8480  177.9160  145.0330 O   0  0  0  0  0  0  0  0  0  0  0  0
  189.0250  176.9950  145.8920 S   0  0  0  0  0  0  0  0  0  0  0  0
  186.4710  177.7740  146.5790 C   0  0  0  0  0  0  0  0  0  0  0  0
  188.1130  175.8880  144.9100 N   0  0  1  0  0  0  0  0  0  0  0  0
  189.7350  174.0730  139.0290 O   0  0  0  0  0  0  0  0  0  0  0  0
  187.7110  175.2930  142.6390 C   0  0  1  0  0  3  0  0  0  0  0  0
  185.9410  176.8450  145.5210 C   0  0  0  0  0  2  0  0  0  0  0  0
  187.8800  177.9160  146.8110 N   0  0  0  0  0  2  0  0  0  0  0  0
  188.9810  173.9030  140.0220 C   0  0  0  0  0  0  0  0  0  0  0  0
  189.7540  174.3280  143.8810 C   0  0  0  0  0  0  0  0  0  0  0  0
  187.1310  176.9840  141.1150 C   0  0  0  0  0  0  0  0  0  0  0  0
  185.6590  178.4180  147.2920 O   0  0  0  0  0  0  0  0  0  0  0  0
  187.8160  174.8210  140.2100 C   0  0  0  0  0  2  0  0  0  0  0  0
  190.8560  174.5590  144.7190 C   0  0  0  0  0  3  0  0  0  0  0  0
  190.5660  172.0380  143.5880 C   0  0  0  0  0  3  0  0  0  0  0  0
  191.6290  172.2910  144.4530 C   0  0  0  0  0  3  0  0  0  0  0  0
  189.2430  172.8200  140.9200 N   0  0  0  0  0  2  0  0  0  0  0  0
  186.4820  176.0410  143.1630 C   0  0  1  0  0  3  0  0  0  0  0  0
  188.0940  175.8730  141.2730 C   0  0  2  0  0  3  0  0  0  0  0  0
  186.9890  176.6760  144.4340 C   0  0  2  0  0  3  0  0  0  0  0  0
  185.0780  177.9820  142.2320 C   0  0  0  0  0  1  0  0  0  0  0  0
  188.8100  175.5110  143.6760 C   0  0  2  0  0  3  0  0  0  0  0  0
  1 21  2  0  0  0  0
  1 16  1  0  0  0  0
  3 17  2  0  0  0  0
  5 27  1  0  0  0  0
  5 24  1  0  0  0  0
  6  1  1  0  0  0  0
  7  8  2  0  0  0  0
  8 14  1  0  0  0  0
  8  2  2  0  0  0  0
  9 14  1  0  0  0  0
  9 18  2  0  0  0  0
 10  8  1  1  0  0  0
 11 15  2  0  0  0  0
 12 24  1  0  0  0  0
 12 28  1  0  0  0  0
 13  9  1  0  0  0  0
 15 19  1  0  0  0  0
 15 23  1  0  0  0  0
 16 20  2  0  0  0  0
 17 25  1  0  0  0  0
 17  5  1  0  0  0  0
 19 25  1  0  0  0  0
 20  4  1  0  0  0  0
 21 22  1  0  0  0  0
 22  4  2  0  0  0  0
 23  6  1  0  0  0  0
 24 26  1  0  0  0  0
 25 12  1  0  0  0  0
 26 10  1  0  0  0  0
 26 13  1  0  0  0  0
 28 16  1  0  0  0  0
 28 10  1  0  0  0  0
M  END
>  <MODEL>
5

>  <REMARK>
 VINA RESULT:      -8.0      2.144      6.653
  Name = 
  0 active torsions:
  status: ('A' for Active; 'I' for Inactive)
                            x       y       z     vdW  Elec       q    Type
                         _______ _______ _______ _____ _____    ______ ____

>  <TORSDO>
F 0

$$$$
=
 OpenBabel11112417353D

 28 32  0  0  1  0  0  0  0  0999 V2000
  187.5990  176.3860  143.4740 C   0  0  0  0  0  0  0  0  0  0  0  0
  189.8290  177.5120  147.5670 O   0  0  0  0  0  0  0  0  0  0  0  0
  191.3790  171.4490  143.5820 O   0  0  0  0  0  0  0  0  0  0  0  0
  186.4860  177.2750  145.8910 C   0  0  0  0  0  3  0  0  0  0  0  0
  192.2450  173.6320  143.6590 N   0  0  0  0  0  0  0  0  0  0  0  0
  188.0080  175.8270  142.1490 C   0  0  0  0  0  2  0  0  0  0  0  0
  190.3250  175.1000  147.6970 O   0  0  0  0  0  0  0  0  0  0  0  0
  190.7310  176.4120  147.0840 S   0  0  0  0  0  0  0  0  0  0  0  0
  193.4010  176.8410  146.5440 C   0  0  0  0  0  0  0  0  0  0  0  0
  190.6910  176.3200  145.3490 N   0  0  1  0  0  0  0  0  0  0  0  0
  187.0660  172.2910  142.0130 O   0  0  0  0  0  0  0  0  0  0  0  0
  190.1960  174.8240  143.5640 C   0  0  1  0  0  3  0  0  0  0  0  0
  193.1190  176.5430  145.0960 C   0  0  0  0  0  2  0  0  0  0  0  0
  192.3620  176.7910  147.5320 N   0  0  0  0  0  2  0  0  0  0  0  0
  187.8310  173.2900  141.9990 C   0  0  0  0  0  0  0  0  0  0  0  0
  188.2980  176.1480  144.6980 C   0  0  0  0  0  0  0  0  0  0  0  0
  191.1930  172.6960  143.5660 C   0  0  0  0  0  0  0  0  0  0  0  0
  194.5670  177.1640  146.8880 O   0  0  0  0  0  0  0  0  0  0  0  0
  189.3080  173.0700  142.0570 C   0  0  0  0  0  2  0  0  0  0  0  0
  187.6970  176.5850  145.8890 C   0  0  0  0  0  3  0  0  0  0  0  0
  186.3840  177.0830  143.4930 C   0  0  0  0  0  3  0  0  0  0  0  0
  185.8330  177.5340  144.6900 C   0  0  0  0  0  3  0  0  0  0  0  0
  187.2650  174.6000  141.8980 N   0  0  0  0  0  2  0  0  0  0  0  0
  191.7170  174.9820  143.6480 C   0  0  1  0  0  3  0  0  0  0  0  0
  189.8630  173.3320  143.4490 C   0  0  2  0  0  3  0  0  0  0  0  0
  191.9160  175.6200  145.0000 C   0  0  2  0  0  3  0  0  0  0  0  0
  193.6600  173.2990  143.6670 C   0  0  0  0  0  1  0  0  0  0  0  0
  189.6380  175.4310  144.8480 C   0  0  2  0  0  3  0  0  0  0  0  0
  1 21  2  0  0  0  0
  1 16  1  0  0  0  0
  5 27  1  0  0  0  0
  6  1  1  0  0  0  0
  8 14  1  0  0  0  0
  8  2  2  0  0  0  0
  8  7  2  0  0  0  0
  9 18  2  0  0  0  0
  9 14  1  0  0  0  0
 10  8  1  1  0  0  0
 12 24  1  0  0  0  0
 12 28  1  0  0  0  0
 13  9  1  0  0  0  0
 15 11  2  0  0  0  0
 15 19  1  0  0  0  0
 16 28  1  0  0  0  0
 16 20  2  0  0  0  0
 17  3  2  0  0  0  0
 17  5  1  0  0  0  0
 19 25  1  0  0  0  0
 20  4  1  0  0  0  0
 21 22  1  0  0  0  0
 22  4  2  0  0  0  0
 23 15  1  0  0  0  0
 23  6  1  0  0  0  0
 24  5  1  0  0  0  0
 24 26  1  0  0  0  0
 25 12  1  0  0  0  0
 25 17  1  0  0  0  0
 26 13  1  0  0  0  0
 26 10  1  0  0  0  0
 28 10  1  0  0  0  0
M  END
>  <MODEL>
6

>  <REMARK>
 VINA RESULT:      -7.8      2.689      5.595
  Name = 
  0 active torsions:
  status: ('A' for Active; 'I' for Inactive)
                            x       y       z     vdW  Elec       q    Type
                         _______ _______ _______ _____ _____    ______ ____

>  <TORSDO>
F 0

$$$$
=
 OpenBabel11112417353D

 28 32  0  0  1  0  0  0  0  0999 V2000
  189.6670  175.1190  146.1210 C   0  0  0  0  0  0  0  0  0  0  0  0
  186.7610  176.0640  142.4250 O   0  0  0  0  0  0  0  0  0  0  0  0
  194.1610  176.4020  142.0190 O   0  0  0  0  0  0  0  0  0  0  0  0
  187.3300  176.6720  146.0780 C   0  0  0  0  0  3  0  0  0  0  0  0
  192.5640  174.7370  141.5750 N   0  0  0  0  0  0  0  0  0  0  0  0
  190.9660  174.4050  146.3070 C   0  0  0  0  0  2  0  0  0  0  0  0
  188.6630  177.3690  141.5540 O   0  0  0  0  0  0  0  0  0  0  0  0
  188.0740  175.9930  141.6990 S   0  0  0  0  0  0  0  0  0  0  0  0
  188.5490  174.1430  139.7110 C   0  0  0  0  0  0  0  0  0  0  0  0
  189.1700  174.9400  142.5430 N   0  0  1  0  0  0  0  0  0  0  0  0
  193.6440  176.8820  146.6310 O   0  0  0  0  0  0  0  0  0  0  0  0
  191.3120  174.9100  143.5830 C   0  0  1  0  0  3  0  0  0  0  0  0
  189.5900  173.5130  140.5940 C   0  0  0  0  0  2  0  0  0  0  0  0
  187.8100  175.2980  140.1340 N   0  0  0  0  0  2  0  0  0  0  0  0
  193.0100  175.9160  146.1320 C   0  0  0  0  0  0  0  0  0  0  0  0
  189.2530  175.7330  144.8980 C   0  0  0  0  0  0  0  0  0  0  0  0
  193.1600  175.7280  142.3840 C   0  0  0  0  0  0  0  0  0  0  0  0
  188.3040  173.6300  138.5890 O   0  0  0  0  0  0  0  0  0  0  0  0
  193.4180  175.4000  144.7900 C   0  0  0  0  0  2  0  0  0  0  0  0
  188.0930  176.5230  144.9220 C   0  0  0  0  0  3  0  0  0  0  0  0
  188.8870  175.2780  147.2740 C   0  0  0  0  0  3  0  0  0  0  0  0
  187.7210  176.0400  147.2540 C   0  0  0  0  0  3  0  0  0  0  0  0
  191.9400  175.3250  146.8770 N   0  0  0  0  0  2  0  0  0  0  0  0
  191.4160  174.1630  142.2500 C   0  0  1  0  0  3  0  0  0  0  0  0
  192.4870  175.8890  143.6910 C   0  0  2  0  0  3  0  0  0  0  0  0
  190.1500  174.5650  141.5370 C   0  0  2  0  0  3  0  0  0  0  0  0
  193.0790  174.2840  140.2940 C   0  0  0  0  0  1  0  0  0  0  0  0
  189.9710  175.6380  143.5530 C   0  0  2  0  0  3  0  0  0  0  0  0
  1  6  1  0  0  0  0
  1 21  1  0  0  0  0
  3 17  2  0  0  0  0
  4 22  1  0  0  0  0
  5 24  1  0  0  0  0
  5 17  1  0  0  0  0
  6 23  1  0  0  0  0
  7  8  2  0  0  0  0
  8  2  2  0  0  0  0
  9 14  1  0  0  0  0
  9 13  1  0  0  0  0
 10  8  1  6  0  0  0
 10 28  1  0  0  0  0
 12 25  1  0  0  0  0
 13 26  1  0  0  0  0
 14  8  1  0  0  0  0
 15 11  2  0  0  0  0
 15 23  1  0  0  0  0
 16 20  1  0  0  0  0
 16  1  2  0  0  0  0
 17 25  1  0  0  0  0
 18  9  2  0  0  0  0
 19 15  1  0  0  0  0
 20  4  2  0  0  0  0
 22 21  2  0  0  0  0
 24 12  1  0  0  0  0
 25 19  1  0  0  0  0
 26 24  1  0  0  0  0
 26 10  1  0  0  0  0
 27  5  1  0  0  0  0
 28 12  1  0  0  0  0
 28 16  1  0  0  0  0
M  END
>  <MODEL>
7

>  <REMARK>
 VINA RESULT:      -7.5      2.322      3.369
  Name = 
  0 active torsions:
  status: ('A' for Active; 'I' for Inactive)
                            x       y       z     vdW  Elec       q    Type
                         _______ _______ _______ _____ _____    ______ ____

>  <TORSDO>
F 0

$$$$
=
 OpenBabel11112417353D

 28 32  0  0  1  0  0  0  0  0999 V2000
  186.7270  177.6340  141.8180 C   0  0  0  0  0  0  0  0  0  0  0  0
  184.1940  178.6680  145.7560 O   0  0  0  0  0  0  0  0  0  0  0  0
  189.6270  173.6190  145.5780 O   0  0  0  0  0  0  0  0  0  0  0  0
  183.9520  177.9570  142.0850 C   0  0  0  0  0  3  0  0  0  0  0  0
  189.5240  175.9060  146.1060 N   0  0  0  0  0  0  0  0  0  0  0  0
  188.1610  177.3460  141.5100 C   0  0  0  0  0  2  0  0  0  0  0  0
  184.8630  176.4160  146.5040 O   0  0  0  0  0  0  0  0  0  0  0  0
  185.2930  177.8510  146.3730 S   0  0  0  0  0  0  0  0  0  0  0  0
  187.0020  178.8900  148.2710 C   0  0  0  0  0  0  0  0  0  0  0  0
  186.7410  177.9750  145.4180 N   0  0  1  0  0  0  0  0  0  0  0  0
  188.5700  173.7380  141.0350 O   0  0  0  0  0  0  0  0  0  0  0  0
  188.3070  176.6480  144.2100 C   0  0  1  0  0  3  0  0  0  0  0  0
  188.1320  178.7280  147.2910 C   0  0  0  0  0  2  0  0  0  0  0  0
  185.6620  178.5010  147.9360 N   0  0  0  0  0  2  0  0  0  0  0  0
  188.7500  174.8680  141.5590 C   0  0  0  0  0  0  0  0  0  0  0  0
  186.1110  177.3930  143.0840 C   0  0  0  0  0  0  0  0  0  0  0  0
  189.2740  174.7920  145.2780 C   0  0  0  0  0  0  0  0  0  0  0  0
  187.2340  179.4030  149.3950 O   0  0  0  0  0  0  0  0  0  0  0  0
  189.4970  174.9550  142.8500 C   0  0  0  0  0  2  0  0  0  0  0  0
  184.7180  177.5400  143.1730 C   0  0  0  0  0  3  0  0  0  0  0  0
  185.9440  178.0550  140.7340 C   0  0  0  0  0  3  0  0  0  0  0  0
  184.5670  178.2260  140.8660 C   0  0  0  0  0  3  0  0  0  0  0  0
  188.2620  176.0340  140.8880 N   0  0  0  0  0  2  0  0  0  0  0  0
  188.9710  177.1070  145.5110 C   0  0  1  0  0  3  0  0  0  0  0  0
  188.5590  175.1460  144.0330 C   0  0  2  0  0  3  0  0  0  0  0  0
  187.8040  177.5950  146.3330 C   0  0  2  0  0  3  0  0  0  0  0  0
  190.3060  175.8770  147.3310 C   0  0  0  0  0  1  0  0  0  0  0  0
  186.8200  176.9580  144.3650 C   0  0  2  0  0  3  0  0  0  0  0  0
  1 16  1  0  0  0  0
  2  8  2  0  0  0  0
  4 20  1  0  0  0  0
  5 27  1  0  0  0  0
  6  1  1  0  0  0  0
  8  7  2  0  0  0  0
  8 14  1  0  0  0  0
  9 18  2  0  0  0  0
 10 26  1  0  0  0  0
 10  8  1  1  0  0  0
 11 15  2  0  0  0  0
 12 28  1  0  0  0  0
 12 24  1  0  0  0  0
 13  9  1  0  0  0  0
 14  9  1  0  0  0  0
 15 19  1  0  0  0  0
 16 20  2  0  0  0  0
 16 28  1  0  0  0  0
 17  3  2  0  0  0  0
 17  5  1  0  0  0  0
 19 25  1  0  0  0  0
 21 22  1  0  0  0  0
 21  1  2  0  0  0  0
 22  4  2  0  0  0  0
 23  6  1  0  0  0  0
 23 15  1  0  0  0  0
 24  5  1  0  0  0  0
 24 26  1  0  0  0  0
 25 12  1  0  0  0  0
 25 17  1  0  0  0  0
 26 13  1  0  0  0  0
 28 10  1  0  0  0  0
M  END
>  <MODEL>
8

>  <REMARK>
 VINA RESULT:      -7.3      2.604      5.485
  Name = 
  0 active torsions:
  status: ('A' for Active; 'I' for Inactive)
                            x       y       z     vdW  Elec       q    Type
                         _______ _______ _______ _____ _____    ______ ____

>  <TORSDO>
F 0

$$$$
=
 OpenBabel11112417353D

 28 32  0  0  1  0  0  0  0  0999 V2000
  189.0150  175.8020  144.2970 C   0  0  0  0  0  0  0  0  0  0  0  0
  193.0650  175.3750  146.8290 O   0  0  0  0  0  0  0  0  0  0  0  0
  191.8640  171.8940  140.3880 O   0  0  0  0  0  0  0  0  0  0  0  0
  189.3250  175.4010  147.0570 C   0  0  0  0  0  3  0  0  0  0  0  0
  192.8620  173.9330  140.9940 N   0  0  0  0  0  0  0  0  0  0  0  0
  188.6640  175.9300  142.8490 C   0  0  0  0  0  2  0  0  0  0  0  0
  193.3260  173.2380  145.6250 O   0  0  0  0  0  0  0  0  0  0  0  0
  193.5030  174.7300  145.5450 S   0  0  0  0  0  0  0  0  0  0  0  0
  195.5890  175.7270  144.0430 C   0  0  0  0  0  0  0  0  0  0  0  0
  192.6060  175.3850  144.2070 N   0  0  1  0  0  0  0  0  0  0  0  0
  187.4410  172.6970  141.6380 O   0  0  0  0  0  0  0  0  0  0  0  0
  191.1560  174.7430  142.4300 C   0  0  1  0  0  3  0  0  0  0  0  0
  194.6060  176.0410  142.9490 C   0  0  0  0  0  2  0  0  0  0  0  0
  195.1710  175.1110  145.2690 N   0  0  0  0  0  2  0  0  0  0  0  0
  188.1930  173.7050  141.7020 C   0  0  0  0  0  0  0  0  0  0  0  0
  190.1980  175.1670  144.7850 C   0  0  0  0  0  0  0  0  0  0  0  0
  191.8150  172.9870  141.0150 C   0  0  0  0  0  0  0  0  0  0  0  0
  196.7980  176.0360  143.8880 O   0  0  0  0  0  0  0  0  0  0  0  0
  189.4790  173.6960  140.9400 C   0  0  0  0  0  2  0  0  0  0  0  0
  190.3050  174.9610  146.1690 C   0  0  0  0  0  3  0  0  0  0  0  0
  188.0390  176.2410  145.2020 C   0  0  0  0  0  3  0  0  0  0  0  0
  188.1940  176.0530  146.5730 C   0  0  0  0  0  3  0  0  0  0  0  0
  187.7790  174.8360  142.4740 N   0  0  0  0  0  2  0  0  0  0  0  0
  192.5300  175.0670  141.8350 C   0  0  1  0  0  3  0  0  0  0  0  0
  190.6680  173.4130  141.8450 C   0  0  2  0  0  3  0  0  0  0  0  0
  193.4270  175.0860  143.0460 C   0  0  2  0  0  3  0  0  0  0  0  0
  194.0590  173.8360  140.1740 C   0  0  0  0  0  1  0  0  0  0  0  0
  191.3630  174.6550  143.9400 C   0  0  2  0  0  3  0  0  0  0  0  0
  1 16  2  0  0  0  0
  1 21  1  0  0  0  0
  3 17  2  0  0  0  0
  5 17  1  0  0  0  0
  5 24  1  0  0  0  0
  6  1  1  0  0  0  0
  8  7  2  0  0  0  0
  8  2  2  0  0  0  0
  9 14  1  0  0  0  0
 10  8  1  1  0  0  0
 11 15  2  0  0  0  0
 12 28  1  0  0  0  0
 13 26  1  0  0  0  0
 13  9  1  0  0  0  0
 14  8  1  0  0  0  0
 15 23  1  0  0  0  0
 16 20  1  0  0  0  0
 17 25  1  0  0  0  0
 18  9  2  0  0  0  0
 19 15  1  0  0  0  0
 19 25  1  0  0  0  0
 20  4  2  0  0  0  0
 21 22  2  0  0  0  0
 22  4  1  0  0  0  0
 23  6  1  0  0  0  0
 24 12  1  0  0  0  0
 24 26  1  0  0  0  0
 25 12  1  0  0  0  0
 26 10  1  0  0  0  0
 27  5  1  0  0  0  0
 28 10  1  0  0  0  0
 28 16  1  0  0  0  0
M  END
>  <MODEL>
9

>  <REMARK>
 VINA RESULT:      -7.2      3.307      6.367
  Name = 
  0 active torsions:
  status: ('A' for Active; 'I' for Inactive)
                            x       y       z     vdW  Elec       q    Type
                         _______ _______ _______ _____ _____    ______ ____

>  <TORSDO>
F 0

$$$$
