=
 OpenBabel11112416523D

 31 35  0  0  1  0  0  0  0  0999 V2000
  185.7160  178.8830  143.9450 C   0  0  0  0  0  0  0  0  0  0  0  0
  189.2170  177.4700  143.5330 C   0  0  2  0  0  3  0  0  0  0  0  0
  189.6250  177.1740  144.9860 C   0  0  1  0  0  3  0  0  0  0  0  0
  189.5460  175.5590  146.9140 C   0  0  1  0  0  3  0  0  0  0  0  0
  187.7250  177.6400  143.3880 C   0  0  0  0  0  0  0  0  0  0  0  0
  184.9430  177.9560  143.2420 C   0  0  0  0  0  3  0  0  0  0  0  0
  189.0650  175.8370  145.4960 C   0  0  0  0  0  2  0  0  0  0  0  0
  188.9550  175.2100  142.4190 C   0  0  2  0  0  3  0  0  0  0  0  0
  185.0640  180.0360  144.6180 C   0  0  0  0  0  1  0  0  0  0  0  0
  191.8500  176.4180  144.0310 C   0  0  0  0  0  3  0  0  0  0  0  0
  188.9890  174.2310  147.3810 C   0  0  0  0  0  1  0  0  0  0  0  0
  187.5640  175.5780  141.9090 C   0  0  0  0  0  2  0  0  0  0  0  0
  189.8290  176.4670  142.5240 C   0  0  2  0  0  3  0  0  0  0  0  0
  187.1020  178.7240  144.0170 C   0  0  0  0  0  3  0  0  0  0  0  0
  191.0690  175.5090  146.9430 C   0  0  0  0  0  2  0  0  0  0  0  0
  186.9410  176.6990  142.6850 C   0  0  0  0  0  0  0  0  0  0  0  0
  185.5550  176.8720  142.6090 C   0  0  0  0  0  3  0  0  0  0  0  0
  191.2650  176.1140  142.8640 C   0  0  0  0  0  3  0  0  0  0  0  0
  191.1570  177.2290  145.0960 C   0  0  2  0  0  3  0  0  0  0  0  0
  191.6450  176.8510  146.4950 C   0  0  0  0  0  2  0  0  0  0  0  0
  189.5630  174.1650  141.4900 C   0  0  0  0  0  2  0  0  0  0  0  0
  188.5440  172.1830  142.2410 O   0  0  0  0  0  0  0  0  0  0  0  0
  189.5780  172.8290  142.1560 C   0  0  0  0  0  0  0  0  0  0  0  0
  193.5300  172.7750  143.6900 C   0  0  1  0  0  3  0  0  0  0  0  0
  192.0400  172.7100  141.8460 C   0  0  0  0  0  2  0  0  0  0  0  0
  190.0880  172.2620  144.9990 O   0  0  0  0  0  1  0  0  0  0  0  0
  194.8820  172.3310  144.2070 C   0  0  0  0  0  1  0  0  0  0  0  0
  193.2860  172.1670  142.3840 N   0  0  0  0  0  2  0  0  0  0  0  0
  191.0770  172.7820  144.1630 C   0  0  2  0  0  3  0  0  0  0  0  0
  190.8600  172.2970  142.7260 C   0  0  1  0  0  3  0  0  0  0  0  0
  192.4460  172.3430  144.6750 C   0  0  0  0  0  2  0  0  0  0  0  0
  1 14  1  0  0  0  0
  1  9  1  0  0  0  0
  2  5  1  1  0  0  0
  2  3  1  0  0  0  0
  3 19  1  0  0  0  0
  3  7  1  6  0  0  0
  4 15  1  0  0  0  0
  4 11  1  6  0  0  0
  5 14  2  0  0  0  0
  6  1  2  0  0  0  0
  7  4  1  0  0  0  0
  8 21  1  6  0  0  0
  8 13  1  0  0  0  0
 12  8  1  0  0  0  0
 12 16  1  0  0  0  0
 13 18  1  1  0  0  0
 13  2  1  0  0  0  0
 16  5  1  0  0  0  0
 17 16  2  0  0  0  0
 17  6  1  0  0  0  0
 18 10  2  0  0  0  0
 19 10  1  6  0  0  0
 19 20  1  0  0  0  0
 20 15  1  0  0  0  0
 21 23  1  0  0  0  0
 23 22  2  0  0  0  0
 24 27  1  1  0  0  0
 24 31  1  0  0  0  0
 25 28  1  0  0  0  0
 25 30  1  0  0  0  0
 28 24  1  0  0  0  0
 29 31  1  0  0  0  0
 29 26  1  1  0  0  0
 30 23  1  6  0  0  0
 30 29  1  0  0  0  0
M  END
>  <MODEL>
1

>  <REMARK>
 VINA RESULT:      -7.5      0.000      0.000
  Name = 
  3 active torsions:
  status: ('A' for Active; 'I' for Inactive)
    1  A    between atoms: C_5  and  C_16
    2  A    between atoms: C_5  and  C_30
    3  A    between atoms: C_10  and  C_16
                            x       y       z     vdW  Elec       q    Type
                         _______ _______ _______ _____ _____    ______ ____

>  <TORSDO>
F 3

$$$$
=
 OpenBabel11112416523D

 31 35  0  0  1  0  0  0  0  0999 V2000
  195.5910  174.6170  144.3640 C   0  0  0  0  0  0  0  0  0  0  0  0
  192.1920  176.1830  143.7210 C   0  0  2  0  0  3  0  0  0  0  0  0
  191.4180  175.0290  143.0600 C   0  0  1  0  0  3  0  0  0  0  0  0
  190.0410  172.9490  143.3890 C   0  0  1  0  0  3  0  0  0  0  0  0
  193.4190  175.6960  144.4510 C   0  0  0  0  0  0  0  0  0  0  0  0
  195.6820  174.6790  145.7560 C   0  0  0  0  0  3  0  0  0  0  0  0
  190.8500  174.0360  144.0850 C   0  0  0  0  0  2  0  0  0  0  0  0
  191.1140  176.5220  145.9890 C   0  0  2  0  0  3  0  0  0  0  0  0
  196.6930  174.0090  143.5730 C   0  0  0  0  0  1  0  0  0  0  0  0
  189.4850  176.6600  142.8640 C   0  0  0  0  0  3  0  0  0  0  0  0
  189.4840  171.9960  144.4250 C   0  0  0  0  0  1  0  0  0  0  0  0
  192.4690  176.4420  146.6880 C   0  0  0  0  0  2  0  0  0  0  0  0
  191.2820  177.1000  144.5770 C   0  0  2  0  0  3  0  0  0  0  0  0
  194.4630  175.1230  143.7150 C   0  0  0  0  0  3  0  0  0  0  0  0
  188.8930  173.5780  142.6090 C   0  0  0  0  0  2  0  0  0  0  0  0
  193.5090  175.7500  145.8590 C   0  0  0  0  0  0  0  0  0  0  0  0
  194.6470  175.2500  146.4990 C   0  0  0  0  0  3  0  0  0  0  0  0
  189.9390  177.3510  143.9200 C   0  0  0  0  0  3  0  0  0  0  0  0
  190.3160  175.6170  142.1630 C   0  0  2  0  0  3  0  0  0  0  0  0
  189.4410  174.5260  141.5430 C   0  0  0  0  0  2  0  0  0  0  0  0
  190.1660  177.3570  146.8400 C   0  0  0  0  0  2  0  0  0  0  0  0
  188.6170  175.6050  147.0900 O   0  0  0  0  0  0  0  0  0  0  0  0
  188.7900  176.7790  146.7980 C   0  0  0  0  0  0  0  0  0  0  0  0
  184.7910  178.0250  146.1430 C   0  0  1  0  0  3  0  0  0  0  0  0
  186.7370  176.8900  145.4020 C   0  0  0  0  0  2  0  0  0  0  0  0
  187.5930  178.9270  148.4150 O   0  0  0  0  0  1  0  0  0  0  0  0
  183.5610  178.7920  145.7040 C   0  0  0  0  0  1  0  0  0  0  0  0
  185.6260  177.7410  144.9790 N   0  0  0  0  0  2  0  0  0  0  0  0
  186.8170  178.0990  147.6010 C   0  0  2  0  0  3  0  0  0  0  0  0
  187.6330  177.6420  146.3870 C   0  0  1  0  0  3  0  0  0  0  0  0
  185.5730  178.8600  147.1530 C   0  0  0  0  0  2  0  0  0  0  0  0
  1  6  1  0  0  0  0
  2  5  1  1  0  0  0
  2 13  1  0  0  0  0
  3  2  1  0  0  0  0
  3  7  1  1  0  0  0
  4  7  1  0  0  0  0
  4 11  1  1  0  0  0
  5 16  2  0  0  0  0
  6 17  2  0  0  0  0
  8 12  1  0  0  0  0
  8 21  1  1  0  0  0
  9  1  1  0  0  0  0
 10 18  2  0  0  0  0
 13 18  1  6  0  0  0
 13  8  1  0  0  0  0
 14  1  2  0  0  0  0
 14  5  1  0  0  0  0
 15  4  1  0  0  0  0
 16 17  1  0  0  0  0
 16 12  1  0  0  0  0
 19 20  1  1  0  0  0
 19 10  1  0  0  0  0
 19  3  1  0  0  0  0
 20 15  1  0  0  0  0
 23 21  1  0  0  0  0
 23 22  2  0  0  0  0
 24 27  1  6  0  0  0
 24 31  1  0  0  0  0
 25 30  1  0  0  0  0
 28 25  1  0  0  0  0
 28 24  1  0  0  0  0
 29 26  1  1  0  0  0
 30 23  1  1  0  0  0
 30 29  1  0  0  0  0
 31 29  1  0  0  0  0
M  END
>  <MODEL>
2

>  <REMARK>
 VINA RESULT:      -7.3      3.035      7.450
  Name = 
  3 active torsions:
  status: ('A' for Active; 'I' for Inactive)
    1  A    between atoms: C_5  and  C_16
    2  A    between atoms: C_5  and  C_30
    3  A    between atoms: C_10  and  C_16
                            x       y       z     vdW  Elec       q    Type
                         _______ _______ _______ _____ _____    ______ ____

>  <TORSDO>
F 3

$$$$
=
 OpenBabel11112416523D

 31 35  0  0  1  0  0  0  0  0999 V2000
  191.4100  170.6060  142.7590 C   0  0  0  0  0  0  0  0  0  0  0  0
  191.0900  173.5080  145.1890 C   0  0  2  0  0  3  0  0  0  0  0  0
  192.4670  174.1840  145.0760 C   0  0  1  0  0  3  0  0  0  0  0  0
  193.9250  175.8090  143.8260 C   0  0  1  0  0  3  0  0  0  0  0  0
  190.8130  172.5910  144.0230 C   0  0  0  0  0  0  0  0  0  0  0  0
  190.4180  170.9010  141.8210 C   0  0  0  0  0  3  0  0  0  0  0  0
  192.5690  175.1160  143.8600 C   0  0  0  0  0  2  0  0  0  0  0  0
  189.4410  175.1320  144.1580 C   0  0  2  0  0  3  0  0  0  0  0  0
  192.2590  169.3980  142.5900 C   0  0  0  0  0  1  0  0  0  0  0  0
  191.6300  175.8030  146.8410 C   0  0  0  0  0  3  0  0  0  0  0  0
  193.9890  176.7300  142.6260 C   0  0  0  0  0  1  0  0  0  0  0  0
  188.8730  174.0420  143.2530 C   0  0  0  0  0  2  0  0  0  0  0  0
  189.9490  174.5180  145.4690 C   0  0  2  0  0  3  0  0  0  0  0  0
  191.6060  171.4490  143.8550 C   0  0  0  0  0  3  0  0  0  0  0  0
  194.1230  176.6220  145.1000 C   0  0  0  0  0  2  0  0  0  0  0  0
  189.8160  172.8910  143.0700 C   0  0  0  0  0  0  0  0  0  0  0  0
  189.6200  172.0350  141.9810 C   0  0  0  0  0  3  0  0  0  0  0  0
  190.3630  175.5910  146.4580 C   0  0  0  0  0  3  0  0  0  0  0  0
  192.7680  174.9240  146.3890 C   0  0  2  0  0  3  0  0  0  0  0  0
  194.0830  175.7020  146.3190 C   0  0  0  0  0  2  0  0  0  0  0  0
  188.3670  176.1870  144.3970 C   0  0  0  0  0  2  0  0  0  0  0  0
  189.7870  177.9050  143.6470 O   0  0  0  0  0  0  0  0  0  0  0  0
  188.6680  177.4170  143.6070 C   0  0  0  0  0  0  0  0  0  0  0  0
  185.0870  177.8190  141.3730 C   0  0  1  0  0  3  0  0  0  0  0  0
  187.3900  177.2660  141.4800 C   0  0  0  0  0  2  0  0  0  0  0  0
  186.4070  178.9890  144.6460 O   0  0  0  0  0  1  0  0  0  0  0  0
  183.9790  178.3450  140.4850 C   0  0  0  0  0  1  0  0  0  0  0  0
  186.3590  177.8980  140.6600 N   0  0  0  0  0  2  0  0  0  0  0  0
  186.2670  178.1340  143.5510 C   0  0  2  0  0  3  0  0  0  0  0  0
  187.5880  178.0500  142.7780 C   0  0  1  0  0  3  0  0  0  0  0  0
  185.1520  178.6540  142.6490 C   0  0  0  0  0  2  0  0  0  0  0  0
  1 14  1  0  0  0  0
  2  5  1  6  0  0  0
  2 13  1  0  0  0  0
  3  7  1  6  0  0  0
  3  2  1  0  0  0  0
  3 19  1  0  0  0  0
  4 11  1  6  0  0  0
  4  7  1  0  0  0  0
  4 15  1  0  0  0  0
  6 17  1  0  0  0  0
  6  1  2  0  0  0  0
  8 21  1  1  0  0  0
  8 13  1  0  0  0  0
  9  1  1  0  0  0  0
 12  8  1  0  0  0  0
 13 18  1  1  0  0  0
 14  5  2  0  0  0  0
 15 20  1  0  0  0  0
 16 12  1  0  0  0  0
 16  5  1  0  0  0  0
 17 16  2  0  0  0  0
 18 10  2  0  0  0  0
 19 20  1  6  0  0  0
 19 10  1  0  0  0  0
 23 22  2  0  0  0  0
 23 21  1  0  0  0  0
 24 27  1  6  0  0  0
 24 31  1  0  0  0  0
 25 30  1  0  0  0  0
 28 24  1  0  0  0  0
 28 25  1  0  0  0  0
 29 26  1  1  0  0  0
 30 29  1  0  0  0  0
 30 23  1  1  0  0  0
 31 29  1  0  0  0  0
M  END
>  <MODEL>
3

>  <REMARK>
 VINA RESULT:      -7.1      2.877      6.864
  Name = 
  3 active torsions:
  status: ('A' for Active; 'I' for Inactive)
    1  A    between atoms: C_5  and  C_16
    2  A    between atoms: C_5  and  C_30
    3  A    between atoms: C_10  and  C_16
                            x       y       z     vdW  Elec       q    Type
                         _______ _______ _______ _____ _____    ______ ____

>  <TORSDO>
F 3

$$$$
=
 OpenBabel11112416523D

 31 35  0  0  1  0  0  0  0  0999 V2000
  187.3700  177.1330  141.1120 C   0  0  0  0  0  0  0  0  0  0  0  0
  188.9900  174.1420  142.7990 C   0  0  2  0  0  3  0  0  0  0  0  0
  190.0930  173.7570  141.7980 C   0  0  1  0  0  3  0  0  0  0  0  0
  192.4380  174.1610  140.9810 C   0  0  1  0  0  3  0  0  0  0  0  0
  188.4820  175.5430  142.5700 C   0  0  0  0  0  0  0  0  0  0  0  0
  187.6030  178.1520  142.0380 C   0  0  0  0  0  3  0  0  0  0  0  0
  191.3550  174.6200  141.9490 C   0  0  0  0  0  2  0  0  0  0  0  0
  190.1980  175.0330  144.8410 C   0  0  2  0  0  3  0  0  0  0  0  0
  186.6570  177.4310  139.8420 C   0  0  0  0  0  1  0  0  0  0  0  0
  190.6350  171.8510  143.3830 C   0  0  0  0  0  3  0  0  0  0  0  0
  193.6710  175.0210  141.1630 C   0  0  0  0  0  1  0  0  0  0  0  0
  189.3510  176.3030  144.8360 C   0  0  0  0  0  2  0  0  0  0  0  0
  189.3920  173.8590  144.2690 C   0  0  2  0  0  3  0  0  0  0  0  0
  187.8090  175.8340  141.3780 C   0  0  0  0  0  3  0  0  0  0  0  0
  192.7910  172.7040  141.2520 C   0  0  0  0  0  2  0  0  0  0  0  0
  188.7250  176.5770  143.5020 C   0  0  0  0  0  0  0  0  0  0  0  0
  188.2720  177.8720  143.2310 C   0  0  0  0  0  3  0  0  0  0  0  0
  190.1430  172.5490  144.4160 C   0  0  0  0  0  3  0  0  0  0  0  0
  190.4050  172.2590  141.9500 C   0  0  2  0  0  3  0  0  0  0  0  0
  191.5610  171.8210  141.0500 C   0  0  0  0  0  2  0  0  0  0  0  0
  190.6750  174.7610  146.2620 C   0  0  0  0  0  2  0  0  0  0  0  0
  192.3330  175.8440  147.5300 O   0  0  0  0  0  0  0  0  0  0  0  0
  192.0440  175.3240  146.4630 C   0  0  0  0  0  0  0  0  0  0  0  0
  195.7570  175.5660  144.4320 C   0  0  1  0  0  3  0  0  0  0  0  0
  193.7650  176.5970  145.2020 C   0  0  0  0  0  2  0  0  0  0  0  0
  193.4250  172.8930  145.5460 O   0  0  0  0  0  1  0  0  0  0  0  0
  196.8310  175.5880  143.3660 C   0  0  0  0  0  1  0  0  0  0  0  0
  194.7210  176.5400  144.0980 N   0  0  0  0  0  2  0  0  0  0  0  0
  194.0640  174.1330  145.5810 C   0  0  2  0  0  3  0  0  0  0  0  0
  193.0460  175.2560  145.3490 C   0  0  1  0  0  3  0  0  0  0  0  0
  195.1500  174.1670  144.5100 C   0  0  0  0  0  2  0  0  0  0  0  0
  1 14  2  0  0  0  0
  1  6  1  0  0  0  0
  2  5  1  1  0  0  0
  2 13  1  0  0  0  0
  3  7  1  1  0  0  0
  3 19  1  0  0  0  0
  3  2  1  0  0  0  0
  4 11  1  1  0  0  0
  4 15  1  0  0  0  0
  4  7  1  0  0  0  0
  5 16  2  0  0  0  0
  6 17  2  0  0  0  0
  8 21  1  1  0  0  0
  9  1  1  0  0  0  0
 10 18  2  0  0  0  0
 12  8  1  0  0  0  0
 13 18  1  6  0  0  0
 13  8  1  0  0  0  0
 14  5  1  0  0  0  0
 16 12  1  0  0  0  0
 17 16  1  0  0  0  0
 19 20  1  6  0  0  0
 19 10  1  0  0  0  0
 20 15  1  0  0  0  0
 21 23  1  0  0  0  0
 23 22  2  0  0  0  0
 24 27  1  6  0  0  0
 24 31  1  0  0  0  0
 25 30  1  0  0  0  0
 28 24  1  0  0  0  0
 28 25  1  0  0  0  0
 29 26  1  6  0  0  0
 30 29  1  0  0  0  0
 30 23  1  1  0  0  0
 31 29  1  0  0  0  0
M  END
>  <MODEL>
4

>  <REMARK>
 VINA RESULT:      -7.1      2.283      4.749
  Name = 
  3 active torsions:
  status: ('A' for Active; 'I' for Inactive)
    1  A    between atoms: C_5  and  C_16
    2  A    between atoms: C_5  and  C_30
    3  A    between atoms: C_10  and  C_16
                            x       y       z     vdW  Elec       q    Type
                         _______ _______ _______ _____ _____    ______ ____

>  <TORSDO>
F 3

$$$$
=
 OpenBabel11112416523D

 31 35  0  0  1  0  0  0  0  0999 V2000
  185.7020  178.7380  143.9200 C   0  0  0  0  0  0  0  0  0  0  0  0
  189.3020  177.5430  143.7490 C   0  0  2  0  0  3  0  0  0  0  0  0
  189.6040  177.1970  145.2180 C   0  0  1  0  0  3  0  0  0  0  0  0
  189.4600  175.4870  147.0580 C   0  0  1  0  0  3  0  0  0  0  0  0
  187.8210  177.6370  143.4840 C   0  0  0  0  0  0  0  0  0  0  0  0
  185.0460  177.8060  143.1130 C   0  0  0  0  0  3  0  0  0  0  0  0
  189.0830  175.8080  145.6170 C   0  0  0  0  0  2  0  0  0  0  0  0
  189.2680  175.3290  142.5170 C   0  0  2  0  0  3  0  0  0  0  0  0
  184.9290  179.8200  144.5860 C   0  0  0  0  0  1  0  0  0  0  0  0
  191.9420  176.6130  144.4250 C   0  0  0  0  0  3  0  0  0  0  0  0
  188.9450  174.1090  147.4150 C   0  0  0  0  0  1  0  0  0  0  0  0
  187.9050  175.6450  141.9060 C   0  0  0  0  0  2  0  0  0  0  0  0
  190.0550  176.6250  142.7530 C   0  0  2  0  0  3  0  0  0  0  0  0
  187.0840  178.6530  144.1050 C   0  0  0  0  0  3  0  0  0  0  0  0
  190.9750  175.5200  147.2160 C   0  0  0  0  0  2  0  0  0  0  0  0
  187.1550  176.6910  142.6750 C   0  0  0  0  0  0  0  0  0  0  0  0
  185.7720  176.7910  142.4870 C   0  0  0  0  0  3  0  0  0  0  0  0
  191.4750  176.3360  143.2000 C   0  0  0  0  0  3  0  0  0  0  0  0
  191.1160  177.3310  145.4610 C   0  0  2  0  0  3  0  0  0  0  0  0
  191.5070  176.9120  146.8790 C   0  0  0  0  0  2  0  0  0  0  0  0
  190.0120  174.3670  141.5990 C   0  0  0  0  0  2  0  0  0  0  0  0
  188.8740  172.5280  142.5230 O   0  0  0  0  0  0  0  0  0  0  0  0
  189.2770  173.0710  141.5050 C   0  0  0  0  0  0  0  0  0  0  0  0
  189.6780  172.2900  137.3570 C   0  0  1  0  0  3  0  0  0  0  0  0
  188.6860  173.5110  139.1320 C   0  0  0  0  0  2  0  0  0  0  0  0
  190.5090  170.5740  140.5500 O   0  0  0  0  0  1  0  0  0  0  0  0
  189.4790  171.7650  135.9520 C   0  0  0  0  0  1  0  0  0  0  0  0
  188.4350  172.8950  137.8310 N   0  0  0  0  0  2  0  0  0  0  0  0
  190.2810  171.6560  139.6970 C   0  0  2  0  0  3  0  0  0  0  0  0
  189.0490  172.4410  140.1620 C   0  0  1  0  0  3  0  0  0  0  0  0
  190.0790  171.1390  138.2760 C   0  0  0  0  0  2  0  0  0  0  0  0
  1 14  1  0  0  0  0
  1  9  1  0  0  0  0
  2  5  1  1  0  0  0
  2  3  1  0  0  0  0
  3 19  1  0  0  0  0
  3  7  1  6  0  0  0
  4 15  1  0  0  0  0
  4 11  1  6  0  0  0
  5 14  2  0  0  0  0
  6  1  2  0  0  0  0
  7  4  1  0  0  0  0
  8 21  1  6  0  0  0
  8 13  1  0  0  0  0
 12  8  1  0  0  0  0
 12 16  1  0  0  0  0
 13 18  1  1  0  0  0
 13  2  1  0  0  0  0
 16  5  1  0  0  0  0
 17 16  2  0  0  0  0
 17  6  1  0  0  0  0
 18 10  2  0  0  0  0
 19 10  1  6  0  0  0
 19 20  1  0  0  0  0
 20 15  1  0  0  0  0
 23 21  1  0  0  0  0
 23 22  2  0  0  0  0
 24 27  1  6  0  0  0
 24 28  1  0  0  0  0
 24 31  1  0  0  0  0
 25 30  1  0  0  0  0
 28 25  1  0  0  0  0
 29 30  1  0  0  0  0
 29 26  1  1  0  0  0
 30 23  1  1  0  0  0
 31 29  1  0  0  0  0
M  END
>  <MODEL>
5

>  <REMARK>
 VINA RESULT:      -7.1      2.208      3.224
  Name = 
  3 active torsions:
  status: ('A' for Active; 'I' for Inactive)
    1  A    between atoms: C_5  and  C_16
    2  A    between atoms: C_5  and  C_30
    3  A    between atoms: C_10  and  C_16
                            x       y       z     vdW  Elec       q    Type
                         _______ _______ _______ _____ _____    ______ ____

>  <TORSDO>
F 3

$$$$
=
 OpenBabel11112416523D

 31 35  0  0  1  0  0  0  0  0999 V2000
  185.8190  177.8920  147.0910 C   0  0  0  0  0  0  0  0  0  0  0  0
  188.9410  177.6760  144.9410 C   0  0  2  0  0  3  0  0  0  0  0  0
  189.7510  176.5730  145.6460 C   0  0  1  0  0  3  0  0  0  0  0  0
  190.1600  174.1070  145.9250 C   0  0  1  0  0  3  0  0  0  0  0  0
  187.4890  177.6580  145.3450 C   0  0  0  0  0  0  0  0  0  0  0  0
  184.8160  177.5400  146.1850 C   0  0  0  0  0  3  0  0  0  0  0  0
  189.2910  175.1610  145.2520 C   0  0  0  0  0  2  0  0  0  0  0  0
  188.2220  176.6870  142.7220 C   0  0  2  0  0  3  0  0  0  0  0  0
  185.4710  178.2020  148.5020 C   0  0  0  0  0  1  0  0  0  0  0  0
  191.5350  176.9940  143.8930 C   0  0  0  0  0  3  0  0  0  0  0  0
  189.6920  172.7290  145.5070 C   0  0  0  0  0  1  0  0  0  0  0  0
  186.7660  177.0700  142.9790 C   0  0  0  0  0  2  0  0  0  0  0  0
  189.1600  177.6900  143.4070 C   0  0  2  0  0  3  0  0  0  0  0  0
  187.1500  177.9490  146.6720 C   0  0  0  0  0  3  0  0  0  0  0  0
  191.6150  174.2950  145.5130 C   0  0  0  0  0  2  0  0  0  0  0  0
  186.4740  177.2940  144.4330 C   0  0  0  0  0  0  0  0  0  0  0  0
  185.1430  177.2490  144.8590 C   0  0  0  0  0  3  0  0  0  0  0  0
  190.6080  177.4370  143.0320 C   0  0  0  0  0  3  0  0  0  0  0  0
  191.2450  176.7890  145.3570 C   0  0  2  0  0  3  0  0  0  0  0  0
  192.1090  175.6740  145.9490 C   0  0  0  0  0  2  0  0  0  0  0  0
  188.4580  176.6180  141.2180 C   0  0  0  0  0  2  0  0  0  0  0  0
  187.9710  174.8790  139.7120 O   0  0  0  0  0  0  0  0  0  0  0  0
  188.4980  175.1950  140.7680 C   0  0  0  0  0  0  0  0  0  0  0  0
  190.1970  171.4920  141.9400 C   0  0  1  0  0  3  0  0  0  0  0  0
  188.3080  172.9090  141.7250 C   0  0  0  0  0  2  0  0  0  0  0  0
  191.4040  174.9160  141.1380 O   0  0  0  0  0  1  0  0  0  0  0  0
  190.8160  170.3650  142.7400 C   0  0  0  0  0  1  0  0  0  0  0  0
  188.9550  171.9160  142.5800 N   0  0  0  0  0  2  0  0  0  0  0  0
  190.5610  173.8050  141.0720 C   0  0  2  0  0  3  0  0  0  0  0  0
  189.1760  174.1640  141.6220 C   0  0  1  0  0  3  0  0  0  0  0  0
  191.1750  172.6620  141.8740 C   0  0  0  0  0  2  0  0  0  0  0  0
  1  9  1  0  0  0  0
  2  5  1  6  0  0  0
  2  3  1  0  0  0  0
  3  7  1  6  0  0  0
  4 11  1  6  0  0  0
  5 14  2  0  0  0  0
  6  1  2  0  0  0  0
  7  4  1  0  0  0  0
  8 21  1  6  0  0  0
  8 12  1  0  0  0  0
  8 13  1  0  0  0  0
 12 16  1  0  0  0  0
 13 18  1  1  0  0  0
 13  2  1  0  0  0  0
 14  1  1  0  0  0  0
 15  4  1  0  0  0  0
 15 20  1  0  0  0  0
 16 17  2  0  0  0  0
 16  5  1  0  0  0  0
 17  6  1  0  0  0  0
 18 10  2  0  0  0  0
 19 10  1  6  0  0  0
 19  3  1  0  0  0  0
 19 20  1  0  0  0  0
 22 23  2  0  0  0  0
 23 21  1  0  0  0  0
 24 28  1  0  0  0  0
 24 27  1  1  0  0  0
 25 28  1  0  0  0  0
 29 26  1  1  0  0  0
 29 30  1  0  0  0  0
 29 31  1  0  0  0  0
 30 23  1  6  0  0  0
 30 25  1  0  0  0  0
 31 24  1  0  0  0  0
M  END
>  <MODEL>
6

>  <REMARK>
 VINA RESULT:      -7.0      2.101      2.801
  Name = 
  3 active torsions:
  status: ('A' for Active; 'I' for Inactive)
    1  A    between atoms: C_5  and  C_16
    2  A    between atoms: C_5  and  C_30
    3  A    between atoms: C_10  and  C_16
                            x       y       z     vdW  Elec       q    Type
                         _______ _______ _______ _____ _____    ______ ____

>  <TORSDO>
F 3

$$$$
=
 OpenBabel11112416523D

 31 35  0  0  1  0  0  0  0  0999 V2000
  191.3070  170.7890  142.7560 C   0  0  0  0  0  0  0  0  0  0  0  0
  192.6440  173.5020  145.0520 C   0  0  2  0  0  3  0  0  0  0  0  0
  193.9070  173.9700  144.3080 C   0  0  1  0  0  3  0  0  0  0  0  0
  194.8780  175.4510  142.5210 C   0  0  1  0  0  3  0  0  0  0  0  0
  191.7090  172.7340  144.1520 C   0  0  0  0  0  0  0  0  0  0  0  0
  190.0610  171.3030  142.3910 C   0  0  0  0  0  3  0  0  0  0  0  0
  193.5940  174.9700  143.1850 C   0  0  0  0  0  2  0  0  0  0  0  0
  191.0100  175.4340  144.9120 C   0  0  2  0  0  3  0  0  0  0  0  0
  191.7630  169.4840  142.2090 C   0  0  0  0  0  1  0  0  0  0  0  0
  194.2680  175.5510  146.2590 C   0  0  0  0  0  3  0  0  0  0  0  0
  194.5370  176.4440  141.4300 C   0  0  0  0  0  1  0  0  0  0  0  0
  189.9120  174.5180  144.3780 C   0  0  0  0  0  2  0  0  0  0  0  0
  191.9520  174.6480  145.8330 C   0  0  2  0  0  3  0  0  0  0  0  0
  192.1280  171.5030  143.6320 C   0  0  0  0  0  3  0  0  0  0  0  0
  195.7760  176.1210  143.5540 C   0  0  0  0  0  2  0  0  0  0  0  0
  190.4530  173.2560  143.7750 C   0  0  0  0  0  0  0  0  0  0  0  0
  189.6330  172.5290  142.9050 C   0  0  0  0  0  3  0  0  0  0  0  0
  192.9510  175.5640  146.5130 C   0  0  0  0  0  3  0  0  0  0  0  0
  194.9010  174.5490  145.3280 C   0  0  2  0  0  3  0  0  0  0  0  0
  196.1460  175.1230  144.6500 C   0  0  0  0  0  2  0  0  0  0  0  0
  190.3660  176.6160  145.6260 C   0  0  0  0  0  2  0  0  0  0  0  0
  189.8080  177.9430  143.7660 O   0  0  0  0  0  0  0  0  0  0  0  0
  189.3960  177.3000  144.7190 C   0  0  0  0  0  0  0  0  0  0  0  0
  185.5330  178.3270  146.1320 C   0  0  1  0  0  3  0  0  0  0  0  0
  187.6560  177.3350  146.4940 C   0  0  0  0  0  2  0  0  0  0  0  0
  187.2460  178.0290  142.8460 O   0  0  0  0  0  1  0  0  0  0  0  0
  184.0680  178.2920  146.5130 C   0  0  0  0  0  1  0  0  0  0  0  0
  186.2260  177.2080  146.7650 N   0  0  0  0  0  2  0  0  0  0  0  0
  187.1360  178.2600  144.2180 C   0  0  2  0  0  3  0  0  0  0  0  0
  187.9240  177.1990  144.9940 C   0  0  1  0  0  3  0  0  0  0  0  0
  185.6630  178.2280  144.6140 C   0  0  0  0  0  2  0  0  0  0  0  0
  1 14  1  0  0  0  0
  2  5  1  6  0  0  0
  2 13  1  0  0  0  0
  3  7  1  6  0  0  0
  3  2  1  0  0  0  0
  3 19  1  0  0  0  0
  4 11  1  6  0  0  0
  4  7  1  0  0  0  0
  4 15  1  0  0  0  0
  6  1  2  0  0  0  0
  6 17  1  0  0  0  0
  8 21  1  1  0  0  0
  8 13  1  0  0  0  0
  9  1  1  0  0  0  0
 10 18  2  0  0  0  0
 12  8  1  0  0  0  0
 13 18  1  6  0  0  0
 14  5  2  0  0  0  0
 15 20  1  0  0  0  0
 16  5  1  0  0  0  0
 16 12  1  0  0  0  0
 17 16  2  0  0  0  0
 19 20  1  6  0  0  0
 19 10  1  0  0  0  0
 22 23  2  0  0  0  0
 23 21  1  0  0  0  0
 24 27  1  6  0  0  0
 24 28  1  0  0  0  0
 25 28  1  0  0  0  0
 29 26  1  6  0  0  0
 29 31  1  0  0  0  0
 29 30  1  0  0  0  0
 30 23  1  1  0  0  0
 30 25  1  0  0  0  0
 31 24  1  0  0  0  0
M  END
>  <MODEL>
7

>  <REMARK>
 VINA RESULT:      -6.9      3.052      7.138
  Name = 
  3 active torsions:
  status: ('A' for Active; 'I' for Inactive)
    1  A    between atoms: C_5  and  C_16
    2  A    between atoms: C_5  and  C_30
    3  A    between atoms: C_10  and  C_16
                            x       y       z     vdW  Elec       q    Type
                         _______ _______ _______ _____ _____    ______ ____

>  <TORSDO>
F 3

$$$$
=
 OpenBabel11112416523D

 31 35  0  0  1  0  0  0  0  0999 V2000
  195.3130  176.3900  143.9930 C   0  0  0  0  0  0  0  0  0  0  0  0
  191.7750  175.1740  143.3460 C   0  0  2  0  0  3  0  0  0  0  0  0
  192.0110  173.7780  142.7440 C   0  0  1  0  0  3  0  0  0  0  0  0
  192.4290  171.3350  143.1790 C   0  0  1  0  0  3  0  0  0  0  0  0
  192.9900  175.6900  144.0730 C   0  0  0  0  0  0  0  0  0  0  0  0
  195.3160  176.5540  145.3800 C   0  0  0  0  0  3  0  0  0  0  0  0
  192.2630  172.7080  143.8180 C   0  0  0  0  0  2  0  0  0  0  0  0
  190.7230  174.7740  145.6160 C   0  0  2  0  0  3  0  0  0  0  0  0
  196.5440  176.6720  143.2090 C   0  0  0  0  0  1  0  0  0  0  0  0
  189.4890  173.6320  142.5150 C   0  0  0  0  0  3  0  0  0  0  0  0
  192.6610  170.3030  144.2610 C   0  0  0  0  0  1  0  0  0  0  0  0
  191.7540  175.6730  146.2950 C   0  0  0  0  0  2  0  0  0  0  0  0
  190.4710  175.2520  144.1800 C   0  0  2  0  0  3  0  0  0  0  0  0
  194.1540  175.9590  143.3430 C   0  0  0  0  0  3  0  0  0  0  0  0
  191.1740  170.9740  142.3940 C   0  0  0  0  0  2  0  0  0  0  0  0
  192.9980  175.8490  145.4770 C   0  0  0  0  0  0  0  0  0  0  0  0
  194.1600  176.2910  146.1170 C   0  0  0  0  0  3  0  0  0  0  0  0
  189.3310  174.4870  143.5350 C   0  0  0  0  0  3  0  0  0  0  0  0
  190.8210  173.4140  141.8430 C   0  0  2  0  0  3  0  0  0  0  0  0
  190.9400  171.9960  141.2820 C   0  0  0  0  0  2  0  0  0  0  0  0
  189.4470  174.7660  146.4490 C   0  0  0  0  0  2  0  0  0  0  0  0
  189.6050  176.9650  147.2680 O   0  0  0  0  0  0  0  0  0  0  0  0
  188.9420  176.1590  146.6320 C   0  0  0  0  0  0  0  0  0  0  0  0
  185.3330  178.3020  146.0340 C   0  0  1  0  0  3  0  0  0  0  0  0
  186.5450  176.5840  147.1320 C   0  0  0  0  0  2  0  0  0  0  0  0
  188.5580  177.8350  144.2430 O   0  0  0  0  0  1  0  0  0  0  0  0
  183.9660  178.7410  145.5530 C   0  0  0  0  0  1  0  0  0  0  0  0
  185.2500  176.9390  146.5540 N   0  0  0  0  0  2  0  0  0  0  0  0
  187.7020  177.9140  145.3430 C   0  0  2  0  0  3  0  0  0  0  0  0
  187.6190  176.5530  146.0440 C   0  0  1  0  0  3  0  0  0  0  0  0
  186.3200  178.3560  144.8710 C   0  0  0  0  0  2  0  0  0  0  0  0
  1  6  1  0  0  0  0
  2  5  1  1  0  0  0
  2 13  1  0  0  0  0
  3  2  1  0  0  0  0
  3  7  1  1  0  0  0
  4  7  1  0  0  0  0
  4 11  1  1  0  0  0
  5 16  2  0  0  0  0
  6 17  2  0  0  0  0
  8 12  1  0  0  0  0
  8 21  1  1  0  0  0
  9  1  1  0  0  0  0
 10 18  2  0  0  0  0
 13 18  1  6  0  0  0
 13  8  1  0  0  0  0
 14  1  2  0  0  0  0
 14  5  1  0  0  0  0
 15  4  1  0  0  0  0
 16 17  1  0  0  0  0
 16 12  1  0  0  0  0
 19 20  1  1  0  0  0
 19 10  1  0  0  0  0
 19  3  1  0  0  0  0
 20 15  1  0  0  0  0
 21 23  1  0  0  0  0
 23 22  2  0  0  0  0
 24 27  1  6  0  0  0
 24 28  1  0  0  0  0
 28 25  1  0  0  0  0
 29 26  1  6  0  0  0
 29 30  1  0  0  0  0
 30 23  1  1  0  0  0
 30 25  1  0  0  0  0
 31 29  1  0  0  0  0
 31 24  1  0  0  0  0
M  END
>  <MODEL>
8

>  <REMARK>
 VINA RESULT:      -6.9      3.042      7.286
  Name = 
  3 active torsions:
  status: ('A' for Active; 'I' for Inactive)
    1  A    between atoms: C_5  and  C_16
    2  A    between atoms: C_5  and  C_30
    3  A    between atoms: C_10  and  C_16
                            x       y       z     vdW  Elec       q    Type
                         _______ _______ _______ _____ _____    ______ ____

>  <TORSDO>
F 3

$$$$
=
 OpenBabel11112416523D

 31 35  0  0  1  0  0  0  0  0999 V2000
  185.7450  178.6290  146.7060 C   0  0  0  0  0  0  0  0  0  0  0  0
  188.6320  177.9160  144.3450 C   0  0  2  0  0  3  0  0  0  0  0  0
  189.5660  177.0590  145.2170 C   0  0  1  0  0  3  0  0  0  0  0  0
  190.1300  174.7660  146.0860 C   0  0  1  0  0  3  0  0  0  0  0  0
  187.2330  177.9740  144.9030 C   0  0  0  0  0  0  0  0  0  0  0  0
  184.6720  178.0270  146.0450 C   0  0  0  0  0  3  0  0  0  0  0  0
  189.1420  175.5830  145.2640 C   0  0  0  0  0  2  0  0  0  0  0  0
  187.7360  176.3550  142.5620 C   0  0  2  0  0  3  0  0  0  0  0  0
  185.5310  179.2970  148.0160 C   0  0  0  0  0  1  0  0  0  0  0  0
  191.1340  177.0350  143.2230 C   0  0  0  0  0  3  0  0  0  0  0  0
  189.6910  173.3170  146.1020 C   0  0  0  0  0  1  0  0  0  0  0  0
  186.2980  176.7610  142.8740 C   0  0  0  0  0  2  0  0  0  0  0  0
  188.6880  177.5240  142.8470 C   0  0  2  0  0  3  0  0  0  0  0  0
  187.0200  178.6020  146.1360 C   0  0  0  0  0  3  0  0  0  0  0  0
  191.5210  174.8690  145.4760 C   0  0  0  0  0  2  0  0  0  0  0  0
  186.1490  177.3580  144.2410 C   0  0  0  0  0  0  0  0  0  0  0  0
  184.8730  177.4000  144.8130 C   0  0  0  0  0  3  0  0  0  0  0  0
  190.1000  177.2120  142.3880 C   0  0  0  0  0  3  0  0  0  0  0  0
  191.0090  177.2220  144.7130 C   0  0  2  0  0  3  0  0  0  0  0  0
  191.9860  176.3240  145.4740 C   0  0  0  0  0  2  0  0  0  0  0  0
  187.8170  175.8910  141.1120 C   0  0  0  0  0  2  0  0  0  0  0  0
  187.6770  173.6510  141.8130 O   0  0  0  0  0  0  0  0  0  0  0  0
  188.2020  174.4500  141.0520 C   0  0  0  0  0  0  0  0  0  0  0  0
  190.6200  171.8540  138.7310 C   0  0  1  0  0  3  0  0  0  0  0  0
  190.2340  173.0540  140.7400 C   0  0  0  0  0  2  0  0  0  0  0  0
  187.8160  174.2250  138.1430 O   0  0  0  0  0  1  0  0  0  0  0  0
  191.6800  171.2960  137.8050 C   0  0  0  0  0  1  0  0  0  0  0  0
  191.2590  172.6360  139.7860 N   0  0  0  0  0  2  0  0  0  0  0  0
  188.5940  173.3100  138.8550 C   0  0  2  0  0  3  0  0  0  0  0  0
  189.2380  173.9980  140.0650 C   0  0  1  0  0  3  0  0  0  0  0  0
  189.6670  172.7400  137.9320 C   0  0  0  0  0  2  0  0  0  0  0  0
  1  9  1  0  0  0  0
  2  5  1  1  0  0  0
  2  3  1  0  0  0  0
  3  7  1  6  0  0  0
  4 11  1  6  0  0  0
  5 14  2  0  0  0  0
  6  1  2  0  0  0  0
  7  4  1  0  0  0  0
  8 21  1  6  0  0  0
  8 13  1  0  0  0  0
  8 12  1  0  0  0  0
 12 16  1  0  0  0  0
 13 18  1  1  0  0  0
 13  2  1  0  0  0  0
 14  1  1  0  0  0  0
 15  4  1  0  0  0  0
 16 17  2  0  0  0  0
 16  5  1  0  0  0  0
 17  6  1  0  0  0  0
 18 10  2  0  0  0  0
 19 10  1  6  0  0  0
 19  3  1  0  0  0  0
 19 20  1  0  0  0  0
 20 15  1  0  0  0  0
 23 21  1  0  0  0  0
 23 22  2  0  0  0  0
 24 27  1  6  0  0  0
 24 28  1  0  0  0  0
 28 25  1  0  0  0  0
 29 26  1  6  0  0  0
 29 30  1  0  0  0  0
 30 25  1  0  0  0  0
 30 23  1  1  0  0  0
 31 24  1  0  0  0  0
 31 29  1  0  0  0  0
M  END
>  <MODEL>
9

>  <REMARK>
 VINA RESULT:      -6.9      2.183      3.320
  Name = 
  3 active torsions:
  status: ('A' for Active; 'I' for Inactive)
    1  A    between atoms: C_5  and  C_16
    2  A    between atoms: C_5  and  C_30
    3  A    between atoms: C_10  and  C_16
                            x       y       z     vdW  Elec       q    Type
                         _______ _______ _______ _____ _____    ______ ____

>  <TORSDO>
F 3

$$$$
