=
 OpenBabel11112417403D

 28 32  0  0  1  0  0  0  0  0999 V2000
  191.0020  174.3080  143.0700 C   0  0  0  0  0  0  0  0  0  0  0  0
  187.5940  178.1840  143.7220 C   0  0  0  0  0  1  0  0  0  0  0  0
  192.9240  175.9040  146.8890 O   0  0  0  0  0  0  0  0  0  0  0  0
  190.0870  172.2620  144.7030 C   0  0  0  0  0  3  0  0  0  0  0  0
  190.6060  176.4450  147.2730 C   0  0  2  0  0  3  0  0  0  0  0  0
  191.4710  175.3730  142.3010 O   0  0  0  0  0  0  0  0  0  0  0  0
  186.2890  176.2250  143.0110 C   0  0  0  0  0  1  0  0  0  0  0  0
  186.9630  176.8770  144.2010 C   0  0  0  0  0  0  0  0  0  0  0  0
  186.5330  177.6710  146.5230 C   0  0  1  0  0  3  0  0  0  0  0  0
  187.9880  175.8690  144.7940 C   0  0  2  0  0  3  0  0  0  0  0  0
  193.7780  174.9890  144.2850 O   0  0  0  0  0  1  0  0  0  0  0  0
  190.1940  176.9170  144.8880 C   0  0  1  0  0  3  0  0  0  0  0  0
  187.2580  176.5580  147.1250 N   0  0  0  0  0  2  0  0  0  0  0  0
  185.8860  177.2120  145.2250 C   0  0  0  0  0  2  0  0  0  0  0  0
  193.4810  176.0920  143.4820 C   0  0  2  0  0  3  0  0  0  0  0  0
  189.9440  174.5210  143.9630 C   0  0  0  0  0  0  0  0  0  0  0  0
  191.8050  176.2520  146.4290 C   0  0  0  0  0  0  0  0  0  0  0  0
  185.4590  178.1450  147.4780 C   0  0  0  0  0  1  0  0  0  0  0  0
  192.6430  177.1350  144.2360 C   0  0  0  0  0  2  0  0  0  0  0  0
  189.5240  173.4980  144.7610 N   0  0  0  0  0  0  0  0  0  0  0  0
  191.5970  173.0440  143.0010 C   0  0  0  0  0  3  0  0  0  0  0  0
  191.1350  172.0120  143.8160 C   0  0  0  0  0  3  0  0  0  0  0  0
  192.8580  175.6500  142.1560 C   0  0  0  0  0  2  0  0  0  0  0  0
  189.5750  177.0060  146.2950 C   0  0  1  0  0  3  0  0  0  0  0  0
  191.5900  176.5330  145.0560 N   0  0  0  0  0  0  0  0  0  0  0  0
  188.3560  176.1040  146.2630 C   0  0  2  0  0  3  0  0  0  0  0  0
  190.8700  177.3940  148.2600 O   0  0  0  0  0  1  0  0  0  0  0  0
  189.3410  175.9040  144.0820 C   0  0  1  0  0  3  0  0  0  0  0  0
  1 16  1  0  0  0  0
  2  8  1  0  0  0  0
  4 20  1  0  0  0  0
  5 27  1  1  0  0  0
  6  1  1  0  0  0  0
  7  8  1  0  0  0  0
  8 14  1  0  0  0  0
  9 13  1  0  0  0  0
  9 18  1  1  0  0  0
 10  8  1  6  0  0  0
 10 26  1  0  0  0  0
 12 25  1  1  0  0  0
 12 24  1  0  0  0  0
 14  9  1  0  0  0  0
 15 19  1  0  0  0  0
 15 11  1  1  0  0  0
 16 28  1  0  0  0  0
 16 20  2  0  0  0  0
 17  3  2  0  0  0  0
 17  5  1  0  0  0  0
 19 25  1  0  0  0  0
 21  1  2  0  0  0  0
 21 22  1  0  0  0  0
 22  4  2  0  0  0  0
 23  6  1  0  0  0  0
 23 15  1  0  0  0  0
 24  5  1  0  0  0  0
 25 17  1  0  0  0  0
 26 24  1  0  0  0  0
 26 13  1  0  0  0  0
 28 10  1  0  0  0  0
 28 12  1  0  0  0  0
M  END
>  <MODEL>
1

>  <REMARK>
 VINA RESULT:      -8.3      0.000      0.000
  Name = 
  0 active torsions:
  status: ('A' for Active; 'I' for Inactive)
                            x       y       z     vdW  Elec       q    Type
                         _______ _______ _______ _____ _____    ______ ____

>  <TORSDO>
F 0

$$$$
=
 OpenBabel11112417403D

 28 32  0  0  1  0  0  0  0  0999 V2000
  191.6420  174.0530  143.2960 C   0  0  0  0  0  0  0  0  0  0  0  0
  188.8350  178.2490  142.0410 C   0  0  0  0  0  1  0  0  0  0  0  0
  192.0690  176.0640  147.3710 O   0  0  0  0  0  0  0  0  0  0  0  0
  189.8720  172.3700  144.6100 C   0  0  0  0  0  3  0  0  0  0  0  0
  189.8920  176.8470  146.6900 C   0  0  2  0  0  3  0  0  0  0  0  0
  192.5240  174.9420  142.6830 O   0  0  0  0  0  0  0  0  0  0  0  0
  187.6670  176.3170  141.0670 C   0  0  0  0  0  1  0  0  0  0  0  0
  187.8900  177.0900  142.3520 C   0  0  0  0  0  0  0  0  0  0  0  0
  186.6780  178.2700  144.1800 C   0  0  1  0  0  3  0  0  0  0  0  0
  188.4390  176.1060  143.4230 C   0  0  2  0  0  3  0  0  0  0  0  0
  193.7610  174.6860  145.4770 O   0  0  0  0  0  1  0  0  0  0  0  0
  190.5440  176.9720  144.3160 C   0  0  1  0  0  3  0  0  0  0  0  0
  186.9370  177.2100  145.1470 N   0  0  0  0  0  2  0  0  0  0  0  0
  186.5500  177.6680  142.7890 C   0  0  0  0  0  2  0  0  0  0  0  0
  193.9680  175.6700  144.5090 C   0  0  2  0  0  3  0  0  0  0  0  0
  190.3560  174.4900  143.6370 C   0  0  0  0  0  0  0  0  0  0  0  0
  191.2890  176.4270  146.4510 C   0  0  0  0  0  0  0  0  0  0  0  0
  185.3880  178.9740  144.5420 C   0  0  0  0  0  1  0  0  0  0  0  0
  193.0520  176.8830  144.7260 C   0  0  0  0  0  2  0  0  0  0  0  0
  189.5120  173.6420  144.2930 N   0  0  0  0  0  0  0  0  0  0  0  0
  192.0330  172.7490  143.6200 C   0  0  0  0  0  3  0  0  0  0  0  0
  191.1430  171.8990  144.2750 C   0  0  0  0  0  3  0  0  0  0  0  0
  193.8760  175.0790  143.1000 C   0  0  0  0  0  2  0  0  0  0  0  0
  189.4300  177.3310  145.3170 C   0  0  1  0  0  3  0  0  0  0  0  0
  191.6860  176.5060  145.0920 N   0  0  0  0  0  0  0  0  0  0  0  0
  188.2130  176.5370  144.8770 C   0  0  2  0  0  3  0  0  0  0  0  0
  189.8660  177.9140  147.5880 O   0  0  0  0  0  1  0  0  0  0  0  0
  189.9550  175.9190  143.3420 C   0  0  1  0  0  3  0  0  0  0  0  0
  1 21  2  0  0  0  0
  1 16  1  0  0  0  0
  2  8  1  0  0  0  0
  5 27  1  1  0  0  0
  6 23  1  0  0  0  0
  6  1  1  0  0  0  0
  7  8  1  0  0  0  0
  8 14  1  0  0  0  0
  9 18  1  1  0  0  0
  9 13  1  0  0  0  0
 10  8  1  6  0  0  0
 10 26  1  0  0  0  0
 12 25  1  1  0  0  0
 12 24  1  0  0  0  0
 14  9  1  0  0  0  0
 15 19  1  0  0  0  0
 15 11  1  1  0  0  0
 16 20  2  0  0  0  0
 17  5  1  0  0  0  0
 17  3  2  0  0  0  0
 19 25  1  0  0  0  0
 20  4  1  0  0  0  0
 21 22  1  0  0  0  0
 22  4  2  0  0  0  0
 23 15  1  0  0  0  0
 24  5  1  0  0  0  0
 25 17  1  0  0  0  0
 26 13  1  0  0  0  0
 26 24  1  0  0  0  0
 28 10  1  0  0  0  0
 28 16  1  0  0  0  0
 28 12  1  0  0  0  0
M  END
>  <MODEL>
2

>  <REMARK>
 VINA RESULT:      -8.1      1.269      1.470
  Name = 
  0 active torsions:
  status: ('A' for Active; 'I' for Inactive)
                            x       y       z     vdW  Elec       q    Type
                         _______ _______ _______ _____ _____    ______ ____

>  <TORSDO>
F 0

$$$$
=
 OpenBabel11112417403D

 28 32  0  0  1  0  0  0  0  0999 V2000
  189.6570  176.3950  144.9150 C   0  0  0  0  0  0  0  0  0  0  0  0
  194.7370  175.9130  143.9070 C   0  0  0  0  0  1  0  0  0  0  0  0
  189.2890  172.3150  142.9040 O   0  0  0  0  0  0  0  0  0  0  0  0
  189.2510  174.9770  147.2630 C   0  0  0  0  0  3  0  0  0  0  0  0
  191.4860  172.1550  143.8860 C   0  0  2  0  0  3  0  0  0  0  0  0
  189.8780  177.0540  143.7050 O   0  0  0  0  0  0  0  0  0  0  0  0
  194.5660  176.8610  146.1700 C   0  0  0  0  0  1  0  0  0  0  0  0
  194.4840  175.5730  145.3750 C   0  0  0  0  0  0  0  0  0  0  0  0
  195.4310  173.2730  145.2400 C   0  0  1  0  0  3  0  0  0  0  0  0
  193.0940  174.9270  145.6350 C   0  0  2  0  0  3  0  0  0  0  0  0
  187.9150  174.8560  142.8540 O   0  0  0  0  0  1  0  0  0  0  0  0
  191.9660  174.5430  143.5010 C   0  0  1  0  0  3  0  0  0  0  0  0
  194.2190  172.6550  145.7630 N   0  0  0  0  0  2  0  0  0  0  0  0
  195.6010  174.6540  145.8540 C   0  0  0  0  0  2  0  0  0  0  0  0
  188.7700  175.6280  142.0650 C   0  0  2  0  0  3  0  0  0  0  0  0
  190.6780  175.6110  145.4650 C   0  0  0  0  0  0  0  0  0  0  0  0
  190.3670  172.8740  143.2400 C   0  0  0  0  0  0  0  0  0  0  0  0
  196.6260  172.4150  145.5990 C   0  0  0  0  0  1  0  0  0  0  0  0
  190.1050  174.9160  141.8080 C   0  0  0  0  0  2  0  0  0  0  0  0
  190.4450  174.9160  146.6150 N   0  0  0  0  0  0  0  0  0  0  0  0
  188.4200  176.4650  145.5640 C   0  0  0  0  0  3  0  0  0  0  0  0
  188.2140  175.7580  146.7480 C   0  0  0  0  0  3  0  0  0  0  0  0
  188.9290  177.0350  142.6470 C   0  0  0  0  0  2  0  0  0  0  0  0
  192.5920  173.2070  143.9450 C   0  0  1  0  0  3  0  0  0  0  0  0
  190.6310  174.2460  142.9980 N   0  0  0  0  0  0  0  0  0  0  0  0
  193.0220  173.4160  145.3850 C   0  0  2  0  0  3  0  0  0  0  0  0
  191.8990  171.0970  143.0750 O   0  0  0  0  0  1  0  0  0  0  0  0
  191.9960  175.4860  144.7300 C   0  0  1  0  0  3  0  0  0  0  0  0
  1 16  2  0  0  0  0
  1 21  1  0  0  0  0
  2  8  1  0  0  0  0
  3 17  2  0  0  0  0
  5 27  1  6  0  0  0
  5 24  1  0  0  0  0
  6  1  1  0  0  0  0
  8 14  1  0  0  0  0
  8  7  1  0  0  0  0
  9 18  1  1  0  0  0
  9 13  1  0  0  0  0
  9 14  1  0  0  0  0
 10  8  1  6  0  0  0
 12 25  1  1  0  0  0
 12 24  1  0  0  0  0
 12 28  1  0  0  0  0
 15 23  1  0  0  0  0
 15 11  1  1  0  0  0
 16 20  1  0  0  0  0
 17  5  1  0  0  0  0
 19 15  1  0  0  0  0
 19 25  1  0  0  0  0
 20  4  2  0  0  0  0
 21 22  2  0  0  0  0
 22  4  1  0  0  0  0
 23  6  1  0  0  0  0
 24 26  1  0  0  0  0
 25 17  1  0  0  0  0
 26 10  1  0  0  0  0
 26 13  1  0  0  0  0
 28 16  1  0  0  0  0
 28 10  1  0  0  0  0
M  END
>  <MODEL>
3

>  <REMARK>
 VINA RESULT:      -7.7      2.636      6.265
  Name = 
  0 active torsions:
  status: ('A' for Active; 'I' for Inactive)
                            x       y       z     vdW  Elec       q    Type
                         _______ _______ _______ _____ _____    ______ ____

>  <TORSDO>
F 0

$$$$
=
 OpenBabel11112417403D

 28 32  0  0  1  0  0  0  0  0999 V2000
  194.2960  173.8840  145.1170 C   0  0  0  0  0  0  0  0  0  0  0  0
  189.6660  174.9160  147.2520 C   0  0  0  0  0  1  0  0  0  0  0  0
  191.8850  172.8500  141.3820 O   0  0  0  0  0  0  0  0  0  0  0  0
  194.9730  176.1820  143.7190 C   0  0  0  0  0  3  0  0  0  0  0  0
  190.5080  174.5680  142.3660 C   0  0  2  0  0  3  0  0  0  0  0  0
  193.9060  172.7210  145.7800 O   0  0  0  0  0  0  0  0  0  0  0  0
  191.1910  176.6880  148.0130 C   0  0  0  0  0  1  0  0  0  0  0  0
  190.3350  176.2290  146.8490 C   0  0  0  0  0  0  0  0  0  0  0  0
  188.4960  176.9670  145.3410 C   0  0  1  0  0  3  0  0  0  0  0  0
  191.2440  176.1080  145.5930 C   0  0  2  0  0  3  0  0  0  0  0  0
  194.0900  171.7370  142.8820 O   0  0  0  0  0  1  0  0  0  0  0  0
  191.0470  173.8560  144.6640 C   0  0  1  0  0  3  0  0  0  0  0  0
  189.3900  177.1410  144.2020 N   0  0  0  0  0  2  0  0  0  0  0  0
  189.2480  177.2730  146.6270 C   0  0  0  0  0  2  0  0  0  0  0  0
  193.4330  171.1580  143.9690 C   0  0  2  0  0  3  0  0  0  0  0  0
  193.3750  174.9270  144.9630 C   0  0  0  0  0  0  0  0  0  0  0  0
  191.4360  173.4180  142.4130 C   0  0  0  0  0  0  0  0  0  0  0  0
  187.3240  177.9160  145.2080 C   0  0  0  0  0  1  0  0  0  0  0  0
  191.9540  171.5680  144.0250 C   0  0  0  0  0  2  0  0  0  0  0  0
  193.7330  176.0400  144.2600 N   0  0  0  0  0  0  0  0  0  0  0  0
  195.5740  174.0090  144.5610 C   0  0  0  0  0  3  0  0  0  0  0  0
  195.9190  175.1660  143.8630 C   0  0  0  0  0  3  0  0  0  0  0  0
  194.1910  171.4250  145.2710 C   0  0  0  0  0  2  0  0  0  0  0  0
  190.1420  174.7840  143.8330 C   0  0  1  0  0  3  0  0  0  0  0  0
  191.7460  172.9850  143.7270 N   0  0  0  0  0  0  0  0  0  0  0  0
  190.5110  176.1960  144.2500 C   0  0  2  0  0  3  0  0  0  0  0  0
  189.3620  174.2220  141.6510 O   0  0  0  0  0  1  0  0  0  0  0  0
  191.9730  174.7660  145.5100 C   0  0  1  0  0  3  0  0  0  0  0  0
  1  6  1  0  0  0  0
  3 17  2  0  0  0  0
  4 22  2  0  0  0  0
  4 20  1  0  0  0  0
  5 27  1  6  0  0  0
  5 17  1  0  0  0  0
  5 24  1  0  0  0  0
  8  2  1  0  0  0  0
  8  7  1  0  0  0  0
  9 18  1  6  0  0  0
  9 14  1  0  0  0  0
 10  8  1  1  0  0  0
 12 25  1  6  0  0  0
 12 28  1  0  0  0  0
 13 26  1  0  0  0  0
 13  9  1  0  0  0  0
 14  8  1  0  0  0  0
 15 11  1  6  0  0  0
 15 19  1  0  0  0  0
 15 23  1  0  0  0  0
 16  1  1  0  0  0  0
 16 28  1  0  0  0  0
 17 25  1  0  0  0  0
 20 16  2  0  0  0  0
 21  1  2  0  0  0  0
 22 21  1  0  0  0  0
 23  6  1  0  0  0  0
 24 26  1  0  0  0  0
 24 12  1  0  0  0  0
 25 19  1  0  0  0  0
 26 10  1  0  0  0  0
 28 10  1  0  0  0  0
M  END
>  <MODEL>
4

>  <REMARK>
 VINA RESULT:      -7.4      2.256      4.703
  Name = 
  0 active torsions:
  status: ('A' for Active; 'I' for Inactive)
                            x       y       z     vdW  Elec       q    Type
                         _______ _______ _______ _____ _____    ______ ____

>  <TORSDO>
F 0

$$$$
=
 OpenBabel11112417403D

 28 32  0  0  1  0  0  0  0  0999 V2000
  190.4720  174.6410  144.3670 C   0  0  0  0  0  0  0  0  0  0  0  0
  185.8280  176.4100  145.9030 C   0  0  0  0  0  1  0  0  0  0  0  0
  188.7210  174.9010  140.1600 O   0  0  0  0  0  0  0  0  0  0  0  0
  191.8950  176.9030  143.6260 C   0  0  0  0  0  3  0  0  0  0  0  0
  187.5680  176.7120  141.2580 C   0  0  2  0  0  3  0  0  0  0  0  0
  189.7150  173.5160  144.6920 O   0  0  0  0  0  0  0  0  0  0  0  0
  187.5040  177.5880  147.2640 C   0  0  0  0  0  1  0  0  0  0  0  0
  186.8290  177.5640  145.9070 C   0  0  0  0  0  0  0  0  0  0  0  0
  185.5420  178.9870  144.3190 C   0  0  1  0  0  3  0  0  0  0  0  0
  187.9310  177.4390  144.8170 C   0  0  2  0  0  3  0  0  0  0  0  0
  190.2800  173.0320  141.7170 O   0  0  0  0  0  1  0  0  0  0  0  0
  187.4560  175.5020  143.4040 C   0  0  1  0  0  3  0  0  0  0  0  0
  186.6680  179.1260  143.4030 N   0  0  0  0  0  2  0  0  0  0  0  0
  186.0590  178.8690  145.7440 C   0  0  0  0  0  2  0  0  0  0  0  0
  189.3060  172.4560  142.5330 C   0  0  2  0  0  3  0  0  0  0  0  0
  189.8460  175.8910  144.2960 C   0  0  0  0  0  0  0  0  0  0  0  0
  188.2000  175.3760  141.2030 C   0  0  0  0  0  0  0  0  0  0  0  0
  184.6510  180.2060  144.2080 C   0  0  0  0  0  1  0  0  0  0  0  0
  187.9690  173.2060  142.4380 C   0  0  0  0  0  2  0  0  0  0  0  0
  190.5700  176.9840  143.9170 N   0  0  0  0  0  0  0  0  0  0  0  0
  191.8340  174.5370  144.0640 C   0  0  0  0  0  3  0  0  0  0  0  0
  192.5540  175.6740  143.6960 C   0  0  0  0  0  3  0  0  0  0  0  0
  189.8170  172.2970  143.9670 C   0  0  0  0  0  2  0  0  0  0  0  0
  186.9610  176.7560  142.6590 C   0  0  1  0  0  3  0  0  0  0  0  0
  188.1330  174.6600  142.4250 N   0  0  0  0  0  0  0  0  0  0  0  0
  187.5270  177.9370  143.4250 C   0  0  2  0  0  3  0  0  0  0  0  0
  186.5480  176.7910  140.3100 O   0  0  0  0  0  1  0  0  0  0  0  0
  188.3600  175.9930  144.5640 C   0  0  1  0  0  3  0  0  0  0  0  0
  1  6  1  0  0  0  0
  2  8  1  0  0  0  0
  3 17  2  0  0  0  0
  4 22  2  0  0  0  0
  4 20  1  0  0  0  0
  5 27  1  6  0  0  0
  5 24  1  0  0  0  0
  8  7  1  0  0  0  0
  9 18  1  1  0  0  0
  9 14  1  0  0  0  0
 10  8  1  1  0  0  0
 12 25  1  6  0  0  0
 12 28  1  0  0  0  0
 13 26  1  0  0  0  0
 13  9  1  0  0  0  0
 14  8  1  0  0  0  0
 15 11  1  6  0  0  0
 15 23  1  0  0  0  0
 16  1  1  0  0  0  0
 16 28  1  0  0  0  0
 17  5  1  0  0  0  0
 17 25  1  0  0  0  0
 19 15  1  0  0  0  0
 20 16  2  0  0  0  0
 21  1  2  0  0  0  0
 22 21  1  0  0  0  0
 23  6  1  0  0  0  0
 24 12  1  0  0  0  0
 24 26  1  0  0  0  0
 25 19  1  0  0  0  0
 26 10  1  0  0  0  0
 28 10  1  0  0  0  0
M  END
>  <MODEL>
5

>  <REMARK>
 VINA RESULT:      -7.4      2.367      4.548
  Name = 
  0 active torsions:
  status: ('A' for Active; 'I' for Inactive)
                            x       y       z     vdW  Elec       q    Type
                         _______ _______ _______ _____ _____    ______ ____

>  <TORSDO>
F 0

$$$$
=
 OpenBabel11112417403D

 28 32  0  0  1  0  0  0  0  0999 V2000
  190.4940  176.5260  145.1170 C   0  0  0  0  0  0  0  0  0  0  0  0
  185.3540  176.7780  144.3550 C   0  0  0  0  0  1  0  0  0  0  0  0
  190.5020  173.8820  141.3970 O   0  0  0  0  0  0  0  0  0  0  0  0
  191.5670  178.4460  143.4290 C   0  0  0  0  0  3  0  0  0  0  0  0
  188.6520  175.3520  140.9200 C   0  0  2  0  0  3  0  0  0  0  0  0
  189.9330  175.5290  145.9150 O   0  0  0  0  0  0  0  0  0  0  0  0
  186.0720  179.0420  144.9930 C   0  0  0  0  0  1  0  0  0  0  0  0
  186.0000  178.0630  143.8380 C   0  0  0  0  0  0  0  0  0  0  0  0
  185.1550  177.8190  141.5080 C   0  0  1  0  0  3  0  0  0  0  0  0
  187.4370  177.8590  143.2810 C   0  0  2  0  0  3  0  0  0  0  0  0
  191.6990  173.8790  144.0270 O   0  0  0  0  0  1  0  0  0  0  0  0
  187.9800  175.4760  143.2900 C   0  0  1  0  0  3  0  0  0  0  0  0
  186.4900  177.9150  140.9270 N   0  0  0  0  0  2  0  0  0  0  0  0
  185.0910  178.6620  142.7720 C   0  0  0  0  0  2  0  0  0  0  0  0
  190.6330  173.4610  144.8260 C   0  0  2  0  0  3  0  0  0  0  0  0
  189.6900  177.1890  144.1820 C   0  0  0  0  0  0  0  0  0  0  0  0
  189.5280  174.5630  141.8120 C   0  0  0  0  0  0  0  0  0  0  0  0
  184.1370  178.3320  140.5110 C   0  0  0  0  0  1  0  0  0  0  0  0
  189.3100  173.4450  144.0460 C   0  0  0  0  0  2  0  0  0  0  0  0
  190.2490  178.1210  143.3570 N   0  0  0  0  0  0  0  0  0  0  0  0
  191.8540  176.8430  145.2010 C   0  0  0  0  0  3  0  0  0  0  0  0
  192.3950  177.8130  144.3570 C   0  0  0  0  0  3  0  0  0  0  0  0
  190.5690  174.2750  146.1210 C   0  0  0  0  0  2  0  0  0  0  0  0
  187.5540  175.8520  141.8580 C   0  0  1  0  0  3  0  0  0  0  0  0
  189.1480  174.6110  143.1770 N   0  0  0  0  0  0  0  0  0  0  0  0
  187.5080  177.3680  141.8300 C   0  0  2  0  0  3  0  0  0  0  0  0
  188.0880  174.5200  139.9530 O   0  0  0  0  0  1  0  0  0  0  0  0
  188.2320  176.8030  144.0500 C   0  0  1  0  0  3  0  0  0  0  0  0
  1 21  1  0  0  0  0
  1  6  1  0  0  0  0
  3 17  2  0  0  0  0
  4 22  1  0  0  0  0
  5 27  1  6  0  0  0
  5 17  1  0  0  0  0
  5 24  1  0  0  0  0
  6 23  1  0  0  0  0
  8  2  1  0  0  0  0
  8  7  1  0  0  0  0
  9 18  1  6  0  0  0
  9 14  1  0  0  0  0
 10  8  1  1  0  0  0
 10 28  1  0  0  0  0
 12 25  1  6  0  0  0
 12 28  1  0  0  0  0
 13  9  1  0  0  0  0
 13 26  1  0  0  0  0
 14  8  1  0  0  0  0
 15 11  1  6  0  0  0
 15 23  1  0  0  0  0
 16  1  2  0  0  0  0
 17 25  1  0  0  0  0
 19 15  1  0  0  0  0
 20  4  2  0  0  0  0
 20 16  1  0  0  0  0
 22 21  2  0  0  0  0
 24 12  1  0  0  0  0
 25 19  1  0  0  0  0
 26 24  1  0  0  0  0
 26 10  1  0  0  0  0
 28 16  1  0  0  0  0
M  END
>  <MODEL>
6

>  <REMARK>
 VINA RESULT:      -7.3      2.434      4.818
  Name = 
  0 active torsions:
  status: ('A' for Active; 'I' for Inactive)
                            x       y       z     vdW  Elec       q    Type
                         _______ _______ _______ _____ _____    ______ ____

>  <TORSDO>
F 0

$$$$
=
 OpenBabel11112417403D

 28 32  0  0  1  0  0  0  0  0999 V2000
  187.2840  176.7330  143.7140 C   0  0  0  0  0  0  0  0  0  0  0  0
  189.4240  172.0940  144.6910 C   0  0  0  0  0  1  0  0  0  0  0  0
  189.6910  178.1460  147.3250 O   0  0  0  0  0  0  0  0  0  0  0  0
  189.1900  178.1090  142.2420 C   0  0  0  0  0  3  0  0  0  0  0  0
  191.1280  176.4170  146.4540 C   0  0  2  0  0  3  0  0  0  0  0  0
  186.3670  176.0410  144.5030 O   0  0  0  0  0  0  0  0  0  0  0  0
  189.4560  172.3720  142.2480 C   0  0  0  0  0  1  0  0  0  0  0  0
  190.1680  172.7530  143.5310 C   0  0  0  0  0  0  0  0  0  0  0  0
  192.3980  172.7100  144.6380 C   0  0  1  0  0  3  0  0  0  0  0  0
  190.2140  174.3050  143.6200 C   0  0  2  0  0  3  0  0  0  0  0  0
  187.0110  178.4500  146.2880 O   0  0  0  0  0  1  0  0  0  0  0  0
  189.2240  175.0260  145.7350 C   0  0  1  0  0  3  0  0  0  0  0  0
  192.5990  174.1450  144.4740 N   0  0  0  0  0  2  0  0  0  0  0  0
  191.5770  172.1760  143.4750 C   0  0  0  0  0  2  0  0  0  0  0  0
  186.4310  177.2280  146.6330 C   0  0  2  0  0  3  0  0  0  0  0  0
  188.5710  176.2090  143.5370 C   0  0  0  0  0  0  0  0  0  0  0  0
  189.8180  177.0340  146.7470 C   0  0  0  0  0  0  0  0  0  0  0  0
  193.7440  172.0160  144.6610 C   0  0  0  0  0  1  0  0  0  0  0  0
  187.4770  176.2250  147.1410 C   0  0  0  0  0  2  0  0  0  0  0  0
  189.4900  176.9150  142.8170 N   0  0  0  0  0  0  0  0  0  0  0  0
  186.9590  177.9650  143.1340 C   0  0  0  0  0  3  0  0  0  0  0  0
  187.9140  178.6560  142.3880 C   0  0  0  0  0  3  0  0  0  0  0  0
  185.5720  176.6880  145.4870 C   0  0  0  0  0  2  0  0  0  0  0  0
  190.7540  175.0400  145.9070 C   0  0  1  0  0  3  0  0  0  0  0  0
  188.7100  176.2410  146.3540 N   0  0  0  0  0  0  0  0  0  0  0  0
  191.3250  174.8720  144.5110 C   0  0  2  0  0  3  0  0  0  0  0  0
  191.8530  176.2620  147.6350 O   0  0  0  0  0  1  0  0  0  0  0  0
  188.9410  174.9080  144.2150 C   0  0  1  0  0  3  0  0  0  0  0  0
  1  6  1  0  0  0  0
  4 22  2  0  0  0  0
  4 20  1  0  0  0  0
  5 17  1  0  0  0  0
  5 27  1  1  0  0  0
  6 23  1  0  0  0  0
  7  8  1  0  0  0  0
  8  2  1  0  0  0  0
  9 18  1  6  0  0  0
 10  8  1  1  0  0  0
 10 28  1  0  0  0  0
 10 26  1  0  0  0  0
 12 24  1  0  0  0  0
 12 25  1  6  0  0  0
 13 26  1  0  0  0  0
 13  9  1  0  0  0  0
 14  8  1  0  0  0  0
 14  9  1  0  0  0  0
 15 11  1  6  0  0  0
 15 19  1  0  0  0  0
 16  1  1  0  0  0  0
 16 28  1  0  0  0  0
 17  3  2  0  0  0  0
 20 16  2  0  0  0  0
 21  1  2  0  0  0  0
 22 21  1  0  0  0  0
 23 15  1  0  0  0  0
 24  5  1  0  0  0  0
 25 17  1  0  0  0  0
 25 19  1  0  0  0  0
 26 24  1  0  0  0  0
 28 12  1  0  0  0  0
M  END
>  <MODEL>
7

>  <REMARK>
 VINA RESULT:      -7.1      2.019      5.608
  Name = 
  0 active torsions:
  status: ('A' for Active; 'I' for Inactive)
                            x       y       z     vdW  Elec       q    Type
                         _______ _______ _______ _____ _____    ______ ____

>  <TORSDO>
F 0

$$$$
=
 OpenBabel11112417403D

 28 32  0  0  1  0  0  0  0  0999 V2000
  186.3610  176.9170  143.8880 C   0  0  0  0  0  0  0  0  0  0  0  0
  189.0020  172.4750  143.3010 C   0  0  0  0  0  1  0  0  0  0  0  0
  189.8620  178.1710  146.5340 O   0  0  0  0  0  0  0  0  0  0  0  0
  187.4740  178.6660  142.0460 C   0  0  0  0  0  3  0  0  0  0  0  0
  190.9680  176.7320  144.9470 C   0  0  2  0  0  3  0  0  0  0  0  0
  185.8570  176.0370  144.8450 O   0  0  0  0  0  0  0  0  0  0  0  0
  188.0870  173.0350  141.0890 C   0  0  0  0  0  1  0  0  0  0  0  0
  189.2060  173.3450  142.0630 C   0  0  0  0  0  0  0  0  0  0  0  0
  191.6880  173.4320  142.2550 C   0  0  1  0  0  3  0  0  0  0  0  0
  189.1840  174.8710  142.3610 C   0  0  2  0  0  3  0  0  0  0  0  0
  186.9760  178.2810  146.6110 O   0  0  0  0  0  1  0  0  0  0  0  0
  189.0260  175.2230  144.7750 C   0  0  1  0  0  3  0  0  0  0  0  0
  191.7200  174.8900  142.2470 N   0  0  0  0  0  2  0  0  0  0  0  0
  190.5220  172.9460  141.4080 C   0  0  0  0  0  2  0  0  0  0  0  0
  186.6480  176.9690  146.9560 C   0  0  2  0  0  3  0  0  0  0  0  0
  187.5140  176.5700  143.1760 C   0  0  0  0  0  0  0  0  0  0  0  0
  189.8300  177.1550  145.7900 C   0  0  0  0  0  0  0  0  0  0  0  0
  192.9830  172.9000  141.6780 C   0  0  0  0  0  1  0  0  0  0  0  0
  187.8700  176.0410  146.8880 C   0  0  0  0  0  2  0  0  0  0  0  0
  188.0450  177.4550  142.2840 N   0  0  0  0  0  0  0  0  0  0  0  0
  185.7620  178.1620  143.6610 C   0  0  0  0  0  3  0  0  0  0  0  0
  186.3160  179.0410  142.7300 C   0  0  0  0  0  3  0  0  0  0  0  0
  185.4550  176.4690  146.1380 C   0  0  0  0  0  2  0  0  0  0  0  0
  190.5030  175.3940  144.3740 C   0  0  1  0  0  3  0  0  0  0  0  0
  188.7090  176.2910  145.7150 N   0  0  0  0  0  0  0  0  0  0  0  0
  190.5110  175.4560  142.8580 C   0  0  2  0  0  3  0  0  0  0  0  0
  192.0950  176.5270  145.7420 O   0  0  0  0  0  1  0  0  0  0  0  0
  188.1960  175.2500  143.4660 C   0  0  1  0  0  3  0  0  0  0  0  0
  1  6  1  0  0  0  0
  4 20  2  0  0  0  0
  4 22  1  0  0  0  0
  5 27  1  1  0  0  0
  5 17  1  0  0  0  0
  6 23  1  0  0  0  0
  7  8  1  0  0  0  0
  8  2  1  0  0  0  0
  9 18  1  6  0  0  0
 10  8  1  1  0  0  0
 10 26  1  0  0  0  0
 10 28  1  0  0  0  0
 12 25  1  1  0  0  0
 13  9  1  0  0  0  0
 13 26  1  0  0  0  0
 14  8  1  0  0  0  0
 14  9  1  0  0  0  0
 15 11  1  6  0  0  0
 16 28  1  0  0  0  0
 16  1  2  0  0  0  0
 17  3  2  0  0  0  0
 19 15  1  0  0  0  0
 20 16  1  0  0  0  0
 21  1  1  0  0  0  0
 22 21  2  0  0  0  0
 23 15  1  0  0  0  0
 24 12  1  0  0  0  0
 24  5  1  0  0  0  0
 25 17  1  0  0  0  0
 25 19  1  0  0  0  0
 26 24  1  0  0  0  0
 28 12  1  0  0  0  0
M  END
>  <MODEL>
8

>  <REMARK>
 VINA RESULT:      -6.8      2.354      5.832
  Name = 
  0 active torsions:
  status: ('A' for Active; 'I' for Inactive)
                            x       y       z     vdW  Elec       q    Type
                         _______ _______ _______ _____ _____    ______ ____

>  <TORSDO>
F 0

$$$$
=
 OpenBabel11112417403D

 28 32  0  0  1  0  0  0  0  0999 V2000
  195.0380  175.8980  143.9590 C   0  0  0  0  0  0  0  0  0  0  0  0
  190.0600  176.1250  145.4490 C   0  0  0  0  0  1  0  0  0  0  0  0
  194.0380  171.6280  142.6940 O   0  0  0  0  0  0  0  0  0  0  0  0
  195.0010  176.4290  141.2380 C   0  0  0  0  0  3  0  0  0  0  0  0
  191.9230  172.7290  142.3350 C   0  0  2  0  0  3  0  0  0  0  0  0
  195.0240  175.5770  145.3160 O   0  0  0  0  0  0  0  0  0  0  0  0
  190.5630  178.2810  144.3790 C   0  0  0  0  0  1  0  0  0  0  0  0
  190.2120  176.8320  144.1030 C   0  0  0  0  0  0  0  0  0  0  0  0
  188.5710  175.3930  142.9040 C   0  0  1  0  0  3  0  0  0  0  0  0
  191.3230  176.2250  143.2010 C   0  0  2  0  0  3  0  0  0  0  0  0
  196.1580  173.0030  144.0950 O   0  0  0  0  0  1  0  0  0  0  0  0
  192.2330  174.2250  144.2710 C   0  0  1  0  0  3  0  0  0  0  0  0
  189.5270  175.0270  141.8650 N   0  0  0  0  0  2  0  0  0  0  0  0
  188.8650  176.8030  143.3910 C   0  0  0  0  0  2  0  0  0  0  0  0
  195.5870  173.2040  145.3530 C   0  0  2  0  0  3  0  0  0  0  0  0
  193.8270  175.9860  143.2620 C   0  0  0  0  0  0  0  0  0  0  0  0
  193.2040  172.5070  143.0390 C   0  0  0  0  0  0  0  0  0  0  0  0
  187.1690  175.3410  142.3360 C   0  0  0  0  0  1  0  0  0  0  0  0
  194.0890  172.8670  145.3580 C   0  0  0  0  0  2  0  0  0  0  0  0
  193.8410  176.2370  141.9210 N   0  0  0  0  0  0  0  0  0  0  0  0
  196.2420  176.0860  143.2710 C   0  0  0  0  0  3  0  0  0  0  0  0
  196.2260  176.3590  141.9030 C   0  0  0  0  0  3  0  0  0  0  0  0
  195.8990  174.6080  145.8770 C   0  0  0  0  0  2  0  0  0  0  0  0
  191.2170  173.7640  143.2090 C   0  0  1  0  0  3  0  0  0  0  0  0
  193.3940  173.3490  144.1630 N   0  0  0  0  0  0  0  0  0  0  0  0
  190.8990  174.9980  142.3850 C   0  0  2  0  0  3  0  0  0  0  0  0
  191.1780  171.5490  142.3250 O   0  0  0  0  0  1  0  0  0  0  0  0
  192.5290  175.7210  143.9940 C   0  0  1  0  0  3  0  0  0  0  0  0
  1  6  1  0  0  0  0
  3 17  2  0  0  0  0
  4 22  1  0  0  0  0
  4 20  2  0  0  0  0
  5 27  1  1  0  0  0
  5 17  1  0  0  0  0
  5 24  1  0  0  0  0
  6 23  1  0  0  0  0
  8  7  1  0  0  0  0
  8  2  1  0  0  0  0
  9 18  1  6  0  0  0
  9 14  1  0  0  0  0
 10 28  1  0  0  0  0
 10  8  1  1  0  0  0
 12 25  1  6  0  0  0
 13 26  1  0  0  0  0
 13  9  1  0  0  0  0
 14  8  1  0  0  0  0
 15 11  1  6  0  0  0
 15 19  1  0  0  0  0
 15 23  1  0  0  0  0
 16  1  2  0  0  0  0
 16 28  1  0  0  0  0
 17 25  1  0  0  0  0
 20 16  1  0  0  0  0
 21  1  1  0  0  0  0
 22 21  2  0  0  0  0
 24 12  1  0  0  0  0
 25 19  1  0  0  0  0
 26 10  1  0  0  0  0
 26 24  1  0  0  0  0
 28 12  1  0  0  0  0
M  END
>  <MODEL>
9

>  <REMARK>
 VINA RESULT:      -6.7      2.789      5.080
  Name = 
  0 active torsions:
  status: ('A' for Active; 'I' for Inactive)
                            x       y       z     vdW  Elec       q    Type
                         _______ _______ _______ _____ _____    ______ ____

>  <TORSDO>
F 0

$$$$
