=
 OpenBabel11112417123D

 37 43  0  0  1  0  0  0  0  0999 V2000
  193.0480  174.8930  143.8380 C   0  0  0  0  0  2  0  0  0  0  0  0
  191.8000  170.6440  141.6310 C   0  0  1  0  0  0  0  0  0  0  0  0
  189.7380  174.3050  142.4690 N   0  0  1  0  0  0  0  0  0  0  0  0
  194.5020  175.3110  144.1490 C   0  0  2  0  0  3  0  0  0  0  0  0
  190.3690  176.1920  145.5860 O   0  0  0  0  0  0  0  0  0  0  0  0
  189.9740  172.3080  140.8900 C   0  0  1  0  0  3  0  0  0  0  0  0
  189.9440  174.5430  143.8160 C   0  0  2  0  0  3  0  0  0  0  0  0
  193.9580  176.3890  146.4510 C   0  0  0  0  0  0  0  0  0  0  0  0
  190.0810  172.9430  142.2580 C   0  0  1  0  0  3  0  0  0  0  0  0
  190.2820  176.0540  144.1920 C   0  0  1  0  0  3  0  0  0  0  0  0
  189.6000  173.3460  139.8850 C   0  0  0  0  0  2  0  0  0  0  0  0
  194.9610  175.6000  145.5800 C   0  0  0  0  0  2  0  0  0  0  0  0
  191.2850  172.6860  143.0590 C   0  0  2  0  0  3  0  0  0  0  0  0
  193.1050  170.3480  141.3240 O   0  0  0  0  0  1  0  0  0  0  0  0
  187.8180  175.8640  141.9800 C   0  0  0  0  0  2  0  0  0  0  0  0
  188.3670  174.1740  140.3950 C   0  0  0  0  0  2  0  0  0  0  0  0
  191.7550  171.2000  142.9810 C   0  0  0  0  0  2  0  0  0  0  0  0
  192.5210  176.0050  146.6000 C   0  0  1  0  0  3  0  0  0  0  0  0
  191.6040  176.8740  145.7690 C   0  0  0  0  0  2  0  0  0  0  0  0
  188.3380  174.4210  141.8850 C   0  0  1  0  0  3  0  0  0  0  0  0
  191.0170  173.4440  144.3390 C   0  0  1  0  0  3  0  0  0  0  0  0
  191.3050  171.6440  140.4750 C   0  0  0  0  0  2  0  0  0  0  0  0
  189.2500  177.0520  143.7180 C   0  0  1  0  0  3  0  0  0  0  0  0
  190.9130  169.3710  141.6560 C   0  0  0  0  0  1  0  0  0  0  0  0
  192.2290  174.4810  146.3520 C   0  0  0  0  0  2  0  0  0  0  0  0
  194.3050  177.4810  146.9900 O   0  0  0  0  0  0  0  0  0  0  0  0
  192.3450  173.9830  144.8910 C   0  0  2  0  0  3  0  0  0  0  0  0
  188.8700  176.9490  142.2790 C   0  0  0  0  0  2  0  0  0  0  0  0
  187.2090  178.3470  144.0920 C   0  0  0  0  0  3  0  0  0  0  0  0
  188.0520  177.3430  144.5620 C   0  0  0  0  0  0  0  0  0  0  0  0
  187.8570  176.6770  145.7370 C   0  0  0  0  0  3  0  0  0  0  0  0
  186.3090  176.4370  147.5840 O   0  0  0  0  0  1  0  0  0  0  0  0
  185.8230  177.9900  145.9820 C   0  0  0  0  0  3  0  0  0  0  0  0
  186.6760  176.9920  146.4160 C   0  0  0  0  0  0  0  0  0  0  0  0
  186.1150  178.7120  144.8390 C   0  0  0  0  0  3  0  0  0  0  0  0
  196.2900  176.3720  143.6000 C   0  0  0  0  0  1  0  0  0  0  0  0
  194.9600  176.1860  143.1750 O   0  0  0  0  0  0  0  0  0  0  0  0
  1  4  1  0  0  0  0
  1 27  1  0  0  0  0
  2 24  1  6  0  0  0
  2 17  1  0  0  0  0
  3  7  1  0  0  0  0
  4 12  1  0  0  0  0
  5 19  1  0  0  0  0
  6  9  1  0  0  0  0
  7 10  1  0  0  0  0
  7 21  1  0  0  0  0
  8 18  1  0  0  0  0
  8 26  2  0  0  0  0
  9  3  1  0  0  0  0
  9 13  1  0  0  0  0
 10  5  1  0  0  0  0
 11 16  1  0  0  0  0
 11  6  1  0  0  0  0
 12  8  1  0  0  0  0
 13 21  1  0  0  0  0
 14  2  1  0  0  0  0
 15 28  1  0  0  0  0
 16 20  1  0  0  0  0
 17 13  1  0  0  0  0
 19 18  1  0  0  0  0
 20 15  1  0  0  0  0
 20  3  1  0  0  0  0
 21 27  1  0  0  0  0
 22  6  1  0  0  0  0
 22  2  1  0  0  0  0
 23 10  1  0  0  0  0
 23 30  1  0  0  0  0
 25 18  1  0  0  0  0
 27 25  1  0  0  0  0
 28 23  1  0  0  0  0
 29 30  2  0  0  0  0
 29 35  1  0  0  0  0
 30 31  1  0  0  0  0
 31 34  2  0  0  0  0
 33 34  1  0  0  0  0
 34 32  1  0  0  0  0
 35 33  2  0  0  0  0
 37 36  1  0  0  0  0
 37  4  1  0  0  0  0
M  END
>  <MODEL>
1

>  <REMARK>
 VINA RESULT:      -9.4      0.000      0.000
  Name = 
  2 active torsions:
  status: ('A' for Active; 'I' for Inactive)
    1  A    between atoms: C_4  and  O_37
    2  A    between atoms: C_23  and  C_30
                            x       y       z     vdW  Elec       q    Type
                         _______ _______ _______ _____ _____    ______ ____

>  <TORSDO>
F 2

$$$$
=
 OpenBabel11112417123D

 37 43  0  0  1  0  0  0  0  0999 V2000
  193.0320  174.9150  143.8040 C   0  0  0  0  0  2  0  0  0  0  0  0
  191.7830  170.6940  141.5440 C   0  0  1  0  0  0  0  0  0  0  0  0
  189.6890  174.3010  142.5290 N   0  0  1  0  0  0  0  0  0  0  0  0
  194.4880  175.3510  144.0770 C   0  0  2  0  0  3  0  0  0  0  0  0
  190.3900  176.1290  145.6660 O   0  0  0  0  0  0  0  0  0  0  0  0
  189.9070  172.3420  140.8990 C   0  0  1  0  0  3  0  0  0  0  0  0
  189.9350  174.5120  143.8740 C   0  0  2  0  0  3  0  0  0  0  0  0
  194.0010  176.3690  146.4200 C   0  0  0  0  0  0  0  0  0  0  0  0
  190.0480  172.9500  142.2770 C   0  0  1  0  0  3  0  0  0  0  0  0
  190.2600  176.0200  144.2730 C   0  0  1  0  0  3  0  0  0  0  0  0
  189.4830  173.3960  139.9300 C   0  0  0  0  0  2  0  0  0  0  0  0
  194.9890  175.6170  145.5000 C   0  0  0  0  0  2  0  0  0  0  0  0
  191.2810  172.6950  143.0320 C   0  0  2  0  0  3  0  0  0  0  0  0
  193.0820  170.4270  141.1880 O   0  0  0  0  0  1  0  0  0  0  0  0
  187.7290  175.8360  142.1370 C   0  0  0  0  0  2  0  0  0  0  0  0
  188.2540  174.1910  140.4980 C   0  0  0  0  0  2  0  0  0  0  0  0
  191.7730  171.2200  142.9060 C   0  0  0  0  0  2  0  0  0  0  0  0
  192.5770  175.9570  146.6060 C   0  0  1  0  0  3  0  0  0  0  0  0
  191.6190  176.8280  145.8250 C   0  0  0  0  0  2  0  0  0  0  0  0
  188.2690  174.4050  141.9940 C   0  0  1  0  0  3  0  0  0  0  0  0
  191.0420  173.4210  144.3370 C   0  0  1  0  0  3  0  0  0  0  0  0
  191.2340  171.7110  140.4260 C   0  0  0  0  0  2  0  0  0  0  0  0
  189.1970  177.0110  143.8550 C   0  0  1  0  0  3  0  0  0  0  0  0
  190.9180  169.4060  141.5690 C   0  0  0  0  0  1  0  0  0  0  0  0
  192.3010  174.4340  146.3330 C   0  0  0  0  0  2  0  0  0  0  0  0
  194.3480  177.4540  146.9710 O   0  0  0  0  0  0  0  0  0  0  0  0
  192.3790  173.9700  144.8590 C   0  0  2  0  0  3  0  0  0  0  0  0
  188.7720  176.9320  142.4270 C   0  0  0  0  0  2  0  0  0  0  0  0
  187.8680  176.3790  145.8090 C   0  0  0  0  0  3  0  0  0  0  0  0
  188.0220  177.2630  144.7430 C   0  0  0  0  0  0  0  0  0  0  0  0
  187.1520  178.2770  144.4660 C   0  0  0  0  0  3  0  0  0  0  0  0
  185.1730  179.4000  145.2940 O   0  0  0  0  0  1  0  0  0  0  0  0
  185.9330  177.5880  146.4560 C   0  0  0  0  0  3  0  0  0  0  0  0
  186.1210  178.4530  145.3930 C   0  0  0  0  0  0  0  0  0  0  0  0
  186.7820  176.5100  146.6390 C   0  0  0  0  0  3  0  0  0  0  0  0
  196.2620  176.3880  143.4430 C   0  0  0  0  0  1  0  0  0  0  0  0
  194.9000  176.2550  143.1090 O   0  0  0  0  0  0  0  0  0  0  0  0
  1  4  1  0  0  0  0
  1 27  1  0  0  0  0
  2 24  1  6  0  0  0
  2 17  1  0  0  0  0
  3  7  1  0  0  0  0
  4 12  1  0  0  0  0
  5 19  1  0  0  0  0
  6  9  1  0  0  0  0
  7 10  1  0  0  0  0
  7 21  1  0  0  0  0
  8 18  1  0  0  0  0
  8 26  2  0  0  0  0
  9  3  1  0  0  0  0
  9 13  1  0  0  0  0
 10  5  1  0  0  0  0
 11 16  1  0  0  0  0
 11  6  1  0  0  0  0
 12  8  1  0  0  0  0
 13 21  1  0  0  0  0
 14  2  1  0  0  0  0
 15 28  1  0  0  0  0
 16 20  1  0  0  0  0
 17 13  1  0  0  0  0
 19 18  1  0  0  0  0
 20 15  1  0  0  0  0
 20  3  1  0  0  0  0
 21 27  1  0  0  0  0
 22  6  1  0  0  0  0
 22  2  1  0  0  0  0
 23 10  1  0  0  0  0
 23 30  1  0  0  0  0
 25 18  1  0  0  0  0
 27 25  1  0  0  0  0
 28 23  1  0  0  0  0
 29 35  1  0  0  0  0
 30 29  2  0  0  0  0
 31 30  1  0  0  0  0
 31 34  2  0  0  0  0
 32 34  1  0  0  0  0
 33 35  2  0  0  0  0
 34 33  1  0  0  0  0
 37 36  1  0  0  0  0
 37  4  1  0  0  0  0
M  END
>  <MODEL>
2

>  <REMARK>
 VINA RESULT:      -9.4      0.678      1.040
  Name = 
  2 active torsions:
  status: ('A' for Active; 'I' for Inactive)
    1  A    between atoms: C_4  and  O_37
    2  A    between atoms: C_23  and  C_30
                            x       y       z     vdW  Elec       q    Type
                         _______ _______ _______ _____ _____    ______ ____

>  <TORSDO>
F 2

$$$$
=
 OpenBabel11112417123D

 37 43  0  0  1  0  0  0  0  0999 V2000
  190.3420  173.7460  143.2810 C   0  0  0  0  0  2  0  0  0  0  0  0
  194.4680  175.8750  144.9920 C   0  0  1  0  0  0  0  0  0  0  0  0
  190.2790  176.5120  145.6320 N   0  0  1  0  0  0  0  0  0  0  0  0
  190.3110  172.3900  142.5440 C   0  0  2  0  0  3  0  0  0  0  0  0
  187.8340  176.0860  142.8900 O   0  0  0  0  0  0  0  0  0  0  0  0
  192.6290  176.6390  146.6320 C   0  0  1  0  0  3  0  0  0  0  0  0
  189.7250  176.6100  144.3670 C   0  0  2  0  0  3  0  0  0  0  0  0
  188.4850  173.0870  140.8300 C   0  0  0  0  0  0  0  0  0  0  0  0
  191.6790  176.6760  145.4550 C   0  0  1  0  0  3  0  0  0  0  0  0
  188.3480  175.8340  144.1710 C   0  0  1  0  0  3  0  0  0  0  0  0
  191.8750  176.2930  147.8720 C   0  0  0  0  0  2  0  0  0  0  0  0
  189.7620  172.2680  141.1200 C   0  0  0  0  0  2  0  0  0  0  0  0
  192.0380  175.9350  144.2400 C   0  0  2  0  0  3  0  0  0  0  0  0
  195.2220  174.7560  144.7450 O   0  0  0  0  0  1  0  0  0  0  0  0
  188.4320  177.4690  147.0560 C   0  0  0  0  0  2  0  0  0  0  0  0
  190.6000  177.2000  148.0020 C   0  0  0  0  0  2  0  0  0  0  0  0
  193.5490  176.0720  143.8740 C   0  0  0  0  0  2  0  0  0  0  0  0
  188.3530  174.5410  141.1470 C   0  0  1  0  0  3  0  0  0  0  0  0
  187.5360  174.7870  142.3960 C   0  0  0  0  0  2  0  0  0  0  0  0
  189.9240  177.5410  146.6950 C   0  0  1  0  0  3  0  0  0  0  0  0
  190.8890  176.2310  143.3030 C   0  0  1  0  0  3  0  0  0  0  0  0
  193.7560  175.6080  146.4090 C   0  0  0  0  0  2  0  0  0  0  0  0
  187.2720  176.2270  145.1590 C   0  0  1  0  0  3  0  0  0  0  0  0
  195.3440  177.1540  145.0640 C   0  0  0  0  0  1  0  0  0  0  0  0
  189.7180  175.3180  141.2080 C   0  0  0  0  0  2  0  0  0  0  0  0
  187.4410  172.5090  140.4060 O   0  0  0  0  0  0  0  0  0  0  0  0
  190.6390  175.0050  142.4110 C   0  0  2  0  0  3  0  0  0  0  0  0
  187.6790  176.2070  146.5940 C   0  0  0  0  0  2  0  0  0  0  0  0
  186.8550  178.2810  143.8970 C   0  0  0  0  0  3  0  0  0  0  0  0
  186.3950  177.4030  144.8750 C   0  0  0  0  0  0  0  0  0  0  0  0
  185.2450  177.5930  145.5850 C   0  0  0  0  0  3  0  0  0  0  0  0
  183.3120  179.0410  145.7740 O   0  0  0  0  0  1  0  0  0  0  0  0
  184.9090  179.5920  144.2390 C   0  0  0  0  0  3  0  0  0  0  0  0
  184.4760  178.6950  145.1980 C   0  0  0  0  0  0  0  0  0  0  0  0
  186.1330  179.4160  143.6180 C   0  0  0  0  0  3  0  0  0  0  0  0
  189.6910  172.1340  144.5870 C   0  0  0  0  0  1  0  0  0  0  0  0
  189.9480  171.3810  143.4240 O   0  0  0  0  0  0  0  0  0  0  0  0
  2 24  1  1  0  0  0
  2 22  1  0  0  0  0
  3 20  1  0  0  0  0
  4  1  1  0  0  0  0
  4 37  1  0  0  0  0
  5 10  1  0  0  0  0
  6 11  1  0  0  0  0
  7  3  1  0  0  0  0
  8 12  1  0  0  0  0
  8 18  1  0  0  0  0
  9  3  1  0  0  0  0
  9  6  1  0  0  0  0
 10  7  1  0  0  0  0
 10 23  1  0  0  0  0
 11 16  1  0  0  0  0
 12  4  1  0  0  0  0
 13  9  1  0  0  0  0
 14  2  1  0  0  0  0
 17 13  1  0  0  0  0
 17  2  1  0  0  0  0
 18 25  1  0  0  0  0
 18 19  1  0  0  0  0
 19  5  1  0  0  0  0
 20 15  1  0  0  0  0
 20 16  1  0  0  0  0
 21 13  1  0  0  0  0
 21  7  1  0  0  0  0
 22  6  1  0  0  0  0
 23 28  1  0  0  0  0
 25 27  1  0  0  0  0
 26  8  2  0  0  0  0
 27  1  1  0  0  0  0
 27 21  1  0  0  0  0
 28 15  1  0  0  0  0
 29 30  1  0  0  0  0
 30 23  1  0  0  0  0
 30 31  2  0  0  0  0
 33 34  2  0  0  0  0
 34 31  1  0  0  0  0
 34 32  1  0  0  0  0
 35 29  2  0  0  0  0
 35 33  1  0  0  0  0
 37 36  1  0  0  0  0
M  END
>  <MODEL>
3

>  <REMARK>
 VINA RESULT:      -9.2      2.075      5.718
  Name = 
  2 active torsions:
  status: ('A' for Active; 'I' for Inactive)
    1  A    between atoms: C_4  and  O_37
    2  A    between atoms: C_23  and  C_30
                            x       y       z     vdW  Elec       q    Type
                         _______ _______ _______ _____ _____    ______ ____

>  <TORSDO>
F 2

$$$$
=
 OpenBabel11112417123D

 37 43  0  0  1  0  0  0  0  0999 V2000
  192.7330  172.4570  141.9850 C   0  0  0  0  0  2  0  0  0  0  0  0
  196.7690  175.0080  143.2810 C   0  0  1  0  0  0  0  0  0  0  0  0
  192.5610  175.5550  143.8700 N   0  0  1  0  0  0  0  0  0  0  0  0
  192.7580  171.0010  141.4720 C   0  0  2  0  0  3  0  0  0  0  0  0
  190.1190  174.5940  141.2650 O   0  0  0  0  0  0  0  0  0  0  0  0
  194.9100  175.9410  144.8050 C   0  0  1  0  0  3  0  0  0  0  0  0
  191.9950  175.4270  142.6140 C   0  0  2  0  0  3  0  0  0  0  0  0
  190.8900  171.3380  139.6950 C   0  0  0  0  0  0  0  0  0  0  0  0
  193.9500  175.7500  143.6510 C   0  0  1  0  0  3  0  0  0  0  0  0
  190.6520  174.5700  142.5620 C   0  0  1  0  0  3  0  0  0  0  0  0
  194.1800  175.7630  146.0940 C   0  0  0  0  0  2  0  0  0  0  0  0
  192.2050  170.6310  140.0930 C   0  0  0  0  0  2  0  0  0  0  0  0
  194.3350  174.8420  142.5630 C   0  0  2  0  0  3  0  0  0  0  0  0
  197.5720  173.8970  143.2040 O   0  0  0  0  0  1  0  0  0  0  0  0
  190.6820  176.6440  145.1510 C   0  0  0  0  0  2  0  0  0  0  0  0
  192.8660  176.6230  146.0980 C   0  0  0  0  0  2  0  0  0  0  0  0
  195.8350  174.9840  142.1590 C   0  0  0  0  0  2  0  0  0  0  0  0
  190.6950  172.8170  139.7810 C   0  0  1  0  0  3  0  0  0  0  0  0
  189.8770  173.2210  140.9860 C   0  0  0  0  0  2  0  0  0  0  0  0
  192.1670  176.7220  144.7620 C   0  0  1  0  0  3  0  0  0  0  0  0
  193.1670  174.9350  141.6070 C   0  0  1  0  0  3  0  0  0  0  0  0
  196.0810  174.9380  144.7320 C   0  0  0  0  0  2  0  0  0  0  0  0
  189.5670  175.0680  143.4900 C   0  0  1  0  0  3  0  0  0  0  0  0
  197.5870  176.3180  143.1380 C   0  0  0  0  0  1  0  0  0  0  0  0
  192.0240  173.6510  139.6990 C   0  0  0  0  0  2  0  0  0  0  0  0
  189.8710  170.6550  139.3830 O   0  0  0  0  0  0  0  0  0  0  0  0
  192.9670  173.5740  140.9240 C   0  0  2  0  0  3  0  0  0  0  0  0
  189.9840  175.2930  144.9040 C   0  0  0  0  0  2  0  0  0  0  0  0
  189.2300  177.2340  142.4030 C   0  0  0  0  0  3  0  0  0  0  0  0
  188.6350  176.1450  143.0360 C   0  0  0  0  0  0  0  0  0  0  0  0
  187.2970  176.0500  143.2870 C   0  0  0  0  0  3  0  0  0  0  0  0
  185.1810  177.1670  142.9110 O   0  0  0  0  0  1  0  0  0  0  0  0
  187.0740  178.1880  142.1470 C   0  0  0  0  0  3  0  0  0  0  0  0
  186.5150  177.0880  142.7710 C   0  0  0  0  0  0  0  0  0  0  0  0
  188.4470  178.2900  142.0060 C   0  0  0  0  0  3  0  0  0  0  0  0
  191.9290  171.0310  143.4560 C   0  0  0  0  0  1  0  0  0  0  0  0
  192.4470  170.1300  142.5060 O   0  0  0  0  0  0  0  0  0  0  0  0
  2 24  1  6  0  0  0
  2 22  1  0  0  0  0
  3 20  1  0  0  0  0
  4  1  1  0  0  0  0
  4 37  1  0  0  0  0
  5 10  1  0  0  0  0
  6 11  1  0  0  0  0
  7  3  1  0  0  0  0
  8 18  1  0  0  0  0
  8 12  1  0  0  0  0
  9  3  1  0  0  0  0
  9  6  1  0  0  0  0
 10  7  1  0  0  0  0
 10 23  1  0  0  0  0
 11 16  1  0  0  0  0
 12  4  1  0  0  0  0
 13  9  1  0  0  0  0
 14  2  1  0  0  0  0
 17 13  1  0  0  0  0
 17  2  1  0  0  0  0
 18 19  1  0  0  0  0
 19  5  1  0  0  0  0
 20 15  1  0  0  0  0
 20 16  1  0  0  0  0
 21 13  1  0  0  0  0
 21  7  1  0  0  0  0
 22  6  1  0  0  0  0
 23 28  1  0  0  0  0
 25 18  1  0  0  0  0
 25 27  1  0  0  0  0
 26  8  2  0  0  0  0
 27 21  1  0  0  0  0
 27  1  1  0  0  0  0
 28 15  1  0  0  0  0
 29 30  1  0  0  0  0
 30 31  2  0  0  0  0
 30 23  1  0  0  0  0
 33 34  2  0  0  0  0
 34 32  1  0  0  0  0
 34 31  1  0  0  0  0
 35 33  1  0  0  0  0
 35 29  2  0  0  0  0
 37 36  1  0  0  0  0
M  END
>  <MODEL>
4

>  <REMARK>
 VINA RESULT:      -8.3      2.355      5.790
  Name = 
  2 active torsions:
  status: ('A' for Active; 'I' for Inactive)
    1  A    between atoms: C_4  and  O_37
    2  A    between atoms: C_23  and  C_30
                            x       y       z     vdW  Elec       q    Type
                         _______ _______ _______ _____ _____    ______ ____

>  <TORSDO>
F 2

$$$$
=
 OpenBabel11112417123D

 37 43  0  0  1  0  0  0  0  0999 V2000
  194.1580  174.5430  143.5440 C   0  0  0  0  0  2  0  0  0  0  0  0
  193.4430  169.6520  143.3180 C   0  0  1  0  0  0  0  0  0  0  0  0
  190.8570  173.0670  143.2130 N   0  0  1  0  0  0  0  0  0  0  0  0
  195.5320  175.2240  143.3670 C   0  0  2  0  0  3  0  0  0  0  0  0
  191.5710  176.0760  145.2400 O   0  0  0  0  0  0  0  0  0  0  0  0
  191.2370  170.6590  142.4390 C   0  0  1  0  0  3  0  0  0  0  0  0
  191.2130  173.8310  144.3100 C   0  0  2  0  0  3  0  0  0  0  0  0
  195.1410  177.0340  145.1920 C   0  0  0  0  0  0  0  0  0  0  0  0
  191.4240  171.7830  143.4350 C   0  0  1  0  0  3  0  0  0  0  0  0
  191.3030  175.3990  144.0410 C   0  0  1  0  0  3  0  0  0  0  0  0
  190.5210  171.1730  141.2350 C   0  0  0  0  0  2  0  0  0  0  0  0
  196.1360  176.1000  144.4680 C   0  0  0  0  0  2  0  0  0  0  0  0
  192.7610  172.0060  143.9980 C   0  0  2  0  0  3  0  0  0  0  0  0
  194.7180  169.4230  142.8660 O   0  0  0  0  0  1  0  0  0  0  0  0
  188.6190  174.0640  142.6220 C   0  0  0  0  0  2  0  0  0  0  0  0
  189.2410  171.9750  141.6660 C   0  0  0  0  0  2  0  0  0  0  0  0
  193.4940  170.6770  144.3570 C   0  0  0  0  0  2  0  0  0  0  0  0
  193.8460  176.5640  145.7710 C   0  0  1  0  0  3  0  0  0  0  0  0
  192.6630  176.9220  144.9010 C   0  0  0  0  0  2  0  0  0  0  0  0
  189.3900  172.7740  142.9400 C   0  0  1  0  0  3  0  0  0  0  0  0
  192.5460  173.1620  144.9490 C   0  0  1  0  0  3  0  0  0  0  0  0
  192.5930  170.0570  142.0150 C   0  0  0  0  0  2  0  0  0  0  0  0
  190.0380  176.0000  143.4730 C   0  0  1  0  0  3  0  0  0  0  0  0
  192.8350  168.3890  143.9840 C   0  0  0  0  0  1  0  0  0  0  0  0
  193.8220  175.0390  146.1510 C   0  0  0  0  0  2  0  0  0  0  0  0
  195.3470  178.2820  145.2190 O   0  0  0  0  0  0  0  0  0  0  0  0
  193.8120  174.0320  144.9760 C   0  0  2  0  0  3  0  0  0  0  0  0
  189.4720  175.3020  142.2830 C   0  0  0  0  0  2  0  0  0  0  0  0
  188.8260  175.7290  145.5810 C   0  0  0  0  0  3  0  0  0  0  0  0
  188.9470  176.4450  144.3930 C   0  0  0  0  0  0  0  0  0  0  0  0
  188.1130  177.4640  144.0320 C   0  0  0  0  0  3  0  0  0  0  0  0
  186.2620  178.8120  144.8210 O   0  0  0  0  0  1  0  0  0  0  0  0
  187.0110  177.1340  146.1760 C   0  0  0  0  0  3  0  0  0  0  0  0
  187.1640  177.8300  144.9910 C   0  0  0  0  0  0  0  0  0  0  0  0
  187.8120  176.0400  146.4540 C   0  0  0  0  0  3  0  0  0  0  0  0
  194.5200  175.1300  141.4720 C   0  0  0  0  0  1  0  0  0  0  0  0
  195.6590  175.7030  142.0710 O   0  0  0  0  0  0  0  0  0  0  0  0
  1 27  1  0  0  0  0
  2 24  1  1  0  0  0
  2 17  1  0  0  0  0
  3  9  1  0  0  0  0
  3  7  1  0  0  0  0
  4  1  1  0  0  0  0
  4 12  1  0  0  0  0
  6  9  1  0  0  0  0
  7 21  1  0  0  0  0
  8 26  2  0  0  0  0
  8 18  1  0  0  0  0
  9 13  1  0  0  0  0
 10  7  1  0  0  0  0
 10  5  1  0  0  0  0
 11 16  1  0  0  0  0
 11  6  1  0  0  0  0
 12  8  1  0  0  0  0
 13 17  1  0  0  0  0
 13 21  1  0  0  0  0
 14  2  1  0  0  0  0
 15 20  1  0  0  0  0
 16 20  1  0  0  0  0
 18 25  1  0  0  0  0
 19  5  1  0  0  0  0
 19 18  1  0  0  0  0
 20  3  1  0  0  0  0
 21 27  1  0  0  0  0
 22  6  1  0  0  0  0
 22  2  1  0  0  0  0
 23 10  1  0  0  0  0
 23 30  1  0  0  0  0
 27 25  1  0  0  0  0
 28 15  1  0  0  0  0
 28 23  1  0  0  0  0
 29 35  1  0  0  0  0
 30 29  2  0  0  0  0
 31 30  1  0  0  0  0
 31 34  2  0  0  0  0
 32 34  1  0  0  0  0
 33 35  2  0  0  0  0
 34 33  1  0  0  0  0
 36 37  1  0  0  0  0
 37  4  1  0  0  0  0
M  END
>  <MODEL>
5

>  <REMARK>
 VINA RESULT:      -8.2      1.570      2.158
  Name = 
  2 active torsions:
  status: ('A' for Active; 'I' for Inactive)
    1  A    between atoms: C_4  and  O_37
    2  A    between atoms: C_23  and  C_30
                            x       y       z     vdW  Elec       q    Type
                         _______ _______ _______ _____ _____    ______ ____

>  <TORSDO>
F 2

$$$$
=
 OpenBabel11112417123D

 37 43  0  0  1  0  0  0  0  0999 V2000
  191.2800  173.3870  141.8140 C   0  0  0  0  0  2  0  0  0  0  0  0
  189.3450  176.7640  144.8690 C   0  0  1  0  0  0  0  0  0  0  0  0
  192.9510  174.4490  144.8570 N   0  0  1  0  0  0  0  0  0  0  0  0
  190.7790  173.1350  140.3760 C   0  0  2  0  0  3  0  0  0  0  0  0
  192.9950  170.9750  143.5920 O   0  0  0  0  0  0  0  0  0  0  0  0
  191.8310  176.6430  145.5450 C   0  0  1  0  0  3  0  0  0  0  0  0
  192.5470  173.1410  144.6600 C   0  0  2  0  0  3  0  0  0  0  0  0
  191.0610  170.5510  140.4690 C   0  0  0  0  0  0  0  0  0  0  0  0
  191.7820  175.1630  145.2330 C   0  0  1  0  0  3  0  0  0  0  0  0
  193.4360  172.3060  143.6340 C   0  0  1  0  0  3  0  0  0  0  0  0
  193.2010  177.1660  145.2690 C   0  0  0  0  0  2  0  0  0  0  0  0
  190.2600  171.7610  139.9400 C   0  0  0  0  0  2  0  0  0  0  0  0
  190.6930  174.6610  144.3870 C   0  0  2  0  0  3  0  0  0  0  0  0
  188.5780  177.3160  143.8740 O   0  0  0  0  0  1  0  0  0  0  0  0
  195.3090  174.1180  145.6860 C   0  0  0  0  0  2  0  0  0  0  0  0
  194.2790  176.2490  145.9490 C   0  0  0  0  0  2  0  0  0  0  0  0
  189.3160  175.3110  144.7270 C   0  0  0  0  0  2  0  0  0  0  0  0
  191.4150  170.3670  141.9100 C   0  0  1  0  0  3  0  0  0  0  0  0
  192.8560  170.7210  142.1990 C   0  0  0  0  0  2  0  0  0  0  0  0
  193.9470  174.7750  145.9600 C   0  0  1  0  0  3  0  0  0  0  0  0
  190.9590  173.1730  144.3290 C   0  0  1  0  0  3  0  0  0  0  0  0
  190.8010  177.4260  144.7050 C   0  0  0  0  0  2  0  0  0  0  0  0
  194.9060  172.2680  143.9820 C   0  0  1  0  0  3  0  0  0  0  0  0
  188.7700  177.0740  146.2760 C   0  0  0  0  0  1  0  0  0  0  0  0
  190.4470  171.0940  142.9120 C   0  0  0  0  0  2  0  0  0  0  0  0
  191.5560  169.7140  139.6590 O   0  0  0  0  0  0  0  0  0  0  0  0
  190.5260  172.6390  142.9560 C   0  0  2  0  0  3  0  0  0  0  0  0
  195.5360  173.5930  144.2550 C   0  0  0  0  0  2  0  0  0  0  0  0
  196.7880  170.9720  144.8560 C   0  0  0  0  0  3  0  0  0  0  0  0
  195.4220  171.2330  144.9280 C   0  0  0  0  0  0  0  0  0  0  0  0
  194.5660  170.5740  145.7630 C   0  0  0  0  0  3  0  0  0  0  0  0
  194.4900  168.9280  147.5390 O   0  0  0  0  0  1  0  0  0  0  0  0
  196.5170  169.3760  146.5880 C   0  0  0  0  0  3  0  0  0  0  0  0
  195.1660  169.6660  146.6410 C   0  0  0  0  0  0  0  0  0  0  0  0
  197.3300  169.9940  145.6540 C   0  0  0  0  0  3  0  0  0  0  0  0
  192.7540  173.9730  140.2490 C   0  0  0  0  0  1  0  0  0  0  0  0
  191.5970  173.7910  139.4680 O   0  0  0  0  0  0  0  0  0  0  0  0
  1 27  1  0  0  0  0
  2 24  1  1  0  0  0
  3  9  1  0  0  0  0
  3 20  1  0  0  0  0
  4  1  1  0  0  0  0
  5 10  1  0  0  0  0
  7  3  1  0  0  0  0
  8 18  1  0  0  0  0
  9  6  1  0  0  0  0
 10 23  1  0  0  0  0
 10  7  1  0  0  0  0
 11  6  1  0  0  0  0
 11 16  1  0  0  0  0
 12  4  1  0  0  0  0
 12  8  1  0  0  0  0
 13 17  1  0  0  0  0
 13  9  1  0  0  0  0
 14  2  1  0  0  0  0
 15 20  1  0  0  0  0
 16 20  1  0  0  0  0
 17  2  1  0  0  0  0
 18 19  1  0  0  0  0
 18 25  1  0  0  0  0
 19  5  1  0  0  0  0
 21 13  1  0  0  0  0
 21  7  1  0  0  0  0
 22  2  1  0  0  0  0
 22  6  1  0  0  0  0
 23 28  1  0  0  0  0
 23 30  1  0  0  0  0
 25 27  1  0  0  0  0
 26  8  2  0  0  0  0
 27 21  1  0  0  0  0
 28 15  1  0  0  0  0
 29 30  2  0  0  0  0
 29 35  1  0  0  0  0
 30 31  1  0  0  0  0
 31 34  2  0  0  0  0
 33 34  1  0  0  0  0
 34 32  1  0  0  0  0
 35 33  2  0  0  0  0
 37 36  1  0  0  0  0
 37  4  1  0  0  0  0
M  END
>  <MODEL>
6

>  <REMARK>
 VINA RESULT:      -8.1      2.889      7.857
  Name = 
  2 active torsions:
  status: ('A' for Active; 'I' for Inactive)
    1  A    between atoms: C_4  and  O_37
    2  A    between atoms: C_23  and  C_30
                            x       y       z     vdW  Elec       q    Type
                         _______ _______ _______ _____ _____    ______ ____

>  <TORSDO>
F 2

$$$$
=
 OpenBabel11112417123D

 37 43  0  0  1  0  0  0  0  0999 V2000
  189.7970  173.7830  140.3590 C   0  0  0  0  0  2  0  0  0  0  0  0
  186.8130  176.6770  143.0440 C   0  0  1  0  0  0  0  0  0  0  0  0
  190.9590  175.6170  143.2690 N   0  0  1  0  0  0  0  0  0  0  0  0
  189.4440  173.2430  138.9570 C   0  0  2  0  0  3  0  0  0  0  0  0
  192.1210  172.2220  142.3790 O   0  0  0  0  0  0  0  0  0  0  0  0
  189.1910  177.4090  143.7230 C   0  0  1  0  0  3  0  0  0  0  0  0
  190.9880  174.2350  143.2120 C   0  0  2  0  0  3  0  0  0  0  0  0
  190.5140  170.9010  139.3230 C   0  0  0  0  0  0  0  0  0  0  0  0
  189.6150  175.9640  143.5700 C   0  0  1  0  0  3  0  0  0  0  0  0
  192.1240  173.6210  142.2790 C   0  0  1  0  0  3  0  0  0  0  0  0
  190.3380  178.3030  143.3910 C   0  0  0  0  0  2  0  0  0  0  0  0
  189.3920  171.7400  138.6700 C   0  0  0  0  0  2  0  0  0  0  0  0
  188.7630  175.0640  142.7840 C   0  0  2  0  0  3  0  0  0  0  0  0
  185.9430  176.8570  141.9980 O   0  0  0  0  0  1  0  0  0  0  0  0
  193.2750  176.1270  144.1230 C   0  0  0  0  0  2  0  0  0  0  0  0
  191.6260  177.8430  144.1620 C   0  0  0  0  0  2  0  0  0  0  0  0
  187.2420  175.2810  143.0560 C   0  0  0  0  0  2  0  0  0  0  0  0
  190.8620  170.9840  140.7740 C   0  0  1  0  0  3  0  0  0  0  0  0
  192.1120  171.7980  141.0210 C   0  0  0  0  0  2  0  0  0  0  0  0
  191.7690  176.3490  144.3290 C   0  0  1  0  0  3  0  0  0  0  0  0
  189.4800  173.7360  142.8840 C   0  0  1  0  0  3  0  0  0  0  0  0
  187.9940  177.7410  142.8070 C   0  0  0  0  0  2  0  0  0  0  0  0
  193.5220  174.0810  142.6260 C   0  0  1  0  0  3  0  0  0  0  0  0
  186.1260  176.9320  144.4120 C   0  0  0  0  0  1  0  0  0  0  0  0
  189.6850  171.4680  141.6960 C   0  0  0  0  0  2  0  0  0  0  0  0
  191.2690  170.1830  138.6050 O   0  0  0  0  0  0  0  0  0  0  0  0
  189.2780  172.9570  141.5750 C   0  0  2  0  0  3  0  0  0  0  0  0
  193.6990  175.5570  142.7560 C   0  0  0  0  0  2  0  0  0  0  0  0
  193.5630  172.8340  144.7300 C   0  0  0  0  0  3  0  0  0  0  0  0
  194.3050  173.3600  143.6750 C   0  0  0  0  0  0  0  0  0  0  0  0
  195.6650  173.2850  143.5920 C   0  0  0  0  0  3  0  0  0  0  0  0
  197.6150  172.3510  144.6830 O   0  0  0  0  0  1  0  0  0  0  0  0
  195.5820  172.0150  145.6660 C   0  0  0  0  0  3  0  0  0  0  0  0
  196.2870  172.5420  144.5990 C   0  0  0  0  0  0  0  0  0  0  0  0
  194.2140  172.2060  145.7630 C   0  0  0  0  0  3  0  0  0  0  0  0
  188.9840  174.1580  137.0660 C   0  0  0  0  0  1  0  0  0  0  0  0
  190.0450  174.0270  137.9830 O   0  0  0  0  0  0  0  0  0  0  0  0
  1 27  1  0  0  0  0
  2 17  1  0  0  0  0
  2 24  1  1  0  0  0
  3  9  1  0  0  0  0
  3 20  1  0  0  0  0
  4  1  1  0  0  0  0
  7  3  1  0  0  0  0
  8 18  1  0  0  0  0
  9  6  1  0  0  0  0
 10  5  1  0  0  0  0
 10 23  1  0  0  0  0
 10  7  1  0  0  0  0
 11  6  1  0  0  0  0
 11 16  1  0  0  0  0
 12  4  1  0  0  0  0
 12  8  1  0  0  0  0
 13 21  1  0  0  0  0
 13 17  1  0  0  0  0
 13  9  1  0  0  0  0
 14  2  1  0  0  0  0
 15 20  1  0  0  0  0
 16 20  1  0  0  0  0
 18 19  1  0  0  0  0
 18 25  1  0  0  0  0
 19  5  1  0  0  0  0
 21  7  1  0  0  0  0
 22  2  1  0  0  0  0
 22  6  1  0  0  0  0
 23 28  1  0  0  0  0
 23 30  1  0  0  0  0
 26  8  2  0  0  0  0
 27 25  1  0  0  0  0
 27 21  1  0  0  0  0
 28 15  1  0  0  0  0
 29 35  1  0  0  0  0
 30 29  2  0  0  0  0
 31 30  1  0  0  0  0
 31 34  2  0  0  0  0
 33 35  2  0  0  0  0
 34 32  1  0  0  0  0
 34 33  1  0  0  0  0
 36 37  1  0  0  0  0
 37  4  1  0  0  0  0
M  END
>  <MODEL>
7

>  <REMARK>
 VINA RESULT:      -7.8      2.469      7.478
  Name = 
  2 active torsions:
  status: ('A' for Active; 'I' for Inactive)
    1  A    between atoms: C_4  and  O_37
    2  A    between atoms: C_23  and  C_30
                            x       y       z     vdW  Elec       q    Type
                         _______ _______ _______ _____ _____    ______ ____

>  <TORSDO>
F 2

$$$$
=
 OpenBabel11112417123D

 37 43  0  0  1  0  0  0  0  0999 V2000
  193.7110  174.5090  141.8900 C   0  0  0  0  0  2  0  0  0  0  0  0
  192.2290  170.1370  140.1090 C   0  0  1  0  0  0  0  0  0  0  0  0
  190.2250  173.4950  141.8610 N   0  0  1  0  0  0  0  0  0  0  0  0
  195.1100  175.1130  141.6420 C   0  0  2  0  0  3  0  0  0  0  0  0
  191.7780  175.4420  144.5940 O   0  0  0  0  0  0  0  0  0  0  0  0
  190.0730  171.5480  140.2090 C   0  0  1  0  0  3  0  0  0  0  0  0
  190.9050  173.7550  143.0380 C   0  0  2  0  0  3  0  0  0  0  0  0
  195.3710  176.1070  144.0310 C   0  0  0  0  0  0  0  0  0  0  0  0
  190.6220  172.1900  141.4650 C   0  0  1  0  0  3  0  0  0  0  0  0
  191.1770  175.2970  143.3340 C   0  0  1  0  0  3  0  0  0  0  0  0
  189.2180  172.5300  139.4800 C   0  0  0  0  0  2  0  0  0  0  0  0
  196.0480  175.4580  142.8030 C   0  0  0  0  0  2  0  0  0  0  0  0
  192.0630  172.0910  141.7290 C   0  0  2  0  0  3  0  0  0  0  0  0
  193.3390  170.0150  139.3120 O   0  0  0  0  0  1  0  0  0  0  0  0
  188.0930  174.7890  142.2250 C   0  0  0  0  0  2  0  0  0  0  0  0
  188.1870  173.1890  140.4650 C   0  0  0  0  0  2  0  0  0  0  0  0
  192.6410  170.6800  141.4000 C   0  0  0  0  0  2  0  0  0  0  0  0
  194.1600  175.5380  144.6970 C   0  0  1  0  0  3  0  0  0  0  0  0
  192.8970  176.2800  144.3270 C   0  0  0  0  0  2  0  0  0  0  0  0
  188.7060  173.4270  141.8640 C   0  0  1  0  0  3  0  0  0  0  0  0
  192.2200  172.8060  143.0530 C   0  0  1  0  0  3  0  0  0  0  0  0
  191.2090  171.0660  139.2830 C   0  0  0  0  0  2  0  0  0  0  0  0
  189.9310  176.1520  143.3430 C   0  0  1  0  0  3  0  0  0  0  0  0
  191.5800  168.7590  140.4050 C   0  0  0  0  0  1  0  0  0  0  0  0
  193.9800  173.9890  144.5010 C   0  0  0  0  0  2  0  0  0  0  0  0
  195.7650  177.2330  144.4520 O   0  0  0  0  0  0  0  0  0  0  0  0
  193.5840  173.5130  143.0820 C   0  0  2  0  0  3  0  0  0  0  0  0
  189.0410  176.0020  142.1560 C   0  0  0  0  0  2  0  0  0  0  0  0
  189.3220  175.2860  145.5490 C   0  0  0  0  0  3  0  0  0  0  0  0
  189.1250  176.2820  144.5950 C   0  0  0  0  0  0  0  0  0  0  0  0
  188.2290  177.3020  144.7360 C   0  0  0  0  0  3  0  0  0  0  0  0
  186.6590  178.2880  146.2950 O   0  0  0  0  0  1  0  0  0  0  0  0
  187.7360  176.3770  146.9320 C   0  0  0  0  0  3  0  0  0  0  0  0
  187.5710  177.3550  145.9680 C   0  0  0  0  0  0  0  0  0  0  0  0
  188.5780  175.3040  146.7030 C   0  0  0  0  0  3  0  0  0  0  0  0
  194.7660  175.2000  139.5220 C   0  0  0  0  0  1  0  0  0  0  0  0
  195.0490  176.0420  140.6140 O   0  0  0  0  0  0  0  0  0  0  0  0
  1 27  1  0  0  0  0
  2 24  1  1  0  0  0
  2 17  1  0  0  0  0
  3 20  1  0  0  0  0
  3  7  1  0  0  0  0
  4  1  1  0  0  0  0
  4 12  1  0  0  0  0
  6  9  1  0  0  0  0
  7 21  1  0  0  0  0
  7 10  1  0  0  0  0
  8 26  2  0  0  0  0
  8 18  1  0  0  0  0
  9 13  1  0  0  0  0
  9  3  1  0  0  0  0
 10 23  1  0  0  0  0
 10  5  1  0  0  0  0
 11  6  1  0  0  0  0
 11 16  1  0  0  0  0
 12  8  1  0  0  0  0
 13 21  1  0  0  0  0
 14  2  1  0  0  0  0
 16 20  1  0  0  0  0
 17 13  1  0  0  0  0
 19  5  1  0  0  0  0
 19 18  1  0  0  0  0
 20 15  1  0  0  0  0
 21 27  1  0  0  0  0
 22  2  1  0  0  0  0
 22  6  1  0  0  0  0
 23 30  1  0  0  0  0
 25 18  1  0  0  0  0
 27 25  1  0  0  0  0
 28 15  1  0  0  0  0
 28 23  1  0  0  0  0
 29 35  1  0  0  0  0
 30 31  1  0  0  0  0
 30 29  2  0  0  0  0
 31 34  2  0  0  0  0
 34 32  1  0  0  0  0
 34 33  1  0  0  0  0
 35 33  2  0  0  0  0
 36 37  1  0  0  0  0
 37  4  1  0  0  0  0
M  END
>  <MODEL>
8

>  <REMARK>
 VINA RESULT:      -7.7      1.621      2.203
  Name = 
  2 active torsions:
  status: ('A' for Active; 'I' for Inactive)
    1  A    between atoms: C_4  and  O_37
    2  A    between atoms: C_23  and  C_30
                            x       y       z     vdW  Elec       q    Type
                         _______ _______ _______ _____ _____    ______ ____

>  <TORSDO>
F 2

$$$$
=
 OpenBabel11112417123D

 37 43  0  0  1  0  0  0  0  0999 V2000
  194.6430  174.8360  143.4040 C   0  0  0  0  0  2  0  0  0  0  0  0
  190.8450  176.3590  146.1850 C   0  0  1  0  0  0  0  0  0  0  0  0
  191.2310  173.7510  142.8070 N   0  0  1  0  0  0  0  0  0  0  0  0
  196.1260  175.0080  143.7970 C   0  0  2  0  0  3  0  0  0  0  0  0
  193.6670  174.4480  140.1150 O   0  0  0  0  0  0  0  0  0  0  0  0
  189.9380  174.2850  144.9480 C   0  0  1  0  0  3  0  0  0  0  0  0
  191.9470  174.4710  141.8680 C   0  0  2  0  0  3  0  0  0  0  0  0
  196.9530  175.5590  141.3940 C   0  0  0  0  0  0  0  0  0  0  0  0
  190.7760  174.7020  143.7590 C   0  0  1  0  0  3  0  0  0  0  0  0
  193.0800  173.6480  141.1070 C   0  0  1  0  0  3  0  0  0  0  0  0
  189.8180  172.7980  144.9780 C   0  0  0  0  0  2  0  0  0  0  0  0
  197.1010  175.7930  142.9140 C   0  0  0  0  0  2  0  0  0  0  0  0
  191.8840  175.6400  143.9770 C   0  0  2  0  0  3  0  0  0  0  0  0
  191.6590  176.6430  147.2530 O   0  0  0  0  0  1  0  0  0  0  0  0
  190.2770  171.8970  141.3890 C   0  0  0  0  0  2  0  0  0  0  0  0
  189.3870  172.2610  143.5670 C   0  0  0  0  0  2  0  0  0  0  0  0
  191.5140  176.7930  144.9620 C   0  0  0  0  0  2  0  0  0  0  0  0
  195.6480  175.6560  140.6720 C   0  0  1  0  0  3  0  0  0  0  0  0
  195.0610  174.2990  140.3580 C   0  0  0  0  0  2  0  0  0  0  0  0
  189.9640  173.0170  142.3940 C   0  0  1  0  0  3  0  0  0  0  0  0
  192.4490  175.8340  142.5880 C   0  0  1  0  0  3  0  0  0  0  0  0
  190.5600  174.7800  146.2720 C   0  0  0  0  0  2  0  0  0  0  0  0
  192.5790  172.3980  140.4210 C   0  0  1  0  0  3  0  0  0  0  0  0
  189.5120  177.1500  146.2540 C   0  0  0  0  0  1  0  0  0  0  0  0
  194.5860  176.5780  141.3740 C   0  0  0  0  0  2  0  0  0  0  0  0
  197.9410  175.1550  140.7150 O   0  0  0  0  0  0  0  0  0  0  0  0
  193.9670  176.0460  142.6890 C   0  0  2  0  0  3  0  0  0  0  0  0
  191.7570  171.4860  141.2680 C   0  0  0  0  0  2  0  0  0  0  0  0
  192.5260  171.5570  138.1240 C   0  0  0  0  0  3  0  0  0  0  0  0
  192.0210  172.4800  139.0370 C   0  0  0  0  0  0  0  0  0  0  0  0
  191.1090  173.4440  138.7170 C   0  0  0  0  0  3  0  0  0  0  0  0
  189.7100  174.2520  136.9120 O   0  0  0  0  0  1  0  0  0  0  0  0
  191.1030  172.4960  136.4760 C   0  0  0  0  0  3  0  0  0  0  0  0
  190.6160  173.3930  137.4100 C   0  0  0  0  0  0  0  0  0  0  0  0
  192.1040  171.6040  136.8180 C   0  0  0  0  0  3  0  0  0  0  0  0
  196.4900  174.1040  145.7140 C   0  0  0  0  0  1  0  0  0  0  0  0
  196.6120  173.8270  144.3380 O   0  0  0  0  0  0  0  0  0  0  0  0
  1  4  1  0  0  0  0
  2 24  1  1  0  0  0
  2 22  1  0  0  0  0
  2 14  1  0  0  0  0
  3  9  1  0  0  0  0
  4 37  1  0  0  0  0
  5 19  1  0  0  0  0
  5 10  1  0  0  0  0
  6 11  1  0  0  0  0
  6 22  1  0  0  0  0
  7 21  1  0  0  0  0
  7  3  1  0  0  0  0
  8 12  1  0  0  0  0
  9 13  1  0  0  0  0
  9  6  1  0  0  0  0
 10  7  1  0  0  0  0
 12  4  1  0  0  0  0
 13 17  1  0  0  0  0
 15 20  1  0  0  0  0
 16 11  1  0  0  0  0
 17  2  1  0  0  0  0
 18 25  1  0  0  0  0
 18  8  1  0  0  0  0
 19 18  1  0  0  0  0
 20  3  1  0  0  0  0
 20 16  1  0  0  0  0
 21 27  1  0  0  0  0
 21 13  1  0  0  0  0
 23 10  1  0  0  0  0
 23 28  1  0  0  0  0
 25 27  1  0  0  0  0
 26  8  2  0  0  0  0
 27  1  1  0  0  0  0
 28 15  1  0  0  0  0
 29 30  1  0  0  0  0
 30 23  1  0  0  0  0
 31 30  2  0  0  0  0
 32 34  1  0  0  0  0
 33 35  1  0  0  0  0
 33 34  2  0  0  0  0
 34 31  1  0  0  0  0
 35 29  2  0  0  0  0
 37 36  1  0  0  0  0
M  END
>  <MODEL>
9

>  <REMARK>
 VINA RESULT:      -7.6      2.491      6.633
  Name = 
  2 active torsions:
  status: ('A' for Active; 'I' for Inactive)
    1  A    between atoms: C_4  and  O_37
    2  A    between atoms: C_23  and  C_30
                            x       y       z     vdW  Elec       q    Type
                         _______ _______ _______ _____ _____    ______ ____

>  <TORSDO>
F 2

$$$$
