=
 OpenBabel11112417033D

 31 35  0  0  1  0  0  0  0  0999 V2000
  194.6710  176.6230  144.8420 C   0  0  1  0  0  3  0  0  0  0  0  0
  191.1080  176.4800  143.2280 C   0  0  2  0  0  3  0  0  0  0  0  0
  190.9560  175.0310  142.7560 C   0  0  0  0  0  0  0  0  0  0  0  0
  191.9710  172.9550  141.9770 C   0  0  0  0  0  0  0  0  0  0  0  0
  192.2260  176.7440  144.2570 C   0  0  2  0  0  3  0  0  0  0  0  0
  194.3100  175.8690  146.1150 C   0  0  0  0  0  2  0  0  0  0  0  0
  192.0900  174.2480  142.4910 C   0  0  0  0  0  3  0  0  0  0  0  0
  189.5240  176.4600  145.2070 C   0  0  2  0  0  3  0  0  0  0  0  0
  196.0260  176.1610  144.3490 C   0  0  0  0  0  1  0  0  0  0  0  0
  188.4120  175.2610  142.6850 C   0  0  0  0  0  2  0  0  0  0  0  0
  193.4040  171.9970  141.6810 Cl  0  0  0  0  0  0  0  0  0  0  0  0
  190.6350  176.7590  146.1130 N   0  0  0  0  0  2  0  0  0  0  0  0
  189.7950  177.0390  143.8030 C   0  0  2  0  0  3  0  0  0  0  0  0
  193.6250  176.3570  143.7670 C   0  0  0  0  0  2  0  0  0  0  0  0
  190.7100  172.4320  141.6940 C   0  0  0  0  0  3  0  0  0  0  0  0
  191.8590  176.1300  145.6200 C   0  0  2  0  0  3  0  0  0  0  0  0
  192.9700  176.3680  146.6410 C   0  0  0  0  0  2  0  0  0  0  0  0
  188.6470  176.7610  142.8330 C   0  0  0  0  0  2  0  0  0  0  0  0
  189.6810  174.5040  142.4270 C   0  0  0  0  0  0  0  0  0  0  0  0
  189.5700  173.2040  141.9210 C   0  0  0  0  0  3  0  0  0  0  0  0
  188.0110  175.3460  147.3510 O   0  0  0  0  0  0  0  0  0  0  0  0
  187.5900  176.4180  146.8340 C   0  0  0  0  0  0  0  0  0  0  0  0
  188.2950  177.0240  145.7510 N   0  0  0  0  0  2  0  0  0  0  0  0
  184.8410  178.9110  145.6280 N   0  0  0  0  0  0  0  0  0  0  0  0
  185.1160  176.6450  146.5150 C   0  0  0  0  0  2  0  0  0  0  0  0
  186.9500  179.1060  148.3720 O   0  0  0  0  0  0  0  0  0  0  0  0
  184.6270  179.6490  144.3970 C   0  0  0  0  0  1  0  0  0  0  0  0
  184.9710  177.5030  145.2560 C   0  0  0  0  0  2  0  0  0  0  0  0
  186.4800  178.5610  147.3870 C   0  0  0  0  0  0  0  0  0  0  0  0
  186.3390  177.0650  147.3410 C   0  0  2  0  0  3  0  0  0  0  0  0
  186.1140  179.3710  146.1780 C   0  0  0  0  0  2  0  0  0  0  0  0
  1  9  1  6  0  0  0
  1  6  1  0  0  0  0
  2  3  1  1  0  0  0
  2 13  1  0  0  0  0
  2  5  1  0  0  0  0
  4  7  2  0  0  0  0
  5 14  1  6  0  0  0
  5 16  1  0  0  0  0
  6 17  1  0  0  0  0
  7  3  1  0  0  0  0
  8 23  1  1  0  0  0
  8 12  1  0  0  0  0
 10 18  1  0  0  0  0
 11  4  1  0  0  0  0
 13 18  1  6  0  0  0
 13  8  1  0  0  0  0
 14  1  1  0  0  0  0
 15 20  2  0  0  0  0
 15  4  1  0  0  0  0
 16 12  1  0  0  0  0
 16 17  1  1  0  0  0
 19 10  1  0  0  0  0
 19  3  2  0  0  0  0
 20 19  1  0  0  0  0
 22 21  2  0  0  0  0
 23 22  1  0  0  0  0
 24 31  1  0  0  0  0
 25 30  1  0  0  0  0
 27 24  1  0  0  0  0
 28 24  1  0  0  0  0
 28 25  1  0  0  0  0
 29 26  2  0  0  0  0
 30 22  1  6  0  0  0
 30 29  1  0  0  0  0
 31 29  1  0  0  0  0
M  END
>  <MODEL>
1

>  <REMARK>
 VINA RESULT:      -8.4      0.000      0.000
  Name = 
  2 active torsions:
  status: ('A' for Active; 'I' for Inactive)
    1  A    between atoms: C_5  and  C_30
    2  A    between atoms: C_10  and  N_16
                            x       y       z     vdW  Elec       q    Type
                         _______ _______ _______ _____ _____    ______ ____

>  <TORSDO>
F 2

$$$$
=
 OpenBabel11112417033D

 31 35  0  0  1  0  0  0  0  0999 V2000
  184.9830  178.0000  147.1420 C   0  0  1  0  0  3  0  0  0  0  0  0
  187.5290  175.7730  145.1720 C   0  0  2  0  0  3  0  0  0  0  0  0
  187.5070  176.3310  143.7460 C   0  0  0  0  0  0  0  0  0  0  0  0
  186.3170  177.4810  141.9560 C   0  0  0  0  0  0  0  0  0  0  0  0
  186.9450  176.6880  146.2670 C   0  0  2  0  0  3  0  0  0  0  0  0
  185.8700  179.2340  147.2300 C   0  0  0  0  0  2  0  0  0  0  0  0
  186.3900  177.0410  143.2780 C   0  0  0  0  0  3  0  0  0  0  0  0
  189.8030  176.6010  145.9290 C   0  0  2  0  0  3  0  0  0  0  0  0
  183.5600  178.4210  146.8400 C   0  0  0  0  0  1  0  0  0  0  0  0
  189.7740  175.2690  143.2340 C   0  0  0  0  0  2  0  0  0  0  0  0
  184.9210  178.3840  141.4110 Cl  0  0  0  0  0  0  0  0  0  0  0  0
  189.1710  177.4080  146.9750 N   0  0  0  0  0  2  0  0  0  0  0  0
  188.9460  175.3590  145.6070 C   0  0  2  0  0  3  0  0  0  0  0  0
  185.4820  177.0790  146.0360 C   0  0  0  0  0  2  0  0  0  0  0  0
  187.3530  177.1950  141.0680 C   0  0  0  0  0  3  0  0  0  0  0  0
  187.8720  177.8920  146.5130 C   0  0  2  0  0  3  0  0  0  0  0  0
  187.2920  178.8160  147.5820 C   0  0  0  0  0  2  0  0  0  0  0  0
  189.5820  174.4840  144.5280 C   0  0  0  0  0  2  0  0  0  0  0  0
  188.5370  176.0120  142.8240 C   0  0  0  0  0  0  0  0  0  0  0  0
  188.4600  176.4640  141.5030 C   0  0  0  0  0  3  0  0  0  0  0  0
  192.2470  177.2620  144.6200 O   0  0  0  0  0  0  0  0  0  0  0  0
  192.3160  176.5660  145.6700 C   0  0  0  0  0  0  0  0  0  0  0  0
  191.1290  176.1930  146.3700 N   0  0  0  0  0  2  0  0  0  0  0  0
  195.8970  175.7400  144.3590 N   0  0  0  0  0  0  0  0  0  0  0  0
  194.7290  177.1720  145.9650 C   0  0  0  0  0  2  0  0  0  0  0  0
  193.6760  173.7460  146.1230 O   0  0  0  0  0  0  0  0  0  0  0  0
  196.5090  175.7430  143.0440 C   0  0  0  0  0  1  0  0  0  0  0  0
  195.3220  177.0690  144.5580 C   0  0  0  0  0  2  0  0  0  0  0  0
  194.0390  174.7880  145.6020 C   0  0  0  0  0  0  0  0  0  0  0  0
  193.6430  176.1120  146.1940 C   0  0  2  0  0  3  0  0  0  0  0  0
  194.8140  174.7600  144.3170 C   0  0  0  0  0  2  0  0  0  0  0  0
  1  9  1  6  0  0  0
  1  6  1  0  0  0  0
  2  3  1  6  0  0  0
  2 13  1  0  0  0  0
  2  5  1  0  0  0  0
  4  7  2  0  0  0  0
  5 14  1  6  0  0  0
  5 16  1  0  0  0  0
  6 17  1  0  0  0  0
  7  3  1  0  0  0  0
  8 23  1  1  0  0  0
  8 12  1  0  0  0  0
 10 18  1  0  0  0  0
 11  4  1  0  0  0  0
 13 18  1  6  0  0  0
 13  8  1  0  0  0  0
 14  1  1  0  0  0  0
 15 20  2  0  0  0  0
 15  4  1  0  0  0  0
 16 12  1  0  0  0  0
 16 17  1  1  0  0  0
 19 10  1  0  0  0  0
 19  3  2  0  0  0  0
 20 19  1  0  0  0  0
 21 22  2  0  0  0  0
 22 23  1  0  0  0  0
 24 28  1  0  0  0  0
 25 30  1  0  0  0  0
 27 24  1  0  0  0  0
 28 25  1  0  0  0  0
 29 26  2  0  0  0  0
 29 30  1  0  0  0  0
 30 22  1  6  0  0  0
 31 24  1  0  0  0  0
 31 29  1  0  0  0  0
M  END
>  <MODEL>
2

>  <REMARK>
 VINA RESULT:      -8.3      3.033      7.380
  Name = 
  2 active torsions:
  status: ('A' for Active; 'I' for Inactive)
    1  A    between atoms: C_5  and  C_30
    2  A    between atoms: C_10  and  N_16
                            x       y       z     vdW  Elec       q    Type
                         _______ _______ _______ _____ _____    ______ ____

>  <TORSDO>
F 2

$$$$
=
 OpenBabel11112417033D

 31 35  0  0  1  0  0  0  0  0999 V2000
  192.1500  172.7560  141.7940 C   0  0  1  0  0  3  0  0  0  0  0  0
  191.6570  174.0680  145.4480 C   0  0  2  0  0  3  0  0  0  0  0  0
  192.6910  175.1890  145.5990 C   0  0  0  0  0  0  0  0  0  0  0  0
  194.8280  176.1770  144.9670 C   0  0  0  0  0  0  0  0  0  0  0  0
  191.3300  173.6370  144.0040 C   0  0  2  0  0  3  0  0  0  0  0  0
  191.4940  173.9400  141.0990 C   0  0  0  0  0  2  0  0  0  0  0  0
  193.8340  175.2140  144.7850 C   0  0  0  0  0  3  0  0  0  0  0  0
  189.5330  175.4480  145.3380 C   0  0  2  0  0  3  0  0  0  0  0  0
  193.3860  172.3400  141.0250 C   0  0  0  0  0  1  0  0  0  0  0  0
  191.4060  176.1870  147.5700 C   0  0  0  0  0  2  0  0  0  0  0  0
  196.2300  176.1940  143.9210 Cl  0  0  0  0  0  0  0  0  0  0  0  0
  189.2700  174.9530  143.9850 N   0  0  0  0  0  2  0  0  0  0  0  0
  190.3320  174.4090  146.1520 C   0  0  2  0  0  3  0  0  0  0  0  0
  192.5450  173.1400  143.2140 C   0  0  0  0  0  2  0  0  0  0  0  0
  194.7060  177.1200  145.9870 C   0  0  0  0  0  3  0  0  0  0  0  0
  190.5330  174.7380  143.2810 C   0  0  2  0  0  3  0  0  0  0  0  0
  190.2220  174.3280  141.8430 C   0  0  0  0  0  2  0  0  0  0  0  0
  190.6120  174.8850  147.5770 C   0  0  0  0  0  2  0  0  0  0  0  0
  192.5960  176.1280  146.6570 C   0  0  0  0  0  0  0  0  0  0  0  0
  193.5920  177.0950  146.8270 C   0  0  0  0  0  3  0  0  0  0  0  0
  188.7630  177.9850  146.3850 O   0  0  0  0  0  0  0  0  0  0  0  0
  187.9410  177.0330  146.4950 C   0  0  0  0  0  0  0  0  0  0  0  0
  188.2680  175.7350  145.9990 N   0  0  0  0  0  2  0  0  0  0  0  0
  184.4660  178.6280  145.7180 N   0  0  0  0  0  0  0  0  0  0  0  0
  185.4920  176.5150  146.4100 C   0  0  0  0  0  2  0  0  0  0  0  0
  186.6970  179.3320  148.2750 O   0  0  0  0  0  0  0  0  0  0  0  0
  183.9140  179.3190  144.5680 C   0  0  0  0  0  1  0  0  0  0  0  0
  184.9680  177.3420  145.2340 C   0  0  0  0  0  2  0  0  0  0  0  0
  186.3100  178.7140  147.2980 C   0  0  0  0  0  0  0  0  0  0  0  0
  186.6150  177.2490  147.1550 C   0  0  2  0  0  3  0  0  0  0  0  0
  185.5950  179.4280  146.1870 C   0  0  0  0  0  2  0  0  0  0  0  0
  1  9  1  6  0  0  0
  1 14  1  0  0  0  0
  2  3  1  6  0  0  0
  2 13  1  0  0  0  0
  3 19  1  0  0  0  0
  4 15  2  0  0  0  0
  5 14  1  6  0  0  0
  5  2  1  0  0  0  0
  6  1  1  0  0  0  0
  6 17  1  0  0  0  0
  7  4  1  0  0  0  0
  7  3  2  0  0  0  0
  8 23  1  1  0  0  0
  8 13  1  0  0  0  0
 10 18  1  0  0  0  0
 11  4  1  0  0  0  0
 12  8  1  0  0  0  0
 13 18  1  1  0  0  0
 15 20  1  0  0  0  0
 16 17  1  6  0  0  0
 16 12  1  0  0  0  0
 16  5  1  0  0  0  0
 19 20  2  0  0  0  0
 19 10  1  0  0  0  0
 21 22  2  0  0  0  0
 23 22  1  0  0  0  0
 24 31  1  0  0  0  0
 25 30  1  0  0  0  0
 27 24  1  0  0  0  0
 28 24  1  0  0  0  0
 28 25  1  0  0  0  0
 29 26  2  0  0  0  0
 30 22  1  6  0  0  0
 30 29  1  0  0  0  0
 31 29  1  0  0  0  0
M  END
>  <MODEL>
3

>  <REMARK>
 VINA RESULT:      -8.2      1.716      4.000
  Name = 
  2 active torsions:
  status: ('A' for Active; 'I' for Inactive)
    1  A    between atoms: C_5  and  C_30
    2  A    between atoms: C_10  and  N_16
                            x       y       z     vdW  Elec       q    Type
                         _______ _______ _______ _____ _____    ______ ____

>  <TORSDO>
F 2

$$$$
=
 OpenBabel11112417033D

 31 35  0  0  1  0  0  0  0  0999 V2000
  185.1910  177.6350  147.1880 C   0  0  1  0  0  3  0  0  0  0  0  0
  187.5230  175.8180  144.6230 C   0  0  2  0  0  3  0  0  0  0  0  0
  187.1800  176.4530  143.2720 C   0  0  0  0  0  0  0  0  0  0  0  0
  185.5690  177.5690  141.8220 C   0  0  0  0  0  0  0  0  0  0  0  0
  187.0700  176.5980  145.8730 C   0  0  2  0  0  3  0  0  0  0  0  0
  185.9550  178.9510  147.2090 C   0  0  0  0  0  2  0  0  0  0  0  0
  185.9320  177.0630  143.0700 C   0  0  0  0  0  3  0  0  0  0  0  0
  189.8080  176.8430  145.0170 C   0  0  2  0  0  3  0  0  0  0  0  0
  183.7030  177.9160  147.1820 C   0  0  0  0  0  1  0  0  0  0  0  0
  189.4010  175.6750  142.2770 C   0  0  0  0  0  2  0  0  0  0  0  0
  184.0150  178.3440  141.6100 Cl  0  0  0  0  0  0  0  0  0  0  0  0
  189.3100  177.5130  146.2200 N   0  0  0  0  0  2  0  0  0  0  0  0
  189.0290  175.5360  144.7600 C   0  0  2  0  0  3  0  0  0  0  0  0
  185.5590  176.8400  145.9420 C   0  0  0  0  0  2  0  0  0  0  0  0
  186.4430  177.4500  140.7410 C   0  0  0  0  0  3  0  0  0  0  0  0
  187.9070  177.8800  146.0400 C   0  0  2  0  0  3  0  0  0  0  0  0
  187.4520  178.6710  147.2650 C   0  0  0  0  0  2  0  0  0  0  0  0
  189.5320  174.7990  143.5190 C   0  0  0  0  0  2  0  0  0  0  0  0
  188.0440  176.3020  142.1570 C   0  0  0  0  0  0  0  0  0  0  0  0
  187.6760  176.8200  140.9110 C   0  0  0  0  0  3  0  0  0  0  0  0
  191.8950  177.9060  143.3930 O   0  0  0  0  0  0  0  0  0  0  0  0
  192.2230  177.1300  144.3320 C   0  0  0  0  0  0  0  0  0  0  0  0
  191.2270  176.5560  145.1780 N   0  0  0  0  0  2  0  0  0  0  0  0
  194.4430  174.0280  145.1570 N   0  0  0  0  0  0  0  0  0  0  0  0
  194.1920  175.8190  143.5060 C   0  0  0  0  0  2  0  0  0  0  0  0
  194.0830  177.0100  146.8880 O   0  0  0  0  0  0  0  0  0  0  0  0
  194.1590  172.6250  145.3880 C   0  0  0  0  0  1  0  0  0  0  0  0
  193.8590  174.3670  143.8610 C   0  0  0  0  0  2  0  0  0  0  0  0
  193.8730  176.2510  145.9570 C   0  0  0  0  0  0  0  0  0  0  0  0
  193.6620  176.7910  144.5690 C   0  0  2  0  0  3  0  0  0  0  0  0
  193.7420  174.7760  146.1990 C   0  0  0  0  0  2  0  0  0  0  0  0
  1  9  1  6  0  0  0
  1  6  1  0  0  0  0
  2  3  1  6  0  0  0
  2 13  1  0  0  0  0
  2  5  1  0  0  0  0
  4  7  2  0  0  0  0
  5 14  1  6  0  0  0
  5 16  1  0  0  0  0
  6 17  1  0  0  0  0
  7  3  1  0  0  0  0
  8 23  1  1  0  0  0
  8 12  1  0  0  0  0
 10 18  1  0  0  0  0
 11  4  1  0  0  0  0
 13 18  1  6  0  0  0
 13  8  1  0  0  0  0
 14  1  1  0  0  0  0
 15 20  2  0  0  0  0
 15  4  1  0  0  0  0
 16 12  1  0  0  0  0
 16 17  1  1  0  0  0
 19 10  1  0  0  0  0
 19  3  2  0  0  0  0
 20 19  1  0  0  0  0
 21 22  2  0  0  0  0
 22 23  1  0  0  0  0
 24 27  1  0  0  0  0
 24 31  1  0  0  0  0
 25 28  1  0  0  0  0
 25 30  1  0  0  0  0
 28 24  1  0  0  0  0
 29 31  1  0  0  0  0
 29 26  2  0  0  0  0
 30 22  1  6  0  0  0
 30 29  1  0  0  0  0
M  END
>  <MODEL>
4

>  <REMARK>
 VINA RESULT:      -8.0      3.158      7.226
  Name = 
  2 active torsions:
  status: ('A' for Active; 'I' for Inactive)
    1  A    between atoms: C_5  and  C_30
    2  A    between atoms: C_10  and  N_16
                            x       y       z     vdW  Elec       q    Type
                         _______ _______ _______ _____ _____    ______ ____

>  <TORSDO>
F 2

$$$$
=
 OpenBabel11112417033D

 31 35  0  0  1  0  0  0  0  0999 V2000
  186.8720  177.7030  140.7120 C   0  0  1  0  0  3  0  0  0  0  0  0
  189.3680  177.8410  143.7240 C   0  0  2  0  0  3  0  0  0  0  0  0
  188.5240  177.4550  144.9430 C   0  0  0  0  0  0  0  0  0  0  0  0
  186.3570  177.3650  146.0560 C   0  0  0  0  0  0  0  0  0  0  0  0
  188.7730  177.4830  142.3470 C   0  0  2  0  0  3  0  0  0  0  0  0
  186.7950  176.1850  140.6250 C   0  0  0  0  0  2  0  0  0  0  0  0
  187.1310  177.6290  144.9260 C   0  0  0  0  0  3  0  0  0  0  0  0
  190.7630  175.7380  143.4790 C   0  0  2  0  0  3  0  0  0  0  0  0
  185.4910  178.2910  140.5130 C   0  0  0  0  0  1  0  0  0  0  0  0
  190.6180  176.8420  146.2710 C   0  0  0  0  0  2  0  0  0  0  0  0
  184.6210  177.5700  145.9950 Cl  0  0  0  0  0  0  0  0  0  0  0  0
  190.1830  175.4960  142.1560 N   0  0  0  0  0  2  0  0  0  0  0  0
  190.7860  177.2480  143.7950 C   0  0  2  0  0  3  0  0  0  0  0  0
  187.4050  178.1190  142.0770 C   0  0  0  0  0  2  0  0  0  0  0  0
  186.9690  176.9450  147.2370 C   0  0  0  0  0  3  0  0  0  0  0  0
  188.7970  175.9600  142.1290 C   0  0  2  0  0  3  0  0  0  0  0  0
  188.1910  175.5940  140.7760 C   0  0  0  0  0  2  0  0  0  0  0  0
  191.4000  177.5410  145.1640 C   0  0  0  0  0  2  0  0  0  0  0  0
  189.1390  177.0660  146.1600 C   0  0  0  0  0  0  0  0  0  0  0  0
  188.3550  176.7940  147.2860 C   0  0  0  0  0  3  0  0  0  0  0  0
  191.6610  173.6730  145.2260 O   0  0  0  0  0  0  0  0  0  0  0  0
  192.4970  174.1560  144.4150 C   0  0  0  0  0  0  0  0  0  0  0  0
  192.1150  175.1990  143.5180 N   0  0  0  0  0  2  0  0  0  0  0  0
  196.1150  175.4880  143.8070 N   0  0  0  0  0  0  0  0  0  0  0  0
  194.7620  174.3120  145.4750 C   0  0  0  0  0  2  0  0  0  0  0  0
  194.3830  172.9700  142.1700 O   0  0  0  0  0  0  0  0  0  0  0  0
  196.6610  176.7910  143.4770 C   0  0  0  0  0  1  0  0  0  0  0  0
  195.3070  175.6650  145.0130 C   0  0  0  0  0  2  0  0  0  0  0  0
  194.5210  173.8290  143.0250 C   0  0  0  0  0  0  0  0  0  0  0  0
  193.9060  173.6510  144.3860 C   0  0  2  0  0  3  0  0  0  0  0  0
  195.2350  175.1090  142.7030 C   0  0  0  0  0  2  0  0  0  0  0  0
  1  9  1  1  0  0  0
  1 14  1  0  0  0  0
  2 13  1  0  0  0  0
  2  3  1  1  0  0  0
  3 19  1  0  0  0  0
  4 15  2  0  0  0  0
  5 14  1  1  0  0  0
  5  2  1  0  0  0  0
  6  1  1  0  0  0  0
  6 17  1  0  0  0  0
  7  3  2  0  0  0  0
  7  4  1  0  0  0  0
  8 23  1  6  0  0  0
  8 13  1  0  0  0  0
 11  4  1  0  0  0  0
 12  8  1  0  0  0  0
 13 18  1  1  0  0  0
 15 20  1  0  0  0  0
 16 17  1  6  0  0  0
 16 12  1  0  0  0  0
 16  5  1  0  0  0  0
 18 10  1  0  0  0  0
 19 10  1  0  0  0  0
 19 20  2  0  0  0  0
 22 21  2  0  0  0  0
 23 22  1  0  0  0  0
 24 28  1  0  0  0  0
 26 29  2  0  0  0  0
 27 24  1  0  0  0  0
 28 25  1  0  0  0  0
 29 30  1  0  0  0  0
 30 22  1  6  0  0  0
 30 25  1  0  0  0  0
 31 29  1  0  0  0  0
 31 24  1  0  0  0  0
M  END
>  <MODEL>
5

>  <REMARK>
 VINA RESULT:      -7.9      3.489      7.816
  Name = 
  2 active torsions:
  status: ('A' for Active; 'I' for Inactive)
    1  A    between atoms: C_5  and  C_30
    2  A    between atoms: C_10  and  N_16
                            x       y       z     vdW  Elec       q    Type
                         _______ _______ _______ _____ _____    ______ ____

>  <TORSDO>
F 2

$$$$
=
 OpenBabel11112417033D

 31 35  0  0  1  0  0  0  0  0999 V2000
  185.9680  178.9600  143.0240 C   0  0  1  0  0  3  0  0  0  0  0  0
  189.3110  177.0840  143.8140 C   0  0  2  0  0  3  0  0  0  0  0  0
  189.0110  176.2770  145.0810 C   0  0  0  0  0  0  0  0  0  0  0  0
  187.7500  176.0030  147.1500 C   0  0  0  0  0  0  0  0  0  0  0  0
  188.0850  177.6000  143.0330 C   0  0  2  0  0  3  0  0  0  0  0  0
  185.2120  177.7460  142.5030 C   0  0  0  0  0  2  0  0  0  0  0  0
  187.9810  176.6740  145.9490 C   0  0  0  0  0  3  0  0  0  0  0  0
  189.3930  175.2060  142.1130 C   0  0  2  0  0  3  0  0  0  0  0  0
  185.0470  179.7960  143.8880 C   0  0  0  0  0  1  0  0  0  0  0  0
  190.9770  174.7120  144.6200 C   0  0  0  0  0  2  0  0  0  0  0  0
  186.4430  176.5090  148.1970 Cl  0  0  0  0  0  0  0  0  0  0  0  0
  188.2530  175.7880  141.4010 N   0  0  0  0  0  2  0  0  0  0  0  0
  190.2030  176.3030  142.8330 C   0  0  2  0  0  3  0  0  0  0  0  0
  187.1650  178.5100  143.8520 C   0  0  0  0  0  2  0  0  0  0  0  0
  188.5660  174.9340  147.5180 C   0  0  0  0  0  3  0  0  0  0  0  0
  187.3490  176.4310  142.3530 C   0  0  2  0  0  3  0  0  0  0  0  0
  186.1220  176.9300  141.5930 C   0  0  0  0  0  2  0  0  0  0  0  0
  191.4120  175.7350  143.5750 C   0  0  0  0  0  2  0  0  0  0  0  0
  189.8590  175.2140  145.4850 C   0  0  0  0  0  0  0  0  0  0  0  0
  189.6150  174.5410  146.6860 C   0  0  0  0  0  3  0  0  0  0  0  0
  189.6930  172.3750  141.9670 O   0  0  0  0  0  0  0  0  0  0  0  0
  190.3410  173.0750  141.1410 C   0  0  0  0  0  0  0  0  0  0  0  0
  190.2420  174.4990  141.1650 N   0  0  0  0  0  2  0  0  0  0  0  0
  190.3030  172.0680  137.3710 N   0  0  0  0  0  0  0  0  0  0  0  0
  191.5830  173.3880  138.9880 C   0  0  0  0  0  2  0  0  0  0  0  0
  190.7980  170.0970  140.1790 O   0  0  0  0  0  0  0  0  0  0  0  0
  189.3170  172.1820  136.3130 C   0  0  0  0  0  1  0  0  0  0  0  0
  190.4900  173.4120  137.9170 C   0  0  0  0  0  2  0  0  0  0  0  0
  190.6180  171.1550  139.6010 C   0  0  0  0  0  0  0  0  0  0  0  0
  191.2300  172.4230  140.1280 C   0  0  2  0  0  3  0  0  0  0  0  0
  189.7140  171.2180  138.4030 C   0  0  0  0  0  2  0  0  0  0  0  0
  1 14  1  0  0  0  0
  1  9  1  1  0  0  0
  2  3  1  1  0  0  0
  3 19  2  0  0  0  0
  3  7  1  0  0  0  0
  4 15  1  0  0  0  0
  4 11  1  0  0  0  0
  5  2  1  0  0  0  0
  5 14  1  1  0  0  0
  6  1  1  0  0  0  0
  7  4  2  0  0  0  0
  8 23  1  6  0  0  0
  8 13  1  0  0  0  0
 10 19  1  0  0  0  0
 12  8  1  0  0  0  0
 12 16  1  0  0  0  0
 13 18  1  1  0  0  0
 13  2  1  0  0  0  0
 16 17  1  6  0  0  0
 16  5  1  0  0  0  0
 17  6  1  0  0  0  0
 18 10  1  0  0  0  0
 19 20  1  0  0  0  0
 20 15  2  0  0  0  0
 22 23  1  0  0  0  0
 22 21  2  0  0  0  0
 24 28  1  0  0  0  0
 24 31  1  0  0  0  0
 25 30  1  0  0  0  0
 27 24  1  0  0  0  0
 28 25  1  0  0  0  0
 29 30  1  0  0  0  0
 29 26  2  0  0  0  0
 30 22  1  1  0  0  0
 31 29  1  0  0  0  0
M  END
>  <MODEL>
6

>  <REMARK>
 VINA RESULT:      -7.8      4.073      8.026
  Name = 
  2 active torsions:
  status: ('A' for Active; 'I' for Inactive)
    1  A    between atoms: C_5  and  C_30
    2  A    between atoms: C_10  and  N_16
                            x       y       z     vdW  Elec       q    Type
                         _______ _______ _______ _____ _____    ______ ____

>  <TORSDO>
F 2

$$$$
=
 OpenBabel11112417033D

 31 35  0  0  1  0  0  0  0  0999 V2000
  186.0280  179.0520  143.0110 C   0  0  1  0  0  3  0  0  0  0  0  0
  189.2730  176.9200  143.5060 C   0  0  2  0  0  3  0  0  0  0  0  0
  189.0270  176.1390  144.8000 C   0  0  0  0  0  0  0  0  0  0  0  0
  187.9430  175.9610  146.9760 C   0  0  0  0  0  0  0  0  0  0  0  0
  188.0250  177.5310  142.8360 C   0  0  2  0  0  3  0  0  0  0  0  0
  185.1350  177.9020  142.5680 C   0  0  0  0  0  2  0  0  0  0  0  0
  188.1150  176.6140  145.7550 C   0  0  0  0  0  3  0  0  0  0  0  0
  189.0530  175.0430  141.8160 C   0  0  2  0  0  3  0  0  0  0  0  0
  185.2570  179.9560  143.9500 C   0  0  0  0  0  1  0  0  0  0  0  0
  190.8160  174.4250  144.1710 C   0  0  0  0  0  2  0  0  0  0  0  0
  186.7800  176.5670  148.1350 Cl  0  0  0  0  0  0  0  0  0  0  0  0
  187.9020  175.7130  141.2070 N   0  0  0  0  0  2  0  0  0  0  0  0
  190.0090  176.0740  142.4530 C   0  0  2  0  0  3  0  0  0  0  0  0
  187.2560  178.5100  143.7300 C   0  0  0  0  0  2  0  0  0  0  0  0
  188.7040  174.8320  147.2760 C   0  0  0  0  0  3  0  0  0  0  0  0
  187.1420  176.4240  142.2330 C   0  0  2  0  0  3  0  0  0  0  0  0
  185.8930  177.0180  141.5850 C   0  0  0  0  0  2  0  0  0  0  0  0
  191.2320  175.4120  143.0860 C   0  0  0  0  0  2  0  0  0  0  0  0
  189.8240  175.0130  145.1310 C   0  0  0  0  0  0  0  0  0  0  0  0
  189.6390  174.3590  146.3540 C   0  0  0  0  0  3  0  0  0  0  0  0
  189.2740  172.2020  141.7650 O   0  0  0  0  0  0  0  0  0  0  0  0
  189.8210  172.8470  140.8290 C   0  0  0  0  0  0  0  0  0  0  0  0
  189.7560  174.2730  140.7990 N   0  0  0  0  0  2  0  0  0  0  0  0
  192.2590  173.6240  137.8830 N   0  0  0  0  0  0  0  0  0  0  0  0
  192.0750  172.2600  139.9080 C   0  0  0  0  0  2  0  0  0  0  0  0
  189.1540  172.0830  137.8330 O   0  0  0  0  0  0  0  0  0  0  0  0
  192.8480  174.8440  137.3640 C   0  0  0  0  0  1  0  0  0  0  0  0
  192.5930  173.5680  139.3050 C   0  0  0  0  0  2  0  0  0  0  0  0
  190.1130  172.6000  138.3820 C   0  0  0  0  0  0  0  0  0  0  0  0
  190.5560  172.1290  139.7400 C   0  0  2  0  0  3  0  0  0  0  0  0
  190.8110  173.7660  137.7450 C   0  0  0  0  0  2  0  0  0  0  0  0
  1 14  1  0  0  0  0
  1  9  1  1  0  0  0
  2  3  1  1  0  0  0
  3 19  2  0  0  0  0
  3  7  1  0  0  0  0
  4 15  1  0  0  0  0
  4 11  1  0  0  0  0
  5  2  1  0  0  0  0
  5 14  1  1  0  0  0
  6  1  1  0  0  0  0
  7  4  2  0  0  0  0
  8 23  1  6  0  0  0
  8 13  1  0  0  0  0
 10 19  1  0  0  0  0
 12  8  1  0  0  0  0
 12 16  1  0  0  0  0
 13 18  1  1  0  0  0
 13  2  1  0  0  0  0
 16 17  1  6  0  0  0
 16  5  1  0  0  0  0
 17  6  1  0  0  0  0
 18 10  1  0  0  0  0
 19 20  1  0  0  0  0
 20 15  2  0  0  0  0
 22 21  2  0  0  0  0
 23 22  1  0  0  0  0
 24 28  1  0  0  0  0
 26 29  2  0  0  0  0
 27 24  1  0  0  0  0
 28 25  1  0  0  0  0
 29 30  1  0  0  0  0
 30 25  1  0  0  0  0
 30 22  1  1  0  0  0
 31 24  1  0  0  0  0
 31 29  1  0  0  0  0
M  END
>  <MODEL>
7

>  <REMARK>
 VINA RESULT:      -7.7      4.062      7.996
  Name = 
  2 active torsions:
  status: ('A' for Active; 'I' for Inactive)
    1  A    between atoms: C_5  and  C_30
    2  A    between atoms: C_10  and  N_16
                            x       y       z     vdW  Elec       q    Type
                         _______ _______ _______ _____ _____    ______ ____

>  <TORSDO>
F 2

$$$$
=
 OpenBabel11112417033D

 31 35  0  0  1  0  0  0  0  0999 V2000
  191.6900  171.7040  142.2640 C   0  0  1  0  0  3  0  0  0  0  0  0
  190.1780  174.1280  144.9400 C   0  0  2  0  0  3  0  0  0  0  0  0
  191.3790  174.9220  145.4640 C   0  0  0  0  0  0  0  0  0  0  0  0
  193.7710  175.0640  145.9150 C   0  0  0  0  0  0  0  0  0  0  0  0
  190.3850  173.3910  143.6010 C   0  0  2  0  0  3  0  0  0  0  0  0
  191.9170  172.7580  141.1900 C   0  0  0  0  0  2  0  0  0  0  0  0
  192.6760  174.3950  145.3650 C   0  0  0  0  0  3  0  0  0  0  0  0
  189.0290  175.9300  143.5750 C   0  0  2  0  0  3  0  0  0  0  0  0
  192.8750  170.7630  142.3050 C   0  0  0  0  0  1  0  0  0  0  0  0
  189.8470  176.7680  146.3440 C   0  0  0  0  0  2  0  0  0  0  0  0
  195.3780  174.3910  145.7540 Cl  0  0  0  0  0  0  0  0  0  0  0  0
  189.2240  175.1440  142.3550 N   0  0  0  0  0  2  0  0  0  0  0  0
  188.9220  175.0070  144.8070 C   0  0  2  0  0  3  0  0  0  0  0  0
  191.5310  172.3740  143.6230 C   0  0  0  0  0  2  0  0  0  0  0  0
  193.5820  176.2650  146.5980 C   0  0  0  0  0  3  0  0  0  0  0  0
  190.4780  174.3980  142.4410 C   0  0  2  0  0  3  0  0  0  0  0  0
  190.7040  173.6780  141.1130 C   0  0  0  0  0  2  0  0  0  0  0  0
  188.7010  175.7920  146.0990 C   0  0  0  0  0  2  0  0  0  0  0  0
  191.1940  176.1230  146.1950 C   0  0  0  0  0  0  0  0  0  0  0  0
  192.2970  176.7920  146.7350 C   0  0  0  0  0  3  0  0  0  0  0  0
  188.7870  178.3020  142.0130 O   0  0  0  0  0  0  0  0  0  0  0  0
  187.7640  177.9060  142.6370 C   0  0  0  0  0  0  0  0  0  0  0  0
  187.8190  176.7300  143.4440 N   0  0  0  0  0  2  0  0  0  0  0  0
  184.6140  178.6740  144.8080 N   0  0  0  0  0  0  0  0  0  0  0  0
  186.4200  179.7920  143.5900 C   0  0  0  0  0  2  0  0  0  0  0  0
  184.8340  177.2090  141.6730 O   0  0  0  0  0  0  0  0  0  0  0  0
  184.1930  178.2790  146.1380 C   0  0  0  0  0  1  0  0  0  0  0  0
  185.9410  179.2710  144.9470 C   0  0  0  0  0  2  0  0  0  0  0  0
  185.2930  177.7520  142.6640 C   0  0  0  0  0  0  0  0  0  0  0  0
  186.4790  178.6690  142.5470 C   0  0  2  0  0  3  0  0  0  0  0  0
  184.7310  177.4470  144.0220 C   0  0  0  0  0  2  0  0  0  0  0  0
  1  9  1  1  0  0  0
  1 14  1  0  0  0  0
  2  3  1  6  0  0  0
  3 19  1  0  0  0  0
  4 15  2  0  0  0  0
  5 14  1  1  0  0  0
  5  2  1  0  0  0  0
  6  1  1  0  0  0  0
  7  3  2  0  0  0  0
  7  4  1  0  0  0  0
  8 23  1  6  0  0  0
  8 13  1  0  0  0  0
 11  4  1  0  0  0  0
 12 16  1  0  0  0  0
 12  8  1  0  0  0  0
 13  2  1  0  0  0  0
 13 18  1  1  0  0  0
 15 20  1  0  0  0  0
 16 17  1  6  0  0  0
 16  5  1  0  0  0  0
 17  6  1  0  0  0  0
 18 10  1  0  0  0  0
 19 10  1  0  0  0  0
 19 20  2  0  0  0  0
 21 22  2  0  0  0  0
 22 23  1  0  0  0  0
 24 28  1  0  0  0  0
 24 27  1  0  0  0  0
 25 28  1  0  0  0  0
 26 29  2  0  0  0  0
 29 31  1  0  0  0  0
 30 22  1  1  0  0  0
 30 29  1  0  0  0  0
 30 25  1  0  0  0  0
 31 24  1  0  0  0  0
M  END
>  <MODEL>
8

>  <REMARK>
 VINA RESULT:      -7.4      2.552      4.629
  Name = 
  2 active torsions:
  status: ('A' for Active; 'I' for Inactive)
    1  A    between atoms: C_5  and  C_30
    2  A    between atoms: C_10  and  N_16
                            x       y       z     vdW  Elec       q    Type
                         _______ _______ _______ _____ _____    ______ ____

>  <TORSDO>
F 2

$$$$
=
 OpenBabel11112417033D

 31 35  0  0  1  0  0  0  0  0999 V2000
  185.9410  179.0290  143.0230 C   0  0  1  0  0  3  0  0  0  0  0  0
  189.2750  177.1140  143.7520 C   0  0  2  0  0  3  0  0  0  0  0  0
  188.9870  176.3040  145.0200 C   0  0  0  0  0  0  0  0  0  0  0  0
  187.7550  176.0320  147.1060 C   0  0  0  0  0  0  0  0  0  0  0  0
  188.0440  177.6470  142.9930 C   0  0  2  0  0  3  0  0  0  0  0  0
  185.1640  177.8260  142.5070 C   0  0  0  0  0  2  0  0  0  0  0  0
  187.9740  176.7070  145.9050 C   0  0  0  0  0  3  0  0  0  0  0  0
  189.3120  175.2440  142.0400 C   0  0  2  0  0  3  0  0  0  0  0  0
  185.0410  179.8690  143.9050 C   0  0  0  0  0  1  0  0  0  0  0  0
  190.9290  174.7210  144.5200 C   0  0  0  0  0  2  0  0  0  0  0  0
  186.4700  176.5450  148.1760 Cl  0  0  0  0  0  0  0  0  0  0  0  0
  188.1680  175.8420  141.3490 N   0  0  0  0  0  2  0  0  0  0  0  0
  190.1450  176.3300  142.7530 C   0  0  2  0  0  3  0  0  0  0  0  0
  187.1450  178.5620  143.8300 C   0  0  0  0  0  2  0  0  0  0  0  0
  188.5660  174.9520  147.4560 C   0  0  0  0  0  3  0  0  0  0  0  0
  187.2850  176.4900  142.3180 C   0  0  2  0  0  3  0  0  0  0  0  0
  186.0520  177.0050  141.5800 C   0  0  0  0  0  2  0  0  0  0  0  0
  191.3590  175.7450  143.4740 C   0  0  0  0  0  2  0  0  0  0  0  0
  189.8300  175.2300  145.4040 C   0  0  0  0  0  0  0  0  0  0  0  0
  189.5980  174.5530  146.6060 C   0  0  0  0  0  3  0  0  0  0  0  0
  189.5500  172.4100  141.8500 O   0  0  0  0  0  0  0  0  0  0  0  0
  190.2070  173.1090  141.0290 C   0  0  0  0  0  0  0  0  0  0  0  0
  190.1400  174.5340  141.0750 N   0  0  0  0  0  2  0  0  0  0  0  0
  192.2690  169.8320  140.5390 N   0  0  0  0  0  0  0  0  0  0  0  0
  190.4670  171.1330  139.5120 C   0  0  0  0  0  2  0  0  0  0  0  0
  193.3070  173.1360  140.3990 O   0  0  0  0  0  0  0  0  0  0  0  0
  192.5220  168.6730  141.3740 C   0  0  0  0  0  1  0  0  0  0  0  0
  190.8160  169.9750  140.4500 C   0  0  0  0  0  2  0  0  0  0  0  0
  192.4740  172.2530  140.5160 C   0  0  0  0  0  0  0  0  0  0  0  0
  191.0760  172.4540  140.0010 C   0  0  2  0  0  3  0  0  0  0  0  0
  192.8130  170.9880  141.2490 C   0  0  0  0  0  2  0  0  0  0  0  0
  1 14  1  0  0  0  0
  1  9  1  1  0  0  0
  2  3  1  1  0  0  0
  3 19  2  0  0  0  0
  3  7  1  0  0  0  0
  4 15  1  0  0  0  0
  4 11  1  0  0  0  0
  5  2  1  0  0  0  0
  5 14  1  1  0  0  0
  6  1  1  0  0  0  0
  7  4  2  0  0  0  0
  8 23  1  6  0  0  0
  8 13  1  0  0  0  0
 10 19  1  0  0  0  0
 12  8  1  0  0  0  0
 12 16  1  0  0  0  0
 13 18  1  1  0  0  0
 13  2  1  0  0  0  0
 16 17  1  6  0  0  0
 16  5  1  0  0  0  0
 17  6  1  0  0  0  0
 18 10  1  0  0  0  0
 19 20  1  0  0  0  0
 20 15  2  0  0  0  0
 22 23  1  0  0  0  0
 22 21  2  0  0  0  0
 24 31  1  0  0  0  0
 24 27  1  0  0  0  0
 25 30  1  0  0  0  0
 25 28  1  0  0  0  0
 26 29  2  0  0  0  0
 28 24  1  0  0  0  0
 29 31  1  0  0  0  0
 30 29  1  0  0  0  0
 30 22  1  1  0  0  0
M  END
>  <MODEL>
9

>  <REMARK>
 VINA RESULT:      -7.3      3.847      8.126
  Name = 
  2 active torsions:
  status: ('A' for Active; 'I' for Inactive)
    1  A    between atoms: C_5  and  C_30
    2  A    between atoms: C_10  and  N_16
                            x       y       z     vdW  Elec       q    Type
                         _______ _______ _______ _____ _____    ______ ____

>  <TORSDO>
F 2

$$$$
