=
 OpenBabel11112416183D

 30 35  0  0  1  0  0  0  0  0999 V2000
  186.2250  177.3700  143.7150 C   0  0  0  0  0  0  0  0  0  0  0  0
  184.5010  178.5480  145.1620 C   0  0  0  0  0  0  0  0  0  0  0  0
  188.3840  176.2350  147.1310 N   0  0  0  0  0  2  0  0  0  0  0  0
  187.4400  176.6160  143.6270 C   0  0  0  0  0  0  0  0  0  0  0  0
  185.5730  177.6860  142.5260 C   0  0  0  0  0  3  0  0  0  0  0  0
  187.7230  176.2380  140.1090 O   0  0  0  0  0  0  0  0  0  0  0  0
  190.4090  176.1990  142.8360 C   0  0  1  0  0  3  0  0  0  0  0  0
  187.2660  176.5780  141.2370 C   0  0  0  0  0  0  0  0  0  0  0  0
  190.5370  176.1100  144.3620 C   0  0  2  0  0  3  0  0  0  0  0  0
  189.5110  175.4900  146.5900 C   0  0  1  0  0  3  0  0  0  0  0  0
  186.0690  177.2950  141.2950 C   0  0  0  0  0  0  0  0  0  0  0  0
  187.9380  176.2470  142.3870 N   0  0  0  0  0  0  0  0  0  0  0  0
  184.0740  178.8990  146.4460 C   0  0  0  0  0  3  0  0  0  0  0  0
  191.8020  175.3150  144.6250 C   0  0  0  0  0  2  0  0  0  0  0  0
  191.6990  175.6520  142.2480 C   0  0  0  0  0  2  0  0  0  0  0  0
  183.4540  179.1240  143.8670 Cl  0  0  0  0  0  0  0  0  0  0  0  0
  187.5910  176.6790  146.0460 C   0  0  0  0  0  0  0  0  0  0  0  0
  184.7940  178.5230  147.5730 C   0  0  0  0  0  3  0  0  0  0  0  0
  185.7020  177.7860  144.9870 C   0  0  0  0  0  0  0  0  0  0  0  0
  188.0920  176.2900  144.8360 C   0  0  0  0  0  0  0  0  0  0  0  0
  189.4810  174.0680  147.1170 C   0  0  0  0  0  1  0  0  0  0  0  0
  189.3300  175.4800  145.0590 C   0  0  1  0  0  3  0  0  0  0  0  0
  192.6670  175.5240  143.4040 C   0  0  0  0  0  2  0  0  0  0  0  0
  189.0400  174.0110  142.5100 C   0  0  0  0  0  1  0  0  0  0  0  0
  185.9620  177.7850  147.4310 C   0  0  0  0  0  3  0  0  0  0  0  0
  186.4190  177.4180  146.1620 C   0  0  0  0  0  0  0  0  0  0  0  0
  189.1930  175.5000  142.2090 C   0  0  2  0  0  3  0  0  0  0  0  0
  185.3290  177.6870  140.0560 C   0  0  0  0  0  2  0  0  0  0  0  0
  183.0090  177.9030  140.2200 C   0  0  0  0  0  1  0  0  0  0  0  0
  184.2630  178.6170  140.3870 N   0  0  0  0  0  2  0  0  0  0  0  0
  1 19  1  0  0  0  0
  2 13  1  0  0  0  0
  4  1  2  0  0  0  0
  4 20  1  0  0  0  0
  5  1  1  0  0  0  0
  6  8  2  0  0  0  0
  7 15  1  6  0  0  0
  7  9  1  0  0  0  0
  8 11  1  0  0  0  0
  8 12  1  0  0  0  0
  9 14  1  6  0  0  0
  9 22  1  0  0  0  0
 10 21  1  1  0  0  0
 10  3  1  0  0  0  0
 11  5  2  0  0  0  0
 12  4  1  0  0  0  0
 13 18  2  0  0  0  0
 15 23  1  0  0  0  0
 16  2  1  0  0  0  0
 17 26  1  0  0  0  0
 17  3  1  0  0  0  0
 19  2  2  0  0  0  0
 19 26  1  0  0  0  0
 20 17  2  0  0  0  0
 22 20  1  1  0  0  0
 22 10  1  0  0  0  0
 23 14  1  0  0  0  0
 25 18  1  0  0  0  0
 26 25  2  0  0  0  0
 27 12  1  0  0  0  0
 27 24  1  1  0  0  0
 27  7  1  0  0  0  0
 28 30  1  0  0  0  0
 28 11  1  0  0  0  0
 29 30  1  0  0  0  0
M  END
>  <MODEL>
1

>  <REMARK>
 VINA RESULT:      -8.7      0.000      0.000
  Name = 
  2 active torsions:
  status: ('A' for Active; 'I' for Inactive)
    1  A    between atoms: C_11  and  C_28
    2  A    between atoms: C_28  and  N_30
                            x       y       z     vdW  Elec       q    Type
                         _______ _______ _______ _____ _____    ______ ____

>  <TORSDO>
F 2

$$$$
=
 OpenBabel11112416183D

 30 35  0  0  1  0  0  0  0  0999 V2000
  188.4670  177.2220  146.0600 C   0  0  0  0  0  0  0  0  0  0  0  0
  186.5610  178.4820  147.1710 C   0  0  0  0  0  0  0  0  0  0  0  0
  186.1270  176.6150  142.6290 N   0  0  0  0  0  2  0  0  0  0  0  0
  188.9610  176.5000  144.9250 C   0  0  0  0  0  0  0  0  0  0  0  0
  189.3250  177.3840  147.1460 C   0  0  0  0  0  3  0  0  0  0  0  0
  192.2260  175.6720  146.0450 O   0  0  0  0  0  0  0  0  0  0  0  0
  189.9750  173.9590  143.4650 C   0  0  1  0  0  3  0  0  0  0  0  0
  191.0580  176.1530  146.0330 C   0  0  0  0  0  0  0  0  0  0  0  0
  188.6910  174.2190  142.6650 C   0  0  2  0  0  3  0  0  0  0  0  0
  187.0080  175.8670  141.7430 C   0  0  1  0  0  3  0  0  0  0  0  0
  190.6090  176.8700  147.1440 C   0  0  0  0  0  0  0  0  0  0  0  0
  190.2430  175.9720  144.9430 N   0  0  0  0  0  0  0  0  0  0  0  0
  185.2530  178.9660  147.0850 C   0  0  0  0  0  3  0  0  0  0  0  0
  188.9000  173.5470  141.3200 C   0  0  0  0  0  2  0  0  0  0  0  0
  190.8060  172.9700  142.6660 C   0  0  0  0  0  2  0  0  0  0  0  0
  187.3690  178.8420  148.6950 Cl  0  0  0  0  0  0  0  0  0  0  0  0
  186.8250  176.8620  143.8350 C   0  0  0  0  0  0  0  0  0  0  0  0
  184.4820  178.7590  145.9470 C   0  0  0  0  0  3  0  0  0  0  0  0
  187.1340  177.7570  146.0750 C   0  0  0  0  0  0  0  0  0  0  0  0
  188.0910  176.3470  143.8240 C   0  0  0  0  0  0  0  0  0  0  0  0
  187.2390  176.6570  140.4700 C   0  0  0  0  0  1  0  0  0  0  0  0
  188.3410  175.6980  142.4990 C   0  0  1  0  0  3  0  0  0  0  0  0
  189.8990  172.4430  141.5760 C   0  0  0  0  0  2  0  0  0  0  0  0
  191.2690  176.0720  142.6700 C   0  0  0  0  0  1  0  0  0  0  0  0
  185.0120  178.0590  144.8720 C   0  0  0  0  0  3  0  0  0  0  0  0
  186.3170  177.5600  144.9250 C   0  0  0  0  0  0  0  0  0  0  0  0
  190.8120  175.1930  143.8330 C   0  0  2  0  0  3  0  0  0  0  0  0
  191.4690  177.0620  148.3520 C   0  0  0  0  0  2  0  0  0  0  0  0
  191.5390  178.0700  150.4580 C   0  0  0  0  0  1  0  0  0  0  0  0
  191.0100  178.2110  149.1130 N   0  0  0  0  0  2  0  0  0  0  0  0
  1 19  1  0  0  0  0
  1  5  1  0  0  0  0
  2 16  1  0  0  0  0
  3 17  1  0  0  0  0
  4 12  1  0  0  0  0
  4  1  2  0  0  0  0
  7 15  1  6  0  0  0
  7 27  1  0  0  0  0
  8  6  2  0  0  0  0
  8 11  1  0  0  0  0
  9 14  1  6  0  0  0
  9  7  1  0  0  0  0
 10 21  1  6  0  0  0
 10 22  1  0  0  0  0
 10  3  1  0  0  0  0
 11  5  2  0  0  0  0
 11 28  1  0  0  0  0
 12  8  1  0  0  0  0
 13  2  1  0  0  0  0
 14 23  1  0  0  0  0
 17 26  1  0  0  0  0
 18 13  2  0  0  0  0
 19  2  2  0  0  0  0
 20 17  2  0  0  0  0
 20  4  1  0  0  0  0
 22  9  1  0  0  0  0
 22 20  1  1  0  0  0
 23 15  1  0  0  0  0
 25 26  2  0  0  0  0
 25 18  1  0  0  0  0
 26 19  1  0  0  0  0
 27 24  1  6  0  0  0
 27 12  1  0  0  0  0
 28 30  1  0  0  0  0
 30 29  1  0  0  0  0
M  END
>  <MODEL>
2

>  <REMARK>
 VINA RESULT:      -8.4      2.510      5.438
  Name = 
  2 active torsions:
  status: ('A' for Active; 'I' for Inactive)
    1  A    between atoms: C_11  and  C_28
    2  A    between atoms: C_28  and  N_30
                            x       y       z     vdW  Elec       q    Type
                         _______ _______ _______ _____ _____    ______ ____

>  <TORSDO>
F 2

$$$$
=
 OpenBabel11112416183D

 30 35  0  0  1  0  0  0  0  0999 V2000
  187.9860  175.6890  141.6360 C   0  0  0  0  0  0  0  0  0  0  0  0
  189.5620  173.7560  141.1490 C   0  0  0  0  0  0  0  0  0  0  0  0
  188.9670  175.5220  145.7130 N   0  0  0  0  0  2  0  0  0  0  0  0
  187.3960  176.5770  142.5930 C   0  0  0  0  0  0  0  0  0  0  0  0
  187.6070  175.8320  140.3030 C   0  0  0  0  0  3  0  0  0  0  0  0
  185.2720  178.4910  140.4890 O   0  0  0  0  0  0  0  0  0  0  0  0
  185.0320  177.7320  144.2340 C   0  0  1  0  0  3  0  0  0  0  0  0
  186.1190  177.6290  140.8590 C   0  0  0  0  0  0  0  0  0  0  0  0
  185.8820  177.1630  145.3770 C   0  0  2  0  0  3  0  0  0  0  0  0
  188.1660  176.5870  146.3010 C   0  0  1  0  0  3  0  0  0  0  0  0
  186.6940  176.7900  139.9020 C   0  0  0  0  0  0  0  0  0  0  0  0
  186.4660  177.5200  142.1820 N   0  0  0  0  0  0  0  0  0  0  0  0
  190.4750  172.8200  141.6430 C   0  0  0  0  0  3  0  0  0  0  0  0
  185.4810  177.9400  146.6170 C   0  0  0  0  0  2  0  0  0  0  0  0
  184.0090  178.6640  144.8610 C   0  0  0  0  0  2  0  0  0  0  0  0
  189.2890  173.6560  139.4110 Cl  0  0  0  0  0  0  0  0  0  0  0  0
  188.6960  175.4850  144.3250 C   0  0  0  0  0  0  0  0  0  0  0  0
  190.7930  172.7680  142.9950 C   0  0  0  0  0  3  0  0  0  0  0  0
  188.9330  174.6870  142.0400 C   0  0  0  0  0  0  0  0  0  0  0  0
  187.7900  176.4330  143.9410 C   0  0  0  0  0  0  0  0  0  0  0  0
  189.0780  177.6130  146.9440 C   0  0  0  0  0  1  0  0  0  0  0  0
  187.3910  177.2380  145.1380 C   0  0  1  0  0  3  0  0  0  0  0  0
  184.0720  178.4160  146.3510 C   0  0  0  0  0  2  0  0  0  0  0  0
  186.6830  179.6130  143.5250 C   0  0  0  0  0  1  0  0  0  0  0  0
  190.1980  173.6570  143.8790 C   0  0  0  0  0  3  0  0  0  0  0  0
  189.2790  174.6060  143.4200 C   0  0  0  0  0  0  0  0  0  0  0  0
  185.7920  178.4450  143.1060 C   0  0  2  0  0  3  0  0  0  0  0  0
  186.3160  176.8740  138.4580 C   0  0  0  0  0  2  0  0  0  0  0  0
  187.0660  176.2320  136.3410 C   0  0  0  0  0  1  0  0  0  0  0  0
  186.9350  175.7870  137.7180 N   0  0  0  0  0  2  0  0  0  0  0  0
  1 19  2  0  0  0  0
  1  4  1  0  0  0  0
  2 13  2  0  0  0  0
  2 19  1  0  0  0  0
  3 10  1  0  0  0  0
  4 20  2  0  0  0  0
  5  1  1  0  0  0  0
  6  8  2  0  0  0  0
  7 15  1  1  0  0  0
  7  9  1  0  0  0  0
  8 12  1  0  0  0  0
  9 14  1  1  0  0  0
 10 21  1  6  0  0  0
 11  5  2  0  0  0  0
 11  8  1  0  0  0  0
 12  4  1  0  0  0  0
 12 27  1  0  0  0  0
 13 18  1  0  0  0  0
 15 23  1  0  0  0  0
 16  2  1  0  0  0  0
 17  3  1  0  0  0  0
 18 25  2  0  0  0  0
 19 26  1  0  0  0  0
 20 17  1  0  0  0  0
 22 20  1  6  0  0  0
 22  9  1  0  0  0  0
 22 10  1  0  0  0  0
 23 14  1  0  0  0  0
 26 25  1  0  0  0  0
 26 17  2  0  0  0  0
 27 24  1  1  0  0  0
 27  7  1  0  0  0  0
 28 11  1  0  0  0  0
 29 30  1  0  0  0  0
 30 28  1  0  0  0  0
M  END
>  <MODEL>
3

>  <REMARK>
 VINA RESULT:      -8.2      2.491      5.505
  Name = 
  2 active torsions:
  status: ('A' for Active; 'I' for Inactive)
    1  A    between atoms: C_11  and  C_28
    2  A    between atoms: C_28  and  N_30
                            x       y       z     vdW  Elec       q    Type
                         _______ _______ _______ _____ _____    ______ ____

>  <TORSDO>
F 2

$$$$
=
 OpenBabel11112416183D

 30 35  0  0  1  0  0  0  0  0999 V2000
  188.5390  176.0080  143.7020 C   0  0  0  0  0  0  0  0  0  0  0  0
  186.3090  177.0960  144.2480 C   0  0  0  0  0  0  0  0  0  0  0  0
  190.0170  177.0230  147.4960 N   0  0  0  0  0  2  0  0  0  0  0  0
  189.8730  175.6780  144.1080 C   0  0  0  0  0  0  0  0  0  0  0  0
  188.1360  175.6150  142.4280 C   0  0  0  0  0  3  0  0  0  0  0  0
  191.0570  174.0320  141.1940 O   0  0  0  0  0  0  0  0  0  0  0  0
  192.9640  175.8810  143.9520 C   0  0  1  0  0  3  0  0  0  0  0  0
  190.2830  174.6410  141.9860 C   0  0  0  0  0  0  0  0  0  0  0  0
  192.7410  176.4490  145.3590 C   0  0  2  0  0  3  0  0  0  0  0  0
  191.3730  176.4950  147.4870 C   0  0  1  0  0  3  0  0  0  0  0  0
  188.9810  174.9320  141.5730 C   0  0  0  0  0  0  0  0  0  0  0  0
  190.7180  175.0110  143.2340 N   0  0  0  0  0  0  0  0  0  0  0  0
  185.5250  177.7860  145.1770 C   0  0  0  0  0  3  0  0  0  0  0  0
  194.0480  176.2400  146.1000 C   0  0  0  0  0  2  0  0  0  0  0  0
  194.4420  175.5550  143.8310 C   0  0  0  0  0  2  0  0  0  0  0  0
  185.5020  176.7700  142.7170 Cl  0  0  0  0  0  0  0  0  0  0  0  0
  189.4290  176.7420  146.2410 C   0  0  0  0  0  0  0  0  0  0  0  0
  186.0210  178.1220  146.4310 C   0  0  0  0  0  3  0  0  0  0  0  0
  187.6530  176.7210  144.5800 C   0  0  0  0  0  0  0  0  0  0  0  0
  190.2730  176.0700  145.4040 C   0  0  0  0  0  0  0  0  0  0  0  0
  191.5250  175.4630  148.5870 C   0  0  0  0  0  1  0  0  0  0  0  0
  191.5670  175.8230  146.1140 C   0  0  1  0  0  3  0  0  0  0  0  0
  195.1120  176.1910  145.0290 C   0  0  0  0  0  2  0  0  0  0  0  0
  192.2130  173.4460  144.4780 C   0  0  0  0  0  1  0  0  0  0  0  0
  187.3190  177.7710  146.7760 C   0  0  0  0  0  3  0  0  0  0  0  0
  188.1320  177.0820  145.8710 C   0  0  0  0  0  0  0  0  0  0  0  0
  192.1100  174.6640  143.5630 C   0  0  2  0  0  3  0  0  0  0  0  0
  188.4910  174.5600  140.2100 C   0  0  0  0  0  2  0  0  0  0  0  0
  188.4470  172.6380  138.8830 C   0  0  0  0  0  1  0  0  0  0  0  0
  188.0910  173.1630  140.1900 N   0  0  0  0  0  2  0  0  0  0  0  0
  1  4  2  0  0  0  0
  1 19  1  0  0  0  0
  2 19  2  0  0  0  0
  2 13  1  0  0  0  0
  4 20  1  0  0  0  0
  5  1  1  0  0  0  0
  6  8  2  0  0  0  0
  7 15  1  1  0  0  0
  7  9  1  0  0  0  0
  8 12  1  0  0  0  0
  9 14  1  1  0  0  0
  9 22  1  0  0  0  0
 10  3  1  0  0  0  0
 10 21  1  1  0  0  0
 11  8  1  0  0  0  0
 11  5  2  0  0  0  0
 12 27  1  0  0  0  0
 12  4  1  0  0  0  0
 13 18  2  0  0  0  0
 15 23  1  0  0  0  0
 16  2  1  0  0  0  0
 17  3  1  0  0  0  0
 18 25  1  0  0  0  0
 19 26  1  0  0  0  0
 20 17  2  0  0  0  0
 22 20  1  6  0  0  0
 22 10  1  0  0  0  0
 23 14  1  0  0  0  0
 26 17  1  0  0  0  0
 26 25  2  0  0  0  0
 27  7  1  0  0  0  0
 27 24  1  1  0  0  0
 28 11  1  0  0  0  0
 29 30  1  0  0  0  0
 30 28  1  0  0  0  0
M  END
>  <MODEL>
4

>  <REMARK>
 VINA RESULT:      -8.1      2.457      3.351
  Name = 
  2 active torsions:
  status: ('A' for Active; 'I' for Inactive)
    1  A    between atoms: C_11  and  C_28
    2  A    between atoms: C_28  and  N_30
                            x       y       z     vdW  Elec       q    Type
                         _______ _______ _______ _____ _____    ______ ____

>  <TORSDO>
F 2

$$$$
=
 OpenBabel11112416183D

 30 35  0  0  1  0  0  0  0  0999 V2000
  187.9440  175.9060  142.0770 C   0  0  0  0  0  0  0  0  0  0  0  0
  186.2230  177.7680  141.9230 C   0  0  0  0  0  0  0  0  0  0  0  0
  188.5110  176.7060  146.1580 N   0  0  0  0  0  2  0  0  0  0  0  0
  188.8780  175.1640  142.8710 C   0  0  0  0  0  0  0  0  0  0  0  0
  187.8160  175.5550  140.7350 C   0  0  0  0  0  3  0  0  0  0  0  0
  190.1640  172.9170  140.4430 O   0  0  0  0  0  0  0  0  0  0  0  0
  191.7220  174.2330  143.6830 C   0  0  1  0  0  3  0  0  0  0  0  0
  189.4760  173.8390  140.9660 C   0  0  0  0  0  0  0  0  0  0  0  0
  191.3250  174.9830  144.9610 C   0  0  2  0  0  3  0  0  0  0  0  0
  189.5130  175.7300  146.5610 C   0  0  1  0  0  3  0  0  0  0  0  0
  188.5580  174.5320  140.1740 C   0  0  0  0  0  0  0  0  0  0  0  0
  189.6310  174.1540  142.2930 N   0  0  0  0  0  0  0  0  0  0  0  0
  185.5150  178.7830  142.5730 C   0  0  0  0  0  3  0  0  0  0  0  0
  192.1820  174.3970  146.0670 C   0  0  0  0  0  2  0  0  0  0  0  0
  192.9400  173.3900  144.0220 C   0  0  0  0  0  2  0  0  0  0  0  0
  185.8390  177.5980  140.2110 Cl  0  0  0  0  0  0  0  0  0  0  0  0
  188.2560  176.5270  144.7780 C   0  0  0  0  0  0  0  0  0  0  0  0
  185.7090  179.0450  143.9240 C   0  0  0  0  0  3  0  0  0  0  0  0
  187.1700  176.9730  142.6480 C   0  0  0  0  0  0  0  0  0  0  0  0
  188.9970  175.5170  144.2330 C   0  0  0  0  0  0  0  0  0  0  0  0
  188.9410  174.8290  147.6380 C   0  0  0  0  0  1  0  0  0  0  0  0
  189.8370  174.8970  145.3050 C   0  0  1  0  0  3  0  0  0  0  0  0
  193.4150  173.8630  145.3780 C   0  0  0  0  0  2  0  0  0  0  0  0
  190.0030  172.2930  143.9140 C   0  0  0  0  0  1  0  0  0  0  0  0
  186.6220  178.2910  144.6480 C   0  0  0  0  0  3  0  0  0  0  0  0
  187.3480  177.2690  144.0300 C   0  0  0  0  0  0  0  0  0  0  0  0
  190.6330  173.3680  143.0310 C   0  0  2  0  0  3  0  0  0  0  0  0
  188.3870  174.2230  138.7210 C   0  0  0  0  0  2  0  0  0  0  0  0
  187.8090  175.2910  136.7250 C   0  0  0  0  0  1  0  0  0  0  0  0
  187.4420  175.1510  138.1240 N   0  0  0  0  0  2  0  0  0  0  0  0
  1 19  2  0  0  0  0
  1  4  1  0  0  0  0
  2 13  2  0  0  0  0
  2 19  1  0  0  0  0
  3 10  1  0  0  0  0
  4 20  2  0  0  0  0
  5  1  1  0  0  0  0
  6  8  2  0  0  0  0
  7 15  1  1  0  0  0
  7  9  1  0  0  0  0
  8 12  1  0  0  0  0
  9 22  1  0  0  0  0
  9 14  1  1  0  0  0
 10 21  1  1  0  0  0
 11  5  2  0  0  0  0
 11  8  1  0  0  0  0
 12  4  1  0  0  0  0
 12 27  1  0  0  0  0
 13 18  1  0  0  0  0
 15 23  1  0  0  0  0
 16  2  1  0  0  0  0
 17  3  1  0  0  0  0
 18 25  2  0  0  0  0
 19 26  1  0  0  0  0
 20 17  1  0  0  0  0
 22 20  1  6  0  0  0
 22 10  1  0  0  0  0
 23 14  1  0  0  0  0
 26 25  1  0  0  0  0
 26 17  2  0  0  0  0
 27  7  1  0  0  0  0
 27 24  1  1  0  0  0
 28 11  1  0  0  0  0
 29 30  1  0  0  0  0
 30 28  1  0  0  0  0
M  END
>  <MODEL>
5

>  <REMARK>
 VINA RESULT:      -8.1      2.251      3.201
  Name = 
  2 active torsions:
  status: ('A' for Active; 'I' for Inactive)
    1  A    between atoms: C_11  and  C_28
    2  A    between atoms: C_28  and  N_30
                            x       y       z     vdW  Elec       q    Type
                         _______ _______ _______ _____ _____    ______ ____

>  <TORSDO>
F 2

$$$$
=
 OpenBabel11112416183D

 30 35  0  0  1  0  0  0  0  0999 V2000
  188.1180  175.9560  142.0930 C   0  0  0  0  0  0  0  0  0  0  0  0
  186.4300  177.0660  140.5530 C   0  0  0  0  0  0  0  0  0  0  0  0
  186.5750  178.0640  145.3780 N   0  0  0  0  0  2  0  0  0  0  0  0
  188.6620  175.8070  143.4100 C   0  0  0  0  0  0  0  0  0  0  0  0
  188.6890  175.2020  141.0700 C   0  0  0  0  0  3  0  0  0  0  0  0
  191.2430  173.4510  142.7930 O   0  0  0  0  0  0  0  0  0  0  0  0
  190.8860  176.0790  145.5540 C   0  0  1  0  0  3  0  0  0  0  0  0
  190.2680  174.2280  142.5920 C   0  0  0  0  0  0  0  0  0  0  0  0
  189.8320  177.0150  146.1600 C   0  0  2  0  0  3  0  0  0  0  0  0
  187.3950  177.6080  146.4920 C   0  0  1  0  0  3  0  0  0  0  0  0
  189.7440  174.3380  141.3020 C   0  0  0  0  0  0  0  0  0  0  0  0
  189.7330  174.9540  143.6260 N   0  0  0  0  0  0  0  0  0  0  0  0
  185.3650  177.9590  140.4120 C   0  0  0  0  0  3  0  0  0  0  0  0
  190.1390  177.0760  147.6450 C   0  0  0  0  0  2  0  0  0  0  0  0
  191.9050  175.7910  146.6430 C   0  0  0  0  0  2  0  0  0  0  0  0
  186.9260  176.2870  139.0520 Cl  0  0  0  0  0  0  0  0  0  0  0  0
  187.0290  177.4150  144.2060 C   0  0  0  0  0  0  0  0  0  0  0  0
  184.8600  178.6560  141.5030 C   0  0  0  0  0  3  0  0  0  0  0  0
  187.0250  176.8530  141.8400 C   0  0  0  0  0  0  0  0  0  0  0  0
  188.0730  176.5670  144.4450 C   0  0  0  0  0  0  0  0  0  0  0  0
  186.5170  176.9370  147.5290 C   0  0  0  0  0  1  0  0  0  0  0  0
  188.3870  176.5820  145.9080 C   0  0  1  0  0  3  0  0  0  0  0  0
  191.6130  176.7670  147.7610 C   0  0  0  0  0  2  0  0  0  0  0  0
  189.5550  173.8660  145.8660 C   0  0  0  0  0  1  0  0  0  0  0  0
  185.4190  178.4690  142.7600 C   0  0  0  0  0  3  0  0  0  0  0  0
  186.4870  177.5840  142.9370 C   0  0  0  0  0  0  0  0  0  0  0  0
  190.3670  174.7700  144.9410 C   0  0  2  0  0  3  0  0  0  0  0  0
  190.3240  173.5760  140.1530 C   0  0  0  0  0  2  0  0  0  0  0  0
  188.9720  172.1560  138.8830 C   0  0  0  0  0  1  0  0  0  0  0  0
  189.3770  173.5410  139.0510 N   0  0  0  0  0  2  0  0  0  0  0  0
  1  4  1  0  0  0  0
  2 19  1  0  0  0  0
  3 10  1  0  0  0  0
  4 12  1  0  0  0  0
  4 20  2  0  0  0  0
  5 11  2  0  0  0  0
  5  1  1  0  0  0  0
  7  9  1  0  0  0  0
  7 15  1  1  0  0  0
  8  6  2  0  0  0  0
  8 12  1  0  0  0  0
  9 14  1  1  0  0  0
 10 21  1  1  0  0  0
 11  8  1  0  0  0  0
 12 27  1  0  0  0  0
 13  2  2  0  0  0  0
 13 18  1  0  0  0  0
 14 23  1  0  0  0  0
 15 23  1  0  0  0  0
 16  2  1  0  0  0  0
 17 20  1  0  0  0  0
 17  3  1  0  0  0  0
 18 25  2  0  0  0  0
 19  1  2  0  0  0  0
 19 26  1  0  0  0  0
 22 20  1  6  0  0  0
 22  9  1  0  0  0  0
 22 10  1  0  0  0  0
 25 26  1  0  0  0  0
 26 17  2  0  0  0  0
 27  7  1  0  0  0  0
 27 24  1  1  0  0  0
 28 11  1  0  0  0  0
 29 30  1  0  0  0  0
 30 28  1  0  0  0  0
M  END
>  <MODEL>
6

>  <REMARK>
 VINA RESULT:      -8.0      2.476      4.438
  Name = 
  2 active torsions:
  status: ('A' for Active; 'I' for Inactive)
    1  A    between atoms: C_11  and  C_28
    2  A    between atoms: C_28  and  N_30
                            x       y       z     vdW  Elec       q    Type
                         _______ _______ _______ _____ _____    ______ ____

>  <TORSDO>
F 2

$$$$
=
 OpenBabel11112416183D

 30 35  0  0  1  0  0  0  0  0999 V2000
  188.8730  176.6250  145.8770 C   0  0  0  0  0  0  0  0  0  0  0  0
  186.9070  178.1080  146.5010 C   0  0  0  0  0  0  0  0  0  0  0  0
  186.9130  175.4230  142.3670 N   0  0  0  0  0  2  0  0  0  0  0  0
  189.4620  175.6920  144.9630 C   0  0  0  0  0  0  0  0  0  0  0  0
  189.6090  176.9730  147.0080 C   0  0  0  0  0  3  0  0  0  0  0  0
  192.5430  175.0300  146.5960 O   0  0  0  0  0  0  0  0  0  0  0  0
  190.5300  172.9020  144.1310 C   0  0  1  0  0  3  0  0  0  0  0  0
  191.4050  175.5220  146.3560 C   0  0  0  0  0  0  0  0  0  0  0  0
  189.3560  173.0290  143.1510 C   0  0  2  0  0  3  0  0  0  0  0  0
  187.8560  174.5040  141.7460 C   0  0  1  0  0  3  0  0  0  0  0  0
  190.8630  176.4450  147.2540 C   0  0  0  0  0  0  0  0  0  0  0  0
  190.7110  175.1540  145.2310 N   0  0  0  0  0  0  0  0  0  0  0  0
  185.6370  178.5920  146.1710 C   0  0  0  0  0  3  0  0  0  0  0  0
  189.6880  172.1110  141.9890 C   0  0  0  0  0  2  0  0  0  0  0  0
  191.4040  171.7640  143.6350 C   0  0  0  0  0  2  0  0  0  0  0  0
  187.5510  178.7360  148.0160 Cl  0  0  0  0  0  0  0  0  0  0  0  0
  187.4790  175.8800  143.5790 C   0  0  0  0  0  0  0  0  0  0  0  0
  184.9920  178.1880  145.0080 C   0  0  0  0  0  3  0  0  0  0  0  0
  187.5690  177.1780  145.6340 C   0  0  0  0  0  0  0  0  0  0  0  0
  188.7160  175.3500  143.8140 C   0  0  0  0  0  0  0  0  0  0  0  0
  188.2610  175.0340  140.3850 C   0  0  0  0  0  1  0  0  0  0  0  0
  189.0870  174.4560  142.6720 C   0  0  1  0  0  3  0  0  0  0  0  0
  190.6050  171.0570  142.5620 C   0  0  0  0  0  2  0  0  0  0  0  0
  191.9900  174.8010  143.1170 C   0  0  0  0  0  1  0  0  0  0  0  0
  185.6110  177.2870  144.1530 C   0  0  0  0  0  3  0  0  0  0  0  0
  186.8800  176.7820  144.4520 C   0  0  0  0  0  0  0  0  0  0  0  0
  191.3700  174.1680  144.3600 C   0  0  2  0  0  3  0  0  0  0  0  0
  191.5880  176.8460  148.4990 C   0  0  0  0  0  2  0  0  0  0  0  0
  191.5390  178.2360  150.3750 C   0  0  0  0  0  1  0  0  0  0  0  0
  191.0300  178.0810  149.0230 N   0  0  0  0  0  2  0  0  0  0  0  0
  1  5  1  0  0  0  0
  2 16  1  0  0  0  0
  3 17  1  0  0  0  0
  4 12  1  0  0  0  0
  4  1  2  0  0  0  0
  5 11  2  0  0  0  0
  7 15  1  6  0  0  0
  7 27  1  0  0  0  0
  8  6  2  0  0  0  0
  8 11  1  0  0  0  0
  9 14  1  6  0  0  0
  9  7  1  0  0  0  0
 10 21  1  6  0  0  0
 10  3  1  0  0  0  0
 10 22  1  0  0  0  0
 11 28  1  0  0  0  0
 12  8  1  0  0  0  0
 13  2  1  0  0  0  0
 14 23  1  0  0  0  0
 17 20  2  0  0  0  0
 17 26  1  0  0  0  0
 18 13  2  0  0  0  0
 19  1  1  0  0  0  0
 19  2  2  0  0  0  0
 20  4  1  0  0  0  0
 22  9  1  0  0  0  0
 22 20  1  1  0  0  0
 23 15  1  0  0  0  0
 25 26  2  0  0  0  0
 25 18  1  0  0  0  0
 26 19  1  0  0  0  0
 27 24  1  6  0  0  0
 27 12  1  0  0  0  0
 28 30  1  0  0  0  0
 30 29  1  0  0  0  0
M  END
>  <MODEL>
7

>  <REMARK>
 VINA RESULT:      -7.7      2.739      5.619
  Name = 
  2 active torsions:
  status: ('A' for Active; 'I' for Inactive)
    1  A    between atoms: C_11  and  C_28
    2  A    between atoms: C_28  and  N_30
                            x       y       z     vdW  Elec       q    Type
                         _______ _______ _______ _____ _____    ______ ____

>  <TORSDO>
F 2

$$$$
=
 OpenBabel11112416183D

 30 35  0  0  1  0  0  0  0  0999 V2000
  188.0690  175.7240  140.8610 C   0  0  0  0  0  0  0  0  0  0  0  0
  188.0810  174.5240  138.6220 C   0  0  0  0  0  0  0  0  0  0  0  0
  191.0350  173.1360  142.3170 N   0  0  0  0  0  2  0  0  0  0  0  0
  188.5800  175.8330  142.1950 C   0  0  0  0  0  0  0  0  0  0  0  0
  187.0960  176.6390  140.4660 C   0  0  0  0  0  3  0  0  0  0  0  0
  186.6850  178.5810  143.4010 O   0  0  0  0  0  0  0  0  0  0  0  0
  188.3540  175.6960  145.2850 C   0  0  1  0  0  3  0  0  0  0  0  0
  187.1290  177.6920  142.6210 C   0  0  0  0  0  0  0  0  0  0  0  0
  189.3690  174.5690  145.0530 C   0  0  2  0  0  3  0  0  0  0  0  0
  191.2600  173.6050  143.6760 C   0  0  1  0  0  3  0  0  0  0  0  0
  186.6290  177.6220  141.3190 C   0  0  0  0  0  0  0  0  0  0  0  0
  188.0890  176.8090  143.0480 N   0  0  0  0  0  0  0  0  0  0  0  0
  188.6120  173.5020  137.8290 C   0  0  0  0  0  3  0  0  0  0  0  0
  190.1280  174.4220  146.3580 C   0  0  0  0  0  2  0  0  0  0  0  0
  188.3900  176.0310  146.7660 C   0  0  0  0  0  2  0  0  0  0  0  0
  186.8470  175.4950  137.8230 Cl  0  0  0  0  0  0  0  0  0  0  0  0
  190.0300  173.9440  141.7350 C   0  0  0  0  0  0  0  0  0  0  0  0
  189.5920  172.6470  138.3180 C   0  0  0  0  0  3  0  0  0  0  0  0
  188.5450  174.7060  139.9660 C   0  0  0  0  0  0  0  0  0  0  0  0
  189.5730  174.9090  142.5880 C   0  0  0  0  0  0  0  0  0  0  0  0
  192.7010  174.0490  143.8300 C   0  0  0  0  0  1  0  0  0  0  0  0
  190.3200  174.8100  143.8800 C   0  0  1  0  0  3  0  0  0  0  0  0
  189.1880  174.9280  147.4270 C   0  0  0  0  0  2  0  0  0  0  0  0
  189.8940  177.6590  144.5480 C   0  0  0  0  0  1  0  0  0  0  0  0
  190.0570  172.8010  139.6160 C   0  0  0  0  0  3  0  0  0  0  0  0
  189.5470  173.8110  140.4380 C   0  0  0  0  0  0  0  0  0  0  0  0
  188.5370  176.9660  144.4400 C   0  0  2  0  0  3  0  0  0  0  0  0
  185.5670  178.5580  140.8360 C   0  0  0  0  0  2  0  0  0  0  0  0
  183.4940  178.1760  141.8440 C   0  0  0  0  0  1  0  0  0  0  0  0
  184.3090  177.8480  140.6860 N   0  0  0  0  0  2  0  0  0  0  0  0
  1  4  1  0  0  0  0
  2 19  1  0  0  0  0
  3 10  1  0  0  0  0
  4 20  2  0  0  0  0
  4 12  1  0  0  0  0
  5  1  1  0  0  0  0
  5 11  2  0  0  0  0
  7 15  1  1  0  0  0
  8 12  1  0  0  0  0
  8  6  2  0  0  0  0
  9  7  1  0  0  0  0
  9 14  1  1  0  0  0
 10 21  1  6  0  0  0
 10 22  1  0  0  0  0
 11  8  1  0  0  0  0
 12 27  1  0  0  0  0
 13 18  1  0  0  0  0
 13  2  2  0  0  0  0
 14 23  1  0  0  0  0
 15 23  1  0  0  0  0
 16  2  1  0  0  0  0
 17  3  1  0  0  0  0
 17 20  1  0  0  0  0
 18 25  2  0  0  0  0
 19 26  1  0  0  0  0
 19  1  2  0  0  0  0
 22 20  1  6  0  0  0
 22  9  1  0  0  0  0
 25 26  1  0  0  0  0
 26 17  2  0  0  0  0
 27 24  1  6  0  0  0
 27  7  1  0  0  0  0
 28 11  1  0  0  0  0
 30 28  1  0  0  0  0
 30 29  1  0  0  0  0
M  END
>  <MODEL>
8

>  <REMARK>
 VINA RESULT:      -7.5      2.633      5.420
  Name = 
  2 active torsions:
  status: ('A' for Active; 'I' for Inactive)
    1  A    between atoms: C_11  and  C_28
    2  A    between atoms: C_28  and  N_30
                            x       y       z     vdW  Elec       q    Type
                         _______ _______ _______ _____ _____    ______ ____

>  <TORSDO>
F 2

$$$$
=
 OpenBabel11112416183D

 30 35  0  0  1  0  0  0  0  0999 V2000
  189.3020  175.9630  144.8950 C   0  0  0  0  0  0  0  0  0  0  0  0
  190.6830  176.7130  146.8900 C   0  0  0  0  0  0  0  0  0  0  0  0
  192.2890  173.2270  143.7970 N   0  0  0  0  0  2  0  0  0  0  0  0
  189.1740  175.1280  143.7370 C   0  0  0  0  0  0  0  0  0  0  0  0
  188.2500  176.8290  145.1840 C   0  0  0  0  0  3  0  0  0  0  0  0
  186.0010  176.1590  142.5290 O   0  0  0  0  0  0  0  0  0  0  0  0
  188.9750  174.6050  140.6870 C   0  0  1  0  0  3  0  0  0  0  0  0
  187.0290  176.0830  143.2580 C   0  0  0  0  0  0  0  0  0  0  0  0
  190.3000  173.8910  140.9820 C   0  0  2  0  0  3  0  0  0  0  0  0
  191.7510  172.5960  142.6010 C   0  0  1  0  0  3  0  0  0  0  0  0
  187.1180  176.8930  144.3920 C   0  0  0  0  0  0  0  0  0  0  0  0
  188.0440  175.2160  142.9390 N   0  0  0  0  0  0  0  0  0  0  0  0
  191.8600  176.5800  147.6330 C   0  0  0  0  0  3  0  0  0  0  0  0
  190.4750  172.8710  139.8730 C   0  0  0  0  0  2  0  0  0  0  0  0
  188.5180  174.1470  139.3130 C   0  0  0  0  0  2  0  0  0  0  0  0
  189.5610  177.9180  147.5190 Cl  0  0  0  0  0  0  0  0  0  0  0  0
  191.3520  174.1880  144.2440 C   0  0  0  0  0  0  0  0  0  0  0  0
  192.8460  175.6740  147.2630 C   0  0  0  0  0  3  0  0  0  0  0  0
  190.4740  175.9080  145.7230 C   0  0  0  0  0  0  0  0  0  0  0  0
  190.2400  174.2450  143.4530 C   0  0  0  0  0  0  0  0  0  0  0  0
  191.5940  171.1070  142.8380 C   0  0  0  0  0  1  0  0  0  0  0  0
  190.3670  173.2310  142.3600 C   0  0  1  0  0  3  0  0  0  0  0  0
  189.6930  173.4160  138.7020 C   0  0  0  0  0  2  0  0  0  0  0  0
  187.4410  172.9770  142.0150 C   0  0  0  0  0  1  0  0  0  0  0  0
  192.6690  174.8840  146.1360 C   0  0  0  0  0  3  0  0  0  0  0  0
  191.5050  174.9910  145.3690 C   0  0  0  0  0  0  0  0  0  0  0  0
  187.8530  174.4180  141.7180 C   0  0  2  0  0  3  0  0  0  0  0  0
  186.0360  177.8620  144.7500 C   0  0  0  0  0  2  0  0  0  0  0  0
  184.4470  178.3870  146.3790 C   0  0  0  0  0  1  0  0  0  0  0  0
  185.1680  177.2870  145.7630 N   0  0  0  0  0  2  0  0  0  0  0  0
  1  5  1  0  0  0  0
  1 19  1  0  0  0  0
  2 16  1  0  0  0  0
  2 13  1  0  0  0  0
  3 17  1  0  0  0  0
  4  1  2  0  0  0  0
  6  8  2  0  0  0  0
  7 15  1  6  0  0  0
  7  9  1  0  0  0  0
  7 27  1  0  0  0  0
  8 11  1  0  0  0  0
  9 14  1  6  0  0  0
  9 22  1  0  0  0  0
 10 21  1  1  0  0  0
 10  3  1  0  0  0  0
 11 28  1  0  0  0  0
 11  5  2  0  0  0  0
 12  8  1  0  0  0  0
 12  4  1  0  0  0  0
 17 26  1  0  0  0  0
 18 13  2  0  0  0  0
 19  2  2  0  0  0  0
 20  4  1  0  0  0  0
 20 17  2  0  0  0  0
 22 10  1  0  0  0  0
 22 20  1  1  0  0  0
 23 15  1  0  0  0  0
 23 14  1  0  0  0  0
 25 18  1  0  0  0  0
 26 19  1  0  0  0  0
 26 25  2  0  0  0  0
 27 24  1  1  0  0  0
 27 12  1  0  0  0  0
 28 30  1  0  0  0  0
 30 29  1  0  0  0  0
M  END
>  <MODEL>
9

>  <REMARK>
 VINA RESULT:      -7.3      2.677      5.058
  Name = 
  2 active torsions:
  status: ('A' for Active; 'I' for Inactive)
    1  A    between atoms: C_11  and  C_28
    2  A    between atoms: C_28  and  N_30
                            x       y       z     vdW  Elec       q    Type
                         _______ _______ _______ _____ _____    ______ ____

>  <TORSDO>
F 2

$$$$
