=
 OpenBabel11112417083D

 37 43  0  0  1  0  0  0  0  0999 V2000
  190.3540  173.4080  140.8560 C   0  0  0  0  0  2  0  0  0  0  0  0
  187.2920  176.8270  142.6140 C   0  0  0  0  0  0  0  0  0  0  0  0
  190.3400  174.9790  144.8970 C   0  0  0  0  0  0  0  0  0  0  0  0
  190.1330  172.6130  139.6280 N   0  0  0  0  0  0  0  0  0  0  0  0
  191.4310  171.5560  143.9750 O   0  0  0  0  0  0  0  0  0  0  0  0
  189.0310  176.9330  144.4950 C   0  0  0  0  0  0  0  0  0  0  0  0
  190.4300  173.6520  144.3290 C   0  0  0  0  0  0  0  0  0  0  0  0
  192.0230  171.1450  140.4810 C   0  0  0  0  0  0  0  0  0  0  0  0
  189.4270  175.6610  144.1380 C   0  0  0  0  0  0  0  0  0  0  0  0
  191.4680  172.7940  144.5570 C   0  0  0  0  0  0  0  0  0  0  0  0
  189.6660  177.5530  145.5800 C   0  0  0  0  0  3  0  0  0  0  0  0
  190.7370  171.2590  139.6730 C   0  0  0  0  0  2  0  0  0  0  0  0
  188.8870  174.8980  143.0800 N   0  0  0  0  0  0  0  0  0  0  0  0
  186.8020  177.6660  141.4700 C   0  0  0  0  0  1  0  0  0  0  0  0
  192.0190  174.8630  146.5680 O   0  0  0  0  0  0  0  0  0  0  0  0
  190.5850  176.8480  146.3760 C   0  0  0  0  0  3  0  0  0  0  0  0
  188.0740  175.5810  142.0320 C   0  0  0  0  0  2  0  0  0  0  0  0
  191.9670  170.4990  141.8570 C   0  0  0  0  0  2  0  0  0  0  0  0
  191.1560  171.4640  142.6220 C   0  0  1  0  0  3  0  0  0  0  0  0
  190.9520  175.5530  145.9730 C   0  0  0  0  0  0  0  0  0  0  0  0
  189.2660  173.4990  143.3880 C   0  0  1  0  0  3  0  0  0  0  0  0
  188.0960  177.7360  143.6020 C   0  0  0  0  0  2  0  0  0  0  0  0
  192.8230  173.1860  144.9260 C   0  0  0  0  0  0  0  0  0  0  0  0
  186.0590  176.3410  143.3150 C   0  0  0  0  0  1  0  0  0  0  0  0
  189.8090  171.3610  142.3200 O   0  0  0  0  0  0  0  0  0  0  0  0
  192.9770  171.7330  140.1250 O   0  0  0  0  0  0  0  0  0  0  0  0
  189.5580  172.7280  142.0870 C   0  0  2  0  0  3  0  0  0  0  0  0
  193.0340  174.1720  145.8360 C   0  0  0  0  0  3  0  0  0  0  0  0
  194.9310  172.0380  144.4790 N   0  0  0  0  0  0  0  0  0  0  0  0
  194.0050  172.8940  144.0940 C   0  0  0  0  0  0  0  0  0  0  0  0
  194.1790  173.6570  142.8900 C   0  0  0  0  0  3  0  0  0  0  0  0
  195.6330  174.2060  140.9870 O   0  0  0  0  0  1  0  0  0  0  0  0
  196.3050  172.5210  142.5570 C   0  0  0  0  0  3  0  0  0  0  0  0
  195.3590  173.4480  142.1680 C   0  0  0  0  0  0  0  0  0  0  0  0
  196.0540  171.8010  143.7600 C   0  0  0  0  0  3  0  0  0  0  0  0
  189.6520  173.8550  137.5880 C   0  0  0  0  0  1  0  0  0  0  0  0
  190.7440  173.3130  138.5120 C   0  0  0  0  0  2  0  0  0  0  0  0
  2 24  1  0  0  0  0
  2 22  1  0  0  0  0
  3 20  1  0  0  0  0
  4 12  1  0  0  0  0
  4  1  1  0  0  0  0
  5 10  1  0  0  0  0
  6 11  2  0  0  0  0
  7 10  2  0  0  0  0
  7  3  1  0  0  0  0
  8 18  1  0  0  0  0
  9  6  1  0  0  0  0
  9  3  2  0  0  0  0
 10 23  1  0  0  0  0
 11 16  1  0  0  0  0
 12  8  1  0  0  0  0
 13 21  1  0  0  0  0
 13  9  1  0  0  0  0
 14  2  1  0  0  0  0
 17  2  1  0  0  0  0
 17 13  1  0  0  0  0
 19 18  1  1  0  0  0
 19  5  1  0  0  0  0
 20 16  2  0  0  0  0
 20 15  1  0  0  0  0
 21  7  1  1  0  0  0
 22  6  1  0  0  0  0
 23 28  2  0  0  0  0
 25 19  1  0  0  0  0
 26  8  2  0  0  0  0
 27  1  1  1  0  0  0
 27 25  1  0  0  0  0
 27 21  1  0  0  0  0
 28 15  1  0  0  0  0
 30 29  1  0  0  0  0
 30 23  1  0  0  0  0
 31 30  2  0  0  0  0
 32 34  1  0  0  0  0
 33 35  1  0  0  0  0
 34 33  2  0  0  0  0
 34 31  1  0  0  0  0
 35 29  2  0  0  0  0
 36 37  1  0  0  0  0
 37  4  1  0  0  0  0
M  END
>  <MODEL>
1

>  <REMARK>
 VINA RESULT:      -7.7      0.000      0.000
  Name = 
  2 active torsions:
  status: ('A' for Active; 'I' for Inactive)
    1  A    between atoms: N_4  and  C_37
    2  A    between atoms: C_23  and  C_30
                            x       y       z     vdW  Elec       q    Type
                         _______ _______ _______ _____ _____    ______ ____

>  <TORSDO>
F 2

$$$$
=
 OpenBabel11112417083D

 37 43  0  0  1  0  0  0  0  0999 V2000
  190.1310  173.8780  141.9630 C   0  0  0  0  0  2  0  0  0  0  0  0
  189.2270  175.5620  146.4910 C   0  0  0  0  0  0  0  0  0  0  0  0
  193.0900  174.6090  145.0470 C   0  0  0  0  0  0  0  0  0  0  0  0
  189.1240  173.2830  141.0550 N   0  0  0  0  0  0  0  0  0  0  0  0
  193.4160  172.0470  142.3830 O   0  0  0  0  0  0  0  0  0  0  0  0
  191.7570  175.9770  146.4750 C   0  0  0  0  0  0  0  0  0  0  0  0
  192.8450  173.5290  144.1160 C   0  0  0  0  0  0  0  0  0  0  0  0
  191.1180  172.4960  139.6910 C   0  0  0  0  0  0  0  0  0  0  0  0
  191.8600  175.0240  145.4840 C   0  0  0  0  0  0  0  0  0  0  0  0
  193.7590  173.0900  143.1990 C   0  0  0  0  0  0  0  0  0  0  0  0
  192.9280  176.5900  146.9420 C   0  0  0  0  0  3  0  0  0  0  0  0
  189.6780  172.2640  140.1320 C   0  0  0  0  0  2  0  0  0  0  0  0
  190.7850  174.3110  144.9130 N   0  0  0  0  0  0  0  0  0  0  0  0
  187.9460  176.3440  146.4650 C   0  0  0  0  0  1  0  0  0  0  0  0
  195.4430  174.8350  144.8580 O   0  0  0  0  0  0  0  0  0  0  0  0
  194.1910  176.1490  146.5130 C   0  0  0  0  0  3  0  0  0  0  0  0
  189.3930  174.8150  145.1070 C   0  0  0  0  0  2  0  0  0  0  0  0
  192.2180  171.6470  140.3100 C   0  0  0  0  0  2  0  0  0  0  0  0
  192.2040  172.0960  141.7150 C   0  0  1  0  0  3  0  0  0  0  0  0
  194.2440  175.1730  145.5040 C   0  0  0  0  0  0  0  0  0  0  0  0
  191.4080  173.1210  144.2860 C   0  0  1  0  0  3  0  0  0  0  0  0
  190.3970  176.5180  146.8960 C   0  0  0  0  0  2  0  0  0  0  0  0
  194.8480  173.8860  142.6440 C   0  0  0  0  0  0  0  0  0  0  0  0
  189.0550  174.5410  147.5750 C   0  0  0  0  0  1  0  0  0  0  0  0
  191.1430  171.5560  142.4190 O   0  0  0  0  0  0  0  0  0  0  0  0
  191.3730  173.4470  139.0490 O   0  0  0  0  0  0  0  0  0  0  0  0
  190.6610  172.7500  142.9900 C   0  0  2  0  0  3  0  0  0  0  0  0
  195.5800  174.7070  143.4410 C   0  0  0  0  0  3  0  0  0  0  0  0
  194.1410  175.0360  140.6090 N   0  0  0  0  0  0  0  0  0  0  0  0
  194.9680  174.2010  141.2090 C   0  0  0  0  0  0  0  0  0  0  0  0
  195.9500  173.4810  140.4470 C   0  0  0  0  0  3  0  0  0  0  0  0
  196.8880  172.9910  138.2300 O   0  0  0  0  0  1  0  0  0  0  0  0
  195.1350  174.6130  138.4530 C   0  0  0  0  0  3  0  0  0  0  0  0
  195.9770  173.7080  139.0670 C   0  0  0  0  0  0  0  0  0  0  0  0
  194.1940  175.2900  139.2800 C   0  0  0  0  0  3  0  0  0  0  0  0
  188.1890  175.5320  141.1170 C   0  0  0  0  0  1  0  0  0  0  0  0
  188.5660  174.3420  140.2330 C   0  0  0  0  0  2  0  0  0  0  0  0
  2 22  1  0  0  0  0
  2 24  1  0  0  0  0
  3  9  2  0  0  0  0
  3 20  1  0  0  0  0
  4  1  1  0  0  0  0
  5 10  1  0  0  0  0
  6 22  1  0  0  0  0
  6 11  2  0  0  0  0
  7  3  1  0  0  0  0
  8 12  1  0  0  0  0
  8 18  1  0  0  0  0
  9  6  1  0  0  0  0
 10  7  2  0  0  0  0
 12  4  1  0  0  0  0
 13 17  1  0  0  0  0
 13  9  1  0  0  0  0
 14  2  1  0  0  0  0
 15 20  1  0  0  0  0
 16 11  1  0  0  0  0
 17  2  1  0  0  0  0
 19 18  1  6  0  0  0
 19  5  1  0  0  0  0
 19 25  1  0  0  0  0
 20 16  2  0  0  0  0
 21  7  1  6  0  0  0
 21 13  1  0  0  0  0
 23 10  1  0  0  0  0
 23 28  2  0  0  0  0
 25 27  1  0  0  0  0
 26  8  2  0  0  0  0
 27  1  1  6  0  0  0
 27 21  1  0  0  0  0
 28 15  1  0  0  0  0
 29 30  1  0  0  0  0
 30 23  1  0  0  0  0
 31 30  2  0  0  0  0
 32 34  1  0  0  0  0
 33 34  2  0  0  0  0
 33 35  1  0  0  0  0
 34 31  1  0  0  0  0
 35 29  2  0  0  0  0
 37  4  1  0  0  0  0
 37 36  1  0  0  0  0
M  END
>  <MODEL>
2

>  <REMARK>
 VINA RESULT:      -7.6      2.153      3.374
  Name = 
  2 active torsions:
  status: ('A' for Active; 'I' for Inactive)
    1  A    between atoms: N_4  and  C_37
    2  A    between atoms: C_23  and  C_30
                            x       y       z     vdW  Elec       q    Type
                         _______ _______ _______ _____ _____    ______ ____

>  <TORSDO>
F 2

$$$$
=
 OpenBabel11112417083D

 37 43  0  0  1  0  0  0  0  0999 V2000
  190.4120  173.5430  140.9010 C   0  0  0  0  0  2  0  0  0  0  0  0
  187.2180  176.8880  142.5660 C   0  0  0  0  0  0  0  0  0  0  0  0
  190.2240  175.0930  144.9460 C   0  0  0  0  0  0  0  0  0  0  0  0
  190.2520  172.7500  139.6620 N   0  0  0  0  0  0  0  0  0  0  0  0
  191.4200  171.6990  144.0480 O   0  0  0  0  0  0  0  0  0  0  0  0
  188.8880  177.0200  144.5070 C   0  0  0  0  0  0  0  0  0  0  0  0
  190.3620  173.7710  144.3760 C   0  0  0  0  0  0  0  0  0  0  0  0
  192.1420  171.3180  140.5750 C   0  0  0  0  0  0  0  0  0  0  0  0
  189.3240  175.7590  144.1580 C   0  0  0  0  0  0  0  0  0  0  0  0
  191.4100  172.9340  144.6360 C   0  0  0  0  0  0  0  0  0  0  0  0
  189.4720  177.6490  145.6160 C   0  0  0  0  0  3  0  0  0  0  0  0
  190.8830  171.4090  139.7220 C   0  0  0  0  0  2  0  0  0  0  0  0
  188.8370  174.9900  143.0790 N   0  0  0  0  0  0  0  0  0  0  0  0
  186.7500  177.7220  141.4090 C   0  0  0  0  0  1  0  0  0  0  0  0
  191.8460  175.0040  146.6740 O   0  0  0  0  0  0  0  0  0  0  0  0
  190.3770  176.9590  146.4400 C   0  0  0  0  0  3  0  0  0  0  0  0
  188.0460  175.6620  142.0060 C   0  0  0  0  0  2  0  0  0  0  0  0
  192.0520  170.6650  141.9450 C   0  0  0  0  0  2  0  0  0  0  0  0
  191.1940  171.6080  142.6860 C   0  0  1  0  0  3  0  0  0  0  0  0
  190.7860  175.6740  146.0450 C   0  0  0  0  0  0  0  0  0  0  0  0
  189.2360  173.5980  143.3940 C   0  0  1  0  0  3  0  0  0  0  0  0
  187.9670  177.8080  143.5850 C   0  0  0  0  0  2  0  0  0  0  0  0
  192.7430  173.3540  145.0540 C   0  0  0  0  0  0  0  0  0  0  0  0
  185.9730  176.3710  143.2220 C   0  0  0  0  0  1  0  0  0  0  0  0
  189.8610  171.4780  142.3360 O   0  0  0  0  0  0  0  0  0  0  0  0
  193.0940  171.9280  140.2550 O   0  0  0  0  0  0  0  0  0  0  0  0
  189.5890  172.8400  142.1010 C   0  0  2  0  0  3  0  0  0  0  0  0
  192.9000  174.3390  145.9750 C   0  0  0  0  0  3  0  0  0  0  0  0
  194.1920  173.7120  143.1220 N   0  0  0  0  0  0  0  0  0  0  0  0
  193.9580  173.0910  144.2620 C   0  0  0  0  0  0  0  0  0  0  0  0
  194.8370  172.0480  144.7120 C   0  0  0  0  0  3  0  0  0  0  0  0
  196.8180  170.6730  144.2420 O   0  0  0  0  0  1  0  0  0  0  0  0
  196.1850  172.4160  142.7200 C   0  0  0  0  0  3  0  0  0  0  0  0
  195.9260  171.7340  143.8910 C   0  0  0  0  0  0  0  0  0  0  0  0
  195.2690  173.4400  142.3470 C   0  0  0  0  0  3  0  0  0  0  0  0
  189.8280  173.8830  137.5480 C   0  0  0  0  0  1  0  0  0  0  0  0
  190.8860  173.4690  138.5720 C   0  0  0  0  0  2  0  0  0  0  0  0
  2 24  1  0  0  0  0
  2 22  1  0  0  0  0
  3 20  1  0  0  0  0
  4 12  1  0  0  0  0
  4  1  1  0  0  0  0
  5 10  1  0  0  0  0
  6 11  2  0  0  0  0
  7 10  2  0  0  0  0
  7  3  1  0  0  0  0
  8 18  1  0  0  0  0
  9  6  1  0  0  0  0
  9  3  2  0  0  0  0
 10 23  1  0  0  0  0
 11 16  1  0  0  0  0
 12  8  1  0  0  0  0
 13 21  1  0  0  0  0
 13  9  1  0  0  0  0
 14  2  1  0  0  0  0
 17  2  1  0  0  0  0
 17 13  1  0  0  0  0
 19 18  1  1  0  0  0
 19  5  1  0  0  0  0
 20 16  2  0  0  0  0
 20 15  1  0  0  0  0
 21  7  1  1  0  0  0
 22  6  1  0  0  0  0
 23 28  2  0  0  0  0
 25 19  1  0  0  0  0
 26  8  2  0  0  0  0
 27  1  1  1  0  0  0
 27 25  1  0  0  0  0
 27 21  1  0  0  0  0
 28 15  1  0  0  0  0
 29 30  1  0  0  0  0
 30 31  2  0  0  0  0
 30 23  1  0  0  0  0
 33 34  2  0  0  0  0
 34 32  1  0  0  0  0
 34 31  1  0  0  0  0
 35 33  1  0  0  0  0
 35 29  2  0  0  0  0
 36 37  1  0  0  0  0
 37  4  1  0  0  0  0
M  END
>  <MODEL>
3

>  <REMARK>
 VINA RESULT:      -7.6      0.939      1.147
  Name = 
  2 active torsions:
  status: ('A' for Active; 'I' for Inactive)
    1  A    between atoms: N_4  and  C_37
    2  A    between atoms: C_23  and  C_30
                            x       y       z     vdW  Elec       q    Type
                         _______ _______ _______ _____ _____    ______ ____

>  <TORSDO>
F 2

$$$$
=
 OpenBabel11112417083D

 37 43  0  0  1  0  0  0  0  0999 V2000
  192.9700  176.0660  144.7990 C   0  0  0  0  0  2  0  0  0  0  0  0
  188.4280  177.0830  143.2190 C   0  0  0  0  0  0  0  0  0  0  0  0
  190.6710  173.7170  141.9710 C   0  0  0  0  0  0  0  0  0  0  0  0
  193.8840  177.0300  145.4520 N   0  0  0  0  0  0  0  0  0  0  0  0
  194.3750  173.9280  142.0100 O   0  0  0  0  0  0  0  0  0  0  0  0
  188.5220  174.6450  142.4300 C   0  0  0  0  0  0  0  0  0  0  0  0
  192.0390  174.1860  142.0200 C   0  0  0  0  0  0  0  0  0  0  0  0
  195.6890  175.2910  145.0340 C   0  0  0  0  0  0  0  0  0  0  0  0
  189.8980  174.7390  142.4530 C   0  0  0  0  0  0  0  0  0  0  0  0
  193.1290  173.3630  141.9730 C   0  0  0  0  0  0  0  0  0  0  0  0
  187.9390  173.4410  142.0130 C   0  0  0  0  0  3  0  0  0  0  0  0
  195.3200  176.7600  145.1990 C   0  0  0  0  0  2  0  0  0  0  0  0
  190.6390  175.8780  142.8380 N   0  0  0  0  0  0  0  0  0  0  0  0
  187.7350  177.9160  144.2580 C   0  0  0  0  0  1  0  0  0  0  0  0
  190.9930  171.4800  141.2540 O   0  0  0  0  0  0  0  0  0  0  0  0
  188.7280  172.4000  141.4950 C   0  0  0  0  0  3  0  0  0  0  0  0
  189.9580  176.9630  143.6040 C   0  0  0  0  0  2  0  0  0  0  0  0
  195.9720  174.7610  143.6370 C   0  0  0  0  0  2  0  0  0  0  0  0
  194.6510  174.8660  142.9900 C   0  0  1  0  0  3  0  0  0  0  0  0
  190.1250  172.5460  141.5350 C   0  0  0  0  0  0  0  0  0  0  0  0
  191.9850  175.6700  142.2540 C   0  0  1  0  0  3  0  0  0  0  0  0
  187.6580  175.7310  143.0560 C   0  0  0  0  0  2  0  0  0  0  0  0
  193.1490  171.9630  142.3810 C   0  0  0  0  0  0  0  0  0  0  0  0
  188.3100  177.8520  141.9390 C   0  0  0  0  0  1  0  0  0  0  0  0
  194.3540  176.1690  142.6310 O   0  0  0  0  0  0  0  0  0  0  0  0
  195.5470  174.5600  145.9430 O   0  0  0  0  0  0  0  0  0  0  0  0
  193.0650  176.2370  143.1950 C   0  0  2  0  0  3  0  0  0  0  0  0
  192.1240  171.1340  142.0560 C   0  0  0  0  0  3  0  0  0  0  0  0
  193.7070  171.6940  144.7430 N   0  0  0  0  0  0  0  0  0  0  0  0
  193.9920  171.4530  143.4780 C   0  0  0  0  0  0  0  0  0  0  0  0
  195.2070  170.7730  143.1260 C   0  0  0  0  0  3  0  0  0  0  0  0
  197.3050  169.7600  143.9060 O   0  0  0  0  0  1  0  0  0  0  0  0
  195.7260  170.6150  145.4980 C   0  0  0  0  0  3  0  0  0  0  0  0
  196.0510  170.3940  144.1750 C   0  0  0  0  0  0  0  0  0  0  0  0
  194.5010  171.2900  145.7630 C   0  0  0  0  0  3  0  0  0  0  0  0
  192.3210  176.3210  147.1800 C   0  0  0  0  0  1  0  0  0  0  0  0
  193.6840  176.9510  146.8880 C   0  0  0  0  0  2  0  0  0  0  0  0
  1  4  1  0  0  0  0
  2 17  1  0  0  0  0
  2 14  1  0  0  0  0
  3  7  1  0  0  0  0
  3  9  1  0  0  0  0
  4 37  1  0  0  0  0
  5 19  1  0  0  0  0
  6  9  2  0  0  0  0
  6 22  1  0  0  0  0
  8 12  1  0  0  0  0
  8 26  2  0  0  0  0
  9 13  1  0  0  0  0
 10  5  1  0  0  0  0
 10  7  2  0  0  0  0
 10 23  1  0  0  0  0
 11  6  1  0  0  0  0
 12  4  1  0  0  0  0
 13 17  1  0  0  0  0
 15 20  1  0  0  0  0
 15 28  1  0  0  0  0
 16 20  1  0  0  0  0
 16 11  2  0  0  0  0
 18  8  1  0  0  0  0
 19 18  1  6  0  0  0
 20  3  2  0  0  0  0
 21  7  1  1  0  0  0
 21 13  1  0  0  0  0
 21 27  1  0  0  0  0
 22  2  1  0  0  0  0
 23 30  1  0  0  0  0
 24  2  1  0  0  0  0
 25 19  1  0  0  0  0
 25 27  1  0  0  0  0
 27  1  1  1  0  0  0
 28 23  2  0  0  0  0
 29 35  1  0  0  0  0
 30 29  2  0  0  0  0
 31 30  1  0  0  0  0
 31 34  2  0  0  0  0
 32 34  1  0  0  0  0
 33 35  2  0  0  0  0
 34 33  1  0  0  0  0
 37 36  1  0  0  0  0
M  END
>  <MODEL>
4

>  <REMARK>
 VINA RESULT:      -7.4      2.312      5.137
  Name = 
  2 active torsions:
  status: ('A' for Active; 'I' for Inactive)
    1  A    between atoms: N_4  and  C_37
    2  A    between atoms: C_23  and  C_30
                            x       y       z     vdW  Elec       q    Type
                         _______ _______ _______ _____ _____    ______ ____

>  <TORSDO>
F 2

$$$$
=
 OpenBabel11112417083D

 37 43  0  0  1  0  0  0  0  0999 V2000
  188.8060  174.2920  140.0290 C   0  0  0  0  0  2  0  0  0  0  0  0
  186.4920  177.3940  143.0600 C   0  0  0  0  0  0  0  0  0  0  0  0
  190.1360  175.4520  143.9900 C   0  0  0  0  0  0  0  0  0  0  0  0
  188.1910  173.6150  138.8660 N   0  0  0  0  0  0  0  0  0  0  0  0
  190.8730  172.1840  142.3960 O   0  0  0  0  0  0  0  0  0  0  0  0
  188.7590  177.3810  144.2570 C   0  0  0  0  0  0  0  0  0  0  0  0
  190.0370  174.1930  143.2850 C   0  0  0  0  0  0  0  0  0  0  0  0
  190.2650  172.1470  138.8810 C   0  0  0  0  0  0  0  0  0  0  0  0
  189.0190  176.1680  143.6540 C   0  0  0  0  0  0  0  0  0  0  0  0
  191.0970  173.3580  143.0620 C   0  0  0  0  0  0  0  0  0  0  0  0
  189.7170  177.9160  145.1300 C   0  0  0  0  0  3  0  0  0  0  0  0
  188.7820  172.2890  138.5620 C   0  0  0  0  0  2  0  0  0  0  0  0
  188.1600  175.4930  142.7610 N   0  0  0  0  0  0  0  0  0  0  0  0
  185.6440  178.3220  142.2400 C   0  0  0  0  0  1  0  0  0  0  0  0
  192.2780  175.2380  144.9860 O   0  0  0  0  0  0  0  0  0  0  0  0
  190.8520  177.1730  145.4950 C   0  0  0  0  0  3  0  0  0  0  0  0
  187.0400  176.2440  142.1210 C   0  0  0  0  0  2  0  0  0  0  0  0
  190.6750  171.3660  140.1200 C   0  0  0  0  0  2  0  0  0  0  0  0
  190.1610  172.2170  141.2100 C   0  0  1  0  0  3  0  0  0  0  0  0
  191.0700  175.9400  144.8570 C   0  0  0  0  0  0  0  0  0  0  0  0
  188.6270  174.0870  142.7730 C   0  0  1  0  0  3  0  0  0  0  0  0
  187.5750  178.2310  143.8170 C   0  0  0  0  0  2  0  0  0  0  0  0
  192.4950  173.7670  143.0000 C   0  0  0  0  0  0  0  0  0  0  0  0
  185.5670  176.7900  144.0740 C   0  0  0  0  0  1  0  0  0  0  0  0
  188.7920  172.0900  141.3620 O   0  0  0  0  0  0  0  0  0  0  0  0
  191.0420  172.8060  138.2940 O   0  0  0  0  0  0  0  0  0  0  0  0
  188.4710  173.4620  141.3740 C   0  0  2  0  0  3  0  0  0  0  0  0
  192.9930  174.6650  143.8890 C   0  0  0  0  0  3  0  0  0  0  0  0
  194.3360  172.7530  141.7580 N   0  0  0  0  0  0  0  0  0  0  0  0
  193.3310  173.6070  141.7970 C   0  0  0  0  0  0  0  0  0  0  0  0
  193.0910  174.4930  140.6930 C   0  0  0  0  0  3  0  0  0  0  0  0
  193.8250  175.2880  138.4870 O   0  0  0  0  0  1  0  0  0  0  0  0
  194.9880  173.4810  139.5540 C   0  0  0  0  0  3  0  0  0  0  0  0
  193.9630  174.4050  139.6030 C   0  0  0  0  0  0  0  0  0  0  0  0
  195.1560  172.6350  140.6860 C   0  0  0  0  0  3  0  0  0  0  0  0
  187.1890  175.3760  137.5130 C   0  0  0  0  0  1  0  0  0  0  0  0
  188.3910  174.4470  137.6930 C   0  0  0  0  0  2  0  0  0  0  0  0
  2 22  1  0  0  0  0
  2 24  1  0  0  0  0
  3 20  1  0  0  0  0
  4  1  1  0  0  0  0
  5 10  1  0  0  0  0
  6 11  2  0  0  0  0
  7  3  1  0  0  0  0
  8 18  1  0  0  0  0
  9  3  2  0  0  0  0
  9  6  1  0  0  0  0
 10  7  2  0  0  0  0
 11 16  1  0  0  0  0
 12  4  1  0  0  0  0
 12  8  1  0  0  0  0
 13 21  1  0  0  0  0
 13  9  1  0  0  0  0
 14  2  1  0  0  0  0
 17 13  1  0  0  0  0
 17  2  1  0  0  0  0
 19 18  1  6  0  0  0
 19 25  1  0  0  0  0
 19  5  1  0  0  0  0
 20 15  1  0  0  0  0
 20 16  2  0  0  0  0
 21  7  1  6  0  0  0
 22  6  1  0  0  0  0
 23 10  1  0  0  0  0
 23 28  2  0  0  0  0
 25 27  1  0  0  0  0
 26  8  2  0  0  0  0
 27  1  1  6  0  0  0
 27 21  1  0  0  0  0
 28 15  1  0  0  0  0
 29 30  1  0  0  0  0
 30 23  1  0  0  0  0
 31 30  2  0  0  0  0
 32 34  1  0  0  0  0
 33 34  2  0  0  0  0
 33 35  1  0  0  0  0
 34 31  1  0  0  0  0
 35 29  2  0  0  0  0
 36 37  1  0  0  0  0
 37  4  1  0  0  0  0
M  END
>  <MODEL>
5

>  <REMARK>
 VINA RESULT:      -7.4      1.747      2.051
  Name = 
  2 active torsions:
  status: ('A' for Active; 'I' for Inactive)
    1  A    between atoms: N_4  and  C_37
    2  A    between atoms: C_23  and  C_30
                            x       y       z     vdW  Elec       q    Type
                         _______ _______ _______ _____ _____    ______ ____

>  <TORSDO>
F 2

$$$$
=
 OpenBabel11112417083D

 37 43  0  0  1  0  0  0  0  0999 V2000
  190.4760  173.3800  141.9340 C   0  0  0  0  0  2  0  0  0  0  0  0
  189.2860  175.7510  146.0710 C   0  0  0  0  0  0  0  0  0  0  0  0
  193.1850  174.3740  145.1700 C   0  0  0  0  0  0  0  0  0  0  0  0
  189.5170  172.7200  141.0200 N   0  0  0  0  0  0  0  0  0  0  0  0
  193.5680  171.4390  142.9330 O   0  0  0  0  0  0  0  0  0  0  0  0
  191.8300  176.0100  146.2540 C   0  0  0  0  0  0  0  0  0  0  0  0
  192.9490  173.1870  144.3770 C   0  0  0  0  0  0  0  0  0  0  0  0
  191.5650  171.6270  139.9860 C   0  0  0  0  0  0  0  0  0  0  0  0
  191.9550  174.9190  145.4190 C   0  0  0  0  0  0  0  0  0  0  0  0
  193.9100  172.5670  143.6270 C   0  0  0  0  0  0  0  0  0  0  0  0
  192.9950  176.6150  146.7460 C   0  0  0  0  0  3  0  0  0  0  0  0
  190.0780  171.5460  140.3070 C   0  0  0  0  0  2  0  0  0  0  0  0
  190.8870  174.1950  144.8470 N   0  0  0  0  0  0  0  0  0  0  0  0
  188.0730  176.5950  145.8080 C   0  0  0  0  0  1  0  0  0  0  0  0
  195.5560  174.4320  145.1900 O   0  0  0  0  0  0  0  0  0  0  0  0
  194.2570  176.0430  146.5130 C   0  0  0  0  0  3  0  0  0  0  0  0
  189.5240  174.8030  144.8270 C   0  0  0  0  0  2  0  0  0  0  0  0
  192.5390  170.8150  140.8250 C   0  0  0  0  0  2  0  0  0  0  0  0
  192.4290  171.4620  142.1460 C   0  0  1  0  0  3  0  0  0  0  0  0
  194.3310  174.9290  145.6600 C   0  0  0  0  0  0  0  0  0  0  0  0
  191.4770  172.8930  144.4570 C   0  0  1  0  0  3  0  0  0  0  0  0
  190.4800  176.6850  146.4560 C   0  0  0  0  0  2  0  0  0  0  0  0
  195.0990  173.2090  143.0800 C   0  0  0  0  0  0  0  0  0  0  0  0
  188.9410  174.9090  147.2630 C   0  0  0  0  0  1  0  0  0  0  0  0
  191.2710  171.0920  142.8070 O   0  0  0  0  0  0  0  0  0  0  0  0
  191.9460  172.4590  139.2480 O   0  0  0  0  0  0  0  0  0  0  0  0
  190.8270  172.3830  143.1560 C   0  0  2  0  0  3  0  0  0  0  0  0
  195.8130  174.0920  143.8260 C   0  0  0  0  0  3  0  0  0  0  0  0
  196.3850  172.6690  141.0760 N   0  0  0  0  0  0  0  0  0  0  0  0
  195.3730  173.3050  141.6350 C   0  0  0  0  0  0  0  0  0  0  0  0
  194.5680  174.2070  140.8600 C   0  0  0  0  0  3  0  0  0  0  0  0
  194.1920  175.2910  138.6880 O   0  0  0  0  0  1  0  0  0  0  0  0
  195.9460  173.6720  138.9280 C   0  0  0  0  0  3  0  0  0  0  0  0
  194.9110  174.3710  139.5140 C   0  0  0  0  0  0  0  0  0  0  0  0
  196.6920  172.7930  139.7630 C   0  0  0  0  0  3  0  0  0  0  0  0
  188.1910  172.9980  138.9960 C   0  0  0  0  0  1  0  0  0  0  0  0
  189.1150  173.6790  140.0070 C   0  0  0  0  0  2  0  0  0  0  0  0
  2 22  1  0  0  0  0
  2 24  1  0  0  0  0
  3  9  2  0  0  0  0
  3 20  1  0  0  0  0
  4  1  1  0  0  0  0
  5 10  1  0  0  0  0
  6 22  1  0  0  0  0
  6 11  2  0  0  0  0
  7  3  1  0  0  0  0
  8 12  1  0  0  0  0
  8 18  1  0  0  0  0
  9  6  1  0  0  0  0
 10  7  2  0  0  0  0
 12  4  1  0  0  0  0
 13  9  1  0  0  0  0
 14  2  1  0  0  0  0
 15 20  1  0  0  0  0
 16 11  1  0  0  0  0
 17 13  1  0  0  0  0
 17  2  1  0  0  0  0
 19 18  1  6  0  0  0
 19 25  1  0  0  0  0
 19  5  1  0  0  0  0
 20 16  2  0  0  0  0
 21  7  1  6  0  0  0
 21 13  1  0  0  0  0
 23 10  1  0  0  0  0
 23 28  2  0  0  0  0
 25 27  1  0  0  0  0
 26  8  2  0  0  0  0
 27  1  1  6  0  0  0
 27 21  1  0  0  0  0
 28 15  1  0  0  0  0
 29 30  1  0  0  0  0
 30 23  1  0  0  0  0
 31 30  2  0  0  0  0
 32 34  1  0  0  0  0
 33 34  2  0  0  0  0
 33 35  1  0  0  0  0
 34 31  1  0  0  0  0
 35 29  2  0  0  0  0
 36 37  1  0  0  0  0
 37  4  1  0  0  0  0
M  END
>  <MODEL>
6

>  <REMARK>
 VINA RESULT:      -7.4      2.006      2.977
  Name = 
  2 active torsions:
  status: ('A' for Active; 'I' for Inactive)
    1  A    between atoms: N_4  and  C_37
    2  A    between atoms: C_23  and  C_30
                            x       y       z     vdW  Elec       q    Type
                         _______ _______ _______ _____ _____    ______ ____

>  <TORSDO>
F 2

$$$$
=
 OpenBabel11112417083D

 37 43  0  0  1  0  0  0  0  0999 V2000
  189.6460  173.7390  141.5130 C   0  0  0  0  0  2  0  0  0  0  0  0
  188.4520  176.8010  145.1690 C   0  0  0  0  0  0  0  0  0  0  0  0
  191.8040  174.2170  145.2430 C   0  0  0  0  0  0  0  0  0  0  0  0
  188.7360  173.3050  140.4300 N   0  0  0  0  0  0  0  0  0  0  0  0
  191.6790  171.0760  143.2730 O   0  0  0  0  0  0  0  0  0  0  0  0
  190.8500  176.2960  145.9210 C   0  0  0  0  0  0  0  0  0  0  0  0
  191.3690  173.0770  144.4660 C   0  0  0  0  0  0  0  0  0  0  0  0
  190.4930  171.5360  139.9390 C   0  0  0  0  0  0  0  0  0  0  0  0
  190.7890  175.1330  145.1810 C   0  0  0  0  0  0  0  0  0  0  0  0
  192.2130  172.1170  143.9820 C   0  0  0  0  0  0  0  0  0  0  0  0
  192.0200  176.5690  146.6440 C   0  0  0  0  0  3  0  0  0  0  0  0
  189.0250  171.9450  139.9130 C   0  0  0  0  0  2  0  0  0  0  0  0
  189.6870  174.7080  144.4080 N   0  0  0  0  0  0  0  0  0  0  0  0
  187.6550  177.9390  144.6000 C   0  0  0  0  0  1  0  0  0  0  0  0
  194.0110  173.5550  145.8060 O   0  0  0  0  0  0  0  0  0  0  0  0
  193.0520  175.6200  146.7300 C   0  0  0  0  0  3  0  0  0  0  0  0
  188.6250  175.6940  144.0520 C   0  0  0  0  0  2  0  0  0  0  0  0
  190.9610  170.5640  141.0120 C   0  0  0  0  0  2  0  0  0  0  0  0
  190.7950  171.3550  142.2450 C   0  0  1  0  0  3  0  0  0  0  0  0
  192.9400  174.4490  145.9610 C   0  0  0  0  0  0  0  0  0  0  0  0
  189.8960  173.2540  144.2160 C   0  0  1  0  0  3  0  0  0  0  0  0
  189.7770  177.3660  145.7800 C   0  0  0  0  0  2  0  0  0  0  0  0
  193.6310  172.3040  143.6980 C   0  0  0  0  0  0  0  0  0  0  0  0
  187.6200  176.2400  146.2810 C   0  0  0  0  0  1  0  0  0  0  0  0
  189.4700  171.4300  142.6360 O   0  0  0  0  0  0  0  0  0  0  0  0
  191.2630  172.1260  139.2770 O   0  0  0  0  0  0  0  0  0  0  0  0
  189.4010  172.8240  142.8220 C   0  0  2  0  0  3  0  0  0  0  0  0
  194.4200  173.0060  144.5520 C   0  0  0  0  0  3  0  0  0  0  0  0
  195.0340  171.1630  142.0580 N   0  0  0  0  0  0  0  0  0  0  0  0
  194.2120  172.1520  142.3520 C   0  0  0  0  0  0  0  0  0  0  0  0
  193.9460  173.1840  141.3880 C   0  0  0  0  0  3  0  0  0  0  0  0
  194.4230  174.0970  139.1580 O   0  0  0  0  0  1  0  0  0  0  0  0
  195.4210  172.0240  139.8390 C   0  0  0  0  0  3  0  0  0  0  0  0
  194.5940  173.0830  140.1520 C   0  0  0  0  0  0  0  0  0  0  0  0
  195.6290  171.0400  140.8470 C   0  0  0  0  0  3  0  0  0  0  0  0
  188.2080  173.6290  138.0750 C   0  0  0  0  0  1  0  0  0  0  0  0
  188.8790  174.2230  139.3150 C   0  0  0  0  0  2  0  0  0  0  0  0
  2 22  1  0  0  0  0
  2 24  1  0  0  0  0
  3 20  1  0  0  0  0
  4  1  1  0  0  0  0
  5 10  1  0  0  0  0
  6 11  2  0  0  0  0
  7  3  1  0  0  0  0
  8 18  1  0  0  0  0
  9  3  2  0  0  0  0
  9  6  1  0  0  0  0
 10  7  2  0  0  0  0
 11 16  1  0  0  0  0
 12  8  1  0  0  0  0
 12  4  1  0  0  0  0
 13  9  1  0  0  0  0
 14  2  1  0  0  0  0
 15 20  1  0  0  0  0
 17 13  1  0  0  0  0
 17  2  1  0  0  0  0
 19 18  1  6  0  0  0
 19 25  1  0  0  0  0
 19  5  1  0  0  0  0
 20 16  2  0  0  0  0
 21 13  1  0  0  0  0
 21  7  1  6  0  0  0
 22  6  1  0  0  0  0
 23 10  1  0  0  0  0
 23 28  2  0  0  0  0
 25 27  1  0  0  0  0
 26  8  2  0  0  0  0
 27  1  1  6  0  0  0
 27 21  1  0  0  0  0
 28 15  1  0  0  0  0
 29 30  1  0  0  0  0
 30 23  1  0  0  0  0
 31 30  2  0  0  0  0
 32 34  1  0  0  0  0
 33 34  2  0  0  0  0
 33 35  1  0  0  0  0
 34 31  1  0  0  0  0
 35 29  2  0  0  0  0
 36 37  1  0  0  0  0
 37  4  1  0  0  0  0
M  END
>  <MODEL>
7

>  <REMARK>
 VINA RESULT:      -7.3      1.565      2.077
  Name = 
  2 active torsions:
  status: ('A' for Active; 'I' for Inactive)
    1  A    between atoms: N_4  and  C_37
    2  A    between atoms: C_23  and  C_30
                            x       y       z     vdW  Elec       q    Type
                         _______ _______ _______ _____ _____    ______ ____

>  <TORSDO>
F 2

$$$$
=
 OpenBabel11112417083D

 37 43  0  0  1  0  0  0  0  0999 V2000
  191.8190  172.5040  142.4460 C   0  0  0  0  0  2  0  0  0  0  0  0
  196.4020  170.7720  142.8440 C   0  0  0  0  0  0  0  0  0  0  0  0
  195.0380  174.3130  144.7200 C   0  0  0  0  0  0  0  0  0  0  0  0
  190.8460  172.1160  141.4000 N   0  0  0  0  0  0  0  0  0  0  0  0
  192.2470  176.1960  143.1600 O   0  0  0  0  0  0  0  0  0  0  0  0
  196.4950  172.4260  144.8000 C   0  0  0  0  0  0  0  0  0  0  0  0
  194.0400  174.8180  143.8020 C   0  0  0  0  0  0  0  0  0  0  0  0
  189.5080  174.1290  142.1840 C   0  0  0  0  0  0  0  0  0  0  0  0
  195.4560  173.1130  144.2090 C   0  0  0  0  0  0  0  0  0  0  0  0
  193.1320  175.7880  144.1220 C   0  0  0  0  0  0  0  0  0  0  0  0
  197.0340  172.9230  145.9950 C   0  0  0  0  0  3  0  0  0  0  0  0
  189.8870  173.1890  141.0460 C   0  0  0  0  0  2  0  0  0  0  0  0
  194.8100  172.7520  143.0070 N   0  0  0  0  0  0  0  0  0  0  0  0
  196.3770  169.2900  142.6080 C   0  0  0  0  0  1  0  0  0  0  0  0
  194.9410  175.9530  146.4290 O   0  0  0  0  0  0  0  0  0  0  0  0
  196.6250  174.1660  146.5080 C   0  0  0  0  0  3  0  0  0  0  0  0
  194.9850  171.3690  142.4750 C   0  0  0  0  0  2  0  0  0  0  0  0
  190.1160  175.5220  142.2140 C   0  0  0  0  0  2  0  0  0  0  0  0
  191.5430  175.2360  142.4550 C   0  0  1  0  0  3  0  0  0  0  0  0
  195.5650  174.8290  145.8670 C   0  0  0  0  0  0  0  0  0  0  0  0
  194.1390  173.9920  142.5490 C   0  0  1  0  0  3  0  0  0  0  0  0
  196.8990  171.0450  144.3020 C   0  0  0  0  0  2  0  0  0  0  0  0
  192.6590  176.0930  145.4670 C   0  0  0  0  0  0  0  0  0  0  0  0
  197.4210  171.3160  141.8880 C   0  0  0  0  0  1  0  0  0  0  0  0
  192.1790  174.7870  141.3110 O   0  0  0  0  0  0  0  0  0  0  0  0
  188.9300  173.6980  143.1120 O   0  0  0  0  0  0  0  0  0  0  0  0
  192.8000  173.6510  141.8680 C   0  0  2  0  0  3  0  0  0  0  0  0
  193.5250  176.1260  146.5130 C   0  0  0  0  0  3  0  0  0  0  0  0
  190.7730  174.8460  146.3860 N   0  0  0  0  0  0  0  0  0  0  0  0
  191.2480  175.9650  145.8760 C   0  0  0  0  0  0  0  0  0  0  0  0
  190.3690  177.0660  145.5980 C   0  0  0  0  0  3  0  0  0  0  0  0
  188.0640  177.9150  145.5930 O   0  0  0  0  0  1  0  0  0  0  0  0
  188.5300  175.7270  146.4600 C   0  0  0  0  0  3  0  0  0  0  0  0
  189.0130  176.8870  145.8890 C   0  0  0  0  0  0  0  0  0  0  0  0
  189.4670  174.6850  146.7100 C   0  0  0  0  0  3  0  0  0  0  0  0
  190.8240  169.6910  141.6360 C   0  0  0  0  0  1  0  0  0  0  0  0
  190.0660  170.9950  141.8940 C   0  0  0  0  0  2  0  0  0  0  0  0
  2 22  1  0  0  0  0
  3 20  1  0  0  0  0
  4 37  1  0  0  0  0
  4  1  1  0  0  0  0
  5 10  1  0  0  0  0
  6 11  2  0  0  0  0
  7 10  2  0  0  0  0
  7  3  1  0  0  0  0
  8 18  1  0  0  0  0
  8 26  2  0  0  0  0
  9  3  2  0  0  0  0
  9  6  1  0  0  0  0
 10 23  1  0  0  0  0
 11 16  1  0  0  0  0
 12  4  1  0  0  0  0
 12  8  1  0  0  0  0
 13  9  1  0  0  0  0
 14  2  1  0  0  0  0
 15 28  1  0  0  0  0
 17  2  1  0  0  0  0
 17 13  1  0  0  0  0
 19 18  1  6  0  0  0
 19  5  1  0  0  0  0
 20 15  1  0  0  0  0
 20 16  2  0  0  0  0
 21 13  1  0  0  0  0
 21  7  1  1  0  0  0
 22  6  1  0  0  0  0
 23 30  1  0  0  0  0
 23 28  2  0  0  0  0
 24  2  1  0  0  0  0
 25 27  1  0  0  0  0
 25 19  1  0  0  0  0
 27  1  1  1  0  0  0
 27 21  1  0  0  0  0
 29 35  1  0  0  0  0
 30 29  2  0  0  0  0
 31 30  1  0  0  0  0
 31 34  2  0  0  0  0
 32 34  1  0  0  0  0
 33 35  2  0  0  0  0
 34 33  1  0  0  0  0
 36 37  1  0  0  0  0
M  END
>  <MODEL>
8

>  <REMARK>
 VINA RESULT:      -7.2      2.336      6.623
  Name = 
  2 active torsions:
  status: ('A' for Active; 'I' for Inactive)
    1  A    between atoms: N_4  and  C_37
    2  A    between atoms: C_23  and  C_30
                            x       y       z     vdW  Elec       q    Type
                         _______ _______ _______ _____ _____    ______ ____

>  <TORSDO>
F 2

$$$$
=
 OpenBabel11112417083D

 37 43  0  0  1  0  0  0  0  0999 V2000
  192.7190  174.9420  143.6860 C   0  0  0  0  0  2  0  0  0  0  0  0
  195.2610  173.0190  139.9440 C   0  0  0  0  0  0  0  0  0  0  0  0
  191.0440  173.3810  140.0050 C   0  0  0  0  0  0  0  0  0  0  0  0
  193.2310  175.1250  145.0630 N   0  0  0  0  0  0  0  0  0  0  0  0
  189.3000  173.3730  143.2790 O   0  0  0  0  0  0  0  0  0  0  0  0
  193.0430  173.3650  138.7040 C   0  0  0  0  0  0  0  0  0  0  0  0
  190.7130  173.2400  141.4060 C   0  0  0  0  0  0  0  0  0  0  0  0
  190.8030  175.5250  145.6960 C   0  0  0  0  0  0  0  0  0  0  0  0
  192.4110  173.3620  139.9300 C   0  0  0  0  0  0  0  0  0  0  0  0
  189.4980  173.5680  141.9390 C   0  0  0  0  0  0  0  0  0  0  0  0
  192.2640  173.5030  137.5470 C   0  0  0  0  0  3  0  0  0  0  0  0
  192.1840  175.0330  146.1090 C   0  0  0  0  0  2  0  0  0  0  0  0
  193.0450  173.2260  141.1830 N   0  0  0  0  0  0  0  0  0  0  0  0
  196.6510  173.5850  139.9670 C   0  0  0  0  0  1  0  0  0  0  0  0
  188.8890  173.7080  139.0690 O   0  0  0  0  0  0  0  0  0  0  0  0
  190.8610  173.4980  137.6190 C   0  0  0  0  0  3  0  0  0  0  0  0
  194.5200  173.4370  141.2780 C   0  0  0  0  0  2  0  0  0  0  0  0
  189.7240  174.4990  145.3870 C   0  0  0  0  0  2  0  0  0  0  0  0
  190.2460  173.8530  144.1690 C   0  0  1  0  0  3  0  0  0  0  0  0
  190.2630  173.4890  138.8910 C   0  0  0  0  0  0  0  0  0  0  0  0
  191.9690  172.8070  142.1110 C   0  0  1  0  0  3  0  0  0  0  0  0
  194.5610  173.4470  138.6120 C   0  0  0  0  0  2  0  0  0  0  0  0
  188.5660  174.5430  141.3830 C   0  0  0  0  0  0  0  0  0  0  0  0
  195.4300  171.5300  139.9310 C   0  0  0  0  0  1  0  0  0  0  0  0
  191.2650  172.9610  144.4530 O   0  0  0  0  0  0  0  0  0  0  0  0
  190.6580  176.6590  145.4240 O   0  0  0  0  0  0  0  0  0  0  0  0
  192.1970  173.4240  143.5040 C   0  0  2  0  0  3  0  0  0  0  0  0
  188.3390  174.5950  140.0450 C   0  0  0  0  0  3  0  0  0  0  0  0
  188.9830  176.7660  142.3020 N   0  0  0  0  0  0  0  0  0  0  0  0
  188.1510  175.7630  142.0980 C   0  0  0  0  0  0  0  0  0  0  0  0
  186.8340  175.7860  142.6710 C   0  0  0  0  0  3  0  0  0  0  0  0
  185.2220  176.9790  144.0900 O   0  0  0  0  0  1  0  0  0  0  0  0
  187.3570  177.9660  143.6170 C   0  0  0  0  0  3  0  0  0  0  0  0
  186.4940  176.9030  143.4420 C   0  0  0  0  0  0  0  0  0  0  0  0
  188.6420  177.8680  143.0110 C   0  0  0  0  0  3  0  0  0  0  0  0
  194.1640  176.7470  146.6220 C   0  0  0  0  0  1  0  0  0  0  0  0
  193.8160  176.4500  145.1630 C   0  0  0  0  0  2  0  0  0  0  0  0
  1  4  1  0  0  0  0
  2 14  1  0  0  0  0
  2 17  1  0  0  0  0
  3  7  1  0  0  0  0
  4 37  1  0  0  0  0
  4 12  1  0  0  0  0
  5 19  1  0  0  0  0
  6  9  2  0  0  0  0
  7 10  2  0  0  0  0
  8 12  1  0  0  0  0
  9  3  1  0  0  0  0
  9 13  1  0  0  0  0
 10  5  1  0  0  0  0
 11 16  2  0  0  0  0
 11  6  1  0  0  0  0
 13 17  1  0  0  0  0
 13 21  1  0  0  0  0
 15 28  1  0  0  0  0
 16 20  1  0  0  0  0
 18  8  1  0  0  0  0
 19 25  1  0  0  0  0
 19 18  1  1  0  0  0
 20 15  1  0  0  0  0
 20  3  2  0  0  0  0
 21  7  1  6  0  0  0
 21 27  1  0  0  0  0
 22  6  1  0  0  0  0
 22  2  1  0  0  0  0
 23 10  1  0  0  0  0
 23 30  1  0  0  0  0
 24  2  1  0  0  0  0
 26  8  2  0  0  0  0
 27  1  1  6  0  0  0
 27 25  1  0  0  0  0
 28 23  2  0  0  0  0
 29 35  1  0  0  0  0
 30 29  2  0  0  0  0
 30 31  1  0  0  0  0
 31 34  2  0  0  0  0
 34 33  1  0  0  0  0
 34 32  1  0  0  0  0
 35 33  2  0  0  0  0
 37 36  1  0  0  0  0
M  END
>  <MODEL>
9

>  <REMARK>
 VINA RESULT:      -7.2      2.343      7.484
  Name = 
  2 active torsions:
  status: ('A' for Active; 'I' for Inactive)
    1  A    between atoms: N_4  and  C_37
    2  A    between atoms: C_23  and  C_30
                            x       y       z     vdW  Elec       q    Type
                         _______ _______ _______ _____ _____    ______ ____

>  <TORSDO>
F 2

$$$$
