=
 OpenBabel11112417143D

 37 41  0  0  1  0  0  0  0  0999 V2000
  191.8310  170.9140  142.3530 C   0  0  1  0  0  0  0  0  0  0  0  0
  189.9240  174.6940  142.7040 C   0  0  1  0  0  3  0  0  0  0  0  0
  190.0230  172.4730  141.3460 C   0  0  2  0  0  3  0  0  0  0  0  0
  190.5930  175.1040  144.0320 C   0  0  2  0  0  3  0  0  0  0  0  0
  190.7080  173.4450  142.3160 C   0  0  2  0  0  3  0  0  0  0  0  0
  188.4970  172.5560  141.3900 C   0  0  0  0  0  2  0  0  0  0  0  0
  191.0190  172.7510  143.6170 C   0  0  1  0  0  3  0  0  0  0  0  0
  192.9140  171.1610  141.3170 C   0  0  0  0  0  1  0  0  0  0  0  0
  188.0540  173.9890  141.6500 C   0  0  0  0  0  2  0  0  0  0  0  0
  192.0550  171.8000  143.4560 O   0  0  0  0  0  0  0  0  0  0  0  0
  188.5580  174.3950  142.8940 O   0  0  0  0  0  0  0  0  0  0  0  0
  191.3470  173.8830  144.5880 C   0  0  1  0  0  3  0  0  0  0  0  0
  190.4480  171.0270  141.6520 C   0  0  0  0  0  2  0  0  0  0  0  0
  191.9700  169.6050  142.8090 O   0  0  0  0  0  1  0  0  0  0  0  0
  193.2780  175.1270  143.7660 O   0  0  0  0  0  0  0  0  0  0  0  0
  194.6810  175.1210  143.7770 C   0  0  2  0  0  3  0  0  0  0  0  0
  194.1800  176.8270  145.6490 C   0  0  2  0  0  3  0  0  0  0  0  0
  195.2280  176.2140  144.7080 C   0  0  0  0  0  2  0  0  0  0  0  0
  193.5050  175.8280  146.6090 C   0  0  1  0  0  3  0  0  0  0  0  0
  192.3160  176.3380  147.1320 O   0  0  0  0  0  1  0  0  0  0  0  0
  193.3270  174.3740  146.1390 C   0  0  0  0  0  2  0  0  0  0  0  0
  193.2370  177.5620  144.9240 O   0  0  0  0  0  1  0  0  0  0  0  0
  192.8560  174.1480  144.6860 C   0  0  1  0  0  3  0  0  0  0  0  0
  196.1980  176.2440  142.6280 C   0  0  0  0  0  1  0  0  0  0  0  0
  195.1630  175.3200  142.4840 O   0  0  0  0  0  0  0  0  0  0  0  0
  189.1730  174.8250  146.1270 C   0  0  0  0  0  1  0  0  0  0  0  0
  189.7030  175.8040  145.0810 C   0  0  2  0  0  3  0  0  0  0  0  0
  188.5680  176.6250  144.4440 C   0  0  1  0  0  3  0  0  0  0  0  0
  186.2160  176.5870  145.3040 C   0  0  0  0  0  3  0  0  0  0  0  0
  187.5360  177.0270  145.4590 C   0  0  0  0  0  0  0  0  0  0  0  0
  187.8730  177.8340  146.5570 C   0  0  0  0  0  3  0  0  0  0  0  0
  187.2250  178.9720  148.5490 F   0  0  0  0  0  0  0  0  0  0  0  0
  185.5790  177.7510  147.3300 C   0  0  0  0  0  3  0  0  0  0  0  0
  186.8960  178.1930  147.4900 C   0  0  0  0  0  0  0  0  0  0  0  0
  185.2390  176.9490  146.2370 C   0  0  0  0  0  3  0  0  0  0  0  0
  188.4370  178.0090  142.3650 C   0  0  0  0  0  1  0  0  0  0  0  0
  189.1050  177.8570  143.7180 C   0  0  0  0  0  2  0  0  0  0  0  0
  1  8  1  6  0  0  0
  1 14  1  0  0  0  0
  1 10  1  0  0  0  0
  2 11  1  1  0  0  0
  2  4  1  0  0  0  0
  3  6  1  1  0  0  0
  3 13  1  0  0  0  0
  3  5  1  0  0  0  0
  4 12  1  0  0  0  0
  4 27  1  1  0  0  0
  5  2  1  0  0  0  0
  5  7  1  0  0  0  0
  6  9  1  0  0  0  0
  7 12  1  0  0  0  0
  9 11  1  0  0  0  0
 10  7  1  0  0  0  0
 12 23  1  0  0  0  0
 13  1  1  0  0  0  0
 15 16  1  0  0  0  0
 15 23  1  0  0  0  0
 16 18  1  0  0  0  0
 17 19  1  0  0  0  0
 18 17  1  0  0  0  0
 19 20  1  0  0  0  0
 21 19  1  0  0  0  0
 22 17  1  0  0  0  0
 23 21  1  0  0  0  0
 25 24  1  0  0  0  0
 25 16  1  0  0  0  0
 27 26  1  0  0  0  0
 28 27  1  0  0  0  0
 28 30  1  0  0  0  0
 29 30  2  0  0  0  0
 29 35  1  0  0  0  0
 30 31  1  0  0  0  0
 31 34  2  0  0  0  0
 33 34  1  0  0  0  0
 34 32  1  0  0  0  0
 35 33  2  0  0  0  0
 36 37  1  0  0  0  0
 37 28  1  0  0  0  0
M  END
>  <MODEL>
1

>  <REMARK>
 VINA RESULT:      -7.9      0.000      0.000
  Name = 
  6 active torsions:
  status: ('A' for Active; 'I' for Inactive)
    1  A    between atoms: C_4  and  O_37
    2  A    between atoms: C_7  and  C_10
    3  A    between atoms: C_10  and  C_23
    4  A    between atoms: C_21  and  C_27
    5  A    between atoms: C_23  and  C_28
    6  A    between atoms: C_23  and  C_30
                            x       y       z     vdW  Elec       q    Type
                         _______ _______ _______ _____ _____    ______ ____

>  <TORSDO>
F 6

$$$$
=
 OpenBabel11112417143D

 37 41  0  0  1  0  0  0  0  0999 V2000
  195.5660  175.2220  142.8550 C   0  0  1  0  0  0  0  0  0  0  0  0
  192.1760  175.4720  145.4030 C   0  0  1  0  0  3  0  0  0  0  0  0
  194.7720  175.6530  145.2830 C   0  0  2  0  0  3  0  0  0  0  0  0
  191.1130  175.3490  144.2910 C   0  0  2  0  0  3  0  0  0  0  0  0
  193.4660  175.1450  144.6580 C   0  0  2  0  0  3  0  0  0  0  0  0
  194.5740  176.8820  146.1710 C   0  0  0  0  0  2  0  0  0  0  0  0
  193.2860  175.7270  143.2790 C   0  0  1  0  0  3  0  0  0  0  0  0
  196.0470  173.7940  143.0480 C   0  0  0  0  0  1  0  0  0  0  0  0
  193.2340  176.8040  146.8890 C   0  0  0  0  0  2  0  0  0  0  0  0
  194.2210  175.1800  142.3670 O   0  0  0  0  0  0  0  0  0  0  0  0
  192.2130  176.7800  145.9280 O   0  0  0  0  0  0  0  0  0  0  0  0
  191.8260  175.4480  142.9310 C   0  0  1  0  0  3  0  0  0  0  0  0
  195.7910  175.9980  144.1830 C   0  0  0  0  0  2  0  0  0  0  0  0
  196.3670  175.8120  141.8790 O   0  0  0  0  0  1  0  0  0  0  0  0
  191.7480  173.0090  142.9160 O   0  0  0  0  0  0  0  0  0  0  0  0
  191.8150  171.9080  142.0500 C   0  0  2  0  0  3  0  0  0  0  0  0
  189.2630  172.1460  142.3470 C   0  0  2  0  0  3  0  0  0  0  0  0
  190.4290  171.2760  141.8540 C   0  0  0  0  0  2  0  0  0  0  0  0
  189.1420  173.5220  141.6630 C   0  0  1  0  0  3  0  0  0  0  0  0
  188.3530  174.4000  142.4070 O   0  0  0  0  0  1  0  0  0  0  0  0
  190.4290  174.2070  141.1760 C   0  0  0  0  0  2  0  0  0  0  0  0
  189.2910  172.2630  143.7410 O   0  0  0  0  0  1  0  0  0  0  0  0
  191.6580  174.1610  142.1110 C   0  0  1  0  0  3  0  0  0  0  0  0
  192.6700  171.1570  143.9440 C   0  0  0  0  0  1  0  0  0  0  0  0
  192.6970  170.9580  142.5630 O   0  0  0  0  0  0  0  0  0  0  0  0
  190.2000  177.7140  144.0650 C   0  0  0  0  0  1  0  0  0  0  0  0
  189.8730  176.2610  144.4010 C   0  0  2  0  0  3  0  0  0  0  0  0
  189.1620  176.1370  145.7600 C   0  0  1  0  0  3  0  0  0  0  0  0
  186.9270  176.5620  144.7130 C   0  0  0  0  0  3  0  0  0  0  0  0
  187.8260  176.8250  145.7520 C   0  0  0  0  0  0  0  0  0  0  0  0
  187.4680  177.7240  146.7690 C   0  0  0  0  0  3  0  0  0  0  0  0
  185.8760  179.2180  147.7250 F   0  0  0  0  0  0  0  0  0  0  0  0
  185.3240  178.0850  145.7010 C   0  0  0  0  0  3  0  0  0  0  0  0
  186.2190  178.3510  146.7420 C   0  0  0  0  0  0  0  0  0  0  0  0
  185.6780  177.1910  144.6870 C   0  0  0  0  0  3  0  0  0  0  0  0
  189.0080  174.5570  147.6930 C   0  0  0  0  0  1  0  0  0  0  0  0
  189.0050  174.6770  146.1800 C   0  0  0  0  0  2  0  0  0  0  0  0
  1  8  1  1  0  0  0
  1 13  1  0  0  0  0
  2 11  1  6  0  0  0
  3 13  1  6  0  0  0
  3  6  1  0  0  0  0
  4 27  1  1  0  0  0
  4  2  1  0  0  0  0
  5  3  1  0  0  0  0
  5  2  1  0  0  0  0
  6  9  1  0  0  0  0
  7  5  1  0  0  0  0
 10  1  1  0  0  0  0
 10  7  1  0  0  0  0
 11  9  1  0  0  0  0
 12  7  1  0  0  0  0
 12  4  1  0  0  0  0
 14  1  1  0  0  0  0
 16 25  1  0  0  0  0
 16 15  1  0  0  0  0
 17 22  1  0  0  0  0
 18 16  1  0  0  0  0
 18 17  1  0  0  0  0
 19 17  1  0  0  0  0
 19 20  1  0  0  0  0
 21 19  1  0  0  0  0
 21 23  1  0  0  0  0
 23 15  1  0  0  0  0
 23 12  1  0  0  0  0
 25 24  1  0  0  0  0
 26 27  1  0  0  0  0
 27 28  1  0  0  0  0
 28 37  1  0  0  0  0
 29 30  1  0  0  0  0
 30 28  1  0  0  0  0
 30 31  2  0  0  0  0
 33 34  2  0  0  0  0
 34 31  1  0  0  0  0
 34 32  1  0  0  0  0
 35 29  2  0  0  0  0
 35 33  1  0  0  0  0
 37 36  1  0  0  0  0
M  END
>  <MODEL>
2

>  <REMARK>
 VINA RESULT:      -7.8      1.258      4.991
  Name = 
  6 active torsions:
  status: ('A' for Active; 'I' for Inactive)
    1  A    between atoms: C_4  and  O_37
    2  A    between atoms: C_7  and  C_10
    3  A    between atoms: C_10  and  C_23
    4  A    between atoms: C_21  and  C_27
    5  A    between atoms: C_23  and  C_28
    6  A    between atoms: C_23  and  C_30
                            x       y       z     vdW  Elec       q    Type
                         _______ _______ _______ _____ _____    ______ ____

>  <TORSDO>
F 6

$$$$
=
 OpenBabel11112417143D

 37 41  0  0  1  0  0  0  0  0999 V2000
  195.2680  175.9080  142.1950 C   0  0  1  0  0  0  0  0  0  0  0  0
  193.0330  175.2370  145.7460 C   0  0  1  0  0  3  0  0  0  0  0  0
  195.2540  176.1890  144.7700 C   0  0  2  0  0  3  0  0  0  0  0  0
  191.7460  174.7470  145.0510 C   0  0  2  0  0  3  0  0  0  0  0  0
  194.0290  175.2820  144.5910 C   0  0  2  0  0  3  0  0  0  0  0  0
  195.0110  177.3390  145.7480 C   0  0  0  0  0  2  0  0  0  0  0  0
  193.2270  175.7190  143.3920 C   0  0  1  0  0  3  0  0  0  0  0  0
  196.1900  174.7030  142.1260 C   0  0  0  0  0  1  0  0  0  0  0  0
  194.0830  176.8930  146.8690 C   0  0  0  0  0  2  0  0  0  0  0  0
  193.9150  175.4390  142.1870 O   0  0  0  0  0  0  0  0  0  0  0  0
  192.8530  176.5180  146.3080 O   0  0  0  0  0  0  0  0  0  0  0  0
  191.8900  174.9950  143.5400 C   0  0  1  0  0  3  0  0  0  0  0  0
  195.6860  176.7760  143.4160 C   0  0  0  0  0  2  0  0  0  0  0  0
  195.4740  176.6680  141.0450 O   0  0  0  0  0  1  0  0  0  0  0  0
  191.7000  172.5640  143.5880 O   0  0  0  0  0  0  0  0  0  0  0  0
  191.9060  171.4250  142.7950 C   0  0  2  0  0  3  0  0  0  0  0  0
  189.3650  171.7760  142.5020 C   0  0  2  0  0  3  0  0  0  0  0  0
  190.5690  170.8410  142.3120 C   0  0  0  0  0  2  0  0  0  0  0  0
  189.4670  173.1260  141.7640 C   0  0  1  0  0  3  0  0  0  0  0  0
  188.5750  174.0650  142.2820 O   0  0  0  0  0  1  0  0  0  0  0  0
  190.8630  173.7380  141.5570 C   0  0  0  0  0  2  0  0  0  0  0  0
  189.0870  171.9520  143.8610 O   0  0  0  0  0  1  0  0  0  0  0  0
  191.8480  173.6820  142.7460 C   0  0  1  0  0  3  0  0  0  0  0  0
  192.3880  169.2690  142.8350 C   0  0  0  0  0  1  0  0  0  0  0  0
  192.6030  170.4630  143.5250 O   0  0  0  0  0  0  0  0  0  0  0  0
  189.4560  174.0940  145.9510 C   0  0  0  0  0  1  0  0  0  0  0  0
  190.4040  175.2460  145.6280 C   0  0  2  0  0  3  0  0  0  0  0  0
  189.7310  176.3050  144.7370 C   0  0  1  0  0  3  0  0  0  0  0  0
  187.3230  176.5180  144.0800 C   0  0  0  0  0  3  0  0  0  0  0  0
  188.2840  176.4960  145.0980 C   0  0  0  0  0  0  0  0  0  0  0  0
  187.8840  176.6510  146.4330 C   0  0  0  0  0  3  0  0  0  0  0  0
  186.1490  176.9760  148.0360 F   0  0  0  0  0  0  0  0  0  0  0  0
  185.5770  176.8470  145.7250 C   0  0  0  0  0  3  0  0  0  0  0  0
  186.5330  176.8260  146.7450 C   0  0  0  0  0  0  0  0  0  0  0  0
  185.9720  176.6940  144.3930 C   0  0  0  0  0  3  0  0  0  0  0  0
  190.5450  178.2630  143.4110 C   0  0  0  0  0  1  0  0  0  0  0  0
  190.4720  177.6390  144.7920 C   0  0  0  0  0  2  0  0  0  0  0  0
  1  8  1  6  0  0  0
  1 13  1  0  0  0  0
  2 11  1  6  0  0  0
  3 13  1  6  0  0  0
  3  6  1  0  0  0  0
  4 27  1  1  0  0  0
  4  2  1  0  0  0  0
  5  3  1  0  0  0  0
  5  2  1  0  0  0  0
  6  9  1  0  0  0  0
  7 12  1  0  0  0  0
  7  5  1  0  0  0  0
 10  1  1  0  0  0  0
 10  7  1  0  0  0  0
 11  9  1  0  0  0  0
 12  4  1  0  0  0  0
 14  1  1  0  0  0  0
 16 25  1  0  0  0  0
 16 15  1  0  0  0  0
 17 22  1  0  0  0  0
 18 17  1  0  0  0  0
 18 16  1  0  0  0  0
 19 20  1  0  0  0  0
 19 17  1  0  0  0  0
 21 19  1  0  0  0  0
 21 23  1  0  0  0  0
 23 12  1  0  0  0  0
 23 15  1  0  0  0  0
 24 25  1  0  0  0  0
 27 26  1  0  0  0  0
 28 37  1  0  0  0  0
 28 30  1  0  0  0  0
 28 27  1  0  0  0  0
 29 35  2  0  0  0  0
 29 30  1  0  0  0  0
 30 31  2  0  0  0  0
 31 34  1  0  0  0  0
 33 34  2  0  0  0  0
 34 32  1  0  0  0  0
 35 33  1  0  0  0  0
 36 37  1  0  0  0  0
M  END
>  <MODEL>
3

>  <REMARK>
 VINA RESULT:      -7.8      1.285      5.079
  Name = 
  6 active torsions:
  status: ('A' for Active; 'I' for Inactive)
    1  A    between atoms: C_4  and  O_37
    2  A    between atoms: C_7  and  C_10
    3  A    between atoms: C_10  and  C_23
    4  A    between atoms: C_21  and  C_27
    5  A    between atoms: C_23  and  C_28
    6  A    between atoms: C_23  and  C_30
                            x       y       z     vdW  Elec       q    Type
                         _______ _______ _______ _____ _____    ______ ____

>  <TORSDO>
F 6

$$$$
=
 OpenBabel11112417143D

 37 41  0  0  1  0  0  0  0  0999 V2000
  186.1500  177.5050  142.7270 C   0  0  1  0  0  0  0  0  0  0  0  0
  188.7060  177.5320  146.1220 C   0  0  1  0  0  3  0  0  0  0  0  0
  186.5560  178.5540  145.0610 C   0  0  2  0  0  3  0  0  0  0  0  0
  189.5910  176.3470  145.6820 C   0  0  2  0  0  3  0  0  0  0  0  0
  187.8820  177.8050  144.8670 C   0  0  2  0  0  3  0  0  0  0  0  0
  185.9670  178.3780  146.4620 C   0  0  0  0  0  2  0  0  0  0  0  0
  187.6320  176.4520  144.2530 C   0  0  1  0  0  3  0  0  0  0  0  0
  186.6640  178.6640  141.8910 C   0  0  0  0  0  1  0  0  0  0  0  0
  187.0810  178.2900  147.4960 C   0  0  0  0  0  2  0  0  0  0  0  0
  187.2200  176.5700  142.9040 O   0  0  0  0  0  0  0  0  0  0  0  0
  187.8750  177.1720  147.2030 O   0  0  0  0  0  0  0  0  0  0  0  0
  188.9430  175.6920  144.4500 C   0  0  1  0  0  3  0  0  0  0  0  0
  185.5200  178.0810  144.0280 C   0  0  0  0  0  2  0  0  0  0  0  0
  185.1360  176.8780  142.0070 O   0  0  0  0  0  1  0  0  0  0  0  0
  191.2100  175.5930  143.5550 O   0  0  0  0  0  0  0  0  0  0  0  0
  191.9620  175.9190  142.4170 C   0  0  2  0  0  3  0  0  0  0  0  0
  191.5250  173.4070  142.0160 C   0  0  2  0  0  3  0  0  0  0  0  0
  192.3180  174.6590  141.6130 C   0  0  0  0  0  2  0  0  0  0  0  0
  189.9960  173.5270  141.8570 C   0  0  1  0  0  3  0  0  0  0  0  0
  189.3230  172.5530  142.5960 O   0  0  0  0  0  1  0  0  0  0  0  0
  189.3520  174.9110  142.0440 C   0  0  0  0  0  2  0  0  0  0  0  0
  191.8780  172.9930  143.3040 O   0  0  0  0  0  1  0  0  0  0  0  0
  189.8550  175.7780  143.2190 C   0  0  1  0  0  3  0  0  0  0  0  0
  194.1260  176.0380  141.9840 C   0  0  0  0  0  1  0  0  0  0  0  0
  193.1300  176.5800  142.7970 O   0  0  0  0  0  0  0  0  0  0  0  0
  188.8130  174.9160  147.6380 C   0  0  0  0  0  1  0  0  0  0  0  0
  189.9990  175.3330  146.7710 C   0  0  2  0  0  3  0  0  0  0  0  0
  191.1830  175.8200  147.6240 C   0  0  1  0  0  3  0  0  0  0  0  0
  192.8870  174.4130  146.4440 C   0  0  0  0  0  3  0  0  0  0  0  0
  192.4890  175.6780  146.8930 C   0  0  0  0  0  0  0  0  0  0  0  0
  193.3120  176.7890  146.6560 C   0  0  0  0  0  3  0  0  0  0  0  0
  195.3140  177.7080  145.7450 F   0  0  0  0  0  0  0  0  0  0  0  0
  194.9150  175.3680  145.5260 C   0  0  0  0  0  3  0  0  0  0  0  0
  194.5220  176.6330  145.9730 C   0  0  0  0  0  0  0  0  0  0  0  0
  194.0980  174.2580  145.7620 C   0  0  0  0  0  3  0  0  0  0  0  0
  191.5670  177.4590  149.4740 C   0  0  0  0  0  1  0  0  0  0  0  0
  190.9880  177.2630  148.0850 C   0  0  0  0  0  2  0  0  0  0  0  0
  1  8  1  6  0  0  0
  1 10  1  0  0  0  0
  1 13  1  0  0  0  0
  2 11  1  1  0  0  0
  3 13  1  6  0  0  0
  3  6  1  0  0  0  0
  4  2  1  0  0  0  0
  4 27  1  1  0  0  0
  5  3  1  0  0  0  0
  5  2  1  0  0  0  0
  6  9  1  0  0  0  0
  7 12  1  0  0  0  0
  7  5  1  0  0  0  0
 10  7  1  0  0  0  0
 11  9  1  0  0  0  0
 12  4  1  0  0  0  0
 14  1  1  0  0  0  0
 16 25  1  0  0  0  0
 16 15  1  0  0  0  0
 17 22  1  0  0  0  0
 18 17  1  0  0  0  0
 18 16  1  0  0  0  0
 19 17  1  0  0  0  0
 19 21  1  0  0  0  0
 19 20  1  0  0  0  0
 21 23  1  0  0  0  0
 23 15  1  0  0  0  0
 23 12  1  0  0  0  0
 24 25  1  0  0  0  0
 27 28  1  0  0  0  0
 27 26  1  0  0  0  0
 28 37  1  0  0  0  0
 29 30  1  0  0  0  0
 30 28  1  0  0  0  0
 31 30  2  0  0  0  0
 32 34  1  0  0  0  0
 33 35  1  0  0  0  0
 33 34  2  0  0  0  0
 34 31  1  0  0  0  0
 35 29  2  0  0  0  0
 37 36  1  0  0  0  0
M  END
>  <MODEL>
4

>  <REMARK>
 VINA RESULT:      -7.4      2.410      6.306
  Name = 
  6 active torsions:
  status: ('A' for Active; 'I' for Inactive)
    1  A    between atoms: C_4  and  O_37
    2  A    between atoms: C_7  and  C_10
    3  A    between atoms: C_10  and  C_23
    4  A    between atoms: C_21  and  C_27
    5  A    between atoms: C_23  and  C_28
    6  A    between atoms: C_23  and  C_30
                            x       y       z     vdW  Elec       q    Type
                         _______ _______ _______ _____ _____    ______ ____

>  <TORSDO>
F 6

$$$$
=
 OpenBabel11112417143D

 37 41  0  0  1  0  0  0  0  0999 V2000
  187.3060  176.5170  142.9510 C   0  0  1  0  0  0  0  0  0  0  0  0
  191.5210  175.9850  142.9270 C   0  0  1  0  0  3  0  0  0  0  0  0
  189.5910  177.7230  143.1370 C   0  0  2  0  0  3  0  0  0  0  0  0
  191.5020  174.4430  142.9050 C   0  0  2  0  0  3  0  0  0  0  0  0
  190.0560  176.3320  142.6840 C   0  0  2  0  0  3  0  0  0  0  0  0
  190.4400  178.2990  144.2720 C   0  0  0  0  0  2  0  0  0  0  0  0
  189.2710  175.2610  143.3960 C   0  0  1  0  0  3  0  0  0  0  0  0
  186.9910  176.8970  141.5150 C   0  0  0  0  0  1  0  0  0  0  0  0
  191.8920  177.8710  144.1150 C   0  0  0  0  0  2  0  0  0  0  0  0
  187.9280  175.2270  142.9470 O   0  0  0  0  0  0  0  0  0  0  0  0
  191.9550  176.4710  144.1780 O   0  0  0  0  0  0  0  0  0  0  0  0
  190.0550  173.9760  143.1420 C   0  0  1  0  0  3  0  0  0  0  0  0
  188.1240  177.6710  143.5950 C   0  0  0  0  0  2  0  0  0  0  0  0
  186.0990  176.4170  143.6390 O   0  0  0  0  0  1  0  0  0  0  0  0
  190.2100  173.4930  140.7550 O   0  0  0  0  0  0  0  0  0  0  0  0
  189.4950  172.9100  139.6980 C   0  0  2  0  0  3  0  0  0  0  0  0
  191.0700  170.9730  140.3540 C   0  0  2  0  0  3  0  0  0  0  0  0
  190.0850  171.5430  139.3220 C   0  0  0  0  0  2  0  0  0  0  0  0
  190.4790  170.7460  141.7600 C   0  0  1  0  0  3  0  0  0  0  0  0
  191.4780  170.6240  142.7250 O   0  0  0  0  0  1  0  0  0  0  0  0
  189.3560  171.6820  142.2360 C   0  0  0  0  0  2  0  0  0  0  0  0
  192.2340  171.7460  140.4030 O   0  0  0  0  0  1  0  0  0  0  0  0
  189.5120  173.1900  141.9400 C   0  0  1  0  0  3  0  0  0  0  0  0
  188.1920  174.1360  138.4010 C   0  0  0  0  0  1  0  0  0  0  0  0
  189.5210  173.7560  138.5890 O   0  0  0  0  0  0  0  0  0  0  0  0
  192.1780  173.8060  145.2750 C   0  0  0  0  0  1  0  0  0  0  0  0
  192.5330  173.7150  143.7930 C   0  0  2  0  0  3  0  0  0  0  0  0
  193.9770  174.1730  143.5250 C   0  0  1  0  0  3  0  0  0  0  0  0
  195.0780  171.9920  144.0780 C   0  0  0  0  0  3  0  0  0  0  0  0
  194.9710  173.3680  144.3130 C   0  0  0  0  0  0  0  0  0  0  0  0
  195.7910  173.9710  145.2790 C   0  0  0  0  0  3  0  0  0  0  0  0
  197.5010  173.7890  146.9300 F   0  0  0  0  0  0  0  0  0  0  0  0
  196.8120  171.8280  145.7600 C   0  0  0  0  0  3  0  0  0  0  0  0
  196.7100  173.2020  145.9990 C   0  0  0  0  0  0  0  0  0  0  0  0
  195.9960  171.2240  144.8000 C   0  0  0  0  0  3  0  0  0  0  0  0
  194.9680  175.4200  141.5960 C   0  0  0  0  0  1  0  0  0  0  0  0
  194.3150  174.1230  142.0360 C   0  0  0  0  0  2  0  0  0  0  0  0
  1  8  1  6  0  0  0
  1 13  1  0  0  0  0
  1 14  1  0  0  0  0
  2 11  1  1  0  0  0
  3 13  1  1  0  0  0
  3  6  1  0  0  0  0
  4  2  1  0  0  0  0
  4 12  1  0  0  0  0
  4 27  1  1  0  0  0
  5  2  1  0  0  0  0
  5  3  1  0  0  0  0
  5  7  1  0  0  0  0
  9 11  1  0  0  0  0
  9  6  1  0  0  0  0
 10  1  1  0  0  0  0
 10  7  1  0  0  0  0
 12  7  1  0  0  0  0
 15 23  1  0  0  0  0
 16 15  1  0  0  0  0
 17 22  1  0  0  0  0
 17 19  1  0  0  0  0
 18 16  1  0  0  0  0
 18 17  1  0  0  0  0
 19 21  1  0  0  0  0
 19 20  1  0  0  0  0
 23 21  1  0  0  0  0
 23 12  1  0  0  0  0
 24 25  1  0  0  0  0
 25 16  1  0  0  0  0
 27 26  1  0  0  0  0
 28 27  1  0  0  0  0
 28 30  1  0  0  0  0
 29 30  2  0  0  0  0
 29 35  1  0  0  0  0
 30 31  1  0  0  0  0
 31 34  2  0  0  0  0
 33 34  1  0  0  0  0
 34 32  1  0  0  0  0
 35 33  2  0  0  0  0
 36 37  1  0  0  0  0
 37 28  1  0  0  0  0
M  END
>  <MODEL>
5

>  <REMARK>
 VINA RESULT:      -6.9      2.943      7.351
  Name = 
  6 active torsions:
  status: ('A' for Active; 'I' for Inactive)
    1  A    between atoms: C_4  and  O_37
    2  A    between atoms: C_7  and  C_10
    3  A    between atoms: C_10  and  C_23
    4  A    between atoms: C_21  and  C_27
    5  A    between atoms: C_23  and  C_28
    6  A    between atoms: C_23  and  C_30
                            x       y       z     vdW  Elec       q    Type
                         _______ _______ _______ _____ _____    ______ ____

>  <TORSDO>
F 6

$$$$
=
 OpenBabel11112417143D

 37 41  0  0  1  0  0  0  0  0999 V2000
  191.7660  172.0290  140.2840 C   0  0  1  0  0  0  0  0  0  0  0  0
  190.1220  175.0400  142.7910 C   0  0  1  0  0  3  0  0  0  0  0  0
  189.7230  173.5740  140.6740 C   0  0  2  0  0  3  0  0  0  0  0  0
  191.2220  174.9880  143.8700 C   0  0  2  0  0  3  0  0  0  0  0  0
  190.7120  174.1750  141.6820 C   0  0  2  0  0  3  0  0  0  0  0  0
  188.3130  173.4080  141.2420 C   0  0  0  0  0  2  0  0  0  0  0  0
  191.4640  173.0790  142.3910 C   0  0  1  0  0  3  0  0  0  0  0  0
  192.4090  172.8200  139.1590 C   0  0  0  0  0  1  0  0  0  0  0  0
  187.9960  174.5410  142.2090 C   0  0  0  0  0  2  0  0  0  0  0  0
  192.3710  172.4320  141.5180 O   0  0  0  0  0  0  0  0  0  0  0  0
  188.9130  174.4930  143.2690 O   0  0  0  0  0  0  0  0  0  0  0  0
  192.1210  173.7720  143.5840 C   0  0  1  0  0  3  0  0  0  0  0  0
  190.2240  172.2040  140.1870 C   0  0  0  0  0  2  0  0  0  0  0  0
  192.0540  170.6820  140.0750 O   0  0  0  0  0  1  0  0  0  0  0  0
  193.6460  175.5410  142.8760 O   0  0  0  0  0  0  0  0  0  0  0  0
  194.9530  175.7510  142.4150 C   0  0  2  0  0  3  0  0  0  0  0  0
  195.2210  176.3050  144.9210 C   0  0  2  0  0  3  0  0  0  0  0  0
  195.8330  176.3660  143.5130 C   0  0  0  0  0  2  0  0  0  0  0  0
  194.9210  174.8840  145.4390 C   0  0  1  0  0  3  0  0  0  0  0  0
  194.0220  174.9040  146.5060 O   0  0  0  0  0  1  0  0  0  0  0  0
  194.5450  173.8010  144.4150 C   0  0  0  0  0  2  0  0  0  0  0  0
  194.0970  177.1330  145.0060 O   0  0  0  0  0  1  0  0  0  0  0  0
  193.5660  174.1960  143.2870 C   0  0  1  0  0  3  0  0  0  0  0  0
  194.9450  175.7350  140.2050 C   0  0  0  0  0  1  0  0  0  0  0  0
  194.9310  176.5940  141.3040 O   0  0  0  0  0  0  0  0  0  0  0  0
  189.5590  174.1890  145.6240 C   0  0  0  0  0  1  0  0  0  0  0  0
  190.7670  175.0790  145.3420 C   0  0  2  0  0  3  0  0  0  0  0  0
  190.5260  176.5280  145.8010 C   0  0  1  0  0  3  0  0  0  0  0  0
  188.6100  177.5970  144.5930 C   0  0  0  0  0  3  0  0  0  0  0  0
  189.0730  176.9030  145.7170 C   0  0  0  0  0  0  0  0  0  0  0  0
  188.1770  176.5700  146.7440 C   0  0  0  0  0  3  0  0  0  0  0  0
  185.9670  176.6030  147.6360 F   0  0  0  0  0  0  0  0  0  0  0  0
  186.3720  177.6210  145.5180 C   0  0  0  0  0  3  0  0  0  0  0  0
  186.8300  176.9270  146.6430 C   0  0  0  0  0  0  0  0  0  0  0  0
  187.2620  177.9560  144.4940 C   0  0  0  0  0  3  0  0  0  0  0  0
  191.2270  175.4470  147.9450 C   0  0  0  0  0  1  0  0  0  0  0  0
  191.0540  176.7650  147.2140 C   0  0  0  0  0  2  0  0  0  0  0  0
  1  8  1  6  0  0  0
  1 10  1  0  0  0  0
  2 11  1  1  0  0  0
  2  4  1  0  0  0  0
  3 13  1  1  0  0  0
  3  6  1  0  0  0  0
  3  5  1  0  0  0  0
  4 27  1  1  0  0  0
  5  7  1  0  0  0  0
  5  2  1  0  0  0  0
  6  9  1  0  0  0  0
  7 12  1  0  0  0  0
  9 11  1  0  0  0  0
 10  7  1  0  0  0  0
 12  4  1  0  0  0  0
 13  1  1  0  0  0  0
 14  1  1  0  0  0  0
 15 23  1  0  0  0  0
 16 15  1  0  0  0  0
 16 18  1  0  0  0  0
 17 22  1  0  0  0  0
 17 19  1  0  0  0  0
 18 17  1  0  0  0  0
 19 20  1  0  0  0  0
 21 19  1  0  0  0  0
 23 12  1  0  0  0  0
 23 21  1  0  0  0  0
 24 25  1  0  0  0  0
 25 16  1  0  0  0  0
 27 26  1  0  0  0  0
 27 28  1  0  0  0  0
 28 37  1  0  0  0  0
 29 30  1  0  0  0  0
 30 28  1  0  0  0  0
 30 31  2  0  0  0  0
 33 34  2  0  0  0  0
 34 31  1  0  0  0  0
 34 32  1  0  0  0  0
 35 29  2  0  0  0  0
 35 33  1  0  0  0  0
 37 36  1  0  0  0  0
M  END
>  <MODEL>
6

>  <REMARK>
 VINA RESULT:      -6.9      1.614      2.197
  Name = 
  6 active torsions:
  status: ('A' for Active; 'I' for Inactive)
    1  A    between atoms: C_4  and  O_37
    2  A    between atoms: C_7  and  C_10
    3  A    between atoms: C_10  and  C_23
    4  A    between atoms: C_21  and  C_27
    5  A    between atoms: C_23  and  C_28
    6  A    between atoms: C_23  and  C_30
                            x       y       z     vdW  Elec       q    Type
                         _______ _______ _______ _____ _____    ______ ____

>  <TORSDO>
F 6

$$$$
=
 OpenBabel11112417143D

 37 41  0  0  1  0  0  0  0  0999 V2000
  194.7360  175.5250  145.0750 C   0  0  1  0  0  0  0  0  0  0  0  0
  190.6280  174.6320  145.6890 C   0  0  1  0  0  3  0  0  0  0  0  0
  192.8540  175.3370  146.8450 C   0  0  2  0  0  3  0  0  0  0  0  0
  190.2510  174.5100  144.1980 C   0  0  2  0  0  3  0  0  0  0  0  0
  192.1500  174.7070  145.6350 C   0  0  2  0  0  3  0  0  0  0  0  0
  191.9660  176.3170  147.6130 C   0  0  0  0  0  2  0  0  0  0  0  0
  192.4650  175.4870  144.3850 C   0  0  1  0  0  3  0  0  0  0  0  0
  195.4310  174.2090  145.3750 C   0  0  0  0  0  1  0  0  0  0  0  0
  190.5180  175.8470  147.5900 C   0  0  0  0  0  2  0  0  0  0  0  0
  193.8160  175.3120  143.9980 O   0  0  0  0  0  0  0  0  0  0  0  0
  190.0840  175.8020  146.2580 O   0  0  0  0  0  0  0  0  0  0  0  0
  191.4460  174.9970  143.3580 C   0  0  1  0  0  3  0  0  0  0  0  0
  194.1290  176.0720  146.3980 C   0  0  0  0  0  2  0  0  0  0  0  0
  195.7050  176.4310  144.6470 O   0  0  0  0  0  1  0  0  0  0  0  0
  191.5550  172.6060  142.8810 O   0  0  0  0  0  0  0  0  0  0  0  0
  192.2980  171.6570  142.1640 C   0  0  2  0  0  3  0  0  0  0  0  0
  190.3170  172.0490  140.5570 C   0  0  2  0  0  3  0  0  0  0  0  0
  191.5290  171.1790  140.9230 C   0  0  0  0  0  2  0  0  0  0  0  0
  190.6440  173.5220  140.2430 C   0  0  1  0  0  3  0  0  0  0  0  0
  189.5090  174.3300  140.3190 O   0  0  0  0  0  1  0  0  0  0  0  0
  191.8380  174.1710  140.9640 C   0  0  0  0  0  2  0  0  0  0  0  0
  189.3190  171.9380  141.5300 O   0  0  0  0  0  1  0  0  0  0  0  0
  192.0060  173.8760  142.4710 C   0  0  1  0  0  3  0  0  0  0  0  0
  192.5280  171.0760  144.2830 C   0  0  0  0  0  1  0  0  0  0  0  0
  192.5900  170.5690  142.9850 O   0  0  0  0  0  0  0  0  0  0  0  0
  188.1010  174.1760  142.8760 C   0  0  0  0  0  1  0  0  0  0  0  0
  188.9050  175.1260  143.7610 C   0  0  2  0  0  3  0  0  0  0  0  0
  189.0680  176.5100  143.1100 C   0  0  1  0  0  3  0  0  0  0  0  0
  186.6760  177.2430  143.2350 C   0  0  0  0  0  3  0  0  0  0  0  0
  187.7990  176.9650  142.4460 C   0  0  0  0  0  0  0  0  0  0  0  0
  187.7220  177.1150  141.0530 C   0  0  0  0  0  3  0  0  0  0  0  0
  186.4610  177.6840  139.1120 F   0  0  0  0  0  0  0  0  0  0  0  0
  185.4130  177.8170  141.2500 C   0  0  0  0  0  3  0  0  0  0  0  0
  186.5310  177.5400  140.4580 C   0  0  0  0  0  0  0  0  0  0  0  0
  185.4850  177.6670  142.6380 C   0  0  0  0  0  3  0  0  0  0  0  0
  190.6290  178.4220  143.5130 C   0  0  0  0  0  1  0  0  0  0  0  0
  189.5420  177.5540  144.1190 C   0  0  0  0  0  2  0  0  0  0  0  0
  1  8  1  1  0  0  0
  1 13  1  0  0  0  0
  2 11  1  6  0  0  0
  3 13  1  6  0  0  0
  3  6  1  0  0  0  0
  4 27  1  1  0  0  0
  4  2  1  0  0  0  0
  5  2  1  0  0  0  0
  5  3  1  0  0  0  0
  7  5  1  0  0  0  0
  9  6  1  0  0  0  0
 10  7  1  0  0  0  0
 10  1  1  0  0  0  0
 11  9  1  0  0  0  0
 12  4  1  0  0  0  0
 12  7  1  0  0  0  0
 14  1  1  0  0  0  0
 16 15  1  0  0  0  0
 16 25  1  0  0  0  0
 17 18  1  0  0  0  0
 17 22  1  0  0  0  0
 18 16  1  0  0  0  0
 19 20  1  0  0  0  0
 19 17  1  0  0  0  0
 19 21  1  0  0  0  0
 21 23  1  0  0  0  0
 23 15  1  0  0  0  0
 23 12  1  0  0  0  0
 25 24  1  0  0  0  0
 26 27  1  0  0  0  0
 28 27  1  0  0  0  0
 28 37  1  0  0  0  0
 30 28  1  0  0  0  0
 30 29  2  0  0  0  0
 31 30  1  0  0  0  0
 32 34  1  0  0  0  0
 33 35  2  0  0  0  0
 34 31  2  0  0  0  0
 34 33  1  0  0  0  0
 35 29  1  0  0  0  0
 36 37  1  0  0  0  0
M  END
>  <MODEL>
7

>  <REMARK>
 VINA RESULT:      -6.8      2.501      5.466
  Name = 
  6 active torsions:
  status: ('A' for Active; 'I' for Inactive)
    1  A    between atoms: C_4  and  O_37
    2  A    between atoms: C_7  and  C_10
    3  A    between atoms: C_10  and  C_23
    4  A    between atoms: C_21  and  C_27
    5  A    between atoms: C_23  and  C_28
    6  A    between atoms: C_23  and  C_30
                            x       y       z     vdW  Elec       q    Type
                         _______ _______ _______ _____ _____    ______ ____

>  <TORSDO>
F 6

$$$$
=
 OpenBabel11112417143D

 37 41  0  0  1  0  0  0  0  0999 V2000
  187.8510  176.3040  141.7030 C   0  0  1  0  0  0  0  0  0  0  0  0
  190.7470  173.2870  142.4550 C   0  0  1  0  0  3  0  0  0  0  0  0
  188.5270  173.8520  141.2120 C   0  0  2  0  0  3  0  0  0  0  0  0
  191.7400  174.1850  143.2210 C   0  0  2  0  0  3  0  0  0  0  0  0
  189.5210  174.1870  142.3330 C   0  0  2  0  0  3  0  0  0  0  0  0
  189.1700  173.1030  140.0440 C   0  0  0  0  0  2  0  0  0  0  0  0
  190.0670  175.5790  142.1470 C   0  0  1  0  0  3  0  0  0  0  0  0
  186.7680  176.0160  142.7280 C   0  0  0  0  0  1  0  0  0  0  0  0
  190.2630  172.1720  140.5500 C   0  0  0  0  0  2  0  0  0  0  0  0
  189.0750  176.5560  142.4020 O   0  0  0  0  0  0  0  0  0  0  0  0
  191.2490  172.9420  141.1830 O   0  0  0  0  0  0  0  0  0  0  0  0
  191.2750  175.6460  143.0800 C   0  0  1  0  0  3  0  0  0  0  0  0
  187.8760  175.1380  140.6750 C   0  0  0  0  0  2  0  0  0  0  0  0
  187.4920  177.4640  141.0190 O   0  0  0  0  0  1  0  0  0  0  0  0
  190.5800  175.2770  145.3900 O   0  0  0  0  0  0  0  0  0  0  0  0
  190.0620  175.9480  146.5070 C   0  0  2  0  0  3  0  0  0  0  0  0
  192.5760  175.8950  147.0870 C   0  0  2  0  0  3  0  0  0  0  0  0
  191.1430  176.1500  147.5790 C   0  0  0  0  0  2  0  0  0  0  0  0
  193.0350  176.7970  145.9250 C   0  0  1  0  0  3  0  0  0  0  0  0
  194.1470  176.2680  145.2700 O   0  0  0  0  0  1  0  0  0  0  0  0
  191.9780  177.2840  144.9210 C   0  0  0  0  0  2  0  0  0  0  0  0
  192.7620  174.5400  146.7930 O   0  0  0  0  0  1  0  0  0  0  0  0
  190.9240  176.2600  144.4430 C   0  0  1  0  0  3  0  0  0  0  0  0
  187.8870  176.0510  146.8880 C   0  0  0  0  0  1  0  0  0  0  0  0
  188.9980  175.2210  147.0420 O   0  0  0  0  0  0  0  0  0  0  0  0
  193.5700  174.2570  141.4530 C   0  0  0  0  0  1  0  0  0  0  0  0
  193.2400  173.9890  142.9200 C   0  0  2  0  0  3  0  0  0  0  0  0
  193.7640  172.6180  143.3800 C   0  0  1  0  0  3  0  0  0  0  0  0
  196.2190  172.4210  142.9230 C   0  0  0  0  0  3  0  0  0  0  0  0
  195.1940  172.6940  143.8360 C   0  0  0  0  0  0  0  0  0  0  0  0
  195.5160  173.0320  145.1600 C   0  0  0  0  0  3  0  0  0  0  0  0
  197.1600  173.4260  146.8400 F   0  0  0  0  0  0  0  0  0  0  0  0
  197.8730  172.8260  144.6450 C   0  0  0  0  0  3  0  0  0  0  0  0
  196.8530  173.0990  145.5610 C   0  0  0  0  0  0  0  0  0  0  0  0
  197.5560  172.4860  143.3270 C   0  0  0  0  0  3  0  0  0  0  0  0
  192.6920  170.5330  144.2530 C   0  0  0  0  0  1  0  0  0  0  0  0
  192.8870  172.0210  144.4790 C   0  0  0  0  0  2  0  0  0  0  0  0
  1 10  1  0  0  0  0
  1  8  1  1  0  0  0
  2 11  1  6  0  0  0
  2  4  1  0  0  0  0
  3  6  1  6  0  0  0
  3  5  1  0  0  0  0
  4 27  1  6  0  0  0
  5  2  1  0  0  0  0
  6  9  1  0  0  0  0
  7  5  1  0  0  0  0
  7 10  1  0  0  0  0
  7 12  1  0  0  0  0
  9 11  1  0  0  0  0
 12  4  1  0  0  0  0
 12 23  1  0  0  0  0
 13  3  1  0  0  0  0
 13  1  1  0  0  0  0
 14  1  1  0  0  0  0
 15 16  1  0  0  0  0
 16 25  1  0  0  0  0
 16 18  1  0  0  0  0
 17 18  1  0  0  0  0
 19 17  1  0  0  0  0
 20 19  1  0  0  0  0
 21 19  1  0  0  0  0
 22 17  1  0  0  0  0
 23 21  1  0  0  0  0
 23 15  1  0  0  0  0
 24 25  1  0  0  0  0
 26 27  1  0  0  0  0
 27 28  1  0  0  0  0
 28 30  1  0  0  0  0
 28 37  1  0  0  0  0
 29 35  2  0  0  0  0
 29 30  1  0  0  0  0
 30 31  2  0  0  0  0
 31 34  1  0  0  0  0
 33 34  2  0  0  0  0
 34 32  1  0  0  0  0
 35 33  1  0  0  0  0
 36 37  1  0  0  0  0
M  END
>  <MODEL>
8

>  <REMARK>
 VINA RESULT:      -6.6      2.939      6.785
  Name = 
  6 active torsions:
  status: ('A' for Active; 'I' for Inactive)
    1  A    between atoms: C_4  and  O_37
    2  A    between atoms: C_7  and  C_10
    3  A    between atoms: C_10  and  C_23
    4  A    between atoms: C_21  and  C_27
    5  A    between atoms: C_23  and  C_28
    6  A    between atoms: C_23  and  C_30
                            x       y       z     vdW  Elec       q    Type
                         _______ _______ _______ _____ _____    ______ ____

>  <TORSDO>
F 6

$$$$
=
 OpenBabel11112417143D

 37 41  0  0  1  0  0  0  0  0999 V2000
  189.2870  175.2520  146.8840 C   0  0  1  0  0  0  0  0  0  0  0  0
  192.5120  175.6240  144.1440 C   0  0  1  0  0  3  0  0  0  0  0  0
  191.5100  176.4860  146.3890 C   0  0  2  0  0  3  0  0  0  0  0  0
  192.1080  174.4430  143.2370 C   0  0  2  0  0  3  0  0  0  0  0  0
  191.2930  175.7730  145.0470 C   0  0  2  0  0  3  0  0  0  0  0  0
  192.9520  176.3940  146.8900 C   0  0  0  0  0  2  0  0  0  0  0  0
  190.7940  174.3700  145.2770 C   0  0  1  0  0  3  0  0  0  0  0  0
  188.3390  176.3630  146.4660 C   0  0  0  0  0  1  0  0  0  0  0  0
  193.9220  176.4240  145.7170 C   0  0  0  0  0  2  0  0  0  0  0  0
  189.4670  174.3720  145.7690 O   0  0  0  0  0  0  0  0  0  0  0  0
  193.6650  175.3160  144.8970 O   0  0  0  0  0  0  0  0  0  0  0  0
  190.9670  173.6750  143.9280 C   0  0  1  0  0  3  0  0  0  0  0  0
  190.5770  175.9000  147.4620 C   0  0  0  0  0  2  0  0  0  0  0  0
  188.6750  174.5370  147.9110 O   0  0  0  0  0  1  0  0  0  0  0  0
  189.7010  174.7290  142.1290 O   0  0  0  0  0  0  0  0  0  0  0  0
  188.4080  174.8100  141.5900 C   0  0  2  0  0  3  0  0  0  0  0  0
  189.4890  173.0670  140.0220 C   0  0  2  0  0  3  0  0  0  0  0  0
  188.3090  174.0180  140.2770 C   0  0  0  0  0  2  0  0  0  0  0  0
  189.6920  171.9800  141.0960 C   0  0  1  0  0  3  0  0  0  0  0  0
  190.9720  171.4270  141.0330 O   0  0  0  0  0  1  0  0  0  0  0  0
  189.2980  172.3070  142.5450 C   0  0  0  0  0  2  0  0  0  0  0  0
  190.6630  173.7910  139.7910 O   0  0  0  0  0  1  0  0  0  0  0  0
  189.6810  173.7010  143.0910 C   0  0  1  0  0  3  0  0  0  0  0  0
  187.4880  176.5750  142.5480 C   0  0  0  0  0  1  0  0  0  0  0  0
  188.0770  176.1450  141.3590 O   0  0  0  0  0  0  0  0  0  0  0  0
  193.3340  172.2310  143.5290 C   0  0  0  0  0  1  0  0  0  0  0  0
  193.2410  173.5280  142.7290 C   0  0  2  0  0  3  0  0  0  0  0  0
  194.5990  174.2490  142.6550 C   0  0  1  0  0  3  0  0  0  0  0  0
  196.4240  172.7130  141.8890 C   0  0  0  0  0  3  0  0  0  0  0  0
  195.7400  173.3170  142.9510 C   0  0  0  0  0  0  0  0  0  0  0  0
  196.1290  173.0430  144.2710 C   0  0  0  0  0  3  0  0  0  0  0  0
  197.5680  171.9130  145.7990 F   0  0  0  0  0  0  0  0  0  0  0  0
  197.8740  171.5740  143.4590 C   0  0  0  0  0  3  0  0  0  0  0  0
  197.1940  172.1740  144.5230 C   0  0  0  0  0  0  0  0  0  0  0  0
  197.4880  171.8430  142.1430 C   0  0  0  0  0  3  0  0  0  0  0  0
  195.0190  176.4150  141.4770 C   0  0  0  0  0  1  0  0  0  0  0  0
  194.8040  174.9240  141.3000 C   0  0  0  0  0  2  0  0  0  0  0  0
  1  8  1  6  0  0  0
  1 13  1  0  0  0  0
  1 14  1  0  0  0  0
  2 11  1  1  0  0  0
  2  5  1  0  0  0  0
  3  6  1  1  0  0  0
  3 13  1  0  0  0  0
  4 27  1  1  0  0  0
  4 12  1  0  0  0  0
  4  2  1  0  0  0  0
  5  7  1  0  0  0  0
  5  3  1  0  0  0  0
  7 10  1  0  0  0  0
  9  6  1  0  0  0  0
 10  1  1  0  0  0  0
 11  9  1  0  0  0  0
 12  7  1  0  0  0  0
 15 23  1  0  0  0  0
 16 15  1  0  0  0  0
 17 18  1  0  0  0  0
 17 19  1  0  0  0  0
 18 16  1  0  0  0  0
 19 21  1  0  0  0  0
 20 19  1  0  0  0  0
 21 23  1  0  0  0  0
 22 17  1  0  0  0  0
 23 12  1  0  0  0  0
 25 16  1  0  0  0  0
 25 24  1  0  0  0  0
 27 26  1  0  0  0  0
 28 27  1  0  0  0  0
 28 30  1  0  0  0  0
 29 35  2  0  0  0  0
 29 30  1  0  0  0  0
 30 31  2  0  0  0  0
 31 34  1  0  0  0  0
 33 34  2  0  0  0  0
 34 32  1  0  0  0  0
 35 33  1  0  0  0  0
 37 36  1  0  0  0  0
 37 28  1  0  0  0  0
M  END
>  <MODEL>
9

>  <REMARK>
 VINA RESULT:      -6.5      3.114      7.800
  Name = 
  6 active torsions:
  status: ('A' for Active; 'I' for Inactive)
    1  A    between atoms: C_4  and  O_37
    2  A    between atoms: C_7  and  C_10
    3  A    between atoms: C_10  and  C_23
    4  A    between atoms: C_21  and  C_27
    5  A    between atoms: C_23  and  C_28
    6  A    between atoms: C_23  and  C_30
                            x       y       z     vdW  Elec       q    Type
                         _______ _______ _______ _____ _____    ______ ____

>  <TORSDO>
F 6

$$$$
