=
 OpenBabel11112417323D

 37 42  0  0  1  0  0  0  0  0999 V2000
  190.4940  174.7440  145.3730 C   0  0  1  0  0  3  0  0  0  0  0  0
  187.6150  175.2040  143.7140 O   0  0  0  0  0  0  0  0  0  0  0  0
  192.7760  173.4720  145.4120 C   0  0  2  0  0  3  0  0  0  0  0  0
  189.9580  175.3610  144.0950 C   0  0  2  0  0  3  0  0  0  0  0  0
  191.3390  173.5750  144.8530 C   0  0  2  0  0  3  0  0  0  0  0  0
  188.6090  176.0690  144.1950 C   0  0  2  0  0  3  0  0  0  0  0  0
  193.2660  174.8040  145.9610 C   0  0  0  0  0  2  0  0  0  0  0  0
  191.2320  173.6640  143.3400 C   0  0  0  0  0  2  0  0  0  0  0  0
  190.3730  176.6700  146.9790 C   0  0  0  0  0  2  0  0  0  0  0  0
  192.3210  175.2870  146.8770 O   0  0  0  0  0  0  0  0  0  0  0  0
  188.0480  176.5120  141.5610 C   0  0  0  0  0  2  0  0  0  0  0  0
  187.3330  175.4060  142.3290 C   0  0  1  0  0  3  0  0  0  0  0  0
  191.2970  175.8390  146.0950 C   0  0  1  0  0  3  0  0  0  0  0  0
  189.9460  174.3180  143.0770 N   0  0  2  0  0  0  0  0  0  0  0  0
  188.2620  176.6000  145.5960 C   0  0  1  0  0  3  0  0  0  0  0  0
  188.4960  175.0710  141.3530 C   0  0  2  0  0  3  0  0  0  0  0  0
  189.8950  174.9830  141.8230 N   0  0  0  0  0  0  0  0  0  0  0  0
  189.3730  177.4870  146.1630 C   0  0  0  0  0  2  0  0  0  0  0  0
  185.9070  176.9030  146.3780 C   0  0  0  0  0  3  0  0  0  0  0  0
  186.9650  177.3500  145.5790 C   0  0  0  0  0  0  0  0  0  0  0  0
  186.7920  178.4860  144.7700 C   0  0  0  0  0  3  0  0  0  0  0  0
  185.4060  180.2580  143.9840 F   0  0  0  0  0  0  0  0  0  0  0  0
  184.5170  178.7130  145.5660 C   0  0  0  0  0  3  0  0  0  0  0  0
  185.5700  179.1630  144.7660 C   0  0  0  0  0  0  0  0  0  0  0  0
  184.6860  177.5830  146.3720 C   0  0  0  0  0  3  0  0  0  0  0  0
  190.5670  174.2010  140.7760 C   0  0  0  0  0  2  0  0  0  0  0  0
  189.5520  173.5140  139.8640 C   0  0  1  0  0  3  0  0  0  0  0  0
  188.5790  173.8200  137.7550 C   0  0  0  0  0  1  0  0  0  0  0  0
  189.8460  173.8000  138.4660 N   0  0  0  0  0  2  0  0  0  0  0  0
  189.5440  172.0100  140.1070 C   0  0  0  0  0  2  0  0  0  0  0  0
  190.9420  171.4940  140.4040 C   0  0  0  0  0  2  0  0  0  0  0  0
  190.9110  170.6190  141.4910 O   0  0  0  0  0  1  0  0  0  0  0  0
  193.6790  172.9760  144.4550 O   0  0  0  0  0  0  0  0  0  0  0  0
  194.0270  171.6600  144.8200 C   0  0  0  0  0  0  0  0  0  0  0  0
  195.2040  171.2700  144.1970 F   0  0  0  0  0  0  0  0  0  0  0  0
  194.1650  171.5490  146.1950 F   0  0  0  0  0  0  0  0  0  0  0  0
  193.0170  170.8090  144.4140 F   0  0  0  0  0  0  0  0  0  0  0  0
  1 13  1  0  0  0  0
  2  6  1  0  0  0  0
  3  7  1  0  0  0  0
  4  6  1  0  0  0  0
  4  1  1  0  0  0  0
  5  1  1  0  0  0  0
  5  3  1  0  0  0  0
  6 15  1  0  0  0  0
  7 10  1  0  0  0  0
  8  5  1  0  0  0  0
 11 12  1  0  0  0  0
 12  2  1  0  0  0  0
 13 10  1  0  0  0  0
 13  9  1  0  0  0  0
 14  8  1  0  0  0  0
 14  4  1  0  0  0  0
 15 18  1  0  0  0  0
 16 11  1  0  0  0  0
 16 17  1  0  0  0  0
 16 12  1  0  0  0  0
 17 14  1  0  0  0  0
 18  9  1  0  0  0  0
 20 15  1  0  0  0  0
 20 19  2  0  0  0  0
 21 20  1  0  0  0  0
 22 24  1  0  0  0  0
 23 25  2  0  0  0  0
 24 21  2  0  0  0  0
 24 23  1  0  0  0  0
 25 19  1  0  0  0  0
 26 17  1  0  0  0  0
 27 30  1  0  0  0  0
 27 26  1  0  0  0  0
 28 29  1  0  0  0  0
 29 27  1  0  0  0  0
 30 31  1  0  0  0  0
 31 32  1  0  0  0  0
 33 34  1  0  0  0  0
 33  3  1  0  0  0  0
 34 36  1  0  0  0  0
 35 34  1  0  0  0  0
 37 34  1  0  0  0  0
M  END
>  <MODEL>
1

>  <REMARK>
 VINA RESULT:      -7.4      0.000      0.000
  Name = 
  8 active torsions:
  status: ('A' for Active; 'I' for Inactive)
    1  A    between atoms: C_1  and  C_4
    2  A    between atoms: C_1  and  N_27
    3  A    between atoms: C_2  and  O_22
    4  A    between atoms: C_4  and  C_12
    5  A    between atoms: C_4  and  N_37
    6  A    between atoms: C_6  and  O_22
    7  A    between atoms: C_8  and  C_12
    8  A    between atoms: C_23  and  C_30
                            x       y       z     vdW  Elec       q    Type
                         _______ _______ _______ _____ _____    ______ ____

>  <TORSDO>
F 8

$$$$
=
 OpenBabel11112417323D

 37 42  0  0  1  0  0  0  0  0999 V2000
  188.7070  176.7630  144.8480 C   0  0  1  0  0  3  0  0  0  0  0  0
  191.4380  175.8480  143.1270 O   0  0  0  0  0  0  0  0  0  0  0  0
  186.2390  177.6030  144.6800 C   0  0  2  0  0  3  0  0  0  0  0  0
  189.2190  175.6430  143.9620 C   0  0  2  0  0  3  0  0  0  0  0  0
  187.6050  177.3930  143.9890 C   0  0  2  0  0  3  0  0  0  0  0  0
  190.6830  175.2470  144.1450 C   0  0  2  0  0  3  0  0  0  0  0  0
  186.0730  176.6970  145.8920 C   0  0  0  0  0  2  0  0  0  0  0  0
  187.5730  176.5520  142.7230 C   0  0  0  0  0  2  0  0  0  0  0  0
  189.3590  175.9650  147.1370 C   0  0  0  0  0  2  0  0  0  0  0  0
  187.1810  176.8650  146.7330 O   0  0  0  0  0  0  0  0  0  0  0  0
  191.0490  173.5800  142.0140 C   0  0  0  0  0  2  0  0  0  0  0  0
  191.6110  174.9970  141.9940 C   0  0  1  0  0  3  0  0  0  0  0  0
  188.2080  176.1110  146.1480 C   0  0  1  0  0  3  0  0  0  0  0  0
  188.9270  176.0080  142.5820 N   0  0  2  0  0  0  0  0  0  0  0  0
  191.2660  175.5540  145.5340 C   0  0  1  0  0  3  0  0  0  0  0  0
  190.3130  174.6470  141.2140 C   0  0  2  0  0  3  0  0  0  0  0  0
  188.9780  174.8040  141.8300 N   0  0  0  0  0  0  0  0  0  0  0  0
  190.4090  174.9650  146.6570 C   0  0  0  0  0  2  0  0  0  0  0  0
  193.6910  175.9560  145.9850 C   0  0  0  0  0  3  0  0  0  0  0  0
  192.6750  175.0560  145.6470 C   0  0  0  0  0  0  0  0  0  0  0  0
  192.9900  173.7080  145.4110 C   0  0  0  0  0  3  0  0  0  0  0  0
  194.6140  171.9680  145.2860 F   0  0  0  0  0  0  0  0  0  0  0  0
  195.3250  174.1720  145.8530 C   0  0  0  0  0  3  0  0  0  0  0  0
  194.3130  173.2700  145.5150 C   0  0  0  0  0  0  0  0  0  0  0  0
  195.0140  175.5150  146.0890 C   0  0  0  0  0  3  0  0  0  0  0  0
  188.0650  174.8530  140.6790 C   0  0  0  0  0  2  0  0  0  0  0  0
  188.5900  174.0050  139.5220 C   0  0  1  0  0  3  0  0  0  0  0  0
  189.1700  171.8040  138.9700 C   0  0  0  0  0  1  0  0  0  0  0  0
  188.2040  172.6110  139.6950 N   0  0  0  0  0  2  0  0  0  0  0  0
  188.0760  174.5370  138.1910 C   0  0  0  0  0  2  0  0  0  0  0  0
  187.1670  175.7380  138.3930 C   0  0  0  0  0  2  0  0  0  0  0  0
  186.5680  176.0970  137.1850 O   0  0  0  0  0  1  0  0  0  0  0  0
  185.1650  177.4290  143.7890 O   0  0  0  0  0  0  0  0  0  0  0  0
  184.4140  178.6210  143.7690 C   0  0  0  0  0  0  0  0  0  0  0  0
  183.7070  178.7780  144.9530 F   0  0  0  0  0  0  0  0  0  0  0  0
  185.2340  179.7200  143.5630 F   0  0  0  0  0  0  0  0  0  0  0  0
  183.5080  178.5530  142.7280 F   0  0  0  0  0  0  0  0  0  0  0  0
  1 13  1  0  0  0  0
  2  6  1  0  0  0  0
  3  7  1  0  0  0  0
  4  6  1  0  0  0  0
  4  1  1  0  0  0  0
  5  3  1  0  0  0  0
  5  1  1  0  0  0  0
  6 15  1  0  0  0  0
  7 10  1  0  0  0  0
  8  5  1  0  0  0  0
 12 11  1  0  0  0  0
 12  2  1  0  0  0  0
 13 10  1  0  0  0  0
 13  9  1  0  0  0  0
 14  8  1  0  0  0  0
 14  4  1  0  0  0  0
 15 20  1  0  0  0  0
 15 18  1  0  0  0  0
 16 17  1  0  0  0  0
 16 12  1  0  0  0  0
 16 11  1  0  0  0  0
 17 14  1  0  0  0  0
 18  9  1  0  0  0  0
 19 25  1  0  0  0  0
 20 19  2  0  0  0  0
 21 24  2  0  0  0  0
 21 20  1  0  0  0  0
 22 24  1  0  0  0  0
 23 25  2  0  0  0  0
 24 23  1  0  0  0  0
 26 17  1  0  0  0  0
 27 29  1  0  0  0  0
 27 26  1  0  0  0  0
 28 29  1  0  0  0  0
 30 31  1  0  0  0  0
 30 27  1  0  0  0  0
 32 31  1  0  0  0  0
 33  3  1  0  0  0  0
 34 33  1  0  0  0  0
 34 35  1  0  0  0  0
 36 34  1  0  0  0  0
 37 34  1  0  0  0  0
M  END
>  <MODEL>
2

>  <REMARK>
 VINA RESULT:      -7.3      2.015      7.054
  Name = 
  8 active torsions:
  status: ('A' for Active; 'I' for Inactive)
    1  A    between atoms: C_1  and  C_4
    2  A    between atoms: C_1  and  N_27
    3  A    between atoms: C_2  and  O_22
    4  A    between atoms: C_4  and  C_12
    5  A    between atoms: C_4  and  N_37
    6  A    between atoms: C_6  and  O_22
    7  A    between atoms: C_8  and  C_12
    8  A    between atoms: C_23  and  C_30
                            x       y       z     vdW  Elec       q    Type
                         _______ _______ _______ _____ _____    ______ ____

>  <TORSDO>
F 8

$$$$
=
 OpenBabel11112417323D

 37 42  0  0  1  0  0  0  0  0999 V2000
  189.4940  177.0940  145.1420 C   0  0  1  0  0  3  0  0  0  0  0  0
  191.7860  175.9520  142.9750 O   0  0  0  0  0  0  0  0  0  0  0  0
  186.9990  177.7990  145.4640 C   0  0  2  0  0  3  0  0  0  0  0  0
  189.8650  175.8400  144.3750 C   0  0  2  0  0  3  0  0  0  0  0  0
  188.1660  177.5040  144.4950 C   0  0  2  0  0  3  0  0  0  0  0  0
  191.3560  175.5380  144.2440 C   0  0  2  0  0  3  0  0  0  0  0  0
  187.2120  177.1460  146.8220 C   0  0  0  0  0  2  0  0  0  0  0  0
  187.8950  176.4280  143.4560 C   0  0  0  0  0  2  0  0  0  0  0  0
  190.7520  176.7880  147.2930 C   0  0  0  0  0  2  0  0  0  0  0  0
  188.4740  177.5150  147.3050 O   0  0  0  0  0  0  0  0  0  0  0  0
  191.3260  173.4960  142.4330 C   0  0  0  0  0  2  0  0  0  0  0  0
  191.7460  174.9000  142.0110 C   0  0  1  0  0  3  0  0  0  0  0  0
  189.3850  176.6960  146.6240 C   0  0  1  0  0  3  0  0  0  0  0  0
  189.2130  175.9140  143.0730 N   0  0  2  0  0  0  0  0  0  0  0  0
  192.2350  176.1350  145.3570 C   0  0  1  0  0  3  0  0  0  0  0  0
  190.3300  174.3580  141.6670 C   0  0  2  0  0  3  0  0  0  0  0  0
  189.1790  174.5870  142.5670 N   0  0  0  0  0  0  0  0  0  0  0  0
  191.7320  175.7510  146.7510 C   0  0  0  0  0  2  0  0  0  0  0  0
  194.0910  174.5080  145.7500 C   0  0  0  0  0  3  0  0  0  0  0  0
  193.6650  175.7180  145.1930 C   0  0  0  0  0  0  0  0  0  0  0  0
  194.5820  176.5230  144.4980 C   0  0  0  0  0  3  0  0  0  0  0  0
  196.7950  176.8960  143.6950 F   0  0  0  0  0  0  0  0  0  0  0  0
  196.3330  174.9060  144.9230 C   0  0  0  0  0  3  0  0  0  0  0  0
  195.9120  176.1160  144.3650 C   0  0  0  0  0  0  0  0  0  0  0  0
  195.4220  174.1020  145.6150 C   0  0  0  0  0  3  0  0  0  0  0  0
  188.0110  174.3770  141.7000 C   0  0  0  0  0  2  0  0  0  0  0  0
  188.4350  174.1200  140.2550 C   0  0  1  0  0  3  0  0  0  0  0  0
  188.8860  172.4550  138.6700 C   0  0  0  0  0  1  0  0  0  0  0  0
  188.1130  172.7550  139.8640 N   0  0  0  0  0  2  0  0  0  0  0  0
  187.7660  175.1140  139.3150 C   0  0  0  0  0  2  0  0  0  0  0  0
  187.2510  176.3270  140.0730 C   0  0  0  0  0  2  0  0  0  0  0  0
  186.5950  177.1970  139.2020 O   0  0  0  0  0  1  0  0  0  0  0  0
  185.7580  177.4160  144.9260 O   0  0  0  0  0  0  0  0  0  0  0  0
  184.8950  178.5290  144.9760 C   0  0  0  0  0  0  0  0  0  0  0  0
  185.6160  179.7070  145.0950 F   0  0  0  0  0  0  0  0  0  0  0  0
  184.0910  178.5820  143.8470 F   0  0  0  0  0  0  0  0  0  0  0  0
  184.0790  178.4030  146.0850 F   0  0  0  0  0  0  0  0  0  0  0  0
  1 13  1  0  0  0  0
  2  6  1  0  0  0  0
  3  7  1  0  0  0  0
  4  1  1  0  0  0  0
  5  1  1  0  0  0  0
  5  3  1  0  0  0  0
  6  4  1  0  0  0  0
  6 15  1  0  0  0  0
  7 10  1  0  0  0  0
  8  5  1  0  0  0  0
 12 11  1  0  0  0  0
 12  2  1  0  0  0  0
 13  9  1  0  0  0  0
 13 10  1  0  0  0  0
 14  8  1  0  0  0  0
 14  4  1  0  0  0  0
 15 18  1  0  0  0  0
 16 12  1  0  0  0  0
 16 11  1  0  0  0  0
 16 17  1  0  0  0  0
 17 14  1  0  0  0  0
 18  9  1  0  0  0  0
 20 15  1  0  0  0  0
 20 19  2  0  0  0  0
 21 20  1  0  0  0  0
 22 24  1  0  0  0  0
 23 25  2  0  0  0  0
 24 21  2  0  0  0  0
 24 23  1  0  0  0  0
 25 19  1  0  0  0  0
 26 17  1  0  0  0  0
 27 26  1  0  0  0  0
 28 29  1  0  0  0  0
 29 27  1  0  0  0  0
 30 31  1  0  0  0  0
 30 27  1  0  0  0  0
 32 31  1  0  0  0  0
 33 34  1  0  0  0  0
 33  3  1  0  0  0  0
 34 35  1  0  0  0  0
 34 37  1  0  0  0  0
 36 34  1  0  0  0  0
M  END
>  <MODEL>
3

>  <REMARK>
 VINA RESULT:      -7.3      2.672      6.987
  Name = 
  8 active torsions:
  status: ('A' for Active; 'I' for Inactive)
    1  A    between atoms: C_1  and  C_4
    2  A    between atoms: C_1  and  N_27
    3  A    between atoms: C_2  and  O_22
    4  A    between atoms: C_4  and  C_12
    5  A    between atoms: C_4  and  N_37
    6  A    between atoms: C_6  and  O_22
    7  A    between atoms: C_8  and  C_12
    8  A    between atoms: C_23  and  C_30
                            x       y       z     vdW  Elec       q    Type
                         _______ _______ _______ _____ _____    ______ ____

>  <TORSDO>
F 8

$$$$
=
 OpenBabel11112417323D

 37 42  0  0  1  0  0  0  0  0999 V2000
  190.6230  176.7750  144.9620 C   0  0  1  0  0  3  0  0  0  0  0  0
  192.9590  175.9200  142.7110 O   0  0  0  0  0  0  0  0  0  0  0  0
  188.1220  177.4370  145.3230 C   0  0  2  0  0  3  0  0  0  0  0  0
  191.0100  175.6310  144.0460 C   0  0  2  0  0  3  0  0  0  0  0  0
  189.3080  177.2680  144.3480 C   0  0  2  0  0  3  0  0  0  0  0  0
  192.5050  175.3460  143.9070 C   0  0  2  0  0  3  0  0  0  0  0  0
  188.3080  176.6120  146.5880 C   0  0  0  0  0  2  0  0  0  0  0  0
  189.0590  176.3380  143.1720 C   0  0  0  0  0  2  0  0  0  0  0  0
  191.8380  176.1890  147.0790 C   0  0  0  0  0  2  0  0  0  0  0  0
  189.5600  176.9120  147.1410 O   0  0  0  0  0  0  0  0  0  0  0  0
  192.5120  173.5570  141.8440 C   0  0  0  0  0  2  0  0  0  0  0  0
  192.9390  175.0040  141.6170 C   0  0  1  0  0  3  0  0  0  0  0  0
  190.4850  176.1870  146.3760 C   0  0  1  0  0  3  0  0  0  0  0  0
  190.3850  175.8750  142.7520 N   0  0  2  0  0  0  0  0  0  0  0  0
  193.3600  175.7900  145.1050 C   0  0  1  0  0  3  0  0  0  0  0  0
  191.5310  174.5140  141.1780 C   0  0  2  0  0  3  0  0  0  0  0  0
  190.3620  174.6260  142.0760 N   0  0  0  0  0  0  0  0  0  0  0  0
  192.8300  175.2290  146.4260 C   0  0  0  0  0  2  0  0  0  0  0  0
  195.5600  176.0530  143.9490 C   0  0  0  0  0  3  0  0  0  0  0  0
  194.7930  175.3960  144.9160 C   0  0  0  0  0  0  0  0  0  0  0  0
  195.3740  174.3750  145.6870 C   0  0  0  0  0  3  0  0  0  0  0  0
  197.2670  173.0330  146.2310 F   0  0  0  0  0  0  0  0  0  0  0  0
  197.4730  174.6800  144.5190 C   0  0  0  0  0  3  0  0  0  0  0  0
  196.7100  174.0200  145.4870 C   0  0  0  0  0  0  0  0  0  0  0  0
  196.8970  175.6960  143.7510 C   0  0  0  0  0  3  0  0  0  0  0  0
  189.2120  174.5330  141.1660 C   0  0  0  0  0  2  0  0  0  0  0  0
  188.5540  173.1560  141.2480 C   0  0  1  0  0  3  0  0  0  0  0  0
  188.3760  172.7360  138.9510 C   0  0  0  0  0  1  0  0  0  0  0  0
  189.0300  172.2980  140.1720 N   0  0  0  0  0  2  0  0  0  0  0  0
  188.8280  172.5120  142.6010 C   0  0  0  0  0  2  0  0  0  0  0  0
  189.7800  171.3340  142.4680 C   0  0  0  0  0  2  0  0  0  0  0  0
  190.6800  171.3200  143.5330 O   0  0  0  0  0  1  0  0  0  0  0  0
  186.8920  177.1290  144.7150 O   0  0  0  0  0  0  0  0  0  0  0  0
  186.1140  178.3040  144.6790 C   0  0  0  0  0  0  0  0  0  0  0  0
  186.2790  179.0410  145.8430 F   0  0  0  0  0  0  0  0  0  0  0  0
  186.4430  179.0820  143.5800 F   0  0  0  0  0  0  0  0  0  0  0  0
  184.7830  177.9460  144.5770 F   0  0  0  0  0  0  0  0  0  0  0  0
  1 13  1  0  0  0  0
  2  6  1  0  0  0  0
  3  7  1  0  0  0  0
  4  1  1  0  0  0  0
  5  1  1  0  0  0  0
  5  3  1  0  0  0  0
  6  4  1  0  0  0  0
  6 15  1  0  0  0  0
  7 10  1  0  0  0  0
  8  5  1  0  0  0  0
 12 11  1  0  0  0  0
 12  2  1  0  0  0  0
 13  9  1  0  0  0  0
 13 10  1  0  0  0  0
 14  8  1  0  0  0  0
 14  4  1  0  0  0  0
 15 18  1  0  0  0  0
 16 12  1  0  0  0  0
 16 11  1  0  0  0  0
 16 17  1  0  0  0  0
 17 14  1  0  0  0  0
 18  9  1  0  0  0  0
 19 20  1  0  0  0  0
 20 15  1  0  0  0  0
 20 21  2  0  0  0  0
 23 24  2  0  0  0  0
 24 21  1  0  0  0  0
 24 22  1  0  0  0  0
 25 19  2  0  0  0  0
 25 23  1  0  0  0  0
 26 27  1  0  0  0  0
 26 17  1  0  0  0  0
 27 30  1  0  0  0  0
 28 29  1  0  0  0  0
 29 27  1  0  0  0  0
 31 30  1  0  0  0  0
 31 32  1  0  0  0  0
 33  3  1  0  0  0  0
 34 33  1  0  0  0  0
 34 35  1  0  0  0  0
 36 34  1  0  0  0  0
 37 34  1  0  0  0  0
M  END
>  <MODEL>
4

>  <REMARK>
 VINA RESULT:      -7.1      2.247      7.003
  Name = 
  8 active torsions:
  status: ('A' for Active; 'I' for Inactive)
    1  A    between atoms: C_1  and  C_4
    2  A    between atoms: C_1  and  N_27
    3  A    between atoms: C_2  and  O_22
    4  A    between atoms: C_4  and  C_12
    5  A    between atoms: C_4  and  N_37
    6  A    between atoms: C_6  and  O_22
    7  A    between atoms: C_8  and  C_12
    8  A    between atoms: C_23  and  C_30
                            x       y       z     vdW  Elec       q    Type
                         _______ _______ _______ _____ _____    ______ ____

>  <TORSDO>
F 8

$$$$
=
 OpenBabel11112417323D

 37 42  0  0  1  0  0  0  0  0999 V2000
  190.6810  175.7940  144.8260 C   0  0  1  0  0  3  0  0  0  0  0  0
  188.9790  176.4070  142.0000 O   0  0  0  0  0  0  0  0  0  0  0  0
  191.2400  176.6490  147.2300 C   0  0  2  0  0  3  0  0  0  0  0  0
  189.2630  175.8220  144.2900 C   0  0  2  0  0  3  0  0  0  0  0  0
  190.6880  176.9600  145.8210 C   0  0  2  0  0  3  0  0  0  0  0  0
  189.0630  175.3060  142.8660 C   0  0  2  0  0  3  0  0  0  0  0  0
  191.1940  175.1590  147.5400 C   0  0  0  0  0  2  0  0  0  0  0  0
  189.2720  177.5100  145.7810 C   0  0  0  0  0  2  0  0  0  0  0  0
  191.3540  173.4120  144.4090 C   0  0  0  0  0  2  0  0  0  0  0  0
  191.8290  174.4650  146.5020 O   0  0  0  0  0  0  0  0  0  0  0  0
  186.4790  176.0480  142.3930 C   0  0  0  0  0  2  0  0  0  0  0  0
  187.6340  176.8230  141.7690 C   0  0  1  0  0  3  0  0  0  0  0  0
  190.8890  174.4100  145.4630 C   0  0  1  0  0  3  0  0  0  0  0  0
  188.7630  177.1830  144.4460 N   0  0  2  0  0  0  0  0  0  0  0  0
  190.1210  174.2970  142.3910 C   0  0  1  0  0  3  0  0  0  0  0  0
  186.8820  177.3820  143.0090 C   0  0  2  0  0  3  0  0  0  0  0  0
  187.3460  177.0990  144.3840 N   0  0  0  0  0  0  0  0  0  0  0  0
  190.2750  173.1270  143.3670 C   0  0  0  0  0  2  0  0  0  0  0  0
  188.5160  173.2850  140.7650 C   0  0  0  0  0  3  0  0  0  0  0  0
  189.7970  173.7840  141.0210 C   0  0  0  0  0  0  0  0  0  0  0  0
  190.7580  173.7900  139.9960 C   0  0  0  0  0  3  0  0  0  0  0  0
  191.3630  173.3060  137.7430 F   0  0  0  0  0  0  0  0  0  0  0  0
  189.1520  172.8020  138.4780 C   0  0  0  0  0  3  0  0  0  0  0  0
  190.4330  173.3000  138.7290 C   0  0  0  0  0  0  0  0  0  0  0  0
  188.1940  172.7950  139.4960 C   0  0  0  0  0  3  0  0  0  0  0  0
  186.7130  178.1510  145.1910 C   0  0  0  0  0  2  0  0  0  0  0  0
  185.5120  177.6060  145.9610 C   0  0  1  0  0  3  0  0  0  0  0  0
  186.3350  178.6700  147.8790 C   0  0  0  0  0  1  0  0  0  0  0  0
  185.8540  177.4000  147.3620 N   0  0  0  0  0  2  0  0  0  0  0  0
  184.3240  178.5520  145.8390 C   0  0  0  0  0  2  0  0  0  0  0  0
  184.4280  179.4070  144.5870 C   0  0  0  0  0  2  0  0  0  0  0  0
  183.6830  178.8410  143.5530 O   0  0  0  0  0  1  0  0  0  0  0  0
  190.5710  177.3770  148.2300 O   0  0  0  0  0  0  0  0  0  0  0  0
  191.5320  177.8540  149.1430 C   0  0  0  0  0  0  0  0  0  0  0  0
  191.5680  177.0630  150.2820 F   0  0  0  0  0  0  0  0  0  0  0  0
  192.7900  177.8950  148.5600 F   0  0  0  0  0  0  0  0  0  0  0  0
  191.1850  179.1390  149.5170 F   0  0  0  0  0  0  0  0  0  0  0  0
  1 13  1  0  0  0  0
  1  5  1  0  0  0  0
  2  6  1  0  0  0  0
  3  7  1  0  0  0  0
  3 33  1  0  0  0  0
  4 14  1  0  0  0  0
  4  1  1  0  0  0  0
  5  3  1  0  0  0  0
  6  4  1  0  0  0  0
  8  5  1  0  0  0  0
  9 13  1  0  0  0  0
 10  7  1  0  0  0  0
 11 16  1  0  0  0  0
 12  2  1  0  0  0  0
 12 11  1  0  0  0  0
 12 16  1  0  0  0  0
 13 10  1  0  0  0  0
 14  8  1  0  0  0  0
 15  6  1  0  0  0  0
 15 18  1  0  0  0  0
 16 17  1  0  0  0  0
 17 14  1  0  0  0  0
 17 26  1  0  0  0  0
 18  9  1  0  0  0  0
 19 20  1  0  0  0  0
 20 15  1  0  0  0  0
 21 20  2  0  0  0  0
 22 24  1  0  0  0  0
 23 24  2  0  0  0  0
 23 25  1  0  0  0  0
 24 21  1  0  0  0  0
 25 19  2  0  0  0  0
 26 27  1  0  0  0  0
 27 29  1  0  0  0  0
 29 28  1  0  0  0  0
 30 27  1  0  0  0  0
 31 30  1  0  0  0  0
 32 31  1  0  0  0  0
 33 34  1  0  0  0  0
 34 37  1  0  0  0  0
 34 35  1  0  0  0  0
 36 34  1  0  0  0  0
M  END
>  <MODEL>
5

>  <REMARK>
 VINA RESULT:      -7.1      3.298      6.957
  Name = 
  8 active torsions:
  status: ('A' for Active; 'I' for Inactive)
    1  A    between atoms: C_1  and  C_4
    2  A    between atoms: C_1  and  N_27
    3  A    between atoms: C_2  and  O_22
    4  A    between atoms: C_4  and  C_12
    5  A    between atoms: C_4  and  N_37
    6  A    between atoms: C_6  and  O_22
    7  A    between atoms: C_8  and  C_12
    8  A    between atoms: C_23  and  C_30
                            x       y       z     vdW  Elec       q    Type
                         _______ _______ _______ _____ _____    ______ ____

>  <TORSDO>
F 8

$$$$
=
 OpenBabel11112417323D

 37 42  0  0  1  0  0  0  0  0999 V2000
  190.4520  174.1610  141.3770 C   0  0  1  0  0  3  0  0  0  0  0  0
  189.6330  177.2760  142.3160 O   0  0  0  0  0  0  0  0  0  0  0  0
  192.4060  172.4630  141.0260 C   0  0  2  0  0  3  0  0  0  0  0  0
  190.3830  175.0370  142.6130 C   0  0  2  0  0  3  0  0  0  0  0  0
  191.9590  173.9300  141.2120 C   0  0  2  0  0  3  0  0  0  0  0  0
  189.1990  175.9990  142.7000 C   0  0  2  0  0  3  0  0  0  0  0  0
  191.3630  171.4830  141.5460 C   0  0  0  0  0  2  0  0  0  0  0  0
  192.5920  174.6610  142.3850 C   0  0  0  0  0  2  0  0  0  0  0  0
  188.1710  173.1130  141.3460 C   0  0  0  0  0  2  0  0  0  0  0  0
  190.1270  171.7910  140.9630 O   0  0  0  0  0  0  0  0  0  0  0  0
  189.9180  177.5290  144.8440 C   0  0  0  0  0  2  0  0  0  0  0  0
  190.0400  178.0760  143.4260 C   0  0  1  0  0  3  0  0  0  0  0  0
  189.6420  172.8910  141.6840 C   0  0  1  0  0  3  0  0  0  0  0  0
  191.6570  175.7380  142.7250 N   0  0  2  0  0  0  0  0  0  0  0  0
  187.9560  175.5650  141.9060 C   0  0  1  0  0  3  0  0  0  0  0  0
  191.2950  177.5710  144.1920 C   0  0  2  0  0  3  0  0  0  0  0  0
  191.7580  176.1710  144.0740 N   0  0  0  0  0  0  0  0  0  0  0  0
  187.5160  174.1430  142.2630 C   0  0  0  0  0  2  0  0  0  0  0  0
  186.2730  176.6550  143.3970 C   0  0  0  0  0  3  0  0  0  0  0  0
  186.8230  176.5220  142.1180 C   0  0  0  0  0  0  0  0  0  0  0  0
  186.3020  177.2800  141.0560 C   0  0  0  0  0  3  0  0  0  0  0  0
  184.7390  178.8880  140.2510 F   0  0  0  0  0  0  0  0  0  0  0  0
  184.6940  178.2890  142.5580 C   0  0  0  0  0  3  0  0  0  0  0  0
  185.2400  178.1600  141.2790 C   0  0  0  0  0  0  0  0  0  0  0  0
  185.2110  177.5370  143.6170 C   0  0  0  0  0  3  0  0  0  0  0  0
  193.1590  176.2280  144.5130 C   0  0  0  0  0  2  0  0  0  0  0  0
  193.3330  175.5830  145.8870 C   0  0  1  0  0  3  0  0  0  0  0  0
  194.5720  177.5420  146.2260 C   0  0  0  0  0  1  0  0  0  0  0  0
  193.6930  176.5870  146.8790 N   0  0  0  0  0  2  0  0  0  0  0  0
  192.0600  174.8580  146.3030 C   0  0  0  0  0  2  0  0  0  0  0  0
  191.4980  175.4290  147.5940 C   0  0  0  0  0  2  0  0  0  0  0  0
  190.1100  175.2850  147.6210 O   0  0  0  0  0  1  0  0  0  0  0  0
  193.6530  172.2120  141.6240 O   0  0  0  0  0  0  0  0  0  0  0  0
  194.6220  172.1350  140.6030 C   0  0  0  0  0  0  0  0  0  0  0  0
  195.5220  171.1100  140.8530 F   0  0  0  0  0  0  0  0  0  0  0  0
  194.0230  171.9440  139.3670 F   0  0  0  0  0  0  0  0  0  0  0  0
  195.3200  173.3280  140.5680 F   0  0  0  0  0  0  0  0  0  0  0  0
  1 13  1  0  0  0  0
  1  4  1  0  0  0  0
  2  6  1  0  0  0  0
  2 12  1  0  0  0  0
  3  5  1  0  0  0  0
  3  7  1  0  0  0  0
  3 33  1  0  0  0  0
  4  6  1  0  0  0  0
  4 14  1  0  0  0  0
  5  1  1  0  0  0  0
  5  8  1  0  0  0  0
  8 14  1  0  0  0  0
  9 13  1  0  0  0  0
  9 18  1  0  0  0  0
 10  7  1  0  0  0  0
 10 13  1  0  0  0  0
 12 16  1  0  0  0  0
 12 11  1  0  0  0  0
 14 17  1  0  0  0  0
 15 20  1  0  0  0  0
 15 18  1  0  0  0  0
 15  6  1  0  0  0  0
 16 11  1  0  0  0  0
 17 16  1  0  0  0  0
 17 26  1  0  0  0  0
 19 25  1  0  0  0  0
 20 19  2  0  0  0  0
 21 24  2  0  0  0  0
 21 20  1  0  0  0  0
 22 24  1  0  0  0  0
 23 25  2  0  0  0  0
 24 23  1  0  0  0  0
 26 27  1  0  0  0  0
 27 30  1  0  0  0  0
 27 29  1  0  0  0  0
 28 29  1  0  0  0  0
 30 31  1  0  0  0  0
 31 32  1  0  0  0  0
 34 35  1  0  0  0  0
 34 33  1  0  0  0  0
 36 34  1  0  0  0  0
 37 34  1  0  0  0  0
M  END
>  <MODEL>
6

>  <REMARK>
 VINA RESULT:      -6.9      2.582      5.248
  Name = 
  8 active torsions:
  status: ('A' for Active; 'I' for Inactive)
    1  A    between atoms: C_1  and  C_4
    2  A    between atoms: C_1  and  N_27
    3  A    between atoms: C_2  and  O_22
    4  A    between atoms: C_4  and  C_12
    5  A    between atoms: C_4  and  N_37
    6  A    between atoms: C_6  and  O_22
    7  A    between atoms: C_8  and  C_12
    8  A    between atoms: C_23  and  C_30
                            x       y       z     vdW  Elec       q    Type
                         _______ _______ _______ _____ _____    ______ ____

>  <TORSDO>
F 8

$$$$
=
 OpenBabel11112417323D

 37 42  0  0  1  0  0  0  0  0999 V2000
  191.5020  175.4590  144.1930 C   0  0  1  0  0  3  0  0  0  0  0  0
  188.4730  174.5850  143.0450 O   0  0  0  0  0  0  0  0  0  0  0  0
  193.9320  174.6400  144.6940 C   0  0  2  0  0  3  0  0  0  0  0  0
  190.7950  175.0850  142.9040 C   0  0  2  0  0  3  0  0  0  0  0  0
  192.4570  174.2790  144.4070 C   0  0  2  0  0  3  0  0  0  0  0  0
  189.3730  175.6130  142.7300 C   0  0  2  0  0  3  0  0  0  0  0  0
  194.2750  176.0420  144.2100 C   0  0  0  0  0  2  0  0  0  0  0  0
  192.2290  173.3740  143.2070 C   0  0  0  0  0  2  0  0  0  0  0  0
  191.2380  177.9550  144.2330 C   0  0  0  0  0  2  0  0  0  0  0  0
  193.3430  176.9430  144.7430 O   0  0  0  0  0  0  0  0  0  0  0  0
  188.5660  174.2380  140.5140 C   0  0  0  0  0  2  0  0  0  0  0  0
  188.0660  173.8390  141.8980 C   0  0  1  0  0  3  0  0  0  0  0  0
  192.1990  176.8070  143.9440 C   0  0  1  0  0  3  0  0  0  0  0  0
  190.8500  173.6330  142.7800 N   0  0  2  0  0  0  0  0  0  0  0  0
  189.0600  176.8960  143.5190 C   0  0  1  0  0  3  0  0  0  0  0  0
  189.1890  173.0250  141.1950 C   0  0  2  0  0  3  0  0  0  0  0  0
  190.6180  173.3390  141.4100 N   0  0  0  0  0  0  0  0  0  0  0  0
  190.0800  178.0030  143.2390 C   0  0  0  0  0  2  0  0  0  0  0  0
  187.3710  177.8230  141.9280 C   0  0  0  0  0  3  0  0  0  0  0  0
  187.6760  177.3850  143.2210 C   0  0  0  0  0  0  0  0  0  0  0  0
  186.6860  177.4170  144.2170 C   0  0  0  0  0  3  0  0  0  0  0  0
  184.4520  177.9150  144.8800 F   0  0  0  0  0  0  0  0  0  0  0  0
  185.1040  178.3210  142.6230 C   0  0  0  0  0  3  0  0  0  0  0  0
  185.4040  177.8850  143.9160 C   0  0  0  0  0  0  0  0  0  0  0  0
  186.0870  178.2900  141.6290 C   0  0  0  0  0  3  0  0  0  0  0  0
  191.3110  172.1100  141.0020 C   0  0  0  0  0  2  0  0  0  0  0  0
  192.0700  172.3140  139.6920 C   0  0  1  0  0  3  0  0  0  0  0  0
  190.9430  172.8940  137.7220 C   0  0  0  0  0  1  0  0  0  0  0  0
  191.3100  171.7740  138.5730 N   0  0  0  0  0  2  0  0  0  0  0  0
  192.3670  173.7910  139.4690 C   0  0  0  0  0  2  0  0  0  0  0  0
  193.7920  174.1330  139.8720 C   0  0  0  0  0  2  0  0  0  0  0  0
  193.7980  175.2160  140.7510 O   0  0  0  0  0  1  0  0  0  0  0  0
  194.8210  173.7010  144.1430 O   0  0  0  0  0  0  0  0  0  0  0  0
  195.4650  173.0310  145.2020 C   0  0  0  0  0  0  0  0  0  0  0  0
  195.9390  173.9350  146.1420 F   0  0  0  0  0  0  0  0  0  0  0  0
  194.6060  172.1280  145.8110 F   0  0  0  0  0  0  0  0  0  0  0  0
  196.5410  172.3310  144.6910 F   0  0  0  0  0  0  0  0  0  0  0  0
  1  5  1  0  0  0  0
  4  1  1  0  0  0  0
  5  3  1  0  0  0  0
  6  4  1  0  0  0  0
  6  2  1  0  0  0  0
  6 15  1  0  0  0  0
  7  3  1  0  0  0  0
  7 10  1  0  0  0  0
  8  5  1  0  0  0  0
 11 16  1  0  0  0  0
 11 12  1  0  0  0  0
 12  2  1  0  0  0  0
 13  1  1  0  0  0  0
 13  9  1  0  0  0  0
 13 10  1  0  0  0  0
 14  4  1  0  0  0  0
 14  8  1  0  0  0  0
 16 17  1  0  0  0  0
 16 12  1  0  0  0  0
 17 14  1  0  0  0  0
 18 15  1  0  0  0  0
 18  9  1  0  0  0  0
 19 20  1  0  0  0  0
 20 15  1  0  0  0  0
 20 21  2  0  0  0  0
 23 24  2  0  0  0  0
 24 21  1  0  0  0  0
 24 22  1  0  0  0  0
 25 19  2  0  0  0  0
 25 23  1  0  0  0  0
 26 17  1  0  0  0  0
 27 26  1  0  0  0  0
 28 29  1  0  0  0  0
 29 27  1  0  0  0  0
 30 27  1  0  0  0  0
 30 31  1  0  0  0  0
 31 32  1  0  0  0  0
 33  3  1  0  0  0  0
 33 34  1  0  0  0  0
 34 36  1  0  0  0  0
 34 35  1  0  0  0  0
 37 34  1  0  0  0  0
M  END
>  <MODEL>
7

>  <REMARK>
 VINA RESULT:      -6.8      2.072      2.697
  Name = 
  8 active torsions:
  status: ('A' for Active; 'I' for Inactive)
    1  A    between atoms: C_1  and  C_4
    2  A    between atoms: C_1  and  N_27
    3  A    between atoms: C_2  and  O_22
    4  A    between atoms: C_4  and  C_12
    5  A    between atoms: C_4  and  N_37
    6  A    between atoms: C_6  and  O_22
    7  A    between atoms: C_8  and  C_12
    8  A    between atoms: C_23  and  C_30
                            x       y       z     vdW  Elec       q    Type
                         _______ _______ _______ _____ _____    ______ ____

>  <TORSDO>
F 8

$$$$
=
 OpenBabel11112417323D

 37 42  0  0  1  0  0  0  0  0999 V2000
  192.3280  175.3410  142.0440 C   0  0  1  0  0  3  0  0  0  0  0  0
  191.8220  176.9270  144.9580 O   0  0  0  0  0  0  0  0  0  0  0  0
  194.1150  174.4860  140.3420 C   0  0  2  0  0  3  0  0  0  0  0  0
  192.5040  175.1430  143.5370 C   0  0  2  0  0  3  0  0  0  0  0  0
  193.7740  175.4000  141.5390 C   0  0  2  0  0  3  0  0  0  0  0  0
  191.3980  175.6970  144.4330 C   0  0  2  0  0  3  0  0  0  0  0  0
  193.1280  173.3350  140.2100 C   0  0  0  0  0  2  0  0  0  0  0  0
  194.6250  175.1930  142.7820 C   0  0  0  0  0  2  0  0  0  0  0  0
  190.0260  174.4170  141.6580 C   0  0  0  0  0  2  0  0  0  0  0  0
  191.8280  173.8580  140.1880 O   0  0  0  0  0  0  0  0  0  0  0  0
  192.5300  175.4260  146.9020 C   0  0  0  0  0  2  0  0  0  0  0  0
  192.4430  176.7950  146.2350 C   0  0  1  0  0  3  0  0  0  0  0  0
  191.5200  174.1400  141.5270 C   0  0  1  0  0  3  0  0  0  0  0  0
  193.8100  175.6800  143.8990 N   0  0  2  0  0  0  0  0  0  0  0  0
  190.0210  175.8190  143.7570 C   0  0  1  0  0  3  0  0  0  0  0  0
  193.7820  176.0040  146.2520 C   0  0  2  0  0  3  0  0  0  0  0  0
  194.1520  175.0940  145.1470 N   0  0  0  0  0  0  0  0  0  0  0  0
  189.5800  174.5010  143.1160 C   0  0  0  0  0  2  0  0  0  0  0  0
  188.8450  175.6210  145.9530 C   0  0  0  0  0  3  0  0  0  0  0  0
  188.9850  176.2890  144.7320 C   0  0  0  0  0  0  0  0  0  0  0  0
  188.1510  177.3800  144.4370 C   0  0  0  0  0  3  0  0  0  0  0  0
  186.3830  178.8470  145.0710 F   0  0  0  0  0  0  0  0  0  0  0  0
  187.0510  177.1240  146.5780 C   0  0  0  0  0  3  0  0  0  0  0  0
  187.1870  177.7940  145.3600 C   0  0  0  0  0  0  0  0  0  0  0  0
  187.8800  176.0380  146.8740 C   0  0  0  0  0  3  0  0  0  0  0  0
  195.6080  174.9480  145.2870 C   0  0  0  0  0  2  0  0  0  0  0  0
  195.9770  173.5460  145.7670 C   0  0  1  0  0  3  0  0  0  0  0  0
  195.5960  171.3060  145.1970 C   0  0  0  0  0  1  0  0  0  0  0  0
  194.9440  172.5900  145.3920 N   0  0  0  0  0  2  0  0  0  0  0  0
  197.3250  173.1220  145.1960 C   0  0  0  0  0  2  0  0  0  0  0  0
  197.8840  174.1820  144.2630 C   0  0  0  0  0  2  0  0  0  0  0  0
  197.8890  173.7130  142.9490 O   0  0  0  0  0  1  0  0  0  0  0  0
  195.4310  173.9950  140.4110 O   0  0  0  0  0  0  0  0  0  0  0  0
  196.2230  174.7330  139.5090 C   0  0  0  0  0  0  0  0  0  0  0  0
  195.4420  175.2920  138.5090 F   0  0  0  0  0  0  0  0  0  0  0  0
  196.9250  175.7300  140.1700 F   0  0  0  0  0  0  0  0  0  0  0  0
  197.1350  173.8770  138.9210 F   0  0  0  0  0  0  0  0  0  0  0  0
  1  4  1  0  0  0  0
  2 12  1  0  0  0  0
  3 33  1  0  0  0  0
  3  5  1  0  0  0  0
  4 14  1  0  0  0  0
  4  6  1  0  0  0  0
  5  1  1  0  0  0  0
  5  8  1  0  0  0  0
  6  2  1  0  0  0  0
  7  3  1  0  0  0  0
  8 14  1  0  0  0  0
  9 18  1  0  0  0  0
 10  7  1  0  0  0  0
 10 13  1  0  0  0  0
 12 16  1  0  0  0  0
 12 11  1  0  0  0  0
 13  9  1  0  0  0  0
 13  1  1  0  0  0  0
 14 17  1  0  0  0  0
 15  6  1  0  0  0  0
 15 20  1  0  0  0  0
 16 11  1  0  0  0  0
 17 26  1  0  0  0  0
 17 16  1  0  0  0  0
 18 15  1  0  0  0  0
 19 25  1  0  0  0  0
 20 19  2  0  0  0  0
 21 20  1  0  0  0  0
 21 24  2  0  0  0  0
 22 24  1  0  0  0  0
 23 25  2  0  0  0  0
 24 23  1  0  0  0  0
 26 27  1  0  0  0  0
 28 29  1  0  0  0  0
 29 27  1  0  0  0  0
 30 27  1  0  0  0  0
 31 30  1  0  0  0  0
 32 31  1  0  0  0  0
 34 36  1  0  0  0  0
 34 33  1  0  0  0  0
 35 34  1  0  0  0  0
 37 34  1  0  0  0  0
M  END
>  <MODEL>
8

>  <REMARK>
 VINA RESULT:      -6.7      3.387      5.882
  Name = 
  8 active torsions:
  status: ('A' for Active; 'I' for Inactive)
    1  A    between atoms: C_1  and  C_4
    2  A    between atoms: C_1  and  N_27
    3  A    between atoms: C_2  and  O_22
    4  A    between atoms: C_4  and  C_12
    5  A    between atoms: C_4  and  N_37
    6  A    between atoms: C_6  and  O_22
    7  A    between atoms: C_8  and  C_12
    8  A    between atoms: C_23  and  C_30
                            x       y       z     vdW  Elec       q    Type
                         _______ _______ _______ _____ _____    ______ ____

>  <TORSDO>
F 8

$$$$
=
 OpenBabel11112417323D

 37 42  0  0  1  0  0  0  0  0999 V2000
  188.6590  175.0430  142.7900 C   0  0  1  0  0  3  0  0  0  0  0  0
  191.2470  172.9680  143.2990 O   0  0  0  0  0  0  0  0  0  0  0  0
  187.2810  177.0410  143.7560 C   0  0  2  0  0  3  0  0  0  0  0  0
  190.1750  175.0410  142.8290 C   0  0  2  0  0  3  0  0  0  0  0  0
  188.2930  175.9010  144.0070 C   0  0  2  0  0  3  0  0  0  0  0  0
  190.8690  173.8120  142.2440 C   0  0  2  0  0  3  0  0  0  0  0  0
  187.2250  177.4350  142.2870 C   0  0  0  0  0  2  0  0  0  0  0  0
  189.6290  176.3310  144.5920 C   0  0  0  0  0  2  0  0  0  0  0  0
  188.1930  174.5570  140.3720 C   0  0  0  0  0  2  0  0  0  0  0  0
  187.0020  176.2830  141.5210 O   0  0  0  0  0  0  0  0  0  0  0  0
  193.4490  174.2380  143.0290 C   0  0  0  0  0  2  0  0  0  0  0  0
  192.5840  173.2020  143.7390 C   0  0  1  0  0  3  0  0  0  0  0  0
  188.2480  175.6470  141.4370 C   0  0  1  0  0  3  0  0  0  0  0  0
  190.5790  175.2820  144.2090 N   0  0  2  0  0  0  0  0  0  0  0  0
  190.0540  173.0550  141.1820 C   0  0  1  0  0  3  0  0  0  0  0  0
  192.8450  174.5920  144.3830 C   0  0  2  0  0  3  0  0  0  0  0  0
  191.9260  175.7290  144.1600 N   0  0  0  0  0  0  0  0  0  0  0  0
  189.5730  173.9820  140.0620 C   0  0  0  0  0  2  0  0  0  0  0  0
  192.0010  172.1990  139.8700 C   0  0  0  0  0  3  0  0  0  0  0  0
  190.8450  171.9200  140.6070 C   0  0  0  0  0  0  0  0  0  0  0  0
  190.4410  170.5870  140.7880 C   0  0  0  0  0  3  0  0  0  0  0  0
  190.7990  168.2610  140.4110 F   0  0  0  0  0  0  0  0  0  0  0  0
  192.3460  169.8300  139.5010 C   0  0  0  0  0  3  0  0  0  0  0  0
  191.1920  169.5460  140.2350 C   0  0  0  0  0  0  0  0  0  0  0  0
  192.7500  171.1560  139.3190 C   0  0  0  0  0  3  0  0  0  0  0  0
  192.2260  176.6440  145.2700 C   0  0  0  0  0  2  0  0  0  0  0  0
  192.9100  175.9080  146.4210 C   0  0  1  0  0  3  0  0  0  0  0  0
  194.5610  177.4320  145.7610 C   0  0  0  0  0  1  0  0  0  0  0  0
  194.0710  176.6540  146.8860 N   0  0  0  0  0  2  0  0  0  0  0  0
  191.9320  175.6800  147.5670 C   0  0  0  0  0  2  0  0  0  0  0  0
  191.1190  176.9310  147.8540 C   0  0  0  0  0  2  0  0  0  0  0  0
  191.5660  177.5370  149.0280 O   0  0  0  0  0  1  0  0  0  0  0  0
  187.5480  178.1680  144.5540 O   0  0  0  0  0  0  0  0  0  0  0  0
  186.5310  178.2700  145.5250 C   0  0  0  0  0  0  0  0  0  0  0  0
  185.8870  179.4950  145.4370 F   0  0  0  0  0  0  0  0  0  0  0  0
  185.6090  177.2430  145.3840 F   0  0  0  0  0  0  0  0  0  0  0  0
  187.1070  178.1690  146.7770 F   0  0  0  0  0  0  0  0  0  0  0  0
  1  4  1  0  0  0  0
  1  5  1  0  0  0  0
  2 12  1  0  0  0  0
  3  5  1  0  0  0  0
  3 33  1  0  0  0  0
  4 14  1  0  0  0  0
  5  8  1  0  0  0  0
  6  4  1  0  0  0  0
  6  2  1  0  0  0  0
  7  3  1  0  0  0  0
  9 13  1  0  0  0  0
 10  7  1  0  0  0  0
 11 12  1  0  0  0  0
 11 16  1  0  0  0  0
 12 16  1  0  0  0  0
 13 10  1  0  0  0  0
 13  1  1  0  0  0  0
 14  8  1  0  0  0  0
 15  6  1  0  0  0  0
 17 14  1  0  0  0  0
 17 16  1  0  0  0  0
 17 26  1  0  0  0  0
 18  9  1  0  0  0  0
 18 15  1  0  0  0  0
 19 20  1  0  0  0  0
 20 21  2  0  0  0  0
 20 15  1  0  0  0  0
 23 24  2  0  0  0  0
 24 22  1  0  0  0  0
 24 21  1  0  0  0  0
 25 23  1  0  0  0  0
 25 19  2  0  0  0  0
 26 27  1  0  0  0  0
 27 29  1  0  0  0  0
 27 30  1  0  0  0  0
 28 29  1  0  0  0  0
 30 31  1  0  0  0  0
 31 32  1  0  0  0  0
 33 34  1  0  0  0  0
 34 37  1  0  0  0  0
 35 34  1  0  0  0  0
 36 34  1  0  0  0  0
M  END
>  <MODEL>
9

>  <REMARK>
 VINA RESULT:      -6.6      2.675      8.259
  Name = 
  8 active torsions:
  status: ('A' for Active; 'I' for Inactive)
    1  A    between atoms: C_1  and  C_4
    2  A    between atoms: C_1  and  N_27
    3  A    between atoms: C_2  and  O_22
    4  A    between atoms: C_4  and  C_12
    5  A    between atoms: C_4  and  N_37
    6  A    between atoms: C_6  and  O_22
    7  A    between atoms: C_8  and  C_12
    8  A    between atoms: C_23  and  C_30
                            x       y       z     vdW  Elec       q    Type
                         _______ _______ _______ _____ _____    ______ ____

>  <TORSDO>
F 8

$$$$
