=
 OpenBabel11112416483D

 31 35  0  0  1  0  0  0  0  0999 V2000
  189.1180  173.0540  142.6500 C   0  0  0  0  0  0  0  0  0  0  0  0
  191.1570  174.6020  145.4460 C   0  0  2  0  0  3  0  0  0  0  0  0
  192.3660  175.5050  145.5880 C   0  0  0  0  0  0  0  0  0  0  0  0
  194.5370  176.2270  144.7590 C   0  0  0  0  0  0  0  0  0  0  0  0
  190.6260  174.5540  144.0010 C   0  0  1  0  0  3  0  0  0  0  0  0
  188.5790  174.2390  141.9280 C   0  0  0  0  0  2  0  0  0  0  0  0
  193.3800  175.4580  144.6190 C   0  0  0  0  0  3  0  0  0  0  0  0
  189.1030  175.9930  146.0010 C   0  0  0  0  0  0  0  0  0  0  0  0
  188.7680  171.8930  142.3170 O   0  0  0  0  0  0  0  0  0  0  0  0
  191.5110  176.4110  147.8090 C   0  0  0  0  0  2  0  0  0  0  0  0
  195.5000  176.1810  143.8090 F   0  0  0  0  0  0  0  0  0  0  0  0
  189.4440  176.7360  144.7410 C   0  0  0  0  0  2  0  0  0  0  0  0
  190.0290  174.8950  146.4600 C   0  0  2  0  0  3  0  0  0  0  0  0
  188.0290  176.2400  146.6930 N   0  0  0  0  0  0  0  0  0  0  0  0
  190.0260  173.2470  143.7320 N   0  0  0  0  0  2  0  0  0  0  0  0
  194.7020  177.0410  145.8810 C   0  0  0  0  0  3  0  0  0  0  0  0
  189.7080  175.7560  143.5990 C   0  0  2  0  0  3  0  0  0  0  0  0
  188.3830  175.3580  142.9390 C   0  0  0  0  0  2  0  0  0  0  0  0
  190.6060  175.1820  147.8450 C   0  0  0  0  0  2  0  0  0  0  0  0
  192.5570  176.3040  146.7410 C   0  0  0  0  0  0  0  0  0  0  0  0
  193.7140  177.0790  146.8670 C   0  0  0  0  0  3  0  0  0  0  0  0
  187.2690  178.4570  146.4750 O   0  0  0  0  0  0  0  0  0  0  0  0
  187.0150  177.2240  146.4240 C   0  0  0  0  0  0  0  0  0  0  0  0
  184.5430  178.5780  144.0850 C   0  0  0  0  0  0  0  0  0  0  0  0
  185.4920  176.3470  144.6200 C   0  0  0  0  0  2  0  0  0  0  0  0
  184.6690  178.2410  147.7710 O   0  0  0  0  0  1  0  0  0  0  0  0
  183.7940  179.0970  143.2740 O   0  0  0  0  0  0  0  0  0  0  0  0
  185.5210  177.5300  143.6500 C   0  0  0  0  0  2  0  0  0  0  0  0
  184.5380  177.8260  146.4450 C   0  0  2  0  0  3  0  0  0  0  0  0
  185.6190  176.7900  146.0830 C   0  0  2  0  0  3  0  0  0  0  0  0
  184.5470  179.0360  145.5110 C   0  0  0  0  0  2  0  0  0  0  0  0
  1 15  1  0  0  0  0
  2  3  1  6  0  0  0
  2 13  1  0  0  0  0
  3 20  1  0  0  0  0
  4 16  2  0  0  0  0
  5 15  1  1  0  0  0
  5  2  1  0  0  0  0
  6  1  1  0  0  0  0
  6 18  1  0  0  0  0
  7  4  1  0  0  0  0
  7  3  2  0  0  0  0
  8 13  1  0  0  0  0
  8 14  2  0  0  0  0
  9  1  2  0  0  0  0
 10 19  1  0  0  0  0
 11  4  1  0  0  0  0
 12  8  1  0  0  0  0
 13 19  1  1  0  0  0
 16 21  1  0  0  0  0
 17 18  1  1  0  0  0
 17  5  1  0  0  0  0
 17 12  1  0  0  0  0
 20 21  2  0  0  0  0
 20 10  1  0  0  0  0
 23 22  2  0  0  0  0
 23 14  1  0  0  0  0
 24 31  1  0  0  0  0
 25 30  1  0  0  0  0
 27 24  2  0  0  0  0
 28 24  1  0  0  0  0
 28 25  1  0  0  0  0
 29 26  1  1  0  0  0
 30 23  1  6  0  0  0
 30 29  1  0  0  0  0
 31 29  1  0  0  0  0
M  END
>  <MODEL>
1

>  <REMARK>
 VINA RESULT:      -9.2      0.000      0.000
  Name = 
  2 active torsions:
  status: ('A' for Active; 'I' for Inactive)
    1  A    between atoms: C_5  and  N_16
    2  A    between atoms: C_5  and  C_30
                            x       y       z     vdW  Elec       q    Type
                         _______ _______ _______ _____ _____    ______ ____

>  <TORSDO>
F 2

$$$$
=
 OpenBabel11112416483D

 31 35  0  0  1  0  0  0  0  0999 V2000
  188.4390  176.1700  141.4760 C   0  0  0  0  0  0  0  0  0  0  0  0
  190.7860  175.2690  144.3130 C   0  0  2  0  0  3  0  0  0  0  0  0
  192.1840  175.6330  144.7750 C   0  0  0  0  0  0  0  0  0  0  0  0
  194.4710  176.2430  144.2130 C   0  0  0  0  0  0  0  0  0  0  0  0
  190.2690  176.2080  143.2080 C   0  0  1  0  0  3  0  0  0  0  0  0
  188.2210  177.6300  141.6670 C   0  0  0  0  0  2  0  0  0  0  0  0
  193.1580  175.9710  143.8230 C   0  0  0  0  0  3  0  0  0  0  0  0
  189.1470  176.4320  145.8690 C   0  0  0  0  0  0  0  0  0  0  0  0
  187.8090  175.5440  140.5850 O   0  0  0  0  0  0  0  0  0  0  0  0
  191.5720  175.1760  147.2040 C   0  0  0  0  0  2  0  0  0  0  0  0
  195.3970  176.5800  143.2840 F   0  0  0  0  0  0  0  0  0  0  0  0
  189.6720  177.6940  145.2430 C   0  0  0  0  0  2  0  0  0  0  0  0
  189.7630  175.1190  145.4600 C   0  0  2  0  0  3  0  0  0  0  0  0
  188.1660  176.4280  146.7240 N   0  0  0  0  0  0  0  0  0  0  0  0
  189.3610  175.4830  142.3200 N   0  0  0  0  0  2  0  0  0  0  0  0
  194.8300  176.1640  145.5590 C   0  0  0  0  0  3  0  0  0  0  0  0
  189.6870  177.5670  143.7210 C   0  0  2  0  0  3  0  0  0  0  0  0
  188.3080  177.9280  143.1560 C   0  0  0  0  0  2  0  0  0  0  0  0
  190.3860  174.3900  146.6510 C   0  0  0  0  0  2  0  0  0  0  0  0
  192.5640  175.5190  146.1340 C   0  0  0  0  0  0  0  0  0  0  0  0
  193.8780  175.8050  146.5150 C   0  0  0  0  0  3  0  0  0  0  0  0
  188.0290  178.5640  147.7050 O   0  0  0  0  0  0  0  0  0  0  0  0
  187.4350  177.5590  147.2310 C   0  0  0  0  0  0  0  0  0  0  0  0
  185.0300  178.2410  144.5540 C   0  0  0  0  0  0  0  0  0  0  0  0
  185.3720  176.4790  146.2700 C   0  0  0  0  0  2  0  0  0  0  0  0
  185.8380  179.9080  147.7610 O   0  0  0  0  0  1  0  0  0  0  0  0
  184.3110  178.4750  143.5960 O   0  0  0  0  0  0  0  0  0  0  0  0
  185.5390  176.8530  144.7950 C   0  0  0  0  0  2  0  0  0  0  0  0
  185.3090  178.9300  146.9160 C   0  0  2  0  0  3  0  0  0  0  0  0
  185.9340  177.5540  147.2100 C   0  0  2  0  0  3  0  0  0  0  0  0
  185.4740  179.3520  145.4560 C   0  0  0  0  0  2  0  0  0  0  0  0
  1  6  1  0  0  0  0
  1 15  1  0  0  0  0
  2  3  1  1  0  0  0
  2 13  1  0  0  0  0
  3 20  1  0  0  0  0
  4 16  2  0  0  0  0
  5 15  1  1  0  0  0
  5 17  1  0  0  0  0
  5  2  1  0  0  0  0
  6 18  1  0  0  0  0
  7  4  1  0  0  0  0
  7  3  2  0  0  0  0
  8 14  2  0  0  0  0
  9  1  2  0  0  0  0
 11  4  1  0  0  0  0
 12  8  1  0  0  0  0
 13  8  1  0  0  0  0
 13 19  1  1  0  0  0
 14 23  1  0  0  0  0
 16 21  1  0  0  0  0
 17 18  1  1  0  0  0
 17 12  1  0  0  0  0
 19 10  1  0  0  0  0
 20 21  2  0  0  0  0
 20 10  1  0  0  0  0
 23 22  2  0  0  0  0
 24 28  1  0  0  0  0
 24 31  1  0  0  0  0
 25 30  1  0  0  0  0
 27 24  2  0  0  0  0
 28 25  1  0  0  0  0
 29 30  1  0  0  0  0
 29 26  1  1  0  0  0
 30 23  1  6  0  0  0
 31 29  1  0  0  0  0
M  END
>  <MODEL>
2

>  <REMARK>
 VINA RESULT:      -9.1      1.497      1.740
  Name = 
  2 active torsions:
  status: ('A' for Active; 'I' for Inactive)
    1  A    between atoms: C_5  and  N_16
    2  A    between atoms: C_5  and  C_30
                            x       y       z     vdW  Elec       q    Type
                         _______ _______ _______ _____ _____    ______ ____

>  <TORSDO>
F 2

$$$$
=
 OpenBabel11112416483D

 31 35  0  0  1  0  0  0  0  0999 V2000
  188.1610  174.5410  139.9730 C   0  0  0  0  0  0  0  0  0  0  0  0
  188.7300  176.6770  143.0520 C   0  0  2  0  0  3  0  0  0  0  0  0
  188.1340  176.8350  144.4370 C   0  0  0  0  0  0  0  0  0  0  0  0
  186.1760  176.7860  145.8810 C   0  0  0  0  0  0  0  0  0  0  0  0
  188.2300  175.4080  142.3380 C   0  0  1  0  0  3  0  0  0  0  0  0
  188.4140  173.1610  140.4670 C   0  0  0  0  0  2  0  0  0  0  0  0
  186.7670  176.5830  144.6320 C   0  0  0  0  0  3  0  0  0  0  0  0
  190.9550  175.4760  143.3180 C   0  0  0  0  0  0  0  0  0  0  0  0
  187.9320  174.7490  138.7530 O   0  0  0  0  0  0  0  0  0  0  0  0
  190.3630  177.6300  145.3790 C   0  0  0  0  0  2  0  0  0  0  0  0
  184.8590  176.5260  146.0560 F   0  0  0  0  0  0  0  0  0  0  0  0
  190.1090  174.3080  143.7390 C   0  0  0  0  0  2  0  0  0  0  0  0
  190.2710  176.7840  143.0140 C   0  0  2  0  0  3  0  0  0  0  0  0
  192.2460  175.3930  143.1770 N   0  0  0  0  0  0  0  0  0  0  0  0
  188.1910  175.6300  140.8920 N   0  0  0  0  0  2  0  0  0  0  0  0
  186.9420  177.2610  146.9460 C   0  0  0  0  0  3  0  0  0  0  0  0
  188.9680  174.0910  142.7470 C   0  0  2  0  0  3  0  0  0  0  0  0
  189.4580  173.2380  141.5700 C   0  0  0  0  0  2  0  0  0  0  0  0
  190.7590  177.9060  143.9310 C   0  0  0  0  0  2  0  0  0  0  0  0
  188.8960  177.3510  145.5130 C   0  0  0  0  0  0  0  0  0  0  0  0
  188.2970  177.5410  146.7620 C   0  0  0  0  0  3  0  0  0  0  0  0
  192.9170  173.1780  142.7480 O   0  0  0  0  0  0  0  0  0  0  0  0
  193.0840  174.2450  143.3970 C   0  0  0  0  0  0  0  0  0  0  0  0
  193.5890  176.4060  146.3120 C   0  0  0  0  0  0  0  0  0  0  0  0
  193.6640  173.9700  145.8330 C   0  0  0  0  0  2  0  0  0  0  0  0
  195.4240  175.9200  143.1310 O   0  0  0  0  0  1  0  0  0  0  0  0
  193.6610  177.1660  147.2630 O   0  0  0  0  0  0  0  0  0  0  0  0
  192.8410  175.1130  146.4320 C   0  0  0  0  0  2  0  0  0  0  0  0
  194.9760  175.6150  144.4180 C   0  0  2  0  0  3  0  0  0  0  0  0
  194.1770  174.2990  144.4250 C   0  0  2  0  0  3  0  0  0  0  0  0
  194.1810  176.7890  144.9900 C   0  0  0  0  0  2  0  0  0  0  0  0
  1  6  1  0  0  0  0
  1 15  1  0  0  0  0
  2  3  1  1  0  0  0
  3  7  2  0  0  0  0
  3 20  1  0  0  0  0
  4 11  1  0  0  0  0
  4 16  2  0  0  0  0
  5 15  1  6  0  0  0
  5 17  1  0  0  0  0
  5  2  1  0  0  0  0
  6 18  1  0  0  0  0
  7  4  1  0  0  0  0
  8 12  1  0  0  0  0
  9  1  2  0  0  0  0
 10 20  1  0  0  0  0
 13  2  1  0  0  0  0
 13  8  1  0  0  0  0
 13 19  1  1  0  0  0
 14  8  2  0  0  0  0
 14 23  1  0  0  0  0
 17 18  1  6  0  0  0
 17 12  1  0  0  0  0
 19 10  1  0  0  0  0
 20 21  2  0  0  0  0
 21 16  1  0  0  0  0
 22 23  2  0  0  0  0
 24 28  1  0  0  0  0
 24 27  2  0  0  0  0
 25 28  1  0  0  0  0
 29 26  1  6  0  0  0
 29 30  1  0  0  0  0
 29 31  1  0  0  0  0
 30 23  1  6  0  0  0
 30 25  1  0  0  0  0
 31 24  1  0  0  0  0
M  END
>  <MODEL>
3

>  <REMARK>
 VINA RESULT:      -9.0      3.705      6.879
  Name = 
  2 active torsions:
  status: ('A' for Active; 'I' for Inactive)
    1  A    between atoms: C_5  and  N_16
    2  A    between atoms: C_5  and  C_30
                            x       y       z     vdW  Elec       q    Type
                         _______ _______ _______ _____ _____    ______ ____

>  <TORSDO>
F 2

$$$$
=
 OpenBabel11112416483D

 31 35  0  0  1  0  0  0  0  0999 V2000
  193.2900  176.4840  145.7720 C   0  0  0  0  0  0  0  0  0  0  0  0
  190.8390  175.9800  142.9240 C   0  0  2  0  0  3  0  0  0  0  0  0
  190.2850  174.8280  142.1080 C   0  0  0  0  0  0  0  0  0  0  0  0
  190.6340  172.6600  141.0600 C   0  0  0  0  0  0  0  0  0  0  0  0
  191.6180  175.5010  144.1630 C   0  0  1  0  0  3  0  0  0  0  0  0
  192.6750  175.7150  146.8880 C   0  0  0  0  0  2  0  0  0  0  0  0
  191.0910  173.7050  141.8660 C   0  0  0  0  0  3  0  0  0  0  0  0
  189.0140  176.7140  144.5330 C   0  0  0  0  0  0  0  0  0  0  0  0
  194.3280  177.1670  145.9670 O   0  0  0  0  0  0  0  0  0  0  0  0
  188.1030  176.0760  141.7040 C   0  0  0  0  0  2  0  0  0  0  0  0
  191.4180  171.5770  140.8460 F   0  0  0  0  0  0  0  0  0  0  0  0
  189.2360  175.3710  145.1700 C   0  0  0  0  0  2  0  0  0  0  0  0
  189.7910  177.0550  143.2880 C   0  0  2  0  0  3  0  0  0  0  0  0
  188.2020  177.6010  145.0310 N   0  0  0  0  0  0  0  0  0  0  0  0
  192.6840  176.4500  144.4820 N   0  0  0  0  0  2  0  0  0  0  0  0
  189.3700  172.7340  140.4720 C   0  0  0  0  0  3  0  0  0  0  0  0
  190.7270  175.1280  145.3940 C   0  0  2  0  0  3  0  0  0  0  0  0
  191.1640  175.7650  146.7190 C   0  0  0  0  0  2  0  0  0  0  0  0
  188.8690  177.3360  142.1020 C   0  0  0  0  0  2  0  0  0  0  0  0
  189.0200  174.9130  141.4790 C   0  0  0  0  0  0  0  0  0  0  0  0
  188.5670  173.8560  140.6830 C   0  0  0  0  0  3  0  0  0  0  0  0
  187.8130  177.8380  147.3400 O   0  0  0  0  0  0  0  0  0  0  0  0
  187.3850  177.4850  146.2090 C   0  0  0  0  0  0  0  0  0  0  0  0
  184.4350  178.5970  144.3440 C   0  0  0  0  0  0  0  0  0  0  0  0
  185.6600  176.4640  144.6840 C   0  0  0  0  0  2  0  0  0  0  0  0
  185.2240  178.2910  147.9500 O   0  0  0  0  0  1  0  0  0  0  0  0
  183.5140  179.0410  143.6790 O   0  0  0  0  0  0  0  0  0  0  0  0
  185.4140  177.6400  143.7360 C   0  0  0  0  0  2  0  0  0  0  0  0
  184.9040  177.8590  146.6620 C   0  0  2  0  0  3  0  0  0  0  0  0
  185.9960  176.9240  146.1080 C   0  0  2  0  0  3  0  0  0  0  0  0
  184.6430  179.0600  145.7530 C   0  0  0  0  0  2  0  0  0  0  0  0
  1  9  2  0  0  0  0
  1  6  1  0  0  0  0
  2  3  1  1  0  0  0
  2 13  1  0  0  0  0
  2  5  1  0  0  0  0
  4  7  2  0  0  0  0
  5 15  1  1  0  0  0
  5 17  1  0  0  0  0
  7  3  1  0  0  0  0
  8 14  2  0  0  0  0
  8 12  1  0  0  0  0
 10 19  1  0  0  0  0
 11  4  1  0  0  0  0
 13 19  1  6  0  0  0
 13  8  1  0  0  0  0
 14 23  1  0  0  0  0
 15  1  1  0  0  0  0
 16 21  2  0  0  0  0
 16  4  1  0  0  0  0
 17 12  1  6  0  0  0
 17 18  1  0  0  0  0
 18  6  1  0  0  0  0
 20 10  1  0  0  0  0
 20  3  2  0  0  0  0
 21 20  1  0  0  0  0
 23 22  2  0  0  0  0
 24 31  1  0  0  0  0
 25 30  1  0  0  0  0
 27 24  2  0  0  0  0
 28 24  1  0  0  0  0
 28 25  1  0  0  0  0
 29 26  1  1  0  0  0
 30 23  1  6  0  0  0
 30 29  1  0  0  0  0
 31 29  1  0  0  0  0
M  END
>  <MODEL>
4

>  <REMARK>
 VINA RESULT:      -8.9      2.296      4.546
  Name = 
  2 active torsions:
  status: ('A' for Active; 'I' for Inactive)
    1  A    between atoms: C_5  and  N_16
    2  A    between atoms: C_5  and  C_30
                            x       y       z     vdW  Elec       q    Type
                         _______ _______ _______ _____ _____    ______ ____

>  <TORSDO>
F 2

$$$$
=
 OpenBabel11112416483D

 31 35  0  0  1  0  0  0  0  0999 V2000
  190.6150  171.8340  141.9140 C   0  0  0  0  0  0  0  0  0  0  0  0
  191.1480  173.9190  145.0350 C   0  0  2  0  0  3  0  0  0  0  0  0
  192.1940  174.8680  145.5880 C   0  0  0  0  0  0  0  0  0  0  0  0
  194.5360  175.4900  145.8060 C   0  0  0  0  0  0  0  0  0  0  0  0
  191.3770  173.5960  143.5470 C   0  0  1  0  0  3  0  0  0  0  0  0
  190.5670  172.8520  140.8310 C   0  0  0  0  0  2  0  0  0  0  0  0
  193.5440  174.6750  145.2570 C   0  0  0  0  0  3  0  0  0  0  0  0
  189.1740  175.3290  144.2760 C   0  0  0  0  0  0  0  0  0  0  0  0
  190.3950  170.6220  141.6590 O   0  0  0  0  0  0  0  0  0  0  0  0
  190.4330  176.1360  146.9210 C   0  0  0  0  0  2  0  0  0  0  0  0
  195.8330  175.3000  145.4660 F   0  0  0  0  0  0  0  0  0  0  0  0
  190.1260  175.8410  143.2320 C   0  0  0  0  0  2  0  0  0  0  0  0
  189.6920  174.3590  145.3060 C   0  0  2  0  0  3  0  0  0  0  0  0
  187.9170  175.6660  144.3050 N   0  0  0  0  0  0  0  0  0  0  0  0
  190.9000  172.2450  143.2500 N   0  0  0  0  0  2  0  0  0  0  0  0
  194.1910  176.4970  146.7080 C   0  0  0  0  0  3  0  0  0  0  0  0
  190.8440  174.6790  142.5500 C   0  0  2  0  0  3  0  0  0  0  0  0
  189.9790  174.1300  141.4100 C   0  0  0  0  0  2  0  0  0  0  0  0
  189.5480  174.9090  146.7250 C   0  0  0  0  0  2  0  0  0  0  0  0
  191.8560  175.8670  146.5320 C   0  0  0  0  0  0  0  0  0  0  0  0
  192.8550  176.6850  147.0680 C   0  0  0  0  0  3  0  0  0  0  0  0
  186.7180  176.1420  142.3360 O   0  0  0  0  0  0  0  0  0  0  0  0
  187.2230  176.5560  143.4140 C   0  0  0  0  0  0  0  0  0  0  0  0
  184.6090  178.4350  145.1610 C   0  0  0  0  0  0  0  0  0  0  0  0
  187.0830  178.2540  145.2690 C   0  0  0  0  0  2  0  0  0  0  0  0
  185.9110  178.4730  141.6940 O   0  0  0  0  0  1  0  0  0  0  0  0
  183.6910  178.9680  145.7630 O   0  0  0  0  0  0  0  0  0  0  0  0
  185.7580  177.8360  145.9120 C   0  0  0  0  0  2  0  0  0  0  0  0
  185.9070  178.7120  143.0690 C   0  0  2  0  0  3  0  0  0  0  0  0
  187.0960  178.0130  143.7540 C   0  0  2  0  0  3  0  0  0  0  0  0
  184.5610  178.3050  143.6700 C   0  0  0  0  0  2  0  0  0  0  0  0
  1 15  1  0  0  0  0
  2 13  1  0  0  0  0
  2  3  1  6  0  0  0
  3 20  1  0  0  0  0
  4 16  2  0  0  0  0
  5 15  1  6  0  0  0
  5  2  1  0  0  0  0
  6 18  1  0  0  0  0
  6  1  1  0  0  0  0
  7  3  2  0  0  0  0
  7  4  1  0  0  0  0
  8 14  2  0  0  0  0
  8 13  1  0  0  0  0
  9  1  2  0  0  0  0
 11  4  1  0  0  0  0
 12  8  1  0  0  0  0
 13 19  1  1  0  0  0
 16 21  1  0  0  0  0
 17 18  1  6  0  0  0
 17 12  1  0  0  0  0
 17  5  1  0  0  0  0
 19 10  1  0  0  0  0
 20 10  1  0  0  0  0
 20 21  2  0  0  0  0
 22 23  2  0  0  0  0
 23 14  1  0  0  0  0
 24 27  2  0  0  0  0
 24 28  1  0  0  0  0
 25 28  1  0  0  0  0
 29 26  1  6  0  0  0
 29 31  1  0  0  0  0
 29 30  1  0  0  0  0
 30 23  1  1  0  0  0
 30 25  1  0  0  0  0
 31 24  1  0  0  0  0
M  END
>  <MODEL>
5

>  <REMARK>
 VINA RESULT:      -8.8      1.662      2.386
  Name = 
  2 active torsions:
  status: ('A' for Active; 'I' for Inactive)
    1  A    between atoms: C_5  and  N_16
    2  A    between atoms: C_5  and  C_30
                            x       y       z     vdW  Elec       q    Type
                         _______ _______ _______ _____ _____    ______ ____

>  <TORSDO>
F 2

$$$$
=
 OpenBabel11112416483D

 31 35  0  0  1  0  0  0  0  0999 V2000
  188.3150  174.4080  140.2180 C   0  0  0  0  0  0  0  0  0  0  0  0
  188.7240  176.6040  143.2810 C   0  0  2  0  0  3  0  0  0  0  0  0
  188.0460  176.7980  144.6240 C   0  0  0  0  0  0  0  0  0  0  0  0
  186.0030  176.8040  145.9460 C   0  0  0  0  0  0  0  0  0  0  0  0
  188.2510  175.3260  142.5640 C   0  0  1  0  0  3  0  0  0  0  0  0
  188.5200  173.0360  140.7560 C   0  0  0  0  0  2  0  0  0  0  0  0
  186.6670  176.5660  144.7400 C   0  0  0  0  0  3  0  0  0  0  0  0
  190.9120  175.3830  143.7070 C   0  0  0  0  0  0  0  0  0  0  0  0
  188.1640  174.5920  138.9830 O   0  0  0  0  0  0  0  0  0  0  0  0
  190.2230  177.5880  145.6820 C   0  0  0  0  0  2  0  0  0  0  0  0
  184.6750  176.5620  146.0460 F   0  0  0  0  0  0  0  0  0  0  0  0
  190.0270  174.2340  144.1000 C   0  0  0  0  0  2  0  0  0  0  0  0
  190.2650  176.6930  143.3350 C   0  0  2  0  0  3  0  0  0  0  0  0
  192.2090  175.2830  143.6470 N   0  0  0  0  0  0  0  0  0  0  0  0
  188.3030  175.5170  141.1150 N   0  0  0  0  0  2  0  0  0  0  0  0
  186.7090  177.2930  147.0460 C   0  0  0  0  0  3  0  0  0  0  0  0
  188.9460  174.0090  143.0450 C   0  0  2  0  0  3  0  0  0  0  0  0
  189.4960  173.1250  141.9180 C   0  0  0  0  0  2  0  0  0  0  0  0
  190.7110  177.8280  144.2560 C   0  0  0  0  0  2  0  0  0  0  0  0
  188.7480  177.3290  145.7320 C   0  0  0  0  0  0  0  0  0  0  0  0
  188.0770  177.5530  146.9380 C   0  0  0  0  0  3  0  0  0  0  0  0
  193.5060  173.4200  143.0230 O   0  0  0  0  0  0  0  0  0  0  0  0
  193.0170  174.1300  143.9420 C   0  0  0  0  0  0  0  0  0  0  0  0
  196.1400  173.7150  145.8100 C   0  0  0  0  0  0  0  0  0  0  0  0
  193.9700  174.8730  146.1520 C   0  0  0  0  0  2  0  0  0  0  0  0
  193.4340  171.4000  144.7920 O   0  0  0  0  0  1  0  0  0  0  0  0
  197.2300  173.6130  146.3470 O   0  0  0  0  0  0  0  0  0  0  0  0
  195.4410  175.0400  145.7640 C   0  0  0  0  0  2  0  0  0  0  0  0
  194.0490  172.4180  145.5230 C   0  0  2  0  0  3  0  0  0  0  0  0
  193.2850  173.7460  145.3680 C   0  0  2  0  0  3  0  0  0  0  0  0
  195.5210  172.5360  145.1250 C   0  0  0  0  0  2  0  0  0  0  0  0
  1  6  1  0  0  0  0
  1 15  1  0  0  0  0
  2 13  1  0  0  0  0
  2  3  1  1  0  0  0
  3  7  2  0  0  0  0
  3 20  1  0  0  0  0
  4 11  1  0  0  0  0
  4 16  2  0  0  0  0
  5 15  1  6  0  0  0
  5 17  1  0  0  0  0
  5  2  1  0  0  0  0
  6 18  1  0  0  0  0
  7  4  1  0  0  0  0
  8 12  1  0  0  0  0
  9  1  2  0  0  0  0
 10 20  1  0  0  0  0
 13  8  1  0  0  0  0
 13 19  1  1  0  0  0
 14  8  2  0  0  0  0
 14 23  1  0  0  0  0
 17 18  1  6  0  0  0
 17 12  1  0  0  0  0
 19 10  1  0  0  0  0
 20 21  2  0  0  0  0
 21 16  1  0  0  0  0
 22 23  2  0  0  0  0
 24 27  2  0  0  0  0
 28 24  1  0  0  0  0
 28 25  1  0  0  0  0
 29 26  1  6  0  0  0
 30 23  1  6  0  0  0
 30 29  1  0  0  0  0
 30 25  1  0  0  0  0
 31 29  1  0  0  0  0
 31 24  1  0  0  0  0
M  END
>  <MODEL>
6

>  <REMARK>
 VINA RESULT:      -8.6      3.990      7.450
  Name = 
  2 active torsions:
  status: ('A' for Active; 'I' for Inactive)
    1  A    between atoms: C_5  and  N_16
    2  A    between atoms: C_5  and  C_30
                            x       y       z     vdW  Elec       q    Type
                         _______ _______ _______ _____ _____    ______ ____

>  <TORSDO>
F 2

$$$$
=
 OpenBabel11112416483D

 31 35  0  0  1  0  0  0  0  0999 V2000
  193.9270  176.7840  145.5170 C   0  0  0  0  0  0  0  0  0  0  0  0
  191.1720  175.4530  143.2780 C   0  0  2  0  0  3  0  0  0  0  0  0
  190.6220  174.1060  142.8510 C   0  0  0  0  0  0  0  0  0  0  0  0
  191.0250  171.7700  142.3030 C   0  0  0  0  0  0  0  0  0  0  0  0
  192.1510  175.3400  144.4610 C   0  0  1  0  0  3  0  0  0  0  0  0
  193.5410  176.2800  146.8630 C   0  0  0  0  0  2  0  0  0  0  0  0
  191.4880  173.0060  142.7600 C   0  0  0  0  0  3  0  0  0  0  0  0
  189.5200  176.4570  144.9290 C   0  0  0  0  0  0  0  0  0  0  0  0
  194.9140  177.5510  145.3840 O   0  0  0  0  0  0  0  0  0  0  0  0
  188.2990  175.0900  142.5040 C   0  0  0  0  0  2  0  0  0  0  0  0
  191.8700  170.7140  142.2330 F   0  0  0  0  0  0  0  0  0  0  0  0
  189.9490  175.3270  145.8220 C   0  0  0  0  0  2  0  0  0  0  0  0
  190.0880  176.5230  143.5340 C   0  0  2  0  0  3  0  0  0  0  0  0
  188.7040  177.3920  145.3210 N   0  0  0  0  0  0  0  0  0  0  0  0
  193.1580  176.3980  144.3790 N   0  0  0  0  0  2  0  0  0  0  0  0
  189.6920  171.6240  141.9160 C   0  0  0  0  0  3  0  0  0  0  0  0
  191.4730  175.2320  145.8670 C   0  0  2  0  0  3  0  0  0  0  0  0
  192.0230  176.2000  146.9210 C   0  0  0  0  0  2  0  0  0  0  0  0
  188.9920  176.4500  142.4710 C   0  0  0  0  0  2  0  0  0  0  0  0
  189.2810  173.9610  142.4210 C   0  0  0  0  0  0  0  0  0  0  0  0
  188.8240  172.7170  141.9770 C   0  0  0  0  0  3  0  0  0  0  0  0
  188.7080  177.9160  147.6160 O   0  0  0  0  0  0  0  0  0  0  0  0
  188.0680  177.5230  146.6040 C   0  0  0  0  0  0  0  0  0  0  0  0
  185.0940  178.6040  144.7590 C   0  0  0  0  0  0  0  0  0  0  0  0
  186.0570  176.4500  145.5330 C   0  0  0  0  0  2  0  0  0  0  0  0
  186.2510  179.0560  148.2480 O   0  0  0  0  0  1  0  0  0  0  0  0
  184.1690  179.0140  144.0780 O   0  0  0  0  0  0  0  0  0  0  0  0
  185.8600  177.3870  144.3390 C   0  0  0  0  0  2  0  0  0  0  0  0
  185.7290  178.3820  147.1430 C   0  0  2  0  0  3  0  0  0  0  0  0
  186.6150  177.1810  146.7610 C   0  0  2  0  0  3  0  0  0  0  0  0
  185.5250  179.3550  145.9820 C   0  0  0  0  0  2  0  0  0  0  0  0
  1  6  1  0  0  0  0
  2  3  1  1  0  0  0
  2 13  1  0  0  0  0
  2  5  1  0  0  0  0
  4  7  2  0  0  0  0
  5 15  1  1  0  0  0
  5 17  1  0  0  0  0
  6 18  1  0  0  0  0
  7  3  1  0  0  0  0
  8 14  2  0  0  0  0
  8 12  1  0  0  0  0
  9  1  2  0  0  0  0
 11  4  1  0  0  0  0
 13 19  1  6  0  0  0
 13  8  1  0  0  0  0
 14 23  1  0  0  0  0
 15  1  1  0  0  0  0
 16 21  2  0  0  0  0
 16  4  1  0  0  0  0
 17 12  1  6  0  0  0
 17 18  1  0  0  0  0
 19 10  1  0  0  0  0
 20 10  1  0  0  0  0
 20  3  2  0  0  0  0
 21 20  1  0  0  0  0
 23 22  2  0  0  0  0
 24 31  1  0  0  0  0
 25 30  1  0  0  0  0
 27 24  2  0  0  0  0
 28 24  1  0  0  0  0
 28 25  1  0  0  0  0
 29 26  1  1  0  0  0
 30 23  1  6  0  0  0
 30 29  1  0  0  0  0
 31 29  1  0  0  0  0
M  END
>  <MODEL>
7

>  <REMARK>
 VINA RESULT:      -8.4      2.339      4.529
  Name = 
  2 active torsions:
  status: ('A' for Active; 'I' for Inactive)
    1  A    between atoms: C_5  and  N_16
    2  A    between atoms: C_5  and  C_30
                            x       y       z     vdW  Elec       q    Type
                         _______ _______ _______ _____ _____    ______ ____

>  <TORSDO>
F 2

$$$$
=
 OpenBabel11112416483D

 31 35  0  0  1  0  0  0  0  0999 V2000
  192.7680  176.3420  146.8810 C   0  0  0  0  0  0  0  0  0  0  0  0
  192.0800  174.2510  143.7950 C   0  0  2  0  0  3  0  0  0  0  0  0
  191.8550  172.7900  143.4530 C   0  0  0  0  0  0  0  0  0  0  0  0
  192.3560  170.4490  143.8830 C   0  0  0  0  0  0  0  0  0  0  0  0
  192.0300  174.5140  145.3110 C   0  0  1  0  0  3  0  0  0  0  0  0
  191.5590  176.1160  147.7190 C   0  0  0  0  0  2  0  0  0  0  0  0
  192.4890  171.7980  144.2170 C   0  0  0  0  0  3  0  0  0  0  0  0
  189.8250  175.4150  143.6640 C   0  0  0  0  0  0  0  0  0  0  0  0
  193.6490  177.1620  147.2440 O   0  0  0  0  0  0  0  0  0  0  0  0
  190.4070  173.4130  141.4520 C   0  0  0  0  0  2  0  0  0  0  0  0
  192.9620  169.5020  144.6380 F   0  0  0  0  0  0  0  0  0  0  0  0
  189.4810  174.5700  144.8570 C   0  0  0  0  0  2  0  0  0  0  0  0
  191.1720  175.2270  143.0150 C   0  0  2  0  0  3  0  0  0  0  0  0
  189.0190  176.3210  143.1890 N   0  0  0  0  0  0  0  0  0  0  0  0
  192.9120  175.6290  145.6540 N   0  0  0  0  0  2  0  0  0  0  0  0
  191.6000  170.0760  142.7710 C   0  0  0  0  0  3  0  0  0  0  0  0
  190.5890  174.6530  145.9060 C   0  0  2  0  0  3  0  0  0  0  0  0
  190.3760  175.8870  146.7900 C   0  0  0  0  0  2  0  0  0  0  0  0
  191.0430  174.7980  141.5540 C   0  0  0  0  0  2  0  0  0  0  0  0
  191.1210  172.4080  142.3050 C   0  0  0  0  0  0  0  0  0  0  0  0
  190.9840  171.0530  141.9860 C   0  0  0  0  0  3  0  0  0  0  0  0
  186.6970  175.9740  143.3720 O   0  0  0  0  0  0  0  0  0  0  0  0
  187.7070  176.6690  143.6660 C   0  0  0  0  0  0  0  0  0  0  0  0
  185.0080  177.6570  145.9360 C   0  0  0  0  0  0  0  0  0  0  0  0
  187.4870  177.5410  146.0180 C   0  0  0  0  0  2  0  0  0  0  0  0
  186.3250  179.0410  142.7630 O   0  0  0  0  0  1  0  0  0  0  0  0
  184.0660  177.8910  146.6750 O   0  0  0  0  0  0  0  0  0  0  0  0
  186.1780  176.8630  146.4310 C   0  0  0  0  0  2  0  0  0  0  0  0
  186.3030  178.7460  144.1270 C   0  0  2  0  0  3  0  0  0  0  0  0
  187.5180  177.8860  144.5240 C   0  0  2  0  0  3  0  0  0  0  0  0
  184.9730  178.0940  144.5040 C   0  0  0  0  0  2  0  0  0  0  0  0
  1  9  2  0  0  0  0
  1  6  1  0  0  0  0
  2  3  1  1  0  0  0
  2  5  1  0  0  0  0
  3  7  1  0  0  0  0
  4  7  2  0  0  0  0
  4 11  1  0  0  0  0
  5 15  1  6  0  0  0
  5 17  1  0  0  0  0
  8 12  1  0  0  0  0
 10 19  1  0  0  0  0
 10 20  1  0  0  0  0
 13 19  1  6  0  0  0
 13  8  1  0  0  0  0
 13  2  1  0  0  0  0
 14  8  2  0  0  0  0
 14 23  1  0  0  0  0
 15  1  1  0  0  0  0
 16  4  1  0  0  0  0
 17 12  1  6  0  0  0
 17 18  1  0  0  0  0
 18  6  1  0  0  0  0
 20  3  2  0  0  0  0
 21 20  1  0  0  0  0
 21 16  2  0  0  0  0
 22 23  2  0  0  0  0
 24 28  1  0  0  0  0
 24 27  2  0  0  0  0
 25 28  1  0  0  0  0
 29 26  1  6  0  0  0
 29 31  1  0  0  0  0
 29 30  1  0  0  0  0
 30 23  1  6  0  0  0
 30 25  1  0  0  0  0
 31 24  1  0  0  0  0
M  END
>  <MODEL>
8

>  <REMARK>
 VINA RESULT:      -8.0      2.780      4.880
  Name = 
  2 active torsions:
  status: ('A' for Active; 'I' for Inactive)
    1  A    between atoms: C_5  and  N_16
    2  A    between atoms: C_5  and  C_30
                            x       y       z     vdW  Elec       q    Type
                         _______ _______ _______ _____ _____    ______ ____

>  <TORSDO>
F 2

$$$$
=
 OpenBabel11112416483D

 31 35  0  0  1  0  0  0  0  0999 V2000
  186.3550  176.9730  142.8440 C   0  0  0  0  0  0  0  0  0  0  0  0
  188.2660  173.9350  141.6240 C   0  0  2  0  0  3  0  0  0  0  0  0
  189.1570  173.5610  140.4550 C   0  0  0  0  0  0  0  0  0  0  0  0
  189.7030  173.7910  138.0950 C   0  0  0  0  0  0  0  0  0  0  0  0
  188.0120  175.4510  141.7080 C   0  0  1  0  0  3  0  0  0  0  0  0
  187.4280  177.9790  143.0690 C   0  0  0  0  0  2  0  0  0  0  0  0
  188.9440  174.1650  139.2060 C   0  0  0  0  0  3  0  0  0  0  0  0
  189.7650  174.2190  143.6570 C   0  0  0  0  0  0  0  0  0  0  0  0
  185.1640  177.2320  143.1540 O   0  0  0  0  0  0  0  0  0  0  0  0
  190.4040  171.8480  141.8660 C   0  0  0  0  0  2  0  0  0  0  0  0
  189.4950  174.3920  136.9000 F   0  0  0  0  0  0  0  0  0  0  0  0
  190.3030  175.4090  142.9130 C   0  0  0  0  0  2  0  0  0  0  0  0
  188.7310  173.3570  142.9790 C   0  0  2  0  0  3  0  0  0  0  0  0
  190.1350  173.9230  144.8690 N   0  0  0  0  0  0  0  0  0  0  0  0
  186.6910  175.7050  142.2840 N   0  0  0  0  0  2  0  0  0  0  0  0
  190.6720  172.7940  138.2160 C   0  0  0  0  0  3  0  0  0  0  0  0
  189.1570  176.2720  142.3880 C   0  0  2  0  0  3  0  0  0  0  0  0
  188.6910  177.2390  143.4830 C   0  0  0  0  0  2  0  0  0  0  0  0
  189.2120  171.9160  142.8180 C   0  0  0  0  0  2  0  0  0  0  0  0
  190.1160  172.5260  140.5610 C   0  0  0  0  0  0  0  0  0  0  0  0
  190.8780  172.1660  139.4460 C   0  0  0  0  0  3  0  0  0  0  0  0
  192.2450  174.8860  145.2750 O   0  0  0  0  0  0  0  0  0  0  0  0
  191.0870  174.6180  145.6940 C   0  0  0  0  0  0  0  0  0  0  0  0
  188.6860  177.0850  146.9460 C   0  0  0  0  0  0  0  0  0  0  0  0
  189.2480  174.7110  147.4120 C   0  0  0  0  0  2  0  0  0  0  0  0
  192.3750  176.7900  147.0980 O   0  0  0  0  0  1  0  0  0  0  0  0
  187.8560  177.9200  147.2630 O   0  0  0  0  0  0  0  0  0  0  0  0
  188.2760  175.6630  146.7110 C   0  0  0  0  0  2  0  0  0  0  0  0
  191.0470  176.4990  147.4140 C   0  0  2  0  0  3  0  0  0  0  0  0
  190.7130  175.0310  147.0880 C   0  0  2  0  0  3  0  0  0  0  0  0
  190.1110  177.4850  146.7140 C   0  0  0  0  0  2  0  0  0  0  0  0
  1  6  1  0  0  0  0
  1  9  2  0  0  0  0
  2  3  1  6  0  0  0
  2  5  1  0  0  0  0
  2 13  1  0  0  0  0
  3 20  1  0  0  0  0
  4 16  2  0  0  0  0
  4  7  1  0  0  0  0
  5 15  1  1  0  0  0
  5 17  1  0  0  0  0
  6 18  1  0  0  0  0
  7  3  2  0  0  0  0
  8 14  2  0  0  0  0
 10 19  1  0  0  0  0
 11  4  1  0  0  0  0
 12  8  1  0  0  0  0
 13 19  1  6  0  0  0
 13  8  1  0  0  0  0
 14 23  1  0  0  0  0
 15  1  1  0  0  0  0
 16 21  1  0  0  0  0
 17 12  1  1  0  0  0
 17 18  1  0  0  0  0
 20 10  1  0  0  0  0
 21 20  2  0  0  0  0
 22 23  2  0  0  0  0
 24 27  2  0  0  0  0
 28 24  1  0  0  0  0
 28 25  1  0  0  0  0
 29 26  1  6  0  0  0
 30 23  1  6  0  0  0
 30 25  1  0  0  0  0
 30 29  1  0  0  0  0
 31 24  1  0  0  0  0
 31 29  1  0  0  0  0
M  END
>  <MODEL>
9

>  <REMARK>
 VINA RESULT:      -7.8      2.949      5.996
  Name = 
  2 active torsions:
  status: ('A' for Active; 'I' for Inactive)
    1  A    between atoms: C_5  and  N_16
    2  A    between atoms: C_5  and  C_30
                            x       y       z     vdW  Elec       q    Type
                         _______ _______ _______ _____ _____    ______ ____

>  <TORSDO>
F 2

$$$$
