=
 OpenBabel11112417143D

 37 43  0  0  1  0  0  0  0  0999 V2000
  193.1110  175.0860  143.9530 C   0  0  0  0  0  2  0  0  0  0  0  0
  191.7130  170.6060  142.0330 C   0  0  1  0  0  0  0  0  0  0  0  0
  189.8070  174.3710  142.4380 C   0  0  1  0  0  3  0  0  0  0  0  0
  194.6140  175.2020  144.2400 C   0  0  2  0  0  3  0  0  0  0  0  0
  190.3140  176.3890  145.7170 C   0  0  0  0  0  2  0  0  0  0  0  0
  190.0870  172.2820  140.9990 C   0  0  1  0  0  3  0  0  0  0  0  0
  189.9350  174.6200  143.9270 C   0  0  2  0  0  3  0  0  0  0  0  0
  194.0560  176.2830  146.4650 C   0  0  0  0  0  0  0  0  0  0  0  0
  190.0760  172.9150  142.3940 C   0  0  1  0  0  3  0  0  0  0  0  0
  190.1970  176.1130  144.2230 C   0  0  1  0  0  3  0  0  0  0  0  0
  189.8270  173.3250  139.9000 C   0  0  0  0  0  2  0  0  0  0  0  0
  194.9740  175.3500  145.7260 C   0  0  0  0  0  2  0  0  0  0  0  0
  191.3170  172.7820  143.1090 N   0  0  2  0  0  0  0  0  0  0  0  0
  193.1650  170.1860  141.9340 C   0  0  0  0  0  1  0  0  0  0  0  0
  187.9980  176.0670  141.8710 C   0  0  0  0  0  2  0  0  0  0  0  0
  188.6100  174.2300  140.2360 C   0  0  0  0  0  2  0  0  0  0  0  0
  191.5070  171.3620  143.3700 C   0  0  0  0  0  2  0  0  0  0  0  0
  192.6090  175.9290  146.7030 C   0  0  1  0  0  3  0  0  0  0  0  0
  191.6950  176.9460  146.0100 C   0  0  0  0  0  2  0  0  0  0  0  0
  188.4910  174.6300  141.7280 C   0  0  1  0  0  3  0  0  0  0  0  0
  191.0540  173.5750  144.3150 C   0  0  1  0  0  3  0  0  0  0  0  0
  191.3650  171.4620  140.7870 C   0  0  0  0  0  2  0  0  0  0  0  0
  189.1560  177.0740  143.5960 C   0  0  1  0  0  3  0  0  0  0  0  0
  190.9150  169.4620  142.0380 O   0  0  0  0  0  1  0  0  0  0  0  0
  192.2980  174.4580  146.3590 C   0  0  0  0  0  2  0  0  0  0  0  0
  194.4960  177.3410  146.8850 O   0  0  0  0  0  0  0  0  0  0  0  0
  192.3910  174.0890  144.8700 C   0  0  2  0  0  3  0  0  0  0  0  0
  189.0340  176.9690  142.1870 O   0  0  0  0  0  0  0  0  0  0  0  0
  187.5310  176.4650  145.4150 C   0  0  0  0  0  3  0  0  0  0  0  0
  187.8730  177.3200  144.3620 C   0  0  0  0  0  0  0  0  0  0  0  0
  187.0400  178.4040  144.0510 C   0  0  0  0  0  3  0  0  0  0  0  0
  184.8300  179.9740  144.3840 Cl  0  0  0  0  0  0  0  0  0  0  0  0
  185.5270  177.7610  145.8290 C   0  0  0  0  0  3  0  0  0  0  0  0
  185.8670  178.6220  144.7810 C   0  0  0  0  0  0  0  0  0  0  0  0
  186.3590  176.6830  146.1460 C   0  0  0  0  0  3  0  0  0  0  0  0
  196.5260  176.0910  143.5660 C   0  0  0  0  0  1  0  0  0  0  0  0
  195.1430  176.2720  143.5160 O   0  0  0  0  0  0  0  0  0  0  0  0
  1  4  1  0  0  0  0
  1 27  1  0  0  0  0
  2 14  1  6  0  0  0
  2 24  1  0  0  0  0
  2 17  1  0  0  0  0
  3  7  1  0  0  0  0
  4 12  1  0  0  0  0
  5 19  1  0  0  0  0
  6  9  1  0  0  0  0
  7 10  1  0  0  0  0
  7 21  1  0  0  0  0
  8 18  1  0  0  0  0
  8 26  2  0  0  0  0
  9  3  1  0  0  0  0
  9 13  1  0  0  0  0
 10  5  1  0  0  0  0
 11 16  1  0  0  0  0
 11  6  1  0  0  0  0
 12  8  1  0  0  0  0
 13 17  1  0  0  0  0
 13 21  1  0  0  0  0
 15 28  1  0  0  0  0
 16 20  1  0  0  0  0
 19 18  1  0  0  0  0
 20 15  1  0  0  0  0
 20  3  1  0  0  0  0
 21 27  1  0  0  0  0
 22  6  1  0  0  0  0
 22  2  1  0  0  0  0
 23 10  1  0  0  0  0
 23 30  1  0  0  0  0
 25 18  1  0  0  0  0
 27 25  1  0  0  0  0
 28 23  1  0  0  0  0
 29 35  1  0  0  0  0
 30 29  2  0  0  0  0
 31 30  1  0  0  0  0
 31 34  2  0  0  0  0
 32 34  1  0  0  0  0
 33 35  2  0  0  0  0
 34 33  1  0  0  0  0
 37 36  1  0  0  0  0
 37  4  1  0  0  0  0
M  END
>  <MODEL>
1

>  <REMARK>
 VINA RESULT:      -9.7      0.000      0.000
  Name = 
  2 active torsions:
  status: ('A' for Active; 'I' for Inactive)
    1  A    between atoms: C_4  and  O_37
    2  A    between atoms: C_23  and  C_30
                            x       y       z     vdW  Elec       q    Type
                         _______ _______ _______ _____ _____    ______ ____

>  <TORSDO>
F 2

$$$$
=
 OpenBabel11112417143D

 37 43  0  0  1  0  0  0  0  0999 V2000
  193.0140  175.1720  143.8370 C   0  0  0  0  0  2  0  0  0  0  0  0
  191.4130  170.7420  141.9570 C   0  0  1  0  0  0  0  0  0  0  0  0
  189.6840  174.5950  142.3230 C   0  0  1  0  0  3  0  0  0  0  0  0
  194.5210  175.2200  144.1270 C   0  0  2  0  0  3  0  0  0  0  0  0
  190.2780  176.6190  145.5840 C   0  0  0  0  0  2  0  0  0  0  0  0
  189.8680  172.4830  140.9040 C   0  0  1  0  0  3  0  0  0  0  0  0
  189.8210  174.8530  143.8100 C   0  0  2  0  0  3  0  0  0  0  0  0
  194.0100  176.3470  146.3410 C   0  0  0  0  0  0  0  0  0  0  0  0
  189.8840  173.1280  142.2930 C   0  0  1  0  0  3  0  0  0  0  0  0
  190.1510  176.3340  144.0920 C   0  0  1  0  0  3  0  0  0  0  0  0
  189.6590  173.5250  139.7950 C   0  0  0  0  0  2  0  0  0  0  0  0
  194.8850  175.3650  145.6120 C   0  0  0  0  0  2  0  0  0  0  0  0
  191.1170  172.9450  143.0120 N   0  0  2  0  0  0  0  0  0  0  0  0
  192.8440  170.2550  141.8650 C   0  0  0  0  0  1  0  0  0  0  0  0
  187.9550  176.3690  141.7360 C   0  0  0  0  0  2  0  0  0  0  0  0
  188.4840  174.4890  140.1200 C   0  0  0  0  0  2  0  0  0  0  0  0
  191.2410  171.5210  143.2870 C   0  0  0  0  0  2  0  0  0  0  0  0
  192.5480  176.0630  146.5790 C   0  0  1  0  0  3  0  0  0  0  0  0
  191.6830  177.1140  145.8740 C   0  0  0  0  0  2  0  0  0  0  0  0
  188.3820  174.9090  141.6080 C   0  0  1  0  0  3  0  0  0  0  0  0
  190.8890  173.7610  144.2100 C   0  0  1  0  0  3  0  0  0  0  0  0
  191.1070  171.6020  140.7030 C   0  0  0  0  0  2  0  0  0  0  0  0
  189.1570  177.3370  143.4540 C   0  0  1  0  0  3  0  0  0  0  0  0
  190.5630  169.6370  141.9720 O   0  0  0  0  0  1  0  0  0  0  0  0
  192.1700  174.6050  146.2480 C   0  0  0  0  0  2  0  0  0  0  0  0
  194.4980  177.3880  146.7510 O   0  0  0  0  0  0  0  0  0  0  0  0
  192.2480  174.2170  144.7630 C   0  0  2  0  0  3  0  0  0  0  0  0
  189.0320  177.2250  142.0460 O   0  0  0  0  0  0  0  0  0  0  0  0
  186.9480  178.5210  143.6500 C   0  0  0  0  0  3  0  0  0  0  0  0
  187.8850  177.6500  144.2150 C   0  0  0  0  0  0  0  0  0  0  0  0
  187.6230  177.0630  145.4620 C   0  0  0  0  0  3  0  0  0  0  0  0
  186.1160  176.6210  147.6960 Cl  0  0  0  0  0  0  0  0  0  0  0  0
  185.5040  178.2290  145.5720 C   0  0  0  0  0  3  0  0  0  0  0  0
  186.4350  177.3540  146.1390 C   0  0  0  0  0  0  0  0  0  0  0  0
  185.7600  178.8110  144.3270 C   0  0  0  0  0  3  0  0  0  0  0  0
  196.4760  176.0930  143.5640 C   0  0  0  0  0  1  0  0  0  0  0  0
  195.1000  176.2570  143.3930 O   0  0  0  0  0  0  0  0  0  0  0  0
  1  4  1  0  0  0  0
  1 27  1  0  0  0  0
  2 14  1  6  0  0  0
  2 24  1  0  0  0  0
  2 17  1  0  0  0  0
  3  7  1  0  0  0  0
  4 12  1  0  0  0  0
  5 19  1  0  0  0  0
  6  9  1  0  0  0  0
  7 10  1  0  0  0  0
  7 21  1  0  0  0  0
  8 18  1  0  0  0  0
  8 26  2  0  0  0  0
  9  3  1  0  0  0  0
  9 13  1  0  0  0  0
 10  5  1  0  0  0  0
 11 16  1  0  0  0  0
 11  6  1  0  0  0  0
 12  8  1  0  0  0  0
 13 17  1  0  0  0  0
 13 21  1  0  0  0  0
 15 28  1  0  0  0  0
 16 20  1  0  0  0  0
 19 18  1  0  0  0  0
 20 15  1  0  0  0  0
 20  3  1  0  0  0  0
 21 27  1  0  0  0  0
 22  6  1  0  0  0  0
 22  2  1  0  0  0  0
 23 10  1  0  0  0  0
 23 30  1  0  0  0  0
 25 18  1  0  0  0  0
 27 25  1  0  0  0  0
 28 23  1  0  0  0  0
 29 30  2  0  0  0  0
 29 35  1  0  0  0  0
 30 31  1  0  0  0  0
 31 34  2  0  0  0  0
 33 34  1  0  0  0  0
 34 32  1  0  0  0  0
 35 33  2  0  0  0  0
 37 36  1  0  0  0  0
 37  4  1  0  0  0  0
M  END
>  <MODEL>
2

>  <REMARK>
 VINA RESULT:      -9.3      0.864      1.164
  Name = 
  2 active torsions:
  status: ('A' for Active; 'I' for Inactive)
    1  A    between atoms: C_4  and  O_37
    2  A    between atoms: C_23  and  C_30
                            x       y       z     vdW  Elec       q    Type
                         _______ _______ _______ _____ _____    ______ ____

>  <TORSDO>
F 2

$$$$
=
 OpenBabel11112417143D

 37 43  0  0  1  0  0  0  0  0999 V2000
  190.9220  173.3150  142.9090 C   0  0  0  0  0  2  0  0  0  0  0  0
  194.9670  175.9190  144.5130 C   0  0  1  0  0  0  0  0  0  0  0  0
  190.8070  176.1460  145.2940 C   0  0  1  0  0  3  0  0  0  0  0  0
  191.2680  172.0150  142.1690 C   0  0  2  0  0  3  0  0  0  0  0  0
  188.3150  175.6660  142.3550 C   0  0  0  0  0  2  0  0  0  0  0  0
  193.1580  176.4100  146.2490 C   0  0  1  0  0  3  0  0  0  0  0  0
  190.2400  176.2920  143.8960 C   0  0  2  0  0  3  0  0  0  0  0  0
  189.5220  172.6000  140.4260 C   0  0  0  0  0  0  0  0  0  0  0  0
  192.2230  176.4970  145.0390 C   0  0  1  0  0  3  0  0  0  0  0  0
  188.9110  175.5210  143.7500 C   0  0  1  0  0  3  0  0  0  0  0  0
  192.4150  175.9450  147.5110 C   0  0  0  0  0  2  0  0  0  0  0  0
  190.8750  171.9970  140.6850 C   0  0  0  0  0  2  0  0  0  0  0  0
  192.5900  175.6330  143.9480 N   0  0  2  0  0  0  0  0  0  0  0  0
  195.8780  174.7910  144.0740 C   0  0  0  0  0  1  0  0  0  0  0  0
  188.7940  176.9030  146.6560 C   0  0  0  0  0  2  0  0  0  0  0  0
  191.0870  176.7240  147.7210 C   0  0  0  0  0  2  0  0  0  0  0  0
  193.8660  176.1130  143.4380 C   0  0  0  0  0  2  0  0  0  0  0  0
  189.2740  174.0750  140.6220 C   0  0  1  0  0  3  0  0  0  0  0  0
  188.2200  174.2930  141.7130 C   0  0  0  0  0  2  0  0  0  0  0  0
  190.2980  177.0250  146.4230 C   0  0  1  0  0  3  0  0  0  0  0  0
  191.4710  175.8310  143.0210 C   0  0  1  0  0  3  0  0  0  0  0  0
  194.3980  175.5720  145.9140 C   0  0  0  0  0  2  0  0  0  0  0  0
  187.8450  175.8890  144.8110 C   0  0  1  0  0  3  0  0  0  0  0  0
  195.7170  177.0920  144.6030 O   0  0  0  0  0  1  0  0  0  0  0  0
  190.5790  174.8690  140.8330 C   0  0  0  0  0  2  0  0  0  0  0  0
  188.6140  171.8800  140.0430 O   0  0  0  0  0  0  0  0  0  0  0  0
  191.3310  174.5790  142.1420 C   0  0  2  0  0  3  0  0  0  0  0  0
  188.2620  175.6980  146.1540 O   0  0  0  0  0  0  0  0  0  0  0  0
  187.3110  177.9660  143.5010 C   0  0  0  0  0  3  0  0  0  0  0  0
  186.9760  177.1010  144.5470 C   0  0  0  0  0  0  0  0  0  0  0  0
  185.8300  177.3530  145.3160 C   0  0  0  0  0  3  0  0  0  0  0  0
  183.6080  178.7810  146.0100 Cl  0  0  0  0  0  0  0  0  0  0  0  0
  185.3760  179.3350  144.0010 C   0  0  0  0  0  3  0  0  0  0  0  0
  185.0340  178.4700  145.0440 C   0  0  0  0  0  0  0  0  0  0  0  0
  186.5140  179.0830  143.2290 C   0  0  0  0  0  3  0  0  0  0  0  0
  191.0220  169.8180  142.0680 C   0  0  0  0  0  1  0  0  0  0  0  0
  190.6780  170.9350  142.8290 O   0  0  0  0  0  0  0  0  0  0  0  0
  2 14  1  6  0  0  0
  2 24  1  0  0  0  0
  2 22  1  0  0  0  0
  3 20  1  0  0  0  0
  4 37  1  0  0  0  0
  4  1  1  0  0  0  0
  5 10  1  0  0  0  0
  6 11  1  0  0  0  0
  7  3  1  0  0  0  0
  8 18  1  0  0  0  0
  8 12  1  0  0  0  0
  9  3  1  0  0  0  0
  9  6  1  0  0  0  0
 10  7  1  0  0  0  0
 10 23  1  0  0  0  0
 11 16  1  0  0  0  0
 12  4  1  0  0  0  0
 13  9  1  0  0  0  0
 17 13  1  0  0  0  0
 17  2  1  0  0  0  0
 18 25  1  0  0  0  0
 18 19  1  0  0  0  0
 19  5  1  0  0  0  0
 20 15  1  0  0  0  0
 20 16  1  0  0  0  0
 21  7  1  0  0  0  0
 21 13  1  0  0  0  0
 22  6  1  0  0  0  0
 23 28  1  0  0  0  0
 25 27  1  0  0  0  0
 26  8  2  0  0  0  0
 27  1  1  0  0  0  0
 27 21  1  0  0  0  0
 28 15  1  0  0  0  0
 29 30  1  0  0  0  0
 30 23  1  0  0  0  0
 30 31  2  0  0  0  0
 33 34  2  0  0  0  0
 34 31  1  0  0  0  0
 34 32  1  0  0  0  0
 35 29  2  0  0  0  0
 35 33  1  0  0  0  0
 36 37  1  0  0  0  0
M  END
>  <MODEL>
3

>  <REMARK>
 VINA RESULT:      -8.6      1.594      5.583
  Name = 
  2 active torsions:
  status: ('A' for Active; 'I' for Inactive)
    1  A    between atoms: C_4  and  O_37
    2  A    between atoms: C_23  and  C_30
                            x       y       z     vdW  Elec       q    Type
                         _______ _______ _______ _____ _____    ______ ____

>  <TORSDO>
F 2

$$$$
=
 OpenBabel11112417143D

 37 43  0  0  1  0  0  0  0  0999 V2000
  192.3920  172.7900  142.4850 C   0  0  0  0  0  2  0  0  0  0  0  0
  196.3510  175.9160  143.0100 C   0  0  1  0  0  0  0  0  0  0  0  0
  192.4770  175.7410  144.7220 C   0  0  1  0  0  3  0  0  0  0  0  0
  192.7160  171.4910  141.7350 C   0  0  2  0  0  3  0  0  0  0  0  0
  189.4640  174.8040  142.4590 C   0  0  0  0  0  2  0  0  0  0  0  0
  194.9340  176.3190  145.0970 C   0  0  1  0  0  3  0  0  0  0  0  0
  191.5970  175.7330  143.4890 C   0  0  2  0  0  3  0  0  0  0  0  0
  190.5650  171.7690  140.4210 C   0  0  0  0  0  0  0  0  0  0  0  0
  193.7470  176.2260  144.1330 C   0  0  1  0  0  3  0  0  0  0  0  0
  190.3710  174.8150  143.6830 C   0  0  1  0  0  3  0  0  0  0  0  0
  194.5550  175.8580  146.5130 C   0  0  0  0  0  2  0  0  0  0  0  0
  192.0040  171.3340  140.3830 C   0  0  0  0  0  2  0  0  0  0  0  0
  193.9590  175.3380  143.0210 N   0  0  2  0  0  0  0  0  0  0  0  0
  197.2680  174.8670  142.4150 C   0  0  0  0  0  1  0  0  0  0  0  0
  190.7470  176.3610  146.4820 C   0  0  0  0  0  2  0  0  0  0  0  0
  193.2250  176.5010  146.9950 C   0  0  0  0  0  2  0  0  0  0  0  0
  195.0210  175.9190  142.2120 C   0  0  0  0  0  2  0  0  0  0  0  0
  190.1920  173.2180  140.6130 C   0  0  1  0  0  3  0  0  0  0  0  0
  189.3920  173.3910  141.9090 C   0  0  0  0  0  2  0  0  0  0  0  0
  192.1330  176.6300  145.9040 C   0  0  1  0  0  3  0  0  0  0  0  0
  192.6450  175.3530  142.3700 C   0  0  1  0  0  3  0  0  0  0  0  0
  196.1580  175.6000  144.5160 C   0  0  0  0  0  2  0  0  0  0  0  0
  189.5350  175.1330  144.9480 C   0  0  1  0  0  3  0  0  0  0  0  0
  196.9550  177.1660  142.8790 O   0  0  0  0  0  1  0  0  0  0  0  0
  191.4060  174.1610  140.4860 C   0  0  0  0  0  2  0  0  0  0  0  0
  189.6880  170.9320  140.2860 O   0  0  0  0  0  0  0  0  0  0  0  0
  192.4620  174.0390  141.5960 C   0  0  2  0  0  3  0  0  0  0  0  0
  190.2640  175.0760  146.1630 O   0  0  0  0  0  0  0  0  0  0  0  0
  188.6730  177.2610  143.9240 C   0  0  0  0  0  3  0  0  0  0  0  0
  188.4900  176.2240  144.8450 C   0  0  0  0  0  0  0  0  0  0  0  0
  187.3330  176.1970  145.6380 C   0  0  0  0  0  3  0  0  0  0  0  0
  184.9360  177.1680  146.5120 Cl  0  0  0  0  0  0  0  0  0  0  0  0
  186.5640  178.2430  144.5990 C   0  0  0  0  0  3  0  0  0  0  0  0
  186.3740  177.2070  145.5170 C   0  0  0  0  0  0  0  0  0  0  0  0
  187.7130  178.2710  143.8020 C   0  0  0  0  0  3  0  0  0  0  0  0
  192.0290  170.9570  143.7700 C   0  0  0  0  0  1  0  0  0  0  0  0
  192.4240  170.3980  142.5540 O   0  0  0  0  0  0  0  0  0  0  0  0
  2 14  1  6  0  0  0
  2 22  1  0  0  0  0
  3 20  1  0  0  0  0
  4  1  1  0  0  0  0
  4 37  1  0  0  0  0
  5 10  1  0  0  0  0
  6 11  1  0  0  0  0
  7 10  1  0  0  0  0
  7  3  1  0  0  0  0
  8 18  1  0  0  0  0
  9  3  1  0  0  0  0
  9  6  1  0  0  0  0
 10 23  1  0  0  0  0
 11 16  1  0  0  0  0
 12  8  1  0  0  0  0
 12  4  1  0  0  0  0
 13  9  1  0  0  0  0
 17  2  1  0  0  0  0
 17 13  1  0  0  0  0
 18 19  1  0  0  0  0
 19  5  1  0  0  0  0
 20 15  1  0  0  0  0
 20 16  1  0  0  0  0
 21 13  1  0  0  0  0
 21  7  1  0  0  0  0
 22  6  1  0  0  0  0
 23 28  1  0  0  0  0
 24  2  1  0  0  0  0
 25 18  1  0  0  0  0
 25 27  1  0  0  0  0
 26  8  2  0  0  0  0
 27 21  1  0  0  0  0
 27  1  1  0  0  0  0
 28 15  1  0  0  0  0
 29 30  1  0  0  0  0
 30 23  1  0  0  0  0
 30 31  2  0  0  0  0
 33 34  2  0  0  0  0
 34 31  1  0  0  0  0
 34 32  1  0  0  0  0
 35 29  2  0  0  0  0
 35 33  1  0  0  0  0
 37 36  1  0  0  0  0
M  END
>  <MODEL>
4

>  <REMARK>
 VINA RESULT:      -8.5      1.778      5.635
  Name = 
  2 active torsions:
  status: ('A' for Active; 'I' for Inactive)
    1  A    between atoms: C_4  and  O_37
    2  A    between atoms: C_23  and  C_30
                            x       y       z     vdW  Elec       q    Type
                         _______ _______ _______ _____ _____    ______ ____

>  <TORSDO>
F 2

$$$$
=
 OpenBabel11112417143D

 37 43  0  0  1  0  0  0  0  0999 V2000
  191.4640  173.2690  141.7840 C   0  0  0  0  0  2  0  0  0  0  0  0
  189.4940  176.0530  145.5370 C   0  0  1  0  0  0  0  0  0  0  0  0
  193.2200  174.1240  144.9310 C   0  0  1  0  0  3  0  0  0  0  0  0
  190.6540  173.3140  140.4810 C   0  0  2  0  0  3  0  0  0  0  0  0
  193.2670  170.6030  143.2920 C   0  0  0  0  0  2  0  0  0  0  0  0
  192.0170  176.1400  145.9290 C   0  0  1  0  0  3  0  0  0  0  0  0
  192.7850  172.6990  144.6530 C   0  0  2  0  0  3  0  0  0  0  0  0
  190.9400  170.8030  140.2720 C   0  0  0  0  0  0  0  0  0  0  0  0
  191.9830  174.6570  145.5470 C   0  0  1  0  0  3  0  0  0  0  0  0
  193.6770  172.0430  143.5770 C   0  0  1  0  0  3  0  0  0  0  0  0
  193.3620  176.7910  145.5660 C   0  0  0  0  0  2  0  0  0  0  0  0
  190.0210  171.9760  140.0700 C   0  0  0  0  0  2  0  0  0  0  0  0
  190.9620  174.3200  144.5910 N   0  0  2  0  0  0  0  0  0  0  0  0
  188.4480  176.6040  144.5910 C   0  0  0  0  0  1  0  0  0  0  0  0
  195.6790  173.7300  145.4520 C   0  0  0  0  0  2  0  0  0  0  0  0
  194.5670  175.9300  146.0380 C   0  0  0  0  0  2  0  0  0  0  0  0
  189.6800  174.5420  145.2450 C   0  0  0  0  0  2  0  0  0  0  0  0
  191.3400  170.3540  141.6550 C   0  0  1  0  0  3  0  0  0  0  0  0
  192.8570  170.4850  141.8350 C   0  0  0  0  0  2  0  0  0  0  0  0
  194.3760  174.4020  145.8750 C   0  0  1  0  0  3  0  0  0  0  0  0
  191.2540  172.9070  144.3280 C   0  0  1  0  0  3  0  0  0  0  0  0
  190.7980  176.8740  145.3570 C   0  0  0  0  0  2  0  0  0  0  0  0
  195.1930  172.0990  143.8900 C   0  0  1  0  0  3  0  0  0  0  0  0
  189.0380  176.2030  146.8460 O   0  0  0  0  0  1  0  0  0  0  0  0
  190.5090  171.0370  142.7610 C   0  0  0  0  0  2  0  0  0  0  0  0
  191.3590  170.2020  139.2970 O   0  0  0  0  0  0  0  0  0  0  0  0
  190.7360  172.5480  142.9270 C   0  0  2  0  0  3  0  0  0  0  0  0
  195.7060  173.4080  144.0800 O   0  0  0  0  0  0  0  0  0  0  0  0
  197.1090  170.6500  144.6310 C   0  0  0  0  0  3  0  0  0  0  0  0
  195.7690  171.0210  144.7840 C   0  0  0  0  0  0  0  0  0  0  0  0
  194.9890  170.4090  145.7770 C   0  0  0  0  0  3  0  0  0  0  0  0
  194.5660  168.6650  147.8350 Cl  0  0  0  0  0  0  0  0  0  0  0  0
  196.8840  169.0560  146.4410 C   0  0  0  0  0  3  0  0  0  0  0  0
  195.5460  169.4260  146.6010 C   0  0  0  0  0  0  0  0  0  0  0  0
  197.6660  169.6670  145.4560 C   0  0  0  0  0  3  0  0  0  0  0  0
  192.6900  174.0730  140.0550 C   0  0  0  0  0  1  0  0  0  0  0  0
  191.4650  173.7910  139.4490 O   0  0  0  0  0  0  0  0  0  0  0  0
  1 27  1  0  0  0  0
  2 14  1  6  0  0  0
  2 24  1  0  0  0  0
  3  9  1  0  0  0  0
  3 20  1  0  0  0  0
  4  1  1  0  0  0  0
  5 10  1  0  0  0  0
  7  3  1  0  0  0  0
  8 18  1  0  0  0  0
  9  6  1  0  0  0  0
 10 23  1  0  0  0  0
 10  7  1  0  0  0  0
 11  6  1  0  0  0  0
 11 16  1  0  0  0  0
 12  8  1  0  0  0  0
 12  4  1  0  0  0  0
 13 17  1  0  0  0  0
 13  9  1  0  0  0  0
 15 20  1  0  0  0  0
 17  2  1  0  0  0  0
 18 19  1  0  0  0  0
 18 25  1  0  0  0  0
 19  5  1  0  0  0  0
 20 16  1  0  0  0  0
 21 13  1  0  0  0  0
 21  7  1  0  0  0  0
 22  2  1  0  0  0  0
 22  6  1  0  0  0  0
 23 28  1  0  0  0  0
 23 30  1  0  0  0  0
 25 27  1  0  0  0  0
 26  8  2  0  0  0  0
 27 21  1  0  0  0  0
 28 15  1  0  0  0  0
 29 30  2  0  0  0  0
 29 35  1  0  0  0  0
 30 31  1  0  0  0  0
 31 34  2  0  0  0  0
 33 34  1  0  0  0  0
 34 32  1  0  0  0  0
 35 33  2  0  0  0  0
 37 36  1  0  0  0  0
 37  4  1  0  0  0  0
M  END
>  <MODEL>
5

>  <REMARK>
 VINA RESULT:      -8.2      3.695      8.216
  Name = 
  2 active torsions:
  status: ('A' for Active; 'I' for Inactive)
    1  A    between atoms: C_4  and  O_37
    2  A    between atoms: C_23  and  C_30
                            x       y       z     vdW  Elec       q    Type
                         _______ _______ _______ _____ _____    ______ ____

>  <TORSDO>
F 2

$$$$
=
 OpenBabel11112417143D

 37 43  0  0  1  0  0  0  0  0999 V2000
  191.7490  171.8320  141.2020 C   0  0  0  0  0  2  0  0  0  0  0  0
  196.0210  173.8990  142.9910 C   0  0  1  0  0  0  0  0  0  0  0  0
  191.8940  174.6180  143.6390 C   0  0  1  0  0  3  0  0  0  0  0  0
  191.9610  170.5130  140.4480 C   0  0  2  0  0  3  0  0  0  0  0  0
  189.4670  174.4920  140.6100 C   0  0  0  0  0  2  0  0  0  0  0  0
  194.2250  174.5790  144.6750 C   0  0  1  0  0  3  0  0  0  0  0  0
  191.3980  174.8540  142.2270 C   0  0  2  0  0  3  0  0  0  0  0  0
  190.3610  171.3340  138.6600 C   0  0  0  0  0  0  0  0  0  0  0  0
  193.3500  174.7990  143.4380 C   0  0  1  0  0  3  0  0  0  0  0  0
  189.9910  174.2520  142.0210 C   0  0  1  0  0  3  0  0  0  0  0  0
  193.3870  174.1870  145.9020 C   0  0  0  0  0  2  0  0  0  0  0  0
  191.6210  170.5660  138.9520 C   0  0  0  0  0  2  0  0  0  0  0  0
  193.6480  173.9140  142.3420 N   0  0  2  0  0  0  0  0  0  0  0  0
  196.8030  172.6770  142.5590 C   0  0  0  0  0  1  0  0  0  0  0  0
  189.9410  175.5920  144.9490 C   0  0  0  0  0  2  0  0  0  0  0  0
  192.1570  175.1190  146.0850 C   0  0  0  0  0  2  0  0  0  0  0  0
  194.9900  174.2430  141.8850 C   0  0  0  0  0  2  0  0  0  0  0  0
  190.2860  172.8240  138.8780 C   0  0  1  0  0  3  0  0  0  0  0  0
  189.2290  173.1510  139.9380 C   0  0  0  0  0  2  0  0  0  0  0  0
  191.4550  175.5340  144.7680 C   0  0  1  0  0  3  0  0  0  0  0  0
  192.5940  174.2620  141.3830 C   0  0  1  0  0  3  0  0  0  0  0  0
  195.3660  173.6020  144.3650 C   0  0  0  0  0  2  0  0  0  0  0  0
  188.9410  174.7300  143.0540 C   0  0  1  0  0  3  0  0  0  0  0  0
  196.9030  174.9710  143.1290 O   0  0  0  0  0  1  0  0  0  0  0  0
  191.6700  173.4500  139.1480 C   0  0  0  0  0  2  0  0  0  0  0  0
  189.3870  170.7360  138.2330 O   0  0  0  0  0  0  0  0  0  0  0  0
  192.3350  173.0500  140.4740 C   0  0  2  0  0  3  0  0  0  0  0  0
  189.2850  174.4690  144.4050 O   0  0  0  0  0  0  0  0  0  0  0  0
  188.9650  177.1190  142.2690 C   0  0  0  0  0  3  0  0  0  0  0  0
  188.2350  176.0430  142.7860 C   0  0  0  0  0  0  0  0  0  0  0  0
  186.8600  176.1890  143.0220 C   0  0  0  0  0  3  0  0  0  0  0  0
  184.5110  177.5810  143.0540 Cl  0  0  0  0  0  0  0  0  0  0  0  0
  186.9610  178.4780  142.2420 C   0  0  0  0  0  3  0  0  0  0  0  0
  186.2260  177.4050  142.7530 C   0  0  0  0  0  0  0  0  0  0  0  0
  188.3300  178.3350  142.0000 C   0  0  0  0  0  3  0  0  0  0  0  0
  190.6290  170.1150  142.1700 C   0  0  0  0  0  1  0  0  0  0  0  0
  191.2220  169.5020  141.0660 O   0  0  0  0  0  0  0  0  0  0  0  0
  2 14  1  6  0  0  0
  2 24  1  0  0  0  0
  2 22  1  0  0  0  0
  3 20  1  0  0  0  0
  4 37  1  0  0  0  0
  4  1  1  0  0  0  0
  5 10  1  0  0  0  0
  6 11  1  0  0  0  0
  7  3  1  0  0  0  0
  8 18  1  0  0  0  0
  8 12  1  0  0  0  0
  9  3  1  0  0  0  0
  9  6  1  0  0  0  0
 10  7  1  0  0  0  0
 10 23  1  0  0  0  0
 11 16  1  0  0  0  0
 12  4  1  0  0  0  0
 13  9  1  0  0  0  0
 17 13  1  0  0  0  0
 17  2  1  0  0  0  0
 18 25  1  0  0  0  0
 18 19  1  0  0  0  0
 19  5  1  0  0  0  0
 20 15  1  0  0  0  0
 20 16  1  0  0  0  0
 21  7  1  0  0  0  0
 21 13  1  0  0  0  0
 22  6  1  0  0  0  0
 23 28  1  0  0  0  0
 25 27  1  0  0  0  0
 26  8  2  0  0  0  0
 27  1  1  0  0  0  0
 27 21  1  0  0  0  0
 28 15  1  0  0  0  0
 29 30  1  0  0  0  0
 30 31  2  0  0  0  0
 30 23  1  0  0  0  0
 33 34  2  0  0  0  0
 34 31  1  0  0  0  0
 34 32  1  0  0  0  0
 35 33  1  0  0  0  0
 35 29  2  0  0  0  0
 37 36  1  0  0  0  0
M  END
>  <MODEL>
6

>  <REMARK>
 VINA RESULT:      -7.7      1.980      5.810
  Name = 
  2 active torsions:
  status: ('A' for Active; 'I' for Inactive)
    1  A    between atoms: C_4  and  O_37
    2  A    between atoms: C_23  and  C_30
                            x       y       z     vdW  Elec       q    Type
                         _______ _______ _______ _____ _____    ______ ____

>  <TORSDO>
F 2

$$$$
=
 OpenBabel11112417143D

 37 43  0  0  1  0  0  0  0  0999 V2000
  194.1520  174.5190  142.9020 C   0  0  0  0  0  2  0  0  0  0  0  0
  192.8760  169.6160  142.6780 C   0  0  1  0  0  0  0  0  0  0  0  0
  190.6800  173.2430  142.7110 C   0  0  1  0  0  3  0  0  0  0  0  0
  195.6460  174.7880  142.6720 C   0  0  2  0  0  3  0  0  0  0  0  0
  191.8260  176.1100  145.0670 C   0  0  0  0  0  2  0  0  0  0  0  0
  190.8140  170.8560  141.8190 C   0  0  1  0  0  3  0  0  0  0  0  0
  191.1920  173.8990  143.9780 C   0  0  2  0  0  3  0  0  0  0  0  0
  195.6050  176.4100  144.6210 C   0  0  0  0  0  0  0  0  0  0  0  0
  191.1170  171.8470  142.9470 C   0  0  1  0  0  3  0  0  0  0  0  0
  191.3260  175.4270  143.8000 C   0  0  1  0  0  3  0  0  0  0  0  0
  190.1160  171.5400  140.6330 C   0  0  0  0  0  2  0  0  0  0  0  0
  196.3910  175.3580  143.8870 C   0  0  0  0  0  2  0  0  0  0  0  0
  192.5160  171.9820  143.2520 N   0  0  2  0  0  0  0  0  0  0  0  0
  194.2820  169.2610  142.2410 C   0  0  0  0  0  1  0  0  0  0  0  0
  188.5750  174.6210  142.3330 C   0  0  0  0  0  2  0  0  0  0  0  0
  188.9350  172.4380  141.0960 C   0  0  0  0  0  2  0  0  0  0  0  0
  192.9600  170.7010  143.7830 C   0  0  0  0  0  2  0  0  0  0  0  0
  194.3470  176.0600  145.3750 C   0  0  1  0  0  3  0  0  0  0  0  0
  193.1460  176.7970  144.7710 C   0  0  0  0  0  2  0  0  0  0  0  0
  189.1940  173.2280  142.4030 C   0  0  1  0  0  3  0  0  0  0  0  0
  192.5040  173.0610  144.2450 C   0  0  1  0  0  3  0  0  0  0  0  0
  192.0770  170.0770  141.4310 C   0  0  0  0  0  2  0  0  0  0  0  0
  190.0320  176.1230  143.3090 C   0  0  1  0  0  3  0  0  0  0  0  0
  192.2720  168.4780  143.2130 O   0  0  0  0  0  1  0  0  0  0  0  0
  194.1490  174.5370  145.5180 C   0  0  0  0  0  2  0  0  0  0  0  0
  196.0020  177.5630  144.6080 O   0  0  0  0  0  0  0  0  0  0  0  0
  193.8630  173.7770  144.2130 C   0  0  2  0  0  3  0  0  0  0  0  0
  189.5290  175.6280  142.0790 O   0  0  0  0  0  0  0  0  0  0  0  0
  188.1150  177.5550  144.0810 C   0  0  0  0  0  3  0  0  0  0  0  0
  188.9990  176.5040  144.3490 C   0  0  0  0  0  0  0  0  0  0  0  0
  188.8980  175.8050  145.5610 C   0  0  0  0  0  3  0  0  0  0  0  0
  187.8090  175.2910  148.0120 Cl  0  0  0  0  0  0  0  0  0  0  0  0
  187.0490  177.2180  146.2300 C   0  0  0  0  0  3  0  0  0  0  0  0
  187.9270  176.1640  146.5010 C   0  0  0  0  0  0  0  0  0  0  0  0
  187.1430  177.9130  145.0200 C   0  0  0  0  0  3  0  0  0  0  0  0
  194.6250  175.4940  140.8390 C   0  0  0  0  0  1  0  0  0  0  0  0
  195.7990  175.6420  141.5780 O   0  0  0  0  0  0  0  0  0  0  0  0
  1 27  1  0  0  0  0
  2 14  1  6  0  0  0
  2 24  1  0  0  0  0
  2 17  1  0  0  0  0
  3  9  1  0  0  0  0
  3  7  1  0  0  0  0
  4  1  1  0  0  0  0
  4 12  1  0  0  0  0
  6  9  1  0  0  0  0
  7 21  1  0  0  0  0
  8 18  1  0  0  0  0
  9 13  1  0  0  0  0
 10  7  1  0  0  0  0
 10  5  1  0  0  0  0
 11 16  1  0  0  0  0
 11  6  1  0  0  0  0
 12  8  1  0  0  0  0
 13 17  1  0  0  0  0
 13 21  1  0  0  0  0
 15 20  1  0  0  0  0
 16 20  1  0  0  0  0
 18 25  1  0  0  0  0
 19  5  1  0  0  0  0
 19 18  1  0  0  0  0
 20  3  1  0  0  0  0
 22  6  1  0  0  0  0
 22  2  1  0  0  0  0
 23 10  1  0  0  0  0
 23 30  1  0  0  0  0
 26  8  2  0  0  0  0
 27 21  1  0  0  0  0
 27 25  1  0  0  0  0
 28 15  1  0  0  0  0
 28 23  1  0  0  0  0
 29 30  2  0  0  0  0
 29 35  1  0  0  0  0
 30 31  1  0  0  0  0
 31 34  2  0  0  0  0
 33 34  1  0  0  0  0
 34 32  1  0  0  0  0
 35 33  2  0  0  0  0
 36 37  1  0  0  0  0
 37  4  1  0  0  0  0
M  END
>  <MODEL>
7

>  <REMARK>
 VINA RESULT:      -7.5      1.752      2.256
  Name = 
  2 active torsions:
  status: ('A' for Active; 'I' for Inactive)
    1  A    between atoms: C_4  and  O_37
    2  A    between atoms: C_23  and  C_30
                            x       y       z     vdW  Elec       q    Type
                         _______ _______ _______ _____ _____    ______ ____

>  <TORSDO>
F 2

$$$$
=
 OpenBabel11112417143D

 37 43  0  0  1  0  0  0  0  0999 V2000
  191.3740  175.8000  142.5610 C   0  0  0  0  0  2  0  0  0  0  0  0
  189.0660  172.7110  139.2680 C   0  0  1  0  0  0  0  0  0  0  0  0
  187.8950  176.2080  141.3580 C   0  0  1  0  0  3  0  0  0  0  0  0
  192.8910  175.5860  142.6610 C   0  0  2  0  0  3  0  0  0  0  0  0
  188.9890  176.6390  145.0590 C   0  0  0  0  0  2  0  0  0  0  0  0
  187.6930  174.8640  139.1990 C   0  0  1  0  0  3  0  0  0  0  0  0
  188.1730  175.8140  142.7940 C   0  0  2  0  0  3  0  0  0  0  0  0
  192.6970  175.7390  145.1850 C   0  0  0  0  0  0  0  0  0  0  0  0
  187.8960  174.8730  140.7170 C   0  0  1  0  0  3  0  0  0  0  0  0
  188.7160  177.0100  143.6060 C   0  0  1  0  0  3  0  0  0  0  0  0
  187.5440  176.2870  138.6360 C   0  0  0  0  0  2  0  0  0  0  0  0
  193.3780  175.0710  144.0230 C   0  0  0  0  0  2  0  0  0  0  0  0
  189.1430  174.2970  141.1470 N   0  0  2  0  0  0  0  0  0  0  0  0
  190.4080  172.1760  138.8150 C   0  0  0  0  0  1  0  0  0  0  0  0
  186.3800  178.2150  141.7470 C   0  0  0  0  0  2  0  0  0  0  0  0
  186.5350  177.1320  139.4610 C   0  0  0  0  0  2  0  0  0  0  0  0
  189.0950  172.8820  140.8080 C   0  0  0  0  0  2  0  0  0  0  0  0
  191.2310  175.5160  145.4640 C   0  0  1  0  0  3  0  0  0  0  0  0
  190.4650  176.8390  145.3520 C   0  0  0  0  0  2  0  0  0  0  0  0
  186.5980  176.9070  140.9920 C   0  0  1  0  0  3  0  0  0  0  0  0
  189.1130  174.5620  142.5890 C   0  0  1  0  0  3  0  0  0  0  0  0
  188.7860  174.0360  138.5120 C   0  0  0  0  0  2  0  0  0  0  0  0
  187.8210  178.2720  143.5510 C   0  0  1  0  0  3  0  0  0  0  0  0
  188.0790  171.7810  138.9390 O   0  0  0  0  0  1  0  0  0  0  0  0
  190.6390  174.3660  144.6230 C   0  0  0  0  0  2  0  0  0  0  0  0
  193.3470  176.4670  145.9170 O   0  0  0  0  0  0  0  0  0  0  0  0
  190.5570  174.6220  143.1100 C   0  0  2  0  0  3  0  0  0  0  0  0
  187.5800  178.7640  142.2420 O   0  0  0  0  0  0  0  0  0  0  0  0
  185.4630  178.9470  144.1030 C   0  0  0  0  0  3  0  0  0  0  0  0
  186.6610  178.3570  144.5210 C   0  0  0  0  0  0  0  0  0  0  0  0
  186.7610  177.8330  145.8180 C   0  0  0  0  0  3  0  0  0  0  0  0
  185.8050  177.2560  148.3100 Cl  0  0  0  0  0  0  0  0  0  0  0  0
  184.4790  178.5040  146.2720 C   0  0  0  0  0  3  0  0  0  0  0  0
  185.6720  177.9090  146.6920 C   0  0  0  0  0  0  0  0  0  0  0  0
  184.3740  179.0220  144.9770 C   0  0  0  0  0  3  0  0  0  0  0  0
  194.5550  176.4020  141.4520 C   0  0  0  0  0  1  0  0  0  0  0  0
  193.5480  176.7760  142.3420 O   0  0  0  0  0  0  0  0  0  0  0  0
  1  4  1  0  0  0  0
  1 27  1  0  0  0  0
  2 14  1  6  0  0  0
  2 17  1  0  0  0  0
  3  7  1  0  0  0  0
  4 12  1  0  0  0  0
  5 19  1  0  0  0  0
  6  9  1  0  0  0  0
  7 10  1  0  0  0  0
  8 18  1  0  0  0  0
  8 26  2  0  0  0  0
  9 13  1  0  0  0  0
  9  3  1  0  0  0  0
 10  5  1  0  0  0  0
 11  6  1  0  0  0  0
 11 16  1  0  0  0  0
 12  8  1  0  0  0  0
 13 21  1  0  0  0  0
 15 28  1  0  0  0  0
 16 20  1  0  0  0  0
 17 13  1  0  0  0  0
 19 18  1  0  0  0  0
 20  3  1  0  0  0  0
 20 15  1  0  0  0  0
 21  7  1  0  0  0  0
 21 27  1  0  0  0  0
 22  6  1  0  0  0  0
 22  2  1  0  0  0  0
 23 10  1  0  0  0  0
 23 30  1  0  0  0  0
 24  2  1  0  0  0  0
 25 18  1  0  0  0  0
 27 25  1  0  0  0  0
 28 23  1  0  0  0  0
 29 30  2  0  0  0  0
 29 35  1  0  0  0  0
 30 31  1  0  0  0  0
 31 34  2  0  0  0  0
 33 34  1  0  0  0  0
 34 32  1  0  0  0  0
 35 33  2  0  0  0  0
 36 37  1  0  0  0  0
 37  4  1  0  0  0  0
M  END
>  <MODEL>
8

>  <REMARK>
 VINA RESULT:      -7.1      2.156      2.981
  Name = 
  2 active torsions:
  status: ('A' for Active; 'I' for Inactive)
    1  A    between atoms: C_4  and  O_37
    2  A    between atoms: C_23  and  C_30
                            x       y       z     vdW  Elec       q    Type
                         _______ _______ _______ _____ _____    ______ ____

>  <TORSDO>
F 2

$$$$
=
 OpenBabel11112417143D

 37 43  0  0  1  0  0  0  0  0999 V2000
  193.8400  171.8970  140.2780 C   0  0  0  0  0  2  0  0  0  0  0  0
  197.1660  174.7810  137.7590 C   0  0  1  0  0  0  0  0  0  0  0  0
  195.1400  175.1570  141.4640 C   0  0  1  0  0  3  0  0  0  0  0  0
  193.6980  170.4750  139.7200 C   0  0  2  0  0  3  0  0  0  0  0  0
  191.4150  174.0810  141.6840 C   0  0  0  0  0  2  0  0  0  0  0  0
  197.2910  175.6140  140.1710 C   0  0  1  0  0  3  0  0  0  0  0  0
  193.6930  175.0120  141.0370 C   0  0  2  0  0  3  0  0  0  0  0  0
  191.1810  170.6880  139.9510 C   0  0  0  0  0  0  0  0  0  0  0  0
  195.7690  175.4510  140.1550 C   0  0  1  0  0  3  0  0  0  0  0  0
  192.8780  174.2260  142.0860 C   0  0  1  0  0  3  0  0  0  0  0  0
  197.8710  175.4150  141.5810 C   0  0  0  0  0  2  0  0  0  0  0  0
  192.3190  170.1530  139.1260 C   0  0  0  0  0  2  0  0  0  0  0  0
  195.3000  174.3820  139.3130 N   0  0  2  0  0  0  0  0  0  0  0  0
  197.5780  173.5890  136.9210 C   0  0  0  0  0  1  0  0  0  0  0  0
  194.8090  176.1730  143.7730 C   0  0  0  0  0  2  0  0  0  0  0  0
  197.0810  176.2200  142.6500 C   0  0  0  0  0  2  0  0  0  0  0  0
  195.6270  174.7490  137.9420 C   0  0  0  0  0  2  0  0  0  0  0  0
  190.9400  172.1710  140.0790 C   0  0  1  0  0  3  0  0  0  0  0  0
  191.0850  172.6070  141.5410 C   0  0  0  0  0  2  0  0  0  0  0  0
  195.5460  176.2470  142.4390 C   0  0  1  0  0  3  0  0  0  0  0  0
  193.8620  174.3850  139.5980 C   0  0  1  0  0  3  0  0  0  0  0  0
  197.9410  174.7270  139.1010 C   0  0  0  0  0  2  0  0  0  0  0  0
  192.9690  174.8010  143.5210 C   0  0  1  0  0  3  0  0  0  0  0  0
  197.5120  175.9480  137.0790 O   0  0  0  0  0  1  0  0  0  0  0  0
  191.7860  172.9940  139.0850 C   0  0  0  0  0  2  0  0  0  0  0  0
  190.4390  169.9040  140.5190 O   0  0  0  0  0  0  0  0  0  0  0  0
  193.3030  172.9790  139.3300 C   0  0  2  0  0  3  0  0  0  0  0  0
  194.2870  174.8900  144.0360 O   0  0  0  0  0  0  0  0  0  0  0  0
  191.9520  177.0530  143.0530 C   0  0  0  0  0  3  0  0  0  0  0  0
  192.0300  175.9320  143.8880 C   0  0  0  0  0  0  0  0  0  0  0  0
  191.2220  175.8630  145.0320 C   0  0  0  0  0  3  0  0  0  0  0  0
  189.3500  176.8200  146.7740 Cl  0  0  0  0  0  0  0  0  0  0  0  0
  190.2820  178.0310  144.5090 C   0  0  0  0  0  3  0  0  0  0  0  0
  190.3520  176.9120  145.3430 C   0  0  0  0  0  0  0  0  0  0  0  0
  191.0810  178.1020  143.3640 C   0  0  0  0  0  3  0  0  0  0  0  0
  194.7280  170.2800  141.6690 C   0  0  0  0  0  1  0  0  0  0  0  0
  194.0100  169.5520  140.7200 O   0  0  0  0  0  0  0  0  0  0  0  0
  2 14  1  6  0  0  0
  2 17  1  0  0  0  0
  2 22  1  0  0  0  0
  3 20  1  0  0  0  0
  4  1  1  0  0  0  0
  4 37  1  0  0  0  0
  5 10  1  0  0  0  0
  6 11  1  0  0  0  0
  7  3  1  0  0  0  0
  7 10  1  0  0  0  0
  8 18  1  0  0  0  0
  8 26  2  0  0  0  0
  9  6  1  0  0  0  0
  9  3  1  0  0  0  0
 10 23  1  0  0  0  0
 11 16  1  0  0  0  0
 12  4  1  0  0  0  0
 12  8  1  0  0  0  0
 13 21  1  0  0  0  0
 13  9  1  0  0  0  0
 15 28  1  0  0  0  0
 17 13  1  0  0  0  0
 18 19  1  0  0  0  0
 19  5  1  0  0  0  0
 20 16  1  0  0  0  0
 20 15  1  0  0  0  0
 21  7  1  0  0  0  0
 22  6  1  0  0  0  0
 23 30  1  0  0  0  0
 23 28  1  0  0  0  0
 24  2  1  0  0  0  0
 25 27  1  0  0  0  0
 25 18  1  0  0  0  0
 27 21  1  0  0  0  0
 27  1  1  0  0  0  0
 29 35  2  0  0  0  0
 29 30  1  0  0  0  0
 30 31  2  0  0  0  0
 31 34  1  0  0  0  0
 33 34  2  0  0  0  0
 34 32  1  0  0  0  0
 35 33  1  0  0  0  0
 37 36  1  0  0  0  0
M  END
>  <MODEL>
9

>  <REMARK>
 VINA RESULT:      -7.0      3.318      6.834
  Name = 
  2 active torsions:
  status: ('A' for Active; 'I' for Inactive)
    1  A    between atoms: C_4  and  O_37
    2  A    between atoms: C_23  and  C_30
                            x       y       z     vdW  Elec       q    Type
                         _______ _______ _______ _____ _____    ______ ____

>  <TORSDO>
F 2

$$$$
