=
 OpenBabel11112416183D

 30 35  0  0  1  0  0  0  0  0999 V2000
  188.2550  177.2920  145.7990 C   0  0  0  0  0  0  0  0  0  0  0  0
  186.2010  178.3830  146.7590 C   0  0  0  0  0  0  0  0  0  0  0  0
  186.3730  176.9080  142.0560 N   0  0  0  0  0  2  0  0  0  0  0  0
  188.9020  176.6750  144.6860 C   0  0  0  0  0  0  0  0  0  0  0  0
  188.9700  177.4170  146.9970 C   0  0  0  0  0  3  0  0  0  0  0  0
  192.1970  175.8370  146.1850 O   0  0  0  0  0  1  0  0  0  0  0  0
  190.0710  174.2710  143.1430 C   0  0  1  0  0  3  0  0  0  0  0  0
  190.8990  176.3220  146.0440 C   0  0  0  0  0  0  0  0  0  0  0  0
  189.0000  174.6430  142.1900 N   0  0  2  0  0  0  0  0  0  0  0  0
  187.4460  176.3350  141.3220 C   0  0  0  0  0  0  0  0  0  0  0  0
  190.2820  176.9500  147.1290 C   0  0  0  0  0  0  0  0  0  0  0  0
  190.2200  176.1690  144.8240 C   0  0  0  0  0  0  0  0  0  0  0  0
  184.8910  178.8320  146.5750 C   0  0  0  0  0  3  0  0  0  0  0  0
  189.5020  174.2290  140.8850 C   0  0  0  0  0  2  0  0  0  0  0  0
  190.9710  173.2440  142.4780 C   0  0  0  0  0  2  0  0  0  0  0  0
  186.7690  178.5590  148.0160 O   0  0  0  0  0  1  0  0  0  0  0  0
  186.8990  177.0450  143.3660 C   0  0  0  0  0  0  0  0  0  0  0  0
  184.2540  178.6910  145.3440 C   0  0  0  0  0  3  0  0  0  0  0  0
  186.9090  177.7700  145.6870 C   0  0  0  0  0  0  0  0  0  0  0  0
  188.1900  176.5770  143.4770 C   0  0  0  0  0  0  0  0  0  0  0  0
  187.3670  176.1100  140.0860 O   0  0  0  0  0  0  0  0  0  0  0  0
  188.6790  176.0790  142.1460 C   0  0  1  0  0  3  0  0  0  0  0  0
  190.3880  173.0300  141.1070 C   0  0  0  0  0  2  0  0  0  0  0  0
  191.5810  176.3340  142.6990 C   0  0  0  0  0  1  0  0  0  0  0  0
  184.9240  178.0950  144.2810 C   0  0  0  0  0  3  0  0  0  0  0  0
  186.2350  177.6330  144.4390 C   0  0  0  0  0  0  0  0  0  0  0  0
  190.9200  175.4190  143.7240 C   0  0  2  0  0  3  0  0  0  0  0  0
  190.9990  177.0910  148.3640 N   0  0  0  0  0  0  0  0  0  0  0  0
  191.6570  178.2130  150.2880 O   0  0  0  0  0  1  0  0  0  0  0  0
  190.9320  178.1490  149.1070 C   0  0  0  0  0  3  0  0  0  0  0  0
  1  5  1  0  0  0  0
  2 16  1  0  0  0  0
  3 17  1  0  0  0  0
  4 12  1  0  0  0  0
  4  1  2  0  0  0  0
  5 11  2  0  0  0  0
  7 15  1  6  0  0  0
  7 27  1  0  0  0  0
  8  6  1  0  0  0  0
  8 11  1  0  0  0  0
  9 14  1  6  0  0  0
  9  7  1  0  0  0  0
 10  3  1  0  0  0  0
 11 28  1  0  0  0  0
 12  8  2  0  0  0  0
 13  2  1  0  0  0  0
 14 23  1  0  0  0  0
 17 20  2  0  0  0  0
 17 26  1  0  0  0  0
 18 13  2  0  0  0  0
 19  1  1  0  0  0  0
 19  2  2  0  0  0  0
 20  4  1  0  0  0  0
 21 10  2  0  0  0  0
 22 10  1  6  0  0  0
 22  9  1  0  0  0  0
 22 20  1  0  0  0  0
 23 15  1  0  0  0  0
 25 26  2  0  0  0  0
 25 18  1  0  0  0  0
 26 19  1  0  0  0  0
 27 24  1  6  0  0  0
 27 12  1  0  0  0  0
 28 30  2  0  0  0  0
 30 29  1  0  0  0  0
M  END
>  <MODEL>
1

>  <REMARK>
 VINA RESULT:      -9.1      0.000      0.000
  Name = 
  1 active torsions:
  status: ('A' for Active; 'I' for Inactive)
    1  A    between atoms: C_11  and  N_28
                            x       y       z     vdW  Elec       q    Type
                         _______ _______ _______ _____ _____    ______ ____

>  <TORSDO>
F 1

$$$$
=
 OpenBabel11112416183D

 30 35  0  0  1  0  0  0  0  0999 V2000
  188.3400  176.1160  143.7280 C   0  0  0  0  0  0  0  0  0  0  0  0
  186.0630  177.1530  143.9910 C   0  0  0  0  0  0  0  0  0  0  0  0
  189.4690  177.4900  147.5420 N   0  0  0  0  0  2  0  0  0  0  0  0
  189.6430  175.8830  144.2630 C   0  0  0  0  0  0  0  0  0  0  0  0
  188.0340  175.5870  142.4690 C   0  0  0  0  0  3  0  0  0  0  0  0
  191.1810  173.9400  141.4930 O   0  0  0  0  0  1  0  0  0  0  0  0
  192.7010  176.2910  144.3890 C   0  0  1  0  0  3  0  0  0  0  0  0
  190.2480  174.6520  142.2430 C   0  0  0  0  0  0  0  0  0  0  0  0
  192.3530  176.8190  145.7280 N   0  0  2  0  0  0  0  0  0  0  0  0
  190.7740  176.9290  147.6060 C   0  0  0  0  0  0  0  0  0  0  0  0
  188.9650  174.8530  141.7270 C   0  0  0  0  0  0  0  0  0  0  0  0
  190.6030  175.1680  143.5010 C   0  0  0  0  0  0  0  0  0  0  0  0
  185.1700  177.8920  144.7720 C   0  0  0  0  0  3  0  0  0  0  0  0
  193.5300  176.5580  146.5490 C   0  0  0  0  0  2  0  0  0  0  0  0
  194.2100  176.1500  144.3050 C   0  0  0  0  0  2  0  0  0  0  0  0
  185.6180  176.7130  142.7490 O   0  0  0  0  0  1  0  0  0  0  0  0
  189.0060  177.1120  146.2560 C   0  0  0  0  0  0  0  0  0  0  0  0
  185.5430  178.3670  146.0270 C   0  0  0  0  0  3  0  0  0  0  0  0
  187.3740  176.8720  144.4690 C   0  0  0  0  0  0  0  0  0  0  0  0
  189.9380  176.3920  145.5390 C   0  0  0  0  0  0  0  0  0  0  0  0
  191.4890  177.0150  148.6380 O   0  0  0  0  0  0  0  0  0  0  0  0
  191.1810  176.1900  146.3600 C   0  0  1  0  0  3  0  0  0  0  0  0
  194.7300  176.6140  145.6390 C   0  0  0  0  0  2  0  0  0  0  0  0
  192.1900  173.8030  144.9190 C   0  0  0  0  0  1  0  0  0  0  0  0
  186.8190  178.1070  146.5160 C   0  0  0  0  0  3  0  0  0  0  0  0
  187.7340  177.3720  145.7530 C   0  0  0  0  0  0  0  0  0  0  0  0
  192.0220  174.9750  143.9590 C   0  0  2  0  0  3  0  0  0  0  0  0
  188.6310  174.3150  140.4400 N   0  0  0  0  0  0  0  0  0  0  0  0
  187.9690  172.6350  138.9780 O   0  0  0  0  0  1  0  0  0  0  0  0
  188.2780  173.0840  140.2540 C   0  0  0  0  0  3  0  0  0  0  0  0
  1  4  1  0  0  0  0
  1 19  1  0  0  0  0
  2 19  2  0  0  0  0
  2 13  1  0  0  0  0
  3 10  1  0  0  0  0
  4 20  1  0  0  0  0
  5  1  2  0  0  0  0
  6  8  1  0  0  0  0
  7 15  1  1  0  0  0
  7  9  1  0  0  0  0
  8 12  1  0  0  0  0
  9 22  1  0  0  0  0
  9 14  1  1  0  0  0
 10 21  2  0  0  0  0
 11  8  2  0  0  0  0
 11  5  1  0  0  0  0
 12 27  1  0  0  0  0
 12  4  2  0  0  0  0
 13 18  2  0  0  0  0
 15 23  1  0  0  0  0
 16  2  1  0  0  0  0
 17  3  1  0  0  0  0
 18 25  1  0  0  0  0
 19 26  1  0  0  0  0
 20 17  2  0  0  0  0
 22 20  1  6  0  0  0
 22 10  1  0  0  0  0
 23 14  1  0  0  0  0
 26 17  1  0  0  0  0
 26 25  2  0  0  0  0
 27  7  1  0  0  0  0
 27 24  1  1  0  0  0
 28 11  1  0  0  0  0
 29 30  1  0  0  0  0
 30 28  2  0  0  0  0
M  END
>  <MODEL>
2

>  <REMARK>
 VINA RESULT:      -8.9      2.012      5.615
  Name = 
  1 active torsions:
  status: ('A' for Active; 'I' for Inactive)
    1  A    between atoms: C_11  and  N_28
                            x       y       z     vdW  Elec       q    Type
                         _______ _______ _______ _____ _____    ______ ____

>  <TORSDO>
F 1

$$$$
=
 OpenBabel11112416183D

 30 35  0  0  1  0  0  0  0  0999 V2000
  188.7050  176.6040  145.6220 C   0  0  0  0  0  0  0  0  0  0  0  0
  186.6250  177.9200  146.1450 C   0  0  0  0  0  0  0  0  0  0  0  0
  187.2610  175.7440  141.7650 N   0  0  0  0  0  2  0  0  0  0  0  0
  189.4390  175.7970  144.7010 C   0  0  0  0  0  0  0  0  0  0  0  0
  189.2790  176.8760  146.8700 C   0  0  0  0  0  3  0  0  0  0  0  0
  192.4720  175.0470  146.7130 O   0  0  0  0  0  1  0  0  0  0  0  0
  190.6290  173.1360  143.6840 C   0  0  1  0  0  3  0  0  0  0  0  0
  191.2340  175.5640  146.3400 C   0  0  0  0  0  0  0  0  0  0  0  0
  189.7050  173.4080  142.5590 N   0  0  2  0  0  0  0  0  0  0  0  0
  188.3760  175.0170  141.2640 C   0  0  0  0  0  0  0  0  0  0  0  0
  190.5330  176.3760  147.2340 C   0  0  0  0  0  0  0  0  0  0  0  0
  190.6960  175.2590  145.0780 C   0  0  0  0  0  0  0  0  0  0  0  0
  185.3770  178.3950  145.7310 C   0  0  0  0  0  3  0  0  0  0  0  0
  190.3310  172.7790  141.4010 C   0  0  0  0  0  2  0  0  0  0  0  0
  191.5340  171.9810  143.2940 C   0  0  0  0  0  2  0  0  0  0  0  0
  187.0490  178.2580  147.4250 O   0  0  0  0  0  1  0  0  0  0  0  0
  187.6360  176.0530  143.0970 C   0  0  0  0  0  0  0  0  0  0  0  0
  184.8840  178.0980  144.4640 C   0  0  0  0  0  3  0  0  0  0  0  0
  187.4150  177.1200  145.2710 C   0  0  0  0  0  0  0  0  0  0  0  0
  188.8720  175.5490  143.4390 C   0  0  0  0  0  0  0  0  0  0  0  0
  188.4310  174.6120  140.0730 O   0  0  0  0  0  0  0  0  0  0  0  0
  189.4840  174.8330  142.2660 C   0  0  1  0  0  3  0  0  0  0  0  0
  191.1060  171.5880  141.9060 C   0  0  0  0  0  2  0  0  0  0  0  0
  192.3090  175.0380  143.1420 C   0  0  0  0  0  1  0  0  0  0  0  0
  185.6360  177.3180  143.5910 C   0  0  0  0  0  3  0  0  0  0  0  0
  186.8870  176.8270  143.9810 C   0  0  0  0  0  0  0  0  0  0  0  0
  191.4730  174.3200  144.1960 C   0  0  2  0  0  3  0  0  0  0  0  0
  191.1050  176.6700  148.5170 N   0  0  0  0  0  0  0  0  0  0  0  0
  191.8230  178.0800  150.2170 O   0  0  0  0  0  1  0  0  0  0  0  0
  191.2600  177.8740  148.9660 C   0  0  0  0  0  3  0  0  0  0  0  0
  1  5  1  0  0  0  0
  2 16  1  0  0  0  0
  3 17  1  0  0  0  0
  4 12  1  0  0  0  0
  4  1  2  0  0  0  0
  5 11  2  0  0  0  0
  7 15  1  6  0  0  0
  7 27  1  0  0  0  0
  8  6  1  0  0  0  0
  8 11  1  0  0  0  0
  9 14  1  6  0  0  0
  9  7  1  0  0  0  0
 10  3  1  0  0  0  0
 11 28  1  0  0  0  0
 12  8  2  0  0  0  0
 13  2  1  0  0  0  0
 14 23  1  0  0  0  0
 17 20  2  0  0  0  0
 17 26  1  0  0  0  0
 18 13  2  0  0  0  0
 19  1  1  0  0  0  0
 19  2  2  0  0  0  0
 20  4  1  0  0  0  0
 21 10  2  0  0  0  0
 22 10  1  6  0  0  0
 22  9  1  0  0  0  0
 22 20  1  0  0  0  0
 23 15  1  0  0  0  0
 25 26  2  0  0  0  0
 25 18  1  0  0  0  0
 26 19  1  0  0  0  0
 27 24  1  6  0  0  0
 27 12  1  0  0  0  0
 28 30  2  0  0  0  0
 30 29  1  0  0  0  0
M  END
>  <MODEL>
3

>  <REMARK>
 VINA RESULT:      -8.3      1.081      1.214
  Name = 
  1 active torsions:
  status: ('A' for Active; 'I' for Inactive)
    1  A    between atoms: C_11  and  N_28
                            x       y       z     vdW  Elec       q    Type
                         _______ _______ _______ _____ _____    ______ ____

>  <TORSDO>
F 1

$$$$
=
 OpenBabel11112416183D

 30 35  0  0  1  0  0  0  0  0999 V2000
  187.2030  177.5030  144.4130 C   0  0  0  0  0  0  0  0  0  0  0  0
  185.9040  178.9000  146.0540 C   0  0  0  0  0  0  0  0  0  0  0  0
  189.9560  176.4380  147.4100 N   0  0  0  0  0  2  0  0  0  0  0  0
  188.3270  176.6650  144.1450 C   0  0  0  0  0  0  0  0  0  0  0  0
  186.3120  177.7730  143.3670 C   0  0  0  0  0  3  0  0  0  0  0  0
  187.8160  175.9640  140.5320 O   0  0  0  0  0  1  0  0  0  0  0  0
  191.0780  176.0340  142.8940 C   0  0  1  0  0  3  0  0  0  0  0  0
  187.6180  176.4600  141.8180 C   0  0  0  0  0  0  0  0  0  0  0  0
  191.4540  175.9180  144.3220 N   0  0  2  0  0  0  0  0  0  0  0  0
  190.7820  175.5600  146.6560 C   0  0  0  0  0  0  0  0  0  0  0  0
  186.5000  177.2560  142.0810 C   0  0  0  0  0  0  0  0  0  0  0  0
  188.5420  176.1650  142.8350 C   0  0  0  0  0  0  0  0  0  0  0  0
  185.7620  179.3900  147.3540 C   0  0  0  0  0  3  0  0  0  0  0  0
  192.5500  174.9550  144.3410 C   0  0  0  0  0  2  0  0  0  0  0  0
  192.2280  175.5130  142.0500 C   0  0  0  0  0  2  0  0  0  0  0  0
  184.9480  179.2760  145.1180 O   0  0  0  0  0  1  0  0  0  0  0  0
  189.0010  176.8910  146.4660 C   0  0  0  0  0  0  0  0  0  0  0  0
  186.6800  179.0580  148.3480 C   0  0  0  0  0  3  0  0  0  0  0  0
  186.9960  178.0490  145.7210 C   0  0  0  0  0  0  0  0  0  0  0  0
  189.2040  176.3740  145.2050 C   0  0  0  0  0  0  0  0  0  0  0  0
  191.7280  174.9160  147.1800 O   0  0  0  0  0  0  0  0  0  0  0  0
  190.3830  175.4400  145.2100 C   0  0  1  0  0  3  0  0  0  0  0  0
  193.2860  175.0900  143.0320 C   0  0  0  0  0  2  0  0  0  0  0  0
  189.6300  173.8830  142.8020 C   0  0  0  0  0  1  0  0  0  0  0  0
  187.7560  178.2290  148.0480 C   0  0  0  0  0  3  0  0  0  0  0  0
  187.9240  177.7260  146.7530 C   0  0  0  0  0  0  0  0  0  0  0  0
  189.7580  175.3640  142.4620 C   0  0  2  0  0  3  0  0  0  0  0  0
  185.5740  177.5410  141.0230 N   0  0  0  0  0  0  0  0  0  0  0  0
  183.6010  178.3900  140.1380 O   0  0  0  0  0  1  0  0  0  0  0  0
  184.4470  178.1500  141.2110 C   0  0  0  0  0  3  0  0  0  0  0  0
  1 19  1  0  0  0  0
  2 13  1  0  0  0  0
  4  1  1  0  0  0  0
  4 20  1  0  0  0  0
  5  1  2  0  0  0  0
  6  8  1  0  0  0  0
  7 15  1  6  0  0  0
  7  9  1  0  0  0  0
  8 11  2  0  0  0  0
  8 12  1  0  0  0  0
  9 14  1  6  0  0  0
  9 22  1  0  0  0  0
 10 21  2  0  0  0  0
 10  3  1  0  0  0  0
 11  5  1  0  0  0  0
 12  4  2  0  0  0  0
 13 18  2  0  0  0  0
 15 23  1  0  0  0  0
 16  2  1  0  0  0  0
 17 26  1  0  0  0  0
 17  3  1  0  0  0  0
 19  2  2  0  0  0  0
 19 26  1  0  0  0  0
 20 17  2  0  0  0  0
 22 20  1  1  0  0  0
 22 10  1  0  0  0  0
 23 14  1  0  0  0  0
 25 18  1  0  0  0  0
 26 25  2  0  0  0  0
 27 24  1  1  0  0  0
 27 12  1  0  0  0  0
 27  7  1  0  0  0  0
 28 30  2  0  0  0  0
 28 11  1  0  0  0  0
 29 30  1  0  0  0  0
M  END
>  <MODEL>
4

>  <REMARK>
 VINA RESULT:      -8.3      1.759      5.242
  Name = 
  1 active torsions:
  status: ('A' for Active; 'I' for Inactive)
    1  A    between atoms: C_11  and  N_28
                            x       y       z     vdW  Elec       q    Type
                         _______ _______ _______ _____ _____    ______ ____

>  <TORSDO>
F 1

$$$$
=
 OpenBabel11112416183D

 30 35  0  0  1  0  0  0  0  0999 V2000
  187.4240  176.6320  142.4910 C   0  0  0  0  0  0  0  0  0  0  0  0
  185.7890  178.5080  142.8630 C   0  0  0  0  0  0  0  0  0  0  0  0
  188.4090  176.6030  146.5820 N   0  0  0  0  0  2  0  0  0  0  0  0
  188.4040  175.7430  143.0290 C   0  0  0  0  0  0  0  0  0  0  0  0
  187.1260  176.5450  141.1260 C   0  0  0  0  0  3  0  0  0  0  0  0
  189.3920  173.8820  139.9680 O   0  0  0  0  0  1  0  0  0  0  0  0
  191.2840  174.7060  143.4270 C   0  0  1  0  0  3  0  0  0  0  0  0
  188.7420  174.7800  140.8110 C   0  0  0  0  0  0  0  0  0  0  0  0
  190.9850  175.0700  144.8310 N   0  0  2  0  0  0  0  0  0  0  0  0
  189.3260  175.5170  146.5850 C   0  0  0  0  0  0  0  0  0  0  0  0
  187.7640  175.6270  140.2850 C   0  0  0  0  0  0  0  0  0  0  0  0
  189.0780  174.8330  142.1740 C   0  0  0  0  0  0  0  0  0  0  0  0
  185.1820  179.4050  143.7450 C   0  0  0  0  0  3  0  0  0  0  0  0
  191.7960  174.1590  145.6320 C   0  0  0  0  0  2  0  0  0  0  0  0
  192.5850  173.9230  143.3990 C   0  0  0  0  0  2  0  0  0  0  0  0
  185.4020  178.5580  141.5280 O   0  0  0  0  0  1  0  0  0  0  0  0
  188.0400  176.7240  145.2180 C   0  0  0  0  0  0  0  0  0  0  0  0
  185.5170  179.4160  145.0970 C   0  0  0  0  0  3  0  0  0  0  0  0
  186.7650  177.5850  143.3340 C   0  0  0  0  0  0  0  0  0  0  0  0
  188.6800  175.8140  144.4050 C   0  0  0  0  0  0  0  0  0  0  0  0
  189.8380  175.0760  147.6480 O   0  0  0  0  0  0  0  0  0  0  0  0
  189.5740  174.9250  145.2240 C   0  0  1  0  0  3  0  0  0  0  0  0
  193.0340  173.8430  144.8330 C   0  0  0  0  0  2  0  0  0  0  0  0
  189.6920  172.6610  143.3130 C   0  0  0  0  0  1  0  0  0  0  0  0
  186.4680  178.5240  145.5820 C   0  0  0  0  0  3  0  0  0  0  0  0
  187.0940  177.6170  144.7200 C   0  0  0  0  0  0  0  0  0  0  0  0
  190.1900  173.9420  142.6540 C   0  0  2  0  0  3  0  0  0  0  0  0
  187.4410  175.5510  138.8890 N   0  0  0  0  0  0  0  0  0  0  0  0
  186.4220  176.2760  136.9310 O   0  0  0  0  0  1  0  0  0  0  0  0
  186.6910  176.4160  138.2850 C   0  0  0  0  0  3  0  0  0  0  0  0
  1  4  1  0  0  0  0
  1 19  1  0  0  0  0
  2 19  2  0  0  0  0
  2 13  1  0  0  0  0
  3 10  1  0  0  0  0
  4 20  1  0  0  0  0
  5  1  2  0  0  0  0
  6  8  1  0  0  0  0
  7 15  1  1  0  0  0
  7  9  1  0  0  0  0
  8 12  1  0  0  0  0
  9 22  1  0  0  0  0
  9 14  1  1  0  0  0
 10 21  2  0  0  0  0
 11  8  2  0  0  0  0
 11  5  1  0  0  0  0
 12 27  1  0  0  0  0
 12  4  2  0  0  0  0
 13 18  2  0  0  0  0
 15 23  1  0  0  0  0
 16  2  1  0  0  0  0
 17  3  1  0  0  0  0
 18 25  1  0  0  0  0
 19 26  1  0  0  0  0
 20 17  2  0  0  0  0
 22 20  1  6  0  0  0
 22 10  1  0  0  0  0
 23 14  1  0  0  0  0
 26 17  1  0  0  0  0
 26 25  2  0  0  0  0
 27 24  1  1  0  0  0
 27  7  1  0  0  0  0
 28 11  1  0  0  0  0
 29 30  1  0  0  0  0
 30 28  2  0  0  0  0
M  END
>  <MODEL>
5

>  <REMARK>
 VINA RESULT:      -8.3      2.205      5.668
  Name = 
  1 active torsions:
  status: ('A' for Active; 'I' for Inactive)
    1  A    between atoms: C_11  and  N_28
                            x       y       z     vdW  Elec       q    Type
                         _______ _______ _______ _____ _____    ______ ____

>  <TORSDO>
F 1

$$$$
=
 OpenBabel11112416183D

 30 35  0  0  1  0  0  0  0  0999 V2000
  190.2980  174.9430  143.6740 C   0  0  0  0  0  0  0  0  0  0  0  0
  192.4760  173.6900  143.8060 C   0  0  0  0  0  0  0  0  0  0  0  0
  191.0640  176.7810  147.3800 N   0  0  0  0  0  2  0  0  0  0  0  0
  189.3730  175.8490  144.2760 C   0  0  0  0  0  0  0  0  0  0  0  0
  189.9830  174.4090  142.4190 C   0  0  0  0  0  3  0  0  0  0  0  0
  186.6890  175.8970  141.7070 O   0  0  0  0  0  1  0  0  0  0  0  0
  186.7200  176.5780  145.6770 C   0  0  1  0  0  3  0  0  0  0  0  0
  187.8810  175.5950  142.3610 C   0  0  0  0  0  0  0  0  0  0  0  0
  187.6530  176.9640  146.7600 N   0  0  2  0  0  0  0  0  0  0  0  0
  189.9150  177.6140  147.4600 C   0  0  0  0  0  0  0  0  0  0  0  0
  188.7960  174.7310  141.7530 C   0  0  0  0  0  0  0  0  0  0  0  0
  188.1510  176.1520  143.6220 C   0  0  0  0  0  0  0  0  0  0  0  0
  193.6470  173.4030  144.5120 C   0  0  0  0  0  3  0  0  0  0  0  0
  186.9700  178.0350  147.4760 C   0  0  0  0  0  2  0  0  0  0  0  0
  185.3330  177.0830  146.0340 C   0  0  0  0  0  2  0  0  0  0  0  0
  192.2950  173.0630  142.5790 O   0  0  0  0  0  1  0  0  0  0  0  0
  190.8820  176.0760  146.1630 C   0  0  0  0  0  0  0  0  0  0  0  0
  193.8990  173.9920  145.7490 C   0  0  0  0  0  3  0  0  0  0  0  0
  191.5160  174.5950  144.3430 C   0  0  0  0  0  0  0  0  0  0  0  0
  189.7060  176.4040  145.5240 C   0  0  0  0  0  0  0  0  0  0  0  0
  189.7490  178.4370  148.3990 O   0  0  0  0  0  0  0  0  0  0  0  0
  188.9640  177.4540  146.3050 C   0  0  1  0  0  3  0  0  0  0  0  0
  185.4890  177.7760  147.3610 C   0  0  0  0  0  2  0  0  0  0  0  0
  187.3420  178.5080  144.0580 C   0  0  0  0  0  1  0  0  0  0  0  0
  192.9770  174.8790  146.2950 C   0  0  0  0  0  3  0  0  0  0  0  0
  191.7940  175.1820  145.6110 C   0  0  0  0  0  0  0  0  0  0  0  0
  187.0900  177.0160  144.2450 C   0  0  2  0  0  3  0  0  0  0  0  0
  188.4930  174.1760  140.4650 N   0  0  0  0  0  0  0  0  0  0  0  0
  188.1210  172.4420  138.9650 O   0  0  0  0  0  1  0  0  0  0  0  0
  188.4180  172.9040  140.2390 C   0  0  0  0  0  3  0  0  0  0  0  0
  1  4  1  0  0  0  0
  1 19  1  0  0  0  0
  2 19  2  0  0  0  0
  2 13  1  0  0  0  0
  3 10  1  0  0  0  0
  4 20  1  0  0  0  0
  5  1  2  0  0  0  0
  6  8  1  0  0  0  0
  7 15  1  1  0  0  0
  7  9  1  0  0  0  0
  8 12  1  0  0  0  0
  9 14  1  6  0  0  0
 10 21  2  0  0  0  0
 11  8  2  0  0  0  0
 11  5  1  0  0  0  0
 12 27  1  0  0  0  0
 12  4  2  0  0  0  0
 13 18  2  0  0  0  0
 15 23  1  0  0  0  0
 16  2  1  0  0  0  0
 17  3  1  0  0  0  0
 18 25  1  0  0  0  0
 19 26  1  0  0  0  0
 20 17  2  0  0  0  0
 22 20  1  6  0  0  0
 22  9  1  0  0  0  0
 22 10  1  0  0  0  0
 23 14  1  0  0  0  0
 26 17  1  0  0  0  0
 26 25  2  0  0  0  0
 27 24  1  1  0  0  0
 27  7  1  0  0  0  0
 28 11  1  0  0  0  0
 29 30  1  0  0  0  0
 30 28  2  0  0  0  0
M  END
>  <MODEL>
6

>  <REMARK>
 VINA RESULT:      -8.2      2.041      7.282
  Name = 
  1 active torsions:
  status: ('A' for Active; 'I' for Inactive)
    1  A    between atoms: C_11  and  N_28
                            x       y       z     vdW  Elec       q    Type
                         _______ _______ _______ _____ _____    ______ ____

>  <TORSDO>
F 1

$$$$
=
 OpenBabel11112416183D

 30 35  0  0  1  0  0  0  0  0999 V2000
  188.2160  175.8550  142.0970 C   0  0  0  0  0  0  0  0  0  0  0  0
  186.6230  176.9660  140.4970 C   0  0  0  0  0  0  0  0  0  0  0  0
  186.6900  178.1320  145.2890 N   0  0  0  0  0  2  0  0  0  0  0  0
  188.7320  175.7420  143.4240 C   0  0  0  0  0  0  0  0  0  0  0  0
  188.7540  175.0290  141.1030 C   0  0  0  0  0  3  0  0  0  0  0  0
  191.3300  173.1310  142.9280 O   0  0  0  0  0  1  0  0  0  0  0  0
  190.8900  176.1140  145.5990 C   0  0  1  0  0  3  0  0  0  0  0  0
  190.2960  174.0270  142.6660 C   0  0  0  0  0  0  0  0  0  0  0  0
  189.8360  176.9710  146.1870 N   0  0  2  0  0  0  0  0  0  0  0  0
  187.4630  177.5820  146.3480 C   0  0  0  0  0  0  0  0  0  0  0  0
  189.7760  174.1140  141.3720 C   0  0  0  0  0  0  0  0  0  0  0  0
  189.7920  174.8400  143.6960 C   0  0  0  0  0  0  0  0  0  0  0  0
  185.6020  177.8950  140.2820 C   0  0  0  0  0  3  0  0  0  0  0  0
  190.0620  176.9060  147.6270 C   0  0  0  0  0  2  0  0  0  0  0  0
  191.9900  175.9290  146.6300 C   0  0  0  0  0  2  0  0  0  0  0  0
  187.0670  176.2330  139.4020 O   0  0  0  0  0  1  0  0  0  0  0  0
  187.1630  177.4480  144.1400 C   0  0  0  0  0  0  0  0  0  0  0  0
  185.1050  178.6670  141.3290 C   0  0  0  0  0  3  0  0  0  0  0  0
  187.1740  176.7920  141.7990 C   0  0  0  0  0  0  0  0  0  0  0  0
  188.1710  176.5540  144.4250 C   0  0  0  0  0  0  0  0  0  0  0  0
  187.2850  177.9160  147.5490 O   0  0  0  0  0  0  0  0  0  0  0  0
  188.4570  176.5450  145.9010 C   0  0  1  0  0  3  0  0  0  0  0  0
  191.5420  176.7070  147.8370 C   0  0  0  0  0  2  0  0  0  0  0  0
  189.6910  173.8510  146.0210 C   0  0  0  0  0  1  0  0  0  0  0  0
  185.6270  178.5170  142.6100 C   0  0  0  0  0  3  0  0  0  0  0  0
  186.6520  177.5960  142.8530 C   0  0  0  0  0  0  0  0  0  0  0  0
  190.4490  174.7440  145.0450 C   0  0  2  0  0  3  0  0  0  0  0  0
  190.3100  173.2730  140.3400 N   0  0  0  0  0  0  0  0  0  0  0  0
  190.2440  171.5070  138.8310 O   0  0  0  0  0  1  0  0  0  0  0  0
  189.6600  172.2780  139.8270 C   0  0  0  0  0  3  0  0  0  0  0  0
  1  4  1  0  0  0  0
  2 19  1  0  0  0  0
  3 10  1  0  0  0  0
  4 12  1  0  0  0  0
  4 20  2  0  0  0  0
  5 11  2  0  0  0  0
  5  1  1  0  0  0  0
  7  9  1  0  0  0  0
  7 15  1  1  0  0  0
  8  6  1  0  0  0  0
  8 12  2  0  0  0  0
  9 14  1  1  0  0  0
 10 21  2  0  0  0  0
 11  8  1  0  0  0  0
 12 27  1  0  0  0  0
 13  2  2  0  0  0  0
 13 18  1  0  0  0  0
 14 23  1  0  0  0  0
 15 23  1  0  0  0  0
 16  2  1  0  0  0  0
 17 20  1  0  0  0  0
 17  3  1  0  0  0  0
 18 25  2  0  0  0  0
 19  1  2  0  0  0  0
 19 26  1  0  0  0  0
 22 20  1  6  0  0  0
 22  9  1  0  0  0  0
 22 10  1  0  0  0  0
 25 26  1  0  0  0  0
 26 17  2  0  0  0  0
 27  7  1  0  0  0  0
 27 24  1  1  0  0  0
 28 11  1  0  0  0  0
 29 30  1  0  0  0  0
 30 28  2  0  0  0  0
M  END
>  <MODEL>
7

>  <REMARK>
 VINA RESULT:      -8.2      2.015      5.854
  Name = 
  1 active torsions:
  status: ('A' for Active; 'I' for Inactive)
    1  A    between atoms: C_11  and  N_28
                            x       y       z     vdW  Elec       q    Type
                         _______ _______ _______ _____ _____    ______ ____

>  <TORSDO>
F 1

$$$$
=
 OpenBabel11112416183D

 30 35  0  0  1  0  0  0  0  0999 V2000
  188.8030  175.6150  143.4060 C   0  0  0  0  0  0  0  0  0  0  0  0
  186.5440  176.5450  144.0080 C   0  0  0  0  0  0  0  0  0  0  0  0
  190.4190  177.0500  147.0160 N   0  0  0  0  0  2  0  0  0  0  0  0
  190.1810  175.4440  143.7410 C   0  0  0  0  0  0  0  0  0  0  0  0
  188.3390  175.0680  142.2040 C   0  0  0  0  0  3  0  0  0  0  0  0
  191.3800  173.5670  140.7660 O   0  0  0  0  0  1  0  0  0  0  0  0
  193.2010  175.9940  143.4160 C   0  0  1  0  0  3  0  0  0  0  0  0
  190.5360  174.2370  141.6490 C   0  0  0  0  0  0  0  0  0  0  0  0
  193.0310  176.5090  144.7940 N   0  0  2  0  0  0  0  0  0  0  0  0
  191.7440  176.5510  146.8840 C   0  0  0  0  0  0  0  0  0  0  0  0
  189.1830  174.3760  141.3300 C   0  0  0  0  0  0  0  0  0  0  0  0
  191.0490  174.7720  142.8430 C   0  0  0  0  0  0  0  0  0  0  0  0
  185.7440  177.2440  144.9150 C   0  0  0  0  0  3  0  0  0  0  0  0
  194.3280  176.3060  145.4300 C   0  0  0  0  0  2  0  0  0  0  0  0
  194.6860  175.9240  143.1080 C   0  0  0  0  0  2  0  0  0  0  0  0
  185.9410  176.0820  142.8440 O   0  0  0  0  0  1  0  0  0  0  0  0
  189.7890  176.6480  145.8120 C   0  0  0  0  0  0  0  0  0  0  0  0
  186.2750  177.7400  146.1030 C   0  0  0  0  0  3  0  0  0  0  0  0
  187.9230  176.3270  144.2850 C   0  0  0  0  0  0  0  0  0  0  0  0
  190.6370  175.9700  144.9620 C   0  0  0  0  0  0  0  0  0  0  0  0
  192.5990  176.6740  147.8000 O   0  0  0  0  0  0  0  0  0  0  0  0
  191.9960  175.8290  145.5890 C   0  0  1  0  0  3  0  0  0  0  0  0
  195.3760  176.4150  144.3520 C   0  0  0  0  0  2  0  0  0  0  0  0
  192.8900  173.4860  144.0050 C   0  0  0  0  0  1  0  0  0  0  0  0
  187.6210  177.5410  146.3970 C   0  0  0  0  0  3  0  0  0  0  0  0
  188.4450  176.8470  145.5040 C   0  0  0  0  0  0  0  0  0  0  0  0
  192.5270  174.6470  143.0850 C   0  0  2  0  0  3  0  0  0  0  0  0
  188.6870  173.8200  140.1040 N   0  0  0  0  0  0  0  0  0  0  0  0
  187.8180  173.9310  137.9520 O   0  0  0  0  0  1  0  0  0  0  0  0
  188.2870  174.5420  139.1070 C   0  0  0  0  0  3  0  0  0  0  0  0
  1  4  1  0  0  0  0
  1 19  1  0  0  0  0
  2 19  2  0  0  0  0
  2 13  1  0  0  0  0
  4 20  1  0  0  0  0
  5  1  2  0  0  0  0
  6  8  1  0  0  0  0
  7 15  1  1  0  0  0
  7  9  1  0  0  0  0
  8 12  1  0  0  0  0
  9 14  1  1  0  0  0
  9 22  1  0  0  0  0
 10  3  1  0  0  0  0
 10 21  2  0  0  0  0
 11  8  2  0  0  0  0
 11  5  1  0  0  0  0
 12 27  1  0  0  0  0
 12  4  2  0  0  0  0
 13 18  2  0  0  0  0
 15 23  1  0  0  0  0
 16  2  1  0  0  0  0
 17  3  1  0  0  0  0
 18 25  1  0  0  0  0
 19 26  1  0  0  0  0
 20 17  2  0  0  0  0
 22 20  1  6  0  0  0
 22 10  1  0  0  0  0
 23 14  1  0  0  0  0
 26 17  1  0  0  0  0
 26 25  2  0  0  0  0
 27  7  1  0  0  0  0
 27 24  1  1  0  0  0
 28 11  1  0  0  0  0
 29 30  1  0  0  0  0
 30 28  2  0  0  0  0
M  END
>  <MODEL>
8

>  <REMARK>
 VINA RESULT:      -8.0      2.175      5.810
  Name = 
  1 active torsions:
  status: ('A' for Active; 'I' for Inactive)
    1  A    between atoms: C_11  and  N_28
                            x       y       z     vdW  Elec       q    Type
                         _______ _______ _______ _____ _____    ______ ____

>  <TORSDO>
F 1

$$$$
=
 OpenBabel11112416183D

 30 35  0  0  1  0  0  0  0  0999 V2000
  189.1350  175.0430  141.5530 C   0  0  0  0  0  0  0  0  0  0  0  0
  189.2280  173.6660  139.4480 C   0  0  0  0  0  0  0  0  0  0  0  0
  192.8630  173.5260  142.7780 N   0  0  0  0  0  2  0  0  0  0  0  0
  189.7350  175.4170  142.7930 C   0  0  0  0  0  0  0  0  0  0  0  0
  187.9120  175.6280  141.2020 C   0  0  0  0  0  3  0  0  0  0  0  0
  187.1910  177.7940  144.0930 O   0  0  0  0  0  1  0  0  0  0  0  0
  189.9410  175.4500  145.8730 C   0  0  1  0  0  3  0  0  0  0  0  0
  187.8450  176.8920  143.2580 C   0  0  0  0  0  0  0  0  0  0  0  0
  191.2190  174.7640  145.5740 N   0  0  2  0  0  0  0  0  0  0  0  0
  193.0210  174.2640  143.9830 C   0  0  0  0  0  0  0  0  0  0  0  0
  187.2680  176.5510  142.0320 C   0  0  0  0  0  0  0  0  0  0  0  0
  189.0690  176.3270  143.6540 C   0  0  0  0  0  0  0  0  0  0  0  0
  189.9130  172.7410  138.6570 C   0  0  0  0  0  3  0  0  0  0  0  0
  192.1020  175.1220  146.6790 C   0  0  0  0  0  2  0  0  0  0  0  0
  189.9250  175.8160  147.3460 C   0  0  0  0  0  2  0  0  0  0  0  0
  188.0110  174.1410  138.9740 O   0  0  0  0  0  1  0  0  0  0  0  0
  191.5960  173.9420  142.2960 C   0  0  0  0  0  0  0  0  0  0  0  0
  191.1380  172.2190  139.0640 C   0  0  0  0  0  3  0  0  0  0  0  0
  189.7750  174.0930  140.6920 C   0  0  0  0  0  0  0  0  0  0  0  0
  190.9760  174.8480  143.1280 C   0  0  0  0  0  0  0  0  0  0  0  0
  194.0690  174.1940  144.6780 O   0  0  0  0  0  0  0  0  0  0  0  0
  191.8550  175.1580  144.3070 C   0  0  1  0  0  3  0  0  0  0  0  0
  191.2350  175.3200  147.8970 C   0  0  0  0  0  2  0  0  0  0  0  0
  190.6520  177.7820  144.9850 C   0  0  0  0  0  1  0  0  0  0  0  0
  191.6930  172.6190  140.2760 C   0  0  0  0  0  3  0  0  0  0  0  0
  191.0280  173.5430  141.0890 C   0  0  0  0  0  0  0  0  0  0  0  0
  189.5940  176.6850  145.0170 C   0  0  2  0  0  3  0  0  0  0  0  0
  186.0170  177.1430  141.6530 N   0  0  0  0  0  0  0  0  0  0  0  0
  184.6350  178.4450  140.3160 O   0  0  0  0  0  1  0  0  0  0  0  0
  185.8780  177.9080  140.6190 C   0  0  0  0  0  3  0  0  0  0  0  0
  1  4  1  0  0  0  0
  2 19  1  0  0  0  0
  3 10  1  0  0  0  0
  4 20  1  0  0  0  0
  4 12  2  0  0  0  0
  5  1  2  0  0  0  0
  5 11  1  0  0  0  0
  7 15  1  1  0  0  0
  8 12  1  0  0  0  0
  8  6  1  0  0  0  0
  9  7  1  0  0  0  0
  9 14  1  1  0  0  0
 10 22  1  0  0  0  0
 10 21  2  0  0  0  0
 11  8  2  0  0  0  0
 12 27  1  0  0  0  0
 13 18  1  0  0  0  0
 13  2  2  0  0  0  0
 14 23  1  0  0  0  0
 15 23  1  0  0  0  0
 16  2  1  0  0  0  0
 17  3  1  0  0  0  0
 17 20  2  0  0  0  0
 18 25  2  0  0  0  0
 19 26  2  0  0  0  0
 19  1  1  0  0  0  0
 22 20  1  6  0  0  0
 22  9  1  0  0  0  0
 25 26  1  0  0  0  0
 26 17  1  0  0  0  0
 27 24  1  6  0  0  0
 27  7  1  0  0  0  0
 28 11  1  0  0  0  0
 29 30  1  0  0  0  0
 30 28  2  0  0  0  0
M  END
>  <MODEL>
9

>  <REMARK>
 VINA RESULT:      -7.5      2.751      7.052
  Name = 
  1 active torsions:
  status: ('A' for Active; 'I' for Inactive)
    1  A    between atoms: C_11  and  N_28
                            x       y       z     vdW  Elec       q    Type
                         _______ _______ _______ _____ _____    ______ ____

>  <TORSDO>
F 1

$$$$
