=
 OpenBabel11112417303D

 37 42  0  0  1  0  0  0  0  0999 V2000
  191.0390  175.4960  145.7840 C   0  0  1  0  0  3  0  0  0  0  0  0
  188.1140  175.5330  143.9160 O   0  0  0  0  0  0  0  0  0  0  0  0
  193.5450  175.3270  145.3510 C   0  0  2  0  0  3  0  0  0  0  0  0
  190.4190  175.9150  144.4650 C   0  0  2  0  0  3  0  0  0  0  0  0
  192.1830  174.5950  145.3360 C   0  0  2  0  0  3  0  0  0  0  0  0
  188.9740  176.4470  144.5450 C   0  0  2  0  0  3  0  0  0  0  0  0
  193.6920  176.1970  146.6110 C   0  0  0  0  0  2  0  0  0  0  0  0
  191.7990  174.1380  143.9350 C   0  0  0  0  0  2  0  0  0  0  0  0
  190.4430  177.1130  147.4140 C   0  0  0  0  0  2  0  0  0  0  0  0
  192.5100  176.2300  147.3760 O   0  0  0  0  0  0  0  0  0  0  0  0
  188.7830  176.8540  142.0260 O   0  0  0  0  0  0  0  0  0  0  0  0
  187.9000  175.8840  142.5570 C   0  0  1  0  0  3  0  0  0  0  0  0
  191.5220  176.6610  146.5430 N   0  0  1  0  0  0  0  0  0  0  0  0
  190.5060  174.7410  143.5900 N   0  0  2  0  0  0  0  0  0  0  0  0
  188.4540  176.8220  145.9410 C   0  0  1  0  0  3  0  0  0  0  0  0
  189.0540  175.5200  141.6610 C   0  0  2  0  0  3  0  0  0  0  0  0
  190.4750  175.1780  142.1810 C   0  0  2  0  0  3  0  0  0  0  0  0
  189.3610  177.8360  146.6290 C   0  0  0  0  0  2  0  0  0  0  0  0
  186.0540  176.7410  146.6350 C   0  0  0  0  0  3  0  0  0  0  0  0
  187.0540  177.3540  145.8730 C   0  0  0  0  0  0  0  0  0  0  0  0
  186.7300  178.4480  145.0550 C   0  0  0  0  0  3  0  0  0  0  0  0
  185.0990  180.0030  144.1940 O   0  0  0  0  0  1  0  0  0  0  0  0
  184.4210  178.3040  145.7680 C   0  0  0  0  0  3  0  0  0  0  0  0
  185.4160  178.9210  145.0040 C   0  0  0  0  0  0  0  0  0  0  0  0
  184.7400  177.2150  146.5840 C   0  0  0  0  0  3  0  0  0  0  0  0
  191.0400  174.0950  141.2360 C   0  0  0  0  0  2  0  0  0  0  0  0
  190.0590  173.0800  140.8230 N   0  0  0  0  0  0  0  0  0  0  0  0
  188.5420  172.6950  138.9590 C   0  0  0  0  0  1  0  0  0  0  0  0
  189.9660  173.0140  139.3700 C   0  0  0  0  0  2  0  0  0  0  0  0
  190.4700  171.7720  141.3150 C   0  0  0  0  0  2  0  0  0  0  0  0
  189.7050  171.4270  142.5800 C   0  0  0  0  0  2  0  0  0  0  0  0
  188.4960  172.1220  142.6110 O   0  0  0  0  0  1  0  0  0  0  0  0
  193.6990  176.1470  144.2180 O   0  0  0  0  0  0  0  0  0  0  0  0
  195.0070  175.9740  143.7230 C   0  0  0  0  0  0  0  0  0  0  0  0
  195.0230  175.9990  142.3360 F   0  0  0  0  0  0  0  0  0  0  0  0
  195.8530  176.9550  144.2180 F   0  0  0  0  0  0  0  0  0  0  0  0
  195.4740  174.7420  144.1370 F   0  0  0  0  0  0  0  0  0  0  0  0
  1 13  1  0  0  0  0
  2  6  1  0  0  0  0
  3  7  1  0  0  0  0
  4  6  1  0  0  0  0
  4  1  1  0  0  0  0
  5  3  1  0  0  0  0
  5  1  1  0  0  0  0
  6 15  1  0  0  0  0
  7 10  1  0  0  0  0
  8  5  1  0  0  0  0
 11 12  1  0  0  0  0
 12  2  1  0  0  0  0
 13 10  1  0  0  0  0
 13  9  1  0  0  0  0
 14  8  1  0  0  0  0
 14  4  1  0  0  0  0
 15 18  1  0  0  0  0
 16 11  1  0  0  0  0
 16 17  1  0  0  0  0
 16 12  1  0  0  0  0
 17 14  1  0  0  0  0
 18  9  1  0  0  0  0
 20 15  1  0  0  0  0
 20 19  2  0  0  0  0
 21 20  1  0  0  0  0
 22 24  1  0  0  0  0
 23 25  2  0  0  0  0
 24 21  2  0  0  0  0
 24 23  1  0  0  0  0
 25 19  1  0  0  0  0
 26 17  1  0  0  0  0
 27 26  1  0  0  0  0
 27 30  1  0  0  0  0
 28 29  1  0  0  0  0
 29 27  1  0  0  0  0
 30 31  1  0  0  0  0
 31 32  1  0  0  0  0
 33  3  1  0  0  0  0
 34 37  1  0  0  0  0
 34 33  1  0  0  0  0
 34 36  1  0  0  0  0
 35 34  1  0  0  0  0
M  END
>  <MODEL>
1

>  <REMARK>
 VINA RESULT:      -7.6      0.000      0.000
  Name = 
  8 active torsions:
  status: ('A' for Active; 'I' for Inactive)
    1  A    between atoms: C_1  and  N_4
    2  A    between atoms: C_1  and  C_27
    3  A    between atoms: C_2  and  O_22
    4  A    between atoms: N_4  and  C_12
    5  A    between atoms: N_4  and  C_37
    6  A    between atoms: C_6  and  O_22
    7  A    between atoms: C_8  and  C_12
    8  A    between atoms: C_23  and  C_30
                            x       y       z     vdW  Elec       q    Type
                         _______ _______ _______ _____ _____    ______ ____

>  <TORSDO>
F 8

$$$$
=
 OpenBabel11112417303D

 37 42  0  0  1  0  0  0  0  0999 V2000
  190.7450  174.8920  145.4710 C   0  0  1  0  0  3  0  0  0  0  0  0
  187.7860  175.2780  143.6980 O   0  0  0  0  0  0  0  0  0  0  0  0
  193.1870  174.3690  144.9610 C   0  0  2  0  0  3  0  0  0  0  0  0
  190.1400  175.3560  144.1590 C   0  0  2  0  0  3  0  0  0  0  0  0
  191.7380  173.8320  145.0150 C   0  0  2  0  0  3  0  0  0  0  0  0
  188.7850  176.0840  144.2680 C   0  0  2  0  0  3  0  0  0  0  0  0
  193.4970  175.2460  146.1860 C   0  0  0  0  0  2  0  0  0  0  0  0
  191.2440  173.3920  143.6430 C   0  0  0  0  0  2  0  0  0  0  0  0
  190.4350  176.6220  147.0640 C   0  0  0  0  0  2  0  0  0  0  0  0
  192.3600  175.4630  146.9880 O   0  0  0  0  0  0  0  0  0  0  0  0
  188.5590  176.4410  141.7450 O   0  0  0  0  0  0  0  0  0  0  0  0
  187.5710  175.6180  142.3360 C   0  0  1  0  0  3  0  0  0  0  0  0
  191.4100  176.0010  146.1740 N   0  0  1  0  0  0  0  0  0  0  0  0
  190.0340  174.1570  143.3210 N   0  0  2  0  0  0  0  0  0  0  0  0
  188.3730  176.5650  145.6670 C   0  0  1  0  0  3  0  0  0  0  0  0
  188.6320  175.0730  141.4150 C   0  0  2  0  0  3  0  0  0  0  0  0
  190.0110  174.5540  141.8990 C   0  0  2  0  0  3  0  0  0  0  0  0
  189.4340  177.4640  146.2920 C   0  0  0  0  0  2  0  0  0  0  0  0
  185.9860  176.7840  146.3780 C   0  0  0  0  0  3  0  0  0  0  0  0
  187.0570  177.2830  145.6280 C   0  0  0  0  0  0  0  0  0  0  0  0
  186.8800  178.4370  144.8480 C   0  0  0  0  0  3  0  0  0  0  0  0
  185.4690  180.2240  144.0500 O   0  0  0  0  0  1  0  0  0  0  0  0
  184.5750  178.5800  145.5740 C   0  0  0  0  0  3  0  0  0  0  0  0
  185.6410  179.0830  144.8230 C   0  0  0  0  0  0  0  0  0  0  0  0
  184.7480  177.4320  146.3520 C   0  0  0  0  0  3  0  0  0  0  0  0
  190.3870  173.3780  140.9730 C   0  0  0  0  0  2  0  0  0  0  0  0
  191.0100  173.7810  139.7040 N   0  0  0  0  0  0  0  0  0  0  0  0
  192.8920  172.4130  140.4200 C   0  0  0  0  0  1  0  0  0  0  0  0
  192.4630  173.7290  139.8030 C   0  0  0  0  0  2  0  0  0  0  0  0
  190.5920  172.8740  138.6430 C   0  0  0  0  0  2  0  0  0  0  0  0
  189.2430  172.2650  138.9800 C   0  0  0  0  0  2  0  0  0  0  0  0
  188.2350  172.9140  138.2660 O   0  0  0  0  0  1  0  0  0  0  0  0
  193.4090  175.1290  143.7970 O   0  0  0  0  0  0  0  0  0  0  0  0
  194.5940  174.6670  143.1890 C   0  0  0  0  0  0  0  0  0  0  0  0
  194.6550  175.0520  141.8590 F   0  0  0  0  0  0  0  0  0  0  0  0
  195.7090  175.1390  143.8650 F   0  0  0  0  0  0  0  0  0  0  0  0
  194.6040  173.2860  143.2390 F   0  0  0  0  0  0  0  0  0  0  0  0
  1 13  1  0  0  0  0
  2  6  1  0  0  0  0
  3  5  1  0  0  0  0
  3  7  1  0  0  0  0
  4  6  1  0  0  0  0
  4  1  1  0  0  0  0
  5  1  1  0  0  0  0
  6 15  1  0  0  0  0
  7 10  1  0  0  0  0
  8  5  1  0  0  0  0
 11 12  1  0  0  0  0
 12  2  1  0  0  0  0
 13 10  1  0  0  0  0
 13  9  1  0  0  0  0
 14  8  1  0  0  0  0
 14  4  1  0  0  0  0
 15 18  1  0  0  0  0
 16 11  1  0  0  0  0
 16 17  1  0  0  0  0
 16 12  1  0  0  0  0
 17 14  1  0  0  0  0
 18  9  1  0  0  0  0
 20 15  1  0  0  0  0
 20 19  2  0  0  0  0
 21 20  1  0  0  0  0
 22 24  1  0  0  0  0
 23 25  2  0  0  0  0
 24 21  2  0  0  0  0
 24 23  1  0  0  0  0
 25 19  1  0  0  0  0
 26 17  1  0  0  0  0
 27 29  1  0  0  0  0
 27 26  1  0  0  0  0
 29 28  1  0  0  0  0
 30 31  1  0  0  0  0
 30 27  1  0  0  0  0
 32 31  1  0  0  0  0
 33  3  1  0  0  0  0
 34 37  1  0  0  0  0
 34 33  1  0  0  0  0
 34 36  1  0  0  0  0
 35 34  1  0  0  0  0
M  END
>  <MODEL>
2

>  <REMARK>
 VINA RESULT:      -7.2      1.220      1.613
  Name = 
  8 active torsions:
  status: ('A' for Active; 'I' for Inactive)
    1  A    between atoms: C_1  and  N_4
    2  A    between atoms: C_1  and  C_27
    3  A    between atoms: C_2  and  O_22
    4  A    between atoms: N_4  and  C_12
    5  A    between atoms: N_4  and  C_37
    6  A    between atoms: C_6  and  O_22
    7  A    between atoms: C_8  and  C_12
    8  A    between atoms: C_23  and  C_30
                            x       y       z     vdW  Elec       q    Type
                         _______ _______ _______ _____ _____    ______ ____

>  <TORSDO>
F 8

$$$$
=
 OpenBabel11112417303D

 37 42  0  0  1  0  0  0  0  0999 V2000
  191.3740  175.0960  145.6910 C   0  0  1  0  0  3  0  0  0  0  0  0
  188.4500  174.9650  143.8250 O   0  0  0  0  0  0  0  0  0  0  0  0
  193.8720  174.7830  145.2960 C   0  0  2  0  0  3  0  0  0  0  0  0
  190.7670  175.3440  144.3230 C   0  0  2  0  0  3  0  0  0  0  0  0
  192.4870  174.1040  145.3800 C   0  0  2  0  0  3  0  0  0  0  0  0
  189.3410  175.9310  144.3210 C   0  0  2  0  0  3  0  0  0  0  0  0
  194.0500  175.8190  146.4190 C   0  0  0  0  0  2  0  0  0  0  0  0
  192.0860  173.4640  144.0570 C   0  0  0  0  0  2  0  0  0  0  0  0
  190.8350  176.9490  147.0710 C   0  0  0  0  0  2  0  0  0  0  0  0
  192.8710  176.0010  147.1670 O   0  0  0  0  0  0  0  0  0  0  0  0
  189.1620  175.9800  141.7690 O   0  0  0  0  0  0  0  0  0  0  0  0
  188.2470  175.1270  142.4290 C   0  0  1  0  0  3  0  0  0  0  0  0
  191.8970  176.3410  146.2780 N   0  0  1  0  0  0  0  0  0  0  0  0
  190.8140  174.0560  143.6250 N   0  0  2  0  0  0  0  0  0  0  0  0
  188.8360  176.5180  145.6470 C   0  0  1  0  0  3  0  0  0  0  0  0
  189.3870  174.5990  141.5980 C   0  0  2  0  0  3  0  0  0  0  0  0
  190.7970  174.2870  142.1670 C   0  0  2  0  0  3  0  0  0  0  0  0
  189.7770  177.5890  146.1870 C   0  0  0  0  0  2  0  0  0  0  0  0
  186.4290  176.5940  146.3150 C   0  0  0  0  0  3  0  0  0  0  0  0
  187.4550  177.0820  145.4990 C   0  0  0  0  0  0  0  0  0  0  0  0
  187.1740  178.0810  144.5530 C   0  0  0  0  0  3  0  0  0  0  0  0
  185.6020  179.5720  143.4940 O   0  0  0  0  0  1  0  0  0  0  0  0
  184.8550  178.0940  145.2480 C   0  0  0  0  0  3  0  0  0  0  0  0
  185.8760  178.5850  144.4300 C   0  0  0  0  0  0  0  0  0  0  0  0
  185.1310  177.1000  146.1910 C   0  0  0  0  0  3  0  0  0  0  0  0
  191.3230  173.0630  141.3890 C   0  0  0  0  0  2  0  0  0  0  0  0
  192.5660  173.3080  140.6420 N   0  0  0  0  0  0  0  0  0  0  0  0
  194.4130  171.9970  141.5330 C   0  0  0  0  0  1  0  0  0  0  0  0
  193.3240  172.0740  140.4820 C   0  0  0  0  0  2  0  0  0  0  0  0
  192.2470  173.8230  139.3170 C   0  0  0  0  0  2  0  0  0  0  0  0
  193.5210  174.2170  138.5910 C   0  0  0  0  0  2  0  0  0  0  0  0
  194.1460  175.2680  139.2610 O   0  0  0  0  0  1  0  0  0  0  0  0
  194.0530  175.4290  144.0580 O   0  0  0  0  0  0  0  0  0  0  0  0
  195.3470  175.1280  143.5890 C   0  0  0  0  0  0  0  0  0  0  0  0
  195.8080  173.9350  144.1260 F   0  0  0  0  0  0  0  0  0  0  0  0
  195.3630  175.0550  142.2040 F   0  0  0  0  0  0  0  0  0  0  0  0
  196.2040  176.1370  143.9840 F   0  0  0  0  0  0  0  0  0  0  0  0
  1 13  1  0  0  0  0
  2  6  1  0  0  0  0
  3  5  1  0  0  0  0
  3  7  1  0  0  0  0
  4  1  1  0  0  0  0
  5  1  1  0  0  0  0
  6  4  1  0  0  0  0
  6 15  1  0  0  0  0
  7 10  1  0  0  0  0
  8  5  1  0  0  0  0
 11 12  1  0  0  0  0
 12  2  1  0  0  0  0
 13  9  1  0  0  0  0
 13 10  1  0  0  0  0
 14  8  1  0  0  0  0
 14  4  1  0  0  0  0
 15 18  1  0  0  0  0
 16 11  1  0  0  0  0
 16 17  1  0  0  0  0
 16 12  1  0  0  0  0
 17 14  1  0  0  0  0
 18  9  1  0  0  0  0
 20 15  1  0  0  0  0
 20 19  2  0  0  0  0
 21 20  1  0  0  0  0
 22 24  1  0  0  0  0
 23 25  2  0  0  0  0
 24 21  2  0  0  0  0
 24 23  1  0  0  0  0
 25 19  1  0  0  0  0
 26 17  1  0  0  0  0
 27 26  1  0  0  0  0
 29 27  1  0  0  0  0
 29 28  1  0  0  0  0
 30 27  1  0  0  0  0
 31 32  1  0  0  0  0
 31 30  1  0  0  0  0
 33  3  1  0  0  0  0
 34 37  1  0  0  0  0
 34 33  1  0  0  0  0
 34 35  1  0  0  0  0
 36 34  1  0  0  0  0
M  END
>  <MODEL>
3

>  <REMARK>
 VINA RESULT:      -6.7      1.583      2.312
  Name = 
  8 active torsions:
  status: ('A' for Active; 'I' for Inactive)
    1  A    between atoms: C_1  and  N_4
    2  A    between atoms: C_1  and  C_27
    3  A    between atoms: C_2  and  O_22
    4  A    between atoms: N_4  and  C_12
    5  A    between atoms: N_4  and  C_37
    6  A    between atoms: C_6  and  O_22
    7  A    between atoms: C_8  and  C_12
    8  A    between atoms: C_23  and  C_30
                            x       y       z     vdW  Elec       q    Type
                         _______ _______ _______ _____ _____    ______ ____

>  <TORSDO>
F 8

$$$$
=
 OpenBabel11112417303D

 37 42  0  0  1  0  0  0  0  0999 V2000
  190.3800  173.7110  141.6030 C   0  0  1  0  0  3  0  0  0  0  0  0
  189.7040  177.0620  142.2080 O   0  0  0  0  0  0  0  0  0  0  0  0
  192.0140  171.9430  142.4390 C   0  0  2  0  0  3  0  0  0  0  0  0
  190.3780  174.8030  142.6570 C   0  0  2  0  0  3  0  0  0  0  0  0
  191.8290  173.2420  141.6220 C   0  0  2  0  0  3  0  0  0  0  0  0
  189.2070  175.8030  142.5810 C   0  0  2  0  0  3  0  0  0  0  0  0
  190.8790  170.9440  142.1550 C   0  0  0  0  0  2  0  0  0  0  0  0
  192.6130  174.4040  142.2180 C   0  0  0  0  0  2  0  0  0  0  0  0
  188.1520  172.9360  141.3580 C   0  0  0  0  0  2  0  0  0  0  0  0
  189.8780  171.4950  141.3320 O   0  0  0  0  0  0  0  0  0  0  0  0
  190.0030  177.1770  144.5870 O   0  0  0  0  0  0  0  0  0  0  0  0
  189.9810  177.8610  143.3480 C   0  0  1  0  0  3  0  0  0  0  0  0
  189.4470  172.6290  141.9540 N   0  0  1  0  0  0  0  0  0  0  0  0
  191.6700  175.4860  142.5290 N   0  0  2  0  0  0  0  0  0  0  0  0
  188.0120  175.3990  141.7050 C   0  0  1  0  0  3  0  0  0  0  0  0
  191.2650  177.4840  144.0390 C   0  0  2  0  0  3  0  0  0  0  0  0
  192.0070  176.1410  143.8080 C   0  0  2  0  0  3  0  0  0  0  0  0
  187.4420  174.0460  142.1140 C   0  0  0  0  0  2  0  0  0  0  0  0
  186.6430  177.1660  140.5850 C   0  0  0  0  0  3  0  0  0  0  0  0
  186.9340  176.4400  141.7450 C   0  0  0  0  0  0  0  0  0  0  0  0
  186.2200  176.7030  142.9250 C   0  0  0  0  0  3  0  0  0  0  0  0
  184.5200  177.9410  144.1070 O   0  0  0  0  0  1  0  0  0  0  0  0
  184.9380  178.4050  141.7760 C   0  0  0  0  0  3  0  0  0  0  0  0
  185.2240  177.6830  142.9380 C   0  0  0  0  0  0  0  0  0  0  0  0
  185.6460  178.1460  140.6000 C   0  0  0  0  0  3  0  0  0  0  0  0
  193.5160  176.4490  143.9100 C   0  0  0  0  0  2  0  0  0  0  0  0
  194.1760  175.8600  145.0850 N   0  0  0  0  0  0  0  0  0  0  0  0
  196.0040  174.4110  145.7790 C   0  0  0  0  0  1  0  0  0  0  0  0
  195.5230  175.4170  144.7520 C   0  0  0  0  0  2  0  0  0  0  0  0
  194.2720  176.8570  146.1440 C   0  0  0  0  0  2  0  0  0  0  0  0
  193.2360  176.5790  147.2180 C   0  0  0  0  0  2  0  0  0  0  0  0
  192.7070  175.2990  147.0490 O   0  0  0  0  0  1  0  0  0  0  0  0
  192.0440  172.2060  143.8220 O   0  0  0  0  0  0  0  0  0  0  0  0
  193.1760  171.5700  144.3670 C   0  0  0  0  0  0  0  0  0  0  0  0
  194.2350  171.5830  143.4720 F   0  0  0  0  0  0  0  0  0  0  0  0
  193.5580  172.1770  145.5540 F   0  0  0  0  0  0  0  0  0  0  0  0
  192.8540  170.2530  144.6340 F   0  0  0  0  0  0  0  0  0  0  0  0
  1  5  1  0  0  0  0
  1 13  1  0  0  0  0
  1  4  1  0  0  0  0
  2  6  1  0  0  0  0
  2 12  1  0  0  0  0
  3 33  1  0  0  0  0
  5  8  1  0  0  0  0
  5  3  1  0  0  0  0
  6  4  1  0  0  0  0
  7  3  1  0  0  0  0
  8 14  1  0  0  0  0
  9 13  1  0  0  0  0
  9 18  1  0  0  0  0
 10 13  1  0  0  0  0
 10  7  1  0  0  0  0
 12 16  1  0  0  0  0
 12 11  1  0  0  0  0
 14  4  1  0  0  0  0
 14 17  1  0  0  0  0
 15 20  1  0  0  0  0
 15 18  1  0  0  0  0
 15  6  1  0  0  0  0
 16 11  1  0  0  0  0
 17 26  1  0  0  0  0
 17 16  1  0  0  0  0
 19 25  2  0  0  0  0
 19 20  1  0  0  0  0
 20 21  2  0  0  0  0
 21 24  1  0  0  0  0
 23 24  2  0  0  0  0
 24 22  1  0  0  0  0
 25 23  1  0  0  0  0
 26 27  1  0  0  0  0
 27 30  1  0  0  0  0
 29 27  1  0  0  0  0
 29 28  1  0  0  0  0
 30 31  1  0  0  0  0
 32 31  1  0  0  0  0
 33 34  1  0  0  0  0
 34 37  1  0  0  0  0
 34 36  1  0  0  0  0
 35 34  1  0  0  0  0
M  END
>  <MODEL>
4

>  <REMARK>
 VINA RESULT:      -6.6      2.535      5.332
  Name = 
  8 active torsions:
  status: ('A' for Active; 'I' for Inactive)
    1  A    between atoms: C_1  and  N_4
    2  A    between atoms: C_1  and  C_27
    3  A    between atoms: C_2  and  O_22
    4  A    between atoms: N_4  and  C_12
    5  A    between atoms: N_4  and  C_37
    6  A    between atoms: C_6  and  O_22
    7  A    between atoms: C_8  and  C_12
    8  A    between atoms: C_23  and  C_30
                            x       y       z     vdW  Elec       q    Type
                         _______ _______ _______ _____ _____    ______ ____

>  <TORSDO>
F 8

$$$$
=
 OpenBabel11112417303D

 37 42  0  0  1  0  0  0  0  0999 V2000
  189.6870  174.9950  142.0390 C   0  0  1  0  0  3  0  0  0  0  0  0
  189.7860  176.7050  145.0580 O   0  0  0  0  0  0  0  0  0  0  0  0
  190.7030  172.8810  141.0430 C   0  0  2  0  0  3  0  0  0  0  0  0
  189.8120  174.8440  143.5440 C   0  0  2  0  0  3  0  0  0  0  0  0
  190.9580  174.3230  141.5370 C   0  0  2  0  0  3  0  0  0  0  0  0
  188.9460  175.8020  144.3860 C   0  0  2  0  0  3  0  0  0  0  0  0
  189.4060  172.8000  140.2190 C   0  0  0  0  0  2  0  0  0  0  0  0
  191.9170  174.3560  142.7210 C   0  0  0  0  0  2  0  0  0  0  0  0
  187.3920  175.3030  141.5290 C   0  0  0  0  0  2  0  0  0  0  0  0
  188.6940  174.0150  140.2260 O   0  0  0  0  0  0  0  0  0  0  0  0
  189.7770  174.8870  146.6260 O   0  0  0  0  0  0  0  0  0  0  0  0
  190.0940  176.2410  146.3650 C   0  0  1  0  0  3  0  0  0  0  0  0
  188.4770  174.3290  141.5340 N   0  0  1  0  0  0  0  0  0  0  0  0
  191.2370  175.0090  143.8460 N   0  0  2  0  0  0  0  0  0  0  0  0
  187.8200  176.5410  143.6480 C   0  0  1  0  0  3  0  0  0  0  0  0
  191.1380  175.1550  146.3770 C   0  0  2  0  0  3  0  0  0  0  0  0
  191.5480  174.3380  145.1240 C   0  0  2  0  0  3  0  0  0  0  0  0
  186.8820  175.5750  142.9340 C   0  0  0  0  0  2  0  0  0  0  0  0
  186.5130  178.6200  144.1150 C   0  0  0  0  0  3  0  0  0  0  0  0
  187.0380  177.4120  144.5850 C   0  0  0  0  0  0  0  0  0  0  0  0
  186.8320  177.0390  145.9230 C   0  0  0  0  0  3  0  0  0  0  0  0
  185.9030  177.5010  148.1020 O   0  0  0  0  0  1  0  0  0  0  0  0
  185.5820  179.0780  146.3040 C   0  0  0  0  0  3  0  0  0  0  0  0
  186.1050  177.8710  146.7790 C   0  0  0  0  0  0  0  0  0  0  0  0
  185.7860  179.4510  144.9720 C   0  0  0  0  0  3  0  0  0  0  0  0
  193.0580  174.0490  145.2630 C   0  0  0  0  0  2  0  0  0  0  0  0
  193.9170  175.2340  145.1250 N   0  0  0  0  0  0  0  0  0  0  0  0
  194.2750  177.1030  146.6430 C   0  0  0  0  0  1  0  0  0  0  0  0
  194.4770  175.6180  146.4150 C   0  0  0  0  0  2  0  0  0  0  0  0
  195.0190  174.9380  144.2190 C   0  0  0  0  0  2  0  0  0  0  0  0
  195.2050  176.0790  143.2340 C   0  0  0  0  0  2  0  0  0  0  0  0
  196.3530  176.8030  143.5550 O   0  0  0  0  0  1  0  0  0  0  0  0
  190.6080  171.9780  142.1190 O   0  0  0  0  0  0  0  0  0  0  0  0
  191.3400  170.8200  141.7890 C   0  0  0  0  0  0  0  0  0  0  0  0
  192.1350  171.0340  140.6730 F   0  0  0  0  0  0  0  0  0  0  0  0
  192.1280  170.4170  142.8560 F   0  0  0  0  0  0  0  0  0  0  0  0
  190.4490  169.8060  141.4950 F   0  0  0  0  0  0  0  0  0  0  0  0
  1  4  1  0  0  0  0
  2 12  1  0  0  0  0
  3  5  1  0  0  0  0
  3 33  1  0  0  0  0
  4 14  1  0  0  0  0
  4  6  1  0  0  0  0
  5  1  1  0  0  0  0
  5  8  1  0  0  0  0
  6  2  1  0  0  0  0
  7 10  1  0  0  0  0
  7  3  1  0  0  0  0
  8 14  1  0  0  0  0
  9 13  1  0  0  0  0
  9 18  1  0  0  0  0
 10 13  1  0  0  0  0
 12 16  1  0  0  0  0
 12 11  1  0  0  0  0
 13  1  1  0  0  0  0
 14 17  1  0  0  0  0
 15  6  1  0  0  0  0
 15 20  1  0  0  0  0
 16 11  1  0  0  0  0
 17 26  1  0  0  0  0
 17 16  1  0  0  0  0
 18 15  1  0  0  0  0
 19 20  2  0  0  0  0
 19 25  1  0  0  0  0
 20 21  1  0  0  0  0
 21 24  2  0  0  0  0
 23 24  1  0  0  0  0
 24 22  1  0  0  0  0
 25 23  2  0  0  0  0
 27 26  1  0  0  0  0
 27 29  1  0  0  0  0
 29 28  1  0  0  0  0
 30 27  1  0  0  0  0
 31 32  1  0  0  0  0
 31 30  1  0  0  0  0
 34 33  1  0  0  0  0
 34 36  1  0  0  0  0
 35 34  1  0  0  0  0
 37 34  1  0  0  0  0
M  END
>  <MODEL>
5

>  <REMARK>
 VINA RESULT:      -6.6      2.525      5.496
  Name = 
  8 active torsions:
  status: ('A' for Active; 'I' for Inactive)
    1  A    between atoms: C_1  and  N_4
    2  A    between atoms: C_1  and  C_27
    3  A    between atoms: C_2  and  O_22
    4  A    between atoms: N_4  and  C_12
    5  A    between atoms: N_4  and  C_37
    6  A    between atoms: C_6  and  O_22
    7  A    between atoms: C_8  and  C_12
    8  A    between atoms: C_23  and  C_30
                            x       y       z     vdW  Elec       q    Type
                         _______ _______ _______ _____ _____    ______ ____

>  <TORSDO>
F 8

$$$$
=
 OpenBabel11112417303D

 37 42  0  0  1  0  0  0  0  0999 V2000
  191.1550  174.9880  144.8030 C   0  0  1  0  0  3  0  0  0  0  0  0
  187.9730  175.1650  143.4270 O   0  0  0  0  0  0  0  0  0  0  0  0
  193.5380  174.6050  143.9840 C   0  0  2  0  0  3  0  0  0  0  0  0
  190.3570  175.3930  143.5770 C   0  0  2  0  0  3  0  0  0  0  0  0
  192.1450  173.9820  144.2310 C   0  0  2  0  0  3  0  0  0  0  0  0
  188.9850  176.0390  143.8560 C   0  0  2  0  0  3  0  0  0  0  0  0
  193.9490  175.5200  145.1500 C   0  0  0  0  0  2  0  0  0  0  0  0
  191.5060  173.4900  142.9390 C   0  0  0  0  0  2  0  0  0  0  0  0
  190.9470  176.7220  146.4080 C   0  0  0  0  0  2  0  0  0  0  0  0
  192.9140  175.6810  146.0920 O   0  0  0  0  0  0  0  0  0  0  0  0
  188.4130  176.3400  141.3810 O   0  0  0  0  0  0  0  0  0  0  0  0
  187.5630  175.4680  142.1020 C   0  0  1  0  0  3  0  0  0  0  0  0
  191.8350  176.1470  145.4040 N   0  0  1  0  0  0  0  0  0  0  0  0
  190.2180  174.1760  142.7710 N   0  0  2  0  0  0  0  0  0  0  0  0
  188.7290  176.5180  145.2920 C   0  0  1  0  0  3  0  0  0  0  0  0
  188.5270  174.9730  141.0560 C   0  0  2  0  0  3  0  0  0  0  0  0
  189.9870  174.5460  141.3610 C   0  0  2  0  0  3  0  0  0  0  0  0
  189.8040  177.4900  145.7650 C   0  0  0  0  0  2  0  0  0  0  0  0
  186.4940  176.6890  146.3990 C   0  0  0  0  0  3  0  0  0  0  0  0
  187.3770  177.1540  145.4180 C   0  0  0  0  0  0  0  0  0  0  0  0
  186.9810  178.1970  144.5660 C   0  0  0  0  0  3  0  0  0  0  0  0
  185.3230  179.7990  143.8550 O   0  0  0  0  0  1  0  0  0  0  0  0
  184.8350  178.3000  145.6820 C   0  0  0  0  0  3  0  0  0  0  0  0
  185.7120  178.7680  144.7000 C   0  0  0  0  0  0  0  0  0  0  0  0
  185.2260  177.2620  146.5320 C   0  0  0  0  0  3  0  0  0  0  0  0
  190.3130  173.3790  140.4040 C   0  0  0  0  0  2  0  0  0  0  0  0
  189.6830  173.4880  139.0790 N   0  0  0  0  0  0  0  0  0  0  0  0
  192.0600  173.8270  138.6810 C   0  0  0  0  0  1  0  0  0  0  0  0
  190.6810  173.7650  138.0550 C   0  0  0  0  0  2  0  0  0  0  0  0
  189.0230  172.2320  138.7460 C   0  0  0  0  0  2  0  0  0  0  0  0
  189.8360  171.0620  139.2710 C   0  0  0  0  0  2  0  0  0  0  0  0
  190.3520  170.3240  138.2050 O   0  0  0  0  0  1  0  0  0  0  0  0
  193.5600  175.3570  142.7940 O   0  0  0  0  0  0  0  0  0  0  0  0
  194.8280  175.2030  142.2000 C   0  0  0  0  0  0  0  0  0  0  0  0
  194.7220  175.0830  140.8220 F   0  0  0  0  0  0  0  0  0  0  0  0
  195.6520  176.2740  142.5140 F   0  0  0  0  0  0  0  0  0  0  0  0
  195.4060  174.0480  142.6890 F   0  0  0  0  0  0  0  0  0  0  0  0
  1 13  1  0  0  0  0
  2  6  1  0  0  0  0
  3  5  1  0  0  0  0
  3  7  1  0  0  0  0
  4  6  1  0  0  0  0
  4  1  1  0  0  0  0
  5  1  1  0  0  0  0
  6 15  1  0  0  0  0
  7 10  1  0  0  0  0
  8  5  1  0  0  0  0
 11 12  1  0  0  0  0
 12  2  1  0  0  0  0
 13 10  1  0  0  0  0
 13  9  1  0  0  0  0
 14  8  1  0  0  0  0
 14  4  1  0  0  0  0
 15 20  1  0  0  0  0
 15 18  1  0  0  0  0
 16 17  1  0  0  0  0
 16 11  1  0  0  0  0
 16 12  1  0  0  0  0
 17 14  1  0  0  0  0
 18  9  1  0  0  0  0
 19 25  1  0  0  0  0
 20 19  2  0  0  0  0
 21 24  2  0  0  0  0
 21 20  1  0  0  0  0
 22 24  1  0  0  0  0
 23 25  2  0  0  0  0
 24 23  1  0  0  0  0
 26 17  1  0  0  0  0
 27 26  1  0  0  0  0
 29 28  1  0  0  0  0
 29 27  1  0  0  0  0
 30 27  1  0  0  0  0
 30 31  1  0  0  0  0
 32 31  1  0  0  0  0
 33  3  1  0  0  0  0
 34 36  1  0  0  0  0
 34 37  1  0  0  0  0
 34 33  1  0  0  0  0
 35 34  1  0  0  0  0
M  END
>  <MODEL>
6

>  <REMARK>
 VINA RESULT:      -6.5      1.436      1.703
  Name = 
  8 active torsions:
  status: ('A' for Active; 'I' for Inactive)
    1  A    between atoms: C_1  and  N_4
    2  A    between atoms: C_1  and  C_27
    3  A    between atoms: C_2  and  O_22
    4  A    between atoms: N_4  and  C_12
    5  A    between atoms: N_4  and  C_37
    6  A    between atoms: C_6  and  O_22
    7  A    between atoms: C_8  and  C_12
    8  A    between atoms: C_23  and  C_30
                            x       y       z     vdW  Elec       q    Type
                         _______ _______ _______ _____ _____    ______ ____

>  <TORSDO>
F 8

$$$$
=
 OpenBabel11112417303D

 37 42  0  0  1  0  0  0  0  0999 V2000
  191.7680  175.2440  143.3620 C   0  0  1  0  0  3  0  0  0  0  0  0
  189.2960  175.2210  140.9250 O   0  0  0  0  0  0  0  0  0  0  0  0
  191.9220  175.6070  145.8800 C   0  0  2  0  0  3  0  0  0  0  0  0
  190.3120  174.9240  143.0790 C   0  0  2  0  0  3  0  0  0  0  0  0
  191.6650  176.2520  144.4990 C   0  0  2  0  0  3  0  0  0  0  0  0
  190.0210  174.3010  141.6990 C   0  0  2  0  0  3  0  0  0  0  0  0
  193.1030  174.6230  145.8200 C   0  0  0  0  0  2  0  0  0  0  0  0
  190.2580  176.8260  144.3920 C   0  0  0  0  0  2  0  0  0  0  0  0
  193.0780  173.4370  142.5590 C   0  0  0  0  0  2  0  0  0  0  0  0
  193.5790  174.4420  144.5070 O   0  0  0  0  0  0  0  0  0  0  0  0
  187.4980  174.1410  142.0930 O   0  0  0  0  0  0  0  0  0  0  0  0
  187.8980  174.9970  141.0400 C   0  0  1  0  0  3  0  0  0  0  0  0
  192.5120  174.0400  143.7610 N   0  0  1  0  0  0  0  0  0  0  0  0
  189.5830  176.1840  143.2580 N   0  0  2  0  0  0  0  0  0  0  0  0
  191.2270  173.7560  140.9210 C   0  0  1  0  0  3  0  0  0  0  0  0
  187.3180  175.5190  142.3280 C   0  0  2  0  0  3  0  0  0  0  0  0
  188.1700  175.8910  143.5700 C   0  0  2  0  0  3  0  0  0  0  0  0
  192.0120  172.7340  141.7360 C   0  0  0  0  0  2  0  0  0  0  0  0
  189.9820  172.0180  139.6260 C   0  0  0  0  0  3  0  0  0  0  0  0
  190.8030  173.1500  139.6170 C   0  0  0  0  0  0  0  0  0  0  0  0
  191.2210  173.6930  138.3920 C   0  0  0  0  0  3  0  0  0  0  0  0
  191.2330  173.6450  135.9800 O   0  0  0  0  0  1  0  0  0  0  0  0
  189.9970  171.9750  137.2050 C   0  0  0  0  0  3  0  0  0  0  0  0
  190.8170  173.1060  137.1900 C   0  0  0  0  0  0  0  0  0  0  0  0
  189.5780  171.4320  138.4230 C   0  0  0  0  0  3  0  0  0  0  0  0
  187.4720  177.0970  144.2360 C   0  0  0  0  0  2  0  0  0  0  0  0
  186.1330  176.8030  144.7690 N   0  0  0  0  0  0  0  0  0  0  0  0
  187.3530  177.5590  146.7350 C   0  0  0  0  0  1  0  0  0  0  0  0
  186.1490  176.7910  146.2260 C   0  0  0  0  0  2  0  0  0  0  0  0
  185.1960  177.8290  144.3310 C   0  0  0  0  0  2  0  0  0  0  0  0
  185.9390  178.9400  143.6110 C   0  0  0  0  0  2  0  0  0  0  0  0
  185.5700  180.1780  144.1370 O   0  0  0  0  0  1  0  0  0  0  0  0
  190.7860  174.9160  146.3420 O   0  0  0  0  0  0  0  0  0  0  0  0
  190.4630  175.4060  147.6230 C   0  0  0  0  0  0  0  0  0  0  0  0
  190.5080  176.7920  147.6520 F   0  0  0  0  0  0  0  0  0  0  0  0
  189.2060  174.9710  148.0130 F   0  0  0  0  0  0  0  0  0  0  0  0
  191.3920  174.9250  148.5250 F   0  0  0  0  0  0  0  0  0  0  0  0
  1 13  1  0  0  0  0
  1  5  1  0  0  0  0
  2 12  1  0  0  0  0
  2  6  1  0  0  0  0
  3 33  1  0  0  0  0
  4 14  1  0  0  0  0
  4  1  1  0  0  0  0
  5  3  1  0  0  0  0
  6  4  1  0  0  0  0
  7  3  1  0  0  0  0
  8  5  1  0  0  0  0
  9 13  1  0  0  0  0
 10  7  1  0  0  0  0
 11 16  1  0  0  0  0
 12 11  1  0  0  0  0
 12 16  1  0  0  0  0
 13 10  1  0  0  0  0
 14 17  1  0  0  0  0
 14  8  1  0  0  0  0
 15  6  1  0  0  0  0
 15 18  1  0  0  0  0
 16 17  1  0  0  0  0
 17 26  1  0  0  0  0
 18  9  1  0  0  0  0
 20 19  1  0  0  0  0
 20 15  1  0  0  0  0
 21 20  2  0  0  0  0
 22 24  1  0  0  0  0
 23 25  1  0  0  0  0
 24 23  2  0  0  0  0
 24 21  1  0  0  0  0
 25 19  2  0  0  0  0
 26 27  1  0  0  0  0
 27 29  1  0  0  0  0
 29 28  1  0  0  0  0
 30 27  1  0  0  0  0
 31 32  1  0  0  0  0
 31 30  1  0  0  0  0
 33 34  1  0  0  0  0
 34 35  1  0  0  0  0
 34 36  1  0  0  0  0
 34 37  1  0  0  0  0
M  END
>  <MODEL>
7

>  <REMARK>
 VINA RESULT:      -6.5      2.765      6.759
  Name = 
  8 active torsions:
  status: ('A' for Active; 'I' for Inactive)
    1  A    between atoms: C_1  and  N_4
    2  A    between atoms: C_1  and  C_27
    3  A    between atoms: C_2  and  O_22
    4  A    between atoms: N_4  and  C_12
    5  A    between atoms: N_4  and  C_37
    6  A    between atoms: C_6  and  O_22
    7  A    between atoms: C_8  and  C_12
    8  A    between atoms: C_23  and  C_30
                            x       y       z     vdW  Elec       q    Type
                         _______ _______ _______ _____ _____    ______ ____

>  <TORSDO>
F 8

$$$$
=
 OpenBabel11112417303D

 37 42  0  0  1  0  0  0  0  0999 V2000
  190.7080  173.4700  142.7110 C   0  0  1  0  0  3  0  0  0  0  0  0
  192.2580  174.0680  145.7590 O   0  0  0  0  0  0  0  0  0  0  0  0
  188.7410  174.4040  141.3870 C   0  0  2  0  0  3  0  0  0  0  0  0
  191.0640  174.5360  143.7310 C   0  0  2  0  0  3  0  0  0  0  0  0
  189.1930  173.5940  142.6230 C   0  0  2  0  0  3  0  0  0  0  0  0
  192.4420  174.3840  144.4030 C   0  0  2  0  0  3  0  0  0  0  0  0
  189.5600  174.0180  140.1430 C   0  0  0  0  0  2  0  0  0  0  0  0
  188.7760  174.2650  143.9260 C   0  0  0  0  0  2  0  0  0  0  0  0
  192.6410  173.0420  141.4050 C   0  0  0  0  0  2  0  0  0  0  0  0
  190.6070  173.1290  140.4500 O   0  0  0  0  0  0  0  0  0  0  0  0
  192.1680  176.4640  145.8660 O   0  0  0  0  0  0  0  0  0  0  0  0
  192.2760  175.2380  146.5630 C   0  0  1  0  0  3  0  0  0  0  0  0
  191.3560  173.7310  141.4160 N   0  0  1  0  0  0  0  0  0  0  0  0
  189.9830  174.5180  144.7220 N   0  0  2  0  0  0  0  0  0  0  0  0
  193.4290  173.4120  143.7400 C   0  0  1  0  0  3  0  0  0  0  0  0
  190.9900  176.0200  146.5010 C   0  0  2  0  0  3  0  0  0  0  0  0
  189.9160  175.8280  145.3980 C   0  0  2  0  0  3  0  0  0  0  0  0
  193.6630  173.7560  142.2730 C   0  0  0  0  0  2  0  0  0  0  0  0
  195.5140  174.5460  144.5240 C   0  0  0  0  0  3  0  0  0  0  0  0
  194.7370  173.3840  144.4710 C   0  0  0  0  0  0  0  0  0  0  0  0
  195.1970  172.2130  145.0950 C   0  0  0  0  0  3  0  0  0  0  0  0
  196.8760  171.0510  146.3800 O   0  0  0  0  0  1  0  0  0  0  0  0
  197.1960  173.3750  145.8140 C   0  0  0  0  0  3  0  0  0  0  0  0
  196.4230  172.2100  145.7650 C   0  0  0  0  0  0  0  0  0  0  0  0
  196.7410  174.5420  145.1950 C   0  0  0  0  0  3  0  0  0  0  0  0
  188.5470  176.0520  146.0740 C   0  0  0  0  0  2  0  0  0  0  0  0
  188.0490  177.4330  145.9930 N   0  0  0  0  0  0  0  0  0  0  0  0
  186.5840  178.3080  144.2570 C   0  0  0  0  0  1  0  0  0  0  0  0
  187.9960  177.8810  144.6070 C   0  0  0  0  0  2  0  0  0  0  0  0
  186.7030  177.5020  146.5470 C   0  0  0  0  0  2  0  0  0  0  0  0
  186.6980  178.3660  147.7950 C   0  0  0  0  0  2  0  0  0  0  0  0
  185.8080  179.4280  147.6360 O   0  0  0  0  0  1  0  0  0  0  0  0
  188.8780  175.7880  141.6030 O   0  0  0  0  0  0  0  0  0  0  0  0
  187.7010  176.4220  141.1580 C   0  0  0  0  0  0  0  0  0  0  0  0
  187.8190  177.8020  141.2290 F   0  0  0  0  0  0  0  0  0  0  0  0
  187.4010  176.0440  139.8580 F   0  0  0  0  0  0  0  0  0  0  0  0
  186.6570  176.0370  141.9770 F   0  0  0  0  0  0  0  0  0  0  0  0
  1  4  1  0  0  0  0
  2 12  1  0  0  0  0
  3 33  1  0  0  0  0
  3  5  1  0  0  0  0
  4  6  1  0  0  0  0
  4 14  1  0  0  0  0
  5  1  1  0  0  0  0
  5  8  1  0  0  0  0
  6  2  1  0  0  0  0
  7 10  1  0  0  0  0
  7  3  1  0  0  0  0
  8 14  1  0  0  0  0
  9 13  1  0  0  0  0
  9 18  1  0  0  0  0
 10 13  1  0  0  0  0
 11 16  1  0  0  0  0
 11 12  1  0  0  0  0
 13  1  1  0  0  0  0
 14 17  1  0  0  0  0
 15  6  1  0  0  0  0
 15 20  1  0  0  0  0
 16 12  1  0  0  0  0
 17 26  1  0  0  0  0
 17 16  1  0  0  0  0
 18 15  1  0  0  0  0
 19 25  1  0  0  0  0
 20 19  2  0  0  0  0
 20 21  1  0  0  0  0
 21 24  2  0  0  0  0
 24 23  1  0  0  0  0
 24 22  1  0  0  0  0
 25 23  2  0  0  0  0
 27 26  1  0  0  0  0
 27 30  1  0  0  0  0
 28 29  1  0  0  0  0
 29 27  1  0  0  0  0
 30 31  1  0  0  0  0
 32 31  1  0  0  0  0
 34 35  1  0  0  0  0
 34 33  1  0  0  0  0
 34 37  1  0  0  0  0
 36 34  1  0  0  0  0
M  END
>  <MODEL>
8

>  <REMARK>
 VINA RESULT:      -6.3      3.246      7.921
  Name = 
  8 active torsions:
  status: ('A' for Active; 'I' for Inactive)
    1  A    between atoms: C_1  and  N_4
    2  A    between atoms: C_1  and  C_27
    3  A    between atoms: C_2  and  O_22
    4  A    between atoms: N_4  and  C_12
    5  A    between atoms: N_4  and  C_37
    6  A    between atoms: C_6  and  O_22
    7  A    between atoms: C_8  and  C_12
    8  A    between atoms: C_23  and  C_30
                            x       y       z     vdW  Elec       q    Type
                         _______ _______ _______ _____ _____    ______ ____

>  <TORSDO>
F 8

$$$$
=
 OpenBabel11112417303D

 37 42  0  0  1  0  0  0  0  0999 V2000
  190.2810  175.3750  144.6700 C   0  0  1  0  0  3  0  0  0  0  0  0
  190.0770  174.6660  141.2780 O   0  0  0  0  0  0  0  0  0  0  0  0
  188.8480  176.5160  146.4410 C   0  0  2  0  0  3  0  0  0  0  0  0
  189.3380  175.0340  143.5310 C   0  0  2  0  0  3  0  0  0  0  0  0
  189.7180  176.6960  145.1770 C   0  0  2  0  0  3  0  0  0  0  0  0
  189.8700  174.0140  142.5050 C   0  0  2  0  0  3  0  0  0  0  0  0
  189.4950  175.5220  147.4210 C   0  0  0  0  0  2  0  0  0  0  0  0
  188.9150  177.2570  144.0100 C   0  0  0  0  0  2  0  0  0  0  0  0
  191.2990  173.3590  145.3960 C   0  0  0  0  0  2  0  0  0  0  0  0
  190.6440  174.9140  146.8820 O   0  0  0  0  0  0  0  0  0  0  0  0
  187.7590  174.0810  141.0620 O   0  0  0  0  0  0  0  0  0  0  0  0
  188.9410  174.5410  140.4350 C   0  0  1  0  0  3  0  0  0  0  0  0
  190.2610  174.3340  145.7100 N   0  0  1  0  0  0  0  0  0  0  0  0
  189.0070  176.3110  142.8900 N   0  0  2  0  0  0  0  0  0  0  0  0
  191.1090  173.2060  142.9160 C   0  0  1  0  0  3  0  0  0  0  0  0
  187.8160  175.4680  140.8150 C   0  0  2  0  0  3  0  0  0  0  0  0
  187.7150  176.1860  142.1870 C   0  0  2  0  0  3  0  0  0  0  0  0
  190.8930  172.4690  144.2330 C   0  0  0  0  0  2  0  0  0  0  0  0
  192.6020  172.5190  141.0330 C   0  0  0  0  0  3  0  0  0  0  0  0
  191.5000  172.2320  141.8450 C   0  0  0  0  0  0  0  0  0  0  0  0
  190.7780  171.0460  141.6410 C   0  0  0  0  0  3  0  0  0  0  0  0
  190.4420  168.9850  140.4330 O   0  0  0  0  0  1  0  0  0  0  0  0
  192.2600  170.4490  139.8230 C   0  0  0  0  0  3  0  0  0  0  0  0
  191.1590  170.1570  140.6330 C   0  0  0  0  0  0  0  0  0  0  0  0
  192.9820  171.6280  140.0240 C   0  0  0  0  0  3  0  0  0  0  0  0
  187.0780  177.5650  141.9150 C   0  0  0  0  0  2  0  0  0  0  0  0
  185.9760  177.9130  142.8250 N   0  0  0  0  0  0  0  0  0  0  0  0
  185.0440  179.6190  144.2890 C   0  0  0  0  0  1  0  0  0  0  0  0
  186.0090  179.3310  143.1560 C   0  0  0  0  0  2  0  0  0  0  0  0
  184.7000  177.6230  142.1830 C   0  0  0  0  0  2  0  0  0  0  0  0
  184.6400  178.2910  140.8200 C   0  0  0  0  0  2  0  0  0  0  0  0
  183.3220  178.6270  140.5130 O   0  0  0  0  0  1  0  0  0  0  0  0
  187.5600  176.0500  146.1160 O   0  0  0  0  0  0  0  0  0  0  0  0
  186.6170  176.8940  146.7350 C   0  0  0  0  0  0  0  0  0  0  0  0
  187.1010  178.1890  146.8440 F   0  0  0  0  0  0  0  0  0  0  0  0
  185.4230  176.8990  146.0300 F   0  0  0  0  0  0  0  0  0  0  0  0
  186.3700  176.4180  148.0090 F   0  0  0  0  0  0  0  0  0  0  0  0
  1  5  1  0  0  0  0
  1 13  1  0  0  0  0
  2  6  1  0  0  0  0
  3  7  1  0  0  0  0
  4  1  1  0  0  0  0
  5  3  1  0  0  0  0
  6 15  1  0  0  0  0
  6  4  1  0  0  0  0
  8  5  1  0  0  0  0
  9 13  1  0  0  0  0
 10  7  1  0  0  0  0
 12 16  1  0  0  0  0
 12 11  1  0  0  0  0
 12  2  1  0  0  0  0
 13 10  1  0  0  0  0
 14  4  1  0  0  0  0
 14  8  1  0  0  0  0
 15 18  1  0  0  0  0
 16 11  1  0  0  0  0
 16 17  1  0  0  0  0
 17 14  1  0  0  0  0
 18  9  1  0  0  0  0
 19 20  1  0  0  0  0
 20 15  1  0  0  0  0
 21 20  2  0  0  0  0
 22 24  1  0  0  0  0
 23 25  1  0  0  0  0
 23 24  2  0  0  0  0
 24 21  1  0  0  0  0
 25 19  2  0  0  0  0
 26 17  1  0  0  0  0
 26 27  1  0  0  0  0
 27 29  1  0  0  0  0
 29 28  1  0  0  0  0
 30 27  1  0  0  0  0
 31 30  1  0  0  0  0
 32 31  1  0  0  0  0
 33  3  1  0  0  0  0
 33 34  1  0  0  0  0
 34 35  1  0  0  0  0
 34 37  1  0  0  0  0
 36 34  1  0  0  0  0
M  END
>  <MODEL>
9

>  <REMARK>
 VINA RESULT:      -6.3      3.614      7.226
  Name = 
  8 active torsions:
  status: ('A' for Active; 'I' for Inactive)
    1  A    between atoms: C_1  and  N_4
    2  A    between atoms: C_1  and  C_27
    3  A    between atoms: C_2  and  O_22
    4  A    between atoms: N_4  and  C_12
    5  A    between atoms: N_4  and  C_37
    6  A    between atoms: C_6  and  O_22
    7  A    between atoms: C_8  and  C_12
    8  A    between atoms: C_23  and  C_30
                            x       y       z     vdW  Elec       q    Type
                         _______ _______ _______ _____ _____    ______ ____

>  <TORSDO>
F 8

$$$$
