=
 OpenBabel11112416593D

 31 35  0  0  0  0  0  0  0  0999 V2000
  184.4080  178.5240  146.3070 C   0  0  0  0  0  0  0  0  0  0  0  0
  186.9680  177.4600  143.7710 C   0  0  0  0  0  0  0  0  0  0  0  0
  186.3690  177.6230  142.4950 C   0  0  0  0  0  0  0  0  0  0  0  0
  190.6100  176.2850  147.3780 O   0  0  0  0  0  0  0  0  0  0  0  0
  191.0880  176.0550  146.2350 C   0  0  0  0  0  0  0  0  0  0  0  0
  184.5190  178.2410  141.1210 C   0  0  0  0  0  0  0  0  0  0  0  0
  186.3220  177.7570  145.0030 C   0  0  0  0  0  0  0  0  0  0  0  0
  185.1170  178.3180  147.4910 C   0  0  0  0  0  3  0  0  0  0  0  0
  185.0950  178.0850  142.3440 N   0  0  0  0  0  0  0  0  0  0  0  0
  188.9490  176.7890  145.0390 C   0  0  0  0  0  0  0  0  0  0  0  0
  183.1390  178.9950  146.3520 F   0  0  0  0  0  0  0  0  0  0  0  0
  188.3790  176.8320  141.4610 N   0  0  0  0  0  0  0  0  0  0  0  0
  183.2500  178.7050  141.0260 F   0  0  0  0  0  0  0  0  0  0  0  0
  188.3010  177.0820  146.1950 N   0  0  0  0  0  0  0  0  0  0  0  0
  188.2980  176.9710  143.8100 C   0  0  0  0  0  0  0  0  0  0  0  0
  190.2950  176.2930  145.0620 N   0  0  0  0  0  2  0  0  0  0  0  0
  185.0060  178.2460  145.0760 C   0  0  0  0  0  3  0  0  0  0  0  0
  185.2330  177.9240  139.9650 C   0  0  0  0  0  3  0  0  0  0  0  0
  187.0290  177.5520  146.2140 C   0  0  0  0  0  0  0  0  0  0  0  0
  186.4250  177.8320  147.4440 C   0  0  0  0  0  3  0  0  0  0  0  0
  188.9510  176.6770  142.6540 N   0  0  0  0  0  0  0  0  0  0  0  0
  187.1130  177.2940  141.3430 C   0  0  0  0  0  0  0  0  0  0  0  0
  186.5380  177.4470  140.0810 C   0  0  0  0  0  3  0  0  0  0  0  0
  195.1260  174.6450  145.8470 C   0  0  0  0  0  0  0  0  0  0  0  0
  193.5400  176.3470  146.5010 C   0  0  0  0  0  3  0  0  0  0  0  0
  191.7320  173.4160  145.1190 O   0  0  0  0  0  1  0  0  0  0  0  0
  196.4050  174.2150  145.7320 F   0  0  0  0  0  0  0  0  0  0  0  0
  194.8590  175.9040  146.3820 C   0  0  0  0  0  3  0  0  0  0  0  0
  192.7500  174.2620  145.5460 C   0  0  0  0  0  0  0  0  0  0  0  0
  192.4690  175.5380  146.0870 C   0  0  0  0  0  0  0  0  0  0  0  0
  194.0740  173.8270  145.4300 C   0  0  0  0  0  3  0  0  0  0  0  0
  1 11  1  0  0  0  0
  1  8  1  0  0  0  0
  2 15  1  0  0  0  0
  2  7  1  0  0  0  0
  3  2  2  0  0  0  0
  5  4  2  0  0  0  0
  6  9  2  0  0  0  0
  7 17  1  0  0  0  0
  7 19  2  0  0  0  0
  9  3  1  0  0  0  0
 10 16  1  0  0  0  0
 10 14  2  0  0  0  0
 12 21  1  0  0  0  0
 13  6  1  0  0  0  0
 14 19  1  0  0  0  0
 15 10  1  0  0  0  0
 16  5  1  0  0  0  0
 17  1  2  0  0  0  0
 18 23  2  0  0  0  0
 18  6  1  0  0  0  0
 19 20  1  0  0  0  0
 20  8  2  0  0  0  0
 21 15  2  0  0  0  0
 22 12  2  0  0  0  0
 22  3  1  0  0  0  0
 23 22  1  0  0  0  0
 24 28  1  0  0  0  0
 26 29  1  0  0  0  0
 27 24  1  0  0  0  0
 28 25  2  0  0  0  0
 29 30  2  0  0  0  0
 30  5  1  0  0  0  0
 30 25  1  0  0  0  0
 31 29  1  0  0  0  0
 31 24  2  0  0  0  0
M  END
>  <MODEL>
1

>  <REMARK>
 VINA RESULT:     -10.2      0.000      0.000
  Name = 
  1 active torsions:
  status: ('A' for Active; 'I' for Inactive)
    1  A    between atoms: C_5  and  C_30
                            x       y       z     vdW  Elec       q    Type
                         _______ _______ _______ _____ _____    ______ ____

>  <TORSDO>
F 1

$$$$
=
 OpenBabel11112416593D

 31 35  0  0  0  0  0  0  0  0999 V2000
  184.9480  178.0460  146.8640 C   0  0  0  0  0  0  0  0  0  0  0  0
  186.9030  177.6790  143.6770 C   0  0  0  0  0  0  0  0  0  0  0  0
  185.9830  177.8610  142.6120 C   0  0  0  0  0  0  0  0  0  0  0  0
  191.4670  176.7860  146.1320 O   0  0  0  0  0  0  0  0  0  0  0  0
  191.6660  176.7520  144.8880 C   0  0  0  0  0  0  0  0  0  0  0  0
  183.7780  178.2910  141.8090 C   0  0  0  0  0  0  0  0  0  0  0  0
  186.5550  177.7420  145.0550 C   0  0  0  0  0  0  0  0  0  0  0  0
  185.9550  177.8480  147.8090 C   0  0  0  0  0  3  0  0  0  0  0  0
  184.6600  178.1150  142.8290 N   0  0  0  0  0  0  0  0  0  0  0  0
  189.2130  177.2290  144.3400 C   0  0  0  0  0  0  0  0  0  0  0  0
  183.6790  178.2910  147.2700 F   0  0  0  0  0  0  0  0  0  0  0  0
  187.7540  177.5230  141.0370 N   0  0  0  0  0  0  0  0  0  0  0  0
  182.4740  178.5420  142.0790 F   0  0  0  0  0  0  0  0  0  0  0  0
  188.8450  177.2960  145.6440 N   0  0  0  0  0  0  0  0  0  0  0  0
  188.2540  177.4180  143.3350 C   0  0  0  0  0  0  0  0  0  0  0  0
  190.5770  176.9660  143.9780 N   0  0  0  0  0  2  0  0  0  0  0  0
  185.2460  177.9940  145.5010 C   0  0  0  0  0  3  0  0  0  0  0  0
  184.2120  178.2110  140.4850 C   0  0  0  0  0  3  0  0  0  0  0  0
  187.5680  177.5410  146.0260 C   0  0  0  0  0  0  0  0  0  0  0  0
  187.2630  177.5960  147.3890 C   0  0  0  0  0  3  0  0  0  0  0  0
  188.6260  177.3510  142.0290 N   0  0  0  0  0  0  0  0  0  0  0  0
  186.4480  177.7750  141.2830 C   0  0  0  0  0  0  0  0  0  0  0  0
  185.5570  177.9520  140.2250 C   0  0  0  0  0  3  0  0  0  0  0  0
  195.6370  176.0400  143.4140 C   0  0  0  0  0  0  0  0  0  0  0  0
  194.1360  176.9000  145.1020 C   0  0  0  0  0  3  0  0  0  0  0  0
  192.1760  175.4180  142.3220 O   0  0  0  0  0  1  0  0  0  0  0  0
  196.8960  175.8230  142.9640 F   0  0  0  0  0  0  0  0  0  0  0  0
  195.4340  176.6770  144.6380 C   0  0  0  0  0  3  0  0  0  0  0  0
  193.2380  175.8460  143.1110 C   0  0  0  0  0  0  0  0  0  0  0  0
  193.0230  176.4910  144.3510 C   0  0  0  0  0  0  0  0  0  0  0  0
  194.5420  175.6270  142.6540 C   0  0  0  0  0  3  0  0  0  0  0  0
  1 11  1  0  0  0  0
  1  8  1  0  0  0  0
  2  7  1  0  0  0  0
  3  9  1  0  0  0  0
  3  2  2  0  0  0  0
  5  4  2  0  0  0  0
  6 13  1  0  0  0  0
  6  9  2  0  0  0  0
  7 17  1  0  0  0  0
  7 19  2  0  0  0  0
 10 14  2  0  0  0  0
 12 22  2  0  0  0  0
 12 21  1  0  0  0  0
 14 19  1  0  0  0  0
 15  2  1  0  0  0  0
 15 10  1  0  0  0  0
 16 10  1  0  0  0  0
 16  5  1  0  0  0  0
 17  1  2  0  0  0  0
 18  6  1  0  0  0  0
 19 20  1  0  0  0  0
 20  8  2  0  0  0  0
 21 15  2  0  0  0  0
 22  3  1  0  0  0  0
 23 18  2  0  0  0  0
 23 22  1  0  0  0  0
 24 28  1  0  0  0  0
 26 29  1  0  0  0  0
 27 24  1  0  0  0  0
 28 25  2  0  0  0  0
 29 30  2  0  0  0  0
 30  5  1  0  0  0  0
 30 25  1  0  0  0  0
 31 29  1  0  0  0  0
 31 24  2  0  0  0  0
M  END
>  <MODEL>
2

>  <REMARK>
 VINA RESULT:      -9.8      1.611      1.643
  Name = 
  1 active torsions:
  status: ('A' for Active; 'I' for Inactive)
    1  A    between atoms: C_5  and  C_30
                            x       y       z     vdW  Elec       q    Type
                         _______ _______ _______ _____ _____    ______ ____

>  <TORSDO>
F 1

$$$$
=
 OpenBabel11112416593D

 31 35  0  0  0  0  0  0  0  0999 V2000
  185.6060  177.8190  141.0890 C   0  0  0  0  0  0  0  0  0  0  0  0
  187.3130  177.4020  144.4090 C   0  0  0  0  0  0  0  0  0  0  0  0
  186.3830  177.8110  145.4000 C   0  0  0  0  0  0  0  0  0  0  0  0
  191.7900  175.6090  142.3110 O   0  0  0  0  0  0  0  0  0  0  0  0
  191.9180  175.6430  143.5650 C   0  0  0  0  0  0  0  0  0  0  0  0
  184.2390  178.6450  146.0320 C   0  0  0  0  0  0  0  0  0  0  0  0
  187.0500  177.4090  143.0110 C   0  0  0  0  0  0  0  0  0  0  0  0
  186.6130  177.3900  140.2250 C   0  0  0  0  0  3  0  0  0  0  0  0
  185.1320  178.2540  145.0830 N   0  0  0  0  0  0  0  0  0  0  0  0
  189.5500  176.5430  143.9240 C   0  0  0  0  0  0  0  0  0  0  0  0
  184.4150  178.2280  140.5890 F   0  0  0  0  0  0  0  0  0  0  0  0
  187.9950  177.3240  147.1020 N   0  0  0  0  0  0  0  0  0  0  0  0
  183.0090  179.0770  145.6640 F   0  0  0  0  0  0  0  0  0  0  0  0
  189.2640  176.5630  142.5980 N   0  0  0  0  0  0  0  0  0  0  0  0
  188.5850  176.9600  144.8520 C   0  0  0  0  0  0  0  0  0  0  0  0
  190.8340  176.0970  144.3880 N   0  0  0  0  0  2  0  0  0  0  0  0
  185.8230  177.8280  142.4680 C   0  0  0  0  0  3  0  0  0  0  0  0
  184.5880  178.6040  147.3820 C   0  0  0  0  0  3  0  0  0  0  0  0
  188.0640  176.9760  142.1210 C   0  0  0  0  0  0  0  0  0  0  0  0
  187.8400  176.9700  140.7410 C   0  0  0  0  0  3  0  0  0  0  0  0
  188.8760  176.9380  146.1800 N   0  0  0  0  0  0  0  0  0  0  0  0
  186.7610  177.7590  146.7570 C   0  0  0  0  0  0  0  0  0  0  0  0
  185.8580  178.1570  147.7430 C   0  0  0  0  0  3  0  0  0  0  0  0
  195.6330  174.4920  145.3870 C   0  0  0  0  0  0  0  0  0  0  0  0
  194.2700  176.1070  144.2140 C   0  0  0  0  0  3  0  0  0  0  0  0
  192.3090  173.0160  144.8180 O   0  0  0  0  0  1  0  0  0  0  0  0
  196.8110  174.1450  145.9580 F   0  0  0  0  0  0  0  0  0  0  0  0
  195.4850  175.7490  144.8020 C   0  0  0  0  0  3  0  0  0  0  0  0
  193.3450  173.9430  144.7980 C   0  0  0  0  0  0  0  0  0  0  0  0
  193.1860  175.2150  144.2020 C   0  0  0  0  0  0  0  0  0  0  0  0
  194.5660  173.5920  145.3850 C   0  0  0  0  0  3  0  0  0  0  0  0
  1 17  1  0  0  0  0
  2 15  2  0  0  0  0
  2  3  1  0  0  0  0
  3 22  1  0  0  0  0
  4  5  2  0  0  0  0
  5 30  1  0  0  0  0
  5 16  1  0  0  0  0
  6 18  2  0  0  0  0
  7  2  1  0  0  0  0
  8 20  1  0  0  0  0
  8  1  2  0  0  0  0
  9  3  2  0  0  0  0
  9  6  1  0  0  0  0
 10 16  1  0  0  0  0
 10 15  1  0  0  0  0
 11  1  1  0  0  0  0
 13  6  1  0  0  0  0
 14 10  2  0  0  0  0
 15 21  1  0  0  0  0
 17  7  2  0  0  0  0
 18 23  1  0  0  0  0
 19 14  1  0  0  0  0
 19  7  1  0  0  0  0
 20 19  2  0  0  0  0
 21 12  2  0  0  0  0
 22 12  1  0  0  0  0
 22 23  2  0  0  0  0
 24 27  1  0  0  0  0
 25 28  1  0  0  0  0
 28 24  2  0  0  0  0
 29 26  1  0  0  0  0
 29 31  2  0  0  0  0
 30 25  2  0  0  0  0
 30 29  1  0  0  0  0
 31 24  1  0  0  0  0
M  END
>  <MODEL>
3

>  <REMARK>
 VINA RESULT:      -9.4      1.460      4.095
  Name = 
  1 active torsions:
  status: ('A' for Active; 'I' for Inactive)
    1  A    between atoms: C_5  and  C_30
                            x       y       z     vdW  Elec       q    Type
                         _______ _______ _______ _____ _____    ______ ____

>  <TORSDO>
F 1

$$$$
=
 OpenBabel11112416593D

 31 35  0  0  0  0  0  0  0  0999 V2000
  190.4350  177.1490  147.2510 C   0  0  0  0  0  0  0  0  0  0  0  0
  187.9300  176.7270  144.4820 C   0  0  0  0  0  0  0  0  0  0  0  0
  186.7860  177.4800  144.8520 C   0  0  0  0  0  0  0  0  0  0  0  0
  191.0490  173.6060  141.6200 O   0  0  0  0  0  0  0  0  0  0  0  0
  189.9600  173.7620  141.0040 C   0  0  0  0  0  0  0  0  0  0  0  0
  185.6260  178.9050  146.3740 C   0  0  0  0  0  0  0  0  0  0  0  0
  189.1110  176.6270  145.2700 C   0  0  0  0  0  0  0  0  0  0  0  0
  191.4890  176.3730  146.7660 C   0  0  0  0  0  3  0  0  0  0  0  0
  186.7230  178.1830  146.0190 N   0  0  0  0  0  0  0  0  0  0  0  0
  188.9840  175.2730  142.8230 C   0  0  0  0  0  0  0  0  0  0  0  0
  190.5540  177.7820  148.4420 F   0  0  0  0  0  0  0  0  0  0  0  0
  185.7050  176.8150  142.8210 N   0  0  0  0  0  0  0  0  0  0  0  0
  185.6150  179.5860  147.5440 F   0  0  0  0  0  0  0  0  0  0  0  0
  190.0940  175.2000  143.6000 N   0  0  0  0  0  0  0  0  0  0  0  0
  187.8850  176.0340  143.2470 C   0  0  0  0  0  0  0  0  0  0  0  0
  188.9230  174.5770  141.5690 N   0  0  0  0  0  2  0  0  0  0  0  0
  189.2590  177.2740  146.5090 C   0  0  0  0  0  3  0  0  0  0  0  0
  184.5120  178.9450  145.5350 C   0  0  0  0  0  3  0  0  0  0  0  0
  190.1900  175.8420  144.7910 C   0  0  0  0  0  0  0  0  0  0  0  0
  191.3650  175.7210  145.5370 C   0  0  0  0  0  3  0  0  0  0  0  0
  186.7750  176.1050  142.4650 N   0  0  0  0  0  0  0  0  0  0  0  0
  185.6730  177.5030  143.9860 C   0  0  0  0  0  0  0  0  0  0  0  0
  184.5390  178.2370  144.3340 C   0  0  0  0  0  3  0  0  0  0  0  0
  189.2940  171.9570  137.1640 C   0  0  0  0  0  0  0  0  0  0  0  0
  189.3180  173.8940  138.6090 C   0  0  0  0  0  3  0  0  0  0  0  0
  190.3540  170.8910  140.5260 O   0  0  0  0  0  1  0  0  0  0  0  0
  189.0790  171.4030  135.9470 F   0  0  0  0  0  0  0  0  0  0  0  0
  189.0960  173.3240  137.3540 C   0  0  0  0  0  3  0  0  0  0  0  0
  189.9380  171.7220  139.4910 C   0  0  0  0  0  0  0  0  0  0  0  0
  189.7400  173.1080  139.6930 C   0  0  0  0  0  0  0  0  0  0  0  0
  189.7130  171.1590  138.2310 C   0  0  0  0  0  3  0  0  0  0  0  0
  1 11  1  0  0  0  0
  2  3  1  0  0  0  0
  2  7  1  0  0  0  0
  3  9  1  0  0  0  0
  5 16  1  0  0  0  0
  5  4  2  0  0  0  0
  6 13  1  0  0  0  0
  7 17  1  0  0  0  0
  8  1  1  0  0  0  0
  9  6  2  0  0  0  0
 10 15  1  0  0  0  0
 10 14  2  0  0  0  0
 12 22  1  0  0  0  0
 14 19  1  0  0  0  0
 15  2  2  0  0  0  0
 16 10  1  0  0  0  0
 17  1  2  0  0  0  0
 18  6  1  0  0  0  0
 19  7  2  0  0  0  0
 19 20  1  0  0  0  0
 20  8  2  0  0  0  0
 21 12  2  0  0  0  0
 21 15  1  0  0  0  0
 22 23  1  0  0  0  0
 22  3  2  0  0  0  0
 23 18  2  0  0  0  0
 24 28  2  0  0  0  0
 24 31  1  0  0  0  0
 25 30  2  0  0  0  0
 27 24  1  0  0  0  0
 28 25  1  0  0  0  0
 29 30  1  0  0  0  0
 29 26  1  0  0  0  0
 30  5  1  0  0  0  0
 31 29  2  0  0  0  0
M  END
>  <MODEL>
4

>  <REMARK>
 VINA RESULT:      -9.0      4.015      6.249
  Name = 
  1 active torsions:
  status: ('A' for Active; 'I' for Inactive)
    1  A    between atoms: C_5  and  C_30
                            x       y       z     vdW  Elec       q    Type
                         _______ _______ _______ _____ _____    ______ ____

>  <TORSDO>
F 1

$$$$
=
 OpenBabel11112416593D

 31 35  0  0  0  0  0  0  0  0999 V2000
  190.6850  177.1650  147.6310 C   0  0  0  0  0  0  0  0  0  0  0  0
  188.2250  176.4820  144.8750 C   0  0  0  0  0  0  0  0  0  0  0  0
  187.0810  177.2770  145.1450 C   0  0  0  0  0  0  0  0  0  0  0  0
  191.3620  173.0590  142.4050 O   0  0  0  0  0  0  0  0  0  0  0  0
  190.2860  173.1590  141.7560 C   0  0  0  0  0  0  0  0  0  0  0  0
  185.9090  178.8600  146.4920 C   0  0  0  0  0  0  0  0  0  0  0  0
  189.3910  176.4530  145.6900 C   0  0  0  0  0  0  0  0  0  0  0  0
  191.7390  176.3350  147.2470 C   0  0  0  0  0  3  0  0  0  0  0  0
  187.0050  178.0960  146.2330 N   0  0  0  0  0  0  0  0  0  0  0  0
  189.2920  174.8560  143.3930 C   0  0  0  0  0  0  0  0  0  0  0  0
  190.7900  177.9150  148.7540 F   0  0  0  0  0  0  0  0  0  0  0  0
  186.0290  176.4160  143.1740 N   0  0  0  0  0  0  0  0  0  0  0  0
  185.8850  179.6570  147.5860 F   0  0  0  0  0  0  0  0  0  0  0  0
  190.3880  174.8550  144.1940 N   0  0  0  0  0  0  0  0  0  0  0  0
  188.1940  175.6660  143.7160 C   0  0  0  0  0  0  0  0  0  0  0  0
  189.2470  174.0360  142.2160 N   0  0  0  0  0  2  0  0  0  0  0  0
  189.5240  177.2230  146.8590 C   0  0  0  0  0  3  0  0  0  0  0  0
  184.8100  178.8220  145.6330 C   0  0  0  0  0  3  0  0  0  0  0  0
  190.4690  175.6150  145.3140 C   0  0  0  0  0  0  0  0  0  0  0  0
  191.6300  175.5620  146.0900 C   0  0  0  0  0  3  0  0  0  0  0  0
  187.0980  175.6650  142.9120 N   0  0  0  0  0  0  0  0  0  0  0  0
  185.9840  177.2200  144.2610 C   0  0  0  0  0  0  0  0  0  0  0  0
  184.8510  177.9950  144.5110 C   0  0  0  0  0  3  0  0  0  0  0  0
  189.7450  170.8120  138.2000 C   0  0  0  0  0  0  0  0  0  0  0  0
  190.6080  171.0760  140.4430 C   0  0  0  0  0  3  0  0  0  0  0  0
  188.8330  174.1670  139.4120 O   0  0  0  0  0  1  0  0  0  0  0  0
  189.5830  170.0590  137.0870 F   0  0  0  0  0  0  0  0  0  0  0  0
  190.4420  170.3000  139.2940 C   0  0  0  0  0  3  0  0  0  0  0  0
  189.3770  172.8880  139.4010 C   0  0  0  0  0  0  0  0  0  0  0  0
  190.0810  172.3760  140.5150 C   0  0  0  0  0  0  0  0  0  0  0  0
  189.2150  172.1030  138.2540 C   0  0  0  0  0  3  0  0  0  0  0  0
  1 11  1  0  0  0  0
  2  3  1  0  0  0  0
  2  7  1  0  0  0  0
  3  9  1  0  0  0  0
  5 16  1  0  0  0  0
  5  4  2  0  0  0  0
  6 13  1  0  0  0  0
  7 17  1  0  0  0  0
  8  1  1  0  0  0  0
  9  6  2  0  0  0  0
 10 15  1  0  0  0  0
 10 14  2  0  0  0  0
 12 22  1  0  0  0  0
 14 19  1  0  0  0  0
 15  2  2  0  0  0  0
 16 10  1  0  0  0  0
 17  1  2  0  0  0  0
 18  6  1  0  0  0  0
 19  7  2  0  0  0  0
 19 20  1  0  0  0  0
 20  8  2  0  0  0  0
 21 12  2  0  0  0  0
 21 15  1  0  0  0  0
 22 23  1  0  0  0  0
 22  3  2  0  0  0  0
 23 18  2  0  0  0  0
 24 31  2  0  0  0  0
 24 28  1  0  0  0  0
 25 30  1  0  0  0  0
 27 24  1  0  0  0  0
 28 25  2  0  0  0  0
 29 26  1  0  0  0  0
 29 30  2  0  0  0  0
 30  5  1  0  0  0  0
 31 29  1  0  0  0  0
M  END
>  <MODEL>
5

>  <REMARK>
 VINA RESULT:      -8.7      4.291      6.136
  Name = 
  1 active torsions:
  status: ('A' for Active; 'I' for Inactive)
    1  A    between atoms: C_5  and  C_30
                            x       y       z     vdW  Elec       q    Type
                         _______ _______ _______ _____ _____    ______ ____

>  <TORSDO>
F 1

$$$$
=
 OpenBabel11112416593D

 31 35  0  0  0  0  0  0  0  0999 V2000
  195.0770  174.0690  145.4540 C   0  0  0  0  0  0  0  0  0  0  0  0
  191.6500  173.3380  144.0970 C   0  0  0  0  0  0  0  0  0  0  0  0
  191.7520  172.1270  143.3650 C   0  0  0  0  0  0  0  0  0  0  0  0
  189.4780  177.6320  146.2190 O   0  0  0  0  0  0  0  0  0  0  0  0
  188.5880  177.0000  145.5880 C   0  0  0  0  0  0  0  0  0  0  0  0
  193.0270  170.2850  142.5450 C   0  0  0  0  0  0  0  0  0  0  0  0
  192.7370  173.9600  144.7720 C   0  0  0  0  0  0  0  0  0  0  0  0
  194.8340  175.2600  146.1380 C   0  0  0  0  0  3  0  0  0  0  0  0
  192.9280  171.4460  143.2460 N   0  0  0  0  0  0  0  0  0  0  0  0
  190.2090  175.1600  144.8610 C   0  0  0  0  0  0  0  0  0  0  0  0
  196.3210  173.5340  145.4460 F   0  0  0  0  0  0  0  0  0  0  0  0
  189.4210  172.2610  142.8370 N   0  0  0  0  0  0  0  0  0  0  0  0
  194.2190  169.6470  142.4570 F   0  0  0  0  0  0  0  0  0  0  0  0
  191.2690  175.7250  145.4930 N   0  0  0  0  0  0  0  0  0  0  0  0
  190.3780  173.9610  144.1540 C   0  0  0  0  0  0  0  0  0  0  0  0
  188.9150  175.7790  144.9100 N   0  0  0  0  0  2  0  0  0  0  0  0
  194.0370  173.4260  144.7790 C   0  0  0  0  0  3  0  0  0  0  0  0
  191.9040  169.7490  141.9140 C   0  0  0  0  0  3  0  0  0  0  0  0
  192.5070  175.1710  145.4700 C   0  0  0  0  0  0  0  0  0  0  0  0
  193.5510  175.8100  146.1450 C   0  0  0  0  0  3  0  0  0  0  0  0
  189.3140  173.3980  143.5210 N   0  0  0  0  0  0  0  0  0  0  0  0
  190.6010  171.6070  142.7370 C   0  0  0  0  0  0  0  0  0  0  0  0
  190.6840  170.4180  142.0130 C   0  0  0  0  0  3  0  0  0  0  0  0
  184.5770  178.5200  145.3660 C   0  0  0  0  0  0  0  0  0  0  0  0
  186.8090  178.3170  144.4610 C   0  0  0  0  0  3  0  0  0  0  0  0
  186.5680  176.4160  147.6380 O   0  0  0  0  0  1  0  0  0  0  0  0
  183.3170  179.0080  145.2810 F   0  0  0  0  0  0  0  0  0  0  0  0
  185.5090  178.8190  144.3730 C   0  0  0  0  0  3  0  0  0  0  0  0
  186.2440  177.2100  146.5440 C   0  0  0  0  0  0  0  0  0  0  0  0
  187.1960  177.5080  145.5420 C   0  0  0  0  0  0  0  0  0  0  0  0
  184.9450  177.7190  146.4480 C   0  0  0  0  0  3  0  0  0  0  0  0
  1  8  1  0  0  0  0
  2 15  1  0  0  0  0
  2  7  1  0  0  0  0
  3  2  2  0  0  0  0
  5  4  2  0  0  0  0
  6  9  2  0  0  0  0
  7 17  1  0  0  0  0
  7 19  2  0  0  0  0
  8 20  2  0  0  0  0
  9  3  1  0  0  0  0
 10 16  1  0  0  0  0
 10 14  2  0  0  0  0
 11  1  1  0  0  0  0
 12 21  1  0  0  0  0
 13  6  1  0  0  0  0
 15 10  1  0  0  0  0
 16  5  1  0  0  0  0
 17  1  2  0  0  0  0
 18 23  2  0  0  0  0
 18  6  1  0  0  0  0
 19 14  1  0  0  0  0
 19 20  1  0  0  0  0
 21 15  2  0  0  0  0
 22 12  2  0  0  0  0
 22  3  1  0  0  0  0
 23 22  1  0  0  0  0
 24 31  1  0  0  0  0
 25 30  2  0  0  0  0
 27 24  1  0  0  0  0
 28 25  1  0  0  0  0
 28 24  2  0  0  0  0
 29 26  1  0  0  0  0
 30  5  1  0  0  0  0
 30 29  1  0  0  0  0
 31 29  2  0  0  0  0
M  END
>  <MODEL>
6

>  <REMARK>
 VINA RESULT:      -8.5      2.942      8.530
  Name = 
  1 active torsions:
  status: ('A' for Active; 'I' for Inactive)
    1  A    between atoms: C_5  and  C_30
                            x       y       z     vdW  Elec       q    Type
                         _______ _______ _______ _____ _____    ______ ____

>  <TORSDO>
F 1

$$$$
=
 OpenBabel11112416593D

 31 35  0  0  0  0  0  0  0  0999 V2000
  186.3620  178.7690  143.7350 C   0  0  0  0  0  0  0  0  0  0  0  0
  189.0540  176.1510  143.6080 C   0  0  0  0  0  0  0  0  0  0  0  0
  189.7460  176.2190  144.8440 C   0  0  0  0  0  0  0  0  0  0  0  0
  187.7770  174.5290  138.7710 O   0  0  0  0  0  0  0  0  0  0  0  0
  188.7540  173.8450  139.1800 C   0  0  0  0  0  0  0  0  0  0  0  0
  190.0700  177.1760  147.0060 C   0  0  0  0  0  0  0  0  0  0  0  0
  187.9550  176.9840  143.2580 C   0  0  0  0  0  0  0  0  0  0  0  0
  185.7720  178.5930  142.4830 C   0  0  0  0  0  3  0  0  0  0  0  0
  189.4070  177.1100  145.8200 N   0  0  0  0  0  0  0  0  0  0  0  0
  188.8510  175.0670  141.4260 C   0  0  0  0  0  0  0  0  0  0  0  0
  185.8850  179.7130  144.5810 F   0  0  0  0  0  0  0  0  0  0  0  0
  191.1820  174.4420  144.1270 N   0  0  0  0  0  0  0  0  0  0  0  0
  189.6920  178.0800  147.9410 F   0  0  0  0  0  0  0  0  0  0  0  0
  187.8050  175.8790  141.1260 N   0  0  0  0  0  0  0  0  0  0  0  0
  189.4920  175.1860  142.6660 C   0  0  0  0  0  0  0  0  0  0  0  0
  189.3060  174.0850  140.4830 N   0  0  0  0  0  2  0  0  0  0  0  0
  187.4420  177.9710  144.1180 C   0  0  0  0  0  3  0  0  0  0  0  0
  191.1380  176.3150  147.2600 C   0  0  0  0  0  3  0  0  0  0  0  0
  187.3460  176.8180  141.9890 C   0  0  0  0  0  0  0  0  0  0  0  0
  186.2640  177.6200  141.6120 C   0  0  0  0  0  3  0  0  0  0  0  0
  190.5390  174.3700  142.9630 N   0  0  0  0  0  0  0  0  0  0  0  0
  190.8220  175.3370  145.0760 C   0  0  0  0  0  0  0  0  0  0  0  0
  191.5140  175.3910  146.2860 C   0  0  0  0  0  3  0  0  0  0  0  0
  190.4260  170.7120  136.7640 C   0  0  0  0  0  0  0  0  0  0  0  0
  189.2140  171.4480  138.7210 C   0  0  0  0  0  3  0  0  0  0  0  0
  190.1880  174.3850  136.6750 O   0  0  0  0  0  1  0  0  0  0  0  0
  190.9480  169.7130  136.0130 F   0  0  0  0  0  0  0  0  0  0  0  0
  189.7520  170.4170  137.9480 C   0  0  0  0  0  3  0  0  0  0  0  0
  190.0280  173.0780  137.1210 C   0  0  0  0  0  0  0  0  0  0  0  0
  189.3430  172.7880  138.3230 C   0  0  0  0  0  0  0  0  0  0  0  0
  190.5640  172.0390  136.3530 C   0  0  0  0  0  3  0  0  0  0  0  0
  1 17  1  0  0  0  0
  1 11  1  0  0  0  0
  2  3  1  0  0  0  0
  3 22  2  0  0  0  0
  3  9  1  0  0  0  0
  4  5  2  0  0  0  0
  5 16  1  0  0  0  0
  6 18  1  0  0  0  0
  6 13  1  0  0  0  0
  7  2  1  0  0  0  0
  7 17  2  0  0  0  0
  8  1  2  0  0  0  0
  9  6  2  0  0  0  0
 10 15  1  0  0  0  0
 12 22  1  0  0  0  0
 14 10  2  0  0  0  0
 14 19  1  0  0  0  0
 15 21  1  0  0  0  0
 15  2  2  0  0  0  0
 16 10  1  0  0  0  0
 19  7  1  0  0  0  0
 20 19  2  0  0  0  0
 20  8  1  0  0  0  0
 21 12  2  0  0  0  0
 22 23  1  0  0  0  0
 23 18  2  0  0  0  0
 24 28  1  0  0  0  0
 26 29  1  0  0  0  0
 27 24  1  0  0  0  0
 28 25  2  0  0  0  0
 29 30  2  0  0  0  0
 30 25  1  0  0  0  0
 30  5  1  0  0  0  0
 31 24  2  0  0  0  0
 31 29  1  0  0  0  0
M  END
>  <MODEL>
7

>  <REMARK>
 VINA RESULT:      -8.4      4.816      7.164
  Name = 
  1 active torsions:
  status: ('A' for Active; 'I' for Inactive)
    1  A    between atoms: C_5  and  C_30
                            x       y       z     vdW  Elec       q    Type
                         _______ _______ _______ _____ _____    ______ ____

>  <TORSDO>
F 1

$$$$
=
 OpenBabel11112416593D

 31 35  0  0  0  0  0  0  0  0999 V2000
  192.5800  172.7350  140.4860 C   0  0  0  0  0  0  0  0  0  0  0  0
  192.0510  174.8610  143.5390 C   0  0  0  0  0  0  0  0  0  0  0  0
  193.2860  174.8860  144.2360 C   0  0  0  0  0  0  0  0  0  0  0  0
  187.0090  175.8680  142.4300 O   0  0  0  0  0  0  0  0  0  0  0  0
  187.3090  176.4510  143.5060 C   0  0  0  0  0  0  0  0  0  0  0  0
  195.5740  174.2470  144.4530 C   0  0  0  0  0  0  0  0  0  0  0  0
  191.8330  174.1590  142.3200 C   0  0  0  0  0  0  0  0  0  0  0  0
  191.3130  172.7960  139.9060 C   0  0  0  0  0  3  0  0  0  0  0  0
  194.3890  174.2230  143.7850 N   0  0  0  0  0  0  0  0  0  0  0  0
  189.7220  175.6020  143.4600 C   0  0  0  0  0  0  0  0  0  0  0  0
  193.5640  172.0210  139.8890 F   0  0  0  0  0  0  0  0  0  0  0  0
  192.3010  176.2870  145.9100 N   0  0  0  0  0  0  0  0  0  0  0  0
  196.6400  173.5710  143.9620 F   0  0  0  0  0  0  0  0  0  0  0  0
  189.5500  174.9200  142.2990 N   0  0  0  0  0  0  0  0  0  0  0  0
  190.9690  175.5860  144.1000 C   0  0  0  0  0  0  0  0  0  0  0  0
  188.6370  176.3410  144.0400 N   0  0  0  0  0  2  0  0  0  0  0  0
  192.8360  173.4100  141.6810 C   0  0  0  0  0  3  0  0  0  0  0  0
  195.6930  174.9650  145.6430 C   0  0  0  0  0  3  0  0  0  0  0  0
  190.5500  174.2110  141.7200 C   0  0  0  0  0  0  0  0  0  0  0  0
  190.3000  173.5330  140.5230 C   0  0  0  0  0  3  0  0  0  0  0  0
  191.1370  176.2700  145.2630 N   0  0  0  0  0  0  0  0  0  0  0  0
  193.3790  175.6190  145.4370 C   0  0  0  0  0  0  0  0  0  0  0  0
  194.5860  175.6540  146.1350 C   0  0  0  0  0  3  0  0  0  0  0  0
  184.3750  178.7140  145.6780 C   0  0  0  0  0  0  0  0  0  0  0  0
  185.7890  176.7680  145.4450 C   0  0  0  0  0  3  0  0  0  0  0  0
  186.2900  179.0330  142.5500 O   0  0  0  0  0  1  0  0  0  0  0  0
  183.4500  179.4150  146.3750 F   0  0  0  0  0  0  0  0  0  0  0  0
  184.8350  177.4910  146.1640 C   0  0  0  0  0  3  0  0  0  0  0  0
  185.8250  178.4980  143.7460 C   0  0  0  0  0  0  0  0  0  0  0  0
  186.2980  177.2570  144.2310 C   0  0  0  0  0  0  0  0  0  0  0  0
  184.8690  179.2150  144.4720 C   0  0  0  0  0  3  0  0  0  0  0  0
  1 17  1  0  0  0  0
  2 15  2  0  0  0  0
  2  3  1  0  0  0  0
  3 22  1  0  0  0  0
  4  5  2  0  0  0  0
  5 16  1  0  0  0  0
  5 30  1  0  0  0  0
  6 18  2  0  0  0  0
  7  2  1  0  0  0  0
  8  1  2  0  0  0  0
  8 20  1  0  0  0  0
  9  3  2  0  0  0  0
  9  6  1  0  0  0  0
 10 16  1  0  0  0  0
 10 15  1  0  0  0  0
 11  1  1  0  0  0  0
 13  6  1  0  0  0  0
 14 10  2  0  0  0  0
 15 21  1  0  0  0  0
 17  7  2  0  0  0  0
 18 23  1  0  0  0  0
 19 14  1  0  0  0  0
 19  7  1  0  0  0  0
 20 19  2  0  0  0  0
 21 12  2  0  0  0  0
 22 12  1  0  0  0  0
 22 23  2  0  0  0  0
 24 28  1  0  0  0  0
 24 27  1  0  0  0  0
 25 28  2  0  0  0  0
 26 29  1  0  0  0  0
 29 30  2  0  0  0  0
 29 31  1  0  0  0  0
 30 25  1  0  0  0  0
 31 24  2  0  0  0  0
M  END
>  <MODEL>
8

>  <REMARK>
 VINA RESULT:      -8.4      3.272      9.046
  Name = 
  1 active torsions:
  status: ('A' for Active; 'I' for Inactive)
    1  A    between atoms: C_5  and  C_30
                            x       y       z     vdW  Elec       q    Type
                         _______ _______ _______ _____ _____    ______ ____

>  <TORSDO>
F 1

$$$$
=
 OpenBabel11112416593D

 31 35  0  0  0  0  0  0  0  0999 V2000
  192.1380  176.2960  146.3330 C   0  0  0  0  0  0  0  0  0  0  0  0
  189.2000  175.9040  144.0240 C   0  0  0  0  0  0  0  0  0  0  0  0
  188.0980  176.5340  144.6580 C   0  0  0  0  0  0  0  0  0  0  0  0
  191.9290  173.2710  140.3810 O   0  0  0  0  0  0  0  0  0  0  0  0
  190.7390  173.3900  139.9840 C   0  0  0  0  0  0  0  0  0  0  0  0
  187.1510  177.7400  146.4860 C   0  0  0  0  0  0  0  0  0  0  0  0
  190.5090  175.8330  144.5780 C   0  0  0  0  0  0  0  0  0  0  0  0
  193.1310  175.6450  145.6000 C   0  0  0  0  0  3  0  0  0  0  0  0
  188.2070  177.1360  145.8780 N   0  0  0  0  0  0  0  0  0  0  0  0
  190.0200  174.6720  142.0780 C   0  0  0  0  0  0  0  0  0  0  0  0
  192.4340  176.8390  147.5380 F   0  0  0  0  0  0  0  0  0  0  0  0
  186.7080  175.9520  142.7980 N   0  0  0  0  0  0  0  0  0  0  0  0
  187.3120  178.3230  147.6980 F   0  0  0  0  0  0  0  0  0  0  0  0
  191.2560  174.6230  142.6370 N   0  0  0  0  0  0  0  0  0  0  0  0
  188.9730  175.3110  142.7580 C   0  0  0  0  0  0  0  0  0  0  0  0
  189.7740  174.0760  140.7960 N   0  0  0  0  0  2  0  0  0  0  0  0
  190.8410  176.3890  145.8260 C   0  0  0  0  0  3  0  0  0  0  0  0
  185.9020  177.7600  145.8640 C   0  0  0  0  0  3  0  0  0  0  0  0
  191.5280  175.1740  143.8450 C   0  0  0  0  0  0  0  0  0  0  0  0
  192.8250  175.0850  144.3580 C   0  0  0  0  0  3  0  0  0  0  0  0
  187.7360  175.3570  142.1940 N   0  0  0  0  0  0  0  0  0  0  0  0
  186.8460  176.5400  144.0080 C   0  0  0  0  0  0  0  0  0  0  0  0
  185.7530  177.1550  144.6170 C   0  0  0  0  0  3  0  0  0  0  0  0
  189.5310  171.8540  136.1590 C   0  0  0  0  0  0  0  0  0  0  0  0
  190.1080  173.7050  137.6020 C   0  0  0  0  0  3  0  0  0  0  0  0
  190.3290  170.5240  139.4980 O   0  0  0  0  0  1  0  0  0  0  0  0
  189.1500  171.3860  134.9470 F   0  0  0  0  0  0  0  0  0  0  0  0
  189.7150  173.2230  136.3520 C   0  0  0  0  0  3  0  0  0  0  0  0
  190.1330  171.4420  138.4720 C   0  0  0  0  0  0  0  0  0  0  0  0
  190.3220  172.8280  138.6770 C   0  0  0  0  0  0  0  0  0  0  0  0
  189.7390  170.9670  137.2170 C   0  0  0  0  0  3  0  0  0  0  0  0
  1 11  1  0  0  0  0
  2  7  1  0  0  0  0
  2  3  1  0  0  0  0
  3  9  1  0  0  0  0
  5  4  2  0  0  0  0
  5 16  1  0  0  0  0
  6 13  1  0  0  0  0
  7 17  2  0  0  0  0
  8  1  2  0  0  0  0
  9  6  2  0  0  0  0
 10 14  2  0  0  0  0
 10 15  1  0  0  0  0
 12 22  1  0  0  0  0
 14 19  1  0  0  0  0
 15  2  2  0  0  0  0
 16 10  1  0  0  0  0
 17  1  1  0  0  0  0
 18  6  1  0  0  0  0
 19 20  2  0  0  0  0
 19  7  1  0  0  0  0
 20  8  1  0  0  0  0
 21 15  1  0  0  0  0
 21 12  2  0  0  0  0
 22 23  1  0  0  0  0
 22  3  2  0  0  0  0
 23 18  2  0  0  0  0
 24 28  2  0  0  0  0
 24 31  1  0  0  0  0
 25 30  2  0  0  0  0
 27 24  1  0  0  0  0
 28 25  1  0  0  0  0
 29 30  1  0  0  0  0
 29 26  1  0  0  0  0
 30  5  1  0  0  0  0
 31 29  2  0  0  0  0
M  END
>  <MODEL>
9

>  <REMARK>
 VINA RESULT:      -8.1      4.424      7.131
  Name = 
  1 active torsions:
  status: ('A' for Active; 'I' for Inactive)
    1  A    between atoms: C_5  and  C_30
                            x       y       z     vdW  Elec       q    Type
                         _______ _______ _______ _____ _____    ______ ____

>  <TORSDO>
F 1

$$$$
