=
 OpenBabel11112416293D

 32 37  0  0  1  0  0  0  0  0999 V2000
  190.8550  173.5150  143.9950 C   0  0  0  0  0  2  0  0  0  0  0  0
  187.3410  177.6400  142.5980 C   0  0  1  0  0  3  0  0  0  0  0  0
  186.3200  177.7160  147.4510 C   0  0  0  0  0  3  0  0  0  0  0  0
  184.8820  177.4310  147.1300 C   0  0  0  0  0  2  0  0  0  0  0  0
  185.3920  177.9610  140.9330 C   0  0  0  0  0  0  0  0  0  0  0  0
  183.9690  178.2250  140.7220 C   0  0  1  0  0  3  0  0  0  0  0  0
  189.1650  175.9350  142.4980 C   0  0  1  0  0  3  0  0  0  0  0  0
  189.1520  177.6920  144.2950 C   0  0  0  0  0  2  0  0  0  0  0  0
  181.8130  178.4610  141.4110 C   0  0  2  0  0  3  0  0  0  0  0  0
  190.9790  176.0270  144.2300 C   0  0  0  0  0  3  0  0  0  0  0  0
  187.2030  177.9120  146.4680 C   0  0  0  0  0  3  0  0  0  0  0  0
  187.7390  177.8960  143.9890 N   0  0  0  0  0  0  0  0  0  0  0  0
  186.7670  177.9380  145.0510 C   0  0  0  0  0  0  0  0  0  0  0  0
  185.0040  178.1000  143.3560 C   0  0  0  0  0  0  0  0  0  0  0  0
  181.8120  177.7890  140.2670 C   0  0  0  0  0  3  0  0  0  0  0  0
  189.5120  173.5440  143.2550 C   0  0  0  0  0  2  0  0  0  0  0  0
  189.5250  176.2500  143.9660 C   0  0  2  0  0  3  0  0  0  0  0  0
  183.1980  177.5980  139.8470 C   0  0  0  0  0  3  0  0  0  0  0  0
  189.5280  174.5080  142.0740 C   0  0  0  0  0  2  0  0  0  0  0  0
  191.5840  174.8320  144.2190 C   0  0  0  0  0  0  0  0  0  0  0  0
  184.4470  178.1860  145.8730 C   0  0  0  0  0  2  0  0  0  0  0  0
  185.4540  178.0200  144.7600 C   0  0  0  0  0  0  0  0  0  0  0  0
  183.6090  178.3510  143.0820 N   0  0  0  0  0  2  0  0  0  0  0  0
  187.6790  176.1910  142.2420 C   0  0  0  0  0  2  0  0  0  0  0  0
  186.1540  177.7050  139.9620 O   0  0  0  0  0  0  0  0  0  0  0  0
  180.5740  178.8700  142.1260 C   0  0  0  0  0  1  0  0  0  0  0  0
  185.8840  177.9410  142.3340 C   0  0  0  0  0  0  0  0  0  0  0  0
  183.1860  178.8850  141.7900 C   0  0  1  0  0  3  0  0  0  0  0  0
  192.9900  174.8270  144.5070 N   0  0  0  0  0  2  0  0  0  0  0  0
  193.6080  174.9680  145.7920 C   0  0  0  0  0  0  0  0  0  0  0  0
  192.9230  175.0770  146.8420 O   0  0  0  0  0  0  0  0  0  0  0  0
  195.0910  174.9760  145.8860 C   0  0  0  0  0  1  0  0  0  0  0  0
  1 20  1  0  0  0  0
  2 24  1  1  0  0  0
  2 12  1  0  0  0  0
  4  3  1  0  0  0  0
  5 27  1  0  0  0  0
  6 18  1  1  0  0  0
  6  5  1  0  0  0  0
  6 28  1  0  0  0  0
  7 19  1  1  0  0  0
  7 17  1  0  0  0  0
  9 28  1  0  0  0  0
  9 26  1  6  0  0  0
 11  3  2  0  0  0  0
 12  8  1  0  0  0  0
 12 13  1  0  0  0  0
 13 11  1  0  0  0  0
 14 22  1  0  0  0  0
 15  9  1  0  0  0  0
 16  1  1  0  0  0  0
 17 10  1  6  0  0  0
 17  8  1  0  0  0  0
 18 15  2  0  0  0  0
 19 16  1  0  0  0  0
 20 10  2  0  0  0  0
 20 29  1  0  0  0  0
 21  4  1  0  0  0  0
 22 13  2  0  0  0  0
 22 21  1  0  0  0  0
 23 14  1  0  0  0  0
 24  7  1  0  0  0  0
 25  5  2  0  0  0  0
 27  2  1  0  0  0  0
 27 14  2  0  0  0  0
 28 23  1  1  0  0  0
 29 30  1  0  0  0  0
 30 32  1  0  0  0  0
 30 31  2  0  0  0  0
M  END
>  <MODEL>
1

>  <REMARK>
 VINA RESULT:      -9.4      0.000      0.000
  Name = 
  1 active torsions:
  status: ('A' for Active; 'I' for Inactive)
    1  A    between atoms: C_20  and  N_29
                            x       y       z     vdW  Elec       q    Type
                         _______ _______ _______ _____ _____    ______ ____

>  <TORSDO>
F 1

$$$$
=
 OpenBabel11112416293D

 32 37  0  0  1  0  0  0  0  0999 V2000
  195.0190  175.3130  144.6870 C   0  0  0  0  0  2  0  0  0  0  0  0
  189.4350  175.2770  145.0500 C   0  0  1  0  0  3  0  0  0  0  0  0
  189.6750  173.0840  140.6090 C   0  0  0  0  0  3  0  0  0  0  0  0
  188.8560  174.2030  140.0360 C   0  0  0  0  0  2  0  0  0  0  0  0
  187.5700  177.0180  145.4550 C   0  0  0  0  0  0  0  0  0  0  0  0
  186.3900  177.7150  144.9460 C   0  0  1  0  0  3  0  0  0  0  0  0
  191.8550  175.4700  145.6440 C   0  0  1  0  0  3  0  0  0  0  0  0
  190.9470  173.3500  144.6440 C   0  0  0  0  0  2  0  0  0  0  0  0
  184.9200  178.3190  143.3160 C   0  0  2  0  0  3  0  0  0  0  0  0
  193.3470  173.4970  145.2210 C   0  0  0  0  0  3  0  0  0  0  0  0
  189.9260  173.0350  141.9190 C   0  0  0  0  0  3  0  0  0  0  0  0
  189.7960  174.1330  144.2020 N   0  0  0  0  0  0  0  0  0  0  0  0
  189.3310  174.0310  142.8430 C   0  0  0  0  0  0  0  0  0  0  0  0
  187.6980  175.7940  143.3280 C   0  0  0  0  0  0  0  0  0  0  0  0
  185.1720  179.3850  144.0650 C   0  0  0  0  0  3  0  0  0  0  0  0
  193.9540  176.4110  144.5860 C   0  0  0  0  0  2  0  0  0  0  0  0
  192.1630  174.2660  144.7280 C   0  0  2  0  0  3  0  0  0  0  0  0
  186.1490  179.0100  145.0840 C   0  0  0  0  0  3  0  0  0  0  0  0
  193.0360  176.4340  145.8030 C   0  0  0  0  0  2  0  0  0  0  0  0
  194.6060  173.9550  145.2350 C   0  0  0  0  0  0  0  0  0  0  0  0
  187.7710  174.6410  141.0220 C   0  0  0  0  0  2  0  0  0  0  0  0
  188.3390  174.8320  142.4090 C   0  0  0  0  0  0  0  0  0  0  0  0
  186.5330  176.5190  142.8820 N   0  0  0  0  0  2  0  0  0  0  0  0
  190.6280  176.2300  145.1360 C   0  0  0  0  0  2  0  0  0  0  0  0
  188.0670  177.3180  146.5740 O   0  0  0  0  0  0  0  0  0  0  0  0
  183.9440  178.3120  142.1940 C   0  0  0  0  0  1  0  0  0  0  0  0
  188.1950  175.9970  144.5760 C   0  0  0  0  0  0  0  0  0  0  0  0
  185.6080  177.1120  143.8440 C   0  0  1  0  0  3  0  0  0  0  0  0
  195.6050  173.0580  145.7410 N   0  0  0  0  0  2  0  0  0  0  0  0
  196.2150  171.9640  145.0440 C   0  0  0  0  0  0  0  0  0  0  0  0
  195.9310  171.7090  143.8440 O   0  0  0  0  0  0  0  0  0  0  0  0
  197.2100  171.1180  145.7520 C   0  0  0  0  0  1  0  0  0  0  0  0
  1 20  1  0  0  0  0
  2 24  1  6  0  0  0
  3 11  2  0  0  0  0
  4  3  1  0  0  0  0
  4 21  1  0  0  0  0
  5 25  2  0  0  0  0
  6 18  1  6  0  0  0
  6  5  1  0  0  0  0
  7 24  1  6  0  0  0
  7 19  1  0  0  0  0
  9 26  1  1  0  0  0
  9 28  1  0  0  0  0
  9 15  1  0  0  0  0
 10 20  2  0  0  0  0
 11 13  1  0  0  0  0
 12  8  1  0  0  0  0
 12  2  1  0  0  0  0
 13 12  1  0  0  0  0
 14 27  2  0  0  0  0
 15 18  2  0  0  0  0
 16  1  1  0  0  0  0
 16 19  1  0  0  0  0
 17  8  1  1  0  0  0
 17 10  1  0  0  0  0
 17  7  1  0  0  0  0
 20 29  1  0  0  0  0
 21 22  1  0  0  0  0
 22 13  2  0  0  0  0
 22 14  1  0  0  0  0
 23 14  1  0  0  0  0
 27  2  1  0  0  0  0
 27  5  1  0  0  0  0
 28 23  1  6  0  0  0
 28  6  1  0  0  0  0
 30 29  1  0  0  0  0
 30 32  1  0  0  0  0
 31 30  2  0  0  0  0
M  END
>  <MODEL>
2

>  <REMARK>
 VINA RESULT:      -8.8      2.411      5.094
  Name = 
  1 active torsions:
  status: ('A' for Active; 'I' for Inactive)
    1  A    between atoms: C_20  and  N_29
                            x       y       z     vdW  Elec       q    Type
                         _______ _______ _______ _____ _____    ______ ____

>  <TORSDO>
F 1

$$$$
=
 OpenBabel11112416293D

 32 37  0  0  1  0  0  0  0  0999 V2000
  187.3090  176.5210  146.5040 C   0  0  0  0  0  2  0  0  0  0  0  0
  192.4310  175.9530  144.3210 C   0  0  1  0  0  3  0  0  0  0  0  0
  190.1380  173.0540  141.0140 C   0  0  0  0  0  3  0  0  0  0  0  0
  191.0310  171.9190  141.4220 C   0  0  0  0  0  2  0  0  0  0  0  0
  194.7630  175.2340  145.1690 C   0  0  0  0  0  0  0  0  0  0  0  0
  195.8720  174.2840  145.0960 C   0  0  1  0  0  3  0  0  0  0  0  0
  190.5040  176.7810  145.6800 C   0  0  1  0  0  3  0  0  0  0  0  0
  190.3600  176.6970  143.1720 C   0  0  0  0  0  2  0  0  0  0  0  0
  196.8570  172.3420  144.4340 C   0  0  2  0  0  3  0  0  0  0  0  0
  188.4310  177.5280  144.4780 C   0  0  0  0  0  3  0  0  0  0  0  0
  190.3150  174.2700  141.5350 C   0  0  0  0  0  3  0  0  0  0  0  0
  191.4900  175.7720  143.2070 N   0  0  0  0  0  0  0  0  0  0  0  0
  191.4440  174.5460  142.4550 C   0  0  0  0  0  0  0  0  0  0  0  0
  193.6000  173.9250  143.4440 C   0  0  0  0  0  0  0  0  0  0  0  0
  197.1910  172.5680  145.6980 C   0  0  0  0  0  3  0  0  0  0  0  0
  188.5670  175.7710  146.9590 C   0  0  0  0  0  2  0  0  0  0  0  0
  189.5710  176.5610  144.4700 C   0  0  2  0  0  3  0  0  0  0  0  0
  196.5240  173.7910  146.1380 C   0  0  0  0  0  3  0  0  0  0  0  0
  189.7860  176.6840  147.0300 C   0  0  0  0  0  2  0  0  0  0  0  0
  187.4440  177.5410  145.3830 C   0  0  0  0  0  0  0  0  0  0  0  0
  192.4520  172.4180  141.6940 C   0  0  0  0  0  2  0  0  0  0  0  0
  192.4410  173.6460  142.5730 C   0  0  0  0  0  0  0  0  0  0  0  0
  194.7240  173.0200  143.4230 N   0  0  0  0  0  2  0  0  0  0  0  0
  191.6740  175.7980  145.6410 C   0  0  0  0  0  2  0  0  0  0  0  0
  194.7630  176.1660  146.0170 O   0  0  0  0  0  0  0  0  0  0  0  0
  197.3750  171.1980  143.6370 C   0  0  0  0  0  1  0  0  0  0  0  0
  193.6120  175.0140  144.2560 C   0  0  0  0  0  0  0  0  0  0  0  0
  196.0410  173.4540  143.8820 C   0  0  1  0  0  3  0  0  0  0  0  0
  186.4350  178.5460  145.2120 N   0  0  0  0  0  2  0  0  0  0  0  0
  185.3070  178.4970  144.3290 C   0  0  0  0  0  0  0  0  0  0  0  0
  185.0750  177.4850  143.6150 O   0  0  0  0  0  0  0  0  0  0  0  0
  184.3860  179.6600  144.2630 C   0  0  0  0  0  1  0  0  0  0  0  0
  1 16  1  0  0  0  0
  2 24  1  1  0  0  0
  3  4  1  0  0  0  0
  3 11  2  0  0  0  0
  4 21  1  0  0  0  0
  5 25  2  0  0  0  0
  6  5  1  0  0  0  0
  6 18  1  1  0  0  0
  7 24  1  1  0  0  0
  7 19  1  0  0  0  0
  8 12  1  0  0  0  0
  9 26  1  6  0  0  0
  9 15  1  0  0  0  0
 10 20  2  0  0  0  0
 11 13  1  0  0  0  0
 12  2  1  0  0  0  0
 13 22  2  0  0  0  0
 13 12  1  0  0  0  0
 14 27  2  0  0  0  0
 15 18  2  0  0  0  0
 16 19  1  0  0  0  0
 17  8  1  6  0  0  0
 17 10  1  0  0  0  0
 17  7  1  0  0  0  0
 20  1  1  0  0  0  0
 21 22  1  0  0  0  0
 22 14  1  0  0  0  0
 23 14  1  0  0  0  0
 27  2  1  0  0  0  0
 27  5  1  0  0  0  0
 28 23  1  1  0  0  0
 28  9  1  0  0  0  0
 28  6  1  0  0  0  0
 29 20  1  0  0  0  0
 30 29  1  0  0  0  0
 31 30  2  0  0  0  0
 32 30  1  0  0  0  0
M  END
>  <MODEL>
3

>  <REMARK>
 VINA RESULT:      -8.6      2.595      9.805
  Name = 
  1 active torsions:
  status: ('A' for Active; 'I' for Inactive)
    1  A    between atoms: C_20  and  N_29
                            x       y       z     vdW  Elec       q    Type
                         _______ _______ _______ _____ _____    ______ ____

>  <TORSDO>
F 1

$$$$
=
 OpenBabel11112416293D

 32 37  0  0  1  0  0  0  0  0999 V2000
  191.0630  170.9670  141.3670 C   0  0  0  0  0  2  0  0  0  0  0  0
  189.4380  176.0980  142.9020 C   0  0  1  0  0  3  0  0  0  0  0  0
  192.3050  175.2600  146.8610 C   0  0  0  0  0  3  0  0  0  0  0  0
  191.1070  175.4610  147.7430 C   0  0  0  0  0  2  0  0  0  0  0  0
  187.1940  177.3290  143.2540 C   0  0  0  0  0  0  0  0  0  0  0  0
  186.2820  178.0090  144.1720 C   0  0  1  0  0  3  0  0  0  0  0  0
  189.8510  174.0420  141.5420 C   0  0  1  0  0  3  0  0  0  0  0  0
  191.7570  175.2440  142.6570 C   0  0  0  0  0  2  0  0  0  0  0  0
  185.5580  178.6430  146.2350 C   0  0  2  0  0  3  0  0  0  0  0  0
  192.2100  173.2160  141.3170 C   0  0  0  0  0  3  0  0  0  0  0  0
  192.2080  175.4440  145.5420 C   0  0  0  0  0  3  0  0  0  0  0  0
  190.7610  175.8900  143.5070 N   0  0  0  0  0  0  0  0  0  0  0  0
  190.9460  175.9320  144.9340 C   0  0  0  0  0  0  0  0  0  0  0  0
  188.7350  176.9720  145.1350 C   0  0  0  0  0  0  0  0  0  0  0  0
  184.5010  178.2950  145.5120 C   0  0  0  0  0  3  0  0  0  0  0  0
  189.7370  171.5370  141.8870 C   0  0  0  0  0  2  0  0  0  0  0  0
  191.2270  173.8810  142.2240 C   0  0  2  0  0  3  0  0  0  0  0  0
  184.9680  177.8460  144.2020 C   0  0  0  0  0  3  0  0  0  0  0  0
  189.2540  172.7180  141.0540 C   0  0  0  0  0  2  0  0  0  0  0  0
  192.1360  171.9420  140.9080 C   0  0  0  0  0  0  0  0  0  0  0  0
  190.2220  176.5880  147.2070 C   0  0  0  0  0  2  0  0  0  0  0  0
  189.9770  176.4330  145.7250 C   0  0  0  0  0  0  0  0  0  0  0  0
  187.7900  177.6480  145.9910 N   0  0  0  0  0  2  0  0  0  0  0  0
  188.8660  174.7440  142.4780 C   0  0  0  0  0  2  0  0  0  0  0  0
  186.8700  177.1210  142.0540 O   0  0  0  0  0  0  0  0  0  0  0  0
  185.4680  179.1830  147.6170 C   0  0  0  0  0  1  0  0  0  0  0  0
  188.4810  176.8350  143.8080 C   0  0  0  0  0  0  0  0  0  0  0  0
  186.8080  178.5740  145.4340 C   0  0  1  0  0  3  0  0  0  0  0  0
  193.1860  171.4890  140.0420 N   0  0  0  0  0  2  0  0  0  0  0  0
  193.1160  171.3040  138.6220 C   0  0  0  0  0  0  0  0  0  0  0  0
  192.0710  171.5790  137.9750 O   0  0  0  0  0  0  0  0  0  0  0  0
  194.3050  170.7860  137.8980 C   0  0  0  0  0  1  0  0  0  0  0  0
  1 16  1  0  0  0  0
  2 24  1  1  0  0  0
  2 12  1  0  0  0  0
  2 27  1  0  0  0  0
  3  4  1  0  0  0  0
  5 27  1  0  0  0  0
  5  6  1  0  0  0  0
  6 18  1  1  0  0  0
  6 28  1  0  0  0  0
  7 19  1  1  0  0  0
  7 17  1  0  0  0  0
  7 24  1  0  0  0  0
  8 12  1  0  0  0  0
  9 26  1  6  0  0  0
 11  3  2  0  0  0  0
 12 13  1  0  0  0  0
 13 11  1  0  0  0  0
 13 22  2  0  0  0  0
 14 22  1  0  0  0  0
 14 23  1  0  0  0  0
 15  9  1  0  0  0  0
 17 10  1  6  0  0  0
 17  8  1  0  0  0  0
 18 15  2  0  0  0  0
 19 16  1  0  0  0  0
 20 10  2  0  0  0  0
 20  1  1  0  0  0  0
 21  4  1  0  0  0  0
 22 21  1  0  0  0  0
 25  5  2  0  0  0  0
 27 14  2  0  0  0  0
 28 23  1  1  0  0  0
 28  9  1  0  0  0  0
 29 20  1  0  0  0  0
 30 29  1  0  0  0  0
 31 30  2  0  0  0  0
 32 30  1  0  0  0  0
M  END
>  <MODEL>
4

>  <REMARK>
 VINA RESULT:      -8.3      3.090      5.150
  Name = 
  1 active torsions:
  status: ('A' for Active; 'I' for Inactive)
    1  A    between atoms: C_20  and  N_29
                            x       y       z     vdW  Elec       q    Type
                         _______ _______ _______ _____ _____    ______ ____

>  <TORSDO>
F 1

$$$$
=
 OpenBabel11112416293D

 32 37  0  0  1  0  0  0  0  0999 V2000
  193.1070  171.7410  141.9710 C   0  0  0  0  0  2  0  0  0  0  0  0
  190.3460  176.5430  142.7650 C   0  0  1  0  0  3  0  0  0  0  0  0
  192.2400  176.2760  147.3410 C   0  0  0  0  0  3  0  0  0  0  0  0
  190.8450  176.2840  147.8950 C   0  0  0  0  0  2  0  0  0  0  0  0
  187.9160  177.3770  142.4930 C   0  0  0  0  0  0  0  0  0  0  0  0
  186.7070  177.9070  143.1230 C   0  0  1  0  0  3  0  0  0  0  0  0
  191.4100  174.5660  141.6680 C   0  0  1  0  0  3  0  0  0  0  0  0
  192.7590  176.0950  143.1370 C   0  0  0  0  0  2  0  0  0  0  0  0
  185.4020  178.4420  144.9090 C   0  0  2  0  0  3  0  0  0  0  0  0
  193.8530  174.1520  142.0670 C   0  0  0  0  0  3  0  0  0  0  0  0
  192.4430  176.4180  146.0290 C   0  0  0  0  0  3  0  0  0  0  0  0
  191.4930  176.5750  143.6830 N   0  0  0  0  0  0  0  0  0  0  0  0
  191.3100  176.6730  145.1070 C   0  0  0  0  0  0  0  0  0  0  0  0
  188.9800  177.3210  144.7080 C   0  0  0  0  0  0  0  0  0  0  0  0
  184.6280  177.9070  143.9740 C   0  0  0  0  0  3  0  0  0  0  0  0
  191.6200  172.0840  142.1220 C   0  0  0  0  0  2  0  0  0  0  0  0
  192.5800  174.6540  142.6700 C   0  0  2  0  0  3  0  0  0  0  0  0
  185.4710  177.5220  142.8450 C   0  0  0  0  0  3  0  0  0  0  0  0
  191.1740  173.1510  141.1290 C   0  0  0  0  0  2  0  0  0  0  0  0
  194.0890  172.8770  141.7280 C   0  0  0  0  0  0  0  0  0  0  0  0
  189.9500  177.2330  147.0960 C   0  0  0  0  0  2  0  0  0  0  0  0
  190.1070  177.0130  145.6110 C   0  0  0  0  0  0  0  0  0  0  0  0
  187.7560  177.8400  145.2700 N   0  0  0  0  0  2  0  0  0  0  0  0
  190.1230  175.1040  142.2960 C   0  0  0  0  0  2  0  0  0  0  0  0
  187.9370  177.0970  141.2650 O   0  0  0  0  0  0  0  0  0  0  0  0
  184.8870  178.9830  146.1950 C   0  0  0  0  0  1  0  0  0  0  0  0
  189.0880  177.1200  143.3690 C   0  0  0  0  0  0  0  0  0  0  0  0
  186.8060  178.5750  144.4390 C   0  0  1  0  0  3  0  0  0  0  0  0
  195.3800  172.5950  141.1690 N   0  0  0  0  0  2  0  0  0  0  0  0
  196.6160  172.4550  141.8800 C   0  0  0  0  0  0  0  0  0  0  0  0
  196.6650  172.5370  143.1360 O   0  0  0  0  0  0  0  0  0  0  0  0
  197.8660  172.1990  141.1180 C   0  0  0  0  0  1  0  0  0  0  0  0
  1 16  1  0  0  0  0
  2 24  1  1  0  0  0
  2 27  1  0  0  0  0
  2 12  1  0  0  0  0
  3  4  1  0  0  0  0
  5  6  1  0  0  0  0
  5 27  1  0  0  0  0
  6 18  1  1  0  0  0
  6 28  1  0  0  0  0
  7 19  1  1  0  0  0
  7 24  1  0  0  0  0
  7 17  1  0  0  0  0
  8 12  1  0  0  0  0
  9 26  1  6  0  0  0
 11  3  2  0  0  0  0
 12 13  1  0  0  0  0
 13 22  2  0  0  0  0
 13 11  1  0  0  0  0
 14 23  1  0  0  0  0
 14 22  1  0  0  0  0
 15  9  1  0  0  0  0
 17 10  1  6  0  0  0
 17  8  1  0  0  0  0
 18 15  2  0  0  0  0
 19 16  1  0  0  0  0
 20  1  1  0  0  0  0
 20 10  2  0  0  0  0
 21  4  1  0  0  0  0
 22 21  1  0  0  0  0
 25  5  2  0  0  0  0
 27 14  2  0  0  0  0
 28  9  1  0  0  0  0
 28 23  1  1  0  0  0
 29 20  1  0  0  0  0
 29 30  1  0  0  0  0
 30 31  2  0  0  0  0
 32 30  1  0  0  0  0
M  END
>  <MODEL>
5

>  <REMARK>
 VINA RESULT:      -8.2      2.724      4.451
  Name = 
  1 active torsions:
  status: ('A' for Active; 'I' for Inactive)
    1  A    between atoms: C_20  and  N_29
                            x       y       z     vdW  Elec       q    Type
                         _______ _______ _______ _____ _____    ______ ____

>  <TORSDO>
F 1

$$$$
=
 OpenBabel11112416293D

 32 37  0  0  1  0  0  0  0  0999 V2000
  187.8500  176.1080  146.8780 C   0  0  0  0  0  2  0  0  0  0  0  0
  192.4710  176.2760  143.7260 C   0  0  1  0  0  3  0  0  0  0  0  0
  189.9740  173.1360  140.8100 C   0  0  0  0  0  3  0  0  0  0  0  0
  191.0710  172.1290  140.9920 C   0  0  0  0  0  2  0  0  0  0  0  0
  194.9980  175.8720  144.0780 C   0  0  0  0  0  0  0  0  0  0  0  0
  196.1860  175.0840  143.7530 C   0  0  1  0  0  3  0  0  0  0  0  0
  190.7570  176.8150  145.4630 C   0  0  1  0  0  3  0  0  0  0  0  0
  190.1340  176.7450  143.0290 C   0  0  0  0  0  2  0  0  0  0  0  0
  197.2690  173.3040  142.8360 C   0  0  2  0  0  3  0  0  0  0  0  0
  188.4090  177.2870  144.7150 C   0  0  0  0  0  3  0  0  0  0  0  0
  190.0880  174.3580  141.3350 C   0  0  0  0  0  3  0  0  0  0  0  0
  191.3610  175.9840  142.8080 N   0  0  0  0  0  0  0  0  0  0  0  0
  191.3300  174.7730  142.0310 C   0  0  0  0  0  0  0  0  0  0  0  0
  193.7010  174.4400  142.5590 C   0  0  0  0  0  0  0  0  0  0  0  0
  197.8120  173.5570  144.0190 C   0  0  0  0  0  3  0  0  0  0  0  0
  189.2600  175.5310  147.0510 C   0  0  0  0  0  2  0  0  0  0  0  0
  189.6420  176.4850  144.4490 C   0  0  2  0  0  3  0  0  0  0  0  0
  197.0900  174.6700  144.6290 C   0  0  0  0  0  3  0  0  0  0  0  0
  190.3380  176.6020  146.9220 C   0  0  0  0  0  2  0  0  0  0  0  0
  187.6250  177.1520  145.7940 C   0  0  0  0  0  0  0  0  0  0  0  0
  192.4390  172.8140  141.0040 C   0  0  0  0  0  2  0  0  0  0  0  0
  192.4400  174.0170  141.9170 C   0  0  0  0  0  0  0  0  0  0  0  0
  194.9080  173.6980  142.2850 N   0  0  0  0  0  2  0  0  0  0  0  0
  192.0160  176.0010  145.1600 C   0  0  0  0  0  2  0  0  0  0  0  0
  195.0420  176.7840  144.9460 O   0  0  0  0  0  0  0  0  0  0  0  0
  197.7650  172.2530  141.9090 C   0  0  0  0  0  1  0  0  0  0  0  0
  193.7300  175.5090  143.3960 C   0  0  0  0  0  0  0  0  0  0  0  0
  196.2200  174.3020  142.4980 C   0  0  1  0  0  3  0  0  0  0  0  0
  186.4800  178.0120  145.8620 N   0  0  0  0  0  2  0  0  0  0  0  0
  185.1280  177.6300  146.1460 C   0  0  0  0  0  0  0  0  0  0  0  0
  184.8250  176.4370  146.4120 O   0  0  0  0  0  0  0  0  0  0  0  0
  184.0630  178.6650  146.1340 C   0  0  0  0  0  1  0  0  0  0  0  0
  1 16  1  0  0  0  0
  2 24  1  1  0  0  0
  3  4  1  0  0  0  0
  3 11  2  0  0  0  0
  4 21  1  0  0  0  0
  5 25  2  0  0  0  0
  6  5  1  0  0  0  0
  6 18  1  1  0  0  0
  7 24  1  6  0  0  0
  7 19  1  0  0  0  0
  9 26  1  6  0  0  0
  9 15  1  0  0  0  0
 10 20  2  0  0  0  0
 11 13  1  0  0  0  0
 12  8  1  0  0  0  0
 12  2  1  0  0  0  0
 13 12  1  0  0  0  0
 14 27  2  0  0  0  0
 15 18  2  0  0  0  0
 17  8  1  6  0  0  0
 17 10  1  0  0  0  0
 17  7  1  0  0  0  0
 19 16  1  0  0  0  0
 20 29  1  0  0  0  0
 20  1  1  0  0  0  0
 21 22  1  0  0  0  0
 22 13  2  0  0  0  0
 22 14  1  0  0  0  0
 23 14  1  0  0  0  0
 27  2  1  0  0  0  0
 27  5  1  0  0  0  0
 28 23  1  1  0  0  0
 28  9  1  0  0  0  0
 28  6  1  0  0  0  0
 29 30  1  0  0  0  0
 30 31  2  0  0  0  0
 32 30  1  0  0  0  0
M  END
>  <MODEL>
6

>  <REMARK>
 VINA RESULT:      -8.2      3.374      9.663
  Name = 
  1 active torsions:
  status: ('A' for Active; 'I' for Inactive)
    1  A    between atoms: C_20  and  N_29
                            x       y       z     vdW  Elec       q    Type
                         _______ _______ _______ _____ _____    ______ ____

>  <TORSDO>
F 1

$$$$
=
 OpenBabel11112416293D

 32 37  0  0  1  0  0  0  0  0999 V2000
  188.0430  177.9520  143.0870 C   0  0  0  0  0  2  0  0  0  0  0  0
  190.6690  173.2130  144.4890 C   0  0  1  0  0  3  0  0  0  0  0  0
  193.8180  176.2550  146.8190 C   0  0  0  0  0  3  0  0  0  0  0  0
  194.9340  175.7100  145.9760 C   0  0  0  0  0  2  0  0  0  0  0  0
  191.6390  171.1670  143.2450 C   0  0  0  0  0  0  0  0  0  0  0  0
  192.8130  170.3680  142.8960 C   0  0  1  0  0  3  0  0  0  0  0  0
  188.9410  174.8190  143.6630 C   0  0  1  0  0  3  0  0  0  0  0  0
  189.8500  175.0050  146.0000 C   0  0  0  0  0  2  0  0  0  0  0  0
  195.0510  169.9710  142.7770 C   0  0  2  0  0  3  0  0  0  0  0  0
  188.1380  176.6120  145.2250 C   0  0  0  0  0  3  0  0  0  0  0  0
  192.5890  175.7400  146.7240 C   0  0  0  0  0  3  0  0  0  0  0  0
  190.9690  174.1770  145.5560 N   0  0  0  0  0  0  0  0  0  0  0  0
  192.3220  174.5700  145.8530 C   0  0  0  0  0  0  0  0  0  0  0  0
  193.1080  172.6650  144.5260 C   0  0  0  0  0  0  0  0  0  0  0  0
  194.4970  169.5750  141.6380 C   0  0  0  0  0  3  0  0  0  0  0  0
  188.8930  176.9500  142.2960 C   0  0  0  0  0  2  0  0  0  0  0  0
  189.3130  175.7880  144.8070 C   0  0  2  0  0  3  0  0  0  0  0  0
  193.0680  169.8700  141.6950 C   0  0  0  0  0  3  0  0  0  0  0  0
  188.3690  175.5240  142.4280 C   0  0  0  0  0  2  0  0  0  0  0  0
  187.5500  177.5480  144.4690 C   0  0  0  0  0  0  0  0  0  0  0  0
  194.7670  174.2050  145.7630 C   0  0  0  0  0  2  0  0  0  0  0  0
  193.3540  173.8640  145.3520 C   0  0  0  0  0  0  0  0  0  0  0  0
  194.2270  171.8380  144.1420 N   0  0  0  0  0  2  0  0  0  0  0  0
  190.1500  173.9710  143.2650 C   0  0  0  0  0  2  0  0  0  0  0  0
  190.5060  170.8990  142.7630 O   0  0  0  0  0  0  0  0  0  0  0  0
  196.4940  169.8010  143.0940 C   0  0  0  0  0  1  0  0  0  0  0  0
  191.8500  172.3410  144.1300 C   0  0  0  0  0  0  0  0  0  0  0  0
  194.0250  170.4490  143.7400 C   0  0  1  0  0  3  0  0  0  0  0  0
  186.4380  178.2370  145.0560 N   0  0  0  0  0  2  0  0  0  0  0  0
  185.0790  178.2280  144.6020 C   0  0  0  0  0  0  0  0  0  0  0  0
  184.7230  177.5410  143.6090 O   0  0  0  0  0  0  0  0  0  0  0  0
  184.0660  179.0410  145.3250 C   0  0  0  0  0  1  0  0  0  0  0  0
  1 20  1  0  0  0  0
  2 24  1  6  0  0  0
  2 12  1  0  0  0  0
  4  3  1  0  0  0  0
  5 27  1  0  0  0  0
  6 18  1  6  0  0  0
  6  5  1  0  0  0  0
  6 28  1  0  0  0  0
  7 19  1  6  0  0  0
  7 17  1  0  0  0  0
  9 26  1  1  0  0  0
  9 28  1  0  0  0  0
 11  3  2  0  0  0  0
 12 13  1  0  0  0  0
 12  8  1  0  0  0  0
 13 11  1  0  0  0  0
 14 22  1  0  0  0  0
 15 18  2  0  0  0  0
 15  9  1  0  0  0  0
 16 19  1  0  0  0  0
 16  1  1  0  0  0  0
 17 10  1  1  0  0  0
 17  8  1  0  0  0  0
 20 29  1  0  0  0  0
 20 10  2  0  0  0  0
 21  4  1  0  0  0  0
 22 21  1  0  0  0  0
 22 13  2  0  0  0  0
 23 14  1  0  0  0  0
 24  7  1  0  0  0  0
 25  5  2  0  0  0  0
 27  2  1  0  0  0  0
 27 14  2  0  0  0  0
 28 23  1  6  0  0  0
 30 29  1  0  0  0  0
 30 32  1  0  0  0  0
 31 30  2  0  0  0  0
M  END
>  <MODEL>
7

>  <REMARK>
 VINA RESULT:      -8.0      2.946      9.303
  Name = 
  1 active torsions:
  status: ('A' for Active; 'I' for Inactive)
    1  A    between atoms: C_20  and  N_29
                            x       y       z     vdW  Elec       q    Type
                         _______ _______ _______ _____ _____    ______ ____

>  <TORSDO>
F 1

$$$$
=
 OpenBabel11112416293D

 32 37  0  0  1  0  0  0  0  0999 V2000
  185.7170  176.8460  146.1150 C   0  0  0  0  0  2  0  0  0  0  0  0
  190.7970  176.3960  143.8110 C   0  0  1  0  0  3  0  0  0  0  0  0
  188.9200  172.3100  141.7190 C   0  0  0  0  0  3  0  0  0  0  0  0
  190.0000  171.5030  142.3790 C   0  0  0  0  0  2  0  0  0  0  0  0
  193.2390  176.3290  144.6510 C   0  0  0  0  0  0  0  0  0  0  0  0
  194.4870  175.5800  144.7800 C   0  0  1  0  0  3  0  0  0  0  0  0
  188.8000  177.3100  145.0040 C   0  0  1  0  0  3  0  0  0  0  0  0
  188.5990  176.4320  142.6570 C   0  0  0  0  0  2  0  0  0  0  0  0
  195.7600  173.6970  144.6590 C   0  0  2  0  0  3  0  0  0  0  0  0
  186.5980  177.3310  143.7980 C   0  0  0  0  0  3  0  0  0  0  0  0
  188.9080  173.6400  141.8340 C   0  0  0  0  0  3  0  0  0  0  0  0
  189.8670  175.7430  142.8800 N   0  0  0  0  0  0  0  0  0  0  0  0
  190.0030  174.3510  142.5380 C   0  0  0  0  0  0  0  0  0  0  0  0
  192.2590  174.3940  143.4960 C   0  0  0  0  0  0  0  0  0  0  0  0
  196.0890  174.3500  145.7660 C   0  0  0  0  0  3  0  0  0  0  0  0
  187.0940  176.4690  146.6750 C   0  0  0  0  0  2  0  0  0  0  0  0
  187.8810  176.5890  143.9930 C   0  0  2  0  0  3  0  0  0  0  0  0
  195.2410  175.5350  145.8680 C   0  0  0  0  0  3  0  0  0  0  0  0
  188.1460  177.5300  146.3720 C   0  0  0  0  0  2  0  0  0  0  0  0
  185.6480  177.4770  144.7320 C   0  0  0  0  0  0  0  0  0  0  0  0
  191.3250  172.2660  142.3760 C   0  0  0  0  0  2  0  0  0  0  0  0
  191.1370  173.6900  142.8430 C   0  0  0  0  0  0  0  0  0  0  0  0
  193.5160  173.7040  143.6610 N   0  0  0  0  0  2  0  0  0  0  0  0
  190.1150  176.5470  145.1720 C   0  0  0  0  0  2  0  0  0  0  0  0
  193.1090  177.4680  145.1760 O   0  0  0  0  0  0  0  0  0  0  0  0
  196.4360  172.4520  144.2050 C   0  0  0  0  0  1  0  0  0  0  0  0
  192.1150  175.6700  143.9390 C   0  0  0  0  0  0  0  0  0  0  0  0
  194.7560  174.4500  143.8640 C   0  0  1  0  0  3  0  0  0  0  0  0
  184.4830  178.2190  144.3460 N   0  0  0  0  0  2  0  0  0  0  0  0
  183.8990  178.2910  143.0390 C   0  0  0  0  0  0  0  0  0  0  0  0
  184.3710  177.6360  142.0720 O   0  0  0  0  0  0  0  0  0  0  0  0
  182.7060  179.1490  142.8230 C   0  0  0  0  0  1  0  0  0  0  0  0
  1 16  1  0  0  0  0
  2 27  1  0  0  0  0
  2 24  1  1  0  0  0
  3 11  2  0  0  0  0
  3  4  1  0  0  0  0
  5  6  1  0  0  0  0
  5 25  2  0  0  0  0
  6 18  1  1  0  0  0
  7 24  1  1  0  0  0
  7 19  1  0  0  0  0
  8 12  1  0  0  0  0
  9 26  1  6  0  0  0
  9 15  1  0  0  0  0
 10 17  1  0  0  0  0
 10 20  2  0  0  0  0
 11 13  1  0  0  0  0
 12  2  1  0  0  0  0
 13 22  2  0  0  0  0
 13 12  1  0  0  0  0
 14 23  1  0  0  0  0
 14 27  2  0  0  0  0
 15 18  2  0  0  0  0
 17  8  1  6  0  0  0
 17  7  1  0  0  0  0
 19 16  1  0  0  0  0
 20  1  1  0  0  0  0
 21  4  1  0  0  0  0
 21 22  1  0  0  0  0
 22 14  1  0  0  0  0
 27  5  1  0  0  0  0
 28 23  1  1  0  0  0
 28  9  1  0  0  0  0
 28  6  1  0  0  0  0
 29 20  1  0  0  0  0
 30 29  1  0  0  0  0
 31 30  2  0  0  0  0
 32 30  1  0  0  0  0
M  END
>  <MODEL>
8

>  <REMARK>
 VINA RESULT:      -8.0      1.787      9.195
  Name = 
  1 active torsions:
  status: ('A' for Active; 'I' for Inactive)
    1  A    between atoms: C_20  and  N_29
                            x       y       z     vdW  Elec       q    Type
                         _______ _______ _______ _____ _____    ______ ____

>  <TORSDO>
F 1

$$$$
=
 OpenBabel11112416293D

 32 37  0  0  1  0  0  0  0  0999 V2000
  187.4160  178.1770  142.9470 C   0  0  0  0  0  2  0  0  0  0  0  0
  190.8410  173.8380  143.8120 C   0  0  1  0  0  3  0  0  0  0  0  0
  192.8780  176.7910  147.2360 C   0  0  0  0  0  3  0  0  0  0  0  0
  194.1900  176.6850  146.5150 C   0  0  0  0  0  2  0  0  0  0  0  0
  192.4080  172.3680  142.3760 C   0  0  0  0  0  0  0  0  0  0  0  0
  193.7680  171.9140  142.0900 C   0  0  1  0  0  3  0  0  0  0  0  0
  188.9190  175.2300  143.0310 C   0  0  1  0  0  3  0  0  0  0  0  0
  189.4430  175.0300  145.4810 C   0  0  0  0  0  2  0  0  0  0  0  0
  196.0330  171.9940  142.2980 C   0  0  2  0  0  3  0  0  0  0  0  0
  187.5290  176.4150  144.7520 C   0  0  0  0  0  3  0  0  0  0  0  0
  191.8230  176.0870  146.8200 C   0  0  0  0  0  3  0  0  0  0  0  0
  190.7700  174.5620  145.0880 N   0  0  0  0  0  0  0  0  0  0  0  0
  191.9460  175.1260  145.6970 C   0  0  0  0  0  0  0  0  0  0  0  0
  193.3130  173.7750  144.1760 C   0  0  0  0  0  0  0  0  0  0  0  0
  195.7400  171.7790  141.0220 C   0  0  0  0  0  3  0  0  0  0  0  0
  188.5680  177.5720  142.1360 C   0  0  0  0  0  2  0  0  0  0  0  0
  188.9050  175.9540  144.3940 C   0  0  2  0  0  3  0  0  0  0  0  0
  194.2860  171.7720  140.8790 C   0  0  0  0  0  3  0  0  0  0  0  0
  188.3700  176.0820  141.8810 C   0  0  0  0  0  2  0  0  0  0  0  0
  186.8490  177.3720  144.1070 C   0  0  0  0  0  0  0  0  0  0  0  0
  194.4000  175.2690  145.9760 C   0  0  0  0  0  2  0  0  0  0  0  0
  193.1690  174.7700  145.2580 C   0  0  0  0  0  0  0  0  0  0  0  0
  194.6320  173.2930  143.8400 N   0  0  0  0  0  2  0  0  0  0  0  0
  190.3300  174.7470  142.6940 C   0  0  0  0  0  2  0  0  0  0  0  0
  191.4390  172.0080  141.6540 O   0  0  0  0  0  0  0  0  0  0  0  0
  197.4220  172.0350  142.8280 C   0  0  0  0  0  1  0  0  0  0  0  0
  192.2260  173.3180  143.5030 C   0  0  0  0  0  0  0  0  0  0  0  0
  194.8070  172.0260  143.1370 C   0  0  1  0  0  3  0  0  0  0  0  0
  185.5410  177.6760  144.6120 N   0  0  0  0  0  2  0  0  0  0  0  0
  185.2210  178.4980  145.7420 C   0  0  0  0  0  0  0  0  0  0  0  0
  186.1180  179.0860  146.4020 O   0  0  0  0  0  0  0  0  0  0  0  0
  183.7990  178.6650  146.1380 C   0  0  0  0  0  1  0  0  0  0  0  0
  1 20  1  0  0  0  0
  2 24  1  6  0  0  0
  2 12  1  0  0  0  0
  4  3  1  0  0  0  0
  5 27  1  0  0  0  0
  6 18  1  6  0  0  0
  6  5  1  0  0  0  0
  6 28  1  0  0  0  0
  7 19  1  6  0  0  0
  7 17  1  0  0  0  0
  9 26  1  1  0  0  0
  9 28  1  0  0  0  0
 11  3  2  0  0  0  0
 12  8  1  0  0  0  0
 12 13  1  0  0  0  0
 13 11  1  0  0  0  0
 14 22  1  0  0  0  0
 15  9  1  0  0  0  0
 16  1  1  0  0  0  0
 17 10  1  1  0  0  0
 17  8  1  0  0  0  0
 18 15  2  0  0  0  0
 19 16  1  0  0  0  0
 20 29  1  0  0  0  0
 20 10  2  0  0  0  0
 21  4  1  0  0  0  0
 22 13  2  0  0  0  0
 22 21  1  0  0  0  0
 23 14  1  0  0  0  0
 24  7  1  0  0  0  0
 25  5  2  0  0  0  0
 27  2  1  0  0  0  0
 27 14  2  0  0  0  0
 28 23  1  6  0  0  0
 29 30  1  0  0  0  0
 30 32  1  0  0  0  0
 30 31  2  0  0  0  0
M  END
>  <MODEL>
9

>  <REMARK>
 VINA RESULT:      -7.8      3.070      9.044
  Name = 
  1 active torsions:
  status: ('A' for Active; 'I' for Inactive)
    1  A    between atoms: C_20  and  N_29
                            x       y       z     vdW  Elec       q    Type
                         _______ _______ _______ _____ _____    ______ ____

>  <TORSDO>
F 1

$$$$
