=
 OpenBabel11112417473D

 34 40  0  0  1  0  0  0  0  0999 V2000
  192.1260  175.9410  145.3430 C   0  0  0  0  0  0  0  0  0  0  0  0
  189.7720  176.6410  145.9990 C   0  0  0  0  0  2  0  0  0  0  0  0
  196.8360  175.1060  140.9350 C   0  0  0  0  0  0  0  0  0  0  0  0
  194.3480  175.5830  144.4300 C   0  0  0  0  0  0  0  0  0  0  0  0
  194.5920  174.5070  142.0980 C   0  0  2  0  0  3  0  0  0  0  0  0
  195.3450  173.3350  140.0130 C   0  0  0  0  0  1  0  0  0  0  0  0
  197.2160  176.0120  140.2110 O   0  0  0  0  0  0  0  0  0  0  0  0
  197.2060  173.4900  142.8550 C   0  0  0  0  0  2  0  0  0  0  0  0
  190.0640  175.1030  144.1480 C   0  0  2  0  0  3  0  0  0  0  0  0
  188.4440  176.0840  141.6940 N   0  0  0  0  0  0  0  0  0  0  0  0
  193.1980  175.0760  141.8680 C   0  0  0  0  0  2  0  0  0  0  0  0
  196.3350  174.1690  143.9150 C   0  0  0  0  0  2  0  0  0  0  0  0
  190.8810  175.2300  142.8450 C   0  0  1  0  0  3  0  0  0  0  0  0
  188.3960  176.3530  145.4210 C   0  0  0  0  0  2  0  0  0  0  0  0
  195.2850  175.1260  143.3340 C   0  0  2  0  0  3  0  0  0  0  0  0
  197.8290  174.4980  141.8960 C   0  0  0  0  0  2  0  0  0  0  0  0
  188.3580  176.5480  142.9090 C   0  0  0  0  0  0  0  0  0  0  0  0
  192.9470  175.4670  144.3030 C   0  0  0  0  0  0  0  0  0  0  0  0
  195.4060  174.6320  140.7970 C   0  0  2  0  0  3  0  0  0  0  0  0
  192.3360  174.7970  143.0920 C   0  0  2  0  0  3  0  0  0  0  0  0
  194.0940  176.6590  146.5390 C   0  0  0  0  0  3  0  0  0  0  0  0
  188.7970  174.6950  141.4070 C   0  0  0  0  0  2  0  0  0  0  0  0
  194.8740  176.1850  145.5330 N   0  0  0  0  0  0  0  0  0  0  0  0
  190.2760  174.4080  141.6960 C   0  0  0  0  0  2  0  0  0  0  0  0
  188.6230  175.6380  144.0910 C   0  0  1  0  0  3  0  0  0  0  0  0
  192.7080  176.5470  146.4620 C   0  0  0  0  0  3  0  0  0  0  0  0
  190.7010  175.8430  145.2230 N   0  0  0  0  0  0  0  0  0  0  0  0
  188.0340  177.8910  143.1250 O   0  0  0  0  0  0  0  0  0  0  0  0
  186.9590  178.5330  142.4540 C   0  0  0  0  0  2  0  0  0  0  0  0
  183.7860  178.7910  144.1400 O   0  0  0  0  0  0  0  0  0  0  0  0
  185.8940  179.1230  144.6930 C   0  0  0  0  0  3  0  0  0  0  0  0
  185.8130  178.6910  143.3890 C   0  0  0  0  0  0  0  0  0  0  0  0
  184.5810  179.1610  145.1220 C   0  0  0  0  0  3  0  0  0  0  0  0
  184.4890  178.5040  143.0700 C   0  0  0  0  0  3  0  0  0  0  0  0
  1 26  1  0  0  0  0
  3 16  1  0  0  0  0
  4 23  2  0  0  0  0
  5 11  1  6  0  0  0
  5 15  1  0  0  0  0
  7  3  2  0  0  0  0
  8 12  1  0  0  0  0
  9 27  1  1  0  0  0
 10 17  2  0  0  0  0
 13 24  1  6  0  0  0
 13 20  1  0  0  0  0
 13  9  1  0  0  0  0
 14  2  1  0  0  0  0
 15 12  1  1  0  0  0
 15  4  1  0  0  0  0
 16  8  1  0  0  0  0
 17 28  1  0  0  0  0
 17 25  1  0  0  0  0
 18  4  1  0  0  0  0
 18  1  2  0  0  0  0
 19  6  1  1  0  0  0
 19  3  1  0  0  0  0
 19  5  1  0  0  0  0
 20 11  1  6  0  0  0
 20 18  1  0  0  0  0
 22 10  1  0  0  0  0
 22 24  1  0  0  0  0
 23 21  1  0  0  0  0
 25  9  1  0  0  0  0
 25 14  1  1  0  0  0
 26 21  2  0  0  0  0
 27  1  1  0  0  0  0
 27  2  1  0  0  0  0
 29 28  1  0  0  0  0
 29 32  1  0  0  0  0
 30 33  1  0  0  0  0
 31 33  2  0  0  0  0
 32 31  1  0  0  0  0
 34 32  2  0  0  0  0
 34 30  1  0  0  0  0
M  END
>  <MODEL>
1

>  <REMARK>
 VINA RESULT:      -8.2      0.000      0.000
  Name = 
  3 active torsions:
  status: ('A' for Active; 'I' for Inactive)
    1  A    between atoms: C_17  and  O_28
    2  A    between atoms: O_28  and  C_29
    3  A    between atoms: C_29  and  C_32
                            x       y       z     vdW  Elec       q    Type
                         _______ _______ _______ _____ _____    ______ ____

>  <TORSDO>
F 3

$$$$
=
 OpenBabel11112417473D

 34 40  0  0  1  0  0  0  0  0999 V2000
  189.3730  174.7370  142.9890 C   0  0  0  0  0  0  0  0  0  0  0  0
  191.5240  173.4250  143.3320 C   0  0  0  0  0  2  0  0  0  0  0  0
  185.5120  179.8280  144.2080 C   0  0  0  0  0  0  0  0  0  0  0  0
  187.5610  176.3320  142.7220 C   0  0  0  0  0  0  0  0  0  0  0  0
  186.6610  177.5730  144.7960 C   0  0  2  0  0  3  0  0  0  0  0  0
  185.3280  178.8520  146.4930 C   0  0  0  0  0  1  0  0  0  0  0  0
  185.8940  180.9790  144.0730 O   0  0  0  0  0  0  0  0  0  0  0  0
  184.0820  177.8610  143.4880 C   0  0  0  0  0  2  0  0  0  0  0  0
  190.2560  174.1240  145.2760 C   0  0  2  0  0  3  0  0  0  0  0  0
  192.1300  175.5230  147.3120 N   0  0  0  0  0  0  0  0  0  0  0  0
  188.0520  177.3110  145.3570 C   0  0  0  0  0  2  0  0  0  0  0  0
  185.1630  177.0050  142.8230 C   0  0  0  0  0  2  0  0  0  0  0  0
  189.7860  175.5220  145.7300 C   0  0  1  0  0  3  0  0  0  0  0  0
  192.3020  172.9960  144.5650 C   0  0  0  0  0  2  0  0  0  0  0  0
  186.5910  177.3560  143.2660 C   0  0  2  0  0  3  0  0  0  0  0  0
  184.3670  179.3520  143.3480 C   0  0  0  0  0  2  0  0  0  0  0  0
  192.5010  174.8490  146.2610 C   0  0  0  0  0  0  0  0  0  0  0  0
  188.4720  175.6540  143.5610 C   0  0  0  0  0  0  0  0  0  0  0  0
  186.1900  178.9670  145.2510 C   0  0  2  0  0  3  0  0  0  0  0  0
  188.4480  175.8710  145.0580 C   0  0  2  0  0  3  0  0  0  0  0  0
  188.4720  175.2420  140.8110 C   0  0  0  0  0  3  0  0  0  0  0  0
  190.9020  175.2190  148.0450 C   0  0  0  0  0  2  0  0  0  0  0  0
  187.5990  176.1150  141.3780 N   0  0  0  0  0  0  0  0  0  0  0  0
  189.6490  175.6230  147.2580 C   0  0  0  0  0  2  0  0  0  0  0  0
  191.6550  173.6990  145.7560 C   0  0  1  0  0  3  0  0  0  0  0  0
  189.3750  174.5390  141.6050 C   0  0  0  0  0  3  0  0  0  0  0  0
  190.3140  174.0510  143.8270 N   0  0  0  0  0  0  0  0  0  0  0  0
  193.6770  175.1940  145.5860 O   0  0  0  0  0  0  0  0  0  0  0  0
  193.9360  176.5160  145.1360 C   0  0  0  0  0  2  0  0  0  0  0  0
  191.7060  177.1680  142.3830 O   0  0  0  0  0  0  0  0  0  0  0  0
  191.8790  177.8650  144.4680 C   0  0  0  0  0  3  0  0  0  0  0  0
  192.8640  176.9420  144.1970 C   0  0  0  0  0  0  0  0  0  0  0  0
  191.1710  177.9640  143.2840 C   0  0  0  0  0  3  0  0  0  0  0  0
  192.7370  176.5350  142.8900 C   0  0  0  0  0  3  0  0  0  0  0  0
  1 18  1  0  0  0  0
  1 27  1  0  0  0  0
  2 27  1  0  0  0  0
  2 14  1  0  0  0  0
  3 19  1  0  0  0  0
  4 15  1  0  0  0  0
  4 18  2  0  0  0  0
  5 19  1  0  0  0  0
  5 11  1  6  0  0  0
  7  3  2  0  0  0  0
  9 27  1  6  0  0  0
  9 13  1  0  0  0  0
  9 25  1  0  0  0  0
 10 22  1  0  0  0  0
 12  8  1  0  0  0  0
 13 24  1  1  0  0  0
 15 12  1  1  0  0  0
 15  5  1  0  0  0  0
 16  8  1  0  0  0  0
 16  3  1  0  0  0  0
 17 10  2  0  0  0  0
 18 20  1  0  0  0  0
 19  6  1  1  0  0  0
 20 11  1  6  0  0  0
 20 13  1  0  0  0  0
 21 23  2  0  0  0  0
 21 26  1  0  0  0  0
 23  4  1  0  0  0  0
 24 22  1  0  0  0  0
 25 14  1  6  0  0  0
 25 17  1  0  0  0  0
 26  1  2  0  0  0  0
 28 17  1  0  0  0  0
 29 28  1  0  0  0  0
 30 34  1  0  0  0  0
 30 33  1  0  0  0  0
 32 31  1  0  0  0  0
 32 29  1  0  0  0  0
 33 31  2  0  0  0  0
 34 32  2  0  0  0  0
M  END
>  <MODEL>
2

>  <REMARK>
 VINA RESULT:      -7.9      2.745      8.163
  Name = 
  3 active torsions:
  status: ('A' for Active; 'I' for Inactive)
    1  A    between atoms: C_17  and  O_28
    2  A    between atoms: O_28  and  C_29
    3  A    between atoms: C_29  and  C_32
                            x       y       z     vdW  Elec       q    Type
                         _______ _______ _______ _____ _____    ______ ____

>  <TORSDO>
F 3

$$$$
=
 OpenBabel11112417473D

 34 40  0  0  1  0  0  0  0  0999 V2000
  192.6690  175.6660  146.0310 C   0  0  0  0  0  0  0  0  0  0  0  0
  195.0790  174.8550  146.0810 C   0  0  0  0  0  2  0  0  0  0  0  0
  186.9210  176.3660  143.0670 C   0  0  0  0  0  0  0  0  0  0  0  0
  190.2960  176.0980  145.7440 C   0  0  0  0  0  0  0  0  0  0  0  0
  189.4320  176.9080  143.4530 C   0  0  2  0  0  3  0  0  0  0  0  0
  188.1570  177.8860  141.5270 C   0  0  0  0  0  1  0  0  0  0  0  0
  186.3060  175.4160  142.6120 O   0  0  0  0  0  0  0  0  0  0  0  0
  187.2020  178.2210  144.7740 C   0  0  0  0  0  2  0  0  0  0  0  0
  194.3290  176.1830  144.1970 C   0  0  2  0  0  3  0  0  0  0  0  0
  195.1160  174.7880  141.5420 N   0  0  0  0  0  0  0  0  0  0  0  0
  190.6710  176.2020  142.9180 C   0  0  0  0  0  2  0  0  0  0  0  0
  188.3120  177.6010  145.6260 C   0  0  0  0  0  2  0  0  0  0  0  0
  193.1620  175.9720  143.2090 C   0  0  1  0  0  3  0  0  0  0  0  0
  196.2370  174.9560  145.1030 C   0  0  0  0  0  2  0  0  0  0  0  0
  189.1020  176.4990  144.9080 C   0  0  2  0  0  3  0  0  0  0  0  0
  186.2810  177.1630  144.1770 C   0  0  0  0  0  2  0  0  0  0  0  0
  195.5320  174.4650  142.7340 C   0  0  0  0  0  0  0  0  0  0  0  0
  191.6040  176.0810  145.2110 C   0  0  0  0  0  0  0  0  0  0  0  0
  188.2690  176.7000  142.4660 C   0  0  2  0  0  3  0  0  0  0  0  0
  191.8640  176.5500  143.7970 C   0  0  2  0  0  3  0  0  0  0  0  0
  191.1060  175.2600  147.8210 C   0  0  0  0  0  3  0  0  0  0  0  0
  194.7580  176.1580  141.1810 C   0  0  0  0  0  2  0  0  0  0  0  0
  190.0880  175.6760  147.0230 N   0  0  0  0  0  0  0  0  0  0  0  0
  193.4430  176.6000  141.8340 C   0  0  0  0  0  2  0  0  0  0  0  0
  195.6640  175.5270  143.8070 C   0  0  1  0  0  3  0  0  0  0  0  0
  192.4130  175.2460  147.3400 C   0  0  0  0  0  3  0  0  0  0  0  0
  194.0010  175.6300  145.4990 N   0  0  0  0  0  0  0  0  0  0  0  0
  195.8430  173.1350  143.0320 O   0  0  0  0  0  0  0  0  0  0  0  0
  194.9850  172.0570  142.6860 C   0  0  0  0  0  2  0  0  0  0  0  0
  192.0600  172.3880  144.7630 O   0  0  0  0  0  0  0  0  0  0  0  0
  192.4790  172.5170  142.6020 C   0  0  0  0  0  3  0  0  0  0  0  0
  193.6450  172.2730  143.2940 C   0  0  0  0  0  0  0  0  0  0  0  0
  191.5090  172.5870  143.5850 C   0  0  0  0  0  3  0  0  0  0  0  0
  193.3500  172.1870  144.6340 C   0  0  0  0  0  3  0  0  0  0  0  0
  1 26  1  0  0  0  0
  3 16  1  0  0  0  0
  4 23  2  0  0  0  0
  5 11  1  6  0  0  0
  5 15  1  0  0  0  0
  7  3  2  0  0  0  0
  8 12  1  0  0  0  0
  9 27  1  1  0  0  0
 10 17  2  0  0  0  0
 13 24  1  6  0  0  0
 13 20  1  0  0  0  0
 13  9  1  0  0  0  0
 14  2  1  0  0  0  0
 15 12  1  1  0  0  0
 15  4  1  0  0  0  0
 16  8  1  0  0  0  0
 17 28  1  0  0  0  0
 17 25  1  0  0  0  0
 18  4  1  0  0  0  0
 18  1  2  0  0  0  0
 19  6  1  1  0  0  0
 19  3  1  0  0  0  0
 19  5  1  0  0  0  0
 20 11  1  6  0  0  0
 20 18  1  0  0  0  0
 22 10  1  0  0  0  0
 22 24  1  0  0  0  0
 23 21  1  0  0  0  0
 25  9  1  0  0  0  0
 25 14  1  1  0  0  0
 26 21  2  0  0  0  0
 27  1  1  0  0  0  0
 27  2  1  0  0  0  0
 29 28  1  0  0  0  0
 29 32  1  0  0  0  0
 31 32  1  0  0  0  0
 31 33  2  0  0  0  0
 32 34  2  0  0  0  0
 33 30  1  0  0  0  0
 34 30  1  0  0  0  0
M  END
>  <MODEL>
3

>  <REMARK>
 VINA RESULT:      -7.9      2.287      7.493
  Name = 
  3 active torsions:
  status: ('A' for Active; 'I' for Inactive)
    1  A    between atoms: C_17  and  O_28
    2  A    between atoms: O_28  and  C_29
    3  A    between atoms: C_29  and  C_32
                            x       y       z     vdW  Elec       q    Type
                         _______ _______ _______ _____ _____    ______ ____

>  <TORSDO>
F 3

$$$$
=
 OpenBabel11112417473D

 34 40  0  0  1  0  0  0  0  0999 V2000
  192.5410  173.4220  142.2920 C   0  0  0  0  0  0  0  0  0  0  0  0
  194.9740  172.7800  142.6550 C   0  0  0  0  0  2  0  0  0  0  0  0
  187.6690  177.7300  142.4380 C   0  0  0  0  0  0  0  0  0  0  0  0
  190.3710  174.4160  141.8440 C   0  0  0  0  0  0  0  0  0  0  0  0
  189.3970  176.1190  143.5190 C   0  0  2  0  0  3  0  0  0  0  0  0
  187.9600  177.6330  144.9110 C   0  0  0  0  0  1  0  0  0  0  0  0
  187.7370  178.8050  141.8650 O   0  0  0  0  0  0  0  0  0  0  0  0
  186.7130  175.3930  142.6760 C   0  0  0  0  0  2  0  0  0  0  0  0
  193.7690  173.8690  144.4550 C   0  0  2  0  0  3  0  0  0  0  0  0
  195.4240  176.2530  145.5440 N   0  0  0  0  0  0  0  0  0  0  0  0
  190.8570  176.3600  143.8760 C   0  0  0  0  0  2  0  0  0  0  0  0
  187.9030  174.5890  142.1480 C   0  0  0  0  0  2  0  0  0  0  0  0
  193.0120  175.2120  144.4990 C   0  0  1  0  0  3  0  0  0  0  0  0
  195.9520  172.9910  143.7990 C   0  0  0  0  0  2  0  0  0  0  0  0
  189.2330  175.3530  142.1850 C   0  0  2  0  0  3  0  0  0  0  0  0
  186.6010  176.7570  142.0040 C   0  0  0  0  0  2  0  0  0  0  0  0
  195.8480  175.3320  144.7240 C   0  0  0  0  0  0  0  0  0  0  0  0
  191.5000  174.2850  142.6810 C   0  0  0  0  0  0  0  0  0  0  0  0
  188.6400  177.4590  143.5660 C   0  0  2  0  0  3  0  0  0  0  0  0
  191.5690  175.0200  144.0020 C   0  0  2  0  0  3  0  0  0  0  0  0
  191.3330  172.9130  140.2680 C   0  0  0  0  0  3  0  0  0  0  0  0
  194.3900  175.9980  146.5430 C   0  0  0  0  0  2  0  0  0  0  0  0
  190.3300  173.7390  140.6630 N   0  0  0  0  0  0  0  0  0  0  0  0
  193.0050  175.8300  145.9070 C   0  0  0  0  0  2  0  0  0  0  0  0
  195.2700  173.9330  144.7870 C   0  0  1  0  0  3  0  0  0  0  0  0
  192.4560  172.7400  141.0730 C   0  0  0  0  0  3  0  0  0  0  0  0
  193.7000  173.2890  143.1250 N   0  0  0  0  0  0  0  0  0  0  0  0
  196.8270  175.6360  143.7730 O   0  0  0  0  0  0  0  0  0  0  0  0
  196.6690  176.6820  142.8250 C   0  0  0  0  0  2  0  0  0  0  0  0
  195.7940  175.2610  139.6330 O   0  0  0  0  0  0  0  0  0  0  0  0
  194.6930  176.2280  141.2800 C   0  0  0  0  0  3  0  0  0  0  0  0
  196.0310  176.1440  141.5940 C   0  0  0  0  0  0  0  0  0  0  0  0
  194.6000  175.6470  140.0290 C   0  0  0  0  0  3  0  0  0  0  0  0
  196.6910  175.5480  140.5450 C   0  0  0  0  0  3  0  0  0  0  0  0
  1 18  1  0  0  0  0
  1 27  1  0  0  0  0
  2 27  1  0  0  0  0
  2 14  1  0  0  0  0
  3 19  1  0  0  0  0
  4 15  1  0  0  0  0
  4 18  2  0  0  0  0
  5 19  1  0  0  0  0
  5 11  1  6  0  0  0
  7  3  2  0  0  0  0
  9 27  1  6  0  0  0
  9 13  1  0  0  0  0
  9 25  1  0  0  0  0
 10 22  1  0  0  0  0
 12  8  1  0  0  0  0
 13 24  1  1  0  0  0
 15 12  1  1  0  0  0
 15  5  1  0  0  0  0
 16  3  1  0  0  0  0
 16  8  1  0  0  0  0
 17 25  1  0  0  0  0
 17 10  2  0  0  0  0
 18 20  1  0  0  0  0
 19  6  1  1  0  0  0
 20 11  1  6  0  0  0
 20 13  1  0  0  0  0
 21 23  2  0  0  0  0
 21 26  1  0  0  0  0
 23  4  1  0  0  0  0
 24 22  1  0  0  0  0
 25 14  1  6  0  0  0
 26  1  2  0  0  0  0
 28 17  1  0  0  0  0
 29 28  1  0  0  0  0
 30 33  1  0  0  0  0
 30 34  1  0  0  0  0
 31 32  1  0  0  0  0
 32 29  1  0  0  0  0
 33 31  2  0  0  0  0
 34 32  2  0  0  0  0
M  END
>  <MODEL>
4

>  <REMARK>
 VINA RESULT:      -7.8      2.016      8.138
  Name = 
  3 active torsions:
  status: ('A' for Active; 'I' for Inactive)
    1  A    between atoms: C_17  and  O_28
    2  A    between atoms: O_28  and  C_29
    3  A    between atoms: C_29  and  C_32
                            x       y       z     vdW  Elec       q    Type
                         _______ _______ _______ _____ _____    ______ ____

>  <TORSDO>
F 3

$$$$
=
 OpenBabel11112417473D

 34 40  0  0  1  0  0  0  0  0999 V2000
  191.7150  175.1240  142.7950 C   0  0  0  0  0  0  0  0  0  0  0  0
  189.5300  176.3820  143.1220 C   0  0  0  0  0  2  0  0  0  0  0  0
  196.5140  171.3130  144.9770 C   0  0  0  0  0  0  0  0  0  0  0  0
  193.6380  173.6410  142.7540 C   0  0  0  0  0  0  0  0  0  0  0  0
  195.1980  173.5470  144.8060 C   0  0  2  0  0  3  0  0  0  0  0  0
  197.0870  173.2540  146.4310 C   0  0  0  0  0  1  0  0  0  0  0  0
  196.2980  170.2240  145.4830 O   0  0  0  0  0  0  0  0  0  0  0  0
  197.3960  172.7490  143.0820 C   0  0  0  0  0  2  0  0  0  0  0  0
  191.3240  176.7160  144.7180 C   0  0  2  0  0  3  0  0  0  0  0  0
  190.2450  176.3880  147.6050 N   0  0  0  0  0  0  0  0  0  0  0  0
  193.9600  174.0040  145.5660 C   0  0  0  0  0  2  0  0  0  0  0  0
  196.0650  173.1610  142.4490 C   0  0  0  0  0  2  0  0  0  0  0  0
  192.1060  175.7090  145.5880 C   0  0  1  0  0  3  0  0  0  0  0  0
  189.0150  177.3200  144.2010 C   0  0  0  0  0  2  0  0  0  0  0  0
  194.8610  173.0200  143.3910 C   0  0  2  0  0  3  0  0  0  0  0  0
  197.3260  171.3600  143.7070 C   0  0  0  0  0  2  0  0  0  0  0  0
  189.5280  176.4780  146.5200 C   0  0  0  0  0  0  0  0  0  0  0  0
  192.8610  174.6090  143.4270 C   0  0  0  0  0  0  0  0  0  0  0  0
  195.9790  172.5440  145.6760 C   0  0  2  0  0  3  0  0  0  0  0  0
  193.2810  175.1220  144.7870 C   0  0  2  0  0  3  0  0  0  0  0  0
  192.1320  173.6780  140.9100 C   0  0  0  0  0  3  0  0  0  0  0  0
  191.5490  177.0340  147.7390 C   0  0  0  0  0  2  0  0  0  0  0  0
  193.2430  173.1990  141.5280 N   0  0  0  0  0  0  0  0  0  0  0  0
  192.6220  176.3430  146.8900 C   0  0  0  0  0  2  0  0  0  0  0  0
  190.0340  177.2780  145.3380 C   0  0  1  0  0  3  0  0  0  0  0  0
  191.3480  174.6470  141.5320 C   0  0  0  0  0  3  0  0  0  0  0  0
  190.9080  176.0970  143.4720 N   0  0  0  0  0  0  0  0  0  0  0  0
  188.2940  175.8230  146.4390 O   0  0  0  0  0  0  0  0  0  0  0  0
  187.2660  176.0140  147.4000 C   0  0  0  0  0  2  0  0  0  0  0  0
  184.9370  178.6930  146.7930 O   0  0  0  0  0  0  0  0  0  0  0  0
  185.5950  176.9000  145.6930 C   0  0  0  0  0  3  0  0  0  0  0  0
  186.2780  176.9980  146.8840 C   0  0  0  0  0  0  0  0  0  0  0  0
  184.7640  178.0050  145.6860 C   0  0  0  0  0  3  0  0  0  0  0  0
  185.8390  178.1170  147.5510 C   0  0  0  0  0  3  0  0  0  0  0  0
  1 18  1  0  0  0  0
  1 27  1  0  0  0  0
  2 27  1  0  0  0  0
  2 14  1  0  0  0  0
  3  7  2  0  0  0  0
  3 19  1  0  0  0  0
  4 15  1  0  0  0  0
  4 18  2  0  0  0  0
  5 11  1  1  0  0  0
  5 19  1  0  0  0  0
  8 16  1  0  0  0  0
  9 27  1  6  0  0  0
  9 25  1  0  0  0  0
  9 13  1  0  0  0  0
 10 22  1  0  0  0  0
 12  8  1  0  0  0  0
 13 24  1  1  0  0  0
 15 12  1  6  0  0  0
 15  5  1  0  0  0  0
 16  3  1  0  0  0  0
 17 10  2  0  0  0  0
 18 20  1  0  0  0  0
 19  6  1  6  0  0  0
 20 11  1  1  0  0  0
 20 13  1  0  0  0  0
 21 23  2  0  0  0  0
 21 26  1  0  0  0  0
 23  4  1  0  0  0  0
 24 22  1  0  0  0  0
 25 14  1  6  0  0  0
 25 17  1  0  0  0  0
 26  1  2  0  0  0  0
 28 17  1  0  0  0  0
 28 29  1  0  0  0  0
 30 34  1  0  0  0  0
 31 32  1  0  0  0  0
 32 29  1  0  0  0  0
 32 34  2  0  0  0  0
 33 31  2  0  0  0  0
 33 30  1  0  0  0  0
M  END
>  <MODEL>
5

>  <REMARK>
 VINA RESULT:      -7.8      2.491      4.233
  Name = 
  3 active torsions:
  status: ('A' for Active; 'I' for Inactive)
    1  A    between atoms: C_17  and  O_28
    2  A    between atoms: O_28  and  C_29
    3  A    between atoms: C_29  and  C_32
                            x       y       z     vdW  Elec       q    Type
                         _______ _______ _______ _____ _____    ______ ____

>  <TORSDO>
F 3

$$$$
=
 OpenBabel11112417473D

 34 40  0  0  1  0  0  0  0  0999 V2000
  191.1470  173.5130  142.2110 C   0  0  0  0  0  0  0  0  0  0  0  0
  188.6490  173.9200  142.4550 C   0  0  0  0  0  2  0  0  0  0  0  0
  197.3070  174.3970  144.1070 C   0  0  0  0  0  0  0  0  0  0  0  0
  193.5420  173.1540  142.4010 C   0  0  0  0  0  0  0  0  0  0  0  0
  195.0680  175.1390  143.0180 C   0  0  2  0  0  3  0  0  0  0  0  0
  196.9520  176.7540  143.3810 C   0  0  0  0  0  1  0  0  0  0  0  0
  197.6750  174.1660  145.2460 O   0  0  0  0  0  0  0  0  0  0  0  0
  197.2740  173.8580  141.6280 C   0  0  0  0  0  2  0  0  0  0  0  0
  190.1470  175.8260  142.4090 C   0  0  2  0  0  3  0  0  0  0  0  0
  189.5290  177.7130  144.7890 N   0  0  0  0  0  0  0  0  0  0  0  0
  193.8100  175.6950  143.6700 C   0  0  0  0  0  2  0  0  0  0  0  0
  195.8760  173.2440  141.5310 C   0  0  0  0  0  2  0  0  0  0  0  0
  191.3670  176.1770  143.2870 C   0  0  1  0  0  3  0  0  0  0  0  0
  187.8080  175.1690  142.6600 C   0  0  0  0  0  2  0  0  0  0  0  0
  194.9470  173.6320  142.6890 C   0  0  2  0  0  3  0  0  0  0  0  0
  197.9210  173.5970  142.9840 C   0  0  0  0  0  2  0  0  0  0  0  0
  188.7970  176.7110  144.3900 C   0  0  0  0  0  0  0  0  0  0  0  0
  192.4340  174.0270  142.4570 C   0  0  0  0  0  0  0  0  0  0  0  0
  196.2850  175.4920  143.8920 C   0  0  2  0  0  3  0  0  0  0  0  0
  192.6300  175.5030  142.7260 C   0  0  2  0  0  3  0  0  0  0  0  0
  192.1020  171.3180  141.9240 C   0  0  0  0  0  3  0  0  0  0  0  0
  190.3630  178.4880  143.8730 C   0  0  0  0  0  2  0  0  0  0  0  0
  193.3400  171.8300  142.1500 N   0  0  0  0  0  0  0  0  0  0  0  0
  191.5860  177.6940  143.3990 C   0  0  0  0  0  2  0  0  0  0  0  0
  188.7840  176.3120  142.9290 C   0  0  1  0  0  3  0  0  0  0  0  0
  190.9850  172.1490  141.9510 C   0  0  0  0  0  3  0  0  0  0  0  0
  190.0110  174.3860  142.2780 N   0  0  0  0  0  0  0  0  0  0  0  0
  188.0310  175.9900  145.3130 O   0  0  0  0  0  0  0  0  0  0  0  0
  187.8180  176.4430  146.6430 C   0  0  0  0  0  2  0  0  0  0  0  0
  185.0430  178.6460  147.2900 O   0  0  0  0  0  0  0  0  0  0  0  0
  185.3440  176.7910  146.1370 C   0  0  0  0  0  3  0  0  0  0  0  0
  186.5310  177.1830  146.7160 C   0  0  0  0  0  0  0  0  0  0  0  0
  184.4380  177.7590  146.5290 C   0  0  0  0  0  3  0  0  0  0  0  0
  186.3090  178.3340  147.4350 C   0  0  0  0  0  3  0  0  0  0  0  0
  1 27  1  0  0  0  0
  1 18  1  0  0  0  0
  2 14  1  0  0  0  0
  3  7  2  0  0  0  0
  4 18  2  0  0  0  0
  4 15  1  0  0  0  0
  5 11  1  1  0  0  0
  5 19  1  0  0  0  0
  8 16  1  0  0  0  0
  9 27  1  1  0  0  0
  9 25  1  0  0  0  0
  9 13  1  0  0  0  0
 12  8  1  0  0  0  0
 13 24  1  6  0  0  0
 15 12  1  6  0  0  0
 15  5  1  0  0  0  0
 16  3  1  0  0  0  0
 17 10  2  0  0  0  0
 17 28  1  0  0  0  0
 18 20  1  0  0  0  0
 19  6  1  6  0  0  0
 19  3  1  0  0  0  0
 20 13  1  0  0  0  0
 20 11  1  1  0  0  0
 21 26  1  0  0  0  0
 21 23  2  0  0  0  0
 22 10  1  0  0  0  0
 23  4  1  0  0  0  0
 24 22  1  0  0  0  0
 25 14  1  1  0  0  0
 25 17  1  0  0  0  0
 26  1  2  0  0  0  0
 27  2  1  0  0  0  0
 28 29  1  0  0  0  0
 29 32  1  0  0  0  0
 30 34  1  0  0  0  0
 31 33  2  0  0  0  0
 31 32  1  0  0  0  0
 32 34  2  0  0  0  0
 33 30  1  0  0  0  0
M  END
>  <MODEL>
6

>  <REMARK>
 VINA RESULT:      -7.7      2.355      3.644
  Name = 
  3 active torsions:
  status: ('A' for Active; 'I' for Inactive)
    1  A    between atoms: C_17  and  O_28
    2  A    between atoms: O_28  and  C_29
    3  A    between atoms: C_29  and  C_32
                            x       y       z     vdW  Elec       q    Type
                         _______ _______ _______ _____ _____    ______ ____

>  <TORSDO>
F 3

$$$$
=
 OpenBabel11112417473D

 34 40  0  0  1  0  0  0  0  0999 V2000
  189.4120  174.8710  142.9960 C   0  0  0  0  0  0  0  0  0  0  0  0
  191.6010  173.6050  143.2550 C   0  0  0  0  0  2  0  0  0  0  0  0
  185.5280  179.9240  144.2980 C   0  0  0  0  0  0  0  0  0  0  0  0
  187.5590  176.4280  142.7880 C   0  0  0  0  0  0  0  0  0  0  0  0
  186.7460  177.7040  144.8770 C   0  0  2  0  0  3  0  0  0  0  0  0
  185.4810  179.0000  146.6120 C   0  0  0  0  0  1  0  0  0  0  0  0
  185.8810  181.0780  144.1170 O   0  0  0  0  0  0  0  0  0  0  0  0
  184.0980  177.9160  143.7000 C   0  0  0  0  0  2  0  0  0  0  0  0
  190.4250  174.3290  145.2470 C   0  0  2  0  0  3  0  0  0  0  0  0
  192.3760  175.8080  147.1480 N   0  0  0  0  0  0  0  0  0  0  0  0
  188.1690  177.4780  145.3700 C   0  0  0  0  0  2  0  0  0  0  0  0
  185.1580  177.0630  143.0000 C   0  0  0  0  0  2  0  0  0  0  0  0
  189.9530  175.7290  145.6920 C   0  0  1  0  0  3  0  0  0  0  0  0
  192.4510  173.2190  144.4540 C   0  0  0  0  0  2  0  0  0  0  0  0
  186.6000  177.4480  143.3580 C   0  0  2  0  0  3  0  0  0  0  0  0
  184.3480  179.4070  143.5110 C   0  0  0  0  0  2  0  0  0  0  0  0
  192.7050  175.1150  146.0940 C   0  0  0  0  0  0  0  0  0  0  0  0
  188.5260  175.7860  143.5930 C   0  0  0  0  0  0  0  0  0  0  0  0
  186.2750  179.1000  145.3240 C   0  0  2  0  0  3  0  0  0  0  0  0
  188.5750  176.0390  145.0840 C   0  0  2  0  0  3  0  0  0  0  0  0
  188.3880  175.3090  140.8570 C   0  0  0  0  0  3  0  0  0  0  0  0
  191.1940  175.5010  147.9510 C   0  0  0  0  0  2  0  0  0  0  0  0
  187.5310  176.1800  141.4490 N   0  0  0  0  0  0  0  0  0  0  0  0
  189.8950  175.8640  147.2220 C   0  0  0  0  0  2  0  0  0  0  0  0
  191.8540  173.9390  145.6610 C   0  0  1  0  0  3  0  0  0  0  0  0
  189.3440  174.6400  141.6180 C   0  0  0  0  0  3  0  0  0  0  0  0
  190.4070  174.2220  143.7990 N   0  0  0  0  0  0  0  0  0  0  0  0
  193.8360  175.4640  145.3500 O   0  0  0  0  0  0  0  0  0  0  0  0
  195.1560  175.1930  145.8000 C   0  0  0  0  0  2  0  0  0  0  0  0
  197.8140  175.0280  143.3740 O   0  0  0  0  0  0  0  0  0  0  0  0
  196.0910  176.3560  143.7330 C   0  0  0  0  0  3  0  0  0  0  0  0
  196.1080  175.3450  144.6680 C   0  0  0  0  0  0  0  0  0  0  0  0
  197.1900  176.1010  142.9350 C   0  0  0  0  0  3  0  0  0  0  0  0
  197.1980  174.5420  144.4250 C   0  0  0  0  0  3  0  0  0  0  0  0
  1 18  1  0  0  0  0
  1 27  1  0  0  0  0
  2 27  1  0  0  0  0
  2 14  1  0  0  0  0
  3 19  1  0  0  0  0
  4 15  1  0  0  0  0
  4 18  2  0  0  0  0
  5 19  1  0  0  0  0
  5 11  1  6  0  0  0
  7  3  2  0  0  0  0
  9 27  1  6  0  0  0
  9 25  1  0  0  0  0
  9 13  1  0  0  0  0
 10 22  1  0  0  0  0
 12  8  1  0  0  0  0
 13 24  1  1  0  0  0
 15 12  1  1  0  0  0
 15  5  1  0  0  0  0
 16  8  1  0  0  0  0
 16  3  1  0  0  0  0
 17 10  2  0  0  0  0
 18 20  1  0  0  0  0
 19  6  1  1  0  0  0
 20 11  1  6  0  0  0
 20 13  1  0  0  0  0
 21 23  2  0  0  0  0
 21 26  1  0  0  0  0
 23  4  1  0  0  0  0
 24 22  1  0  0  0  0
 25 14  1  6  0  0  0
 25 17  1  0  0  0  0
 26  1  2  0  0  0  0
 28 29  1  0  0  0  0
 28 17  1  0  0  0  0
 30 34  1  0  0  0  0
 31 32  1  0  0  0  0
 32 29  1  0  0  0  0
 33 30  1  0  0  0  0
 33 31  2  0  0  0  0
 34 32  2  0  0  0  0
M  END
>  <MODEL>
7

>  <REMARK>
 VINA RESULT:      -7.7      2.052      9.095
  Name = 
  3 active torsions:
  status: ('A' for Active; 'I' for Inactive)
    1  A    between atoms: C_17  and  O_28
    2  A    between atoms: O_28  and  C_29
    3  A    between atoms: C_29  and  C_32
                            x       y       z     vdW  Elec       q    Type
                         _______ _______ _______ _____ _____    ______ ____

>  <TORSDO>
F 3

$$$$
=
 OpenBabel11112417473D

 34 40  0  0  1  0  0  0  0  0999 V2000
  187.8540  175.3170  140.6630 C   0  0  0  0  0  0  0  0  0  0  0  0
  188.4090  174.1520  138.4720 C   0  0  0  0  0  2  0  0  0  0  0  0
  189.2770  176.9750  146.7900 C   0  0  0  0  0  0  0  0  0  0  0  0
  187.7420  176.4940  142.7840 C   0  0  0  0  0  0  0  0  0  0  0  0
  188.5660  175.3130  144.9240 C   0  0  2  0  0  3  0  0  0  0  0  0
  189.0400  174.5400  147.2630 C   0  0  0  0  0  1  0  0  0  0  0  0
  190.3140  177.5480  147.0830 O   0  0  0  0  0  0  0  0  0  0  0  0
  186.7570  176.9450  146.5060 C   0  0  0  0  0  2  0  0  0  0  0  0
  188.5730  172.8980  140.5400 C   0  0  2  0  0  3  0  0  0  0  0  0
  191.3110  171.4500  140.6820 N   0  0  0  0  0  0  0  0  0  0  0  0
  189.4290  174.5140  143.9570 C   0  0  0  0  0  2  0  0  0  0  0  0
  186.6830  177.0170  144.9790 C   0  0  0  0  0  2  0  0  0  0  0  0
  189.3790  173.1690  141.8270 C   0  0  1  0  0  3  0  0  0  0  0  0
  188.9230  172.7650  138.1260 C   0  0  0  0  0  2  0  0  0  0  0  0
  187.9770  176.5880  144.2750 C   0  0  2  0  0  3  0  0  0  0  0  0
  187.9720  177.6830  147.0560 C   0  0  0  0  0  2  0  0  0  0  0  0
  190.8060  172.0410  139.6360 C   0  0  0  0  0  0  0  0  0  0  0  0
  188.0660  175.3300  142.0540 C   0  0  0  0  0  0  0  0  0  0  0  0
  189.3700  175.5810  146.2100 C   0  0  2  0  0  3  0  0  0  0  0  0
  188.5840  174.0970  142.7610 C   0  0  2  0  0  3  0  0  0  0  0  0
  187.0740  177.5960  140.7820 C   0  0  0  0  0  3  0  0  0  0  0  0
  190.4790  170.8290  141.7110 C   0  0  0  0  0  2  0  0  0  0  0  0
  187.2710  177.5890  142.1260 N   0  0  0  0  0  0  0  0  0  0  0  0
  189.7490  171.8720  142.5660 C   0  0  0  0  0  2  0  0  0  0  0  0
  189.3040  172.0990  139.4470 C   0  0  1  0  0  3  0  0  0  0  0  0
  187.3620  176.4610  140.0260 C   0  0  0  0  0  3  0  0  0  0  0  0
  188.1910  174.1470  139.9060 N   0  0  0  0  0  0  0  0  0  0  0  0
  191.6480  172.6360  138.6910 O   0  0  0  0  0  0  0  0  0  0  0  0
  192.5850  173.6470  139.0360 C   0  0  0  0  0  2  0  0  0  0  0  0
  193.7930  175.9370  136.5320 O   0  0  0  0  0  0  0  0  0  0  0  0
  191.9790  174.7130  136.8020 C   0  0  0  0  0  3  0  0  0  0  0  0
  192.8450  174.5080  137.8520 C   0  0  0  0  0  0  0  0  0  0  0  0
  192.6350  175.6220  135.9930 C   0  0  0  0  0  3  0  0  0  0  0  0
  193.9590  175.2910  137.6620 C   0  0  0  0  0  3  0  0  0  0  0  0
  1 18  1  0  0  0  0
  2 27  1  0  0  0  0
  3 16  1  0  0  0  0
  3  7  2  0  0  0  0
  4 15  1  0  0  0  0
  5 11  1  6  0  0  0
  5 19  1  0  0  0  0
  8 16  1  0  0  0  0
  9 27  1  6  0  0  0
  9 13  1  0  0  0  0
 10 22  1  0  0  0  0
 12  8  1  0  0  0  0
 13 24  1  1  0  0  0
 13 20  1  0  0  0  0
 14  2  1  0  0  0  0
 15  5  1  0  0  0  0
 15 12  1  1  0  0  0
 17 10  2  0  0  0  0
 18 20  1  0  0  0  0
 18  4  2  0  0  0  0
 19  3  1  0  0  0  0
 19  6  1  1  0  0  0
 20 11  1  1  0  0  0
 21 23  2  0  0  0  0
 22 24  1  0  0  0  0
 23  4  1  0  0  0  0
 25 14  1  6  0  0  0
 25 17  1  0  0  0  0
 25  9  1  0  0  0  0
 26  1  2  0  0  0  0
 26 21  1  0  0  0  0
 27  1  1  0  0  0  0
 28 29  1  0  0  0  0
 28 17  1  0  0  0  0
 30 34  1  0  0  0  0
 31 32  1  0  0  0  0
 32 29  1  0  0  0  0
 33 30  1  0  0  0  0
 33 31  2  0  0  0  0
 34 32  2  0  0  0  0
M  END
>  <MODEL>
8

>  <REMARK>
 VINA RESULT:      -7.7      3.928      8.267
  Name = 
  3 active torsions:
  status: ('A' for Active; 'I' for Inactive)
    1  A    between atoms: C_17  and  O_28
    2  A    between atoms: O_28  and  C_29
    3  A    between atoms: C_29  and  C_32
                            x       y       z     vdW  Elec       q    Type
                         _______ _______ _______ _____ _____    ______ ____

>  <TORSDO>
F 3

$$$$
=
 OpenBabel11112417473D

 34 40  0  0  1  0  0  0  0  0999 V2000
  190.0700  173.1120  143.5340 C   0  0  0  0  0  0  0  0  0  0  0  0
  189.5800  174.8020  145.3700 C   0  0  0  0  0  2  0  0  0  0  0  0
  191.5720  171.6070  137.3860 C   0  0  0  0  0  0  0  0  0  0  0  0
  190.8000  171.7940  141.6290 C   0  0  0  0  0  0  0  0  0  0  0  0
  189.9820  172.4340  139.2680 C   0  0  2  0  0  3  0  0  0  0  0  0
  189.3170  172.5230  136.8510 C   0  0  0  0  0  1  0  0  0  0  0  0
  192.5560  172.0630  136.8280 O   0  0  0  0  0  0  0  0  0  0  0  0
  190.3010  169.6720  138.4240 C   0  0  0  0  0  2  0  0  0  0  0  0
  188.3740  174.9680  143.2740 C   0  0  2  0  0  3  0  0  0  0  0  0
  188.5030  177.8760  142.2080 N   0  0  0  0  0  0  0  0  0  0  0  0
  189.8350  173.8240  139.8710 C   0  0  0  0  0  2  0  0  0  0  0  0
  190.4850  170.0250  139.9010 C   0  0  0  0  0  2  0  0  0  0  0  0
  188.8790  175.1000  141.8220 C   0  0  1  0  0  3  0  0  0  0  0  0
  188.6880  176.0290  145.4510 C   0  0  0  0  0  2  0  0  0  0  0  0
  190.8440  171.4970  140.1470 C   0  0  2  0  0  3  0  0  0  0  0  0
  191.4910  170.1120  137.5790 C   0  0  0  0  0  2  0  0  0  0  0  0
  188.8620  177.4740  143.3950 C   0  0  0  0  0  0  0  0  0  0  0  0
  190.0430  172.8670  142.1490 C   0  0  0  0  0  0  0  0  0  0  0  0
  190.4840  172.5660  137.8180 C   0  0  2  0  0  3  0  0  0  0  0  0
  189.1750  173.7080  141.2390 C   0  0  2  0  0  3  0  0  0  0  0  0
  191.6140  171.2810  143.8070 C   0  0  0  0  0  3  0  0  0  0  0  0
  187.4440  177.2190  141.4450 C   0  0  0  0  0  2  0  0  0  0  0  0
  191.5690  171.0470  142.4700 N   0  0  0  0  0  0  0  0  0  0  0  0
  187.8790  175.8450  140.9230 C   0  0  0  0  0  2  0  0  0  0  0  0
  188.1730  176.2880  144.0370 C   0  0  1  0  0  3  0  0  0  0  0  0
  190.8680  172.3170  144.3630 C   0  0  0  0  0  3  0  0  0  0  0  0
  189.3160  174.2070  144.0740 N   0  0  0  0  0  0  0  0  0  0  0  0
  189.8960  178.1270  144.0730 O   0  0  0  0  0  0  0  0  0  0  0  0
  191.1910  178.2900  143.5120 C   0  0  0  0  0  2  0  0  0  0  0  0
  193.2990  175.6310  144.7200 O   0  0  0  0  0  0  0  0  0  0  0  0
  192.2570  176.0780  142.8300 C   0  0  0  0  0  3  0  0  0  0  0  0
  191.9960  177.0640  143.7550 C   0  0  0  0  0  0  0  0  0  0  0  0
  193.0820  175.1930  143.4990 C   0  0  0  0  0  3  0  0  0  0  0  0
  192.6670  176.7630  144.9170 C   0  0  0  0  0  3  0  0  0  0  0  0
  1 27  1  0  0  0  0
  1 26  1  0  0  0  0
  2 14  1  0  0  0  0
  3 16  1  0  0  0  0
  3 19  1  0  0  0  0
  4 18  1  0  0  0  0
  4 23  2  0  0  0  0
  5 11  1  1  0  0  0
  5 15  1  0  0  0  0
  7  3  2  0  0  0  0
  8 12  1  0  0  0  0
  9 25  1  0  0  0  0
  9 27  1  1  0  0  0
 10 17  2  0  0  0  0
 13 24  1  6  0  0  0
 13  9  1  0  0  0  0
 15 12  1  1  0  0  0
 15  4  1  0  0  0  0
 16  8  1  0  0  0  0
 17 25  1  0  0  0  0
 17 28  1  0  0  0  0
 18  1  2  0  0  0  0
 19  6  1  6  0  0  0
 19  5  1  0  0  0  0
 20 11  1  6  0  0  0
 20 13  1  0  0  0  0
 20 18  1  0  0  0  0
 21 26  2  0  0  0  0
 22 10  1  0  0  0  0
 23 21  1  0  0  0  0
 24 22  1  0  0  0  0
 25 14  1  1  0  0  0
 27  2  1  0  0  0  0
 29 32  1  0  0  0  0
 29 28  1  0  0  0  0
 30 34  1  0  0  0  0
 31 33  2  0  0  0  0
 31 32  1  0  0  0  0
 32 34  2  0  0  0  0
 33 30  1  0  0  0  0
M  END
>  <MODEL>
9

>  <REMARK>
 VINA RESULT:      -7.6      3.318      5.764
  Name = 
  3 active torsions:
  status: ('A' for Active; 'I' for Inactive)
    1  A    between atoms: C_17  and  O_28
    2  A    between atoms: O_28  and  C_29
    3  A    between atoms: C_29  and  C_32
                            x       y       z     vdW  Elec       q    Type
                         _______ _______ _______ _____ _____    ______ ____

>  <TORSDO>
F 3

$$$$
