=
 OpenBabel11112417153D

 37 43  0  0  1  0  0  0  0  0999 V2000
  191.4910  172.9640  143.1790 C   0  0  0  0  0  2  0  0  0  0  0  0
  194.4510  176.4920  145.5090 C   0  0  0  0  0  0  0  0  0  0  0  0
  190.2320  175.5740  145.8730 C   0  0  1  0  0  3  0  0  0  0  0  0
  191.1980  171.9220  142.0920 C   0  0  2  0  0  3  0  0  0  0  0  0
  188.9150  176.5970  142.4280 C   0  0  0  0  0  2  0  0  0  0  0  0
  192.2880  176.7910  146.7800 C   0  0  1  0  0  3  0  0  0  0  0  0
  189.9460  175.4640  144.3760 C   0  0  1  0  0  3  0  0  0  0  0  0
  188.9790  172.8810  141.2110 C   0  0  2  0  0  3  0  0  0  0  0  0
  191.7520  175.5700  146.0140 C   0  0  2  0  0  3  0  0  0  0  0  0
  188.9820  176.4910  143.9020 N   0  0  2  0  0  0  0  0  0  0  0  0
  191.6030  176.9080  148.1410 C   0  0  0  0  0  2  0  0  0  0  0  0
  189.6850  171.7270  141.9340 C   0  0  0  0  0  2  0  0  0  0  0  0
  192.3720  175.3800  144.6870 N   0  0  2  0  0  0  0  0  0  0  0  0
  195.3060  175.2400  145.5420 C   0  0  0  0  0  1  0  0  0  0  0  0
  188.1730  176.9260  146.4790 O   0  0  0  0  0  0  0  0  0  0  0  0
  190.0670  176.9510  148.0130 C   0  0  0  0  0  2  0  0  0  0  0  0
  193.4110  176.3740  144.3780 C   0  0  0  0  0  2  0  0  0  0  0  0
  189.3430  174.1980  141.8860 C   0  0  2  0  0  3  0  0  0  0  0  0
  188.3690  175.3490  141.7160 C   0  0  0  0  0  2  0  0  0  0  0  0
  189.5850  176.8070  146.5660 C   0  0  1  0  0  3  0  0  0  0  0  0
  191.3190  175.5140  143.6820 C   0  0  1  0  0  3  0  0  0  0  0  0
  193.8010  176.6910  146.8880 C   0  0  0  0  0  2  0  0  0  0  0  0
  187.6350  176.2130  144.4500 C   0  0  1  0  0  3  0  0  0  0  0  0
  195.3450  177.6780  145.2170 C   0  0  0  0  0  1  0  0  0  0  0  0
  190.6350  174.5880  141.5040 O   0  0  0  0  0  0  0  0  0  0  0  0
  187.6010  172.6650  141.2680 O   0  0  0  0  0  1  0  0  0  0  0  0
  191.4810  174.4050  142.6180 C   0  0  2  0  0  3  0  0  0  0  0  0
  187.6760  175.8820  145.8270 O   0  0  0  0  0  0  0  0  0  0  0  0
  186.8050  178.5490  144.8210 C   0  0  0  0  0  3  0  0  0  0  0  0
  186.6490  177.3190  144.1740 C   0  0  0  0  0  0  0  0  0  0  0  0
  185.5980  177.1450  143.2610 C   0  0  0  0  0  3  0  0  0  0  0  0
  183.3940  177.9660  141.8740 Cl  0  0  0  0  0  0  0  0  0  0  0  0
  184.8620  179.4160  143.6650 C   0  0  0  0  0  3  0  0  0  0  0  0
  184.7050  178.1910  143.0100 C   0  0  0  0  0  0  0  0  0  0  0  0
  185.9120  179.5950  144.5700 C   0  0  0  0  0  3  0  0  0  0  0  0
  192.2860  170.6560  143.7970 O   0  0  0  0  0  1  0  0  0  0  0  0
  191.8200  170.5950  142.4830 C   0  0  0  0  0  2  0  0  0  0  0  0
  2 14  1  0  0  0  0
  2 22  1  0  0  0  0
  3  9  1  0  0  0  0
  3 20  1  0  0  0  0
  4 37  1  0  0  0  0
  4  1  1  0  0  0  0
  5 10  1  0  0  0  0
  6 22  1  0  0  0  0
  6 11  1  0  0  0  0
  7  3  1  0  0  0  0
  8 26  1  0  0  0  0
  8 18  1  0  0  0  0
  8 12  1  0  0  0  0
  9  6  1  0  0  0  0
 10  7  1  0  0  0  0
 10 23  1  0  0  0  0
 12  4  1  0  0  0  0
 13  9  1  0  0  0  0
 15 20  1  0  0  0  0
 16 11  1  0  0  0  0
 17 13  1  0  0  0  0
 17  2  1  0  0  0  0
 19 18  1  0  0  0  0
 19  5  1  0  0  0  0
 20 16  1  0  0  0  0
 21  7  1  0  0  0  0
 21 13  1  0  0  0  0
 23 28  1  0  0  0  0
 24  2  1  0  0  0  0
 25 18  1  0  0  0  0
 25 27  1  0  0  0  0
 27  1  1  0  0  0  0
 27 21  1  0  0  0  0
 28 15  1  0  0  0  0
 30 23  1  0  0  0  0
 30 29  2  0  0  0  0
 31 30  1  0  0  0  0
 32 34  1  0  0  0  0
 33 35  2  0  0  0  0
 34 31  2  0  0  0  0
 34 33  1  0  0  0  0
 35 29  1  0  0  0  0
 37 36  1  0  0  0  0
M  END
>  <MODEL>
1

>  <REMARK>
 VINA RESULT:      -8.9      0.000      0.000
  Name = 
  2 active torsions:
  status: ('A' for Active; 'I' for Inactive)
    1  A    between atoms: C_4  and  C_37
    2  A    between atoms: C_23  and  C_30
                            x       y       z     vdW  Elec       q    Type
                         _______ _______ _______ _____ _____    ______ ____

>  <TORSDO>
F 2

$$$$
=
 OpenBabel11112417153D

 37 43  0  0  1  0  0  0  0  0999 V2000
  194.1370  174.4790  144.0300 C   0  0  0  0  0  2  0  0  0  0  0  0
  191.3450  170.9680  141.4780 C   0  0  0  0  0  0  0  0  0  0  0  0
  190.5400  175.1010  142.5010 C   0  0  1  0  0  3  0  0  0  0  0  0
  195.2940  174.9140  144.9380 C   0  0  2  0  0  3  0  0  0  0  0  0
  190.2650  174.9170  146.3130 C   0  0  0  0  0  2  0  0  0  0  0  0
  189.9120  173.0230  141.1520 C   0  0  1  0  0  3  0  0  0  0  0  0
  191.0100  175.0170  143.9520 C   0  0  1  0  0  3  0  0  0  0  0  0
  193.9420  176.1850  146.7210 C   0  0  2  0  0  3  0  0  0  0  0  0
  191.0380  173.8270  141.8220 C   0  0  2  0  0  3  0  0  0  0  0  0
  189.9140  175.2780  144.9220 N   0  0  2  0  0  0  0  0  0  0  0  0
  189.1350  173.9060  140.1770 C   0  0  0  0  0  2  0  0  0  0  0  0
  194.9780  176.2650  145.5930 C   0  0  0  0  0  2  0  0  0  0  0  0
  191.8460  173.0410  142.7760 N   0  0  2  0  0  0  0  0  0  0  0  0
  192.7390  170.7880  140.9090 C   0  0  0  0  0  1  0  0  0  0  0  0
  188.4290  176.4360  142.9380 O   0  0  0  0  0  0  0  0  0  0  0  0
  188.5920  175.1790  140.8570 C   0  0  0  0  0  2  0  0  0  0  0  0
  191.4370  171.6300  142.8660 C   0  0  0  0  0  2  0  0  0  0  0  0
  192.6980  175.4630  146.2150 C   0  0  2  0  0  3  0  0  0  0  0  0
  191.3950  175.7560  146.9330 C   0  0  0  0  0  2  0  0  0  0  0  0
  189.0070  175.2930  142.3270 C   0  0  1  0  0  3  0  0  0  0  0  0
  191.6730  173.6360  144.1000 C   0  0  1  0  0  3  0  0  0  0  0  0
  190.5020  171.7890  140.4890 C   0  0  0  0  0  2  0  0  0  0  0  0
  189.5080  176.7000  144.8570 C   0  0  1  0  0  3  0  0  0  0  0  0
  190.7110  169.6020  141.6390 C   0  0  0  0  0  1  0  0  0  0  0  0
  192.9340  174.0810  146.1680 O   0  0  0  0  0  0  0  0  0  0  0  0
  193.6250  177.4820  147.1270 O   0  0  0  0  0  1  0  0  0  0  0  0
  193.0430  173.7140  144.8100 C   0  0  2  0  0  3  0  0  0  0  0  0
  189.3770  177.1580  143.5220 O   0  0  0  0  0  0  0  0  0  0  0  0
  187.0810  176.3270  145.3660 C   0  0  0  0  0  3  0  0  0  0  0  0
  188.2730  176.9950  145.6690 C   0  0  0  0  0  0  0  0  0  0  0  0
  188.3040  177.9050  146.7360 C   0  0  0  0  0  3  0  0  0  0  0  0
  187.1940  179.2910  148.8110 Cl  0  0  0  0  0  0  0  0  0  0  0  0
  185.9610  177.4850  147.1730 C   0  0  0  0  0  3  0  0  0  0  0  0
  187.1500  178.1510  147.4840 C   0  0  0  0  0  0  0  0  0  0  0  0
  185.9270  176.5720  146.1140 C   0  0  0  0  0  3  0  0  0  0  0  0
  196.6910  176.3760  143.6700 O   0  0  0  0  0  1  0  0  0  0  0  0
  196.5570  175.0590  144.1120 C   0  0  0  0  0  2  0  0  0  0  0  0
  1 27  1  0  0  0  0
  1  4  1  0  0  0  0
  2 24  1  0  0  0  0
  2 17  1  0  0  0  0
  3  7  1  0  0  0  0
  4 12  1  0  0  0  0
  5 19  1  0  0  0  0
  6  9  1  0  0  0  0
  7 21  1  0  0  0  0
  7 10  1  0  0  0  0
  8 26  1  0  0  0  0
  9  3  1  0  0  0  0
  9 13  1  0  0  0  0
 10  5  1  0  0  0  0
 11 16  1  0  0  0  0
 11  6  1  0  0  0  0
 12  8  1  0  0  0  0
 13 17  1  0  0  0  0
 13 21  1  0  0  0  0
 14  2  1  0  0  0  0
 15 28  1  0  0  0  0
 16 20  1  0  0  0  0
 18  8  1  0  0  0  0
 18 19  1  0  0  0  0
 20  3  1  0  0  0  0
 20 15  1  0  0  0  0
 21 27  1  0  0  0  0
 22  6  1  0  0  0  0
 22  2  1  0  0  0  0
 23 10  1  0  0  0  0
 23 30  1  0  0  0  0
 25 18  1  0  0  0  0
 27 25  1  0  0  0  0
 28 23  1  0  0  0  0
 29 30  2  0  0  0  0
 29 35  1  0  0  0  0
 30 31  1  0  0  0  0
 31 34  2  0  0  0  0
 33 34  1  0  0  0  0
 34 32  1  0  0  0  0
 35 33  2  0  0  0  0
 36 37  1  0  0  0  0
 37  4  1  0  0  0  0
M  END
>  <MODEL>
2

>  <REMARK>
 VINA RESULT:      -8.6      2.621      5.761
  Name = 
  2 active torsions:
  status: ('A' for Active; 'I' for Inactive)
    1  A    between atoms: C_4  and  C_37
    2  A    between atoms: C_23  and  C_30
                            x       y       z     vdW  Elec       q    Type
                         _______ _______ _______ _____ _____    ______ ____

>  <TORSDO>
F 2

$$$$
=
 OpenBabel11112417153D

 37 43  0  0  1  0  0  0  0  0999 V2000
  190.7080  173.3350  141.5390 C   0  0  0  0  0  2  0  0  0  0  0  0
  189.4160  175.5140  146.0360 C   0  0  0  0  0  0  0  0  0  0  0  0
  193.2450  174.2810  144.4250 C   0  0  1  0  0  3  0  0  0  0  0  0
  190.3900  172.6030  140.2290 C   0  0  2  0  0  3  0  0  0  0  0  0
  192.8480  170.4780  144.3060 C   0  0  0  0  0  2  0  0  0  0  0  0
  191.9370  175.5690  146.2030 C   0  0  1  0  0  3  0  0  0  0  0  0
  192.7860  172.9210  143.9020 C   0  0  1  0  0  3  0  0  0  0  0  0
  191.9900  170.6050  140.4930 C   0  0  2  0  0  3  0  0  0  0  0  0
  191.9730  175.0590  144.7530 C   0  0  2  0  0  3  0  0  0  0  0  0
  193.4760  171.7900  144.5750 N   0  0  2  0  0  0  0  0  0  0  0  0
  193.1860  176.3920  146.5090 C   0  0  0  0  0  2  0  0  0  0  0  0
  191.6360  171.8750  139.7100 C   0  0  0  0  0  2  0  0  0  0  0  0
  190.7920  174.2580  144.3730 N   0  0  2  0  0  0  0  0  0  0  0  0
  188.6010  176.2930  145.0220 C   0  0  0  0  0  1  0  0  0  0  0  0
  195.4260  173.4950  145.4530 O   0  0  0  0  0  0  0  0  0  0  0  0
  194.4810  175.6070  146.2190 C   0  0  0  0  0  2  0  0  0  0  0  0
  189.7930  174.1410  145.4470 C   0  0  0  0  0  2  0  0  0  0  0  0
  192.0680  170.9330  141.9790 C   0  0  2  0  0  3  0  0  0  0  0  0
  192.9170  170.0170  142.8400 C   0  0  0  0  0  2  0  0  0  0  0  0
  194.2170  174.2150  145.6370 C   0  0  1  0  0  3  0  0  0  0  0  0
  191.2550  172.9100  144.0510 C   0  0  1  0  0  3  0  0  0  0  0  0
  190.6490  176.3430  146.4320 C   0  0  0  0  0  2  0  0  0  0  0  0
  194.9020  171.7580  144.1790 C   0  0  1  0  0  3  0  0  0  0  0  0
  188.5650  175.2910  147.2680 C   0  0  0  0  0  1  0  0  0  0  0  0
  190.7750  171.0480  142.5110 O   0  0  0  0  0  0  0  0  0  0  0  0
  193.2160  170.1240  140.0320 O   0  0  0  0  0  1  0  0  0  0  0  0
  190.5430  172.4150  142.7720 C   0  0  2  0  0  3  0  0  0  0  0  0
  195.4930  173.0460  144.2050 O   0  0  0  0  0  0  0  0  0  0  0  0
  197.0590  170.5730  144.6560 C   0  0  0  0  0  3  0  0  0  0  0  0
  195.7090  170.7600  144.9700 C   0  0  0  0  0  0  0  0  0  0  0  0
  195.1380  170.0400  146.0300 C   0  0  0  0  0  3  0  0  0  0  0  0
  195.1920  168.2330  148.0760 Cl  0  0  0  0  0  0  0  0  0  0  0  0
  197.2580  168.9440  146.4360 C   0  0  0  0  0  3  0  0  0  0  0  0
  195.9110  169.1320  146.7590 C   0  0  0  0  0  0  0  0  0  0  0  0
  197.8320  169.6650  145.3850 C   0  0  0  0  0  3  0  0  0  0  0  0
  188.6840  174.1110  139.5140 O   0  0  0  0  0  1  0  0  0  0  0  0
  189.9440  173.6090  139.1850 C   0  0  0  0  0  2  0  0  0  0  0  0
  1 27  1  0  0  0  0
  2 22  1  0  0  0  0
  2 24  1  0  0  0  0
  3  9  1  0  0  0  0
  3 20  1  0  0  0  0
  4  1  1  0  0  0  0
  5 10  1  0  0  0  0
  6 22  1  0  0  0  0
  6 11  1  0  0  0  0
  7 21  1  0  0  0  0
  7  3  1  0  0  0  0
  7 10  1  0  0  0  0
  8 18  1  0  0  0  0
  9  6  1  0  0  0  0
 12  4  1  0  0  0  0
 12  8  1  0  0  0  0
 13  9  1  0  0  0  0
 13 17  1  0  0  0  0
 14  2  1  0  0  0  0
 15 20  1  0  0  0  0
 16 11  1  0  0  0  0
 17  2  1  0  0  0  0
 18 25  1  0  0  0  0
 18 19  1  0  0  0  0
 19  5  1  0  0  0  0
 20 16  1  0  0  0  0
 21 13  1  0  0  0  0
 23 28  1  0  0  0  0
 23 10  1  0  0  0  0
 23 30  1  0  0  0  0
 25 27  1  0  0  0  0
 26  8  1  0  0  0  0
 27 21  1  0  0  0  0
 28 15  1  0  0  0  0
 29 30  2  0  0  0  0
 29 35  1  0  0  0  0
 30 31  1  0  0  0  0
 31 34  2  0  0  0  0
 33 34  1  0  0  0  0
 34 32  1  0  0  0  0
 35 33  2  0  0  0  0
 37 36  1  0  0  0  0
 37  4  1  0  0  0  0
M  END
>  <MODEL>
3

>  <REMARK>
 VINA RESULT:      -8.2      4.050      7.787
  Name = 
  2 active torsions:
  status: ('A' for Active; 'I' for Inactive)
    1  A    between atoms: C_4  and  C_37
    2  A    between atoms: C_23  and  C_30
                            x       y       z     vdW  Elec       q    Type
                         _______ _______ _______ _____ _____    ______ ____

>  <TORSDO>
F 2

$$$$
=
 OpenBabel11112417153D

 37 43  0  0  1  0  0  0  0  0999 V2000
  188.5250  174.5410  139.7620 C   0  0  0  0  0  2  0  0  0  0  0  0
  186.9090  176.9800  144.0140 C   0  0  0  0  0  0  0  0  0  0  0  0
  190.8790  175.9530  142.6120 C   0  0  1  0  0  3  0  0  0  0  0  0
  188.3130  173.6730  138.5150 C   0  0  2  0  0  3  0  0  0  0  0  0
  190.8130  172.1330  142.8240 C   0  0  0  0  0  2  0  0  0  0  0  0
  189.4100  177.2700  144.2370 C   0  0  1  0  0  3  0  0  0  0  0  0
  190.5550  174.5180  142.2020 C   0  0  1  0  0  3  0  0  0  0  0  0
  190.0690  171.8540  138.9940 C   0  0  2  0  0  3  0  0  0  0  0  0
  189.5350  176.6410  142.8390 C   0  0  2  0  0  3  0  0  0  0  0  0
  191.3170  173.5140  142.9900 N   0  0  2  0  0  0  0  0  0  0  0  0
  190.5740  178.2240  144.4980 C   0  0  0  0  0  2  0  0  0  0  0  0
  189.6330  173.0150  138.0930 C   0  0  0  0  0  2  0  0  0  0  0  0
  188.4390  175.7100  142.5040 N   0  0  2  0  0  0  0  0  0  0  0  0
  186.0640  177.5940  142.9150 C   0  0  0  0  0  1  0  0  0  0  0  0
  193.0850  175.4540  143.7590 O   0  0  0  0  0  0  0  0  0  0  0  0
  191.9400  177.5330  144.3100 C   0  0  0  0  0  2  0  0  0  0  0  0
  187.4210  175.6000  143.5590 C   0  0  0  0  0  2  0  0  0  0  0  0
  190.0710  172.3150  140.4470 C   0  0  2  0  0  3  0  0  0  0  0  0
  190.9670  171.5560  141.4070 C   0  0  0  0  0  2  0  0  0  0  0  0
  191.8140  176.0780  143.8490 C   0  0  1  0  0  3  0  0  0  0  0  0
  189.0260  174.3850  142.3140 C   0  0  1  0  0  3  0  0  0  0  0  0
  188.0530  177.9460  144.3630 C   0  0  0  0  0  2  0  0  0  0  0  0
  192.7520  173.5730  142.6330 C   0  0  1  0  0  3  0  0  0  0  0  0
  186.0420  176.7910  145.2400 C   0  0  0  0  0  1  0  0  0  0  0  0
  188.7570  172.3620  140.9350 O   0  0  0  0  0  0  0  0  0  0  0  0
  191.3450  171.4440  138.6080 O   0  0  0  0  0  1  0  0  0  0  0  0
  188.4000  173.7210  141.0670 C   0  0  2  0  0  3  0  0  0  0  0  0
  193.2300  174.9060  142.5580 O   0  0  0  0  0  0  0  0  0  0  0  0
  193.4140  172.7670  144.9130 C   0  0  0  0  0  3  0  0  0  0  0  0
  193.6160  172.7230  143.5290 C   0  0  0  0  0  0  0  0  0  0  0  0
  194.5970  171.8720  142.9990 C   0  0  0  0  0  3  0  0  0  0  0  0
  196.6000  170.0250  143.1820 Cl  0  0  0  0  0  0  0  0  0  0  0  0
  195.1730  171.1340  145.2310 C   0  0  0  0  0  3  0  0  0  0  0  0
  195.3750  171.0810  143.8490 C   0  0  0  0  0  0  0  0  0  0  0  0
  194.1910  171.9760  145.7630 C   0  0  0  0  0  3  0  0  0  0  0  0
  187.0660  175.6060  137.8770 O   0  0  0  0  0  1  0  0  0  0  0  0
  187.8160  174.5410  137.3750 C   0  0  0  0  0  2  0  0  0  0  0  0
  1 27  1  0  0  0  0
  2 22  1  0  0  0  0
  2 24  1  0  0  0  0
  3  9  1  0  0  0  0
  3 20  1  0  0  0  0
  4  1  1  0  0  0  0
  5 10  1  0  0  0  0
  6 22  1  0  0  0  0
  6 11  1  0  0  0  0
  7 21  1  0  0  0  0
  7  3  1  0  0  0  0
  7 10  1  0  0  0  0
  8 18  1  0  0  0  0
  9  6  1  0  0  0  0
 12  4  1  0  0  0  0
 12  8  1  0  0  0  0
 13  9  1  0  0  0  0
 13 17  1  0  0  0  0
 14  2  1  0  0  0  0
 15 20  1  0  0  0  0
 16 11  1  0  0  0  0
 17  2  1  0  0  0  0
 18 25  1  0  0  0  0
 18 19  1  0  0  0  0
 19  5  1  0  0  0  0
 20 16  1  0  0  0  0
 21 13  1  0  0  0  0
 23 10  1  0  0  0  0
 23 30  1  0  0  0  0
 25 27  1  0  0  0  0
 26  8  1  0  0  0  0
 27 21  1  0  0  0  0
 28 23  1  0  0  0  0
 28 15  1  0  0  0  0
 29 35  1  0  0  0  0
 30 29  2  0  0  0  0
 31 30  1  0  0  0  0
 31 34  2  0  0  0  0
 32 34  1  0  0  0  0
 33 35  2  0  0  0  0
 34 33  1  0  0  0  0
 37 36  1  0  0  0  0
 37  4  1  0  0  0  0
M  END
>  <MODEL>
4

>  <REMARK>
 VINA RESULT:      -7.8      3.598      7.071
  Name = 
  2 active torsions:
  status: ('A' for Active; 'I' for Inactive)
    1  A    between atoms: C_4  and  C_37
    2  A    between atoms: C_23  and  C_30
                            x       y       z     vdW  Elec       q    Type
                         _______ _______ _______ _____ _____    ______ ____

>  <TORSDO>
F 2

$$$$
=
 OpenBabel11112417153D

 37 43  0  0  1  0  0  0  0  0999 V2000
  191.2030  175.6550  145.5890 C   0  0  0  0  0  2  0  0  0  0  0  0
  187.6130  176.7680  142.0530 C   0  0  0  0  0  0  0  0  0  0  0  0
  190.9550  174.0110  141.9980 C   0  0  1  0  0  3  0  0  0  0  0  0
  191.9820  175.9230  146.8830 C   0  0  2  0  0  3  0  0  0  0  0  0
  193.9380  176.4070  142.0740 C   0  0  0  0  0  2  0  0  0  0  0  0
  188.7850  174.8320  140.9280 C   0  0  1  0  0  3  0  0  0  0  0  0
  191.9850  174.9720  142.5900 C   0  0  1  0  0  3  0  0  0  0  0  0
  194.3700  175.8750  145.9250 C   0  0  2  0  0  3  0  0  0  0  0  0
  189.5930  174.6610  142.2250 C   0  0  2  0  0  3  0  0  0  0  0  0
  193.0970  175.2670  141.6480 N   0  0  2  0  0  0  0  0  0  0  0  0
  188.6490  173.4940  140.2050 C   0  0  0  0  0  2  0  0  0  0  0  0
  193.3400  175.2100  146.8450 C   0  0  0  0  0  2  0  0  0  0  0  0
  189.7620  175.9110  142.9920 N   0  0  2  0  0  0  0  0  0  0  0  0
  186.8170  176.6650  143.3390 C   0  0  0  0  0  1  0  0  0  0  0  0
  192.4360  173.0620  140.1710 O   0  0  0  0  0  0  0  0  0  0  0  0
  190.0200  172.8420  139.9340 C   0  0  0  0  0  2  0  0  0  0  0  0
  189.0870  177.0680  142.3820 C   0  0  0  0  0  2  0  0  0  0  0  0
  193.7610  176.0710  144.5410 C   0  0  2  0  0  3  0  0  0  0  0  0
  194.7250  176.1770  143.3760 C   0  0  0  0  0  2  0  0  0  0  0  0
  191.1890  173.6520  140.5040 C   0  0  1  0  0  3  0  0  0  0  0  0
  191.1920  176.2100  143.0440 C   0  0  1  0  0  3  0  0  0  0  0  0
  187.4410  175.4660  141.2530 C   0  0  0  0  0  2  0  0  0  0  0  0
  193.9360  174.0620  141.4610 C   0  0  1  0  0  3  0  0  0  0  0  0
  187.0600  177.9160  141.2350 C   0  0  0  0  0  1  0  0  0  0  0  0
  192.8840  177.1660  144.5560 O   0  0  0  0  0  0  0  0  0  0  0  0
  195.4980  175.0570  145.8530 O   0  0  0  0  0  1  0  0  0  0  0  0
  191.5700  176.6600  144.4730 C   0  0  2  0  0  3  0  0  0  0  0  0
  193.1580  172.8930  141.2720 O   0  0  0  0  0  0  0  0  0  0  0  0
  196.2730  173.7840  140.5970 C   0  0  0  0  0  3  0  0  0  0  0  0
  194.9650  174.2270  140.3720 C   0  0  0  0  0  0  0  0  0  0  0  0
  194.6270  174.7880  139.1320 C   0  0  0  0  0  3  0  0  0  0  0  0
  195.1690  175.6210  136.5880 Cl  0  0  0  0  0  0  0  0  0  0  0  0
  196.9020  174.4780  138.3640 C   0  0  0  0  0  3  0  0  0  0  0  0
  195.5950  174.9160  138.1320 C   0  0  0  0  0  0  0  0  0  0  0  0
  197.2410  173.9120  139.5970 C   0  0  0  0  0  3  0  0  0  0  0  0
  189.9540  174.9160  147.6380 O   0  0  0  0  0  1  0  0  0  0  0  0
  191.1910  175.3990  148.0660 C   0  0  0  0  0  2  0  0  0  0  0  0
  1  4  1  0  0  0  0
  2 17  1  0  0  0  0
  2 14  1  0  0  0  0
  3  9  1  0  0  0  0
  3  7  1  0  0  0  0
  4 37  1  0  0  0  0
  5 19  1  0  0  0  0
  6 22  1  0  0  0  0
  6  9  1  0  0  0  0
  7 21  1  0  0  0  0
  8 12  1  0  0  0  0
  9 13  1  0  0  0  0
 10  5  1  0  0  0  0
 10  7  1  0  0  0  0
 11  6  1  0  0  0  0
 12  4  1  0  0  0  0
 13 21  1  0  0  0  0
 15 20  1  0  0  0  0
 15 28  1  0  0  0  0
 16 11  1  0  0  0  0
 16 20  1  0  0  0  0
 17 13  1  0  0  0  0
 18 25  1  0  0  0  0
 18  8  1  0  0  0  0
 19 18  1  0  0  0  0
 20  3  1  0  0  0  0
 21 27  1  0  0  0  0
 22  2  1  0  0  0  0
 23 10  1  0  0  0  0
 24  2  1  0  0  0  0
 26  8  1  0  0  0  0
 27 25  1  0  0  0  0
 27  1  1  0  0  0  0
 28 23  1  0  0  0  0
 30 29  1  0  0  0  0
 30 23  1  0  0  0  0
 31 30  2  0  0  0  0
 32 34  1  0  0  0  0
 33 35  1  0  0  0  0
 34 33  2  0  0  0  0
 34 31  1  0  0  0  0
 35 29  2  0  0  0  0
 36 37  1  0  0  0  0
M  END
>  <MODEL>
5

>  <REMARK>
 VINA RESULT:      -7.8      3.695      7.985
  Name = 
  2 active torsions:
  status: ('A' for Active; 'I' for Inactive)
    1  A    between atoms: C_4  and  C_37
    2  A    between atoms: C_23  and  C_30
                            x       y       z     vdW  Elec       q    Type
                         _______ _______ _______ _____ _____    ______ ____

>  <TORSDO>
F 2

$$$$
=
 OpenBabel11112417153D

 37 43  0  0  1  0  0  0  0  0999 V2000
  191.8370  172.4230  141.6240 C   0  0  0  0  0  2  0  0  0  0  0  0
  195.6510  175.6570  142.8990 C   0  0  0  0  0  0  0  0  0  0  0  0
  191.9350  174.6560  144.8890 C   0  0  1  0  0  3  0  0  0  0  0  0
  191.0710  171.5250  140.6440 C   0  0  2  0  0  3  0  0  0  0  0  0
  189.3460  176.0950  142.4670 C   0  0  0  0  0  2  0  0  0  0  0  0
  194.2340  175.7690  144.9870 C   0  0  1  0  0  3  0  0  0  0  0  0
  191.0460  174.7340  143.6490 C   0  0  1  0  0  3  0  0  0  0  0  0
  188.7310  172.5650  140.9000 C   0  0  2  0  0  3  0  0  0  0  0  0
  193.3730  174.6500  144.3770 C   0  0  2  0  0  3  0  0  0  0  0  0
  190.0180  175.8030  143.7520 N   0  0  2  0  0  0  0  0  0  0  0  0
  194.1860  175.7040  146.5130 C   0  0  0  0  0  2  0  0  0  0  0  0
  189.6230  171.3360  141.1140 C   0  0  0  0  0  2  0  0  0  0  0  0
  193.3730  174.6370  142.9000 N   0  0  2  0  0  0  0  0  0  0  0  0
  196.3860  174.4210  142.4190 C   0  0  0  0  0  1  0  0  0  0  0  0
  190.3800  175.8980  146.4620 O   0  0  0  0  0  0  0  0  0  0  0  0
  192.7410  175.7480  147.0490 C   0  0  0  0  0  2  0  0  0  0  0  0
  194.2300  175.6740  142.3050 C   0  0  0  0  0  2  0  0  0  0  0  0
  189.4020  173.7900  141.5110 C   0  0  2  0  0  3  0  0  0  0  0  0
  188.4970  174.9420  141.9060 C   0  0  0  0  0  2  0  0  0  0  0  0
  191.6920  175.7830  145.9320 C   0  0  1  0  0  3  0  0  0  0  0  0
  192.0030  174.8860  142.4550 C   0  0  1  0  0  3  0  0  0  0  0  0
  195.6470  175.6730  144.4360 C   0  0  0  0  0  2  0  0  0  0  0  0
  189.0120  175.4440  144.7770 C   0  0  1  0  0  3  0  0  0  0  0  0
  196.3930  176.8800  142.4030 C   0  0  0  0  0  1  0  0  0  0  0  0
  190.4320  174.2390  140.6720 O   0  0  0  0  0  0  0  0  0  0  0  0
  187.4960  172.3300  141.5030 O   0  0  0  0  0  1  0  0  0  0  0  0
  191.6570  173.9240  141.2970 C   0  0  2  0  0  3  0  0  0  0  0  0
  189.6100  174.9400  145.9590 O   0  0  0  0  0  0  0  0  0  0  0  0
  187.7040  176.8310  146.4050 C   0  0  0  0  0  3  0  0  0  0  0  0
  188.0510  176.5650  145.0760 C   0  0  0  0  0  0  0  0  0  0  0  0
  187.5210  177.3620  144.0490 C   0  0  0  0  0  3  0  0  0  0  0  0
  185.9830  179.3930  143.0680 Cl  0  0  0  0  0  0  0  0  0  0  0  0
  186.2960  178.6630  145.6820 C   0  0  0  0  0  3  0  0  0  0  0  0
  186.6440  178.4060  144.3530 C   0  0  0  0  0  0  0  0  0  0  0  0
  186.8270  177.8750  146.7080 C   0  0  0  0  0  3  0  0  0  0  0  0
  192.8130  170.2070  139.6830 O   0  0  0  0  0  1  0  0  0  0  0  0
  191.7410  170.1660  140.5750 C   0  0  0  0  0  2  0  0  0  0  0  0
  2 22  1  0  0  0  0
  3 20  1  0  0  0  0
  4 12  1  0  0  0  0
  4  1  1  0  0  0  0
  5 10  1  0  0  0  0
  6 11  1  0  0  0  0
  7 10  1  0  0  0  0
  7  3  1  0  0  0  0
  8 12  1  0  0  0  0
  8 26  1  0  0  0  0
  8 18  1  0  0  0  0
  9  3  1  0  0  0  0
  9  6  1  0  0  0  0
 10 23  1  0  0  0  0
 11 16  1  0  0  0  0
 13  9  1  0  0  0  0
 14  2  1  0  0  0  0
 17  2  1  0  0  0  0
 17 13  1  0  0  0  0
 18 19  1  0  0  0  0
 19  5  1  0  0  0  0
 20 15  1  0  0  0  0
 20 16  1  0  0  0  0
 21 13  1  0  0  0  0
 21  7  1  0  0  0  0
 22  6  1  0  0  0  0
 23 30  1  0  0  0  0
 23 28  1  0  0  0  0
 24  2  1  0  0  0  0
 25 27  1  0  0  0  0
 25 18  1  0  0  0  0
 27  1  1  0  0  0  0
 27 21  1  0  0  0  0
 28 15  1  0  0  0  0
 29 35  1  0  0  0  0
 30 29  2  0  0  0  0
 31 34  2  0  0  0  0
 31 30  1  0  0  0  0
 32 34  1  0  0  0  0
 33 35  2  0  0  0  0
 34 33  1  0  0  0  0
 36 37  1  0  0  0  0
 37  4  1  0  0  0  0
M  END
>  <MODEL>
6

>  <REMARK>
 VINA RESULT:      -7.5      1.750      2.276
  Name = 
  2 active torsions:
  status: ('A' for Active; 'I' for Inactive)
    1  A    between atoms: C_4  and  C_37
    2  A    between atoms: C_23  and  C_30
                            x       y       z     vdW  Elec       q    Type
                         _______ _______ _______ _____ _____    ______ ____

>  <TORSDO>
F 2

$$$$
=
 OpenBabel11112417153D

 37 43  0  0  1  0  0  0  0  0999 V2000
  188.5900  175.4280  143.2640 C   0  0  0  0  0  2  0  0  0  0  0  0
  189.5370  172.6440  139.0230 C   0  0  0  0  0  0  0  0  0  0  0  0
  191.1770  172.4430  143.0290 C   0  0  1  0  0  3  0  0  0  0  0  0
  188.0150  176.6400  144.0080 C   0  0  2  0  0  3  0  0  0  0  0  0
  193.0950  175.7460  143.2480 C   0  0  0  0  0  2  0  0  0  0  0  0
  190.8990  171.3680  140.7270 C   0  0  1  0  0  3  0  0  0  0  0  0
  191.3950  173.9450  143.2050 C   0  0  1  0  0  3  0  0  0  0  0  0
  190.1540  177.4180  145.2100 C   0  0  2  0  0  3  0  0  0  0  0  0
  190.2870  172.2870  141.7980 C   0  0  2  0  0  3  0  0  0  0  0  0
  192.8290  174.2960  143.3720 N   0  0  2  0  0  0  0  0  0  0  0  0
  191.2560  170.0110  141.3310 C   0  0  0  0  0  2  0  0  0  0  0  0
  188.7410  176.8380  145.3450 C   0  0  0  0  0  2  0  0  0  0  0  0
  189.9050  173.6200  141.2910 N   0  0  2  0  0  0  0  0  0  0  0  0
  188.0250  172.7580  139.0370 C   0  0  0  0  0  1  0  0  0  0  0  0
  193.3990  171.6940  143.9950 O   0  0  0  0  0  0  0  0  0  0  0  0
  192.1850  170.1490  142.5540 C   0  0  0  0  0  2  0  0  0  0  0  0
  190.1470  173.7910  139.8500 C   0  0  0  0  0  2  0  0  0  0  0  0
  190.9510  176.5800  144.2170 C   0  0  2  0  0  3  0  0  0  0  0  0
  192.4620  176.6160  144.3470 C   0  0  0  0  0  2  0  0  0  0  0  0
  192.4830  171.6080  142.9140 C   0  0  1  0  0  3  0  0  0  0  0  0
  190.7140  174.6120  141.9970 C   0  0  1  0  0  3  0  0  0  0  0  0
  189.9390  171.2570  139.5530 C   0  0  0  0  0  2  0  0  0  0  0  0
  193.3230  173.8030  144.6770 C   0  0  1  0  0  3  0  0  0  0  0  0
  190.0160  172.7750  137.5930 C   0  0  0  0  0  1  0  0  0  0  0  0
  190.5640  176.8960  142.9060 O   0  0  0  0  0  0  0  0  0  0  0  0
  190.7630  177.4040  146.4650 O   0  0  0  0  0  1  0  0  0  0  0  0
  189.8220  175.8040  142.4080 C   0  0  2  0  0  3  0  0  0  0  0  0
  192.8980  172.4770  144.9430 O   0  0  0  0  0  0  0  0  0  0  0  0
  195.4350  173.4320  145.9770 C   0  0  0  0  0  3  0  0  0  0  0  0
  194.8150  173.9490  144.8340 C   0  0  0  0  0  0  0  0  0  0  0  0
  195.5930  174.5680  143.8440 C   0  0  0  0  0  3  0  0  0  0  0  0
  197.9410  175.4540  142.7690 Cl  0  0  0  0  0  0  0  0  0  0  0  0
  197.5900  174.1650  145.1520 C   0  0  0  0  0  3  0  0  0  0  0  0
  196.9770  174.6780  144.0050 C   0  0  0  0  0  0  0  0  0  0  0  0
  196.8180  173.5420  146.1380 C   0  0  0  0  0  3  0  0  0  0  0  0
  185.8010  176.6140  143.1190 O   0  0  0  0  0  1  0  0  0  0  0  0
  186.5420  176.4110  144.2840 C   0  0  0  0  0  2  0  0  0  0  0  0
  1  4  1  0  0  0  0
  2 14  1  0  0  0  0
  2 22  1  0  0  0  0
  2 17  1  0  0  0  0
  3  7  1  0  0  0  0
  4 37  1  0  0  0  0
  4 12  1  0  0  0  0
  5 10  1  0  0  0  0
  5 19  1  0  0  0  0
  6 11  1  0  0  0  0
  6  9  1  0  0  0  0
  7 10  1  0  0  0  0
  8 12  1  0  0  0  0
  8 26  1  0  0  0  0
  9  3  1  0  0  0  0
 10 23  1  0  0  0  0
 11 16  1  0  0  0  0
 13  9  1  0  0  0  0
 13 21  1  0  0  0  0
 15 28  1  0  0  0  0
 16 20  1  0  0  0  0
 17 13  1  0  0  0  0
 18 19  1  0  0  0  0
 18  8  1  0  0  0  0
 20  3  1  0  0  0  0
 20 15  1  0  0  0  0
 21 27  1  0  0  0  0
 21  7  1  0  0  0  0
 22  6  1  0  0  0  0
 23 30  1  0  0  0  0
 23 28  1  0  0  0  0
 24  2  1  0  0  0  0
 25 18  1  0  0  0  0
 27 25  1  0  0  0  0
 27  1  1  0  0  0  0
 29 35  1  0  0  0  0
 30 29  2  0  0  0  0
 31 34  2  0  0  0  0
 31 30  1  0  0  0  0
 32 34  1  0  0  0  0
 33 35  2  0  0  0  0
 34 33  1  0  0  0  0
 36 37  1  0  0  0  0
M  END
>  <MODEL>
7

>  <REMARK>
 VINA RESULT:      -7.4      3.311      8.018
  Name = 
  2 active torsions:
  status: ('A' for Active; 'I' for Inactive)
    1  A    between atoms: C_4  and  C_37
    2  A    between atoms: C_23  and  C_30
                            x       y       z     vdW  Elec       q    Type
                         _______ _______ _______ _____ _____    ______ ____

>  <TORSDO>
F 2

$$$$
=
 OpenBabel11112417153D

 37 43  0  0  1  0  0  0  0  0999 V2000
  188.4890  177.0040  142.9520 C   0  0  0  0  0  2  0  0  0  0  0  0
  191.2000  176.1530  147.2610 C   0  0  0  0  0  0  0  0  0  0  0  0
  192.2890  175.9050  143.0740 C   0  0  1  0  0  3  0  0  0  0  0  0
  187.1860  177.2130  142.1720 C   0  0  2  0  0  3  0  0  0  0  0  0
  190.1680  172.9460  141.8950 C   0  0  0  0  0  2  0  0  0  0  0  0
  193.0220  175.9550  145.5220 C   0  0  1  0  0  3  0  0  0  0  0  0
  191.0430  175.1500  142.6130 C   0  0  1  0  0  3  0  0  0  0  0  0
  187.4770  175.3630  140.4080 C   0  0  2  0  0  3  0  0  0  0  0  0
  191.9810  176.4050  144.4830 C   0  0  2  0  0  3  0  0  0  0  0  0
  191.3610  173.8030  142.0710 N   0  0  2  0  0  0  0  0  0  0  0  0
  194.4260  176.3630  145.0800 C   0  0  0  0  0  2  0  0  0  0  0  0
  187.3890  176.8680  140.6910 C   0  0  0  0  0  2  0  0  0  0  0  0
  190.5920  176.0560  144.8410 N   0  0  2  0  0  0  0  0  0  0  0  0
  190.4380  177.4270  147.5720 C   0  0  0  0  0  1  0  0  0  0  0  0
  193.9770  174.5390  141.7640 O   0  0  0  0  0  0  0  0  0  0  0  0
  194.7670  175.8320  143.6730 C   0  0  0  0  0  2  0  0  0  0  0  0
  190.4750  175.3800  146.1430 C   0  0  0  0  0  2  0  0  0  0  0  0
  188.5300  174.7380  141.3160 C   0  0  2  0  0  3  0  0  0  0  0  0
  189.1640  173.4440  140.8420 C   0  0  0  0  0  2  0  0  0  0  0  0
  193.6030  175.0760  143.0230 C   0  0  1  0  0  3  0  0  0  0  0  0
  190.0880  175.1390  143.8200 C   0  0  1  0  0  3  0  0  0  0  0  0
  192.6460  176.5140  146.8850 C   0  0  0  0  0  2  0  0  0  0  0  0
  192.0820  173.9320  140.7850 C   0  0  1  0  0  3  0  0  0  0  0  0
  191.2220  175.2900  148.5050 C   0  0  0  0  0  1  0  0  0  0  0  0
  188.0140  174.5880  142.6110 O   0  0  0  0  0  0  0  0  0  0  0  0
  187.8170  175.1820  139.0660 O   0  0  0  0  0  1  0  0  0  0  0  0
  188.6470  175.5430  143.4350 C   0  0  2  0  0  3  0  0  0  0  0  0
  193.1010  174.9160  140.8400 O   0  0  0  0  0  0  0  0  0  0  0  0
  192.5380  172.3390  138.9030 C   0  0  0  0  0  3  0  0  0  0  0  0
  192.6090  172.6160  140.2730 C   0  0  0  0  0  0  0  0  0  0  0  0
  193.1930  171.6790  141.1390 C   0  0  0  0  0  3  0  0  0  0  0  0
  194.4110  169.3070  141.7250 Cl  0  0  0  0  0  0  0  0  0  0  0  0
  193.6090  170.1990  139.2700 C   0  0  0  0  0  3  0  0  0  0  0  0
  193.6890  170.4730  140.6380 C   0  0  0  0  0  0  0  0  0  0  0  0
  193.0340  171.1330  138.4030 C   0  0  0  0  0  3  0  0  0  0  0  0
  185.3990  178.7460  142.5680 O   0  0  0  0  0  1  0  0  0  0  0  0
  186.7620  178.6660  142.2770 C   0  0  0  0  0  2  0  0  0  0  0  0
  1 27  1  0  0  0  0
  2 14  1  0  0  0  0
  2 24  1  0  0  0  0
  3  9  1  0  0  0  0
  4 37  1  0  0  0  0
  4  1  1  0  0  0  0
  5 10  1  0  0  0  0
  6 22  1  0  0  0  0
  7  3  1  0  0  0  0
  7 21  1  0  0  0  0
  8 12  1  0  0  0  0
  8 18  1  0  0  0  0
  9 13  1  0  0  0  0
  9  6  1  0  0  0  0
 10  7  1  0  0  0  0
 11  6  1  0  0  0  0
 12  4  1  0  0  0  0
 13 17  1  0  0  0  0
 15 20  1  0  0  0  0
 16 11  1  0  0  0  0
 17  2  1  0  0  0  0
 18 25  1  0  0  0  0
 19 18  1  0  0  0  0
 19  5  1  0  0  0  0
 20  3  1  0  0  0  0
 20 16  1  0  0  0  0
 21 13  1  0  0  0  0
 22  2  1  0  0  0  0
 23 28  1  0  0  0  0
 23 10  1  0  0  0  0
 25 27  1  0  0  0  0
 26  8  1  0  0  0  0
 27 21  1  0  0  0  0
 28 15  1  0  0  0  0
 29 30  1  0  0  0  0
 30 23  1  0  0  0  0
 30 31  2  0  0  0  0
 33 34  2  0  0  0  0
 34 31  1  0  0  0  0
 34 32  1  0  0  0  0
 35 29  2  0  0  0  0
 35 33  1  0  0  0  0
 37 36  1  0  0  0  0
M  END
>  <MODEL>
8

>  <REMARK>
 VINA RESULT:      -7.3      3.173      6.793
  Name = 
  2 active torsions:
  status: ('A' for Active; 'I' for Inactive)
    1  A    between atoms: C_4  and  C_37
    2  A    between atoms: C_23  and  C_30
                            x       y       z     vdW  Elec       q    Type
                         _______ _______ _______ _____ _____    ______ ____

>  <TORSDO>
F 2

$$$$
=
 OpenBabel11112417153D

 37 43  0  0  1  0  0  0  0  0999 V2000
  189.6430  174.8030  143.9180 C   0  0  0  0  0  2  0  0  0  0  0  0
  190.1440  173.2270  139.0290 C   0  0  0  0  0  0  0  0  0  0  0  0
  191.1700  171.3310  142.7880 C   0  0  1  0  0  3  0  0  0  0  0  0
  189.3970  175.8640  144.9970 C   0  0  2  0  0  3  0  0  0  0  0  0
  193.9910  173.5880  144.0490 C   0  0  0  0  0  2  0  0  0  0  0  0
  190.8320  171.1320  140.2620 C   0  0  1  0  0  3  0  0  0  0  0  0
  191.8270  172.5540  143.4270 C   0  0  1  0  0  3  0  0  0  0  0  0
  191.5200  175.4970  146.4040 C   0  0  2  0  0  3  0  0  0  0  0  0
  190.4230  171.8480  141.5600 C   0  0  2  0  0  3  0  0  0  0  0  0
  193.2710  172.3410  143.7110 N   0  0  2  0  0  0  0  0  0  0  0  0
  190.6740  169.6200  140.4150 C   0  0  0  0  0  2  0  0  0  0  0  0
  189.9910  175.4090  146.3360 C   0  0  0  0  0  2  0  0  0  0  0  0
  190.5390  173.3180  141.4920 N   0  0  2  0  0  0  0  0  0  0  0  0
  188.7530  173.8300  139.0610 C   0  0  0  0  0  1  0  0  0  0  0  0
  192.9190  169.6370  143.4940 O   0  0  0  0  0  0  0  0  0  0  0  0
  191.4540  169.0770  141.6300 C   0  0  0  0  0  2  0  0  0  0  0  0
  190.9850  173.8100  140.1790 C   0  0  0  0  0  2  0  0  0  0  0  0
  192.1220  174.7690  145.2080 C   0  0  2  0  0  3  0  0  0  0  0  0
  193.5420  174.2580  145.3580 C   0  0  0  0  0  2  0  0  0  0  0  0
  192.1520  170.1800  142.4310 C   0  0  1  0  0  3  0  0  0  0  0  0
  191.5330  173.7310  142.4810 C   0  0  1  0  0  3  0  0  0  0  0  0
  190.0270  171.6950  139.1020 C   0  0  0  0  0  2  0  0  0  0  0  0
  193.4330  171.3530  144.8010 C   0  0  1  0  0  3  0  0  0  0  0  0
  190.7990  173.6010  137.7160 C   0  0  0  0  0  1  0  0  0  0  0  0
  192.0050  175.5630  144.0570 O   0  0  0  0  0  0  0  0  0  0  0  0
  191.9480  174.9150  147.5980 O   0  0  0  0  0  1  0  0  0  0  0  0
  191.0190  174.9780  143.2350 C   0  0  2  0  0  3  0  0  0  0  0  0
  192.5850  170.2290  144.6350 O   0  0  0  0  0  0  0  0  0  0  0  0
  195.8340  171.3350  144.0810 C   0  0  0  0  0  3  0  0  0  0  0  0
  194.8670  170.9400  145.0110 C   0  0  0  0  0  0  0  0  0  0  0  0
  195.2510  170.1930  146.1350 C   0  0  0  0  0  3  0  0  0  0  0  0
  197.0620  168.8990  147.7170 Cl  0  0  0  0  0  0  0  0  0  0  0  0
  197.5510  170.2270  145.3800 C   0  0  0  0  0  3  0  0  0  0  0  0
  196.5900  169.8350  146.3160 C   0  0  0  0  0  0  0  0  0  0  0  0
  197.1730  170.9780  144.2620 C   0  0  0  0  0  3  0  0  0  0  0  0
  187.5940  176.1770  146.5290 O   0  0  0  0  0  1  0  0  0  0  0  0
  187.9050  176.0700  145.1720 C   0  0  0  0  0  2  0  0  0  0  0  0
  1  4  1  0  0  0  0
  2 14  1  0  0  0  0
  2 22  1  0  0  0  0
  2 17  1  0  0  0  0
  3  7  1  0  0  0  0
  4 37  1  0  0  0  0
  4 12  1  0  0  0  0
  5 19  1  0  0  0  0
  6 11  1  0  0  0  0
  6  9  1  0  0  0  0
  7 10  1  0  0  0  0
  8 26  1  0  0  0  0
  9  3  1  0  0  0  0
 10  5  1  0  0  0  0
 10 23  1  0  0  0  0
 11 16  1  0  0  0  0
 12  8  1  0  0  0  0
 13  9  1  0  0  0  0
 13 21  1  0  0  0  0
 15 28  1  0  0  0  0
 16 20  1  0  0  0  0
 17 13  1  0  0  0  0
 18 19  1  0  0  0  0
 18  8  1  0  0  0  0
 20  3  1  0  0  0  0
 20 15  1  0  0  0  0
 21 27  1  0  0  0  0
 21  7  1  0  0  0  0
 22  6  1  0  0  0  0
 23 30  1  0  0  0  0
 24  2  1  0  0  0  0
 25 18  1  0  0  0  0
 27  1  1  0  0  0  0
 27 25  1  0  0  0  0
 28 23  1  0  0  0  0
 29 35  2  0  0  0  0
 29 30  1  0  0  0  0
 30 31  2  0  0  0  0
 31 34  1  0  0  0  0
 33 34  2  0  0  0  0
 34 32  1  0  0  0  0
 35 33  1  0  0  0  0
 37 36  1  0  0  0  0
M  END
>  <MODEL>
9

>  <REMARK>
 VINA RESULT:      -7.2      3.989      8.759
  Name = 
  2 active torsions:
  status: ('A' for Active; 'I' for Inactive)
    1  A    between atoms: C_4  and  C_37
    2  A    between atoms: C_23  and  C_30
                            x       y       z     vdW  Elec       q    Type
                         _______ _______ _______ _____ _____    ______ ____

>  <TORSDO>
F 2

$$$$
