=
 OpenBabel11112417343D

 37 43  0  0  1  0  0  0  0  0999 V2000
  187.0060  176.7720  147.1580 C   0  0  0  0  0  0  0  0  0  0  0  0
  189.4680  175.8630  144.4710 C   0  0  1  0  0  3  0  0  0  0  0  0
  188.8000  176.9250  141.2690 O   0  0  0  0  0  0  0  0  0  0  0  0
  189.2680  176.4000  147.0170 C   0  0  2  0  0  3  0  0  0  0  0  0
  188.2960  176.1450  143.5300 C   0  0  2  0  0  3  0  0  0  0  0  0
  189.2660  176.9150  145.5740 C   0  0  2  0  0  3  0  0  0  0  0  0
  188.4890  175.7910  142.0430 C   0  0  2  0  0  3  0  0  0  0  0  0
  190.3870  175.3850  147.1860 C   0  0  0  0  0  2  0  0  0  0  0  0
  187.9630  177.6330  145.2210 C   0  0  2  0  0  3  0  0  0  0  0  0
  187.2520  177.9780  147.8100 F   0  0  0  0  0  0  0  0  0  0  0  0
  189.9490  173.4350  143.9290 C   0  0  0  0  0  2  0  0  0  0  0  0
  190.2320  174.1730  146.2610 C   0  0  0  0  0  2  0  0  0  0  0  0
  186.8400  176.9600  145.7700 O   0  0  0  0  0  0  0  0  0  0  0  0
  186.5310  176.6090  140.2280 C   0  0  0  0  0  1  0  0  0  0  0  0
  187.5980  177.5350  140.8200 C   0  0  1  0  0  3  0  0  0  0  0  0
  189.4170  174.4090  144.9790 C   0  0  1  0  0  3  0  0  0  0  0  0
  187.9340  177.5410  143.7600 N   0  0  2  0  0  0  0  0  0  0  0  0
  188.0340  175.8330  147.3950 O   0  0  0  0  0  0  0  0  0  0  0  0
  189.4720  174.6300  141.7870 C   0  0  1  0  0  3  0  0  0  0  0  0
  185.8290  176.2570  147.6650 F   0  0  0  0  0  0  0  0  0  0  0  0
  187.0530  178.5060  141.7730 N   0  0  0  0  0  2  0  0  0  0  0  0
  186.6880  177.8960  143.0540 C   0  0  2  0  0  3  0  0  0  0  0  0
  189.1250  173.4230  142.6510 C   0  0  0  0  0  2  0  0  0  0  0  0
  188.3690  173.3140  139.9230 C   0  0  0  0  0  2  0  0  0  0  0  0
  189.5530  174.1910  140.3190 C   0  0  2  0  0  3  0  0  0  0  0  0
  190.8930  173.5310  139.9680 C   0  0  0  0  0  2  0  0  0  0  0  0
  191.9680  172.6260  138.0410 O   0  0  0  0  0  0  0  0  0  0  0  0
  189.6430  172.5990  137.9530 N   0  0  0  0  0  2  0  0  0  0  0  0
  190.8800  172.9280  138.5950 C   0  0  0  0  0  0  0  0  0  0  0  0
  188.3680  173.1400  138.4110 C   0  0  0  0  0  2  0  0  0  0  0  0
  185.8270  178.9240  143.8230 C   0  0  1  0  0  3  0  0  0  0  0  0
  184.4440  179.1230  143.3010 N   0  0  0  0  0  0  0  0  0  0  0  0
  184.6900  178.2890  144.4830 C   0  0  2  0  0  3  0  0  0  0  0  0
  184.3280  179.0680  145.7300 C   0  0  0  0  0  2  0  0  0  0  0  0
  183.8160  178.1980  146.6910 O   0  0  0  0  0  1  0  0  0  0  0  0
  182.6790  178.2000  142.1100 F   0  0  0  0  0  0  0  0  0  0  0  0
  184.0530  178.1950  142.2440 C   0  0  0  0  0  2  0  0  0  0  0  0
  1 18  1  0  0  0  0
  1 20  1  0  0  0  0
  1 10  1  0  0  0  0
  2 16  1  0  0  0  0
  2  6  1  0  0  0  0
  3  7  1  0  0  0  0
  4  8  1  0  0  0  0
  4 18  1  0  0  0  0
  5 17  1  0  0  0  0
  5  2  1  0  0  0  0
  6  4  1  0  0  0  0
  7  5  1  0  0  0  0
  9  6  1  0  0  0  0
  9 13  1  0  0  0  0
 11 16  1  0  0  0  0
 12  8  1  0  0  0  0
 13  1  1  0  0  0  0
 14 15  1  0  0  0  0
 15  3  1  0  0  0  0
 15 21  1  0  0  0  0
 16 12  1  0  0  0  0
 17  9  1  0  0  0  0
 19  7  1  0  0  0  0
 19 23  1  0  0  0  0
 21 22  1  0  0  0  0
 22 17  1  0  0  0  0
 22 31  1  0  0  0  0
 23 11  1  0  0  0  0
 24 25  1  0  0  0  0
 25 19  1  0  0  0  0
 26 25  1  0  0  0  0
 27 29  2  0  0  0  0
 28 30  1  0  0  0  0
 28 29  1  0  0  0  0
 29 26  1  0  0  0  0
 30 24  1  0  0  0  0
 31 33  1  0  0  0  0
 32 31  1  0  0  0  0
 32 33  1  0  0  0  0
 33 34  1  0  0  0  0
 34 35  1  0  0  0  0
 36 37  1  0  0  0  0
 37 32  1  0  0  0  0
M  END
>  <MODEL>
1

>  <REMARK>
 VINA RESULT:      -8.5      0.000      0.000
  Name = 
  4 active torsions:
  status: ('A' for Active; 'I' for Inactive)
    1  A    between atoms: C_1  and  C_27
    2  A    between atoms: N_4  and  C_37
    3  A    between atoms: C_8  and  C_12
    4  A    between atoms: C_23  and  C_30
                            x       y       z     vdW  Elec       q    Type
                         _______ _______ _______ _____ _____    ______ ____

>  <TORSDO>
F 4

$$$$
=
 OpenBabel11112417343D

 37 43  0  0  1  0  0  0  0  0999 V2000
  193.1340  174.5760  145.2850 C   0  0  0  0  0  0  0  0  0  0  0  0
  189.4610  175.3390  145.1060 C   0  0  1  0  0  3  0  0  0  0  0  0
  187.7070  174.1200  142.4100 O   0  0  0  0  0  0  0  0  0  0  0  0
  191.4240  174.9310  146.7770 C   0  0  2  0  0  3  0  0  0  0  0  0
  189.6330  175.0150  143.6220 C   0  0  2  0  0  3  0  0  0  0  0  0
  190.4240  174.3440  145.7740 C   0  0  2  0  0  3  0  0  0  0  0  0
  188.4300  175.2940  142.6980 C   0  0  2  0  0  3  0  0  0  0  0  0
  190.7150  175.9480  147.6560 C   0  0  0  0  0  2  0  0  0  0  0  0
  191.1220  173.6150  144.6250 C   0  0  2  0  0  3  0  0  0  0  0  0
  193.4680  173.4030  145.9580 F   0  0  0  0  0  0  0  0  0  0  0  0
  188.6440  177.7340  144.9870 C   0  0  0  0  0  2  0  0  0  0  0  0
  190.1230  177.1130  146.8540 C   0  0  0  0  0  2  0  0  0  0  0  0
  192.2770  174.3200  144.1950 O   0  0  0  0  0  0  0  0  0  0  0  0
  188.5590  174.3930  140.0580 C   0  0  0  0  0  1  0  0  0  0  0  0
  188.2610  173.4940  141.2620 C   0  0  1  0  0  3  0  0  0  0  0  0
  189.8000  176.8170  145.3810 C   0  0  1  0  0  3  0  0  0  0  0  0
  190.1040  173.6340  143.5720 N   0  0  2  0  0  0  0  0  0  0  0  0
  192.5400  175.5210  146.1500 O   0  0  0  0  0  0  0  0  0  0  0  0
  187.5110  176.4350  143.1770 C   0  0  1  0  0  3  0  0  0  0  0  0
  194.3030  175.1210  144.7920 F   0  0  0  0  0  0  0  0  0  0  0  0
  189.3580  172.5740  141.5780 N   0  0  0  0  0  2  0  0  0  0  0  0
  190.4980  173.2490  142.2030 C   0  0  2  0  0  3  0  0  0  0  0  0
  188.3200  177.6860  143.5010 C   0  0  0  0  0  2  0  0  0  0  0  0
  186.9300  177.6150  141.0100 C   0  0  0  0  0  2  0  0  0  0  0  0
  186.3980  176.8000  142.1860 C   0  0  2  0  0  3  0  0  0  0  0  0
  185.2020  177.4850  142.8590 C   0  0  0  0  0  2  0  0  0  0  0  0
  183.0600  178.3240  142.2290 O   0  0  0  0  0  0  0  0  0  0  0  0
  184.6210  178.2690  140.5050 N   0  0  0  0  0  2  0  0  0  0  0  0
  184.2210  178.0150  141.8560 C   0  0  0  0  0  0  0  0  0  0  0  0
  185.8470  177.7100  139.9450 C   0  0  0  0  0  2  0  0  0  0  0  0
  191.6900  172.2650  142.1690 C   0  0  1  0  0  3  0  0  0  0  0  0
  192.2780  172.0150  140.8200 N   0  0  0  0  0  0  0  0  0  0  0  0
  192.9260  172.9300  141.7690 C   0  0  2  0  0  3  0  0  0  0  0  0
  194.1070  172.2310  142.4100 C   0  0  0  0  0  2  0  0  0  0  0  0
  193.6540  171.3720  143.4100 O   0  0  0  0  0  1  0  0  0  0  0  0
  191.0350  172.0960  138.8620 F   0  0  0  0  0  0  0  0  0  0  0  0
  191.7500  172.8670  139.7590 C   0  0  0  0  0  2  0  0  0  0  0  0
  1 10  1  0  0  0  0
  1 18  1  0  0  0  0
  2 16  1  0  0  0  0
  2  6  1  0  0  0  0
  3  7  1  0  0  0  0
  4  8  1  0  0  0  0
  5  2  1  0  0  0  0
  6  4  1  0  0  0  0
  7 19  1  0  0  0  0
  7  5  1  0  0  0  0
  9  6  1  0  0  0  0
 11 16  1  0  0  0  0
 12  8  1  0  0  0  0
 13  9  1  0  0  0  0
 13  1  1  0  0  0  0
 14 15  1  0  0  0  0
 15 21  1  0  0  0  0
 15  3  1  0  0  0  0
 16 12  1  0  0  0  0
 17  5  1  0  0  0  0
 17  9  1  0  0  0  0
 18  4  1  0  0  0  0
 19 23  1  0  0  0  0
 20  1  1  0  0  0  0
 21 22  1  0  0  0  0
 22 17  1  0  0  0  0
 23 11  1  0  0  0  0
 24 25  1  0  0  0  0
 25 26  1  0  0  0  0
 25 19  1  0  0  0  0
 28 29  1  0  0  0  0
 29 27  2  0  0  0  0
 29 26  1  0  0  0  0
 30 28  1  0  0  0  0
 30 24  1  0  0  0  0
 31 22  1  0  0  0  0
 32 33  1  0  0  0  0
 32 31  1  0  0  0  0
 33 31  1  0  0  0  0
 33 34  1  0  0  0  0
 34 35  1  0  0  0  0
 36 37  1  0  0  0  0
 37 32  1  0  0  0  0
M  END
>  <MODEL>
2

>  <REMARK>
 VINA RESULT:      -8.4      3.621      6.820
  Name = 
  4 active torsions:
  status: ('A' for Active; 'I' for Inactive)
    1  A    between atoms: C_1  and  C_27
    2  A    between atoms: N_4  and  C_37
    3  A    between atoms: C_8  and  C_12
    4  A    between atoms: C_23  and  C_30
                            x       y       z     vdW  Elec       q    Type
                         _______ _______ _______ _____ _____    ______ ____

>  <TORSDO>
F 4

$$$$
=
 OpenBabel11112417343D

 37 43  0  0  1  0  0  0  0  0999 V2000
  193.2740  172.1340  142.9950 C   0  0  0  0  0  0  0  0  0  0  0  0
  190.7100  174.2630  141.2640 C   0  0  1  0  0  3  0  0  0  0  0  0
  190.0830  177.3840  142.5670 O   0  0  0  0  0  0  0  0  0  0  0  0
  192.4980  172.4070  140.8510 C   0  0  2  0  0  3  0  0  0  0  0  0
  190.6700  175.0110  142.5970 C   0  0  2  0  0  3  0  0  0  0  0  0
  192.1950  173.8800  141.1460 C   0  0  2  0  0  3  0  0  0  0  0  0
  189.5780  176.0850  142.7660 C   0  0  2  0  0  3  0  0  0  0  0  0
  191.5360  171.8990  139.7900 C   0  0  0  0  0  2  0  0  0  0  0  0
  192.8440  174.3530  142.4470 C   0  0  2  0  0  3  0  0  0  0  0  0
  194.5800  172.2780  142.5330 F   0  0  0  0  0  0  0  0  0  0  0  0
  188.3060  173.4880  141.0710 C   0  0  0  0  0  2  0  0  0  0  0  0
  190.0700  171.9930  140.2250 C   0  0  0  0  0  2  0  0  0  0  0  0
  192.7520  173.3600  143.4580 O   0  0  0  0  0  0  0  0  0  0  0  0
  189.6780  177.7220  145.0270 C   0  0  0  0  0  1  0  0  0  0  0  0
  190.5760  177.8940  143.7980 C   0  0  1  0  0  3  0  0  0  0  0  0
  189.7540  173.0550  141.2910 C   0  0  1  0  0  3  0  0  0  0  0  0
  192.0250  175.5110  142.8090 N   0  0  2  0  0  0  0  0  0  0  0  0
  192.4270  171.5960  142.0020 O   0  0  0  0  0  0  0  0  0  0  0  0
  188.3000  175.8300  141.9420 C   0  0  1  0  0  3  0  0  0  0  0  0
  193.3030  171.2530  144.0580 F   0  0  0  0  0  0  0  0  0  0  0  0
  191.9750  177.5380  144.0520 N   0  0  0  0  0  2  0  0  0  0  0  0
  192.1790  176.0910  144.1580 C   0  0  2  0  0  3  0  0  0  0  0  0
  187.7850  174.4120  142.1610 C   0  0  0  0  0  2  0  0  0  0  0  0
  186.2230  176.3210  143.3100 C   0  0  0  0  0  2  0  0  0  0  0  0
  187.1660  176.8260  142.2210 C   0  0  2  0  0  3  0  0  0  0  0  0
  186.4050  177.2320  140.9520 C   0  0  0  0  0  2  0  0  0  0  0  0
  184.6240  178.7000  140.3520 O   0  0  0  0  0  0  0  0  0  0  0  0
  184.5810  177.9830  142.5660 N   0  0  0  0  0  2  0  0  0  0  0  0
  185.1800  178.0390  141.2660 C   0  0  0  0  0  0  0  0  0  0  0  0
  185.2950  177.4540  143.7220 C   0  0  0  0  0  2  0  0  0  0  0  0
  193.5870  175.8680  144.7560 C   0  0  1  0  0  3  0  0  0  0  0  0
  193.7000  176.0820  146.2290 N   0  0  0  0  0  0  0  0  0  0  0  0
  193.6100  174.7280  145.6680 C   0  0  2  0  0  3  0  0  0  0  0  0
  194.9870  174.0990  145.6580 C   0  0  0  0  0  2  0  0  0  0  0  0
  195.7320  174.6270  144.6040 O   0  0  0  0  0  1  0  0  0  0  0  0
  192.0430  175.1490  147.5590 F   0  0  0  0  0  0  0  0  0  0  0  0
  192.4280  176.3060  146.9100 C   0  0  0  0  0  2  0  0  0  0  0  0
  1 13  1  0  0  0  0
  1 20  1  0  0  0  0
  2 16  1  0  0  0  0
  2  5  1  0  0  0  0
  3  7  1  0  0  0  0
  3 15  1  0  0  0  0
  4  6  1  0  0  0  0
  4 18  1  0  0  0  0
  5  7  1  0  0  0  0
  5 17  1  0  0  0  0
  6  2  1  0  0  0  0
  6  9  1  0  0  0  0
  8 12  1  0  0  0  0
  8  4  1  0  0  0  0
  9 17  1  0  0  0  0
  9 13  1  0  0  0  0
 10  1  1  0  0  0  0
 11 16  1  0  0  0  0
 11 23  1  0  0  0  0
 12 16  1  0  0  0  0
 15 21  1  0  0  0  0
 15 14  1  0  0  0  0
 17 22  1  0  0  0  0
 18  1  1  0  0  0  0
 19 23  1  0  0  0  0
 19 25  1  0  0  0  0
 19  7  1  0  0  0  0
 21 22  1  0  0  0  0
 22 31  1  0  0  0  0
 24 30  1  0  0  0  0
 25 24  1  0  0  0  0
 26 29  1  0  0  0  0
 26 25  1  0  0  0  0
 27 29  2  0  0  0  0
 28 30  1  0  0  0  0
 29 28  1  0  0  0  0
 31 33  1  0  0  0  0
 31 32  1  0  0  0  0
 32 37  1  0  0  0  0
 33 32  1  0  0  0  0
 34 33  1  0  0  0  0
 35 34  1  0  0  0  0
 37 36  1  0  0  0  0
M  END
>  <MODEL>
3

>  <REMARK>
 VINA RESULT:      -8.0      3.976      7.380
  Name = 
  4 active torsions:
  status: ('A' for Active; 'I' for Inactive)
    1  A    between atoms: C_1  and  C_27
    2  A    between atoms: N_4  and  C_37
    3  A    between atoms: C_8  and  C_12
    4  A    between atoms: C_23  and  C_30
                            x       y       z     vdW  Elec       q    Type
                         _______ _______ _______ _____ _____    ______ ____

>  <TORSDO>
F 4

$$$$
=
 OpenBabel11112417343D

 37 43  0  0  1  0  0  0  0  0999 V2000
  194.0500  174.3760  143.5060 C   0  0  0  0  0  0  0  0  0  0  0  0
  190.6730  175.1130  144.9770 C   0  0  1  0  0  3  0  0  0  0  0  0
  187.9160  174.5800  142.9910 O   0  0  0  0  0  0  0  0  0  0  0  0
  193.0850  174.3280  145.5900 C   0  0  2  0  0  3  0  0  0  0  0  0
  190.2300  175.1700  143.5140 C   0  0  2  0  0  3  0  0  0  0  0  0
  191.7290  173.9960  144.9580 C   0  0  2  0  0  3  0  0  0  0  0  0
  188.7940  175.6540  143.2340 C   0  0  2  0  0  3  0  0  0  0  0  0
  192.8620  175.0860  146.8880 C   0  0  0  0  0  2  0  0  0  0  0  0
  191.8630  173.5830  143.4920 C   0  0  2  0  0  3  0  0  0  0  0  0
  194.5140  173.0770  143.6990 F   0  0  0  0  0  0  0  0  0  0  0  0
  190.0850  177.4530  145.7510 C   0  0  0  0  0  2  0  0  0  0  0  0
  192.1100  176.4060  146.6810 C   0  0  0  0  0  2  0  0  0  0  0  0
  192.8190  174.3870  142.8170 O   0  0  0  0  0  0  0  0  0  0  0  0
  187.8150  175.4390  140.6280 C   0  0  0  0  0  1  0  0  0  0  0  0
  187.9280  174.2650  141.6060 C   0  0  1  0  0  3  0  0  0  0  0  0
  191.2190  176.4810  145.4310 C   0  0  1  0  0  3  0  0  0  0  0  0
  190.5240  173.8510  142.9630 N   0  0  2  0  0  0  0  0  0  0  0  0
  193.9200  175.0690  144.7290 O   0  0  0  0  0  0  0  0  0  0  0  0
  188.2340  176.6300  144.2880 C   0  0  1  0  0  3  0  0  0  0  0  0
  194.9800  175.0410  142.7330 F   0  0  0  0  0  0  0  0  0  0  0  0
  188.9770  173.3090  141.2390 N   0  0  0  0  0  2  0  0  0  0  0  0
  190.3240  173.8230  141.5010 C   0  0  2  0  0  3  0  0  0  0  0  0
  189.2110  177.7710  144.5480 C   0  0  0  0  0  2  0  0  0  0  0  0
  186.9640  178.2890  142.8530 C   0  0  0  0  0  2  0  0  0  0  0  0
  186.8610  177.2150  143.9330 C   0  0  2  0  0  3  0  0  0  0  0  0
  186.0900  177.7150  145.1610 C   0  0  0  0  0  2  0  0  0  0  0  0
  183.9590  178.6700  145.6430 O   0  0  0  0  0  0  0  0  0  0  0  0
  184.7110  179.0340  143.4720 N   0  0  0  0  0  2  0  0  0  0  0  0
  184.8480  178.4640  144.7790 C   0  0  0  0  0  0  0  0  0  0  0  0
  185.5650  178.6300  142.3610 C   0  0  0  0  0  2  0  0  0  0  0  0
  191.3190  172.8920  140.7700 C   0  0  1  0  0  3  0  0  0  0  0  0
  191.0740  172.7090  139.3100 N   0  0  0  0  0  0  0  0  0  0  0  0
  192.1190  173.6220  139.7900 C   0  0  2  0  0  3  0  0  0  0  0  0
  193.4710  172.9560  139.6430 C   0  0  0  0  0  2  0  0  0  0  0  0
  194.4780  173.8860  139.8950 O   0  0  0  0  0  1  0  0  0  0  0  0
  190.4920  174.1640  137.5980 F   0  0  0  0  0  0  0  0  0  0  0  0
  190.0320  173.5680  138.7560 C   0  0  0  0  0  2  0  0  0  0  0  0
  1 10  1  0  0  0  0
  1 18  1  0  0  0  0
  2 16  1  0  0  0  0
  3  7  1  0  0  0  0
  4  8  1  0  0  0  0
  5  2  1  0  0  0  0
  6  2  1  0  0  0  0
  6  4  1  0  0  0  0
  7  5  1  0  0  0  0
  7 19  1  0  0  0  0
  9  6  1  0  0  0  0
 12  8  1  0  0  0  0
 13  9  1  0  0  0  0
 13  1  1  0  0  0  0
 14 15  1  0  0  0  0
 15  3  1  0  0  0  0
 16 11  1  0  0  0  0
 16 12  1  0  0  0  0
 17  9  1  0  0  0  0
 17  5  1  0  0  0  0
 18  4  1  0  0  0  0
 19 23  1  0  0  0  0
 20  1  1  0  0  0  0
 21 22  1  0  0  0  0
 21 15  1  0  0  0  0
 22 17  1  0  0  0  0
 23 11  1  0  0  0  0
 24 25  1  0  0  0  0
 25 19  1  0  0  0  0
 25 26  1  0  0  0  0
 28 29  1  0  0  0  0
 29 26  1  0  0  0  0
 29 27  2  0  0  0  0
 30 24  1  0  0  0  0
 30 28  1  0  0  0  0
 31 22  1  0  0  0  0
 32 33  1  0  0  0  0
 32 31  1  0  0  0  0
 33 31  1  0  0  0  0
 34 33  1  0  0  0  0
 34 35  1  0  0  0  0
 36 37  1  0  0  0  0
 37 32  1  0  0  0  0
M  END
>  <MODEL>
4

>  <REMARK>
 VINA RESULT:      -7.5      3.647      7.267
  Name = 
  4 active torsions:
  status: ('A' for Active; 'I' for Inactive)
    1  A    between atoms: C_1  and  C_27
    2  A    between atoms: N_4  and  C_37
    3  A    between atoms: C_8  and  C_12
    4  A    between atoms: C_23  and  C_30
                            x       y       z     vdW  Elec       q    Type
                         _______ _______ _______ _____ _____    ______ ____

>  <TORSDO>
F 4

$$$$
=
 OpenBabel11112417343D

 37 43  0  0  1  0  0  0  0  0999 V2000
  187.7990  175.7480  141.8980 C   0  0  0  0  0  0  0  0  0  0  0  0
  190.8360  173.6550  142.6020 C   0  0  1  0  0  3  0  0  0  0  0  0
  192.2990  173.9540  145.7000 O   0  0  0  0  0  0  0  0  0  0  0  0
  188.6080  173.7000  141.2450 C   0  0  2  0  0  3  0  0  0  0  0  0
  191.0870  174.6820  143.7050 C   0  0  2  0  0  3  0  0  0  0  0  0
  189.3030  173.5390  142.6010 C   0  0  2  0  0  3  0  0  0  0  0  0
  192.4320  174.5950  144.4530 C   0  0  2  0  0  3  0  0  0  0  0  0
  189.3880  172.9380  140.1870 C   0  0  0  0  0  2  0  0  0  0  0  0
  188.8150  174.5660  143.6230 C   0  0  2  0  0  3  0  0  0  0  0  0
  186.5790  175.1560  142.2180 F   0  0  0  0  0  0  0  0  0  0  0  0
  192.9370  173.9180  141.2090 C   0  0  0  0  0  2  0  0  0  0  0  0
  190.8270  173.4430  140.0330 C   0  0  0  0  0  2  0  0  0  0  0  0
  188.6380  175.8420  143.0270 O   0  0  0  0  0  0  0  0  0  0  0  0
  192.7950  176.2070  146.7040 C   0  0  0  0  0  1  0  0  0  0  0  0
  191.9720  174.9160  146.6930 C   0  0  1  0  0  3  0  0  0  0  0  0
  191.4270  174.1410  141.2630 C   0  0  1  0  0  3  0  0  0  0  0  0
  189.9220  174.6120  144.5820 N   0  0  2  0  0  0  0  0  0  0  0  0
  188.4610  175.0500  140.8650 O   0  0  0  0  0  0  0  0  0  0  0  0
  193.5870  174.0030  143.6210 C   0  0  1  0  0  3  0  0  0  0  0  0
  187.5370  177.0280  141.4510 F   0  0  0  0  0  0  0  0  0  0  0  0
  190.5300  175.1520  146.8160 N   0  0  0  0  0  2  0  0  0  0  0  0
  189.9400  175.6900  145.5890 C   0  0  2  0  0  3  0  0  0  0  0  0
  193.6970  174.7000  142.2690 C   0  0  0  0  0  2  0  0  0  0  0  0
  196.0290  174.6540  143.4270 C   0  0  0  0  0  2  0  0  0  0  0  0
  194.9510  174.0480  144.3220 C   0  0  2  0  0  3  0  0  0  0  0  0
  195.3770  172.6850  144.8830 C   0  0  0  0  0  2  0  0  0  0  0  0
  197.1920  171.7770  146.1360 O   0  0  0  0  0  0  0  0  0  0  0  0
  197.7170  173.6920  144.9230 N   0  0  0  0  0  2  0  0  0  0  0  0
  196.7920  172.6990  145.3800 C   0  0  0  0  0  0  0  0  0  0  0  0
  197.2740  174.9140  144.2620 C   0  0  0  0  0  2  0  0  0  0  0  0
  188.5280  176.2090  145.9470 C   0  0  1  0  0  3  0  0  0  0  0  0
  188.4870  177.3480  146.9100 N   0  0  0  0  0  0  0  0  0  0  0  0
  188.3170  177.5720  145.4690 C   0  0  2  0  0  3  0  0  0  0  0  0
  186.8480  177.7810  145.1660 C   0  0  0  0  0  2  0  0  0  0  0  0
  186.1750  176.5640  145.2600 O   0  0  0  0  0  1  0  0  0  0  0  0
  189.6890  178.6750  148.3870 F   0  0  0  0  0  0  0  0  0  0  0  0
  189.7930  177.9120  147.2400 C   0  0  0  0  0  2  0  0  0  0  0  0
  1 10  1  0  0  0  0
  1 13  1  0  0  0  0
  2  5  1  0  0  0  0
  3 15  1  0  0  0  0
  4  6  1  0  0  0  0
  5  7  1  0  0  0  0
  5 17  1  0  0  0  0
  6  2  1  0  0  0  0
  6  9  1  0  0  0  0
  7  3  1  0  0  0  0
  8  4  1  0  0  0  0
  9 17  1  0  0  0  0
 11 16  1  0  0  0  0
 11 23  1  0  0  0  0
 12  8  1  0  0  0  0
 12 16  1  0  0  0  0
 13  9  1  0  0  0  0
 15 14  1  0  0  0  0
 15 21  1  0  0  0  0
 16  2  1  0  0  0  0
 17 22  1  0  0  0  0
 18  4  1  0  0  0  0
 18  1  1  0  0  0  0
 19 25  1  0  0  0  0
 19  7  1  0  0  0  0
 20  1  1  0  0  0  0
 22 31  1  0  0  0  0
 22 21  1  0  0  0  0
 23 19  1  0  0  0  0
 24 30  1  0  0  0  0
 24 25  1  0  0  0  0
 25 26  1  0  0  0  0
 26 29  1  0  0  0  0
 28 29  1  0  0  0  0
 29 27  2  0  0  0  0
 30 28  1  0  0  0  0
 31 32  1  0  0  0  0
 32 37  1  0  0  0  0
 33 31  1  0  0  0  0
 33 32  1  0  0  0  0
 34 35  1  0  0  0  0
 34 33  1  0  0  0  0
 37 36  1  0  0  0  0
M  END
>  <MODEL>
5

>  <REMARK>
 VINA RESULT:      -7.5      4.053      6.419
  Name = 
  4 active torsions:
  status: ('A' for Active; 'I' for Inactive)
    1  A    between atoms: C_1  and  C_27
    2  A    between atoms: N_4  and  C_37
    3  A    between atoms: C_8  and  C_12
    4  A    between atoms: C_23  and  C_30
                            x       y       z     vdW  Elec       q    Type
                         _______ _______ _______ _____ _____    ______ ____

>  <TORSDO>
F 4

$$$$
=
 OpenBabel11112417343D

 37 43  0  0  1  0  0  0  0  0999 V2000
  195.2010  174.7030  142.4730 C   0  0  0  0  0  0  0  0  0  0  0  0
  192.4230  174.7780  145.0000 C   0  0  1  0  0  3  0  0  0  0  0  0
  189.3330  173.6390  144.0100 O   0  0  0  0  0  0  0  0  0  0  0  0
  195.0080  174.5180  144.7540 C   0  0  2  0  0  3  0  0  0  0  0  0
  191.5210  174.7020  143.7680 C   0  0  2  0  0  3  0  0  0  0  0  0
  193.6160  173.8990  144.5900 C   0  0  2  0  0  3  0  0  0  0  0  0
  190.0060  174.8750  143.9960 C   0  0  2  0  0  3  0  0  0  0  0  0
  195.0780  175.2510  146.0840 C   0  0  0  0  0  2  0  0  0  0  0  0
  193.3390  173.4810  143.1450 C   0  0  2  0  0  3  0  0  0  0  0  0
  195.9540  173.5320  142.4490 F   0  0  0  0  0  0  0  0  0  0  0  0
  191.6650  176.9690  146.0210 C   0  0  0  0  0  2  0  0  0  0  0  0
  194.0510  176.3840  146.1900 C   0  0  0  0  0  2  0  0  0  0  0  0
  193.8360  174.4440  142.2270 O   0  0  0  0  0  0  0  0  0  0  0  0
  188.2870  174.3920  141.8490 C   0  0  0  0  0  1  0  0  0  0  0  0
  188.9500  173.2940  142.6860 C   0  0  1  0  0  3  0  0  0  0  0  0
  192.8010  176.2400  145.3060 C   0  0  1  0  0  3  0  0  0  0  0  0
  191.8750  173.4550  143.0970 N   0  0  2  0  0  0  0  0  0  0  0  0
  195.3450  175.3890  143.6990 O   0  0  0  0  0  0  0  0  0  0  0  0
  189.6410  175.7460  145.2150 C   0  0  1  0  0  3  0  0  0  0  0  0
  195.6700  175.5220  141.4650 F   0  0  0  0  0  0  0  0  0  0  0  0
  189.9890  172.5620  141.9560 N   0  0  0  0  0  2  0  0  0  0  0  0
  191.2140  173.3460  141.7820 C   0  0  2  0  0  3  0  0  0  0  0  0
  190.3980  177.0690  145.1860 C   0  0  0  0  0  2  0  0  0  0  0  0
  187.6150  176.8880  144.2070 C   0  0  0  0  0  2  0  0  0  0  0  0
  188.1400  176.0290  145.3540 C   0  0  2  0  0  3  0  0  0  0  0  0
  187.7690  176.6170  146.7220 C   0  0  0  0  0  2  0  0  0  0  0  0
  185.7970  177.2930  147.8800 O   0  0  0  0  0  0  0  0  0  0  0  0
  185.6270  177.3650  145.5610 N   0  0  0  0  0  2  0  0  0  0  0  0
  186.3410  177.0760  146.7680 C   0  0  0  0  0  0  0  0  0  0  0  0
  186.0940  176.9050  144.2580 C   0  0  0  0  0  2  0  0  0  0  0  0
  192.0790  172.6180  140.7270 C   0  0  1  0  0  3  0  0  0  0  0  0
  191.5010  172.5590  139.3520 N   0  0  0  0  0  0  0  0  0  0  0  0
  192.5470  173.5330  139.6900 C   0  0  2  0  0  3  0  0  0  0  0  0
  193.8760  173.0470  139.1480 C   0  0  0  0  0  2  0  0  0  0  0  0
  194.6840  174.1420  138.8470 O   0  0  0  0  0  1  0  0  0  0  0  0
  189.4680  172.7230  138.2460 F   0  0  0  0  0  0  0  0  0  0  0  0
  190.2840  173.3450  139.1700 C   0  0  0  0  0  2  0  0  0  0  0  0
  1 18  1  0  0  0  0
  2 16  1  0  0  0  0
  4  8  1  0  0  0  0
  5  7  1  0  0  0  0
  5  2  1  0  0  0  0
  6  4  1  0  0  0  0
  6  2  1  0  0  0  0
  7  3  1  0  0  0  0
  7 19  1  0  0  0  0
  8 12  1  0  0  0  0
  9  6  1  0  0  0  0
 10  1  1  0  0  0  0
 13  1  1  0  0  0  0
 13  9  1  0  0  0  0
 14 15  1  0  0  0  0
 15  3  1  0  0  0  0
 16 11  1  0  0  0  0
 16 12  1  0  0  0  0
 17  9  1  0  0  0  0
 17  5  1  0  0  0  0
 18  4  1  0  0  0  0
 19 25  1  0  0  0  0
 20  1  1  0  0  0  0
 21 15  1  0  0  0  0
 22 21  1  0  0  0  0
 22 17  1  0  0  0  0
 23 19  1  0  0  0  0
 23 11  1  0  0  0  0
 24 30  1  0  0  0  0
 24 25  1  0  0  0  0
 25 26  1  0  0  0  0
 26 29  1  0  0  0  0
 28 29  1  0  0  0  0
 29 27  2  0  0  0  0
 30 28  1  0  0  0  0
 31 22  1  0  0  0  0
 32 33  1  0  0  0  0
 32 31  1  0  0  0  0
 33 31  1  0  0  0  0
 34 33  1  0  0  0  0
 35 34  1  0  0  0  0
 36 37  1  0  0  0  0
 37 32  1  0  0  0  0
M  END
>  <MODEL>
6

>  <REMARK>
 VINA RESULT:      -7.2      4.283      7.877
  Name = 
  4 active torsions:
  status: ('A' for Active; 'I' for Inactive)
    1  A    between atoms: C_1  and  C_27
    2  A    between atoms: N_4  and  C_37
    3  A    between atoms: C_8  and  C_12
    4  A    between atoms: C_23  and  C_30
                            x       y       z     vdW  Elec       q    Type
                         _______ _______ _______ _____ _____    ______ ____

>  <TORSDO>
F 4

$$$$
=
 OpenBabel11112417343D

 37 43  0  0  1  0  0  0  0  0999 V2000
  191.1470  175.9010  147.6210 C   0  0  0  0  0  0  0  0  0  0  0  0
  192.0710  175.3620  144.0200 C   0  0  1  0  0  3  0  0  0  0  0  0
  189.6990  176.0890  141.6380 O   0  0  0  0  0  0  0  0  0  0  0  0
  193.0600  175.9870  146.3530 C   0  0  2  0  0  3  0  0  0  0  0  0
  190.5570  175.3490  143.8040 C   0  0  2  0  0  3  0  0  0  0  0  0
  192.2360  176.4110  145.1320 C   0  0  2  0  0  3  0  0  0  0  0  0
  190.0520  174.9600  142.4010 C   0  0  2  0  0  3  0  0  0  0  0  0
  194.2940  175.2300  145.8880 C   0  0  0  0  0  2  0  0  0  0  0  0
  190.8160  176.8300  145.5150 C   0  0  2  0  0  3  0  0  0  0  0  0
  191.4350  177.1660  148.1280 F   0  0  0  0  0  0  0  0  0  0  0  0
  192.6990  173.0560  143.1800 C   0  0  0  0  0  2  0  0  0  0  0  0
  193.9480  173.9630  145.0980 C   0  0  0  0  0  2  0  0  0  0  0  0
  190.2780  175.9750  146.5120 O   0  0  0  0  0  0  0  0  0  0  0  0
  187.3320  175.2640  141.8490 C   0  0  0  0  0  1  0  0  0  0  0  0
  188.3390  176.4180  141.8810 C   0  0  1  0  0  3  0  0  0  0  0  0
  192.5750  173.9580  144.4070 C   0  0  1  0  0  3  0  0  0  0  0  0
  190.0830  176.6530  144.2590 N   0  0  2  0  0  0  0  0  0  0  0  0
  192.3220  175.2040  147.2630 O   0  0  0  0  0  0  0  0  0  0  0  0
  190.9880  174.0100  141.6280 C   0  0  1  0  0  3  0  0  0  0  0  0
  190.5110  175.1870  148.6170 F   0  0  0  0  0  0  0  0  0  0  0  0
  188.1560  177.3090  143.0300 N   0  0  0  0  0  2  0  0  0  0  0  0
  188.6090  176.7100  144.2870 C   0  0  2  0  0  3  0  0  0  0  0  0
  191.3700  172.8070  142.4830 C   0  0  0  0  0  2  0  0  0  0  0  0
  189.2520  172.5490  140.4980 C   0  0  0  0  0  2  0  0  0  0  0  0
  190.4160  173.5160  140.2930 C   0  0  2  0  0  3  0  0  0  0  0  0
  191.4870  172.9300  139.3650 C   0  0  0  0  0  2  0  0  0  0  0  0
  191.6150  172.0160  137.1660 O   0  0  0  0  0  0  0  0  0  0  0  0
  189.5220  171.8360  138.1670 N   0  0  0  0  0  2  0  0  0  0  0  0
  190.8870  172.2700  138.1590 C   0  0  0  0  0  0  0  0  0  0  0  0
  188.5660  172.3130  139.1590 C   0  0  0  0  0  2  0  0  0  0  0  0
  188.0580  177.5830  145.4380 C   0  0  1  0  0  3  0  0  0  0  0  0
  186.5710  177.6860  145.5100 N   0  0  0  0  0  0  0  0  0  0  0  0
  187.3090  176.7880  146.4070 C   0  0  2  0  0  3  0  0  0  0  0  0
  187.4170  177.4260  147.7760 C   0  0  0  0  0  2  0  0  0  0  0  0
  186.3160  178.2540  147.9920 O   0  0  0  0  0  1  0  0  0  0  0  0
  184.8970  177.5400  143.9090 F   0  0  0  0  0  0  0  0  0  0  0  0
  185.8550  176.8110  144.5860 C   0  0  0  0  0  2  0  0  0  0  0  0
  1 10  1  0  0  0  0
  1 20  1  0  0  0  0
  2 16  1  0  0  0  0
  2  6  1  0  0  0  0
  3 15  1  0  0  0  0
  3  7  1  0  0  0  0
  4 18  1  0  0  0  0
  5  2  1  0  0  0  0
  5 17  1  0  0  0  0
  6  9  1  0  0  0  0
  6  4  1  0  0  0  0
  7  5  1  0  0  0  0
  8  4  1  0  0  0  0
  9 13  1  0  0  0  0
 11 16  1  0  0  0  0
 12  8  1  0  0  0  0
 13  1  1  0  0  0  0
 14 15  1  0  0  0  0
 15 21  1  0  0  0  0
 16 12  1  0  0  0  0
 17 22  1  0  0  0  0
 17  9  1  0  0  0  0
 18  1  1  0  0  0  0
 19  7  1  0  0  0  0
 19 23  1  0  0  0  0
 21 22  1  0  0  0  0
 22 31  1  0  0  0  0
 23 11  1  0  0  0  0
 25 24  1  0  0  0  0
 25 19  1  0  0  0  0
 26 25  1  0  0  0  0
 27 29  2  0  0  0  0
 28 30  1  0  0  0  0
 29 28  1  0  0  0  0
 29 26  1  0  0  0  0
 30 24  1  0  0  0  0
 31 32  1  0  0  0  0
 31 33  1  0  0  0  0
 32 33  1  0  0  0  0
 33 34  1  0  0  0  0
 34 35  1  0  0  0  0
 36 37  1  0  0  0  0
 37 32  1  0  0  0  0
M  END
>  <MODEL>
7

>  <REMARK>
 VINA RESULT:      -7.2      2.269      2.905
  Name = 
  4 active torsions:
  status: ('A' for Active; 'I' for Inactive)
    1  A    between atoms: C_1  and  C_27
    2  A    between atoms: N_4  and  C_37
    3  A    between atoms: C_8  and  C_12
    4  A    between atoms: C_23  and  C_30
                            x       y       z     vdW  Elec       q    Type
                         _______ _______ _______ _____ _____    ______ ____

>  <TORSDO>
F 4

$$$$
=
 OpenBabel11112417343D

 37 43  0  0  1  0  0  0  0  0999 V2000
  186.9660  178.6800  147.8300 C   0  0  0  0  0  0  0  0  0  0  0  0
  185.8590  177.1500  144.5830 C   0  0  1  0  0  3  0  0  0  0  0  0
  188.0560  175.0470  142.9780 O   0  0  0  0  0  0  0  0  0  0  0  0
  184.9810  178.0210  146.8810 C   0  0  2  0  0  3  0  0  0  0  0  0
  187.3570  176.9370  144.3610 C   0  0  2  0  0  3  0  0  0  0  0  0
  185.7150  176.9270  146.0970 C   0  0  2  0  0  3  0  0  0  0  0  0
  187.7960  176.4310  142.9730 C   0  0  2  0  0  3  0  0  0  0  0  0
  183.7560  178.4630  146.0990 C   0  0  0  0  0  2  0  0  0  0  0  0
  187.1360  176.7030  146.6160 C   0  0  2  0  0  3  0  0  0  0  0  0
  186.6560  177.9450  148.9720 F   0  0  0  0  0  0  0  0  0  0  0  0
  185.2800  178.6140  142.5980 C   0  0  0  0  0  2  0  0  0  0  0  0
  184.1080  179.0360  144.7210 C   0  0  0  0  0  2  0  0  0  0  0  0
  187.7660  177.9340  146.9380 O   0  0  0  0  0  0  0  0  0  0  0  0
  190.4640  175.6850  142.6260 C   0  0  0  0  0  1  0  0  0  0  0  0
  189.4130  174.8220  143.3310 C   0  0  1  0  0  3  0  0  0  0  0  0
  185.4370  178.5570  144.1160 C   0  0  1  0  0  3  0  0  0  0  0  0
  187.8010  176.0900  145.4640 N   0  0  2  0  0  0  0  0  0  0  0  0
  185.8030  179.1300  147.1680 O   0  0  0  0  0  0  0  0  0  0  0  0
  186.8570  176.8380  141.8200 C   0  0  1  0  0  3  0  0  0  0  0  0
  187.6880  179.7870  148.2290 F   0  0  0  0  0  0  0  0  0  0  0  0
  189.6250  174.7260  144.7780 N   0  0  0  0  0  2  0  0  0  0  0  0
  189.2710  175.9600  145.4840 C   0  0  2  0  0  3  0  0  0  0  0  0
  186.5750  178.3360  141.8500 C   0  0  0  0  0  2  0  0  0  0  0  0
  186.4000  176.8720  139.3280 C   0  0  0  0  0  2  0  0  0  0  0  0
  187.3710  176.4510  140.4280 C   0  0  2  0  0  3  0  0  0  0  0  0
  187.7420  174.9660  140.3210 C   0  0  0  0  0  2  0  0  0  0  0  0
  188.6530  173.4840  138.6910 O   0  0  0  0  0  0  0  0  0  0  0  0
  187.5630  175.3390  137.8070 N   0  0  0  0  0  2  0  0  0  0  0  0
  188.0460  174.5630  138.9090 C   0  0  0  0  0  0  0  0  0  0  0  0
  187.0830  176.7060  137.9770 C   0  0  0  0  0  2  0  0  0  0  0  0
  189.8510  175.8550  146.9130 C   0  0  1  0  0  3  0  0  0  0  0  0
  191.3020  175.5170  146.9940 N   0  0  0  0  0  0  0  0  0  0  0  0
  190.8390  176.8990  147.1720 C   0  0  2  0  0  3  0  0  0  0  0  0
  190.8400  177.2400  148.6470 C   0  0  0  0  0  2  0  0  0  0  0  0
  190.5010  178.5820  148.8150 O   0  0  0  0  0  1  0  0  0  0  0  0
  192.6550  176.7020  145.5270 F   0  0  0  0  0  0  0  0  0  0  0  0
  191.9960  175.5020  145.7090 C   0  0  0  0  0  2  0  0  0  0  0  0
  1 20  1  0  0  0  0
  1 10  1  0  0  0  0
  2  6  1  0  0  0  0
  3 15  1  0  0  0  0
  4 18  1  0  0  0  0
  5  2  1  0  0  0  0
  5 17  1  0  0  0  0
  6  9  1  0  0  0  0
  6  4  1  0  0  0  0
  7  3  1  0  0  0  0
  7  5  1  0  0  0  0
  8  4  1  0  0  0  0
  9 13  1  0  0  0  0
 11 16  1  0  0  0  0
 12  8  1  0  0  0  0
 13  1  1  0  0  0  0
 14 15  1  0  0  0  0
 15 21  1  0  0  0  0
 16  2  1  0  0  0  0
 16 12  1  0  0  0  0
 17 22  1  0  0  0  0
 17  9  1  0  0  0  0
 18  1  1  0  0  0  0
 19 23  1  0  0  0  0
 19  7  1  0  0  0  0
 21 22  1  0  0  0  0
 22 31  1  0  0  0  0
 23 11  1  0  0  0  0
 24 25  1  0  0  0  0
 25 19  1  0  0  0  0
 26 25  1  0  0  0  0
 27 29  2  0  0  0  0
 28 30  1  0  0  0  0
 28 29  1  0  0  0  0
 29 26  1  0  0  0  0
 30 24  1  0  0  0  0
 31 32  1  0  0  0  0
 31 33  1  0  0  0  0
 32 33  1  0  0  0  0
 33 34  1  0  0  0  0
 34 35  1  0  0  0  0
 36 37  1  0  0  0  0
 37 32  1  0  0  0  0
M  END
>  <MODEL>
8

>  <REMARK>
 VINA RESULT:      -7.1      2.454      5.155
  Name = 
  4 active torsions:
  status: ('A' for Active; 'I' for Inactive)
    1  A    between atoms: C_1  and  C_27
    2  A    between atoms: N_4  and  C_37
    3  A    between atoms: C_8  and  C_12
    4  A    between atoms: C_23  and  C_30
                            x       y       z     vdW  Elec       q    Type
                         _______ _______ _______ _____ _____    ______ ____

>  <TORSDO>
F 4

$$$$
=
 OpenBabel11112417343D

 37 43  0  0  1  0  0  0  0  0999 V2000
  190.4330  177.4620  144.6080 C   0  0  0  0  0  0  0  0  0  0  0  0
  189.5890  174.1670  143.0150 C   0  0  1  0  0  3  0  0  0  0  0  0
  191.8810  171.6190  143.3060 O   0  0  0  0  0  0  0  0  0  0  0  0
  188.5280  176.2660  144.1460 C   0  0  2  0  0  3  0  0  0  0  0  0
  191.0960  173.9250  143.1010 C   0  0  2  0  0  3  0  0  0  0  0  0
  189.3080  174.9560  144.3040 C   0  0  2  0  0  3  0  0  0  0  0  0
  191.6470  172.6690  142.3980 C   0  0  2  0  0  3  0  0  0  0  0  0
  187.3840  176.0540  143.1680 C   0  0  0  0  0  2  0  0  0  0  0  0
  190.6730  175.1750  144.9560 C   0  0  2  0  0  3  0  0  0  0  0  0
  190.0100  177.6120  145.9260 F   0  0  0  0  0  0  0  0  0  0  0  0
  189.2140  174.0000  140.5150 C   0  0  0  0  0  2  0  0  0  0  0  0
  187.8660  175.6300  141.7760 C   0  0  0  0  0  2  0  0  0  0  0  0
  191.2950  176.3540  144.4660 O   0  0  0  0  0  0  0  0  0  0  0  0
  194.3220  171.9880  142.8200 C   0  0  0  0  0  1  0  0  0  0  0  0
  193.1970  171.7300  143.8280 C   0  0  1  0  0  3  0  0  0  0  0  0
  189.2350  174.9320  141.7250 C   0  0  1  0  0  3  0  0  0  0  0  0
  191.4260  173.9960  144.5210 N   0  0  2  0  0  0  0  0  0  0  0  0
  189.3410  177.3360  143.7220 O   0  0  0  0  0  0  0  0  0  0  0  0
  190.8210  172.2060  141.1810 C   0  0  1  0  0  3  0  0  0  0  0  0
  191.1370  178.5980  144.2630 F   0  0  0  0  0  0  0  0  0  0  0  0
  193.2790  172.5880  145.0130 N   0  0  0  0  0  2  0  0  0  0  0  0
  192.8860  173.9720  144.7350 C   0  0  2  0  0  3  0  0  0  0  0  0
  190.5640  173.3650  140.2240 C   0  0  0  0  0  2  0  0  0  0  0  0
  192.6870  171.4800  139.6280 C   0  0  0  0  0  2  0  0  0  0  0  0
  191.4480  171.0420  140.4040 C   0  0  2  0  0  3  0  0  0  0  0  0
  190.4410  170.3130  139.5050 C   0  0  0  0  0  2  0  0  0  0  0  0
  190.4170  168.4340  138.0370 O   0  0  0  0  0  0  0  0  0  0  0  0
  192.5060  169.4230  138.3060 N   0  0  0  0  0  2  0  0  0  0  0  0
  191.1090  169.3170  138.6050 C   0  0  0  0  0  0  0  0  0  0  0  0
  193.4060  170.2440  139.1070 C   0  0  0  0  0  2  0  0  0  0  0  0
  193.3360  174.8280  145.9420 C   0  0  1  0  0  3  0  0  0  0  0  0
  194.8110  174.9360  146.1380 N   0  0  0  0  0  0  0  0  0  0  0  0
  194.0510  176.0270  145.5150 C   0  0  2  0  0  3  0  0  0  0  0  0
  193.8390  177.1320  146.5290 C   0  0  0  0  0  2  0  0  0  0  0  0
  192.7850  176.7910  147.3750 O   0  0  0  0  0  1  0  0  0  0  0  0
  196.3790  173.3240  145.5640 F   0  0  0  0  0  0  0  0  0  0  0  0
  195.6120  174.3570  145.0630 C   0  0  0  0  0  2  0  0  0  0  0  0
  1 10  1  0  0  0  0
  2  5  1  0  0  0  0
  2  6  1  0  0  0  0
  3 15  1  0  0  0  0
  4  6  1  0  0  0  0
  5 17  1  0  0  0  0
  6  9  1  0  0  0  0
  7  5  1  0  0  0  0
  7  3  1  0  0  0  0
  8  4  1  0  0  0  0
 11 16  1  0  0  0  0
 12  8  1  0  0  0  0
 13  1  1  0  0  0  0
 13  9  1  0  0  0  0
 14 15  1  0  0  0  0
 15 21  1  0  0  0  0
 16 12  1  0  0  0  0
 16  2  1  0  0  0  0
 17 22  1  0  0  0  0
 17  9  1  0  0  0  0
 18  4  1  0  0  0  0
 18  1  1  0  0  0  0
 19  7  1  0  0  0  0
 20  1  1  0  0  0  0
 22 21  1  0  0  0  0
 22 31  1  0  0  0  0
 23 11  1  0  0  0  0
 23 19  1  0  0  0  0
 24 25  1  0  0  0  0
 25 19  1  0  0  0  0
 26 25  1  0  0  0  0
 27 29  2  0  0  0  0
 28 29  1  0  0  0  0
 28 30  1  0  0  0  0
 29 26  1  0  0  0  0
 30 24  1  0  0  0  0
 31 32  1  0  0  0  0
 33 31  1  0  0  0  0
 33 32  1  0  0  0  0
 33 34  1  0  0  0  0
 34 35  1  0  0  0  0
 37 36  1  0  0  0  0
 37 32  1  0  0  0  0
M  END
>  <MODEL>
9

>  <REMARK>
 VINA RESULT:      -6.9      3.989      6.654
  Name = 
  4 active torsions:
  status: ('A' for Active; 'I' for Inactive)
    1  A    between atoms: C_1  and  C_27
    2  A    between atoms: N_4  and  C_37
    3  A    between atoms: C_8  and  C_12
    4  A    between atoms: C_23  and  C_30
                            x       y       z     vdW  Elec       q    Type
                         _______ _______ _______ _____ _____    ______ ____

>  <TORSDO>
F 4

$$$$
