=
 OpenBabel11112416223D

 30 35  0  0  1  0  0  0  0  0999 V2000
  187.4600  176.5310  145.3050 C   0  0  0  0  0  0  0  0  0  0  0  0
  185.7530  177.6740  146.6980 C   0  0  0  0  0  0  0  0  0  0  0  0
  185.2990  177.7970  141.4590 S   0  0  0  0  0  0  0  0  0  0  0  0
  187.9370  176.1490  144.0320 C   0  0  0  0  0  0  0  0  0  0  0  0
  188.1700  176.1290  146.4420 O   0  0  0  0  0  0  0  0  0  0  0  0
  190.8890  174.2870  145.0850 O   0  0  0  0  0  0  0  0  0  0  0  0
  188.2960  173.9970  141.9450 C   0  0  1  0  0  3  0  0  0  0  0  0
  189.8790  175.0420  145.1320 C   0  0  0  0  0  0  0  0  0  0  0  0
  187.5490  174.9450  141.0920 N   0  0  2  0  0  0  0  0  0  0  0  0
  186.7990  177.2360  140.6680 C   0  0  0  0  0  0  0  0  0  0  0  0
  189.5460  175.7640  146.4060 C   0  0  2  0  0  3  0  0  0  0  0  0
  189.0980  175.2860  143.9470 N   0  0  0  0  0  0  0  0  0  0  0  0
  184.5810  178.4290  146.7770 C   0  0  0  0  0  3  0  0  0  0  0  0
  188.0880  174.7460  139.7520 C   0  0  0  0  0  2  0  0  0  0  0  0
  188.7680  172.8570  141.0610 C   0  0  0  0  0  2  0  0  0  0  0  0
  186.3810  177.3150  147.8860 O   0  0  0  0  0  1  0  0  0  0  0  0
  186.0740  177.3330  143.0070 C   0  0  0  0  0  0  0  0  0  0  0  0
  183.9090  178.8190  145.6200 C   0  0  0  0  0  3  0  0  0  0  0  0
  186.2720  177.2930  145.4360 C   0  0  0  0  0  0  0  0  0  0  0  0
  187.2370  176.5800  142.8880 C   0  0  0  0  0  0  0  0  0  0  0  0
  187.1170  177.6290  139.5570 O   0  0  0  0  0  0  0  0  0  0  0  0
  187.6970  176.3570  141.4820 C   0  0  1  0  0  3  0  0  0  0  0  0
  188.4830  173.2920  139.6440 C   0  0  0  0  0  2  0  0  0  0  0  0
  190.4860  175.3950  141.8920 C   0  0  0  0  0  1  0  0  0  0  0  0
  184.4050  178.4550  144.3710 C   0  0  0  0  0  3  0  0  0  0  0  0
  185.5780  177.6960  144.2650 C   0  0  0  0  0  0  0  0  0  0  0  0
  189.4950  174.5830  142.7210 C   0  0  2  0  0  3  0  0  0  0  0  0
  189.8830  174.9230  147.6330 C   0  0  0  0  0  2  0  0  0  0  0  0
  191.4030  176.8460  148.0920 C   0  0  0  0  0  1  0  0  0  0  0  0
  191.2070  175.3500  148.2440 C   0  0  0  0  0  2  0  0  0  0  0  0
  1 19  1  0  0  0  0
  1  5  1  0  0  0  0
  2 13  1  0  0  0  0
  2 16  1  0  0  0  0
  3 17  1  0  0  0  0
  4  1  2  0  0  0  0
  6  8  2  0  0  0  0
  7 15  1  6  0  0  0
  7 27  1  0  0  0  0
  8 11  1  0  0  0  0
  9 14  1  6  0  0  0
  9 22  1  0  0  0  0
  9  7  1  0  0  0  0
 10  3  1  0  0  0  0
 11  5  1  0  0  0  0
 11 28  1  1  0  0  0
 12  4  1  0  0  0  0
 12  8  1  0  0  0  0
 17 26  1  0  0  0  0
 18 13  2  0  0  0  0
 19  2  2  0  0  0  0
 20 17  2  0  0  0  0
 20  4  1  0  0  0  0
 21 10  2  0  0  0  0
 22 10  1  6  0  0  0
 22 20  1  0  0  0  0
 23 14  1  0  0  0  0
 23 15  1  0  0  0  0
 25 18  1  0  0  0  0
 26 25  2  0  0  0  0
 26 19  1  0  0  0  0
 27 24  1  6  0  0  0
 27 12  1  0  0  0  0
 28 30  1  0  0  0  0
 29 30  1  0  0  0  0
M  END
>  <MODEL>
1

>  <REMARK>
 VINA RESULT:      -8.7      0.000      0.000
  Name = 
  2 active torsions:
  status: ('A' for Active; 'I' for Inactive)
    1  A    between atoms: C_11  and  C_28
    2  A    between atoms: C_28  and  C_30
                            x       y       z     vdW  Elec       q    Type
                         _______ _______ _______ _____ _____    ______ ____

>  <TORSDO>
F 2

$$$$
=
 OpenBabel11112416223D

 30 35  0  0  1  0  0  0  0  0999 V2000
  187.9800  175.8800  141.8470 C   0  0  0  0  0  0  0  0  0  0  0  0
  189.4230  173.9890  141.1360 C   0  0  0  0  0  0  0  0  0  0  0  0
  189.5280  175.5580  146.1560 S   0  0  0  0  0  0  0  0  0  0  0  0
  187.5000  176.7290  142.8680 C   0  0  0  0  0  0  0  0  0  0  0  0
  187.4840  176.0350  140.5480 O   0  0  0  0  0  0  0  0  0  0  0  0
  185.1800  178.7200  140.8820 O   0  0  0  0  0  0  0  0  0  0  0  0
  185.2810  177.4830  144.7720 C   0  0  1  0  0  3  0  0  0  0  0  0
  186.0970  177.9050  141.1780 C   0  0  0  0  0  0  0  0  0  0  0  0
  186.3270  177.2770  145.7950 N   0  0  2  0  0  0  0  0  0  0  0  0
  188.7050  177.1300  146.3580 C   0  0  0  0  0  0  0  0  0  0  0  0
  186.8880  177.2440  140.0870 C   0  0  2  0  0  3  0  0  0  0  0  0
  186.4490  177.6770  142.5550 N   0  0  0  0  0  0  0  0  0  0  0  0
  190.3690  173.0150  141.4630 C   0  0  0  0  0  3  0  0  0  0  0  0
  186.0140  178.2380  146.8460 C   0  0  0  0  0  2  0  0  0  0  0  0
  184.0610  178.0560  145.4690 C   0  0  0  0  0  2  0  0  0  0  0  0
  188.9840  174.0580  139.8180 O   0  0  0  0  0  1  0  0  0  0  0  0
  188.9670  175.6080  144.4550 C   0  0  0  0  0  0  0  0  0  0  0  0
  190.8480  172.9000  142.7670 C   0  0  0  0  0  3  0  0  0  0  0  0
  188.9360  174.8720  142.1310 C   0  0  0  0  0  0  0  0  0  0  0  0
  188.0240  176.5900  144.1680 C   0  0  0  0  0  0  0  0  0  0  0  0
  189.0170  177.9010  147.2500 O   0  0  0  0  0  0  0  0  0  0  0  0
  187.6990  177.4990  145.3100 C   0  0  1  0  0  3  0  0  0  0  0  0
  184.5130  178.3990  146.8680 C   0  0  0  0  0  2  0  0  0  0  0  0
  186.2820  179.7310  143.9390 C   0  0  0  0  0  1  0  0  0  0  0  0
  190.3810  173.7610  143.7580 C   0  0  0  0  0  3  0  0  0  0  0  0
  189.4310  174.7450  143.4560 C   0  0  0  0  0  0  0  0  0  0  0  0
  185.6670  178.3830  143.5770 C   0  0  2  0  0  3  0  0  0  0  0  0
  186.0240  176.9520  138.8650 C   0  0  0  0  0  2  0  0  0  0  0  0
  186.0440  176.0930  136.5230 C   0  0  0  0  0  1  0  0  0  0  0  0
  186.7740  176.1020  137.8520 C   0  0  0  0  0  2  0  0  0  0  0  0
  1 19  2  0  0  0  0
  1  4  1  0  0  0  0
  2 13  2  0  0  0  0
  2 19  1  0  0  0  0
  3 10  1  0  0  0  0
  4 20  2  0  0  0  0
  5  1  1  0  0  0  0
  6  8  2  0  0  0  0
  7 15  1  1  0  0  0
  7  9  1  0  0  0  0
  8 12  1  0  0  0  0
  9 14  1  1  0  0  0
 10 21  2  0  0  0  0
 11 28  1  6  0  0  0
 11  5  1  0  0  0  0
 11  8  1  0  0  0  0
 12  4  1  0  0  0  0
 12 27  1  0  0  0  0
 13 18  1  0  0  0  0
 14 23  1  0  0  0  0
 15 23  1  0  0  0  0
 16  2  1  0  0  0  0
 17  3  1  0  0  0  0
 18 25  2  0  0  0  0
 19 26  1  0  0  0  0
 20 17  1  0  0  0  0
 22 20  1  6  0  0  0
 22  9  1  0  0  0  0
 22 10  1  0  0  0  0
 26 25  1  0  0  0  0
 26 17  2  0  0  0  0
 27 24  1  1  0  0  0
 27  7  1  0  0  0  0
 29 30  1  0  0  0  0
 30 28  1  0  0  0  0
M  END
>  <MODEL>
2

>  <REMARK>
 VINA RESULT:      -7.8      2.346      7.238
  Name = 
  2 active torsions:
  status: ('A' for Active; 'I' for Inactive)
    1  A    between atoms: C_11  and  C_28
    2  A    between atoms: C_28  and  C_30
                            x       y       z     vdW  Elec       q    Type
                         _______ _______ _______ _____ _____    ______ ____

>  <TORSDO>
F 2

$$$$
=
 OpenBabel11112416223D

 30 35  0  0  1  0  0  0  0  0999 V2000
  188.1710  175.6580  141.8180 C   0  0  0  0  0  0  0  0  0  0  0  0
  186.4760  177.3690  141.2160 C   0  0  0  0  0  0  0  0  0  0  0  0
  188.1160  177.0170  146.2020 S   0  0  0  0  0  0  0  0  0  0  0  0
  189.0060  175.0580  142.7860 C   0  0  0  0  0  0  0  0  0  0  0  0
  188.2190  175.1910  140.5000 O   0  0  0  0  0  0  0  0  0  0  0  0
  190.6430  172.5980  140.6530 O   0  0  0  0  0  0  0  0  0  0  0  0
  191.7650  174.7090  143.9610 C   0  0  1  0  0  3  0  0  0  0  0  0
  189.8330  173.4830  141.0430 C   0  0  0  0  0  0  0  0  0  0  0  0
  191.1060  175.1760  145.1990 N   0  0  2  0  0  0  0  0  0  0  0  0
  189.0420  175.5140  146.4720 C   0  0  0  0  0  0  0  0  0  0  0  0
  188.6920  173.8930  140.1560 C   0  0  2  0  0  3  0  0  0  0  0  0
  189.9430  174.0350  142.3670 N   0  0  0  0  0  0  0  0  0  0  0  0
  185.6410  178.4180  141.6080 C   0  0  0  0  0  3  0  0  0  0  0  0
  191.7980  174.4780  146.2760 C   0  0  0  0  0  2  0  0  0  0  0  0
  193.1750  174.2820  144.3250 C   0  0  0  0  0  2  0  0  0  0  0  0
  186.4600  176.9830  139.8800 O   0  0  0  0  0  1  0  0  0  0  0  0
  188.0870  176.5570  144.4700 C   0  0  0  0  0  0  0  0  0  0  0  0
  185.6140  178.8470  142.9340 C   0  0  0  0  0  3  0  0  0  0  0  0
  187.3110  176.7290  142.1670 C   0  0  0  0  0  0  0  0  0  0  0  0
  188.9330  175.5100  144.1180 C   0  0  0  0  0  0  0  0  0  0  0  0
  189.0830  174.9810  147.5690 O   0  0  0  0  0  0  0  0  0  0  0  0
  189.6640  174.8840  145.2640 C   0  0  1  0  0  3  0  0  0  0  0  0
  193.2290  174.2870  145.8330 C   0  0  0  0  0  2  0  0  0  0  0  0
  190.6660  172.3570  144.0470 C   0  0  0  0  0  1  0  0  0  0  0  0
  186.4260  178.2280  143.8810 C   0  0  0  0  0  3  0  0  0  0  0  0
  187.2740  177.1750  143.5140 C   0  0  0  0  0  0  0  0  0  0  0  0
  191.0550  173.5670  143.2040 C   0  0  2  0  0  3  0  0  0  0  0  0
  189.0880  173.8680  138.6840 C   0  0  0  0  0  2  0  0  0  0  0  0
  188.5790  174.8290  136.4390 C   0  0  0  0  0  1  0  0  0  0  0  0
  188.0270  174.5280  137.8190 C   0  0  0  0  0  2  0  0  0  0  0  0
  1 19  2  0  0  0  0
  1  4  1  0  0  0  0
  2 13  2  0  0  0  0
  2 19  1  0  0  0  0
  3 10  1  0  0  0  0
  4 20  2  0  0  0  0
  5  1  1  0  0  0  0
  6  8  2  0  0  0  0
  7 15  1  1  0  0  0
  7  9  1  0  0  0  0
  8 12  1  0  0  0  0
  9 22  1  0  0  0  0
  9 14  1  1  0  0  0
 10 21  2  0  0  0  0
 11 28  1  6  0  0  0
 11  5  1  0  0  0  0
 11  8  1  0  0  0  0
 12  4  1  0  0  0  0
 12 27  1  0  0  0  0
 13 18  1  0  0  0  0
 15 23  1  0  0  0  0
 16  2  1  0  0  0  0
 17  3  1  0  0  0  0
 18 25  2  0  0  0  0
 19 26  1  0  0  0  0
 20 17  1  0  0  0  0
 22 20  1  6  0  0  0
 22 10  1  0  0  0  0
 23 14  1  0  0  0  0
 26 25  1  0  0  0  0
 26 17  2  0  0  0  0
 27  7  1  0  0  0  0
 27 24  1  1  0  0  0
 29 30  1  0  0  0  0
 30 28  1  0  0  0  0
M  END
>  <MODEL>
3

>  <REMARK>
 VINA RESULT:      -7.7      2.253      5.888
  Name = 
  2 active torsions:
  status: ('A' for Active; 'I' for Inactive)
    1  A    between atoms: C_11  and  C_28
    2  A    between atoms: C_28  and  C_30
                            x       y       z     vdW  Elec       q    Type
                         _______ _______ _______ _____ _____    ______ ____

>  <TORSDO>
F 2

$$$$
=
 OpenBabel11112416223D

 30 35  0  0  1  0  0  0  0  0999 V2000
  188.5910  175.9580  143.0690 C   0  0  0  0  0  0  0  0  0  0  0  0
  186.4850  177.2670  142.9570 C   0  0  0  0  0  0  0  0  0  0  0  0
  189.4890  177.5910  147.2630 S   0  0  0  0  0  0  0  0  0  0  0  0
  189.7670  175.5980  143.7640 C   0  0  0  0  0  0  0  0  0  0  0  0
  188.3630  175.4160  141.7990 O   0  0  0  0  0  0  0  0  0  0  0  0
  191.2070  173.3490  141.2830 O   0  0  0  0  0  0  0  0  0  0  0  0
  192.7560  175.8670  144.0990 C   0  0  1  0  0  3  0  0  0  0  0  0
  190.3760  174.0900  141.8770 C   0  0  0  0  0  0  0  0  0  0  0  0
  192.3880  176.2860  145.4670 N   0  0  2  0  0  0  0  0  0  0  0  0
  190.7380  176.3150  147.2760 C   0  0  0  0  0  0  0  0  0  0  0  0
  188.9750  174.2100  141.3520 C   0  0  2  0  0  3  0  0  0  0  0  0
  190.7380  174.7460  143.1060 N   0  0  0  0  0  0  0  0  0  0  0  0
  185.5980  178.1620  143.5580 C   0  0  0  0  0  3  0  0  0  0  0  0
  193.4800  175.8120  146.3090 C   0  0  0  0  0  2  0  0  0  0  0  0
  194.2670  175.7430  144.0470 C   0  0  0  0  0  2  0  0  0  0  0  0
  186.1750  176.7910  141.6880 O   0  0  0  0  0  1  0  0  0  0  0  0
  189.0710  177.0110  145.6200 C   0  0  0  0  0  0  0  0  0  0  0  0
  185.8560  178.6720  144.8290 C   0  0  0  0  0  3  0  0  0  0  0  0
  187.6640  176.8680  143.6350 C   0  0  0  0  0  0  0  0  0  0  0  0
  189.9790  176.1220  145.0540 C   0  0  0  0  0  0  0  0  0  0  0  0
  191.1910  175.8790  148.3220 O   0  0  0  0  0  0  0  0  0  0  0  0
  191.1120  175.7300  145.9480 C   0  0  1  0  0  3  0  0  0  0  0  0
  194.7380  175.8660  145.4760 C   0  0  0  0  0  2  0  0  0  0  0  0
  192.2260  173.3600  144.5300 C   0  0  0  0  0  1  0  0  0  0  0  0
  187.0080  178.2890  145.5120 C   0  0  0  0  0  3  0  0  0  0  0  0
  187.9150  177.3930  144.9300 C   0  0  0  0  0  0  0  0  0  0  0  0
  192.1090  174.5590  143.5930 C   0  0  2  0  0  3  0  0  0  0  0  0
  188.9400  174.1570  139.8280 C   0  0  0  0  0  2  0  0  0  0  0  0
  189.2750  171.9880  138.6410 C   0  0  0  0  0  1  0  0  0  0  0  0
  188.2680  172.8840  139.3390 C   0  0  0  0  0  2  0  0  0  0  0  0
  1 19  2  0  0  0  0
  1  4  1  0  0  0  0
  2 13  2  0  0  0  0
  2 19  1  0  0  0  0
  3 10  1  0  0  0  0
  4 20  2  0  0  0  0
  5  1  1  0  0  0  0
  6  8  2  0  0  0  0
  7 15  1  1  0  0  0
  7  9  1  0  0  0  0
  8 12  1  0  0  0  0
  9 22  1  0  0  0  0
  9 14  1  1  0  0  0
 10 21  2  0  0  0  0
 11 28  1  6  0  0  0
 11  5  1  0  0  0  0
 11  8  1  0  0  0  0
 12 27  1  0  0  0  0
 12  4  1  0  0  0  0
 13 18  1  0  0  0  0
 15 23  1  0  0  0  0
 16  2  1  0  0  0  0
 17  3  1  0  0  0  0
 18 25  2  0  0  0  0
 19 26  1  0  0  0  0
 20 17  1  0  0  0  0
 22 20  1  6  0  0  0
 22 10  1  0  0  0  0
 23 14  1  0  0  0  0
 26 25  1  0  0  0  0
 26 17  2  0  0  0  0
 27  7  1  0  0  0  0
 27 24  1  1  0  0  0
 29 30  1  0  0  0  0
 30 28  1  0  0  0  0
M  END
>  <MODEL>
4

>  <REMARK>
 VINA RESULT:      -7.7      2.648      5.822
  Name = 
  2 active torsions:
  status: ('A' for Active; 'I' for Inactive)
    1  A    between atoms: C_11  and  C_28
    2  A    between atoms: C_28  and  C_30
                            x       y       z     vdW  Elec       q    Type
                         _______ _______ _______ _____ _____    ______ ____

>  <TORSDO>
F 2

$$$$
=
 OpenBabel11112416223D

 30 35  0  0  1  0  0  0  0  0999 V2000
  188.0220  175.9630  141.9980 C   0  0  0  0  0  0  0  0  0  0  0  0
  186.5060  177.0700  140.3750 C   0  0  0  0  0  0  0  0  0  0  0  0
  186.0850  178.2260  145.4890 S   0  0  0  0  0  0  0  0  0  0  0  0
  188.4760  175.7980  143.3250 C   0  0  0  0  0  0  0  0  0  0  0  0
  188.6410  175.2340  140.9770 O   0  0  0  0  0  0  0  0  0  0  0  0
  191.1060  173.3510  142.7100 O   0  0  0  0  0  0  0  0  0  0  0  0
  190.5720  176.3500  145.4280 C   0  0  1  0  0  3  0  0  0  0  0  0
  190.1070  174.0970  142.5180 C   0  0  0  0  0  0  0  0  0  0  0  0
  189.4280  176.9230  146.1660 N   0  0  2  0  0  0  0  0  0  0  0  0
  187.0060  177.0690  146.4900 C   0  0  0  0  0  0  0  0  0  0  0  0
  189.3650  174.0310  141.2140 C   0  0  2  0  0  3  0  0  0  0  0  0
  189.6200  174.9440  143.5750 N   0  0  0  0  0  0  0  0  0  0  0  0
  185.4630  177.9660  140.1280 C   0  0  0  0  0  3  0  0  0  0  0  0
  189.7200  176.6590  147.5700 C   0  0  0  0  0  2  0  0  0  0  0  0
  191.7660  176.3420  146.3640 C   0  0  0  0  0  2  0  0  0  0  0  0
  187.0630  176.4000  139.2910 O   0  0  0  0  0  1  0  0  0  0  0  0
  186.7950  177.3930  144.0700 C   0  0  0  0  0  0  0  0  0  0  0  0
  184.8650  178.6650  141.1750 C   0  0  0  0  0  3  0  0  0  0  0  0
  186.9710  176.8640  141.6980 C   0  0  0  0  0  0  0  0  0  0  0  0
  187.8320  176.5110  144.3560 C   0  0  0  0  0  0  0  0  0  0  0  0
  186.6770  176.8190  147.6390 O   0  0  0  0  0  0  0  0  0  0  0  0
  188.1240  176.3380  145.8120 C   0  0  1  0  0  3  0  0  0  0  0  0
  191.2220  176.6980  147.7260 C   0  0  0  0  0  2  0  0  0  0  0  0
  189.8230  173.8920  145.8150 C   0  0  0  0  0  1  0  0  0  0  0  0
  185.3090  178.4740  142.4820 C   0  0  0  0  0  3  0  0  0  0  0  0
  186.3540  177.5830  142.7560 C   0  0  0  0  0  0  0  0  0  0  0  0
  190.3610  174.9360  144.8420 C   0  0  2  0  0  3  0  0  0  0  0  0
  190.3080  173.7640  140.0450 C   0  0  0  0  0  2  0  0  0  0  0  0
  188.5660  172.6480  138.6520 C   0  0  0  0  0  1  0  0  0  0  0  0
  189.5620  173.7910  138.7210 C   0  0  0  0  0  2  0  0  0  0  0  0
  1  4  1  0  0  0  0
  2 19  1  0  0  0  0
  3 10  1  0  0  0  0
  4 12  1  0  0  0  0
  4 20  2  0  0  0  0
  5 11  1  0  0  0  0
  5  1  1  0  0  0  0
  7  9  1  0  0  0  0
  7 15  1  1  0  0  0
  8  6  2  0  0  0  0
  8 12  1  0  0  0  0
  9 14  1  1  0  0  0
 10 21  2  0  0  0  0
 11 28  1  6  0  0  0
 11  8  1  0  0  0  0
 12 27  1  0  0  0  0
 13  2  2  0  0  0  0
 13 18  1  0  0  0  0
 14 23  1  0  0  0  0
 15 23  1  0  0  0  0
 16  2  1  0  0  0  0
 17 20  1  0  0  0  0
 17  3  1  0  0  0  0
 18 25  2  0  0  0  0
 19  1  2  0  0  0  0
 19 26  1  0  0  0  0
 22 20  1  6  0  0  0
 22  9  1  0  0  0  0
 22 10  1  0  0  0  0
 25 26  1  0  0  0  0
 26 17  2  0  0  0  0
 27  7  1  0  0  0  0
 27 24  1  1  0  0  0
 29 30  1  0  0  0  0
 30 28  1  0  0  0  0
M  END
>  <MODEL>
5

>  <REMARK>
 VINA RESULT:      -7.6      1.763      5.723
  Name = 
  2 active torsions:
  status: ('A' for Active; 'I' for Inactive)
    1  A    between atoms: C_11  and  C_28
    2  A    between atoms: C_28  and  C_30
                            x       y       z     vdW  Elec       q    Type
                         _______ _______ _______ _____ _____    ______ ____

>  <TORSDO>
F 2

$$$$
=
 OpenBabel11112416223D

 30 35  0  0  1  0  0  0  0  0999 V2000
  190.1250  174.8580  143.5640 C   0  0  0  0  0  0  0  0  0  0  0  0
  192.1110  173.3700  143.5640 C   0  0  0  0  0  0  0  0  0  0  0  0
  191.1100  176.3250  147.7990 S   0  0  0  0  0  0  0  0  0  0  0  0
  189.2980  175.7880  144.2330 C   0  0  0  0  0  0  0  0  0  0  0  0
  189.7830  174.4600  142.2670 O   0  0  0  0  0  0  0  0  0  0  0  0
  186.8100  176.2940  141.6180 O   0  0  0  0  0  0  0  0  0  0  0  0
  186.7240  176.3700  145.6990 C   0  0  1  0  0  3  0  0  0  0  0  0
  187.8660  175.9220  142.1990 C   0  0  0  0  0  0  0  0  0  0  0  0
  187.6390  176.8060  146.7730 N   0  0  2  0  0  0  0  0  0  0  0  0
  189.8690  177.5600  147.4460 C   0  0  0  0  0  0  0  0  0  0  0  0
  188.9470  175.2360  141.4140 C   0  0  2  0  0  3  0  0  0  0  0  0
  188.0800  176.2350  143.5870 N   0  0  0  0  0  0  0  0  0  0  0  0
  193.2350  172.8720  144.2280 C   0  0  0  0  0  3  0  0  0  0  0  0
  186.9380  177.8970  147.4400 C   0  0  0  0  0  2  0  0  0  0  0  0
  185.3120  176.7300  146.1230 C   0  0  0  0  0  2  0  0  0  0  0  0
  191.8500  172.9050  142.2800 O   0  0  0  0  0  1  0  0  0  0  0  0
  190.7890  175.6920  146.1540 C   0  0  0  0  0  0  0  0  0  0  0  0
  193.5480  173.3030  145.5160 C   0  0  0  0  0  3  0  0  0  0  0  0
  191.2730  174.3200  144.1980 C   0  0  0  0  0  0  0  0  0  0  0  0
  189.6610  176.2100  145.5270 C   0  0  0  0  0  0  0  0  0  0  0  0
  189.8360  178.6200  148.0500 O   0  0  0  0  0  0  0  0  0  0  0  0
  188.9510  177.2770  146.2970 C   0  0  1  0  0  3  0  0  0  0  0  0
  185.4610  177.5960  147.3510 C   0  0  0  0  0  2  0  0  0  0  0  0
  187.1740  178.4580  144.2190 C   0  0  0  0  0  1  0  0  0  0  0  0
  192.7350  174.2380  146.1530 C   0  0  0  0  0  3  0  0  0  0  0  0
  191.6020  174.7510  145.5100 C   0  0  0  0  0  0  0  0  0  0  0  0
  187.0060  176.9440  144.2930 C   0  0  2  0  0  3  0  0  0  0  0  0
  188.3670  174.3450  140.3210 C   0  0  0  0  0  2  0  0  0  0  0  0
  189.3450  172.2060  139.4890 C   0  0  0  0  0  1  0  0  0  0  0  0
  188.6010  172.8750  140.6300 C   0  0  0  0  0  2  0  0  0  0  0  0
  1 19  2  0  0  0  0
  1  4  1  0  0  0  0
  2 19  1  0  0  0  0
  2 13  2  0  0  0  0
  4 20  2  0  0  0  0
  5  1  1  0  0  0  0
  6  8  2  0  0  0  0
  7 15  1  1  0  0  0
  7  9  1  0  0  0  0
  8 12  1  0  0  0  0
  9 14  1  6  0  0  0
 10  3  1  0  0  0  0
 10 21  2  0  0  0  0
 11 28  1  6  0  0  0
 11  8  1  0  0  0  0
 11  5  1  0  0  0  0
 12  4  1  0  0  0  0
 12 27  1  0  0  0  0
 13 18  1  0  0  0  0
 15 23  1  0  0  0  0
 16  2  1  0  0  0  0
 17  3  1  0  0  0  0
 18 25  2  0  0  0  0
 19 26  1  0  0  0  0
 20 17  1  0  0  0  0
 22 20  1  6  0  0  0
 22  9  1  0  0  0  0
 22 10  1  0  0  0  0
 23 14  1  0  0  0  0
 26 25  1  0  0  0  0
 26 17  2  0  0  0  0
 27 24  1  1  0  0  0
 27  7  1  0  0  0  0
 28 30  1  0  0  0  0
 29 30  1  0  0  0  0
M  END
>  <MODEL>
6

>  <REMARK>
 VINA RESULT:      -7.5      2.655      7.045
  Name = 
  2 active torsions:
  status: ('A' for Active; 'I' for Inactive)
    1  A    between atoms: C_11  and  C_28
    2  A    between atoms: C_28  and  C_30
                            x       y       z     vdW  Elec       q    Type
                         _______ _______ _______ _____ _____    ______ ____

>  <TORSDO>
F 2

$$$$
=
 OpenBabel11112416223D

 30 35  0  0  1  0  0  0  0  0999 V2000
  187.4740  177.3660  144.4320 C   0  0  0  0  0  0  0  0  0  0  0  0
  185.8890  178.6690  145.8280 C   0  0  0  0  0  0  0  0  0  0  0  0
  190.4030  176.9940  147.9470 S   0  0  0  0  0  0  0  0  0  0  0  0
  188.7120  176.7000  144.2930 C   0  0  0  0  0  0  0  0  0  0  0  0
  186.6150  177.4330  143.3300 O   0  0  0  0  0  0  0  0  0  0  0  0
  188.4070  175.6930  140.8030 O   0  0  0  0  0  0  0  0  0  0  0  0
  191.5370  176.6910  143.2260 C   0  0  1  0  0  3  0  0  0  0  0  0
  188.1010  176.1330  141.9450 C   0  0  0  0  0  0  0  0  0  0  0  0
  191.8860  176.4910  144.6480 N   0  0  2  0  0  0  0  0  0  0  0  0
  191.2040  175.7940  146.8940 C   0  0  0  0  0  0  0  0  0  0  0  0
  186.6800  176.5180  142.2410 C   0  0  2  0  0  3  0  0  0  0  0  0
  189.0870  176.1810  142.9930 N   0  0  0  0  0  0  0  0  0  0  0  0
  185.5730  179.2480  147.0590 C   0  0  0  0  0  3  0  0  0  0  0  0
  193.0850  175.6610  144.6250 C   0  0  0  0  0  2  0  0  0  0  0  0
  192.8110  176.5480  142.4150 C   0  0  0  0  0  2  0  0  0  0  0  0
  184.9730  178.7990  144.7890 O   0  0  0  0  0  1  0  0  0  0  0  0
  189.2120  177.1960  146.6230 C   0  0  0  0  0  0  0  0  0  0  0  0
  186.4510  179.1490  148.1360 C   0  0  0  0  0  3  0  0  0  0  0  0
  187.1120  177.9740  145.6600 C   0  0  0  0  0  0  0  0  0  0  0  0
  189.5620  176.6080  145.4120 C   0  0  0  0  0  0  0  0  0  0  0  0
  191.9370  174.9340  147.3540 O   0  0  0  0  0  0  0  0  0  0  0  0
  190.8380  175.8270  145.4410 C   0  0  1  0  0  3  0  0  0  0  0  0
  193.8520  176.0250  143.3760 C   0  0  0  0  0  2  0  0  0  0  0  0
  190.6630  174.2640  142.9130 C   0  0  0  0  0  1  0  0  0  0  0  0
  187.6580  178.4680  147.9900 C   0  0  0  0  0  3  0  0  0  0  0  0
  187.9990  177.8800  146.7650 C   0  0  0  0  0  0  0  0  0  0  0  0
  190.4500  175.7530  142.6560 C   0  0  2  0  0  3  0  0  0  0  0  0
  185.9990  177.1290  141.0210 C   0  0  0  0  0  2  0  0  0  0  0  0
  183.8380  178.2900  140.5690 C   0  0  0  0  0  1  0  0  0  0  0  0
  185.0950  178.2840  141.4180 C   0  0  0  0  0  2  0  0  0  0  0  0
  1 19  1  0  0  0  0
  2 13  1  0  0  0  0
  4  1  2  0  0  0  0
  4 20  1  0  0  0  0
  5  1  1  0  0  0  0
  6  8  2  0  0  0  0
  7 15  1  6  0  0  0
  7  9  1  0  0  0  0
  8 11  1  0  0  0  0
  8 12  1  0  0  0  0
  9 14  1  6  0  0  0
  9 22  1  0  0  0  0
 10 21  2  0  0  0  0
 10  3  1  0  0  0  0
 11 28  1  6  0  0  0
 11  5  1  0  0  0  0
 12  4  1  0  0  0  0
 13 18  2  0  0  0  0
 15 23  1  0  0  0  0
 16  2  1  0  0  0  0
 17 26  1  0  0  0  0
 17  3  1  0  0  0  0
 19  2  2  0  0  0  0
 19 26  1  0  0  0  0
 20 17  2  0  0  0  0
 22 20  1  1  0  0  0
 22 10  1  0  0  0  0
 23 14  1  0  0  0  0
 25 18  1  0  0  0  0
 26 25  2  0  0  0  0
 27 24  1  1  0  0  0
 27 12  1  0  0  0  0
 27  7  1  0  0  0  0
 28 30  1  0  0  0  0
 29 30  1  0  0  0  0
M  END
>  <MODEL>
7

>  <REMARK>
 VINA RESULT:      -7.3      2.620      5.461
  Name = 
  2 active torsions:
  status: ('A' for Active; 'I' for Inactive)
    1  A    between atoms: C_11  and  C_28
    2  A    between atoms: C_28  and  C_30
                            x       y       z     vdW  Elec       q    Type
                         _______ _______ _______ _____ _____    ______ ____

>  <TORSDO>
F 2

$$$$
=
 OpenBabel11112416223D

 30 35  0  0  1  0  0  0  0  0999 V2000
  189.5330  175.9200  144.9890 C   0  0  0  0  0  0  0  0  0  0  0  0
  187.3850  177.1480  145.1770 C   0  0  0  0  0  0  0  0  0  0  0  0
  188.3120  174.2290  140.9010 S   0  0  0  0  0  0  0  0  0  0  0  0
  190.3750  175.0380  144.2750 C   0  0  0  0  0  0  0  0  0  0  0  0
  189.9660  176.4160  146.2230 O   0  0  0  0  0  0  0  0  0  0  0  0
  193.1650  174.9200  146.6180 O   0  0  0  0  0  0  0  0  0  0  0  0
  191.5510  172.2760  143.9590 C   0  0  1  0  0  3  0  0  0  0  0  0
  192.0870  175.2780  146.0680 C   0  0  0  0  0  0  0  0  0  0  0  0
  190.9360  172.3580  142.6180 N   0  0  2  0  0  0  0  0  0  0  0  0
  190.0280  173.7400  140.8130 C   0  0  0  0  0  0  0  0  0  0  0  0
  191.3390  176.4680  146.5990 C   0  0  2  0  0  3  0  0  0  0  0  0
  191.6210  174.6120  144.8810 N   0  0  0  0  0  0  0  0  0  0  0  0
  186.1440  177.4820  144.6300 C   0  0  0  0  0  3  0  0  0  0  0  0
  191.8300  171.6010  141.7500 C   0  0  0  0  0  2  0  0  0  0  0  0
  192.3850  171.0090  144.0050 C   0  0  0  0  0  2  0  0  0  0  0  0
  187.7200  177.6850  146.4150 O   0  0  0  0  0  1  0  0  0  0  0  0
  188.7070  174.9210  142.5060 C   0  0  0  0  0  0  0  0  0  0  0  0
  185.7540  176.9750  143.3920 C   0  0  0  0  0  3  0  0  0  0  0  0
  188.2630  176.2830  144.4770 C   0  0  0  0  0  0  0  0  0  0  0  0
  189.9490  174.5640  143.0190 C   0  0  0  0  0  0  0  0  0  0  0  0
  190.5720  173.5200  139.7430 O   0  0  0  0  0  0  0  0  0  0  0  0
  190.7880  173.7300  142.1030 C   0  0  1  0  0  3  0  0  0  0  0  0
  192.4280  170.4950  142.5860 C   0  0  0  0  0  2  0  0  0  0  0  0
  193.4730  173.9250  143.3780 C   0  0  0  0  0  1  0  0  0  0  0  0
  186.6050  176.1250  142.6890 C   0  0  0  0  0  3  0  0  0  0  0  0
  187.8540  175.7740  143.2160 C   0  0  0  0  0  0  0  0  0  0  0  0
  192.4150  173.4830  144.3840 C   0  0  2  0  0  3  0  0  0  0  0  0
  191.4490  176.5680  148.1170 C   0  0  0  0  0  2  0  0  0  0  0  0
  191.4450  178.3150  149.8980 C   0  0  0  0  0  1  0  0  0  0  0  0
  190.7650  177.8230  148.6340 C   0  0  0  0  0  2  0  0  0  0  0  0
  1  5  1  0  0  0  0
  2 16  1  0  0  0  0
  3 17  1  0  0  0  0
  4 12  1  0  0  0  0
  4  1  2  0  0  0  0
  5 11  1  0  0  0  0
  7 15  1  6  0  0  0
  7 27  1  0  0  0  0
  8 11  1  0  0  0  0
  8  6  2  0  0  0  0
  9 14  1  6  0  0  0
  9  7  1  0  0  0  0
 10  3  1  0  0  0  0
 11 28  1  1  0  0  0
 12  8  1  0  0  0  0
 13  2  1  0  0  0  0
 14 23  1  0  0  0  0
 17 20  2  0  0  0  0
 17 26  1  0  0  0  0
 18 13  2  0  0  0  0
 19  1  1  0  0  0  0
 19  2  2  0  0  0  0
 20  4  1  0  0  0  0
 21 10  2  0  0  0  0
 22 10  1  6  0  0  0
 22  9  1  0  0  0  0
 22 20  1  0  0  0  0
 23 15  1  0  0  0  0
 25 26  2  0  0  0  0
 25 18  1  0  0  0  0
 26 19  1  0  0  0  0
 27 24  1  6  0  0  0
 27 12  1  0  0  0  0
 28 30  1  0  0  0  0
 30 29  1  0  0  0  0
M  END
>  <MODEL>
8

>  <REMARK>
 VINA RESULT:      -7.2      2.594      3.558
  Name = 
  2 active torsions:
  status: ('A' for Active; 'I' for Inactive)
    1  A    between atoms: C_11  and  C_28
    2  A    between atoms: C_28  and  C_30
                            x       y       z     vdW  Elec       q    Type
                         _______ _______ _______ _____ _____    ______ ____

>  <TORSDO>
F 2

$$$$
=
 OpenBabel11112416223D

 30 35  0  0  1  0  0  0  0  0999 V2000
  190.0310  175.5750  144.4800 C   0  0  0  0  0  0  0  0  0  0  0  0
  191.6490  176.4330  146.1550 C   0  0  0  0  0  0  0  0  0  0  0  0
  192.8500  172.1210  143.3910 S   0  0  0  0  0  0  0  0  0  0  0  0
  189.6960  174.6380  143.4770 C   0  0  0  0  0  0  0  0  0  0  0  0
  189.1240  176.5980  144.7800 O   0  0  0  0  0  0  0  0  0  0  0  0
  186.4220  175.9560  142.5630 O   0  0  0  0  0  0  0  0  0  0  0  0
  189.3780  173.9930  140.5450 C   0  0  1  0  0  3  0  0  0  0  0  0
  187.4990  175.7800  143.1970 C   0  0  0  0  0  0  0  0  0  0  0  0
  190.3470  172.9220  140.8560 N   0  0  2  0  0  0  0  0  0  0  0  0
  191.4200  171.4900  142.5270 C   0  0  0  0  0  0  0  0  0  0  0  0
  187.7330  176.5090  144.4890 C   0  0  2  0  0  3  0  0  0  0  0  0
  188.4620  174.8140  142.7360 N   0  0  0  0  0  0  0  0  0  0  0  0
  192.8810  176.3110  146.8020 C   0  0  0  0  0  3  0  0  0  0  0  0
  189.9820  171.8210  139.9720 C   0  0  0  0  0  2  0  0  0  0  0  0
  188.9020  173.7830  139.1200 C   0  0  0  0  0  2  0  0  0  0  0  0
  190.8210  177.4890  146.5170 O   0  0  0  0  0  1  0  0  0  0  0  0
  191.8140  173.5040  143.8650 C   0  0  0  0  0  0  0  0  0  0  0  0
  193.7520  175.2710  146.4820 C   0  0  0  0  0  3  0  0  0  0  0  0
  191.2720  175.4970  145.1600 C   0  0  0  0  0  0  0  0  0  0  0  0
  190.5970  173.5930  143.1980 C   0  0  0  0  0  0  0  0  0  0  0  0
  191.3120  170.3040  142.2580 O   0  0  0  0  0  0  0  0  0  0  0  0
  190.3160  172.4650  142.2560 C   0  0  1  0  0  3  0  0  0  0  0  0
  189.4340  172.4320  138.7050 C   0  0  0  0  0  2  0  0  0  0  0  0
  187.4020  172.8030  141.7410 C   0  0  0  0  0  1  0  0  0  0  0  0
  193.3960  174.3420  145.5070 C   0  0  0  0  0  3  0  0  0  0  0  0
  192.1670  174.4420  144.8430 C   0  0  0  0  0  0  0  0  0  0  0  0
  188.1610  174.1020  141.4890 C   0  0  2  0  0  3  0  0  0  0  0  0
  187.1280  177.9090  144.4600 C   0  0  0  0  0  2  0  0  0  0  0  0
  185.9310  176.8360  146.3670 C   0  0  0  0  0  1  0  0  0  0  0  0
  185.9510  178.0170  145.4160 C   0  0  0  0  0  2  0  0  0  0  0  0
  1  5  1  0  0  0  0
  1 19  1  0  0  0  0
  2 16  1  0  0  0  0
  2 13  1  0  0  0  0
  3 17  1  0  0  0  0
  4  1  2  0  0  0  0
  6  8  2  0  0  0  0
  7 15  1  6  0  0  0
  7  9  1  0  0  0  0
  7 27  1  0  0  0  0
  8 11  1  0  0  0  0
  9 14  1  6  0  0  0
  9 22  1  0  0  0  0
 10  3  1  0  0  0  0
 11 28  1  6  0  0  0
 11  5  1  0  0  0  0
 12  8  1  0  0  0  0
 12  4  1  0  0  0  0
 17 26  1  0  0  0  0
 18 13  2  0  0  0  0
 19  2  2  0  0  0  0
 20  4  1  0  0  0  0
 20 17  2  0  0  0  0
 21 10  2  0  0  0  0
 22 10  1  6  0  0  0
 22 20  1  0  0  0  0
 23 15  1  0  0  0  0
 23 14  1  0  0  0  0
 25 18  1  0  0  0  0
 26 19  1  0  0  0  0
 26 25  2  0  0  0  0
 27 24  1  1  0  0  0
 27 12  1  0  0  0  0
 28 30  1  0  0  0  0
 30 29  1  0  0  0  0
M  END
>  <MODEL>
9

>  <REMARK>
 VINA RESULT:      -7.1      2.813      5.677
  Name = 
  2 active torsions:
  status: ('A' for Active; 'I' for Inactive)
    1  A    between atoms: C_11  and  C_28
    2  A    between atoms: C_28  and  C_30
                            x       y       z     vdW  Elec       q    Type
                         _______ _______ _______ _____ _____    ______ ____

>  <TORSDO>
F 2

$$$$
