=
 OpenBabel11112417173D

 37 44  0  0  1  0  0  0  0  0999 V2000
  193.7760  174.2470  144.3980 C   0  0  0  0  0  2  0  0  0  0  0  0
  191.7290  171.0130  142.7540 C   0  0  0  0  0  0  0  0  0  0  0  0
  189.6200  174.5090  142.8280 C   0  0  0  0  0  0  0  0  0  0  0  0
  194.9170  173.9850  145.2790 N   0  0  0  0  0  0  0  0  0  0  0  0
  191.2610  177.3690  144.7960 O   0  0  0  0  0  0  0  0  0  0  0  0
  189.4470  172.0890  142.0870 C   0  0  1  0  0  3  0  0  0  0  0  0
  190.4300  175.2340  143.7110 C   0  0  0  0  0  0  0  0  0  0  0  0
  194.8520  176.5000  145.7150 C   0  0  2  0  0  3  0  0  0  0  0  0
  189.9190  173.1780  143.0020 C   0  0  0  0  0  0  0  0  0  0  0  0
  190.5470  176.7860  143.7210 C   0  0  1  0  0  3  0  0  0  0  0  0
  189.2750  172.6490  140.6780 C   0  0  0  0  0  2  0  0  0  0  0  0
  195.2210  175.0890  146.2090 C   0  0  0  0  0  2  0  0  0  0  0  0
  190.9040  173.0230  143.8900 N   0  0  0  0  0  0  0  0  0  0  0  0
  192.6530  171.7570  141.8050 C   0  0  0  0  0  1  0  0  0  0  0  0
  187.8050  175.9640  141.9380 C   0  0  0  0  0  2  0  0  0  0  0  0
  188.3440  173.8670  140.7340 C   0  0  0  0  0  2  0  0  0  0  0  0
  191.6200  171.7660  144.0860 C   0  0  0  0  0  2  0  0  0  0  0  0
  193.4000  176.9280  146.0000 C   0  0  1  0  0  3  0  0  0  0  0  0
  192.5100  176.7770  144.7870 C   0  0  1  0  0  3  0  0  0  0  0  0
  188.9240  175.0120  141.5860 C   0  0  2  0  0  3  0  0  0  0  0  0
  191.2540  174.2480  144.3310 C   0  0  0  0  0  0  0  0  0  0  0  0
  190.3430  170.8340  142.1100 C   0  0  0  0  0  2  0  0  0  0  0  0
  189.1940  177.5060  143.6490 C   0  0  1  0  0  3  0  0  0  0  0  0
  192.3190  169.6460  143.0210 C   0  0  0  0  0  1  0  0  0  0  0  0
  192.3850  175.7840  145.9240 C   0  0  1  0  0  3  0  0  0  0  0  0
  195.2580  176.7420  144.4120 F   0  0  0  0  0  0  0  0  0  0  0  0
  192.4860  174.4520  145.1970 C   0  0  2  0  0  3  0  0  0  0  0  0
  188.4420  177.6600  141.9940 S   0  0  0  0  0  0  0  0  0  0  0  0
  188.5840  176.3790  145.7950 C   0  0  0  0  0  3  0  0  0  0  0  0
  188.2380  177.2860  144.7880 C   0  0  0  0  0  0  0  0  0  0  0  0
  187.0170  177.9710  144.8650 C   0  0  0  0  0  3  0  0  0  0  0  0
  184.6270  178.6050  146.0190 Cl  0  0  0  0  0  0  0  0  0  0  0  0
  186.4980  176.8380  146.9390 C   0  0  0  0  0  3  0  0  0  0  0  0
  186.1500  177.7460  145.9360 C   0  0  0  0  0  0  0  0  0  0  0  0
  187.7150  176.1540  146.8690 C   0  0  0  0  0  3  0  0  0  0  0  0
  197.3410  173.7780  145.2860 C   0  0  0  0  0  1  0  0  0  0  0  0
  196.0850  173.7880  144.4350 C   0  0  0  0  0  2  0  0  0  0  0  0
  1 27  1  0  0  0  0
  1  4  1  0  0  0  0
  2 24  1  0  0  0  0
  2 17  1  0  0  0  0
  3  9  2  0  0  0  0
  3  7  1  0  0  0  0
  4 12  1  0  0  0  0
  6 11  1  6  0  0  0
  6 22  1  0  0  0  0
  6  9  1  0  0  0  0
  7 21  2  0  0  0  0
  8 26  1  6  0  0  0
  8 18  1  0  0  0  0
  8 12  1  0  0  0  0
  9 13  1  0  0  0  0
 10  7  1  1  0  0  0
 10  5  1  0  0  0  0
 11 16  1  0  0  0  0
 13 17  1  0  0  0  0
 13 21  1  0  0  0  0
 14  2  1  0  0  0  0
 15 28  1  0  0  0  0
 16 20  1  0  0  0  0
 19  5  1  0  0  0  0
 19 25  1  0  0  0  0
 19 18  1  0  0  0  0
 20 15  1  0  0  0  0
 20  3  1  0  0  0  0
 21 27  1  0  0  0  0
 22  2  1  0  0  0  0
 23 10  1  0  0  0  0
 23 30  1  0  0  0  0
 25 18  1  0  0  0  0
 27 25  1  0  0  0  0
 28 23  1  0  0  0  0
 29 35  1  0  0  0  0
 30 31  1  0  0  0  0
 30 29  2  0  0  0  0
 31 34  2  0  0  0  0
 34 32  1  0  0  0  0
 34 33  1  0  0  0  0
 35 33  2  0  0  0  0
 37  4  1  0  0  0  0
 37 36  1  0  0  0  0
M  END
>  <MODEL>
1

>  <REMARK>
 VINA RESULT:      -9.7      0.000      0.000
  Name = 
  2 active torsions:
  status: ('A' for Active; 'I' for Inactive)
    1  A    between atoms: N_4  and  C_37
    2  A    between atoms: C_23  and  C_30
                            x       y       z     vdW  Elec       q    Type
                         _______ _______ _______ _____ _____    ______ ____

>  <TORSDO>
F 2

$$$$
=
 OpenBabel11112417173D

 37 44  0  0  1  0  0  0  0  0999 V2000
  192.5990  173.1140  141.6180 C   0  0  0  0  0  2  0  0  0  0  0  0
  195.4230  175.8040  143.0820 C   0  0  0  0  0  0  0  0  0  0  0  0
  191.8670  175.8000  145.0910 C   0  0  0  0  0  0  0  0  0  0  0  0
  192.7390  172.6210  140.2460 N   0  0  0  0  0  0  0  0  0  0  0  0
  189.0710  173.7300  143.4660 O   0  0  0  0  0  0  0  0  0  0  0  0
  194.1620  176.8840  145.0950 C   0  0  1  0  0  3  0  0  0  0  0  0
  191.0950  175.0870  144.1660 C   0  0  0  0  0  0  0  0  0  0  0  0
  190.4410  171.5790  140.6380 C   0  0  2  0  0  3  0  0  0  0  0  0
  192.9710  176.2740  144.4200 C   0  0  0  0  0  0  0  0  0  0  0  0
  189.8500  174.2320  144.5380 C   0  0  1  0  0  3  0  0  0  0  0  0
  194.3240  176.2760  146.4840 C   0  0  0  0  0  2  0  0  0  0  0  0
  191.4780  172.1440  139.6500 C   0  0  0  0  0  2  0  0  0  0  0  0
  192.9730  175.8550  143.1520 N   0  0  0  0  0  0  0  0  0  0  0  0
  195.5480  174.3770  143.5910 C   0  0  0  0  0  1  0  0  0  0  0  0
  190.5440  176.2440  147.1530 C   0  0  0  0  0  2  0  0  0  0  0  0
  193.0120  176.4420  147.2600 C   0  0  0  0  0  2  0  0  0  0  0  0
  194.1320  175.9650  142.2700 C   0  0  0  0  0  2  0  0  0  0  0  0
  189.5090  172.6310  141.2710 C   0  0  1  0  0  3  0  0  0  0  0  0
  189.9440  173.0140  142.6670 C   0  0  1  0  0  3  0  0  0  0  0  0
  191.8380  175.6960  146.5970 C   0  0  2  0  0  3  0  0  0  0  0  0
  191.8610  175.1170  142.9630 C   0  0  0  0  0  0  0  0  0  0  0  0
  195.4570  176.7910  144.2620 C   0  0  0  0  0  2  0  0  0  0  0  0
  188.8780  174.9400  145.4930 C   0  0  1  0  0  3  0  0  0  0  0  0
  196.6000  176.0920  142.1760 C   0  0  0  0  0  1  0  0  0  0  0  0
  190.1770  173.9850  141.5270 C   0  0  1  0  0  3  0  0  0  0  0  0
  190.9910  170.6990  141.5570 F   0  0  0  0  0  0  0  0  0  0  0  0
  191.6530  174.3170  141.6880 C   0  0  2  0  0  3  0  0  0  0  0  0
  189.3160  174.9160  147.2630 S   0  0  0  0  0  0  0  0  0  0  0  0
  188.5340  176.6610  143.7130 C   0  0  0  0  0  3  0  0  0  0  0  0
  188.2210  176.1970  144.9950 C   0  0  0  0  0  0  0  0  0  0  0  0
  187.3030  176.9060  145.7810 C   0  0  0  0  0  3  0  0  0  0  0  0
  185.5660  178.9500  146.2840 Cl  0  0  0  0  0  0  0  0  0  0  0  0
  187.0240  178.5320  144.0110 C   0  0  0  0  0  3  0  0  0  0  0  0
  186.7080  178.0710  145.2910 C   0  0  0  0  0  0  0  0  0  0  0  0
  187.9380  177.8270  143.2210 C   0  0  0  0  0  3  0  0  0  0  0  0
  194.3000  171.3910  141.6510 C   0  0  0  0  0  1  0  0  0  0  0  0
  193.6630  171.4980  140.2780 C   0  0  0  0  0  2  0  0  0  0  0  0
  1 27  1  0  0  0  0
  2 14  1  0  0  0  0
  2 22  1  0  0  0  0
  3 20  1  0  0  0  0
  4 37  1  0  0  0  0
  4  1  1  0  0  0  0
  6 22  1  6  0  0  0
  6 11  1  0  0  0  0
  7 10  1  0  0  0  0
  7  3  1  0  0  0  0
  8 18  1  0  0  0  0
  8 26  1  1  0  0  0
  9  3  2  0  0  0  0
  9  6  1  0  0  0  0
 10  5  1  6  0  0  0
 10 23  1  0  0  0  0
 11 16  1  0  0  0  0
 12  4  1  0  0  0  0
 12  8  1  0  0  0  0
 13  9  1  0  0  0  0
 15 28  1  0  0  0  0
 17  2  1  0  0  0  0
 17 13  1  0  0  0  0
 18 25  1  0  0  0  0
 18 19  1  0  0  0  0
 19  5  1  0  0  0  0
 20 15  1  0  0  0  0
 20 16  1  0  0  0  0
 21 13  1  0  0  0  0
 21  7  2  0  0  0  0
 23 28  1  0  0  0  0
 24  2  1  0  0  0  0
 25 27  1  0  0  0  0
 25 19  1  0  0  0  0
 27 21  1  0  0  0  0
 29 30  1  0  0  0  0
 30 23  1  0  0  0  0
 30 31  2  0  0  0  0
 33 34  2  0  0  0  0
 34 31  1  0  0  0  0
 34 32  1  0  0  0  0
 35 29  2  0  0  0  0
 35 33  1  0  0  0  0
 37 36  1  0  0  0  0
M  END
>  <MODEL>
2

>  <REMARK>
 VINA RESULT:      -8.8      2.483      5.339
  Name = 
  2 active torsions:
  status: ('A' for Active; 'I' for Inactive)
    1  A    between atoms: N_4  and  C_37
    2  A    between atoms: C_23  and  C_30
                            x       y       z     vdW  Elec       q    Type
                         _______ _______ _______ _____ _____    ______ ____

>  <TORSDO>
F 2

$$$$
=
 OpenBabel11112417173D

 37 44  0  0  1  0  0  0  0  0999 V2000
  189.5210  174.4440  142.5910 C   0  0  0  0  0  2  0  0  0  0  0  0
  189.7320  176.4280  146.2470 C   0  0  0  0  0  0  0  0  0  0  0  0
  193.0820  174.3110  145.2570 C   0  0  0  0  0  0  0  0  0  0  0  0
  188.2030  174.1660  142.0150 N   0  0  0  0  0  0  0  0  0  0  0  0
  192.7390  172.0580  142.1670 O   0  0  0  0  0  0  0  0  0  0  0  0
  192.1380  175.8280  147.0600 C   0  0  1  0  0  3  0  0  0  0  0  0
  192.5520  173.5410  144.2150 C   0  0  0  0  0  0  0  0  0  0  0  0
  189.5060  172.7970  140.2980 C   0  0  2  0  0  3  0  0  0  0  0  0
  192.0200  174.7770  145.9980 C   0  0  0  0  0  0  0  0  0  0  0  0
  193.3900  172.9710  143.0330 C   0  0  1  0  0  3  0  0  0  0  0  0
  193.2920  176.7660  146.7180 C   0  0  0  0  0  2  0  0  0  0  0  0
  188.1910  173.0410  141.0620 C   0  0  0  0  0  2  0  0  0  0  0  0
  190.8590  174.4000  145.4560 N   0  0  0  0  0  0  0  0  0  0  0  0
  190.0740  177.2640  145.0250 C   0  0  0  0  0  1  0  0  0  0  0  0
  195.5310  173.9110  145.4620 C   0  0  0  0  0  2  0  0  0  0  0  0
  194.5660  175.9380  146.5130 C   0  0  0  0  0  2  0  0  0  0  0  0
  189.5690  174.9560  145.8520 C   0  0  0  0  0  2  0  0  0  0  0  0
  190.5250  171.9040  141.0310 C   0  0  1  0  0  3  0  0  0  0  0  0
  191.6110  172.7100  141.7070 C   0  0  1  0  0  3  0  0  0  0  0  0
  194.4460  174.9550  145.3330 C   0  0  2  0  0  3  0  0  0  0  0  0
  191.1390  173.6630  144.3620 C   0  0  0  0  0  0  0  0  0  0  0  0
  190.8240  176.5910  147.3200 C   0  0  0  0  0  2  0  0  0  0  0  0
  194.7000  172.3050  143.4720 C   0  0  1  0  0  3  0  0  0  0  0  0
  188.4200  176.9240  146.8130 C   0  0  0  0  0  1  0  0  0  0  0  0
  190.5260  172.0740  142.5520 C   0  0  1  0  0  3  0  0  0  0  0  0
  190.0560  173.9600  139.7800 F   0  0  0  0  0  0  0  0  0  0  0  0
  190.0460  173.2490  143.3910 C   0  0  2  0  0  3  0  0  0  0  0  0
  196.1030  173.4190  143.8150 S   0  0  0  0  0  0  0  0  0  0  0  0
  193.4870  170.2470  144.2080 C   0  0  0  0  0  3  0  0  0  0  0  0
  194.5920  171.0930  144.3530 C   0  0  0  0  0  0  0  0  0  0  0  0
  195.5720  170.7900  145.3090 C   0  0  0  0  0  3  0  0  0  0  0  0
  196.6720  169.2910  147.3070 Cl  0  0  0  0  0  0  0  0  0  0  0  0
  194.3390  168.8140  145.9660 C   0  0  0  0  0  3  0  0  0  0  0  0
  195.4440  169.6560  146.1140 C   0  0  0  0  0  0  0  0  0  0  0  0
  193.3590  169.1100  145.0130 C   0  0  0  0  0  3  0  0  0  0  0  0
  188.3580  176.5940  141.9550 C   0  0  0  0  0  1  0  0  0  0  0  0
  187.7820  175.3570  141.2920 C   0  0  0  0  0  2  0  0  0  0  0  0
  1 27  1  0  0  0  0
  2 24  1  0  0  0  0
  2 22  1  0  0  0  0
  3 20  1  0  0  0  0
  3  9  2  0  0  0  0
  4  1  1  0  0  0  0
  6 11  1  6  0  0  0
  6 22  1  0  0  0  0
  7 21  2  0  0  0  0
  7  3  1  0  0  0  0
  8 26  1  1  0  0  0
  8 18  1  0  0  0  0
  8 12  1  0  0  0  0
  9  6  1  0  0  0  0
 10  5  1  1  0  0  0
 10 23  1  0  0  0  0
 10  7  1  0  0  0  0
 12  4  1  0  0  0  0
 13 17  1  0  0  0  0
 13  9  1  0  0  0  0
 14  2  1  0  0  0  0
 16 11  1  0  0  0  0
 17  2  1  0  0  0  0
 18 19  1  0  0  0  0
 18 25  1  0  0  0  0
 19  5  1  0  0  0  0
 19 25  1  0  0  0  0
 20 15  1  0  0  0  0
 20 16  1  0  0  0  0
 21 13  1  0  0  0  0
 23 28  1  0  0  0  0
 23 30  1  0  0  0  0
 25 27  1  0  0  0  0
 27 21  1  0  0  0  0
 28 15  1  0  0  0  0
 29 30  2  0  0  0  0
 29 35  1  0  0  0  0
 30 31  1  0  0  0  0
 31 34  2  0  0  0  0
 33 34  1  0  0  0  0
 34 32  1  0  0  0  0
 35 33  2  0  0  0  0
 37 36  1  0  0  0  0
 37  4  1  0  0  0  0
M  END
>  <MODEL>
3

>  <REMARK>
 VINA RESULT:      -8.5      3.759      7.826
  Name = 
  2 active torsions:
  status: ('A' for Active; 'I' for Inactive)
    1  A    between atoms: N_4  and  C_37
    2  A    between atoms: C_23  and  C_30
                            x       y       z     vdW  Elec       q    Type
                         _______ _______ _______ _____ _____    ______ ____

>  <TORSDO>
F 2

$$$$
=
 OpenBabel11112417173D

 37 44  0  0  1  0  0  0  0  0999 V2000
  193.7790  174.3370  142.5530 C   0  0  0  0  0  2  0  0  0  0  0  0
  191.3040  171.6160  140.5980 C   0  0  0  0  0  0  0  0  0  0  0  0
  189.4330  175.0160  141.8700 C   0  0  0  0  0  0  0  0  0  0  0  0
  195.0390  173.8590  143.1260 N   0  0  0  0  0  0  0  0  0  0  0  0
  191.5440  177.3010  144.1210 O   0  0  0  0  0  0  0  0  0  0  0  0
  189.0030  172.8460  140.6260 C   0  0  1  0  0  3  0  0  0  0  0  0
  190.4230  175.4980  142.7350 C   0  0  0  0  0  0  0  0  0  0  0  0
  195.1880  176.1960  144.1430 C   0  0  2  0  0  3  0  0  0  0  0  0
  189.6850  173.6780  141.6690 C   0  0  0  0  0  0  0  0  0  0  0  0
  190.6240  177.0010  143.0860 C   0  0  1  0  0  3  0  0  0  0  0  0
  188.6200  173.7290  139.4430 C   0  0  0  0  0  2  0  0  0  0  0  0
  195.5590  174.7040  144.2170 C   0  0  0  0  0  2  0  0  0  0  0  0
  190.8000  173.3040  142.3030 N   0  0  0  0  0  0  0  0  0  0  0  0
  192.0880  172.5550  139.6980 C   0  0  0  0  0  1  0  0  0  0  0  0
  187.5740  176.6630  141.6890 C   0  0  0  0  0  2  0  0  0  0  0  0
  187.7810  174.9090  139.9500 C   0  0  0  0  0  2  0  0  0  0  0  0
  191.4690  172.0280  142.0660 C   0  0  0  0  0  2  0  0  0  0  0  0
  193.8320  176.5590  144.7790 C   0  0  1  0  0  3  0  0  0  0  0  0
  192.7390  176.7150  143.7460 C   0  0  1  0  0  3  0  0  0  0  0  0
  188.5610  175.8100  140.9270 C   0  0  2  0  0  3  0  0  0  0  0  0
  191.2870  174.3830  142.9470 C   0  0  0  0  0  0  0  0  0  0  0  0
  189.8190  171.6120  140.1920 C   0  0  0  0  0  2  0  0  0  0  0  0
  189.3200  177.7330  143.4320 C   0  0  1  0  0  3  0  0  0  0  0  0
  191.8560  170.2180  140.4250 C   0  0  0  0  0  1  0  0  0  0  0  0
  192.7590  175.4790  144.6230 C   0  0  1  0  0  3  0  0  0  0  0  0
  195.3740  176.7390  142.8810 F   0  0  0  0  0  0  0  0  0  0  0  0
  192.6600  174.3600  143.5980 C   0  0  2  0  0  3  0  0  0  0  0  0
  188.3020  178.2880  142.0240 S   0  0  0  0  0  0  0  0  0  0  0  0
  187.3320  177.8430  144.9430 C   0  0  0  0  0  3  0  0  0  0  0  0
  188.5660  177.2570  144.6420 C   0  0  0  0  0  0  0  0  0  0  0  0
  189.0670  176.2410  145.4670 C   0  0  0  0  0  3  0  0  0  0  0  0
  188.9820  174.5530  147.6100 Cl  0  0  0  0  0  0  0  0  0  0  0  0
  187.1120  176.4080  146.8820 C   0  0  0  0  0  3  0  0  0  0  0  0
  188.3440  175.8200  146.5840 C   0  0  0  0  0  0  0  0  0  0  0  0
  186.6060  177.4210  146.0620 C   0  0  0  0  0  3  0  0  0  0  0  0
  195.3620  174.1520  140.7330 C   0  0  0  0  0  1  0  0  0  0  0  0
  196.0310  173.8560  142.0620 C   0  0  0  0  0  2  0  0  0  0  0  0
  1  4  1  0  0  0  0
  1 27  1  0  0  0  0
  2 17  1  0  0  0  0
  3  7  1  0  0  0  0
  4 12  1  0  0  0  0
  6 11  1  6  0  0  0
  6  9  1  0  0  0  0
  7 21  2  0  0  0  0
  8 26  1  6  0  0  0
  8 12  1  0  0  0  0
  8 18  1  0  0  0  0
  9  3  2  0  0  0  0
  9 13  1  0  0  0  0
 10  7  1  1  0  0  0
 10 23  1  0  0  0  0
 10  5  1  0  0  0  0
 11 16  1  0  0  0  0
 13 21  1  0  0  0  0
 14  2  1  0  0  0  0
 15 28  1  0  0  0  0
 16 20  1  0  0  0  0
 17 13  1  0  0  0  0
 19  5  1  0  0  0  0
 19 25  1  0  0  0  0
 19 18  1  0  0  0  0
 20 15  1  0  0  0  0
 20  3  1  0  0  0  0
 21 27  1  0  0  0  0
 22  2  1  0  0  0  0
 22  6  1  0  0  0  0
 23 30  1  0  0  0  0
 24  2  1  0  0  0  0
 25 18  1  0  0  0  0
 27 25  1  0  0  0  0
 28 23  1  0  0  0  0
 29 35  1  0  0  0  0
 30 29  2  0  0  0  0
 30 31  1  0  0  0  0
 31 34  2  0  0  0  0
 34 33  1  0  0  0  0
 34 32  1  0  0  0  0
 35 33  2  0  0  0  0
 36 37  1  0  0  0  0
 37  4  1  0  0  0  0
M  END
>  <MODEL>
4

>  <REMARK>
 VINA RESULT:      -8.4      1.742      2.113
  Name = 
  2 active torsions:
  status: ('A' for Active; 'I' for Inactive)
    1  A    between atoms: N_4  and  C_37
    2  A    between atoms: C_23  and  C_30
                            x       y       z     vdW  Elec       q    Type
                         _______ _______ _______ _____ _____    ______ ____

>  <TORSDO>
F 2

$$$$
=
 OpenBabel11112417173D

 37 44  0  0  1  0  0  0  0  0999 V2000
  189.6030  175.7630  145.2820 C   0  0  0  0  0  2  0  0  0  0  0  0
  188.1380  175.4260  141.3970 C   0  0  0  0  0  0  0  0  0  0  0  0
  191.5430  173.2930  142.1280 C   0  0  0  0  0  0  0  0  0  0  0  0
  189.1930  176.9120  146.0930 N   0  0  0  0  0  0  0  0  0  0  0  0
  193.2100  173.9830  145.5180 O   0  0  0  0  0  0  0  0  0  0  0  0
  189.8490  173.7870  140.3040 C   0  0  1  0  0  3  0  0  0  0  0  0
  191.9170  173.8880  143.3390 C   0  0  0  0  0  0  0  0  0  0  0  0
  190.9320  176.0570  147.7560 C   0  0  2  0  0  3  0  0  0  0  0  0
  190.6650  174.1510  141.5070 C   0  0  0  0  0  0  0  0  0  0  0  0
  192.7590  173.1810  144.4400 C   0  0  1  0  0  3  0  0  0  0  0  0
  189.5580  172.2900  140.3230 C   0  0  0  0  0  2  0  0  0  0  0  0
  190.1300  177.2400  147.1840 C   0  0  0  0  0  2  0  0  0  0  0  0
  190.4170  175.2160  142.2750 N   0  0  0  0  0  0  0  0  0  0  0  0
  187.5070  174.4970  142.4210 C   0  0  0  0  0  1  0  0  0  0  0  0
  193.0700  171.3990  141.5950 C   0  0  0  0  0  2  0  0  0  0  0  0
  190.8820  171.5240  140.4380 C   0  0  0  0  0  2  0  0  0  0  0  0
  189.3340  176.1600  142.0150 C   0  0  0  0  0  2  0  0  0  0  0  0
  192.2370  175.7340  147.0020 C   0  0  1  0  0  3  0  0  0  0  0  0
  192.0780  174.5660  146.0560 C   0  0  1  0  0  3  0  0  0  0  0  0
  191.6310  171.8340  141.7480 C   0  0  2  0  0  3  0  0  0  0  0  0
  191.1440  175.0860  143.4030 C   0  0  0  0  0  0  0  0  0  0  0  0
  188.5660  174.6290  140.1520 C   0  0  0  0  0  2  0  0  0  0  0  0
  193.9890  172.4420  143.8960 C   0  0  1  0  0  3  0  0  0  0  0  0
  187.1050  176.4520  140.9830 C   0  0  0  0  0  1  0  0  0  0  0  0
  192.1610  175.9690  145.4910 C   0  0  1  0  0  3  0  0  0  0  0  0
  190.1480  174.9420  148.0120 F   0  0  0  0  0  0  0  0  0  0  0  0
  190.9420  176.0200  144.5840 C   0  0  2  0  0  3  0  0  0  0  0  0
  193.6950  170.7900  143.1830 S   0  0  0  0  0  0  0  0  0  0  0  0
  196.3600  172.7950  143.1870 C   0  0  0  0  0  3  0  0  0  0  0  0
  195.0450  173.2720  143.2220 C   0  0  0  0  0  0  0  0  0  0  0  0
  194.7410  174.5030  142.6240 C   0  0  0  0  0  3  0  0  0  0  0  0
  195.3520  176.7900  141.2660 Cl  0  0  0  0  0  0  0  0  0  0  0  0
  197.0560  174.7730  141.9730 C   0  0  0  0  0  3  0  0  0  0  0  0
  195.7430  175.2520  142.0040 C   0  0  0  0  0  0  0  0  0  0  0  0
  197.3640  173.5440  142.5650 C   0  0  0  0  0  3  0  0  0  0  0  0
  186.7950  176.7920  145.6940 C   0  0  0  0  0  1  0  0  0  0  0  0
  187.9120  176.5820  146.7000 C   0  0  0  0  0  2  0  0  0  0  0  0
  1  4  1  0  0  0  0
  2 17  1  0  0  0  0
  2 14  1  0  0  0  0
  3  7  1  0  0  0  0
  4 37  1  0  0  0  0
  4 12  1  0  0  0  0
  5 19  1  0  0  0  0
  6 22  1  1  0  0  0
  6 11  1  0  0  0  0
  6  9  1  0  0  0  0
  7 21  2  0  0  0  0
  8 26  1  6  0  0  0
  9  3  2  0  0  0  0
  9 13  1  0  0  0  0
 10  7  1  6  0  0  0
 10  5  1  0  0  0  0
 11 16  1  0  0  0  0
 12  8  1  0  0  0  0
 13 21  1  0  0  0  0
 15 20  1  0  0  0  0
 15 28  1  0  0  0  0
 16 20  1  0  0  0  0
 17 13  1  0  0  0  0
 18  8  1  0  0  0  0
 19 18  1  0  0  0  0
 20  3  1  0  0  0  0
 21 27  1  0  0  0  0
 22  2  1  0  0  0  0
 23 10  1  0  0  0  0
 24  2  1  0  0  0  0
 25 19  1  0  0  0  0
 25 18  1  0  0  0  0
 27  1  1  0  0  0  0
 27 25  1  0  0  0  0
 28 23  1  0  0  0  0
 29 30  1  0  0  0  0
 30 23  1  0  0  0  0
 31 30  2  0  0  0  0
 32 34  1  0  0  0  0
 33 34  2  0  0  0  0
 33 35  1  0  0  0  0
 34 31  1  0  0  0  0
 35 29  2  0  0  0  0
 36 37  1  0  0  0  0
M  END
>  <MODEL>
5

>  <REMARK>
 VINA RESULT:      -7.9      3.254      6.515
  Name = 
  2 active torsions:
  status: ('A' for Active; 'I' for Inactive)
    1  A    between atoms: N_4  and  C_37
    2  A    between atoms: C_23  and  C_30
                            x       y       z     vdW  Elec       q    Type
                         _______ _______ _______ _____ _____    ______ ____

>  <TORSDO>
F 2

$$$$
=
 OpenBabel11112417173D

 37 44  0  0  1  0  0  0  0  0999 V2000
  189.7250  175.4120  144.7530 C   0  0  0  0  0  2  0  0  0  0  0  0
  189.3440  173.4620  141.0920 C   0  0  0  0  0  0  0  0  0  0  0  0
  192.5680  172.3040  143.3150 C   0  0  0  0  0  0  0  0  0  0  0  0
  189.0470  176.6960  144.9420 N   0  0  0  0  0  0  0  0  0  0  0  0
  193.2510  174.4300  146.4390 O   0  0  0  0  0  0  0  0  0  0  0  0
  191.3790  171.8290  141.1250 C   0  0  1  0  0  3  0  0  0  0  0  0
  192.5770  173.3490  144.2470 C   0  0  0  0  0  0  0  0  0  0  0  0
  190.3440  176.7880  147.1390 C   0  0  2  0  0  3  0  0  0  0  0  0
  191.8300  172.7290  142.2350 C   0  0  0  0  0  0  0  0  0  0  0  0
  193.1460  173.2310  145.6910 C   0  0  1  0  0  3  0  0  0  0  0  0
  191.1870  170.4150  141.6640 C   0  0  0  0  0  2  0  0  0  0  0  0
  189.6460  177.5410  145.9920 C   0  0  0  0  0  2  0  0  0  0  0  0
  191.3250  173.9460  142.4520 N   0  0  0  0  0  0  0  0  0  0  0  0
  188.5280  172.8800  142.2350 C   0  0  0  0  0  1  0  0  0  0  0  0
  194.2960  170.6110  143.9080 C   0  0  0  0  0  2  0  0  0  0  0  0
  192.4810  169.9610  142.3510 C   0  0  0  0  0  2  0  0  0  0  0  0
  190.2900  174.5480  141.6170 C   0  0  0  0  0  2  0  0  0  0  0  0
  191.8180  176.4240  146.8730 C   0  0  1  0  0  3  0  0  0  0  0  0
  191.9840  174.9830  146.4480 C   0  0  1  0  0  3  0  0  0  0  0  0
  192.8430  170.8400  143.5640 C   0  0  2  0  0  3  0  0  0  0  0  0
  191.7410  174.3500  143.6690 C   0  0  0  0  0  0  0  0  0  0  0  0
  190.1300  172.3450  140.3820 C   0  0  0  0  0  2  0  0  0  0  0  0
  194.5190  172.5490  145.7580 C   0  0  1  0  0  3  0  0  0  0  0  0
  188.3920  174.0900  140.0980 C   0  0  0  0  0  1  0  0  0  0  0  0
  192.1230  176.0790  145.4130 C   0  0  1  0  0  3  0  0  0  0  0  0
  189.5920  175.7340  147.6340 F   0  0  0  0  0  0  0  0  0  0  0  0
  191.1810  175.6050  144.3170 C   0  0  2  0  0  3  0  0  0  0  0  0
  194.5240  170.7270  145.7010 S   0  0  0  0  0  0  0  0  0  0  0  0
  196.8620  172.5370  144.8860 C   0  0  0  0  0  3  0  0  0  0  0  0
  195.6600  173.2320  145.0580 C   0  0  0  0  0  0  0  0  0  0  0  0
  195.5450  174.5420  144.5720 C   0  0  0  0  0  3  0  0  0  0  0  0
  196.4680  176.7880  143.3260 Cl  0  0  0  0  0  0  0  0  0  0  0  0
  197.8210  174.4530  143.7560 C   0  0  0  0  0  3  0  0  0  0  0  0
  196.6220  175.1510  143.9250 C   0  0  0  0  0  0  0  0  0  0  0  0
  197.9410  173.1460  144.2380 C   0  0  0  0  0  3  0  0  0  0  0  0
  186.9790  177.6970  145.7440 C   0  0  0  0  0  1  0  0  0  0  0  0
  187.6760  176.4120  145.3360 C   0  0  0  0  0  2  0  0  0  0  0  0
  1  4  1  0  0  0  0
  2 17  1  0  0  0  0
  2 14  1  0  0  0  0
  3 20  1  0  0  0  0
  3  7  1  0  0  0  0
  4 37  1  0  0  0  0
  4 12  1  0  0  0  0
  5 19  1  0  0  0  0
  6 22  1  1  0  0  0
  6 11  1  0  0  0  0
  6  9  1  0  0  0  0
  8 26  1  6  0  0  0
  9 13  1  0  0  0  0
  9  3  2  0  0  0  0
 10  7  1  6  0  0  0
 10 23  1  0  0  0  0
 10  5  1  0  0  0  0
 11 16  1  0  0  0  0
 12  8  1  0  0  0  0
 13 21  1  0  0  0  0
 15 28  1  0  0  0  0
 16 20  1  0  0  0  0
 17 13  1  0  0  0  0
 18  8  1  0  0  0  0
 19 18  1  0  0  0  0
 20 15  1  0  0  0  0
 21  7  2  0  0  0  0
 21 27  1  0  0  0  0
 22  2  1  0  0  0  0
 24  2  1  0  0  0  0
 25 19  1  0  0  0  0
 25 18  1  0  0  0  0
 27  1  1  0  0  0  0
 27 25  1  0  0  0  0
 28 23  1  0  0  0  0
 29 30  1  0  0  0  0
 30 23  1  0  0  0  0
 31 30  2  0  0  0  0
 32 34  1  0  0  0  0
 33 34  2  0  0  0  0
 33 35  1  0  0  0  0
 34 31  1  0  0  0  0
 35 29  2  0  0  0  0
 37 36  1  0  0  0  0
M  END
>  <MODEL>
6

>  <REMARK>
 VINA RESULT:      -7.7      3.265      6.653
  Name = 
  2 active torsions:
  status: ('A' for Active; 'I' for Inactive)
    1  A    between atoms: N_4  and  C_37
    2  A    between atoms: C_23  and  C_30
                            x       y       z     vdW  Elec       q    Type
                         _______ _______ _______ _____ _____    ______ ____

>  <TORSDO>
F 2

$$$$
=
 OpenBabel11112417173D

 37 44  0  0  1  0  0  0  0  0999 V2000
  192.7020  175.9020  144.6790 C   0  0  0  0  0  2  0  0  0  0  0  0
  188.6050  176.5030  144.2310 C   0  0  0  0  0  0  0  0  0  0  0  0
  190.3110  174.1630  141.3520 C   0  0  0  0  0  0  0  0  0  0  0  0
  193.4690  176.8460  145.4960 N   0  0  0  0  0  0  0  0  0  0  0  0
  194.1470  174.0130  141.4260 O   0  0  0  0  0  0  0  0  0  0  0  0
  188.0750  175.1080  142.0910 C   0  0  1  0  0  3  0  0  0  0  0  0
  191.6570  174.4550  141.6030 C   0  0  0  0  0  0  0  0  0  0  0  0
  195.5070  175.5850  144.6170 C   0  0  2  0  0  3  0  0  0  0  0  0
  189.5630  175.1650  141.9260 C   0  0  0  0  0  0  0  0  0  0  0  0
  192.8370  173.4910  141.2870 C   0  0  1  0  0  3  0  0  0  0  0  0
  187.6360  173.6550  142.2420 C   0  0  0  0  0  2  0  0  0  0  0  0
  194.9060  176.8890  145.1700 C   0  0  0  0  0  2  0  0  0  0  0  0
  190.3470  176.0330  142.5720 N   0  0  0  0  0  0  0  0  0  0  0  0
  189.0060  175.3820  145.1770 C   0  0  0  0  0  1  0  0  0  0  0  0
  190.1280  172.3980  139.6040 C   0  0  0  0  0  2  0  0  0  0  0  0
  188.1660  172.8460  141.0510 C   0  0  0  0  0  2  0  0  0  0  0  0
  189.8380  177.0420  143.4960 C   0  0  0  0  0  2  0  0  0  0  0  0
  195.3730  175.4060  143.0920 C   0  0  1  0  0  3  0  0  0  0  0  0
  194.2290  174.4890  142.7210 C   0  0  1  0  0  3  0  0  0  0  0  0
  189.7050  172.8280  140.9900 C   0  0  2  0  0  3  0  0  0  0  0  0
  191.6230  175.6280  142.4150 C   0  0  0  0  0  0  0  0  0  0  0  0
  187.5470  175.9990  143.2330 C   0  0  0  0  0  2  0  0  0  0  0  0
  192.7610  172.8610  139.8890 C   0  0  1  0  0  3  0  0  0  0  0  0
  188.0030  177.6240  145.0490 C   0  0  0  0  0  1  0  0  0  0  0  0
  194.0810  175.9810  142.5050 C   0  0  1  0  0  3  0  0  0  0  0  0
  195.1340  174.4640  145.3430 F   0  0  0  0  0  0  0  0  0  0  0  0
  192.7570  176.2740  143.1940 C   0  0  2  0  0  3  0  0  0  0  0  0
  191.6520  171.4250  139.7050 S   0  0  0  0  0  0  0  0  0  0  0  0
  193.9580  174.6090  138.5630 C   0  0  0  0  0  3  0  0  0  0  0  0
  192.8320  173.7930  138.7120 C   0  0  0  0  0  0  0  0  0  0  0  0
  191.8020  173.8560  137.7630 C   0  0  0  0  0  3  0  0  0  0  0  0
  190.6020  174.8060  135.5030 Cl  0  0  0  0  0  0  0  0  0  0  0  0
  193.0220  175.5460  136.5340 C   0  0  0  0  0  3  0  0  0  0  0  0
  191.8970  174.7320  136.6790 C   0  0  0  0  0  0  0  0  0  0  0  0
  194.0540  175.4860  137.4770 C   0  0  0  0  0  3  0  0  0  0  0  0
  192.3190  175.3110  146.9940 C   0  0  0  0  0  1  0  0  0  0  0  0
  193.3450  176.4240  146.8820 C   0  0  0  0  0  2  0  0  0  0  0  0
  1  4  1  0  0  0  0
  2 24  1  0  0  0  0
  2 14  1  0  0  0  0
  3  7  1  0  0  0  0
  3  9  2  0  0  0  0
  4 37  1  0  0  0  0
  5 19  1  0  0  0  0
  6 11  1  1  0  0  0
  6 22  1  0  0  0  0
  7 21  2  0  0  0  0
  8 12  1  0  0  0  0
  8 26  1  1  0  0  0
  9  6  1  0  0  0  0
  9 13  1  0  0  0  0
 10  5  1  6  0  0  0
 10  7  1  0  0  0  0
 12  4  1  0  0  0  0
 13 17  1  0  0  0  0
 15 28  1  0  0  0  0
 15 20  1  0  0  0  0
 16 11  1  0  0  0  0
 17  2  1  0  0  0  0
 18  8  1  0  0  0  0
 19 18  1  0  0  0  0
 20 16  1  0  0  0  0
 20  3  1  0  0  0  0
 21 13  1  0  0  0  0
 21 27  1  0  0  0  0
 22  2  1  0  0  0  0
 23 10  1  0  0  0  0
 25 19  1  0  0  0  0
 25 18  1  0  0  0  0
 25 27  1  0  0  0  0
 27  1  1  0  0  0  0
 28 23  1  0  0  0  0
 29 30  1  0  0  0  0
 30 23  1  0  0  0  0
 31 30  2  0  0  0  0
 32 34  1  0  0  0  0
 33 34  2  0  0  0  0
 33 35  1  0  0  0  0
 34 31  1  0  0  0  0
 35 29  2  0  0  0  0
 37 36  1  0  0  0  0
M  END
>  <MODEL>
7

>  <REMARK>
 VINA RESULT:      -7.6      3.609      6.174
  Name = 
  2 active torsions:
  status: ('A' for Active; 'I' for Inactive)
    1  A    between atoms: N_4  and  C_37
    2  A    between atoms: C_23  and  C_30
                            x       y       z     vdW  Elec       q    Type
                         _______ _______ _______ _____ _____    ______ ____

>  <TORSDO>
F 2

$$$$
=
 OpenBabel11112417173D

 37 44  0  0  1  0  0  0  0  0999 V2000
  188.9330  175.5090  143.3550 C   0  0  0  0  0  2  0  0  0  0  0  0
  189.1240  172.8220  140.1790 C   0  0  0  0  0  0  0  0  0  0  0  0
  192.2590  172.6060  142.7880 C   0  0  0  0  0  0  0  0  0  0  0  0
  188.0860  176.6970  143.2240 N   0  0  0  0  0  0  0  0  0  0  0  0
  192.3910  175.3980  145.4210 O   0  0  0  0  0  0  0  0  0  0  0  0
  191.3370  171.5330  140.6820 C   0  0  1  0  0  3  0  0  0  0  0  0
  192.0540  173.8100  143.4740 C   0  0  0  0  0  0  0  0  0  0  0  0
  189.1620  177.4160  145.4250 C   0  0  2  0  0  3  0  0  0  0  0  0
  191.5720  172.6940  141.5990 C   0  0  0  0  0  0  0  0  0  0  0  0
  192.5040  174.0700  144.9410 C   0  0  1  0  0  3  0  0  0  0  0  0
  191.2770  170.2450  141.4970 C   0  0  0  0  0  2  0  0  0  0  0  0
  188.4790  177.8130  144.1040 C   0  0  0  0  0  2  0  0  0  0  0  0
  190.9020  173.8470  141.5200 N   0  0  0  0  0  0  0  0  0  0  0  0
  188.2900  172.3760  141.3680 C   0  0  0  0  0  1  0  0  0  0  0  0
  194.1260  171.3310  143.8310 C   0  0  0  0  0  2  0  0  0  0  0  0
  192.5510  170.1280  142.3420 C   0  0  0  0  0  2  0  0  0  0  0  0
  189.8770  174.1140  140.5160 C   0  0  0  0  0  2  0  0  0  0  0  0
  190.6870  177.2170  145.3320 C   0  0  1  0  0  3  0  0  0  0  0  0
  191.0690  175.7570  145.2360 C   0  0  1  0  0  3  0  0  0  0  0  0
  192.6910  171.2770  143.3590 C   0  0  2  0  0  3  0  0  0  0  0  0
  191.1540  174.5440  142.6460 C   0  0  0  0  0  0  0  0  0  0  0  0
  190.1030  171.7060  139.7720 C   0  0  0  0  0  2  0  0  0  0  0  0
  193.9400  173.6160  145.2350 C   0  0  1  0  0  3  0  0  0  0  0  0
  188.1930  173.0940  139.0180 C   0  0  0  0  0  1  0  0  0  0  0  0
  191.1610  176.6280  144.0000 C   0  0  1  0  0  3  0  0  0  0  0  0
  188.5060  176.3890  146.0880 F   0  0  0  0  0  0  0  0  0  0  0  0
  190.3860  175.8130  142.9760 C   0  0  2  0  0  3  0  0  0  0  0  0
  194.1780  171.8390  145.5690 S   0  0  0  0  0  0  0  0  0  0  0  0
  196.3670  174.1020  144.8860 C   0  0  0  0  0  3  0  0  0  0  0  0
  195.0440  174.2960  144.4750 C   0  0  0  0  0  0  0  0  0  0  0  0
  194.7780  175.1120  143.3670 C   0  0  0  0  0  3  0  0  0  0  0  0
  195.4800  176.7520  141.3010 Cl  0  0  0  0  0  0  0  0  0  0  0  0
  197.1450  175.5350  143.0950 C   0  0  0  0  0  3  0  0  0  0  0  0
  195.8250  175.7310  142.6810 C   0  0  0  0  0  0  0  0  0  0  0  0
  197.4160  174.7210  144.1980 C   0  0  0  0  0  3  0  0  0  0  0  0
  185.8540  177.5410  143.7000 C   0  0  0  0  0  1  0  0  0  0  0  0
  186.7310  176.3090  143.5870 C   0  0  0  0  0  2  0  0  0  0  0  0
  2 17  1  0  0  0  0
  2 14  1  0  0  0  0
  3 20  1  0  0  0  0
  3  7  1  0  0  0  0
  4  1  1  0  0  0  0
  4 37  1  0  0  0  0
  4 12  1  0  0  0  0
  6 22  1  1  0  0  0
  6 11  1  0  0  0  0
  6  9  1  0  0  0  0
  8 26  1  6  0  0  0
  9  3  2  0  0  0  0
 10  7  1  6  0  0  0
 10 23  1  0  0  0  0
 10  5  1  0  0  0  0
 11 16  1  0  0  0  0
 12  8  1  0  0  0  0
 13  9  1  0  0  0  0
 13 21  1  0  0  0  0
 15 28  1  0  0  0  0
 16 20  1  0  0  0  0
 17 13  1  0  0  0  0
 18  8  1  0  0  0  0
 19 18  1  0  0  0  0
 19  5  1  0  0  0  0
 20 15  1  0  0  0  0
 21 27  1  0  0  0  0
 21  7  2  0  0  0  0
 22  2  1  0  0  0  0
 23 28  1  0  0  0  0
 24  2  1  0  0  0  0
 25 19  1  0  0  0  0
 25 18  1  0  0  0  0
 27  1  1  0  0  0  0
 27 25  1  0  0  0  0
 30 29  1  0  0  0  0
 30 23  1  0  0  0  0
 31 30  2  0  0  0  0
 32 34  1  0  0  0  0
 33 35  1  0  0  0  0
 34 33  2  0  0  0  0
 34 31  1  0  0  0  0
 35 29  2  0  0  0  0
 37 36  1  0  0  0  0
M  END
>  <MODEL>
8

>  <REMARK>
 VINA RESULT:      -7.5      3.253      6.567
  Name = 
  2 active torsions:
  status: ('A' for Active; 'I' for Inactive)
    1  A    between atoms: N_4  and  C_37
    2  A    between atoms: C_23  and  C_30
                            x       y       z     vdW  Elec       q    Type
                         _______ _______ _______ _____ _____    ______ ____

>  <TORSDO>
F 2

$$$$
=
 OpenBabel11112417173D

 37 44  0  0  1  0  0  0  0  0999 V2000
  189.6720  174.4610  142.6540 C   0  0  0  0  0  2  0  0  0  0  0  0
  190.9380  176.2480  146.1960 C   0  0  0  0  0  0  0  0  0  0  0  0
  193.8900  174.3920  144.0710 C   0  0  0  0  0  0  0  0  0  0  0  0
  188.2520  174.1370  142.4950 N   0  0  0  0  0  0  0  0  0  0  0  0
  192.6880  172.2960  141.0860 O   0  0  0  0  0  0  0  0  0  0  0  0
  193.4990  175.7470  146.1800 C   0  0  1  0  0  3  0  0  0  0  0  0
  193.0920  173.6500  143.1910 C   0  0  0  0  0  0  0  0  0  0  0  0
  189.0050  172.9450  140.3660 C   0  0  2  0  0  3  0  0  0  0  0  0
  193.0960  174.7510  145.1350 C   0  0  0  0  0  0  0  0  0  0  0  0
  193.5400  173.1980  141.7710 C   0  0  1  0  0  3  0  0  0  0  0  0
  194.4510  176.7690  145.5660 C   0  0  0  0  0  2  0  0  0  0  0  0
  187.9870  173.0670  141.5150 C   0  0  0  0  0  2  0  0  0  0  0  0
  191.8400  174.3370  144.9530 N   0  0  0  0  0  0  0  0  0  0  0  0
  190.8470  177.1690  144.9910 C   0  0  0  0  0  1  0  0  0  0  0  0
  196.2950  174.1270  143.4780 C   0  0  0  0  0  2  0  0  0  0  0  0
  195.6280  176.0310  144.9180 C   0  0  0  0  0  2  0  0  0  0  0  0
  190.7170  174.7920  145.7680 C   0  0  0  0  0  2  0  0  0  0  0  0
  190.2370  172.0740  140.6820 C   0  0  1  0  0  3  0  0  0  0  0  0
  191.4470  172.9050  141.0450 C   0  0  1  0  0  3  0  0  0  0  0  0
  195.1830  175.1100  143.7660 C   0  0  2  0  0  3  0  0  0  0  0  0
  191.7920  173.6800  143.7770 C   0  0  0  0  0  0  0  0  0  0  0  0
  192.3030  176.4150  146.8880 C   0  0  0  0  0  2  0  0  0  0  0  0
  194.9470  172.5870  141.7340 C   0  0  1  0  0  3  0  0  0  0  0  0
  189.8500  176.6330  147.1750 C   0  0  0  0  0  1  0  0  0  0  0  0
  190.7070  172.1600  142.1370 C   0  0  1  0  0  3  0  0  0  0  0  0
  189.3200  174.1650  139.7880 F   0  0  0  0  0  0  0  0  0  0  0  0
  190.4670  173.2560  143.1640 C   0  0  2  0  0  3  0  0  0  0  0  0
  196.3420  173.7610  141.7040 S   0  0  0  0  0  0  0  0  0  0  0  0
  196.4400  170.7430  142.5190 C   0  0  0  0  0  3  0  0  0  0  0  0
  195.1680  171.3230  142.5170 C   0  0  0  0  0  0  0  0  0  0  0  0
  194.1330  170.7210  143.2460 C   0  0  0  0  0  3  0  0  0  0  0  0
  193.0660  168.8020  144.8670 Cl  0  0  0  0  0  0  0  0  0  0  0  0
  195.6400  168.9690  143.9630 C   0  0  0  0  0  3  0  0  0  0  0  0
  194.3680  169.5470  143.9640 C   0  0  0  0  0  0  0  0  0  0  0  0
  196.6770  169.5670  143.2400 C   0  0  0  0  0  3  0  0  0  0  0  0
  188.5390  176.5140  142.0610 C   0  0  0  0  0  1  0  0  0  0  0  0
  187.5800  175.3390  142.0250 C   0  0  0  0  0  2  0  0  0  0  0  0
  1 27  1  0  0  0  0
  2 22  1  0  0  0  0
  2 24  1  0  0  0  0
  3  9  2  0  0  0  0
  4  1  1  0  0  0  0
  6 11  1  6  0  0  0
  6 22  1  0  0  0  0
  7 21  2  0  0  0  0
  7  3  1  0  0  0  0
  8 26  1  1  0  0  0
  8 18  1  0  0  0  0
  8 12  1  0  0  0  0
  9  6  1  0  0  0  0
 10  5  1  1  0  0  0
 10  7  1  0  0  0  0
 12  4  1  0  0  0  0
 13  9  1  0  0  0  0
 13 17  1  0  0  0  0
 14  2  1  0  0  0  0
 15 20  1  0  0  0  0
 16 11  1  0  0  0  0
 17  2  1  0  0  0  0
 18 19  1  0  0  0  0
 18 25  1  0  0  0  0
 19  5  1  0  0  0  0
 19 25  1  0  0  0  0
 20  3  1  0  0  0  0
 20 16  1  0  0  0  0
 21 13  1  0  0  0  0
 23 10  1  0  0  0  0
 23 30  1  0  0  0  0
 25 27  1  0  0  0  0
 27 21  1  0  0  0  0
 28 23  1  0  0  0  0
 28 15  1  0  0  0  0
 29 35  1  0  0  0  0
 30 29  2  0  0  0  0
 30 31  1  0  0  0  0
 31 34  2  0  0  0  0
 33 34  1  0  0  0  0
 34 32  1  0  0  0  0
 35 33  2  0  0  0  0
 37 36  1  0  0  0  0
 37  4  1  0  0  0  0
M  END
>  <MODEL>
9

>  <REMARK>
 VINA RESULT:      -7.2      3.554      7.864
  Name = 
  2 active torsions:
  status: ('A' for Active; 'I' for Inactive)
    1  A    between atoms: N_4  and  C_37
    2  A    between atoms: C_23  and  C_30
                            x       y       z     vdW  Elec       q    Type
                         _______ _______ _______ _____ _____    ______ ____

>  <TORSDO>
F 2

$$$$
