=
 OpenBabel11112417563D

 34 41  0  0  1  0  0  0  0  0999 V2000
  191.9240  176.7610  145.3670 C   0  0  0  0  0  0  0  0  0  0  0  0
  189.4560  176.7350  146.0890 N   0  0  0  0  0  0  0  0  0  0  0  0
  196.5110  175.5150  140.8480 C   0  0  2  0  0  3  0  0  0  0  0  0
  194.1550  176.1030  144.5040 C   0  0  0  0  0  0  0  0  0  0  0  0
  194.4730  175.2100  142.1730 C   0  0  0  0  0  0  0  0  0  0  0  0
  194.7970  174.5340  139.3960 S   0  0  0  0  0  0  0  0  0  0  0  0
  196.4540  175.3090  139.3530 C   0  0  0  0  0  2  0  0  0  0  0  0
  197.4020  174.8330  143.0830 C   0  0  0  0  0  2  0  0  0  0  0  0
  190.0260  175.7760  144.1090 C   0  0  0  0  0  0  0  0  0  0  0  0
  187.7850  174.8980  142.0310 C   0  0  0  0  0  2  0  0  0  0  0  0
  193.1490  175.1340  142.0130 C   0  0  0  0  0  3  0  0  0  0  0  0
  196.4820  175.9440  143.6170 C   0  0  0  0  0  2  0  0  0  0  0  0
  190.8960  175.4180  142.9590 C   0  0  0  0  0  0  0  0  0  0  0  0
  188.1870  176.3600  145.4820 C   0  0  0  0  0  3  0  0  0  0  0  0
  195.0380  175.6660  143.4420 N   0  0  0  0  0  0  0  0  0  0  0  0
  197.7360  175.0120  141.5890 C   0  0  0  0  0  2  0  0  0  0  0  0
  187.8910  176.0160  142.9790 N   0  0  0  0  0  0  0  0  0  0  0  0
  192.8180  176.1040  144.3280 C   0  0  0  0  0  0  0  0  0  0  0  0
  195.3580  174.6000  141.1280 C   0  0  1  0  0  3  0  0  0  0  0  0
  192.2320  175.5670  143.0760 C   0  0  1  0  0  3  0  0  0  0  0  0
  193.9090  176.7730  146.8580 C   0  0  0  0  0  3  0  0  0  0  0  0
  189.0790  174.0940  141.8420 C   0  0  0  0  0  2  0  0  0  0  0  0
  194.7050  176.5680  145.8040 C   0  0  0  0  0  3  0  0  0  0  0  0
  190.2880  174.9940  141.6460 C   0  0  0  0  0  2  0  0  0  0  0  0
  188.5500  175.5540  144.2150 C   0  0  1  0  0  3  0  0  0  0  0  0
  192.4390  176.4680  146.7770 C   0  0  0  0  0  2  0  0  0  0  0  0
  190.4880  176.3580  145.1990 C   0  0  0  0  0  0  0  0  0  0  0  0
  186.5110  176.4070  143.2440 C   0  0  0  0  0  2  0  0  0  0  0  0
  185.9730  177.2210  142.0630 C   0  0  0  0  0  2  0  0  0  0  0  0
  184.8940  179.1830  144.6530 C   0  0  0  0  0  2  0  0  0  0  0  0
  183.9650  178.2810  142.8420 C   0  0  0  0  0  2  0  0  0  0  0  0
  185.3530  178.4930  142.4530 N   0  0  0  0  0  0  0  0  0  0  0  0
  183.6750  179.0480  143.9800 O   0  0  0  0  0  0  0  0  0  0  0  0
  185.9950  179.0180  143.6390 C   0  0  0  0  0  2  0  0  0  0  0  0
  1 26  1  0  0  0  0
  3  7  1  6  0  0  0
  3 19  1  0  0  0  0
  3 16  1  0  0  0  0
  4 23  1  0  0  0  0
  5 15  1  0  0  0  0
  7  6  1  0  0  0  0
  8 12  1  0  0  0  0
  9 25  1  0  0  0  0
  9 27  1  0  0  0  0
 10 17  1  0  0  0  0
 11  5  2  0  0  0  0
 13 20  1  0  0  0  0
 13  9  2  0  0  0  0
 14  2  2  0  0  0  0
 15 12  1  0  0  0  0
 15  4  1  0  0  0  0
 16  8  1  0  0  0  0
 17 28  1  0  0  0  0
 17 25  1  0  0  0  0
 18  4  2  0  0  0  0
 18  1  1  0  0  0  0
 19  6  1  6  0  0  0
 19  5  1  0  0  0  0
 20 11  1  1  0  0  0
 20 18  1  0  0  0  0
 22 10  1  0  0  0  0
 23 21  2  0  0  0  0
 24 22  1  0  0  0  0
 24 13  1  0  0  0  0
 25 14  1  1  0  0  0
 26 21  1  0  0  0  0
 27  1  2  0  0  0  0
 27  2  1  0  0  0  0
 29 32  1  0  0  0  0
 29 28  1  0  0  0  0
 31 33  1  0  0  0  0
 32 31  1  0  0  0  0
 32 34  1  0  0  0  0
 33 30  1  0  0  0  0
 34 30  1  0  0  0  0
M  END
>  <MODEL>
1

>  <REMARK>
 VINA RESULT:      -8.2      0.000      0.000
  Name = 
  3 active torsions:
  status: ('A' for Active; 'I' for Inactive)
    1  A    between atoms: N_17  and  C_28
    2  A    between atoms: C_28  and  C_29
    3  A    between atoms: C_29  and  N_32
                            x       y       z     vdW  Elec       q    Type
                         _______ _______ _______ _____ _____    ______ ____

>  <TORSDO>
F 3

$$$$
=
 OpenBabel11112417563D

 34 41  0  0  1  0  0  0  0  0999 V2000
  189.7790  176.0150  142.5000 C   0  0  2  0  0  3  0  0  0  0  0  0
  191.9990  174.8460  141.9380 N   0  0  0  0  0  0  0  0  0  0  0  0
  185.9760  179.1660  146.8150 C   0  0  2  0  0  3  0  0  0  0  0  0
  187.6640  176.6960  143.6040 C   0  0  0  0  0  0  0  0  0  0  0  0
  187.6100  177.5480  145.9710 C   0  0  0  0  0  0  0  0  0  0  0  0
  187.6810  178.8330  148.5440 S   0  0  0  0  0  0  0  0  0  0  0  0
  186.2700  179.9080  148.0970 C   0  0  0  0  0  2  0  0  0  0  0  0
  184.5500  177.5580  145.5370 C   0  0  0  0  0  2  0  0  0  0  0  0
  191.6230  175.5070  144.0790 C   0  0  0  0  0  0  0  0  0  0  0  0
  193.9740  175.4790  146.2190 C   0  0  0  0  0  2  0  0  0  0  0  0
  188.8920  177.2080  146.1320 C   0  0  0  0  0  3  0  0  0  0  0  0
  185.5700  177.7890  144.4090 C   0  0  0  0  0  2  0  0  0  0  0  0
  190.9310  176.1930  145.2010 C   0  0  0  0  0  0  0  0  0  0  0  0
  193.2490  174.5730  142.6330 C   0  0  0  0  0  3  0  0  0  0  0  0
  186.9250  177.2740  144.7080 N   0  0  0  0  0  0  0  0  0  0  0  0
  184.5530  178.6960  146.5770 C   0  0  0  0  0  2  0  0  0  0  0  0
  193.9340  175.7580  144.7770 N   0  0  0  0  0  0  0  0  0  0  0  0
  188.9780  176.4190  143.7270 C   0  0  0  0  0  0  0  0  0  0  0  0
  186.8290  177.9880  147.1730 C   0  0  1  0  0  3  0  0  0  0  0  0
  189.6610  176.6170  145.0280 C   0  0  0  0  0  0  0  0  0  0  0  0
  187.5970  175.6870  141.3620 C   0  0  0  0  0  3  0  0  0  0  0  0
  192.5970  175.3730  146.8900 C   0  0  0  0  0  2  0  0  0  0  0  0
  186.9900  176.4070  142.3110 C   0  0  0  0  0  3  0  0  0  0  0  0
  191.6710  176.5050  146.4770 C   0  0  0  0  0  2  0  0  0  0  0  0
  192.9680  174.8540  144.1270 C   0  0  1  0  0  3  0  0  0  0  0  0
  188.9540  175.0880  141.6050 C   0  0  0  0  0  2  0  0  0  0  0  0
  191.0990  175.4070  142.8730 C   0  0  0  0  0  0  0  0  0  0  0  0
  195.2900  175.4900  144.3110 C   0  0  0  0  0  2  0  0  0  0  0  0
  195.9830  176.8100  143.9620 C   0  0  0  0  0  2  0  0  0  0  0  0
  196.5440  175.5060  140.8460 C   0  0  0  0  0  2  0  0  0  0  0  0
  197.5600  175.4020  142.8240 C   0  0  0  0  0  2  0  0  0  0  0  0
  196.9150  176.7090  142.8310 N   0  0  0  0  0  0  0  0  0  0  0  0
  197.6290  174.9210  141.5080 O   0  0  0  0  0  0  0  0  0  0  0  0
  196.1910  176.7720  141.5810 C   0  0  0  0  0  2  0  0  0  0  0  0
  1 26  1  1  0  0  0
  1 27  1  0  0  0  0
  1 18  1  0  0  0  0
  2 14  2  0  0  0  0
  2 27  1  0  0  0  0
  3 16  1  1  0  0  0
  3 19  1  0  0  0  0
  3  7  1  0  0  0  0
  4 18  2  0  0  0  0
  4 15  1  0  0  0  0
  5 11  2  0  0  0  0
  7  6  1  0  0  0  0
  8 16  1  0  0  0  0
  9 25  1  0  0  0  0
  9 13  1  0  0  0  0
 10 22  1  0  0  0  0
 12 15  1  0  0  0  0
 12  8  1  0  0  0  0
 13 24  1  0  0  0  0
 15  5  1  0  0  0  0
 17 10  1  0  0  0  0
 18 20  1  0  0  0  0
 19  5  1  6  0  0  0
 19  6  1  0  0  0  0
 20 13  2  0  0  0  0
 20 11  1  0  0  0  0
 21 26  1  0  0  0  0
 21 23  2  0  0  0  0
 23  4  1  0  0  0  0
 24 22  1  0  0  0  0
 25 14  1  6  0  0  0
 25 17  1  0  0  0  0
 27  9  2  0  0  0  0
 28 17  1  0  0  0  0
 29 28  1  0  0  0  0
 30 33  1  0  0  0  0
 30 34  1  0  0  0  0
 31 32  1  0  0  0  0
 32 29  1  0  0  0  0
 33 31  1  0  0  0  0
 34 32  1  0  0  0  0
M  END
>  <MODEL>
2

>  <REMARK>
 VINA RESULT:      -8.1      3.675      9.176
  Name = 
  3 active torsions:
  status: ('A' for Active; 'I' for Inactive)
    1  A    between atoms: N_17  and  C_28
    2  A    between atoms: C_28  and  C_29
    3  A    between atoms: C_29  and  N_32
                            x       y       z     vdW  Elec       q    Type
                         _______ _______ _______ _____ _____    ______ ____

>  <TORSDO>
F 3

$$$$
=
 OpenBabel11112417563D

 34 41  0  0  1  0  0  0  0  0999 V2000
  189.7940  176.0460  142.5710 C   0  0  2  0  0  3  0  0  0  0  0  0
  192.0410  174.9230  142.0190 N   0  0  0  0  0  0  0  0  0  0  0  0
  185.9180  179.1430  146.8600 C   0  0  2  0  0  3  0  0  0  0  0  0
  187.6640  176.6870  143.6690 C   0  0  0  0  0  0  0  0  0  0  0  0
  187.5890  177.5560  146.0300 C   0  0  0  0  0  0  0  0  0  0  0  0
  187.6300  178.8620  148.5920 S   0  0  0  0  0  0  0  0  0  0  0  0
  186.1950  179.9010  148.1360 C   0  0  0  0  0  2  0  0  0  0  0  0
  184.5300  177.4930  145.5940 C   0  0  0  0  0  2  0  0  0  0  0  0
  191.6480  175.5920  144.1550 C   0  0  0  0  0  0  0  0  0  0  0  0
  193.9980  175.6340  146.2970 C   0  0  0  0  0  2  0  0  0  0  0  0
  188.8780  177.2470  146.1930 C   0  0  0  0  0  3  0  0  0  0  0  0
  185.5450  177.7380  144.4640 C   0  0  0  0  0  2  0  0  0  0  0  0
  190.9410  176.2710  145.2720 C   0  0  0  0  0  0  0  0  0  0  0  0
  193.2970  174.6850  142.7170 C   0  0  0  0  0  3  0  0  0  0  0  0
  186.9120  177.2570  144.7680 N   0  0  0  0  0  0  0  0  0  0  0  0
  184.5070  178.6380  146.6250 C   0  0  0  0  0  2  0  0  0  0  0  0
  193.9530  175.9010  144.8520 N   0  0  0  0  0  0  0  0  0  0  0  0
  188.9840  176.4410  143.7950 C   0  0  0  0  0  0  0  0  0  0  0  0
  186.7970  177.9870  147.2280 C   0  0  1  0  0  3  0  0  0  0  0  0
  189.6620  176.6640  145.0950 C   0  0  0  0  0  0  0  0  0  0  0  0
  187.6210  175.6590  141.4340 C   0  0  0  0  0  3  0  0  0  0  0  0
  192.6240  175.5020  146.9680 C   0  0  0  0  0  2  0  0  0  0  0  0
  186.9980  176.3720  142.3780 C   0  0  0  0  0  3  0  0  0  0  0  0
  191.6720  176.6100  146.5450 C   0  0  0  0  0  2  0  0  0  0  0  0
  193.0080  174.9700  144.2080 C   0  0  1  0  0  3  0  0  0  0  0  0
  188.9910  175.0940  141.6830 C   0  0  0  0  0  2  0  0  0  0  0  0
  191.1280  175.4710  142.9500 C   0  0  0  0  0  0  0  0  0  0  0  0
  195.3150  175.6600  144.3890 C   0  0  0  0  0  2  0  0  0  0  0  0
  195.9990  174.6470  145.3110 C   0  0  0  0  0  2  0  0  0  0  0  0
  196.7420  171.3470  145.8440 C   0  0  0  0  0  2  0  0  0  0  0  0
  197.6110  173.0020  144.6350 C   0  0  0  0  0  2  0  0  0  0  0  0
  196.1920  173.3260  144.7000 N   0  0  0  0  0  0  0  0  0  0  0  0
  197.8010  171.6570  144.9840 O   0  0  0  0  0  0  0  0  0  0  0  0
  195.6150  172.2990  145.5400 C   0  0  0  0  0  2  0  0  0  0  0  0
  1 26  1  1  0  0  0
  1 27  1  0  0  0  0
  1 18  1  0  0  0  0
  2 14  2  0  0  0  0
  2 27  1  0  0  0  0
  3 16  1  1  0  0  0
  3 19  1  0  0  0  0
  3  7  1  0  0  0  0
  4 18  2  0  0  0  0
  4 15  1  0  0  0  0
  5 11  2  0  0  0  0
  7  6  1  0  0  0  0
  8 16  1  0  0  0  0
  9 25  1  0  0  0  0
  9 13  1  0  0  0  0
 10 22  1  0  0  0  0
 12 15  1  0  0  0  0
 12  8  1  0  0  0  0
 13 24  1  0  0  0  0
 15  5  1  0  0  0  0
 17 10  1  0  0  0  0
 18 20  1  0  0  0  0
 19  5  1  6  0  0  0
 19  6  1  0  0  0  0
 20 13  2  0  0  0  0
 20 11  1  0  0  0  0
 21 26  1  0  0  0  0
 21 23  2  0  0  0  0
 23  4  1  0  0  0  0
 24 22  1  0  0  0  0
 25 14  1  6  0  0  0
 25 17  1  0  0  0  0
 27  9  2  0  0  0  0
 28 17  1  0  0  0  0
 28 29  1  0  0  0  0
 31 32  1  0  0  0  0
 31 33  1  0  0  0  0
 32 29  1  0  0  0  0
 32 34  1  0  0  0  0
 33 30  1  0  0  0  0
 34 30  1  0  0  0  0
M  END
>  <MODEL>
3

>  <REMARK>
 VINA RESULT:      -8.0      4.002      9.438
  Name = 
  3 active torsions:
  status: ('A' for Active; 'I' for Inactive)
    1  A    between atoms: N_17  and  C_28
    2  A    between atoms: C_28  and  C_29
    3  A    between atoms: C_29  and  N_32
                            x       y       z     vdW  Elec       q    Type
                         _______ _______ _______ _____ _____    ______ ____

>  <TORSDO>
F 3

$$$$
=
 OpenBabel11112417563D

 34 41  0  0  1  0  0  0  0  0999 V2000
  188.8260  174.2500  141.8740 C   0  0  2  0  0  3  0  0  0  0  0  0
  186.7190  175.5890  142.4930 N   0  0  0  0  0  0  0  0  0  0  0  0
  194.9320  172.3270  143.3010 C   0  0  2  0  0  3  0  0  0  0  0  0
  191.1740  173.5900  141.4180 C   0  0  0  0  0  0  0  0  0  0  0  0
  192.9800  173.8010  143.1560 C   0  0  0  0  0  0  0  0  0  0  0  0
  194.8990  173.7470  145.2990 S   0  0  0  0  0  0  0  0  0  0  0  0
  195.7200  172.2740  144.5880 C   0  0  0  0  0  2  0  0  0  0  0  0
  194.8270  172.8680  140.8610 C   0  0  0  0  0  2  0  0  0  0  0  0
  188.5690  175.7960  143.7970 C   0  0  0  0  0  0  0  0  0  0  0  0
  188.4110  177.2740  146.6080 C   0  0  0  0  0  2  0  0  0  0  0  0
  192.1470  174.4780  143.9520 C   0  0  0  0  0  3  0  0  0  0  0  0
  193.3520  172.4500  140.9890 C   0  0  0  0  0  2  0  0  0  0  0  0
  189.9300  175.4850  144.3050 C   0  0  0  0  0  0  0  0  0  0  0  0
  186.2910  176.4190  143.6100 C   0  0  0  0  0  3  0  0  0  0  0  0
  192.5410  173.3560  141.8350 N   0  0  0  0  0  0  0  0  0  0  0  0
  195.7020  172.2960  141.9940 C   0  0  0  0  0  2  0  0  0  0  0  0
  187.4670  176.4260  145.8660 N   0  0  0  0  0  0  0  0  0  0  0  0
  190.3000  174.2050  142.2410 C   0  0  0  0  0  0  0  0  0  0  0  0
  194.4270  173.7180  143.5390 C   0  0  1  0  0  3  0  0  0  0  0  0
  190.7560  174.7320  143.5500 C   0  0  0  0  0  0  0  0  0  0  0  0
  189.5190  173.5390  139.5980 C   0  0  0  0  0  3  0  0  0  0  0  0
  189.8330  177.3070  146.0300 C   0  0  0  0  0  2  0  0  0  0  0  0
  190.7050  173.1490  140.0780 C   0  0  0  0  0  3  0  0  0  0  0  0
  190.3440  175.9160  145.6890 C   0  0  0  0  0  2  0  0  0  0  0  0
  187.5710  176.7170  144.4240 C   0  0  1  0  0  3  0  0  0  0  0  0
  188.6570  174.4960  140.3730 C   0  0  0  0  0  2  0  0  0  0  0  0
  188.0800  175.2600  142.6950 C   0  0  0  0  0  0  0  0  0  0  0  0
  186.1540  176.8010  146.3770 C   0  0  0  0  0  2  0  0  0  0  0  0
  186.2350  178.1800  147.0390 C   0  0  0  0  0  2  0  0  0  0  0  0
  183.8860  178.8180  144.6310 C   0  0  0  0  0  2  0  0  0  0  0  0
  185.8380  179.7060  145.2300 C   0  0  0  0  0  2  0  0  0  0  0  0
  185.3050  179.1650  146.4730 N   0  0  0  0  0  0  0  0  0  0  0  0
  184.8060  179.8140  144.2850 O   0  0  0  0  0  0  0  0  0  0  0  0
  184.0650  178.5210  146.0960 C   0  0  0  0  0  2  0  0  0  0  0  0
  1 26  1  6  0  0  0
  1 18  1  0  0  0  0
  1 27  1  0  0  0  0
  2 27  1  0  0  0  0
  2 14  2  0  0  0  0
  3 16  1  6  0  0  0
  3 19  1  0  0  0  0
  3  7  1  0  0  0  0
  4 15  1  0  0  0  0
  4 18  2  0  0  0  0
  5 11  2  0  0  0  0
  7  6  1  0  0  0  0
  8 12  1  0  0  0  0
  8 16  1  0  0  0  0
  9 13  1  0  0  0  0
  9 25  1  0  0  0  0
 12 15  1  0  0  0  0
 13 24  1  0  0  0  0
 15  5  1  0  0  0  0
 17 28  1  0  0  0  0
 17 10  1  0  0  0  0
 18 20  1  0  0  0  0
 19  5  1  1  0  0  0
 19  6  1  0  0  0  0
 20 11  1  0  0  0  0
 20 13  2  0  0  0  0
 21 23  2  0  0  0  0
 21 26  1  0  0  0  0
 22 10  1  0  0  0  0
 23  4  1  0  0  0  0
 24 22  1  0  0  0  0
 25 14  1  6  0  0  0
 25 17  1  0  0  0  0
 27  9  2  0  0  0  0
 28 29  1  0  0  0  0
 30 34  1  0  0  0  0
 31 32  1  0  0  0  0
 32 29  1  0  0  0  0
 33 30  1  0  0  0  0
 33 31  1  0  0  0  0
 34 32  1  0  0  0  0
M  END
>  <MODEL>
4

>  <REMARK>
 VINA RESULT:      -7.9      2.398      4.403
  Name = 
  3 active torsions:
  status: ('A' for Active; 'I' for Inactive)
    1  A    between atoms: N_17  and  C_28
    2  A    between atoms: C_28  and  C_29
    3  A    between atoms: C_29  and  N_32
                            x       y       z     vdW  Elec       q    Type
                         _______ _______ _______ _____ _____    ______ ____

>  <TORSDO>
F 3

$$$$
=
 OpenBabel11112417563D

 34 41  0  0  1  0  0  0  0  0999 V2000
  192.3000  176.5460  145.2670 C   0  0  0  0  0  0  0  0  0  0  0  0
  190.1450  177.4990  146.2980 N   0  0  0  0  0  0  0  0  0  0  0  0
  195.3140  173.3580  140.3920 C   0  0  2  0  0  3  0  0  0  0  0  0
  193.9680  175.0410  144.2160 C   0  0  0  0  0  0  0  0  0  0  0  0
  193.5530  173.9330  141.9950 C   0  0  0  0  0  0  0  0  0  0  0  0
  193.1460  172.9930  139.3070 S   0  0  0  0  0  0  0  0  0  0  0  0
  194.9400  173.0850  138.9550 C   0  0  0  0  0  2  0  0  0  0  0  0
  196.2570  172.5490  142.5620 C   0  0  0  0  0  2  0  0  0  0  0  0
  189.9950  176.2600  144.3980 C   0  0  0  0  0  0  0  0  0  0  0  0
  187.2770  176.1450  142.7520 C   0  0  0  0  0  2  0  0  0  0  0  0
  192.2830  174.3490  142.0160 C   0  0  0  0  0  3  0  0  0  0  0  0
  195.9010  173.9590  143.0660 C   0  0  0  0  0  2  0  0  0  0  0  0
  190.4740  175.5230  143.2000 C   0  0  0  0  0  0  0  0  0  0  0  0
  188.7440  177.5870  145.9100 C   0  0  0  0  0  3  0  0  0  0  0  0
  194.4460  174.2310  143.1130 N   0  0  0  0  0  0  0  0  0  0  0  0
  196.3800  172.4850  141.0280 C   0  0  0  0  0  2  0  0  0  0  0  0
  187.9340  177.2050  143.5300 N   0  0  0  0  0  0  0  0  0  0  0  0
  192.7120  175.5310  144.2140 C   0  0  0  0  0  0  0  0  0  0  0  0
  193.9720  172.9640  140.9310 C   0  0  1  0  0  3  0  0  0  0  0  0
  191.7730  175.1680  143.1250 C   0  0  1  0  0  3  0  0  0  0  0  0
  194.3740  175.9170  146.4790 C   0  0  0  0  0  3  0  0  0  0  0  0
  188.1440  174.9030  142.5010 C   0  0  0  0  0  2  0  0  0  0  0  0
  194.8570  175.3550  145.3650 C   0  0  0  0  0  3  0  0  0  0  0  0
  189.5460  175.2680  142.0400 C   0  0  0  0  0  2  0  0  0  0  0  0
  188.5780  176.6160  144.7190 C   0  0  1  0  0  3  0  0  0  0  0  0
  192.9020  176.1810  146.6260 C   0  0  0  0  0  2  0  0  0  0  0  0
  190.8090  176.7010  145.3370 C   0  0  0  0  0  0  0  0  0  0  0  0
  186.8520  178.1030  143.9170 C   0  0  0  0  0  2  0  0  0  0  0  0
  185.5710  177.2960  144.1440 C   0  0  0  0  0  2  0  0  0  0  0  0
  185.5950  179.0510  147.0840 C   0  0  0  0  0  2  0  0  0  0  0  0
  185.1570  176.9520  146.4830 C   0  0  0  0  0  2  0  0  0  0  0  0
  184.7930  177.7350  145.3090 N   0  0  0  0  0  0  0  0  0  0  0  0
  185.2480  177.7980  147.6000 O   0  0  0  0  0  0  0  0  0  0  0  0
  185.1330  179.0980  145.6510 C   0  0  0  0  0  2  0  0  0  0  0  0
  1 27  2  0  0  0  0
  1 26  1  0  0  0  0
  3  7  1  6  0  0  0
  3 19  1  0  0  0  0
  3 16  1  0  0  0  0
  4 23  1  0  0  0  0
  5 11  2  0  0  0  0
  5 15  1  0  0  0  0
  7  6  1  0  0  0  0
  8 12  1  0  0  0  0
  9 25  1  0  0  0  0
  9 27  1  0  0  0  0
 10 17  1  0  0  0  0
 12 15  1  0  0  0  0
 13  9  2  0  0  0  0
 14  2  2  0  0  0  0
 15  4  1  0  0  0  0
 16  8  1  0  0  0  0
 17 28  1  0  0  0  0
 17 25  1  0  0  0  0
 18  4  2  0  0  0  0
 18  1  1  0  0  0  0
 19  6  1  6  0  0  0
 19  5  1  0  0  0  0
 20 11  1  1  0  0  0
 20 13  1  0  0  0  0
 20 18  1  0  0  0  0
 21 26  1  0  0  0  0
 22 10  1  0  0  0  0
 23 21  2  0  0  0  0
 24 22  1  0  0  0  0
 24 13  1  0  0  0  0
 25 14  1  1  0  0  0
 27  2  1  0  0  0  0
 28 29  1  0  0  0  0
 29 32  1  0  0  0  0
 30 33  1  0  0  0  0
 31 33  1  0  0  0  0
 32 34  1  0  0  0  0
 32 31  1  0  0  0  0
 34 30  1  0  0  0  0
M  END
>  <MODEL>
5

>  <REMARK>
 VINA RESULT:      -7.8      1.712      1.947
  Name = 
  3 active torsions:
  status: ('A' for Active; 'I' for Inactive)
    1  A    between atoms: N_17  and  C_28
    2  A    between atoms: C_28  and  C_29
    3  A    between atoms: C_29  and  N_32
                            x       y       z     vdW  Elec       q    Type
                         _______ _______ _______ _____ _____    ______ ____

>  <TORSDO>
F 3

$$$$
=
 OpenBabel11112417563D

 34 41  0  0  1  0  0  0  0  0999 V2000
  190.7420  173.7580  141.1560 C   0  0  2  0  0  3  0  0  0  0  0  0
  188.2970  174.3220  141.7230 N   0  0  0  0  0  0  0  0  0  0  0  0
  197.1490  174.8890  141.9820 C   0  0  2  0  0  3  0  0  0  0  0  0
  193.1300  173.9240  140.5050 C   0  0  0  0  0  0  0  0  0  0  0  0
  194.7570  175.3730  141.7640 C   0  0  0  0  0  0  0  0  0  0  0  0
  196.6140  176.7700  143.4600 S   0  0  0  0  0  0  0  0  0  0  0  0
  197.9410  175.5720  143.0700 C   0  0  0  0  0  2  0  0  0  0  0  0
  196.7260  174.4980  139.5480 C   0  0  0  0  0  2  0  0  0  0  0  0
  189.9470  175.6370  142.5660 C   0  0  0  0  0  0  0  0  0  0  0  0
  189.3090  177.7930  144.8140 C   0  0  0  0  0  2  0  0  0  0  0  0
  193.7530  175.9080  142.4640 C   0  0  0  0  0  3  0  0  0  0  0  0
  195.5640  173.6220  140.0480 C   0  0  0  0  0  2  0  0  0  0  0  0
  191.3350  176.0550  142.8960 C   0  0  0  0  0  0  0  0  0  0  0  0
  187.6110  175.2500  142.6100 C   0  0  0  0  0  3  0  0  0  0  0  0
  194.4880  174.3800  140.7250 N   0  0  0  0  0  0  0  0  0  0  0  0
  197.8060  174.7160  140.6260 C   0  0  0  0  0  2  0  0  0  0  0  0
  188.7720  176.4560  144.5260 N   0  0  0  0  0  0  0  0  0  0  0  0
  192.1160  174.3990  141.2570 C   0  0  0  0  0  0  0  0  0  0  0  0
  196.1230  175.9770  141.8940 C   0  0  1  0  0  3  0  0  0  0  0  0
  192.3670  175.4650  142.2560 C   0  0  0  0  0  0  0  0  0  0  0  0
  191.5710  172.6440  139.0970 C   0  0  0  0  0  3  0  0  0  0  0  0
  190.5630  178.1670  144.0110 C   0  0  0  0  0  2  0  0  0  0  0  0
  192.8300  172.9180  139.4540 C   0  0  0  0  0  3  0  0  0  0  0  0
  191.5910  177.0470  144.0010 C   0  0  0  0  0  2  0  0  0  0  0  0
  188.6850  176.2640  143.0660 C   0  0  1  0  0  3  0  0  0  0  0  0
  190.4230  173.4030  139.7020 C   0  0  0  0  0  2  0  0  0  0  0  0
  189.6790  174.6210  141.7690 C   0  0  0  0  0  0  0  0  0  0  0  0
  187.4440  176.4530  145.1290 C   0  0  0  0  0  2  0  0  0  0  0  0
  187.5730  176.4800  146.6550 C   0  0  0  0  0  2  0  0  0  0  0  0
  184.6210  178.1930  146.3820 C   0  0  0  0  0  2  0  0  0  0  0  0
  186.4530  178.3620  147.6360 C   0  0  0  0  0  2  0  0  0  0  0  0
  186.3600  176.9380  147.3440 N   0  0  0  0  0  0  0  0  0  0  0  0
  185.2170  178.9750  147.3780 O   0  0  0  0  0  0  0  0  0  0  0  0
  185.2130  176.8110  146.4720 C   0  0  0  0  0  2  0  0  0  0  0  0
  1 26  1  6  0  0  0
  1 18  1  0  0  0  0
  1 27  1  0  0  0  0
  2 27  1  0  0  0  0
  2 14  2  0  0  0  0
  3 16  1  6  0  0  0
  3  7  1  0  0  0  0
  4 15  1  0  0  0  0
  4 18  2  0  0  0  0
  5 11  2  0  0  0  0
  7  6  1  0  0  0  0
  8 12  1  0  0  0  0
  8 16  1  0  0  0  0
  9 13  1  0  0  0  0
  9 25  1  0  0  0  0
 12 15  1  0  0  0  0
 13 24  1  0  0  0  0
 15  5  1  0  0  0  0
 17 10  1  0  0  0  0
 17 28  1  0  0  0  0
 18 20  1  0  0  0  0
 19  5  1  1  0  0  0
 19  3  1  0  0  0  0
 19  6  1  0  0  0  0
 20 11  1  0  0  0  0
 20 13  2  0  0  0  0
 21 23  2  0  0  0  0
 21 26  1  0  0  0  0
 22 10  1  0  0  0  0
 23  4  1  0  0  0  0
 24 22  1  0  0  0  0
 25 14  1  1  0  0  0
 25 17  1  0  0  0  0
 27  9  2  0  0  0  0
 28 29  1  0  0  0  0
 29 32  1  0  0  0  0
 30 34  1  0  0  0  0
 30 33  1  0  0  0  0
 32 31  1  0  0  0  0
 33 31  1  0  0  0  0
 34 32  1  0  0  0  0
M  END
>  <MODEL>
6

>  <REMARK>
 VINA RESULT:      -7.7      2.268      4.154
  Name = 
  3 active torsions:
  status: ('A' for Active; 'I' for Inactive)
    1  A    between atoms: N_17  and  C_28
    2  A    between atoms: C_28  and  C_29
    3  A    between atoms: C_29  and  N_32
                            x       y       z     vdW  Elec       q    Type
                         _______ _______ _______ _____ _____    ______ ____

>  <TORSDO>
F 3

$$$$
=
 OpenBabel11112417563D

 34 41  0  0  1  0  0  0  0  0999 V2000
  189.4620  174.2720  145.1990 C   0  0  0  0  0  0  0  0  0  0  0  0
  191.2620  172.5540  144.5530 N   0  0  0  0  0  0  0  0  0  0  0  0
  184.5700  178.2740  143.4470 C   0  0  2  0  0  3  0  0  0  0  0  0
  188.0310  176.2970  145.2850 C   0  0  0  0  0  0  0  0  0  0  0  0
  186.7010  177.0760  143.2950 C   0  0  0  0  0  0  0  0  0  0  0  0
  184.9530  177.6930  141.0960 S   0  0  0  0  0  0  0  0  0  0  0  0
  183.6700  178.3300  142.2350 C   0  0  0  0  0  2  0  0  0  0  0  0
  185.9890  179.4570  145.1310 C   0  0  0  0  0  2  0  0  0  0  0  0
  190.0780  173.5690  142.9010 C   0  0  0  0  0  0  0  0  0  0  0  0
  190.2520  172.5210  139.9050 C   0  0  0  0  0  2  0  0  0  0  0  0
  187.3200  176.1800  142.5210 C   0  0  0  0  0  3  0  0  0  0  0  0
  186.2820  178.0390  145.6530 C   0  0  0  0  0  2  0  0  0  0  0  0
  189.0080  174.4040  142.2950 C   0  0  0  0  0  0  0  0  0  0  0  0
  191.6940  171.8920  143.3300 C   0  0  0  0  0  3  0  0  0  0  0  0
  187.0550  177.1990  144.7090 N   0  0  0  0  0  0  0  0  0  0  0  0
  184.6940  179.5230  144.2990 C   0  0  0  0  0  2  0  0  0  0  0  0
  190.2920  171.8430  141.2080 N   0  0  0  0  0  0  0  0  0  0  0  0
  188.6070  175.3370  144.5320 C   0  0  0  0  0  0  0  0  0  0  0  0
  185.8230  178.1020  142.6440 C   0  0  1  0  0  3  0  0  0  0  0  0
  188.3170  175.2560  143.0810 C   0  0  1  0  0  3  0  0  0  0  0  0
  189.4490  175.7260  147.2120 C   0  0  0  0  0  3  0  0  0  0  0  0
  189.8480  174.0010  139.9640 C   0  0  0  0  0  2  0  0  0  0  0  0
  188.4080  176.4050  146.7180 C   0  0  0  0  0  3  0  0  0  0  0  0
  188.6310  174.2260  140.8460 C   0  0  0  0  0  2  0  0  0  0  0  0
  191.0320  172.6760  142.1740 C   0  0  1  0  0  3  0  0  0  0  0  0
  190.3130  174.8890  146.3110 C   0  0  0  0  0  2  0  0  0  0  0  0
  190.2970  173.5250  144.2010 C   0  0  0  0  0  0  0  0  0  0  0  0
  190.9990  170.5930  140.9530 C   0  0  0  0  0  2  0  0  0  0  0  0
  191.9530  170.7760  139.7690 C   0  0  0  0  0  2  0  0  0  0  0  0
  190.9040  169.5060  136.7670 C   0  0  0  0  0  2  0  0  0  0  0  0
  190.7210  168.9060  138.9040 C   0  0  0  0  0  2  0  0  0  0  0  0
  191.9840  169.6300  138.8510 N   0  0  0  0  0  0  0  0  0  0  0  0
  190.3370  168.5390  137.6050 O   0  0  0  0  0  0  0  0  0  0  0  0
  192.0930  170.0890  137.4840 C   0  0  0  0  0  2  0  0  0  0  0  0
  1 26  1  0  0  0  0
  3  7  1  6  0  0  0
  3 16  1  0  0  0  0
  4 23  1  0  0  0  0
  5 15  1  0  0  0  0
  6  7  1  0  0  0  0
  8 12  1  0  0  0  0
  9 27  1  0  0  0  0
 10 22  1  0  0  0  0
 10 17  1  0  0  0  0
 11  5  2  0  0  0  0
 13  9  2  0  0  0  0
 13 20  1  0  0  0  0
 14  2  2  0  0  0  0
 15  4  1  0  0  0  0
 15 12  1  0  0  0  0
 16  8  1  0  0  0  0
 17 25  1  0  0  0  0
 18  1  1  0  0  0  0
 18  4  2  0  0  0  0
 19  6  1  6  0  0  0
 19  5  1  0  0  0  0
 19  3  1  0  0  0  0
 20 11  1  6  0  0  0
 20 18  1  0  0  0  0
 22 24  1  0  0  0  0
 23 21  2  0  0  0  0
 24 13  1  0  0  0  0
 25  9  1  0  0  0  0
 25 14  1  1  0  0  0
 26 21  1  0  0  0  0
 27  2  1  0  0  0  0
 27  1  2  0  0  0  0
 28 17  1  0  0  0  0
 29 28  1  0  0  0  0
 30 34  1  0  0  0  0
 30 33  1  0  0  0  0
 32 31  1  0  0  0  0
 32 29  1  0  0  0  0
 33 31  1  0  0  0  0
 34 32  1  0  0  0  0
M  END
>  <MODEL>
7

>  <REMARK>
 VINA RESULT:      -7.7      4.627      8.504
  Name = 
  3 active torsions:
  status: ('A' for Active; 'I' for Inactive)
    1  A    between atoms: N_17  and  C_28
    2  A    between atoms: C_28  and  C_29
    3  A    between atoms: C_29  and  N_32
                            x       y       z     vdW  Elec       q    Type
                         _______ _______ _______ _____ _____    ______ ____

>  <TORSDO>
F 3

$$$$
=
 OpenBabel11112417563D

 34 41  0  0  1  0  0  0  0  0999 V2000
  188.2860  176.9380  146.7450 C   0  0  0  0  0  0  0  0  0  0  0  0
  190.6700  176.5270  147.6190 N   0  0  0  0  0  0  0  0  0  0  0  0
  184.1910  177.9110  141.7160 C   0  0  2  0  0  3  0  0  0  0  0  0
  186.3190  177.8680  145.5550 C   0  0  0  0  0  0  0  0  0  0  0  0
  186.2430  178.0540  143.0470 C   0  0  0  0  0  0  0  0  0  0  0  0
  186.0990  177.9070  140.1770 S   0  0  0  0  0  0  0  0  0  0  0  0
  184.2920  177.6260  140.2370 C   0  0  0  0  0  2  0  0  0  0  0  0
  183.5400  179.4560  143.5720 C   0  0  0  0  0  2  0  0  0  0  0  0
  190.3740  176.9490  145.4050 C   0  0  0  0  0  0  0  0  0  0  0  0
  192.7550  176.5180  143.3420 C   0  0  0  0  0  2  0  0  0  0  0  0
  187.5350  177.7230  142.9750 C   0  0  0  0  0  3  0  0  0  0  0  0
  184.1200  178.3600  144.4820 C   0  0  0  0  0  2  0  0  0  0  0  0
  189.6290  177.1540  144.1360 C   0  0  0  0  0  0  0  0  0  0  0  0
  191.9890  176.3460  147.0290 C   0  0  0  0  0  3  0  0  0  0  0  0
  185.5830  178.1770  144.3450 N   0  0  0  0  0  0  0  0  0  0  0  0
  183.1590  178.9240  142.1770 C   0  0  0  0  0  2  0  0  0  0  0  0
  192.3500  175.8150  144.5680 N   0  0  0  0  0  0  0  0  0  0  0  0
  187.6020  177.4580  145.4920 C   0  0  0  0  0  0  0  0  0  0  0  0
  185.5540  178.5270  141.8020 C   0  0  1  0  0  3  0  0  0  0  0  0
  188.3040  177.4090  144.1870 C   0  0  1  0  0  3  0  0  0  0  0  0
  186.3870  177.9120  148.0140 C   0  0  0  0  0  3  0  0  0  0  0  0
  191.7330  177.5390  142.8220 C   0  0  0  0  0  2  0  0  0  0  0  0
  185.6700  177.9880  146.8870 C   0  0  0  0  0  3  0  0  0  0  0  0
  190.3200  176.9780  142.8080 C   0  0  0  0  0  2  0  0  0  0  0  0
  191.8540  176.7920  145.5550 C   0  0  1  0  0  3  0  0  0  0  0  0
  187.8830  177.7750  147.9610 C   0  0  0  0  0  2  0  0  0  0  0  0
  189.7760  176.8730  146.5790 C   0  0  0  0  0  0  0  0  0  0  0  0
  193.5690  175.1720  145.0440 C   0  0  0  0  0  2  0  0  0  0  0  0
  194.6090  175.1470  143.9200 C   0  0  0  0  0  2  0  0  0  0  0  0
  196.8110  173.6960  146.1040 C   0  0  0  0  0  2  0  0  0  0  0  0
  196.9680  174.7680  144.1590 C   0  0  0  0  0  2  0  0  0  0  0  0
  195.6570  174.1340  144.1030 N   0  0  0  0  0  0  0  0  0  0  0  0
  197.7370  174.1660  145.1660 O   0  0  0  0  0  0  0  0  0  0  0  0
  195.5030  173.4860  145.3870 C   0  0  0  0  0  2  0  0  0  0  0  0
  1 26  1  0  0  0  0
  3  7  1  6  0  0  0
  3 19  1  0  0  0  0
  3 16  1  0  0  0  0
  4 23  1  0  0  0  0
  5 15  1  0  0  0  0
  6  7  1  0  0  0  0
  8 12  1  0  0  0  0
  9 25  1  0  0  0  0
  9 27  1  0  0  0  0
 10 17  1  0  0  0  0
 11  5  2  0  0  0  0
 13 20  1  0  0  0  0
 13  9  2  0  0  0  0
 14  2  2  0  0  0  0
 15 12  1  0  0  0  0
 15  4  1  0  0  0  0
 16  8  1  0  0  0  0
 17 28  1  0  0  0  0
 17 25  1  0  0  0  0
 18  4  2  0  0  0  0
 18  1  1  0  0  0  0
 19  6  1  6  0  0  0
 19  5  1  0  0  0  0
 20 11  1  1  0  0  0
 20 18  1  0  0  0  0
 22 10  1  0  0  0  0
 23 21  2  0  0  0  0
 24 22  1  0  0  0  0
 24 13  1  0  0  0  0
 25 14  1  1  0  0  0
 26 21  1  0  0  0  0
 27  1  2  0  0  0  0
 27  2  1  0  0  0  0
 29 32  1  0  0  0  0
 29 28  1  0  0  0  0
 31 33  1  0  0  0  0
 32 31  1  0  0  0  0
 32 34  1  0  0  0  0
 33 30  1  0  0  0  0
 34 30  1  0  0  0  0
M  END
>  <MODEL>
8

>  <REMARK>
 VINA RESULT:      -7.6      3.640      8.940
  Name = 
  3 active torsions:
  status: ('A' for Active; 'I' for Inactive)
    1  A    between atoms: N_17  and  C_28
    2  A    between atoms: C_28  and  C_29
    3  A    between atoms: C_29  and  N_32
                            x       y       z     vdW  Elec       q    Type
                         _______ _______ _______ _____ _____    ______ ____

>  <TORSDO>
F 3

$$$$
=
 OpenBabel11112417563D

 34 41  0  0  1  0  0  0  0  0999 V2000
  192.4370  176.3630  144.9230 C   0  0  0  0  0  0  0  0  0  0  0  0
  190.2160  177.5900  145.3390 N   0  0  0  0  0  0  0  0  0  0  0  0
  195.8830  171.8520  141.6390 C   0  0  2  0  0  3  0  0  0  0  0  0
  194.1540  174.6050  144.5880 C   0  0  0  0  0  0  0  0  0  0  0  0
  193.9660  172.8880  142.7590 C   0  0  0  0  0  0  0  0  0  0  0  0
  193.8500  171.1910  140.4390 S   0  0  0  0  0  0  0  0  0  0  0  0
  195.6750  171.1650  140.3110 C   0  0  0  0  0  2  0  0  0  0  0  0
  196.5180  171.7230  144.0540 C   0  0  0  0  0  2  0  0  0  0  0  0
  190.2450  175.8430  143.8870 C   0  0  0  0  0  0  0  0  0  0  0  0
  187.7460  175.2550  142.0100 C   0  0  0  0  0  2  0  0  0  0  0  0
  192.7220  173.2960  142.4920 C   0  0  0  0  0  3  0  0  0  0  0  0
  196.1650  173.2200  144.0690 C   0  0  0  0  0  2  0  0  0  0  0  0
  190.8340  174.7790  143.0320 C   0  0  0  0  0  0  0  0  0  0  0  0
  188.8780  177.5650  144.7650 C   0  0  0  0  0  3  0  0  0  0  0  0
  194.7280  173.5010  143.8450 N   0  0  0  0  0  0  0  0  0  0  0  0
  196.8240  171.2030  142.6360 C   0  0  0  0  0  2  0  0  0  0  0  0
  188.3480  176.4950  142.5190 N   0  0  0  0  0  0  0  0  0  0  0  0
  192.9300  175.0780  144.2790 C   0  0  0  0  0  0  0  0  0  0  0  0
  194.4700  171.6430  142.0920 C   0  0  1  0  0  3  0  0  0  0  0  0
  192.1170  174.4110  143.2340 C   0  0  1  0  0  3  0  0  0  0  0  0
  194.3190  176.1130  146.5250 C   0  0  0  0  0  3  0  0  0  0  0  0
  188.5830  173.9900  142.2520 C   0  0  0  0  0  2  0  0  0  0  0  0
  194.9090  175.2430  145.6990 C   0  0  0  0  0  3  0  0  0  0  0  0
  190.0450  174.1940  141.8890 C   0  0  0  0  0  2  0  0  0  0  0  0
  188.8160  176.2850  143.9020 C   0  0  1  0  0  3  0  0  0  0  0  0
  192.8520  176.4170  146.3950 C   0  0  0  0  0  2  0  0  0  0  0  0
  190.9570  176.5400  144.7510 C   0  0  0  0  0  0  0  0  0  0  0  0
  187.2680  177.4730  142.4810 C   0  0  0  0  0  2  0  0  0  0  0  0
  185.9410  176.7870  142.8210 C   0  0  0  0  0  2  0  0  0  0  0  0
  185.4520  179.7690  144.4300 C   0  0  0  0  0  2  0  0  0  0  0  0
  185.1920  177.6180  144.9440 C   0  0  0  0  0  2  0  0  0  0  0  0
  184.9790  177.6610  143.5030 N   0  0  0  0  0  0  0  0  0  0  0  0
  185.0800  178.9130  145.4730 O   0  0  0  0  0  0  0  0  0  0  0  0
  185.2100  179.0410  143.1350 C   0  0  0  0  0  2  0  0  0  0  0  0
  1 26  1  0  0  0  0
  3  7  1  6  0  0  0
  3 19  1  0  0  0  0
  3 16  1  0  0  0  0
  4 23  1  0  0  0  0
  5 15  1  0  0  0  0
  7  6  1  0  0  0  0
  8 12  1  0  0  0  0
  9 25  1  0  0  0  0
  9 27  1  0  0  0  0
 10 22  1  0  0  0  0
 10 17  1  0  0  0  0
 11  5  2  0  0  0  0
 13 20  1  0  0  0  0
 13  9  2  0  0  0  0
 14  2  2  0  0  0  0
 15 12  1  0  0  0  0
 15  4  1  0  0  0  0
 16  8  1  0  0  0  0
 17 25  1  0  0  0  0
 18  4  2  0  0  0  0
 18  1  1  0  0  0  0
 19  6  1  6  0  0  0
 19  5  1  0  0  0  0
 20 11  1  1  0  0  0
 20 18  1  0  0  0  0
 23 21  2  0  0  0  0
 24 22  1  0  0  0  0
 24 13  1  0  0  0  0
 25 14  1  1  0  0  0
 26 21  1  0  0  0  0
 27  1  2  0  0  0  0
 27  2  1  0  0  0  0
 28 17  1  0  0  0  0
 28 29  1  0  0  0  0
 29 32  1  0  0  0  0
 30 33  1  0  0  0  0
 31 33  1  0  0  0  0
 32 31  1  0  0  0  0
 34 32  1  0  0  0  0
 34 30  1  0  0  0  0
M  END
>  <MODEL>
9

>  <REMARK>
 VINA RESULT:      -7.6      1.865      2.032
  Name = 
  3 active torsions:
  status: ('A' for Active; 'I' for Inactive)
    1  A    between atoms: N_17  and  C_28
    2  A    between atoms: C_28  and  C_29
    3  A    between atoms: C_29  and  N_32
                            x       y       z     vdW  Elec       q    Type
                         _______ _______ _______ _____ _____    ______ ____

>  <TORSDO>
F 3

$$$$
