=
 OpenBabel11112416143D

 30 35  0  0  1  0  0  0  0  0999 V2000
  186.9450  177.1600  143.8810 C   0  0  1  0  0  3  0  0  0  0  0  0
  184.9990  178.0010  145.3130 C   0  0  0  0  0  0  0  0  0  0  0  0
  189.3970  177.0050  147.2160 C   0  0  0  0  0  3  0  0  0  0  0  0
  188.2330  176.3260  144.0530 C   0  0  1  0  0  3  0  0  0  0  0  0
  186.0230  176.4370  143.0990 O   0  0  0  0  0  0  0  0  0  0  0  0
  188.2690  175.5360  140.4780 O   0  0  0  0  0  0  0  0  0  0  0  0
  191.2580  176.0910  142.7940 C   0  0  1  0  0  3  0  0  0  0  0  0
  187.8760  175.9440  141.6030 C   0  0  0  0  0  0  0  0  0  0  0  0
  191.6000  176.5070  144.2370 C   0  0  2  0  0  3  0  0  0  0  0  0
  190.5820  176.4730  146.5800 C   0  0  0  0  0  0  0  0  0  0  0  0
  186.4670  176.4590  141.7520 C   0  0  2  0  0  3  0  0  0  0  0  0
  188.7640  175.9370  142.7380 N   0  0  0  0  0  0  0  0  0  0  0  0
  184.4870  178.4480  146.5340 C   0  0  0  0  0  3  0  0  0  0  0  0
  192.7010  175.5690  144.5910 C   0  0  0  0  0  2  0  0  0  0  0  0
  192.5020  175.3240  142.3500 C   0  0  0  0  0  2  0  0  0  0  0  0
  184.1740  177.9600  144.2380 F   0  0  0  0  0  0  0  0  0  0  0  0
  188.6090  177.3810  146.2160 C   0  0  0  0  0  0  0  0  0  0  0  0
  185.3110  178.5330  147.6580 C   0  0  0  0  0  3  0  0  0  0  0  0
  186.3490  177.6110  145.2100 C   0  0  0  0  0  0  0  0  0  0  0  0
  189.2240  177.1520  144.8680 C   0  0  1  0  0  3  0  0  0  0  0  0
  191.6000  176.0800  147.2090 O   0  0  0  0  0  0  0  0  0  0  0  0
  190.4620  176.4400  145.1580 N   0  0  0  0  0  0  0  0  0  0  0  0
  193.1700  174.9620  143.5700 N   0  0  0  0  0  2  0  0  0  0  0  0
  190.0100  173.9250  143.4740 C   0  0  0  0  0  1  0  0  0  0  0  0
  186.6590  178.1870  147.5630 C   0  0  0  0  0  3  0  0  0  0  0  0
  187.1890  177.7480  146.3420 C   0  0  0  0  0  0  0  0  0  0  0  0
  190.0190  175.1920  142.6220 C   0  0  2  0  0  3  0  0  0  0  0  0
  186.3040  177.8340  141.1130 C   0  0  0  0  0  2  0  0  0  0  0  0
  184.1090  178.3700  140.5470 C   0  0  0  0  0  1  0  0  0  0  0  0
  185.3280  177.7690  140.0400 N   0  0  0  0  0  2  0  0  0  0  0  0
  1  5  1  1  0  0  0
  1  4  1  0  0  0  0
  1 19  1  0  0  0  0
  2 13  1  0  0  0  0
  4 12  1  6  0  0  0
  4 20  1  0  0  0  0
  6  8  2  0  0  0  0
  7 15  1  1  0  0  0
  7  9  1  0  0  0  0
  8 11  1  0  0  0  0
  8 12  1  0  0  0  0
  9 14  1  1  0  0  0
  9 22  1  0  0  0  0
 10 21  2  0  0  0  0
 10  3  1  0  0  0  0
 11 28  1  1  0  0  0
 11  5  1  0  0  0  0
 13 18  2  0  0  0  0
 15 23  1  0  0  0  0
 16  2  1  0  0  0  0
 17 26  1  0  0  0  0
 17  3  2  0  0  0  0
 19  2  2  0  0  0  0
 19 26  1  0  0  0  0
 20 22  1  0  0  0  0
 20 17  1  1  0  0  0
 22 10  1  0  0  0  0
 23 14  1  0  0  0  0
 25 18  1  0  0  0  0
 26 25  2  0  0  0  0
 27 12  1  0  0  0  0
 27  7  1  0  0  0  0
 27 24  1  1  0  0  0
 30 29  1  0  0  0  0
 30 28  1  0  0  0  0
M  END
>  <MODEL>
1

>  <REMARK>
 VINA RESULT:      -8.9      0.000      0.000
  Name = 
  2 active torsions:
  status: ('A' for Active; 'I' for Inactive)
    1  A    between atoms: C_11  and  C_28
    2  A    between atoms: C_28  and  N_30
                            x       y       z     vdW  Elec       q    Type
                         _______ _______ _______ _____ _____    ______ ____

>  <TORSDO>
F 2

$$$$
=
 OpenBabel11112416143D

 30 35  0  0  1  0  0  0  0  0999 V2000
  189.3910  175.5750  143.8820 C   0  0  1  0  0  3  0  0  0  0  0  0
  191.4790  174.8480  145.1690 C   0  0  0  0  0  0  0  0  0  0  0  0
  187.9630  177.5620  147.2230 C   0  0  0  0  0  3  0  0  0  0  0  0
  188.3490  176.7130  143.9140 C   0  0  1  0  0  3  0  0  0  0  0  0
  190.1800  175.6980  142.7220 O   0  0  0  0  0  0  0  0  0  0  0  0
  187.5030  176.1200  140.4010 O   0  0  0  0  0  0  0  0  0  0  0  0
  185.1800  177.2380  143.2220 C   0  0  1  0  0  3  0  0  0  0  0  0
  188.1060  176.0660  141.5060 C   0  0  0  0  0  0  0  0  0  0  0  0
  185.1670  177.4810  144.7430 C   0  0  2  0  0  3  0  0  0  0  0  0
  186.7560  178.1100  146.6420 C   0  0  0  0  0  0  0  0  0  0  0  0
  189.4000  175.2990  141.6070 C   0  0  2  0  0  3  0  0  0  0  0  0
  187.5620  176.7150  142.6720 N   0  0  0  0  0  0  0  0  0  0  0  0
  192.2140  174.7640  146.3550 C   0  0  0  0  0  3  0  0  0  0  0  0
  184.3680  178.7320  144.8620 C   0  0  0  0  0  2  0  0  0  0  0  0
  184.0080  178.0800  142.7260 C   0  0  0  0  0  2  0  0  0  0  0  0
  191.9870  174.2800  144.0470 F   0  0  0  0  0  0  0  0  0  0  0  0
  188.3870  176.6580  146.3490 C   0  0  0  0  0  0  0  0  0  0  0  0
  191.7110  175.3110  147.5370 C   0  0  0  0  0  3  0  0  0  0  0  0
  190.2320  175.5050  145.1510 C   0  0  0  0  0  0  0  0  0  0  0  0
  187.4850  176.5270  145.1580 C   0  0  1  0  0  3  0  0  0  0  0  0
  186.0190  178.9520  147.2190 O   0  0  0  0  0  0  0  0  0  0  0  0
  186.5020  177.5870  145.3380 N   0  0  0  0  0  0  0  0  0  0  0  0
  183.7540  179.0220  143.7810 N   0  0  0  0  0  2  0  0  0  0  0  0
  186.9030  179.1040  142.7100 C   0  0  0  0  0  1  0  0  0  0  0  0
  190.4630  175.9310  147.5450 C   0  0  0  0  0  3  0  0  0  0  0  0
  189.7100  176.0120  146.3660 C   0  0  0  0  0  0  0  0  0  0  0  0
  186.4610  177.6610  142.4780 C   0  0  2  0  0  3  0  0  0  0  0  0
  189.1600  173.7930  141.5790 C   0  0  0  0  0  2  0  0  0  0  0  0
  188.3220  172.7760  139.6580 C   0  0  0  0  0  1  0  0  0  0  0  0
  189.5400  173.2550  140.2850 N   0  0  0  0  0  2  0  0  0  0  0  0
  1  5  1  6  0  0  0
  1  4  1  0  0  0  0
  1 19  1  0  0  0  0
  2 13  1  0  0  0  0
  4 12  1  6  0  0  0
  4 20  1  0  0  0  0
  6  8  2  0  0  0  0
  7 15  1  6  0  0  0
  7  9  1  0  0  0  0
  8 11  1  0  0  0  0
  8 12  1  0  0  0  0
  9 14  1  6  0  0  0
  9 22  1  0  0  0  0
 10 21  2  0  0  0  0
 10  3  1  0  0  0  0
 11 28  1  1  0  0  0
 11  5  1  0  0  0  0
 13 18  2  0  0  0  0
 15 23  1  0  0  0  0
 16  2  1  0  0  0  0
 17 26  1  0  0  0  0
 17  3  2  0  0  0  0
 18 25  1  0  0  0  0
 19  2  2  0  0  0  0
 19 26  1  0  0  0  0
 20 22  1  0  0  0  0
 20 17  1  1  0  0  0
 22 10  1  0  0  0  0
 23 14  1  0  0  0  0
 26 25  2  0  0  0  0
 27 12  1  0  0  0  0
 27 24  1  1  0  0  0
 27  7  1  0  0  0  0
 29 30  1  0  0  0  0
 30 28  1  0  0  0  0
M  END
>  <MODEL>
2

>  <REMARK>
 VINA RESULT:      -8.3      2.677      5.579
  Name = 
  2 active torsions:
  status: ('A' for Active; 'I' for Inactive)
    1  A    between atoms: C_11  and  C_28
    2  A    between atoms: C_28  and  N_30
                            x       y       z     vdW  Elec       q    Type
                         _______ _______ _______ _____ _____    ______ ____

>  <TORSDO>
F 2

$$$$
=
 OpenBabel11112416143D

 30 35  0  0  1  0  0  0  0  0999 V2000
  187.7190  176.0850  143.0950 C   0  0  1  0  0  3  0  0  0  0  0  0
  185.5770  177.4770  143.2280 C   0  0  0  0  0  0  0  0  0  0  0  0
  188.9490  177.5350  146.7740 C   0  0  0  0  0  3  0  0  0  0  0  0
  188.7430  175.4420  144.0540 C   0  0  1  0  0  3  0  0  0  0  0  0
  186.9890  175.0700  142.4460 O   0  0  0  0  0  0  0  0  0  0  0  0
  189.7750  173.0720  141.4610 O   0  0  0  0  0  0  0  0  0  0  0  0
  191.9370  174.6770  144.1730 C   0  0  1  0  0  3  0  0  0  0  0  0
  189.1170  173.9540  142.0740 C   0  0  0  0  0  0  0  0  0  0  0  0
  191.8690  175.7250  145.3010 C   0  0  2  0  0  3  0  0  0  0  0  0
  190.1770  176.7790  146.8980 C   0  0  0  0  0  0  0  0  0  0  0  0
  187.8290  174.4640  141.4780 C   0  0  2  0  0  3  0  0  0  0  0  0
  189.5930  174.4890  143.3240 N   0  0  0  0  0  0  0  0  0  0  0  0
  184.7840  178.4380  143.8610 C   0  0  0  0  0  3  0  0  0  0  0  0
  192.6460  175.0730  146.3920 C   0  0  0  0  0  2  0  0  0  0  0  0
  193.1220  173.8060  144.5790 C   0  0  0  0  0  2  0  0  0  0  0  0
  185.1340  176.9290  142.0700 F   0  0  0  0  0  0  0  0  0  0  0  0
  188.5820  177.3900  145.5070 C   0  0  0  0  0  0  0  0  0  0  0  0
  185.2180  179.0480  145.0400 C   0  0  0  0  0  3  0  0  0  0  0  0
  186.8150  177.0990  143.7860 C   0  0  0  0  0  0  0  0  0  0  0  0
  189.5450  176.5640  144.7090 C   0  0  1  0  0  3  0  0  0  0  0  0
  190.8730  176.7380  147.9460 O   0  0  0  0  0  0  0  0  0  0  0  0
  190.5050  176.0830  145.6950 N   0  0  0  0  0  0  0  0  0  0  0  0
  193.3100  174.0640  145.9800 N   0  0  0  0  0  2  0  0  0  0  0  0
  190.2190  173.0680  145.2560 C   0  0  0  0  0  1  0  0  0  0  0  0
  186.4570  178.7120  145.5840 C   0  0  0  0  0  3  0  0  0  0  0  0
  187.2680  177.7590  144.9540 C   0  0  0  0  0  0  0  0  0  0  0  0
  190.6900  173.7890  143.9950 C   0  0  2  0  0  3  0  0  0  0  0  0
  188.0890  175.3790  140.2850 C   0  0  0  0  0  2  0  0  0  0  0  0
  187.3610  175.3590  138.0730 C   0  0  0  0  0  1  0  0  0  0  0  0
  188.1060  174.6010  139.0590 N   0  0  0  0  0  2  0  0  0  0  0  0
  1  5  1  1  0  0  0
  1 19  1  0  0  0  0
  1  4  1  0  0  0  0
  2 19  2  0  0  0  0
  2 13  1  0  0  0  0
  3 10  1  0  0  0  0
  4 12  1  6  0  0  0
  4 20  1  0  0  0  0
  6  8  2  0  0  0  0
  7 15  1  1  0  0  0
  7  9  1  0  0  0  0
  8 12  1  0  0  0  0
  9 22  1  0  0  0  0
  9 14  1  1  0  0  0
 10 21  2  0  0  0  0
 11 28  1  6  0  0  0
 11  8  1  0  0  0  0
 11  5  1  0  0  0  0
 12 27  1  0  0  0  0
 13 18  2  0  0  0  0
 15 23  1  0  0  0  0
 16  2  1  0  0  0  0
 17  3  2  0  0  0  0
 18 25  1  0  0  0  0
 19 26  1  0  0  0  0
 20 17  1  1  0  0  0
 20 22  1  0  0  0  0
 22 10  1  0  0  0  0
 23 14  1  0  0  0  0
 26 17  1  0  0  0  0
 26 25  2  0  0  0  0
 27  7  1  0  0  0  0
 27 24  1  1  0  0  0
 29 30  1  0  0  0  0
 30 28  1  0  0  0  0
M  END
>  <MODEL>
3

>  <REMARK>
 VINA RESULT:      -7.6      1.843      2.280
  Name = 
  2 active torsions:
  status: ('A' for Active; 'I' for Inactive)
    1  A    between atoms: C_11  and  C_28
    2  A    between atoms: C_28  and  N_30
                            x       y       z     vdW  Elec       q    Type
                         _______ _______ _______ _____ _____    ______ ____

>  <TORSDO>
F 2

$$$$
=
 OpenBabel11112416143D

 30 35  0  0  1  0  0  0  0  0999 V2000
  187.9410  176.5170  144.1440 C   0  0  1  0  0  3  0  0  0  0  0  0
  186.3830  178.3220  143.2180 C   0  0  0  0  0  0  0  0  0  0  0  0
  188.4110  174.9090  140.3570 C   0  0  0  0  0  3  0  0  0  0  0  0
  189.0960  175.6200  143.6500 C   0  0  1  0  0  3  0  0  0  0  0  0
  188.4450  177.4590  145.0630 O   0  0  0  0  0  0  0  0  0  0  0  0
  190.2970  175.1730  147.0800 O   0  0  0  0  0  0  0  0  0  0  0  0
  190.3840  172.6500  144.2110 C   0  0  1  0  0  3  0  0  0  0  0  0
  189.6540  175.6180  146.0920 C   0  0  0  0  0  0  0  0  0  0  0  0
  189.9140  172.4680  142.7560 C   0  0  2  0  0  3  0  0  0  0  0  0
  189.3500  173.8600  140.6890 C   0  0  0  0  0  0  0  0  0  0  0  0
  188.7250  176.7890  146.2810 C   0  0  2  0  0  3  0  0  0  0  0  0
  189.7860  175.0060  144.7940 N   0  0  0  0  0  0  0  0  0  0  0  0
  185.6550  178.8830  142.1650 C   0  0  0  0  0  3  0  0  0  0  0  0
  191.0890  171.8110  142.1180 C   0  0  0  0  0  2  0  0  0  0  0  0
  191.5380  171.6570  144.3300 C   0  0  0  0  0  2  0  0  0  0  0  0
  186.3080  178.9020  144.4420 F   0  0  0  0  0  0  0  0  0  0  0  0
  187.9430  175.3350  141.5230 C   0  0  0  0  0  0  0  0  0  0  0  0
  185.6840  178.2980  140.8970 C   0  0  0  0  0  3  0  0  0  0  0  0
  187.1710  177.1740  143.0040 C   0  0  0  0  0  0  0  0  0  0  0  0
  188.5120  174.5860  142.6910 C   0  0  1  0  0  3  0  0  0  0  0  0
  189.9490  173.1570  139.8330 O   0  0  0  0  0  0  0  0  0  0  0  0
  189.5220  173.7170  142.1000 N   0  0  0  0  0  0  0  0  0  0  0  0
  191.9300  171.3800  142.9750 N   0  0  0  0  0  2  0  0  0  0  0  0
  191.9720  174.6290  143.6890 C   0  0  0  0  0  1  0  0  0  0  0  0
  186.4270  177.1390  140.6780 C   0  0  0  0  0  3  0  0  0  0  0  0
  187.1530  176.5610  141.7280 C   0  0  0  0  0  0  0  0  0  0  0  0
  190.8830  174.0570  144.5930 C   0  0  2  0  0  3  0  0  0  0  0  0
  187.4540  176.3820  147.0210 C   0  0  0  0  0  2  0  0  0  0  0  0
  185.2740  177.1840  146.8460 C   0  0  0  0  0  1  0  0  0  0  0  0
  186.6190  177.5480  147.2490 N   0  0  0  0  0  2  0  0  0  0  0  0
  1 19  1  6  0  0  0
  1  5  1  0  0  0  0
  2 16  1  0  0  0  0
  3 10  1  0  0  0  0
  3 17  2  0  0  0  0
  4  1  1  0  0  0  0
  4 12  1  1  0  0  0
  5 11  1  0  0  0  0
  7 15  1  6  0  0  0
  7 27  1  0  0  0  0
  8 11  1  0  0  0  0
  8  6  2  0  0  0  0
  9 14  1  6  0  0  0
  9  7  1  0  0  0  0
 10 22  1  0  0  0  0
 11 28  1  6  0  0  0
 12  8  1  0  0  0  0
 13  2  2  0  0  0  0
 14 23  1  0  0  0  0
 17 26  1  0  0  0  0
 18 13  1  0  0  0  0
 19  2  1  0  0  0  0
 20 17  1  6  0  0  0
 20  4  1  0  0  0  0
 21 10  2  0  0  0  0
 22 20  1  0  0  0  0
 22  9  1  0  0  0  0
 23 15  1  0  0  0  0
 25 18  2  0  0  0  0
 25 26  1  0  0  0  0
 26 19  2  0  0  0  0
 27 24  1  6  0  0  0
 27 12  1  0  0  0  0
 28 30  1  0  0  0  0
 29 30  1  0  0  0  0
M  END
>  <MODEL>
4

>  <REMARK>
 VINA RESULT:      -7.5      2.102      4.919
  Name = 
  2 active torsions:
  status: ('A' for Active; 'I' for Inactive)
    1  A    between atoms: C_11  and  C_28
    2  A    between atoms: C_28  and  N_30
                            x       y       z     vdW  Elec       q    Type
                         _______ _______ _______ _____ _____    ______ ____

>  <TORSDO>
F 2

$$$$
=
 OpenBabel11112416143D

 30 35  0  0  1  0  0  0  0  0999 V2000
  187.2260  176.5380  141.3230 C   0  0  1  0  0  3  0  0  0  0  0  0
  187.1530  175.8440  138.8620 C   0  0  0  0  0  0  0  0  0  0  0  0
  190.2080  173.7620  142.0690 C   0  0  0  0  0  3  0  0  0  0  0  0
  188.2310  176.5420  142.4950 C   0  0  1  0  0  3  0  0  0  0  0  0
  186.9650  177.8650  140.9300 O   0  0  0  0  0  0  0  0  0  0  0  0
  186.3400  179.1820  144.1860 O   0  0  0  0  0  0  0  0  0  0  0  0
  188.2680  176.2880  145.7710 C   0  0  1  0  0  3  0  0  0  0  0  0
  186.7320  178.3830  143.2950 C   0  0  0  0  0  0  0  0  0  0  0  0
  189.0510  175.0160  145.3950 C   0  0  2  0  0  3  0  0  0  0  0  0
  190.4280  174.0610  143.4670 C   0  0  0  0  0  0  0  0  0  0  0  0
  186.1370  178.4660  141.9120 C   0  0  2  0  0  3  0  0  0  0  0  0
  187.7290  177.3850  143.5900 N   0  0  0  0  0  0  0  0  0  0  0  0
  187.5550  175.0060  137.8180 C   0  0  0  0  0  3  0  0  0  0  0  0
  190.2060  175.0600  146.3330 C   0  0  0  0  0  2  0  0  0  0  0  0
  188.7950  176.6200  147.1650 C   0  0  0  0  0  2  0  0  0  0  0  0
  186.2460  176.8170  138.6020 F   0  0  0  0  0  0  0  0  0  0  0  0
  189.0750  174.3790  141.7590 C   0  0  0  0  0  0  0  0  0  0  0  0
  188.4650  173.9740  138.0520 C   0  0  0  0  0  3  0  0  0  0  0  0
  187.6790  175.6670  140.1570 C   0  0  0  0  0  0  0  0  0  0  0  0
  188.4610  175.0960  142.9240 C   0  0  1  0  0  3  0  0  0  0  0  0
  191.3760  173.5850  144.1460 O   0  0  0  0  0  0  0  0  0  0  0  0
  189.4500  174.9620  143.9860 N   0  0  0  0  0  0  0  0  0  0  0  0
  190.0410  175.9110  147.2700 N   0  0  0  0  0  2  0  0  0  0  0  0
  189.9200  177.9180  144.6190 C   0  0  0  0  0  1  0  0  0  0  0  0
  188.9660  173.7610  139.3350 C   0  0  0  0  0  3  0  0  0  0  0  0
  188.5630  174.5850  140.3940 C   0  0  0  0  0  0  0  0  0  0  0  0
  188.4680  177.5060  144.8490 C   0  0  2  0  0  3  0  0  0  0  0  0
  184.7140  177.9180  141.8820 C   0  0  0  0  0  2  0  0  0  0  0  0
  182.6420  178.2810  140.8810 C   0  0  0  0  0  1  0  0  0  0  0  0
  184.0710  178.2790  140.6310 N   0  0  0  0  0  2  0  0  0  0  0  0
  1 19  1  6  0  0  0
  1  4  1  0  0  0  0
  2 19  1  0  0  0  0
  3 10  1  0  0  0  0
  4 20  1  0  0  0  0
  4 12  1  1  0  0  0
  5  1  1  0  0  0  0
  5 11  1  0  0  0  0
  7 15  1  1  0  0  0
  8 12  1  0  0  0  0
  8  6  2  0  0  0  0
  9  7  1  0  0  0  0
  9 14  1  1  0  0  0
 10 22  1  0  0  0  0
 10 21  2  0  0  0  0
 11 28  1  1  0  0  0
 11  8  1  0  0  0  0
 12 27  1  0  0  0  0
 13 18  1  0  0  0  0
 13  2  2  0  0  0  0
 14 23  1  0  0  0  0
 15 23  1  0  0  0  0
 16  2  1  0  0  0  0
 17  3  2  0  0  0  0
 18 25  2  0  0  0  0
 19 26  2  0  0  0  0
 20 17  1  6  0  0  0
 20 22  1  0  0  0  0
 22  9  1  0  0  0  0
 25 26  1  0  0  0  0
 26 17  1  0  0  0  0
 27 24  1  6  0  0  0
 27  7  1  0  0  0  0
 30 29  1  0  0  0  0
 30 28  1  0  0  0  0
M  END
>  <MODEL>
5

>  <REMARK>
 VINA RESULT:      -7.4      2.503      5.147
  Name = 
  2 active torsions:
  status: ('A' for Active; 'I' for Inactive)
    1  A    between atoms: C_11  and  C_28
    2  A    between atoms: C_28  and  N_30
                            x       y       z     vdW  Elec       q    Type
                         _______ _______ _______ _____ _____    ______ ____

>  <TORSDO>
F 2

$$$$
=
 OpenBabel11112416143D

 30 35  0  0  1  0  0  0  0  0999 V2000
  190.5950  175.0520  144.0600 C   0  0  1  0  0  3  0  0  0  0  0  0
  193.1100  174.5880  144.0670 C   0  0  0  0  0  0  0  0  0  0  0  0
  190.9640  177.3780  147.4670 C   0  0  0  0  0  3  0  0  0  0  0  0
  189.6160  176.1380  144.5570 C   0  0  1  0  0  3  0  0  0  0  0  0
  190.6260  175.0640  142.6520 O   0  0  0  0  0  0  0  0  0  0  0  0
  187.0980  175.0690  142.1230 O   0  0  0  0  0  0  0  0  0  0  0  0
  186.5310  176.4280  145.6500 C   0  0  1  0  0  3  0  0  0  0  0  0
  188.1990  175.1830  142.7260 C   0  0  0  0  0  0  0  0  0  0  0  0
  187.3040  176.8600  146.9110 C   0  0  2  0  0  3  0  0  0  0  0  0
  189.5830  177.7930  147.5880 C   0  0  0  0  0  0  0  0  0  0  0  0
  189.4200  174.4930  142.1730 C   0  0  2  0  0  3  0  0  0  0  0  0
  188.2930  175.9480  143.9430 N   0  0  0  0  0  0  0  0  0  0  0  0
  194.3680  174.6870  144.6690 C   0  0  0  0  0  3  0  0  0  0  0  0
  186.5630  178.0790  147.3400 C   0  0  0  0  0  2  0  0  0  0  0  0
  185.1930  177.1470  145.8000 C   0  0  0  0  0  2  0  0  0  0  0  0
  193.0000  173.9060  142.9000 F   0  0  0  0  0  0  0  0  0  0  0  0
  190.9500  176.3910  146.5800 C   0  0  0  0  0  0  0  0  0  0  0  0
  194.5170  175.3550  145.8860 C   0  0  0  0  0  3  0  0  0  0  0  0
  191.9840  175.1810  144.6730 C   0  0  0  0  0  0  0  0  0  0  0  0
  189.5730  176.0710  146.0810 C   0  0  1  0  0  3  0  0  0  0  0  0
  189.1820  178.6670  148.4010 O   0  0  0  0  0  0  0  0  0  0  0  0
  188.7300  177.1000  146.6770 N   0  0  0  0  0  0  0  0  0  0  0  0
  185.4420  178.2020  146.7430 N   0  0  0  0  0  2  0  0  0  0  0  0
  187.5080  178.2910  144.1370 C   0  0  0  0  0  1  0  0  0  0  0  0
  193.4070  175.9140  146.5170 C   0  0  0  0  0  3  0  0  0  0  0  0
  192.1390  175.8130  145.9310 C   0  0  0  0  0  0  0  0  0  0  0  0
  187.1660  176.8120  144.2990 C   0  0  2  0  0  3  0  0  0  0  0  0
  189.3630  172.9860  142.4030 C   0  0  0  0  0  2  0  0  0  0  0  0
  190.8460  171.7320  141.1170 C   0  0  0  0  0  1  0  0  0  0  0  0
  189.5070  172.2870  141.1380 N   0  0  0  0  0  2  0  0  0  0  0  0
  1  5  1  6  0  0  0
  1  4  1  0  0  0  0
  1 19  1  0  0  0  0
  2 13  2  0  0  0  0
  2 19  1  0  0  0  0
  3 10  1  0  0  0  0
  4 12  1  6  0  0  0
  4 20  1  0  0  0  0
  6  8  2  0  0  0  0
  7 15  1  1  0  0  0
  7  9  1  0  0  0  0
  8 12  1  0  0  0  0
  9 14  1  6  0  0  0
 10 21  2  0  0  0  0
 11 28  1  1  0  0  0
 11  5  1  0  0  0  0
 11  8  1  0  0  0  0
 12 27  1  0  0  0  0
 13 18  1  0  0  0  0
 15 23  1  0  0  0  0
 16  2  1  0  0  0  0
 17  3  2  0  0  0  0
 18 25  2  0  0  0  0
 19 26  2  0  0  0  0
 20 17  1  1  0  0  0
 20 22  1  0  0  0  0
 22  9  1  0  0  0  0
 22 10  1  0  0  0  0
 23 14  1  0  0  0  0
 26 25  1  0  0  0  0
 26 17  1  0  0  0  0
 27 24  1  1  0  0  0
 27  7  1  0  0  0  0
 29 30  1  0  0  0  0
 30 28  1  0  0  0  0
M  END
>  <MODEL>
6

>  <REMARK>
 VINA RESULT:      -7.1      2.878      5.986
  Name = 
  2 active torsions:
  status: ('A' for Active; 'I' for Inactive)
    1  A    between atoms: C_11  and  C_28
    2  A    between atoms: C_28  and  N_30
                            x       y       z     vdW  Elec       q    Type
                         _______ _______ _______ _____ _____    ______ ____

>  <TORSDO>
F 2

$$$$
=
 OpenBabel11112416143D

 30 35  0  0  1  0  0  0  0  0999 V2000
  188.9810  175.1050  142.9530 C   0  0  1  0  0  3  0  0  0  0  0  0
  186.8220  176.3020  143.6220 C   0  0  0  0  0  0  0  0  0  0  0  0
  190.9470  176.7170  146.2220 C   0  0  0  0  0  3  0  0  0  0  0  0
  190.2650  174.5710  143.6240 C   0  0  1  0  0  3  0  0  0  0  0  0
  188.2080  174.0180  142.4980 O   0  0  0  0  0  0  0  0  0  0  0  0
  190.8320  172.2620  140.8390 O   0  0  0  0  0  0  0  0  0  0  0  0
  193.4440  174.0970  142.9410 C   0  0  1  0  0  3  0  0  0  0  0  0
  190.2700  173.0920  141.6020 C   0  0  0  0  0  0  0  0  0  0  0  0
  193.5630  175.1520  144.0580 C   0  0  2  0  0  3  0  0  0  0  0  0
  192.2310  176.0760  146.0320 C   0  0  0  0  0  0  0  0  0  0  0  0
  188.8340  173.4750  141.3480 C   0  0  2  0  0  3  0  0  0  0  0  0
  190.9900  173.6860  142.6990 N   0  0  0  0  0  0  0  0  0  0  0  0
  186.1260  177.1980  144.4390 C   0  0  0  0  0  3  0  0  0  0  0  0
  194.6410  174.5890  144.9180 C   0  0  0  0  0  2  0  0  0  0  0  0
  194.7670  173.3420  143.0340 C   0  0  0  0  0  2  0  0  0  0  0  0
  186.1570  175.6980  142.6060 F   0  0  0  0  0  0  0  0  0  0  0  0
  190.2930  176.5200  145.0850 C   0  0  0  0  0  0  0  0  0  0  0  0
  186.7820  177.8620  145.4770 C   0  0  0  0  0  3  0  0  0  0  0  0
  188.1880  176.0440  143.8530 C   0  0  0  0  0  0  0  0  0  0  0  0
  191.0980  175.7700  144.0670 C   0  0  1  0  0  3  0  0  0  0  0  0
  193.1660  176.1130  146.8750 O   0  0  0  0  0  0  0  0  0  0  0  0
  192.3120  175.3930  144.7800 N   0  0  0  0  0  0  0  0  0  0  0  0
  195.2720  173.6370  144.3470 N   0  0  0  0  0  2  0  0  0  0  0  0
  192.2010  172.3580  144.4060 C   0  0  0  0  0  1  0  0  0  0  0  0
  188.1420  177.6470  145.6950 C   0  0  0  0  0  3  0  0  0  0  0  0
  188.8550  176.7610  144.8770 C   0  0  0  0  0  0  0  0  0  0  0  0
  192.2780  173.0980  143.0720 C   0  0  2  0  0  3  0  0  0  0  0  0
  188.7060  174.3900  140.1340 C   0  0  0  0  0  2  0  0  0  0  0  0
  189.2690  173.7010  137.9810 C   0  0  0  0  0  1  0  0  0  0  0  0
  188.2300  173.6320  138.9910 N   0  0  0  0  0  2  0  0  0  0  0  0
  1  5  1  1  0  0  0
  1  4  1  0  0  0  0
  1 19  1  0  0  0  0
  2 19  2  0  0  0  0
  2 13  1  0  0  0  0
  4 12  1  6  0  0  0
  4 20  1  0  0  0  0
  6  8  2  0  0  0  0
  7 15  1  1  0  0  0
  7 27  1  0  0  0  0
  7  9  1  0  0  0  0
  8 12  1  0  0  0  0
  9 22  1  0  0  0  0
  9 14  1  1  0  0  0
 10  3  1  0  0  0  0
 10 21  2  0  0  0  0
 11 28  1  6  0  0  0
 11  8  1  0  0  0  0
 11  5  1  0  0  0  0
 12 27  1  0  0  0  0
 13 18  2  0  0  0  0
 15 23  1  0  0  0  0
 16  2  1  0  0  0  0
 17  3  2  0  0  0  0
 18 25  1  0  0  0  0
 19 26  1  0  0  0  0
 20 22  1  0  0  0  0
 20 17  1  1  0  0  0
 22 10  1  0  0  0  0
 23 14  1  0  0  0  0
 26 17  1  0  0  0  0
 26 25  2  0  0  0  0
 27 24  1  1  0  0  0
 29 30  1  0  0  0  0
 30 28  1  0  0  0  0
M  END
>  <MODEL>
7

>  <REMARK>
 VINA RESULT:      -7.0      2.247      3.258
  Name = 
  2 active torsions:
  status: ('A' for Active; 'I' for Inactive)
    1  A    between atoms: C_11  and  C_28
    2  A    between atoms: C_28  and  N_30
                            x       y       z     vdW  Elec       q    Type
                         _______ _______ _______ _____ _____    ______ ____

>  <TORSDO>
F 2

$$$$
=
 OpenBabel11112416143D

 30 35  0  0  1  0  0  0  0  0999 V2000
  189.9400  175.8620  144.3840 C   0  0  1  0  0  3  0  0  0  0  0  0
  191.4170  176.4760  146.3800 C   0  0  0  0  0  0  0  0  0  0  0  0
  192.9290  173.4370  142.8540 C   0  0  0  0  0  3  0  0  0  0  0  0
  189.7750  174.7020  143.3790 C   0  0  1  0  0  3  0  0  0  0  0  0
  188.8170  175.9040  145.2340 O   0  0  0  0  0  0  0  0  0  0  0  0
  186.3210  175.7070  142.6930 O   0  0  0  0  0  0  0  0  0  0  0  0
  188.8540  174.1870  140.2670 C   0  0  1  0  0  3  0  0  0  0  0  0
  187.4550  175.6370  143.2370 C   0  0  0  0  0  0  0  0  0  0  0  0
  190.3300  173.7550  140.1850 C   0  0  2  0  0  3  0  0  0  0  0  0
  192.2200  172.9360  141.6960 C   0  0  0  0  0  0  0  0  0  0  0  0
  187.7190  176.4190  144.4990 C   0  0  2  0  0  3  0  0  0  0  0  0
  188.5010  174.8340  142.6560 N   0  0  0  0  0  0  0  0  0  0  0  0
  192.6420  176.4300  147.0510 C   0  0  0  0  0  3  0  0  0  0  0  0
  190.2510  172.4790  139.4210 C   0  0  0  0  0  2  0  0  0  0  0  0
  188.1950  173.3830  139.1490 C   0  0  0  0  0  2  0  0  0  0  0  0
  190.4030  177.1920  146.9250 F   0  0  0  0  0  0  0  0  0  0  0  0
  192.1960  174.4540  143.2920 C   0  0  0  0  0  0  0  0  0  0  0  0
  193.7190  175.7270  146.5070 C   0  0  0  0  0  3  0  0  0  0  0  0
  191.2510  175.7940  145.1580 C   0  0  0  0  0  0  0  0  0  0  0  0
  190.9840  174.7090  142.4480 C   0  0  1  0  0  3  0  0  0  0  0  0
  192.6480  172.0100  140.9580 O   0  0  0  0  0  0  0  0  0  0  0  0
  190.9780  173.6100  141.4910 N   0  0  0  0  0  0  0  0  0  0  0  0
  189.1110  172.3110  138.8720 N   0  0  0  0  0  2  0  0  0  0  0  0
  188.2100  172.4430  142.0720 C   0  0  0  0  0  1  0  0  0  0  0  0
  193.5830  175.0790  145.2800 C   0  0  0  0  0  3  0  0  0  0  0  0
  192.3640  175.1270  144.5910 C   0  0  0  0  0  0  0  0  0  0  0  0
  188.1330  173.8920  141.5970 C   0  0  2  0  0  3  0  0  0  0  0  0
  187.8650  177.9100  144.2130 C   0  0  0  0  0  2  0  0  0  0  0  0
  185.9600  179.0890  143.5730 C   0  0  0  0  0  1  0  0  0  0  0  0
  186.7100  178.6270  144.7250 N   0  0  0  0  0  2  0  0  0  0  0  0
  1 19  1  1  0  0  0
  1  5  1  0  0  0  0
  2 16  1  0  0  0  0
  2 13  1  0  0  0  0
  3 17  2  0  0  0  0
  4 12  1  6  0  0  0
  4  1  1  0  0  0  0
  6  8  2  0  0  0  0
  7 15  1  6  0  0  0
  7 27  1  0  0  0  0
  8 11  1  0  0  0  0
  9 14  1  1  0  0  0
  9  7  1  0  0  0  0
  9 22  1  0  0  0  0
 10  3  1  0  0  0  0
 11 28  1  6  0  0  0
 11  5  1  0  0  0  0
 12  8  1  0  0  0  0
 17 26  1  0  0  0  0
 18 13  2  0  0  0  0
 19  2  2  0  0  0  0
 20 17  1  1  0  0  0
 20  4  1  0  0  0  0
 21 10  2  0  0  0  0
 22 10  1  0  0  0  0
 22 20  1  0  0  0  0
 23 15  1  0  0  0  0
 23 14  1  0  0  0  0
 25 18  1  0  0  0  0
 26 19  1  0  0  0  0
 26 25  2  0  0  0  0
 27 24  1  1  0  0  0
 27 12  1  0  0  0  0
 28 30  1  0  0  0  0
 29 30  1  0  0  0  0
M  END
>  <MODEL>
8

>  <REMARK>
 VINA RESULT:      -6.9      2.832      5.329
  Name = 
  2 active torsions:
  status: ('A' for Active; 'I' for Inactive)
    1  A    between atoms: C_11  and  C_28
    2  A    between atoms: C_28  and  N_30
                            x       y       z     vdW  Elec       q    Type
                         _______ _______ _______ _____ _____    ______ ____

>  <TORSDO>
F 2

$$$$
=
 OpenBabel11112416143D

 30 35  0  0  1  0  0  0  0  0999 V2000
  191.1950  174.9620  143.6150 C   0  0  1  0  0  3  0  0  0  0  0  0
  190.0990  175.1820  145.9150 C   0  0  0  0  0  0  0  0  0  0  0  0
  194.7720  176.4010  145.1250 C   0  0  0  0  0  3  0  0  0  0  0  0
  192.6050  174.7640  143.0180 C   0  0  1  0  0  3  0  0  0  0  0  0
  190.4270  173.8020  143.3880 O   0  0  0  0  0  0  0  0  0  0  0  0
  191.1730  173.4410  139.9180 O   0  0  0  0  0  0  0  0  0  0  0  0
  194.3290  175.5550  140.3350 C   0  0  1  0  0  3  0  0  0  0  0  0
  191.2690  173.8460  141.1080 C   0  0  0  0  0  0  0  0  0  0  0  0
  195.1300  176.3210  141.4050 C   0  0  2  0  0  3  0  0  0  0  0  0
  195.5680  176.2910  143.9210 C   0  0  0  0  0  0  0  0  0  0  0  0
  190.0700  173.7650  142.0160 C   0  0  2  0  0  3  0  0  0  0  0  0
  192.5070  174.3980  141.5960 N   0  0  0  0  0  0  0  0  0  0  0  0
  190.1380  175.5910  147.2510 C   0  0  0  0  0  3  0  0  0  0  0  0
  196.5380  175.9860  141.0530 C   0  0  0  0  0  2  0  0  0  0  0  0
  195.3670  175.2920  139.2470 C   0  0  0  0  0  2  0  0  0  0  0  0
  188.9590  174.6220  145.4400 F   0  0  0  0  0  0  0  0  0  0  0  0
  193.5170  176.2440  144.7240 C   0  0  0  0  0  0  0  0  0  0  0  0
  191.2830  176.1980  147.7710 C   0  0  0  0  0  3  0  0  0  0  0  0
  191.2240  175.3600  145.0860 C   0  0  0  0  0  0  0  0  0  0  0  0
  193.3960  176.0490  143.2420 C   0  0  1  0  0  3  0  0  0  0  0  0
  196.8150  176.4610  143.8860 O   0  0  0  0  0  0  0  0  0  0  0  0
  194.7750  175.9620  142.7800 N   0  0  0  0  0  0  0  0  0  0  0  0
  196.6380  175.4510  139.8980 N   0  0  0  0  0  2  0  0  0  0  0  0
  194.6830  173.2260  141.4140 C   0  0  0  0  0  1  0  0  0  0  0  0
  192.3910  176.4160  146.9530 C   0  0  0  0  0  3  0  0  0  0  0  0
  192.3620  176.0210  145.6090 C   0  0  0  0  0  0  0  0  0  0  0  0
  193.7090  174.2160  140.7800 C   0  0  2  0  0  3  0  0  0  0  0  0
  189.0270  174.8210  141.6620 C   0  0  0  0  0  2  0  0  0  0  0  0
  187.1430  175.8320  142.5860 C   0  0  0  0  0  1  0  0  0  0  0  0
  187.7890  174.5510  142.3710 N   0  0  0  0  0  2  0  0  0  0  0  0
  1  5  1  1  0  0  0
  1 19  1  0  0  0  0
  2 13  1  0  0  0  0
  4 12  1  6  0  0  0
  4 20  1  0  0  0  0
  4  1  1  0  0  0  0
  6  8  2  0  0  0  0
  7 15  1  6  0  0  0
  7 27  1  0  0  0  0
  7  9  1  0  0  0  0
  8 12  1  0  0  0  0
  8 11  1  0  0  0  0
  9 14  1  6  0  0  0
  9 22  1  0  0  0  0
 10  3  1  0  0  0  0
 11 28  1  6  0  0  0
 11  5  1  0  0  0  0
 13 18  2  0  0  0  0
 15 23  1  0  0  0  0
 16  2  1  0  0  0  0
 17  3  2  0  0  0  0
 17 26  1  0  0  0  0
 19 26  1  0  0  0  0
 19  2  2  0  0  0  0
 20 17  1  1  0  0  0
 21 10  2  0  0  0  0
 22 20  1  0  0  0  0
 22 10  1  0  0  0  0
 23 14  1  0  0  0  0
 25 18  1  0  0  0  0
 26 25  2  0  0  0  0
 27 24  1  1  0  0  0
 27 12  1  0  0  0  0
 28 30  1  0  0  0  0
 30 29  1  0  0  0  0
M  END
>  <MODEL>
9

>  <REMARK>
 VINA RESULT:      -6.9      3.313      5.079
  Name = 
  2 active torsions:
  status: ('A' for Active; 'I' for Inactive)
    1  A    between atoms: C_11  and  C_28
    2  A    between atoms: C_28  and  N_30
                            x       y       z     vdW  Elec       q    Type
                         _______ _______ _______ _____ _____    ______ ____

>  <TORSDO>
F 2

$$$$
