=
 OpenBabel11112416593D

 31 35  0  0  0  0  0  0  0  0999 V2000
  184.9180  178.1290  146.3820 C   0  0  0  0  0  0  0  0  0  0  0  0
  187.4010  177.0330  143.7810 C   0  0  0  0  0  0  0  0  0  0  0  0
  186.7760  177.2410  142.5190 C   0  0  0  0  0  0  0  0  0  0  0  0
  191.0550  175.6830  147.3230 O   0  0  0  0  0  0  0  0  0  0  0  0
  191.5130  175.4570  146.1700 C   0  0  0  0  0  0  0  0  0  0  0  0
  184.9310  177.9390  141.1960 C   0  0  0  0  0  0  0  0  0  0  0  0
  186.7860  177.3260  145.0310 C   0  0  0  0  0  0  0  0  0  0  0  0
  185.6400  177.8790  147.5480 C   0  0  0  0  0  3  0  0  0  0  0  0
  185.5160  177.7460  142.4070 N   0  0  0  0  0  0  0  0  0  0  0  0
  189.3830  176.2760  145.0080 C   0  0  0  0  0  0  0  0  0  0  0  0
  183.6350  178.6510  146.4580 O   0  0  0  0  0  1  0  0  0  0  0  0
  188.7330  176.4110  141.3980 N   0  0  0  0  0  0  0  0  0  0  0  0
  183.6140  178.4690  141.1220 N   0  0  0  0  0  1  0  0  0  0  0  0
  188.7610  176.5690  146.1780 N   0  0  0  0  0  0  0  0  0  0  0  0
  188.7190  176.5010  143.7910 C   0  0  0  0  0  0  0  0  0  0  0  0
  190.7160  175.7380  145.0100 N   0  0  0  0  0  2  0  0  0  0  0  0
  185.4870  177.8550  145.1360 C   0  0  0  0  0  3  0  0  0  0  0  0
  185.6020  177.6280  140.0580 N   0  0  0  0  0  0  0  0  0  0  0  0
  187.5050  177.0780  146.2260 C   0  0  0  0  0  0  0  0  0  0  0  0
  186.9310  177.3540  147.4700 C   0  0  0  0  0  3  0  0  0  0  0  0
  189.3580  176.2010  142.5820 C   0  0  0  0  0  3  0  0  0  0  0  0
  187.4780  176.9160  141.3400 C   0  0  0  0  0  0  0  0  0  0  0  0
  186.8600  177.1210  140.1090 C   0  0  0  0  0  3  0  0  0  0  0  0
  195.4210  173.7560  145.6420 C   0  0  0  0  0  0  0  0  0  0  0  0
  193.0130  173.5860  145.5260 C   0  0  0  0  0  3  0  0  0  0  0  0
  193.9710  176.9480  146.7660 O   0  0  0  0  0  1  0  0  0  0  0  0
  196.6460  173.2050  145.4700 F   0  0  0  0  0  0  0  0  0  0  0  0
  194.2750  173.0170  145.3480 C   0  0  0  0  0  3  0  0  0  0  0  0
  194.0430  175.6430  146.2950 C   0  0  0  0  0  0  0  0  0  0  0  0
  192.8760  174.9010  145.9990 C   0  0  0  0  0  0  0  0  0  0  0  0
  195.3030  175.0650  146.1140 C   0  0  0  0  0  3  0  0  0  0  0  0
  1 11  1  0  0  0  0
  1  8  1  0  0  0  0
  2 15  1  0  0  0  0
  2  7  1  0  0  0  0
  3  2  2  0  0  0  0
  5  4  2  0  0  0  0
  6  9  2  0  0  0  0
  7 17  1  0  0  0  0
  7 19  2  0  0  0  0
  9  3  1  0  0  0  0
 10 16  1  0  0  0  0
 10 14  2  0  0  0  0
 12 21  1  0  0  0  0
 13  6  1  0  0  0  0
 14 19  1  0  0  0  0
 15 10  1  0  0  0  0
 16  5  1  0  0  0  0
 17  1  2  0  0  0  0
 18 23  2  0  0  0  0
 18  6  1  0  0  0  0
 19 20  1  0  0  0  0
 20  8  2  0  0  0  0
 21 15  2  0  0  0  0
 22 12  2  0  0  0  0
 22  3  1  0  0  0  0
 23 22  1  0  0  0  0
 24 31  1  0  0  0  0
 25 30  2  0  0  0  0
 27 24  1  0  0  0  0
 28 25  1  0  0  0  0
 28 24  2  0  0  0  0
 29 26  1  0  0  0  0
 30  5  1  0  0  0  0
 30 29  1  0  0  0  0
 31 29  2  0  0  0  0
M  END
>  <MODEL>
1

>  <REMARK>
 VINA RESULT:      -9.6      0.000      0.000
  Name = 
  1 active torsions:
  status: ('A' for Active; 'I' for Inactive)
    1  A    between atoms: C_5  and  C_30
                            x       y       z     vdW  Elec       q    Type
                         _______ _______ _______ _____ _____    ______ ____

>  <TORSDO>
F 1

$$$$
=
 OpenBabel11112416593D

 31 35  0  0  0  0  0  0  0  0999 V2000
  184.9900  178.0420  146.7720 C   0  0  0  0  0  0  0  0  0  0  0  0
  186.9290  177.6800  143.5720 C   0  0  0  0  0  0  0  0  0  0  0  0
  185.9940  177.8640  142.5150 C   0  0  0  0  0  0  0  0  0  0  0  0
  191.5010  176.7910  146.0260 O   0  0  0  0  0  0  0  0  0  0  0  0
  191.7020  176.7570  144.7810 C   0  0  0  0  0  0  0  0  0  0  0  0
  183.7930  178.2910  141.7290 C   0  0  0  0  0  0  0  0  0  0  0  0
  186.5900  177.7400  144.9530 C   0  0  0  0  0  0  0  0  0  0  0  0
  186.0020  177.8430  147.7100 C   0  0  0  0  0  3  0  0  0  0  0  0
  184.6760  178.1170  142.7470 N   0  0  0  0  0  0  0  0  0  0  0  0
  189.2470  177.2310  144.2280 C   0  0  0  0  0  0  0  0  0  0  0  0
  183.6910  178.2910  147.1930 O   0  0  0  0  0  1  0  0  0  0  0  0
  187.7390  177.5340  140.8950 N   0  0  0  0  0  0  0  0  0  0  0  0
  182.4250  178.5530  142.0130 N   0  0  0  0  0  1  0  0  0  0  0  0
  188.8820  177.2970  145.5340 N   0  0  0  0  0  0  0  0  0  0  0  0
  188.2830  177.4200  143.2260 C   0  0  0  0  0  0  0  0  0  0  0  0
  190.6140  176.9690  143.8700 N   0  0  0  0  0  2  0  0  0  0  0  0
  185.2820  177.9910  145.4070 C   0  0  0  0  0  3  0  0  0  0  0  0
  184.2160  178.2140  140.4410 N   0  0  0  0  0  0  0  0  0  0  0  0
  187.6060  177.5410  145.9200 C   0  0  0  0  0  0  0  0  0  0  0  0
  187.3080  177.5930  147.2840 C   0  0  0  0  0  3  0  0  0  0  0  0
  188.6550  177.3540  141.8780 C   0  0  0  0  0  3  0  0  0  0  0  0
  186.4380  177.7840  141.1790 C   0  0  0  0  0  0  0  0  0  0  0  0
  185.5180  177.9640  140.1500 C   0  0  0  0  0  3  0  0  0  0  0  0
  195.5940  175.9760  143.1420 C   0  0  0  0  0  0  0  0  0  0  0  0
  193.1870  176.0310  142.9280 C   0  0  0  0  0  3  0  0  0  0  0  0
  194.1680  177.1610  146.3230 O   0  0  0  0  0  1  0  0  0  0  0  0
  196.8140  175.7250  142.6100 F   0  0  0  0  0  0  0  0  0  0  0  0
  194.4440  175.7720  142.3790 C   0  0  0  0  0  3  0  0  0  0  0  0
  194.2310  176.7010  145.0130 C   0  0  0  0  0  0  0  0  0  0  0  0
  193.0590  176.4970  144.2460 C   0  0  0  0  0  0  0  0  0  0  0  0
  195.4860  176.4390  144.4550 C   0  0  0  0  0  3  0  0  0  0  0  0
  1 11  1  0  0  0  0
  1  8  1  0  0  0  0
  2  7  1  0  0  0  0
  3  9  1  0  0  0  0
  3  2  2  0  0  0  0
  5  4  2  0  0  0  0
  6 13  1  0  0  0  0
  6  9  2  0  0  0  0
  7 17  1  0  0  0  0
  7 19  2  0  0  0  0
 10 14  2  0  0  0  0
 12 22  2  0  0  0  0
 12 21  1  0  0  0  0
 14 19  1  0  0  0  0
 15  2  1  0  0  0  0
 15 10  1  0  0  0  0
 16 10  1  0  0  0  0
 16  5  1  0  0  0  0
 17  1  2  0  0  0  0
 18  6  1  0  0  0  0
 19 20  1  0  0  0  0
 20  8  2  0  0  0  0
 21 15  2  0  0  0  0
 22  3  1  0  0  0  0
 23 18  2  0  0  0  0
 23 22  1  0  0  0  0
 24 31  1  0  0  0  0
 25 30  2  0  0  0  0
 27 24  1  0  0  0  0
 28 25  1  0  0  0  0
 28 24  2  0  0  0  0
 29 26  1  0  0  0  0
 30  5  1  0  0  0  0
 30 29  1  0  0  0  0
 31 29  2  0  0  0  0
M  END
>  <MODEL>
2

>  <REMARK>
 VINA RESULT:      -9.3      1.736      1.813
  Name = 
  1 active torsions:
  status: ('A' for Active; 'I' for Inactive)
    1  A    between atoms: C_5  and  C_30
                            x       y       z     vdW  Elec       q    Type
                         _______ _______ _______ _____ _____    ______ ____

>  <TORSDO>
F 1

$$$$
=
 OpenBabel11112416593D

 31 35  0  0  0  0  0  0  0  0999 V2000
  185.7320  177.6170  141.3430 C   0  0  0  0  0  0  0  0  0  0  0  0
  187.6260  177.3370  144.5780 C   0  0  0  0  0  0  0  0  0  0  0  0
  186.7380  177.7760  145.5990 C   0  0  0  0  0  0  0  0  0  0  0  0
  191.9910  175.5040  142.2760 O   0  0  0  0  0  0  0  0  0  0  0  0
  192.1970  175.5820  143.5180 C   0  0  0  0  0  0  0  0  0  0  0  0
  184.6330  178.6120  146.3160 C   0  0  0  0  0  0  0  0  0  0  0  0
  187.2860  177.2890  143.1960 C   0  0  0  0  0  0  0  0  0  0  0  0
  186.6940  177.1660  140.4410 C   0  0  0  0  0  3  0  0  0  0  0  0
  185.4700  178.1940  145.3300 N   0  0  0  0  0  0  0  0  0  0  0  0
  189.8450  176.4770  143.9940 C   0  0  0  0  0  0  0  0  0  0  0  0
  184.4800  178.0060  140.8860 O   0  0  0  0  0  1  0  0  0  0  0  0
  188.4300  177.3760  147.2600 N   0  0  0  0  0  0  0  0  0  0  0  0
  183.3160  179.0410  145.9940 N   0  0  0  0  0  1  0  0  0  0  0  0
  189.4810  176.4470  142.6870 N   0  0  0  0  0  0  0  0  0  0  0  0
  188.9290  176.9200  144.9620 C   0  0  0  0  0  0  0  0  0  0  0  0
  191.1610  176.0570  144.3910 N   0  0  0  0  0  2  0  0  0  0  0  0
  186.0260  177.6780  142.7070 C   0  0  0  0  0  3  0  0  0  0  0  0
  185.0520  178.6190  147.6070 N   0  0  0  0  0  0  0  0  0  0  0  0
  188.2530  176.8330  142.2660 C   0  0  0  0  0  0  0  0  0  0  0  0
  187.9520  176.7740  140.9020 C   0  0  0  0  0  3  0  0  0  0  0  0
  189.3000  176.9510  146.3110 C   0  0  0  0  0  3  0  0  0  0  0  0
  187.1780  177.7830  146.9400 C   0  0  0  0  0  0  0  0  0  0  0  0
  186.3050  178.2140  147.9350 C   0  0  0  0  0  3  0  0  0  0  0  0
  196.0310  174.5210  145.1360 C   0  0  0  0  0  0  0  0  0  0  0  0
  194.6050  176.0410  143.9110 C   0  0  0  0  0  3  0  0  0  0  0  0
  192.6390  173.0940  145.0130 O   0  0  0  0  0  1  0  0  0  0  0  0
  197.2460  174.2010  145.6400 F   0  0  0  0  0  0  0  0  0  0  0  0
  195.8590  175.7120  144.4310 C   0  0  0  0  0  3  0  0  0  0  0  0
  193.6890  173.9800  144.8040 C   0  0  0  0  0  0  0  0  0  0  0  0
  193.5050  175.1860  144.0890 C   0  0  0  0  0  0  0  0  0  0  0  0
  194.9480  173.6580  145.3210 C   0  0  0  0  0  3  0  0  0  0  0  0
  1 17  1  0  0  0  0
  2 15  2  0  0  0  0
  2  3  1  0  0  0  0
  3 22  2  0  0  0  0
  4  5  2  0  0  0  0
  5 30  1  0  0  0  0
  5 16  1  0  0  0  0
  6 18  1  0  0  0  0
  7  2  1  0  0  0  0
  8 20  1  0  0  0  0
  8  1  2  0  0  0  0
  9  3  1  0  0  0  0
  9  6  2  0  0  0  0
 10 16  1  0  0  0  0
 10 15  1  0  0  0  0
 11  1  1  0  0  0  0
 13  6  1  0  0  0  0
 14 10  2  0  0  0  0
 15 21  1  0  0  0  0
 17  7  2  0  0  0  0
 18 23  2  0  0  0  0
 19 14  1  0  0  0  0
 19  7  1  0  0  0  0
 20 19  2  0  0  0  0
 21 12  2  0  0  0  0
 22 12  1  0  0  0  0
 22 23  1  0  0  0  0
 24 31  1  0  0  0  0
 24 27  1  0  0  0  0
 25 30  2  0  0  0  0
 25 28  1  0  0  0  0
 28 24  2  0  0  0  0
 29 26  1  0  0  0  0
 29 31  2  0  0  0  0
 30 29  1  0  0  0  0
M  END
>  <MODEL>
3

>  <REMARK>
 VINA RESULT:      -8.5      2.284      4.253
  Name = 
  1 active torsions:
  status: ('A' for Active; 'I' for Inactive)
    1  A    between atoms: C_5  and  C_30
                            x       y       z     vdW  Elec       q    Type
                         _______ _______ _______ _____ _____    ______ ____

>  <TORSDO>
F 1

$$$$
=
 OpenBabel11112416593D

 31 35  0  0  0  0  0  0  0  0999 V2000
  195.0380  175.0090  145.4230 C   0  0  0  0  0  0  0  0  0  0  0  0
  191.9090  174.7710  143.3540 C   0  0  0  0  0  0  0  0  0  0  0  0
  192.2420  173.9840  142.2160 C   0  0  0  0  0  0  0  0  0  0  0  0
  189.0550  177.6780  146.6890 O   0  0  0  0  0  0  0  0  0  0  0  0
  188.3180  177.3370  145.7240 C   0  0  0  0  0  0  0  0  0  0  0  0
  193.7940  172.7220  140.9350 C   0  0  0  0  0  0  0  0  0  0  0  0
  192.8280  175.0980  144.3910 C   0  0  0  0  0  0  0  0  0  0  0  0
  194.5850  175.7890  146.4860 C   0  0  0  0  0  3  0  0  0  0  0  0
  193.4900  173.4720  142.0260 N   0  0  0  0  0  0  0  0  0  0  0  0
  190.1960  176.0420  144.5610 C   0  0  0  0  0  0  0  0  0  0  0  0
  196.3550  174.5710  145.3950 O   0  0  0  0  0  1  0  0  0  0  0  0
  189.9960  174.2070  141.3880 N   0  0  0  0  0  0  0  0  0  0  0  0
  195.1080  172.2050  140.7730 N   0  0  0  0  0  1  0  0  0  0  0  0
  191.1040  176.3300  145.5290 N   0  0  0  0  0  0  0  0  0  0  0  0
  190.5790  175.2600  143.4590 C   0  0  0  0  0  0  0  0  0  0  0  0
  188.8490  176.5320  144.6610 N   0  0  0  0  0  2  0  0  0  0  0  0
  194.1670  174.6670  144.3860 C   0  0  0  0  0  3  0  0  0  0  0  0
  192.8450  172.4650  139.9990 N   0  0  0  0  0  0  0  0  0  0  0  0
  192.3850  175.8900  145.4780 C   0  0  0  0  0  0  0  0  0  0  0  0
  193.2610  176.2290  146.5130 C   0  0  0  0  0  3  0  0  0  0  0  0
  189.6460  174.9600  142.4600 C   0  0  0  0  0  3  0  0  0  0  0  0
  191.2520  173.7200  141.2460 C   0  0  0  0  0  0  0  0  0  0  0  0
  191.5840  172.9500  140.1350 C   0  0  0  0  0  3  0  0  0  0  0  0
  184.2270  178.6250  145.5030 C   0  0  0  0  0  0  0  0  0  0  0  0
  186.4940  178.6450  144.6630 C   0  0  0  0  0  3  0  0  0  0  0  0
  186.2800  176.4380  147.6370 O   0  0  0  0  0  1  0  0  0  0  0  0
  182.9410  179.0410  145.4190 F   0  0  0  0  0  0  0  0  0  0  0  0
  185.1680  179.0740  144.5760 C   0  0  0  0  0  3  0  0  0  0  0  0
  185.9390  177.3130  146.6130 C   0  0  0  0  0  0  0  0  0  0  0  0
  186.8990  177.7620  145.6760 C   0  0  0  0  0  0  0  0  0  0  0  0
  184.6140  177.7470  146.5180 C   0  0  0  0  0  3  0  0  0  0  0  0
  1  8  1  0  0  0  0
  2 15  1  0  0  0  0
  2  7  1  0  0  0  0
  3  2  2  0  0  0  0
  5  4  2  0  0  0  0
  6  9  2  0  0  0  0
  7 19  2  0  0  0  0
  8 20  2  0  0  0  0
  9  3  1  0  0  0  0
 10 16  1  0  0  0  0
 10 14  2  0  0  0  0
 11  1  1  0  0  0  0
 12 21  1  0  0  0  0
 13  6  1  0  0  0  0
 15 10  1  0  0  0  0
 16  5  1  0  0  0  0
 17  7  1  0  0  0  0
 17  1  2  0  0  0  0
 18 23  2  0  0  0  0
 18  6  1  0  0  0  0
 19 14  1  0  0  0  0
 19 20  1  0  0  0  0
 21 15  2  0  0  0  0
 22 12  2  0  0  0  0
 22  3  1  0  0  0  0
 23 22  1  0  0  0  0
 24 31  1  0  0  0  0
 25 30  2  0  0  0  0
 27 24  1  0  0  0  0
 28 25  1  0  0  0  0
 28 24  2  0  0  0  0
 29 26  1  0  0  0  0
 30  5  1  0  0  0  0
 30 29  1  0  0  0  0
 31 29  2  0  0  0  0
M  END
>  <MODEL>
4

>  <REMARK>
 VINA RESULT:      -8.5      3.885      8.120
  Name = 
  1 active torsions:
  status: ('A' for Active; 'I' for Inactive)
    1  A    between atoms: C_5  and  C_30
                            x       y       z     vdW  Elec       q    Type
                         _______ _______ _______ _____ _____    ______ ____

>  <TORSDO>
F 1

$$$$
=
 OpenBabel11112416593D

 31 35  0  0  0  0  0  0  0  0999 V2000
  195.1750  174.0970  145.4520 C   0  0  0  0  0  0  0  0  0  0  0  0
  191.7210  173.3220  144.1850 C   0  0  0  0  0  0  0  0  0  0  0  0
  191.8260  172.1010  143.4610 C   0  0  0  0  0  0  0  0  0  0  0  0
  189.5800  177.6250  146.3330 O   0  0  0  0  0  0  0  0  0  0  0  0
  188.6740  176.9850  145.7330 C   0  0  0  0  0  0  0  0  0  0  0  0
  193.0930  170.2720  142.6300 C   0  0  0  0  0  0  0  0  0  0  0  0
  192.8180  173.9610  144.8290 C   0  0  0  0  0  0  0  0  0  0  0  0
  194.9380  175.2920  146.1300 C   0  0  0  0  0  3  0  0  0  0  0  0
  193.0070  171.4370  143.3240 N   0  0  0  0  0  0  0  0  0  0  0  0
  190.2830  175.1440  144.9720 C   0  0  0  0  0  0  0  0  0  0  0  0
  196.4540  173.5600  145.4170 O   0  0  0  0  0  1  0  0  0  0  0  0
  189.4740  172.1760  142.9680 N   0  0  0  0  0  0  0  0  0  0  0  0
  194.3450  169.6080  142.5100 N   0  0  0  0  0  1  0  0  0  0  0  0
  191.3550  175.7200  145.5720 N   0  0  0  0  0  0  0  0  0  0  0  0
  190.4430  173.9380  144.2700 C   0  0  0  0  0  0  0  0  0  0  0  0
  188.9870  175.7600  145.0530 N   0  0  0  0  0  2  0  0  0  0  0  0
  194.1240  173.4390  144.8080 C   0  0  0  0  0  3  0  0  0  0  0  0
  191.9860  169.7410  142.0510 N   0  0  0  0  0  0  0  0  0  0  0  0
  192.5950  175.1760  145.5220 C   0  0  0  0  0  0  0  0  0  0  0  0
  193.6500  175.8300  146.1650 C   0  0  0  0  0  3  0  0  0  0  0  0
  189.3400  173.3390  143.6500 C   0  0  0  0  0  3  0  0  0  0  0  0
  190.6730  171.5540  142.8610 C   0  0  0  0  0  0  0  0  0  0  0  0
  190.7820  170.3590  142.1540 C   0  0  0  0  0  3  0  0  0  0  0  0
  184.6240  178.4120  145.7980 C   0  0  0  0  0  0  0  0  0  0  0  0
  186.5060  177.3520  146.8850 C   0  0  0  0  0  3  0  0  0  0  0  0
  187.4190  178.2610  143.4060 O   0  0  0  0  0  1  0  0  0  0  0  0
  183.3450  178.8560  145.8350 F   0  0  0  0  0  0  0  0  0  0  0  0
  185.1870  177.8110  146.9240 C   0  0  0  0  0  3  0  0  0  0  0  0
  186.7020  178.0980  144.5850 C   0  0  0  0  0  0  0  0  0  0  0  0
  187.2810  177.4880  145.7220 C   0  0  0  0  0  0  0  0  0  0  0  0
  185.3810  178.5540  144.6330 C   0  0  0  0  0  3  0  0  0  0  0  0
  1  8  1  0  0  0  0
  2 15  1  0  0  0  0
  2  7  1  0  0  0  0
  3  2  2  0  0  0  0
  5  4  2  0  0  0  0
  6  9  2  0  0  0  0
  7 19  2  0  0  0  0
  8 20  2  0  0  0  0
  9  3  1  0  0  0  0
 10 16  1  0  0  0  0
 10 14  2  0  0  0  0
 11  1  1  0  0  0  0
 12 21  1  0  0  0  0
 13  6  1  0  0  0  0
 15 10  1  0  0  0  0
 16  5  1  0  0  0  0
 17  7  1  0  0  0  0
 17  1  2  0  0  0  0
 18 23  2  0  0  0  0
 18  6  1  0  0  0  0
 19 14  1  0  0  0  0
 19 20  1  0  0  0  0
 21 15  2  0  0  0  0
 22 12  2  0  0  0  0
 22  3  1  0  0  0  0
 23 22  1  0  0  0  0
 24 27  1  0  0  0  0
 24 28  1  0  0  0  0
 25 28  2  0  0  0  0
 26 29  1  0  0  0  0
 29 31  1  0  0  0  0
 29 30  2  0  0  0  0
 30  5  1  0  0  0  0
 30 25  1  0  0  0  0
 31 24  2  0  0  0  0
M  END
>  <MODEL>
5

>  <REMARK>
 VINA RESULT:      -8.4      4.044      8.429
  Name = 
  1 active torsions:
  status: ('A' for Active; 'I' for Inactive)
    1  A    between atoms: C_5  and  C_30
                            x       y       z     vdW  Elec       q    Type
                         _______ _______ _______ _____ _____    ______ ____

>  <TORSDO>
F 1

$$$$
=
 OpenBabel11112416593D

 31 35  0  0  0  0  0  0  0  0999 V2000
  190.7360  176.8080  147.1900 C   0  0  0  0  0  0  0  0  0  0  0  0
  188.1830  176.4450  144.4550 C   0  0  0  0  0  0  0  0  0  0  0  0
  187.0470  177.1990  144.8670 C   0  0  0  0  0  0  0  0  0  0  0  0
  191.2640  173.3680  141.4970 O   0  0  0  0  0  0  0  0  0  0  0  0
  190.1680  173.5340  140.8950 C   0  0  0  0  0  0  0  0  0  0  0  0
  185.9230  178.5920  146.4280 C   0  0  0  0  0  0  0  0  0  0  0  0
  189.3770  176.3260  145.2200 C   0  0  0  0  0  0  0  0  0  0  0  0
  191.7780  176.0390  146.6730 C   0  0  0  0  0  3  0  0  0  0  0  0
  187.0140  177.8770  146.0480 N   0  0  0  0  0  0  0  0  0  0  0  0
  189.2100  175.0160  142.7500 C   0  0  0  0  0  0  0  0  0  0  0  0
  190.8790  177.4340  148.4200 O   0  0  0  0  0  1  0  0  0  0  0  0
  185.8960  176.5920  142.8450 N   0  0  0  0  0  0  0  0  0  0  0  0
  185.9280  179.2860  147.6690 N   0  0  0  0  0  1  0  0  0  0  0  0
  190.3310  174.9280  143.5110 N   0  0  0  0  0  0  0  0  0  0  0  0
  188.1180  175.7730  143.2050 C   0  0  0  0  0  0  0  0  0  0  0  0
  189.1370  174.3390  141.4850 N   0  0  0  0  0  2  0  0  0  0  0  0
  189.5480  176.9500  146.4700 C   0  0  0  0  0  3  0  0  0  0  0  0
  184.8300  178.6440  145.6260 N   0  0  0  0  0  0  0  0  0  0  0  0
  190.4460  175.5480  144.7100 C   0  0  0  0  0  0  0  0  0  0  0  0
  191.6320  175.4100  145.4350 C   0  0  0  0  0  3  0  0  0  0  0  0
  186.9600  175.8670  142.4240 C   0  0  0  0  0  3  0  0  0  0  0  0
  185.9130  177.2500  144.0300 C   0  0  0  0  0  0  0  0  0  0  0  0
  184.8050  177.9880  144.4380 C   0  0  0  0  0  3  0  0  0  0  0  0
  189.4650  171.7920  137.0330 C   0  0  0  0  0  0  0  0  0  0  0  0
  189.5680  173.7160  138.4930 C   0  0  0  0  0  3  0  0  0  0  0  0
  190.4200  170.6510  140.4000 O   0  0  0  0  0  1  0  0  0  0  0  0
  189.2390  171.2590  135.8080 F   0  0  0  0  0  0  0  0  0  0  0  0
  189.3350  173.1670  137.2300 C   0  0  0  0  0  3  0  0  0  0  0  0
  190.0610  171.5080  139.3670 C   0  0  0  0  0  0  0  0  0  0  0  0
  189.9330  172.9010  139.5760 C   0  0  0  0  0  0  0  0  0  0  0  0
  189.8270  170.9670  138.0990 C   0  0  0  0  0  3  0  0  0  0  0  0
  1 11  1  0  0  0  0
  2  3  1  0  0  0  0
  2  7  1  0  0  0  0
  3  9  1  0  0  0  0
  5 16  1  0  0  0  0
  5  4  2  0  0  0  0
  6 13  1  0  0  0  0
  7 17  1  0  0  0  0
  8  1  1  0  0  0  0
  9  6  2  0  0  0  0
 10 15  1  0  0  0  0
 10 14  2  0  0  0  0
 12 22  1  0  0  0  0
 14 19  1  0  0  0  0
 15  2  2  0  0  0  0
 16 10  1  0  0  0  0
 17  1  2  0  0  0  0
 18  6  1  0  0  0  0
 19  7  2  0  0  0  0
 19 20  1  0  0  0  0
 20  8  2  0  0  0  0
 21 12  2  0  0  0  0
 21 15  1  0  0  0  0
 22 23  1  0  0  0  0
 22  3  2  0  0  0  0
 23 18  2  0  0  0  0
 24 28  2  0  0  0  0
 24 31  1  0  0  0  0
 25 30  2  0  0  0  0
 27 24  1  0  0  0  0
 28 25  1  0  0  0  0
 29 30  1  0  0  0  0
 29 26  1  0  0  0  0
 30  5  1  0  0  0  0
 31 29  2  0  0  0  0
M  END
>  <MODEL>
6

>  <REMARK>
 VINA RESULT:      -8.4      4.169      6.360
  Name = 
  1 active torsions:
  status: ('A' for Active; 'I' for Inactive)
    1  A    between atoms: C_5  and  C_30
                            x       y       z     vdW  Elec       q    Type
                         _______ _______ _______ _____ _____    ______ ____

>  <TORSDO>
F 1

$$$$
=
 OpenBabel11112416593D

 31 35  0  0  0  0  0  0  0  0999 V2000
  192.5020  172.7710  139.8960 C   0  0  0  0  0  0  0  0  0  0  0  0
  192.2100  175.2150  142.7370 C   0  0  0  0  0  0  0  0  0  0  0  0
  193.5350  175.4460  143.2020 C   0  0  0  0  0  0  0  0  0  0  0  0
  186.9690  175.5540  142.3780 O   0  0  0  0  0  0  0  0  0  0  0  0
  187.3540  176.3020  143.3170 C   0  0  0  0  0  0  0  0  0  0  0  0
  195.8780  175.0690  143.0960 C   0  0  0  0  0  0  0  0  0  0  0  0
  191.8870  174.3420  141.6600 C   0  0  0  0  0  0  0  0  0  0  0  0
  191.1610  172.6320  139.5370 C   0  0  0  0  0  3  0  0  0  0  0  0
  194.6180  174.8390  142.6420 N   0  0  0  0  0  0  0  0  0  0  0  0
  189.8200  175.7050  142.9700 C   0  0  0  0  0  0  0  0  0  0  0  0
  193.4810  172.0690  139.2080 O   0  0  0  0  0  1  0  0  0  0  0  0
  192.6990  176.9620  144.8700 N   0  0  0  0  0  0  0  0  0  0  0  0
  196.9830  174.4160  142.4850 N   0  0  0  0  0  1  0  0  0  0  0  0
  189.5550  174.8640  141.9390 N   0  0  0  0  0  0  0  0  0  0  0  0
  191.1470  175.8970  143.3890 C   0  0  0  0  0  0  0  0  0  0  0  0
  188.7510  176.3990  143.6340 N   0  0  0  0  0  2  0  0  0  0  0  0
  192.8600  173.6180  140.9470 C   0  0  0  0  0  3  0  0  0  0  0  0
  196.0830  175.9220  144.1320 N   0  0  0  0  0  0  0  0  0  0  0  0
  190.5300  174.1880  141.2830 C   0  0  0  0  0  0  0  0  0  0  0  0
  190.1780  173.3390  140.2300 C   0  0  0  0  0  3  0  0  0  0  0  0
  191.4250  176.7640  144.4520 C   0  0  0  0  0  3  0  0  0  0  0  0
  193.7430  176.3330  144.2790 C   0  0  0  0  0  0  0  0  0  0  0  0
  195.0410  176.5560  144.7290 C   0  0  0  0  0  3  0  0  0  0  0  0
  184.5130  178.5070  145.6650 C   0  0  0  0  0  0  0  0  0  0  0  0
  185.9320  176.5780  145.3330 C   0  0  0  0  0  3  0  0  0  0  0  0
  186.2650  178.8870  142.4490 O   0  0  0  0  0  1  0  0  0  0  0  0
  183.6180  179.1890  146.4180 F   0  0  0  0  0  0  0  0  0  0  0  0
  185.0090  177.2810  146.1100 C   0  0  0  0  0  3  0  0  0  0  0  0
  185.8650  178.3310  143.6590 C   0  0  0  0  0  0  0  0  0  0  0  0
  186.3740  177.0880  144.1020 C   0  0  0  0  0  0  0  0  0  0  0  0
  184.9410  179.0280  144.4430 C   0  0  0  0  0  3  0  0  0  0  0  0
  1 17  1  0  0  0  0
  2  3  2  0  0  0  0
  2 15  1  0  0  0  0
  3 22  1  0  0  0  0
  4  5  2  0  0  0  0
  5 16  1  0  0  0  0
  5 30  1  0  0  0  0
  6 18  1  0  0  0  0
  7  2  1  0  0  0  0
  8  1  2  0  0  0  0
  8 20  1  0  0  0  0
  9  6  2  0  0  0  0
  9  3  1  0  0  0  0
 10 15  1  0  0  0  0
 10 16  1  0  0  0  0
 11  1  1  0  0  0  0
 13  6  1  0  0  0  0
 14 10  2  0  0  0  0
 15 21  2  0  0  0  0
 17  7  2  0  0  0  0
 18 23  2  0  0  0  0
 19  7  1  0  0  0  0
 19 14  1  0  0  0  0
 20 19  2  0  0  0  0
 21 12  1  0  0  0  0
 22 23  1  0  0  0  0
 22 12  2  0  0  0  0
 24 28  1  0  0  0  0
 24 27  1  0  0  0  0
 25 28  2  0  0  0  0
 26 29  1  0  0  0  0
 29 30  2  0  0  0  0
 29 31  1  0  0  0  0
 30 25  1  0  0  0  0
 31 24  2  0  0  0  0
M  END
>  <MODEL>
7

>  <REMARK>
 VINA RESULT:      -8.3      4.478      8.903
  Name = 
  1 active torsions:
  status: ('A' for Active; 'I' for Inactive)
    1  A    between atoms: C_5  and  C_30
                            x       y       z     vdW  Elec       q    Type
                         _______ _______ _______ _____ _____    ______ ____

>  <TORSDO>
F 1

$$$$
=
 OpenBabel11112416593D

 31 35  0  0  0  0  0  0  0  0999 V2000
  194.6550  174.8450  141.4560 C   0  0  0  0  0  0  0  0  0  0  0  0
  190.9640  174.1620  141.2610 C   0  0  0  0  0  0  0  0  0  0  0  0
  190.7950  173.1620  140.2630 C   0  0  0  0  0  0  0  0  0  0  0  0
  189.7570  177.6640  145.0020 O   0  0  0  0  0  0  0  0  0  0  0  0
  188.6900  177.1260  144.5990 C   0  0  0  0  0  0  0  0  0  0  0  0
  191.6720  171.6790  138.6290 C   0  0  0  0  0  0  0  0  0  0  0  0
  192.2260  174.7020  141.6410 C   0  0  0  0  0  0  0  0  0  0  0  0
  194.6840  175.8230  142.4500 C   0  0  0  0  0  3  0  0  0  0  0  0
  191.8470  172.6330  139.5790 N   0  0  0  0  0  0  0  0  0  0  0  0
  189.9110  175.6380  142.9110 C   0  0  0  0  0  0  0  0  0  0  0  0
  195.8370  174.4220  140.8640 O   0  0  0  0  0  1  0  0  0  0  0  0
  188.4180  173.1910  140.6180 N   0  0  0  0  0  0  0  0  0  0  0  0
  192.7970  171.1510  137.9370 N   0  0  0  0  0  1  0  0  0  0  0  0
  191.1330  176.1260  143.2430 N   0  0  0  0  0  0  0  0  0  0  0  0
  189.8020  174.6510  141.9180 C   0  0  0  0  0  0  0  0  0  0  0  0
  188.7310  176.1260  143.5710 N   0  0  0  0  0  2  0  0  0  0  0  0
  193.4370  174.2910  141.0560 C   0  0  0  0  0  3  0  0  0  0  0  0
  190.4250  171.2270  138.3380 N   0  0  0  0  0  0  0  0  0  0  0  0
  192.2730  175.6960  142.6490 C   0  0  0  0  0  0  0  0  0  0  0  0
  193.4950  176.2470  143.0450 C   0  0  0  0  0  3  0  0  0  0  0  0
  188.5430  174.1440  141.5730 C   0  0  0  0  0  3  0  0  0  0  0  0
  189.4970  172.6970  139.9650 C   0  0  0  0  0  0  0  0  0  0  0  0
  189.3380  171.7190  138.9880 C   0  0  0  0  0  3  0  0  0  0  0  0
  184.8910  178.3310  146.2010 C   0  0  0  0  0  0  0  0  0  0  0  0
  186.6020  178.4660  144.4980 C   0  0  0  0  0  3  0  0  0  0  0  0
  187.6260  176.0400  147.1110 O   0  0  0  0  0  1  0  0  0  0  0  0
  183.6910  178.7210  146.6920 F   0  0  0  0  0  0  0  0  0  0  0  0
  185.3640  178.8690  145.0040 C   0  0  0  0  0  3  0  0  0  0  0  0
  186.8970  176.9800  146.3920 C   0  0  0  0  0  0  0  0  0  0  0  0
  187.3840  177.5200  145.1790 C   0  0  0  0  0  0  0  0  0  0  0  0
  185.6570  177.3890  146.8910 C   0  0  0  0  0  3  0  0  0  0  0  0
  1  8  1  0  0  0  0
  2  7  1  0  0  0  0
  2 15  1  0  0  0  0
  3  2  2  0  0  0  0
  5  4  2  0  0  0  0
  5 30  1  0  0  0  0
  6  9  2  0  0  0  0
  7 19  2  0  0  0  0
  8 20  2  0  0  0  0
  9  3  1  0  0  0  0
 10 14  2  0  0  0  0
 10 16  1  0  0  0  0
 11  1  1  0  0  0  0
 12 21  1  0  0  0  0
 13  6  1  0  0  0  0
 15 10  1  0  0  0  0
 16  5  1  0  0  0  0
 17  1  2  0  0  0  0
 17  7  1  0  0  0  0
 18  6  1  0  0  0  0
 18 23  2  0  0  0  0
 19 20  1  0  0  0  0
 19 14  1  0  0  0  0
 21 15  2  0  0  0  0
 22  3  1  0  0  0  0
 22 12  2  0  0  0  0
 23 22  1  0  0  0  0
 24 27  1  0  0  0  0
 24 31  1  0  0  0  0
 25 28  1  0  0  0  0
 25 30  2  0  0  0  0
 28 24  2  0  0  0  0
 29 31  2  0  0  0  0
 29 26  1  0  0  0  0
 30 29  1  0  0  0  0
M  END
>  <MODEL>
8

>  <REMARK>
 VINA RESULT:      -8.1      4.500      8.043
  Name = 
  1 active torsions:
  status: ('A' for Active; 'I' for Inactive)
    1  A    between atoms: C_5  and  C_30
                            x       y       z     vdW  Elec       q    Type
                         _______ _______ _______ _____ _____    ______ ____

>  <TORSDO>
F 1

$$$$
=
 OpenBabel11112416593D

 31 35  0  0  0  0  0  0  0  0999 V2000
  185.1680  177.8380  146.7790 C   0  0  0  0  0  0  0  0  0  0  0  0
  186.5560  177.1470  143.3550 C   0  0  0  0  0  0  0  0  0  0  0  0
  185.5680  177.5840  142.4280 C   0  0  0  0  0  0  0  0  0  0  0  0
  191.0540  175.1230  145.1950 O   0  0  0  0  0  0  0  0  0  0  0  0
  191.0860  175.0880  143.9350 C   0  0  0  0  0  0  0  0  0  0  0  0
  183.4520  178.5420  141.9330 C   0  0  0  0  0  0  0  0  0  0  0  0
  186.4140  177.2360  144.7680 C   0  0  0  0  0  0  0  0  0  0  0  0
  186.2120  177.3740  147.5780 C   0  0  0  0  0  3  0  0  0  0  0  0
  184.3870  178.1300  142.8290 N   0  0  0  0  0  0  0  0  0  0  0  0
  188.7650  176.1440  143.7050 C   0  0  0  0  0  0  0  0  0  0  0  0
  184.0280  178.3690  147.3650 O   0  0  0  0  0  1  0  0  0  0  0  0
  186.9720  176.9120  140.5950 N   0  0  0  0  0  0  0  0  0  0  0  0
  182.2310  179.1070  142.3920 N   0  0  0  0  0  1  0  0  0  0  0  0
  188.5900  176.2460  145.0470 N   0  0  0  0  0  0  0  0  0  0  0  0
  187.7560  176.5900  142.8360 C   0  0  0  0  0  0  0  0  0  0  0  0
  189.9750  175.5820  143.1720 N   0  0  0  0  0  2  0  0  0  0  0  0
  185.2700  177.7690  145.3880 C   0  0  0  0  0  3  0  0  0  0  0  0
  183.6820  178.4150  140.6020 N   0  0  0  0  0  0  0  0  0  0  0  0
  187.4660  176.7680  145.5950 C   0  0  0  0  0  0  0  0  0  0  0  0
  187.3590  176.8400  146.9870 C   0  0  0  0  0  3  0  0  0  0  0  0
  187.9330  176.4870  141.4510 C   0  0  0  0  0  3  0  0  0  0  0  0
  185.8120  177.4490  141.0450 C   0  0  0  0  0  0  0  0  0  0  0  0
  184.8410  177.8770  140.1440 C   0  0  0  0  0  3  0  0  0  0  0  0
  194.4650  173.3980  141.8930 C   0  0  0  0  0  0  0  0  0  0  0  0
  192.3130  173.1580  142.9670 C   0  0  0  0  0  3  0  0  0  0  0  0
  193.3580  176.7170  143.0380 O   0  0  0  0  0  1  0  0  0  0  0  0
  195.5240  172.8490  141.2510 F   0  0  0  0  0  0  0  0  0  0  0  0
  193.4040  172.5920  142.3050 C   0  0  0  0  0  3  0  0  0  0  0  0
  193.3480  175.3460  142.8090 C   0  0  0  0  0  0  0  0  0  0  0  0
  192.2660  174.5370  143.2290 C   0  0  0  0  0  0  0  0  0  0  0  0
  194.4360  174.7710  142.1460 C   0  0  0  0  0  3  0  0  0  0  0  0
  1 11  1  0  0  0  0
  1  8  1  0  0  0  0
  2  7  1  0  0  0  0
  3  9  1  0  0  0  0
  3  2  2  0  0  0  0
  5  4  2  0  0  0  0
  6 13  1  0  0  0  0
  6  9  2  0  0  0  0
  7 17  1  0  0  0  0
  7 19  2  0  0  0  0
 10 14  2  0  0  0  0
 12 22  2  0  0  0  0
 12 21  1  0  0  0  0
 14 19  1  0  0  0  0
 15  2  1  0  0  0  0
 15 10  1  0  0  0  0
 16 10  1  0  0  0  0
 16  5  1  0  0  0  0
 17  1  2  0  0  0  0
 18  6  1  0  0  0  0
 19 20  1  0  0  0  0
 20  8  2  0  0  0  0
 21 15  2  0  0  0  0
 22  3  1  0  0  0  0
 23 18  2  0  0  0  0
 23 22  1  0  0  0  0
 24 31  2  0  0  0  0
 24 28  1  0  0  0  0
 25 30  1  0  0  0  0
 27 24  1  0  0  0  0
 28 25  2  0  0  0  0
 29 26  1  0  0  0  0
 29 30  2  0  0  0  0
 30  5  1  0  0  0  0
 31 29  1  0  0  0  0
M  END
>  <MODEL>
9

>  <REMARK>
 VINA RESULT:      -8.1      2.090      2.253
  Name = 
  1 active torsions:
  status: ('A' for Active; 'I' for Inactive)
    1  A    between atoms: C_5  and  C_30
                            x       y       z     vdW  Elec       q    Type
                         _______ _______ _______ _____ _____    ______ ____

>  <TORSDO>
F 1

$$$$
