=
 OpenBabel11112416583D

 31 35  0  0  1  0  0  0  0  0999 V2000
  184.7080  178.9340  146.3030 C   0  0  2  0  0  3  0  0  0  0  0  0
  187.5200  177.4700  144.1160 C   0  0  0  0  0  0  0  0  0  0  0  0
  187.0400  177.4960  142.7750 C   0  0  0  0  0  0  0  0  0  0  0  0
  185.3190  177.9030  141.1860 C   0  0  0  0  0  0  0  0  0  0  0  0
  186.7290  177.8220  145.2510 C   0  0  0  0  0  0  0  0  0  0  0  0
  185.0520  178.2010  147.5860 C   0  0  0  0  0  2  0  0  0  0  0  0
  185.7690  177.8800  142.4680 N   0  0  0  0  0  0  0  0  0  0  0  0
  189.4220  177.0270  145.6110 C   0  0  0  0  0  0  0  0  0  0  0  0
  183.3240  179.0430  146.1850 O   0  0  0  0  0  1  0  0  0  0  0  0
  189.2030  176.7390  141.9860 C   0  0  0  0  0  3  0  0  0  0  0  0
  184.0480  178.2900  140.9230 F   0  0  0  0  0  0  0  0  0  0  0  0
  188.6320  177.3840  146.7040 C   0  0  0  0  0  3  0  0  0  0  0  0
  188.8740  177.0700  144.3210 C   0  0  0  0  0  0  0  0  0  0  0  0
  185.2560  178.1420  145.1220 C   0  0  0  0  0  2  0  0  0  0  0  0
  186.1420  177.5410  140.1690 N   0  0  0  0  0  0  0  0  0  0  0  0
  187.3040  177.7610  146.5440 C   0  0  0  0  0  0  0  0  0  0  0  0
  186.5630  178.2070  147.7750 C   0  0  0  0  0  2  0  0  0  0  0  0
  189.6560  176.7220  143.2630 N   0  0  0  0  0  0  0  0  0  0  0  0
  187.8970  177.1240  141.7210 C   0  0  0  0  0  0  0  0  0  0  0  0
  187.4200  177.1540  140.4130 C   0  0  0  0  0  3  0  0  0  0  0  0
  190.4920  174.8070  147.2360 O   0  0  0  0  0  0  0  0  0  0  0  0
  191.2800  175.5440  146.5840 C   0  0  0  0  0  0  0  0  0  0  0  0
  190.7910  176.6280  145.7830 N   0  0  0  0  0  2  0  0  0  0  0  0
  194.8140  176.2630  144.8660 C   0  0  0  0  0  0  0  0  0  0  0  0
  193.4930  176.5910  146.8760 C   0  0  0  0  0  3  0  0  0  0  0  0
  192.6460  173.2730  145.1600 O   0  0  0  0  0  1  0  0  0  0  0  0
  195.6940  176.6960  144.0770 O   0  0  0  0  0  0  0  0  0  0  0  0
  194.4420  177.0380  146.0520 C   0  0  0  0  0  3  0  0  0  0  0  0
  193.2170  174.5110  145.4280 C   0  0  0  0  0  0  0  0  0  0  0  0
  192.7520  175.2950  146.6400 C   0  0  2  0  0  3  0  0  0  0  0  0
  194.1660  174.9730  144.6100 C   0  0  0  0  0  3  0  0  0  0  0  0
  1  9  1  6  0  0  0
  1  6  1  0  0  0  0
  2 13  2  0  0  0  0
  2  5  1  0  0  0  0
  3  2  1  0  0  0  0
  4  7  2  0  0  0  0
  5 16  2  0  0  0  0
  6 17  1  0  0  0  0
  7  3  1  0  0  0  0
  8 23  1  0  0  0  0
  8 12  2  0  0  0  0
 10 18  2  0  0  0  0
 11  4  1  0  0  0  0
 13  8  1  0  0  0  0
 14  5  1  0  0  0  0
 14  1  1  0  0  0  0
 15 20  2  0  0  0  0
 15  4  1  0  0  0  0
 16 12  1  0  0  0  0
 16 17  1  0  0  0  0
 18 13  1  0  0  0  0
 19 10  1  0  0  0  0
 19  3  2  0  0  0  0
 20 19  1  0  0  0  0
 22 21  2  0  0  0  0
 23 22  1  0  0  0  0
 24 28  1  0  0  0  0
 26 29  1  0  0  0  0
 27 24  2  0  0  0  0
 28 25  2  0  0  0  0
 29 30  1  0  0  0  0
 30 22  1  6  0  0  0
 30 25  1  0  0  0  0
 31 24  1  0  0  0  0
 31 29  2  0  0  0  0
M  END
>  <MODEL>
1

>  <REMARK>
 VINA RESULT:      -9.3      0.000      0.000
  Name = 
  2 active torsions:
  status: ('A' for Active; 'I' for Inactive)
    1  A    between atoms: C_5  and  C_30
    2  A    between atoms: C_10  and  N_16
                            x       y       z     vdW  Elec       q    Type
                         _______ _______ _______ _____ _____    ______ ____

>  <TORSDO>
F 2

$$$$
=
 OpenBabel11112416583D

 31 35  0  0  1  0  0  0  0  0999 V2000
  184.8320  177.6700  141.1540 C   0  0  2  0  0  3  0  0  0  0  0  0
  187.0870  177.2400  144.2450 C   0  0  0  0  0  0  0  0  0  0  0  0
  186.3060  177.6330  145.3700 C   0  0  0  0  0  0  0  0  0  0  0  0
  184.3150  178.5250  146.3130 C   0  0  0  0  0  0  0  0  0  0  0  0
  186.6520  177.3620  142.8920 C   0  0  0  0  0  0  0  0  0  0  0  0
  185.9320  177.9160  140.1380 C   0  0  0  0  0  2  0  0  0  0  0  0
  185.0540  178.1540  145.2350 N   0  0  0  0  0  0  0  0  0  0  0  0
  189.2020  176.2700  143.4490 C   0  0  0  0  0  0  0  0  0  0  0  0
  183.7260  178.4590  140.8430 O   0  0  0  0  0  1  0  0  0  0  0  0
  188.0920  176.9390  146.8540 C   0  0  0  0  0  3  0  0  0  0  0  0
  183.0750  179.0410  146.1360 F   0  0  0  0  0  0  0  0  0  0  0  0
  188.7520  176.3930  142.1350 C   0  0  0  0  0  3  0  0  0  0  0  0
  188.3770  176.6880  144.5030 C   0  0  0  0  0  0  0  0  0  0  0  0
  185.3480  178.0440  142.5370 C   0  0  0  0  0  2  0  0  0  0  0  0
  184.8170  178.3790  147.5660 N   0  0  0  0  0  0  0  0  0  0  0  0
  187.5090  176.9420  141.8460 C   0  0  0  0  0  0  0  0  0  0  0  0
  187.0810  176.9520  140.4030 C   0  0  0  0  0  2  0  0  0  0  0  0
  188.8280  176.5610  145.7810 N   0  0  0  0  0  0  0  0  0  0  0  0
  186.8270  177.4770  146.6690 C   0  0  0  0  0  0  0  0  0  0  0  0
  186.0560  177.8630  147.7620 C   0  0  0  0  0  3  0  0  0  0  0  0
  191.7970  177.6630  143.6550 O   0  0  0  0  0  0  0  0  0  0  0  0
  191.7380  176.4160  143.8320 C   0  0  0  0  0  0  0  0  0  0  0  0
  190.4930  175.7110  143.7430 N   0  0  0  0  0  2  0  0  0  0  0  0
  195.7320  176.4170  143.7120 C   0  0  0  0  0  0  0  0  0  0  0  0
  193.8010  176.3740  145.1830 C   0  0  0  0  0  3  0  0  0  0  0  0
  193.0920  174.5730  141.8780 O   0  0  0  0  0  1  0  0  0  0  0  0
  196.9210  176.7750  143.5130 O   0  0  0  0  0  0  0  0  0  0  0  0
  195.0700  176.7330  144.9800 C   0  0  0  0  0  3  0  0  0  0  0  0
  193.7350  175.3010  142.8720 C   0  0  0  0  0  0  0  0  0  0  0  0
  192.9820  175.6480  144.1410 C   0  0  2  0  0  3  0  0  0  0  0  0
  195.0050  175.6690  142.6810 C   0  0  0  0  0  3  0  0  0  0  0  0
  1  9  1  6  0  0  0
  1 14  1  0  0  0  0
  2 13  1  0  0  0  0
  2  3  2  0  0  0  0
  3 19  1  0  0  0  0
  4 15  1  0  0  0  0
  5  2  1  0  0  0  0
  6 17  1  0  0  0  0
  6  1  1  0  0  0  0
  7  3  1  0  0  0  0
  7  4  2  0  0  0  0
  8 23  1  0  0  0  0
  8 13  1  0  0  0  0
 11  4  1  0  0  0  0
 12  8  2  0  0  0  0
 13 18  2  0  0  0  0
 14  5  1  0  0  0  0
 15 20  2  0  0  0  0
 16 12  1  0  0  0  0
 16  5  2  0  0  0  0
 17 16  1  0  0  0  0
 18 10  1  0  0  0  0
 19 10  2  0  0  0  0
 19 20  1  0  0  0  0
 21 22  2  0  0  0  0
 23 22  1  0  0  0  0
 24 28  1  0  0  0  0
 26 29  1  0  0  0  0
 27 24  2  0  0  0  0
 28 25  2  0  0  0  0
 29 30  1  0  0  0  0
 30 22  1  6  0  0  0
 30 25  1  0  0  0  0
 31 29  2  0  0  0  0
 31 24  1  0  0  0  0
M  END
>  <MODEL>
2

>  <REMARK>
 VINA RESULT:      -9.0      2.326      4.221
  Name = 
  2 active torsions:
  status: ('A' for Active; 'I' for Inactive)
    1  A    between atoms: C_5  and  C_30
    2  A    between atoms: C_10  and  N_16
                            x       y       z     vdW  Elec       q    Type
                         _______ _______ _______ _____ _____    ______ ____

>  <TORSDO>
F 2

$$$$
=
 OpenBabel11112416583D

 31 35  0  0  1  0  0  0  0  0999 V2000
  184.9250  177.6300  141.1550 C   0  0  2  0  0  3  0  0  0  0  0  0
  187.1850  177.4520  144.2680 C   0  0  0  0  0  0  0  0  0  0  0  0
  186.3730  177.8290  145.3760 C   0  0  0  0  0  0  0  0  0  0  0  0
  184.3200  178.6150  146.2820 C   0  0  0  0  0  0  0  0  0  0  0  0
  186.7510  177.5010  142.9100 C   0  0  0  0  0  0  0  0  0  0  0  0
  186.0130  177.9160  140.1360 C   0  0  0  0  0  2  0  0  0  0  0  0
  185.0900  178.2600  145.2200 N   0  0  0  0  0  0  0  0  0  0  0  0
  189.3650  176.6000  143.5120 C   0  0  0  0  0  0  0  0  0  0  0  0
  183.7710  178.3330  140.8150 O   0  0  0  0  0  1  0  0  0  0  0  0
  188.1920  177.3030  146.8900 C   0  0  0  0  0  3  0  0  0  0  0  0
  183.0500  179.0410  146.0830 F   0  0  0  0  0  0  0  0  0  0  0  0
  188.9160  176.6500  142.1940 C   0  0  0  0  0  3  0  0  0  0  0  0
  188.5080  176.9970  144.5490 C   0  0  0  0  0  0  0  0  0  0  0  0
  185.4070  178.0830  142.5280 C   0  0  0  0  0  2  0  0  0  0  0  0
  184.8230  178.5440  147.5410 N   0  0  0  0  0  0  0  0  0  0  0  0
  187.6400  177.1050  141.8820 C   0  0  0  0  0  0  0  0  0  0  0  0
  187.2220  177.0410  140.4370 C   0  0  0  0  0  2  0  0  0  0  0  0
  188.9580  176.9410  145.8320 N   0  0  0  0  0  0  0  0  0  0  0  0
  186.8950  177.7500  146.6810 C   0  0  0  0  0  0  0  0  0  0  0  0
  186.0930  178.1180  147.7590 C   0  0  0  0  0  3  0  0  0  0  0  0
  191.8200  178.1970  143.8880 O   0  0  0  0  0  0  0  0  0  0  0  0
  191.8640  176.9420  144.0020 C   0  0  0  0  0  0  0  0  0  0  0  0
  190.6890  176.1390  143.8290 N   0  0  0  0  0  2  0  0  0  0  0  0
  193.6170  173.5280  145.1140 C   0  0  0  0  0  0  0  0  0  0  0  0
  193.4310  175.1620  143.3270 C   0  0  0  0  0  3  0  0  0  0  0  0
  193.0310  176.7900  146.7710 O   0  0  0  0  0  1  0  0  0  0  0  0
  193.7900  172.3310  145.4590 O   0  0  0  0  0  0  0  0  0  0  0  0
  193.6380  173.8960  143.6960 C   0  0  0  0  0  3  0  0  0  0  0  0
  193.2020  175.8360  145.7750 C   0  0  0  0  0  0  0  0  0  0  0  0
  193.1580  176.2670  144.3220 C   0  0  2  0  0  3  0  0  0  0  0  0
  193.4070  174.5650  146.1290 C   0  0  0  0  0  3  0  0  0  0  0  0
  1  9  1  6  0  0  0
  1 14  1  0  0  0  0
  2 13  1  0  0  0  0
  2  3  2  0  0  0  0
  3 19  1  0  0  0  0
  4 15  1  0  0  0  0
  5  2  1  0  0  0  0
  6 17  1  0  0  0  0
  6  1  1  0  0  0  0
  7  3  1  0  0  0  0
  7  4  2  0  0  0  0
  8 23  1  0  0  0  0
  8 13  1  0  0  0  0
 11  4  1  0  0  0  0
 12  8  2  0  0  0  0
 13 18  2  0  0  0  0
 14  5  1  0  0  0  0
 15 20  2  0  0  0  0
 16 12  1  0  0  0  0
 16  5  2  0  0  0  0
 17 16  1  0  0  0  0
 18 10  1  0  0  0  0
 19 10  2  0  0  0  0
 19 20  1  0  0  0  0
 21 22  2  0  0  0  0
 23 22  1  0  0  0  0
 24 27  2  0  0  0  0
 24 31  1  0  0  0  0
 25 28  2  0  0  0  0
 25 30  1  0  0  0  0
 28 24  1  0  0  0  0
 29 31  2  0  0  0  0
 29 26  1  0  0  0  0
 30 22  1  6  0  0  0
 30 29  1  0  0  0  0
M  END
>  <MODEL>
3

>  <REMARK>
 VINA RESULT:      -9.0      2.227      4.407
  Name = 
  2 active torsions:
  status: ('A' for Active; 'I' for Inactive)
    1  A    between atoms: C_5  and  C_30
    2  A    between atoms: C_10  and  N_16
                            x       y       z     vdW  Elec       q    Type
                         _______ _______ _______ _____ _____    ______ ____

>  <TORSDO>
F 2

$$$$
=
 OpenBabel11112416583D

 31 35  0  0  1  0  0  0  0  0999 V2000
  185.0150  178.4120  146.8490 C   0  0  2  0  0  3  0  0  0  0  0  0
  186.7590  177.8170  143.4680 C   0  0  0  0  0  0  0  0  0  0  0  0
  185.7550  177.9600  142.4670 C   0  0  0  0  0  0  0  0  0  0  0  0
  183.4920  178.2910  141.8210 C   0  0  0  0  0  0  0  0  0  0  0  0
  186.4960  177.8490  144.8700 C   0  0  0  0  0  0  0  0  0  0  0  0
  185.9410  177.5670  147.7030 C   0  0  0  0  0  2  0  0  0  0  0  0
  184.4440  178.1540  142.7810 N   0  0  0  0  0  0  0  0  0  0  0  0
  189.1500  177.4990  143.9520 C   0  0  0  0  0  0  0  0  0  0  0  0
  183.7080  178.2910  147.3180 O   0  0  0  0  0  1  0  0  0  0  0  0
  187.4420  177.7270  140.7420 C   0  0  0  0  0  3  0  0  0  0  0  0
  182.1980  178.4800  142.1740 F   0  0  0  0  0  0  0  0  0  0  0  0
  188.8680  177.5400  145.3170 C   0  0  0  0  0  3  0  0  0  0  0  0
  188.1050  177.6380  143.0280 C   0  0  0  0  0  0  0  0  0  0  0  0
  185.0840  177.9180  145.4100 C   0  0  0  0  0  2  0  0  0  0  0  0
  183.8360  178.2380  140.5090 N   0  0  0  0  0  0  0  0  0  0  0  0
  187.5680  177.6960  145.7820 C   0  0  0  0  0  0  0  0  0  0  0  0
  187.3810  177.8120  147.2710 C   0  0  0  0  0  2  0  0  0  0  0  0
  188.3930  177.5980  141.6980 N   0  0  0  0  0  0  0  0  0  0  0  0
  186.1150  177.9090  141.1070 C   0  0  0  0  0  0  0  0  0  0  0  0
  185.1280  178.0510  140.1360 C   0  0  0  0  0  3  0  0  0  0  0  0
  190.7290  175.0110  143.7810 O   0  0  0  0  0  0  0  0  0  0  0  0
  191.2370  176.1030  143.4080 C   0  0  0  0  0  0  0  0  0  0  0  0
  190.4940  177.3270  143.4750 N   0  0  0  0  0  2  0  0  0  0  0  0
  194.7020  174.1330  143.1370 C   0  0  0  0  0  0  0  0  0  0  0  0
  192.8410  175.0370  141.8680 C   0  0  0  0  0  3  0  0  0  0  0  0
  193.5810  177.1480  144.9760 O   0  0  0  0  0  1  0  0  0  0  0  0
  195.5850  173.2460  143.2620 O   0  0  0  0  0  0  0  0  0  0  0  0
  193.7920  174.1100  141.9890 C   0  0  0  0  0  3  0  0  0  0  0  0
  193.6400  176.1390  144.0230 C   0  0  0  0  0  0  0  0  0  0  0  0
  192.6360  176.1350  142.8870 C   0  0  2  0  0  3  0  0  0  0  0  0
  194.5860  175.2030  144.1330 C   0  0  0  0  0  3  0  0  0  0  0  0
  1  9  1  1  0  0  0
  1  6  1  0  0  0  0
  2  5  1  0  0  0  0
  3  7  1  0  0  0  0
  3  2  1  0  0  0  0
  4 11  1  0  0  0  0
  4  7  2  0  0  0  0
  5 14  1  0  0  0  0
  5 16  2  0  0  0  0
  8 12  2  0  0  0  0
 10 19  1  0  0  0  0
 10 18  2  0  0  0  0
 12 16  1  0  0  0  0
 13  2  2  0  0  0  0
 13  8  1  0  0  0  0
 14  1  1  0  0  0  0
 15  4  1  0  0  0  0
 16 17  1  0  0  0  0
 17  6  1  0  0  0  0
 18 13  1  0  0  0  0
 19  3  2  0  0  0  0
 20 15  2  0  0  0  0
 20 19  1  0  0  0  0
 22 23  1  0  0  0  0
 22 21  2  0  0  0  0
 23  8  1  0  0  0  0
 24 27  2  0  0  0  0
 24 31  1  0  0  0  0
 25 28  2  0  0  0  0
 25 30  1  0  0  0  0
 28 24  1  0  0  0  0
 29 31  2  0  0  0  0
 29 26  1  0  0  0  0
 30 22  1  1  0  0  0
 30 29  1  0  0  0  0
M  END
>  <MODEL>
4

>  <REMARK>
 VINA RESULT:      -8.9      1.799      2.489
  Name = 
  2 active torsions:
  status: ('A' for Active; 'I' for Inactive)
    1  A    between atoms: C_5  and  C_30
    2  A    between atoms: C_10  and  N_16
                            x       y       z     vdW  Elec       q    Type
                         _______ _______ _______ _____ _____    ______ ____

>  <TORSDO>
F 2

$$$$
=
 OpenBabel11112416583D

 31 35  0  0  1  0  0  0  0  0999 V2000
  194.7530  175.0780  145.6790 C   0  0  2  0  0  3  0  0  0  0  0  0
  191.4630  175.1460  143.6790 C   0  0  0  0  0  0  0  0  0  0  0  0
  191.7010  174.3990  142.4890 C   0  0  0  0  0  0  0  0  0  0  0  0
  193.1500  173.1910  141.0430 C   0  0  0  0  0  0  0  0  0  0  0  0
  192.4720  175.4570  144.6380 C   0  0  0  0  0  0  0  0  0  0  0  0
  194.5630  176.3890  146.4190 C   0  0  0  0  0  2  0  0  0  0  0  0
  192.9320  173.9040  142.1790 N   0  0  0  0  0  0  0  0  0  0  0  0
  189.8160  176.3340  145.0660 C   0  0  0  0  0  0  0  0  0  0  0  0
  196.0990  174.9160  145.3560 O   0  0  0  0  0  1  0  0  0  0  0  0
  189.3640  174.6220  141.8820 C   0  0  0  0  0  3  0  0  0  0  0  0
  194.3900  172.7180  140.7710 F   0  0  0  0  0  0  0  0  0  0  0  0
  190.8180  176.6190  145.9930 C   0  0  0  0  0  3  0  0  0  0  0  0
  190.1310  175.6000  143.9140 C   0  0  0  0  0  0  0  0  0  0  0  0
  193.9260  175.1110  144.4000 C   0  0  0  0  0  2  0  0  0  0  0  0
  192.1280  172.9520  140.1820 N   0  0  0  0  0  0  0  0  0  0  0  0
  192.1290  176.2080  145.7880 C   0  0  0  0  0  0  0  0  0  0  0  0
  193.1180  176.4930  146.8870 C   0  0  0  0  0  2  0  0  0  0  0  0
  189.1430  175.3260  143.0180 N   0  0  0  0  0  0  0  0  0  0  0  0
  190.6380  174.1480  141.6000 C   0  0  0  0  0  0  0  0  0  0  0  0
  190.8790  173.4160  140.4410 C   0  0  0  0  0  3  0  0  0  0  0  0
  187.9860  175.6260  147.2730 O   0  0  0  0  0  0  0  0  0  0  0  0
  187.5980  176.4040  146.3600 C   0  0  0  0  0  0  0  0  0  0  0  0
  188.4630  176.7690  145.2770 N   0  0  0  0  0  2  0  0  0  0  0  0
  185.1240  179.1900  144.9170 C   0  0  0  0  0  0  0  0  0  0  0  0
  185.5500  176.8030  145.0450 C   0  0  0  0  0  3  0  0  0  0  0  0
  186.7300  178.6150  148.2060 O   0  0  0  0  0  1  0  0  0  0  0  0
  184.6750  180.1660  144.2620 O   0  0  0  0  0  0  0  0  0  0  0  0
  185.0530  177.8360  144.3620 C   0  0  0  0  0  3  0  0  0  0  0  0
  186.2070  178.3750  146.9410 C   0  0  0  0  0  0  0  0  0  0  0  0
  186.2110  176.9600  146.3950 C   0  0  2  0  0  3  0  0  0  0  0  0
  185.7080  179.3990  146.2450 C   0  0  0  0  0  3  0  0  0  0  0  0
  1  9  1  6  0  0  0
  1  6  1  0  0  0  0
  2 13  2  0  0  0  0
  2  5  1  0  0  0  0
  3  2  1  0  0  0  0
  4  7  2  0  0  0  0
  5 16  2  0  0  0  0
  6 17  1  0  0  0  0
  7  3  1  0  0  0  0
  8 23  1  0  0  0  0
  8 12  2  0  0  0  0
 10 18  2  0  0  0  0
 11  4  1  0  0  0  0
 13  8  1  0  0  0  0
 14  5  1  0  0  0  0
 14  1  1  0  0  0  0
 15 20  2  0  0  0  0
 15  4  1  0  0  0  0
 16 12  1  0  0  0  0
 16 17  1  0  0  0  0
 18 13  1  0  0  0  0
 19 10  1  0  0  0  0
 19  3  2  0  0  0  0
 20 19  1  0  0  0  0
 22 21  2  0  0  0  0
 23 22  1  0  0  0  0
 24 31  1  0  0  0  0
 25 30  1  0  0  0  0
 27 24  2  0  0  0  0
 28 24  1  0  0  0  0
 28 25  2  0  0  0  0
 29 26  1  0  0  0  0
 30 22  1  6  0  0  0
 30 29  1  0  0  0  0
 31 29  2  0  0  0  0
M  END
>  <MODEL>
5

>  <REMARK>
 VINA RESULT:      -8.3      3.195      7.506
  Name = 
  2 active torsions:
  status: ('A' for Active; 'I' for Inactive)
    1  A    between atoms: C_5  and  C_30
    2  A    between atoms: C_10  and  N_16
                            x       y       z     vdW  Elec       q    Type
                         _______ _______ _______ _____ _____    ______ ____

>  <TORSDO>
F 2

$$$$
=
 OpenBabel11112416583D

 31 35  0  0  1  0  0  0  0  0999 V2000
  185.3760  178.1090  146.7550 C   0  0  2  0  0  3  0  0  0  0  0  0
  187.3790  176.7290  143.7690 C   0  0  0  0  0  0  0  0  0  0  0  0
  186.6590  177.1000  142.5970 C   0  0  0  0  0  0  0  0  0  0  0  0
  184.7690  178.0740  141.5350 C   0  0  0  0  0  0  0  0  0  0  0  0
  186.9070  176.9520  145.0980 C   0  0  0  0  0  0  0  0  0  0  0  0
  185.8210  177.0850  147.7830 C   0  0  0  0  0  2  0  0  0  0  0  0
  185.4480  177.7210  142.6580 N   0  0  0  0  0  0  0  0  0  0  0  0
  189.4190  175.7140  144.6950 C   0  0  0  0  0  0  0  0  0  0  0  0
  184.0410  178.4420  146.9760 O   0  0  0  0  0  1  0  0  0  0  0  0
  188.4450  176.2120  141.2190 C   0  0  0  0  0  3  0  0  0  0  0  0
  183.5660  178.6880  141.6390 F   0  0  0  0  0  0  0  0  0  0  0  0
  188.9400  175.9500  145.9830 C   0  0  0  0  0  3  0  0  0  0  0  0
  188.6470  176.1010  143.5900 C   0  0  0  0  0  0  0  0  0  0  0  0
  185.5230  177.5050  145.3650 C   0  0  0  0  0  2  0  0  0  0  0  0
  185.2940  177.8120  140.3110 N   0  0  0  0  0  0  0  0  0  0  0  0
  187.7020  176.5420  146.1950 C   0  0  0  0  0  0  0  0  0  0  0  0
  187.3130  176.8300  147.6210 C   0  0  0  0  0  2  0  0  0  0  0  0
  189.1280  175.8670  142.3380 N   0  0  0  0  0  0  0  0  0  0  0  0
  187.2080  176.8310  141.3290 C   0  0  0  0  0  0  0  0  0  0  0  0
  186.4990  177.2000  140.1890 C   0  0  0  0  0  3  0  0  0  0  0  0
  192.0890  176.9740  144.6550 O   0  0  0  0  0  0  0  0  0  0  0  0
  191.9780  175.7330  144.4630 C   0  0  0  0  0  0  0  0  0  0  0  0
  190.6960  175.0910  144.4790 N   0  0  0  0  0  2  0  0  0  0  0  0
  193.6150  172.1000  144.7510 C   0  0  0  0  0  0  0  0  0  0  0  0
  192.8930  173.8220  143.2000 C   0  0  0  0  0  3  0  0  0  0  0  0
  194.1710  175.3280  146.4810 O   0  0  0  0  0  1  0  0  0  0  0  0
  193.7730  170.8760  144.9980 O   0  0  0  0  0  0  0  0  0  0  0  0
  193.0830  172.5270  143.4540 C   0  0  0  0  0  3  0  0  0  0  0  0
  193.7940  174.4070  145.5120 C   0  0  0  0  0  0  0  0  0  0  0  0
  193.1960  174.9050  144.2110 C   0  0  2  0  0  3  0  0  0  0  0  0
  193.9760  173.1060  145.7540 C   0  0  0  0  0  3  0  0  0  0  0  0
  1  9  1  1  0  0  0
  1  6  1  0  0  0  0
  2  5  1  0  0  0  0
  3  7  1  0  0  0  0
  3  2  1  0  0  0  0
  4 11  1  0  0  0  0
  4  7  2  0  0  0  0
  5 14  1  0  0  0  0
  5 16  2  0  0  0  0
  8 12  2  0  0  0  0
 10 19  1  0  0  0  0
 10 18  2  0  0  0  0
 12 16  1  0  0  0  0
 13  2  2  0  0  0  0
 13  8  1  0  0  0  0
 14  1  1  0  0  0  0
 15  4  1  0  0  0  0
 16 17  1  0  0  0  0
 17  6  1  0  0  0  0
 18 13  1  0  0  0  0
 19  3  2  0  0  0  0
 20 15  2  0  0  0  0
 20 19  1  0  0  0  0
 22 23  1  0  0  0  0
 22 21  2  0  0  0  0
 23  8  1  0  0  0  0
 24 27  2  0  0  0  0
 24 31  1  0  0  0  0
 25 28  2  0  0  0  0
 25 30  1  0  0  0  0
 28 24  1  0  0  0  0
 29 31  2  0  0  0  0
 29 26  1  0  0  0  0
 30 22  1  1  0  0  0
 30 29  1  0  0  0  0
M  END
>  <MODEL>
6

>  <REMARK>
 VINA RESULT:      -8.2      1.662      2.381
  Name = 
  2 active torsions:
  status: ('A' for Active; 'I' for Inactive)
    1  A    between atoms: C_5  and  C_30
    2  A    between atoms: C_10  and  N_16
                            x       y       z     vdW  Elec       q    Type
                         _______ _______ _______ _____ _____    ______ ____

>  <TORSDO>
F 2

$$$$
=
 OpenBabel11112416583D

 31 35  0  0  1  0  0  0  0  0999 V2000
  191.1470  176.6810  146.9920 C   0  0  2  0  0  3  0  0  0  0  0  0
  188.3160  176.2860  144.4120 C   0  0  0  0  0  0  0  0  0  0  0  0
  187.2120  177.0360  144.9090 C   0  0  0  0  0  0  0  0  0  0  0  0
  186.1810  178.3540  146.5980 C   0  0  0  0  0  0  0  0  0  0  0  0
  189.5290  176.0810  145.1350 C   0  0  0  0  0  0  0  0  0  0  0  0
  191.8550  175.3680  146.7140 C   0  0  0  0  0  2  0  0  0  0  0  0
  187.2370  177.6380  146.1320 N   0  0  0  0  0  0  0  0  0  0  0  0
  189.2350  174.9690  142.5490 C   0  0  0  0  0  0  0  0  0  0  0  0
  191.2050  176.9620  148.3560 O   0  0  0  0  0  1  0  0  0  0  0  0
  185.9880  176.5920  142.8640 C   0  0  0  0  0  3  0  0  0  0  0  0
  186.2460  178.9350  147.8200 F   0  0  0  0  0  0  0  0  0  0  0  0
  190.4140  174.7890  143.2720 C   0  0  0  0  0  3  0  0  0  0  0  0
  188.1890  175.7140  143.1110 C   0  0  0  0  0  0  0  0  0  0  0  0
  189.6910  176.5560  146.5630 C   0  0  0  0  0  2  0  0  0  0  0  0
  185.0620  178.4870  145.8410 N   0  0  0  0  0  0  0  0  0  0  0  0
  190.5660  175.3160  144.5480 C   0  0  0  0  0  0  0  0  0  0  0  0
  191.9060  175.1370  145.2100 C   0  0  0  0  0  2  0  0  0  0  0  0
  187.0440  175.8850  142.3940 N   0  0  0  0  0  0  0  0  0  0  0  0
  186.0540  177.1770  144.1210 C   0  0  0  0  0  0  0  0  0  0  0  0
  184.9800  177.9140  144.6140 C   0  0  0  0  0  3  0  0  0  0  0  0
  187.7340  172.5570  141.7460 O   0  0  0  0  0  0  0  0  0  0  0  0
  188.3430  173.2360  140.8760 C   0  0  0  0  0  0  0  0  0  0  0  0
  189.0780  174.4140  141.2330 N   0  0  0  0  0  2  0  0  0  0  0  0
  190.4130  172.9480  137.4710 C   0  0  0  0  0  0  0  0  0  0  0  0
  189.2810  171.6820  139.2060 C   0  0  0  0  0  3  0  0  0  0  0  0
  187.5990  175.0710  138.6120 O   0  0  0  0  0  1  0  0  0  0  0  0
  191.3460  173.0180  136.6300 O   0  0  0  0  0  0  0  0  0  0  0  0
  190.2560  171.7490  138.2980 C   0  0  0  0  0  3  0  0  0  0  0  0
  188.4860  174.0050  138.5220 C   0  0  0  0  0  0  0  0  0  0  0  0
  188.3080  172.8140  139.4430 C   0  0  2  0  0  3  0  0  0  0  0  0
  189.4680  174.0590  137.6190 C   0  0  0  0  0  3  0  0  0  0  0  0
  1  9  1  1  0  0  0
  2  3  1  0  0  0  0
  2  5  1  0  0  0  0
  3  7  1  0  0  0  0
  4 11  1  0  0  0  0
  5 14  1  0  0  0  0
  6  1  1  0  0  0  0
  7  4  2  0  0  0  0
  8 13  1  0  0  0  0
  8 12  2  0  0  0  0
 10 19  1  0  0  0  0
 12 16  1  0  0  0  0
 13  2  2  0  0  0  0
 14  1  1  0  0  0  0
 15  4  1  0  0  0  0
 16  5  2  0  0  0  0
 16 17  1  0  0  0  0
 17  6  1  0  0  0  0
 18 10  2  0  0  0  0
 18 13  1  0  0  0  0
 19 20  1  0  0  0  0
 19  3  2  0  0  0  0
 20 15  2  0  0  0  0
 22 23  1  0  0  0  0
 22 21  2  0  0  0  0
 23  8  1  0  0  0  0
 24 31  1  0  0  0  0
 24 28  1  0  0  0  0
 25 30  1  0  0  0  0
 27 24  2  0  0  0  0
 28 25  2  0  0  0  0
 29 26  1  0  0  0  0
 29 30  1  0  0  0  0
 30 22  1  1  0  0  0
 31 29  2  0  0  0  0
M  END
>  <MODEL>
7

>  <REMARK>
 VINA RESULT:      -8.1      3.996      6.460
  Name = 
  2 active torsions:
  status: ('A' for Active; 'I' for Inactive)
    1  A    between atoms: C_5  and  C_30
    2  A    between atoms: C_10  and  N_16
                            x       y       z     vdW  Elec       q    Type
                         _______ _______ _______ _____ _____    ______ ____

>  <TORSDO>
F 2

$$$$
=
 OpenBabel11112416583D

 31 35  0  0  1  0  0  0  0  0999 V2000
  186.0500  178.0170  146.1200 C   0  0  2  0  0  3  0  0  0  0  0  0
  189.1010  176.2600  144.5610 C   0  0  0  0  0  0  0  0  0  0  0  0
  190.1410  176.3210  145.5340 C   0  0  0  0  0  0  0  0  0  0  0  0
  190.9910  177.0530  147.6290 C   0  0  0  0  0  0  0  0  0  0  0  0
  187.8350  176.9020  144.7070 C   0  0  0  0  0  0  0  0  0  0  0  0
  185.4000  178.4720  144.8270 C   0  0  0  0  0  2  0  0  0  0  0  0
  189.9960  177.0010  146.7050 N   0  0  0  0  0  0  0  0  0  0  0  0
  188.3770  175.3890  142.3780 C   0  0  0  0  0  0  0  0  0  0  0  0
  185.8680  178.9900  147.1010 O   0  0  0  0  0  1  0  0  0  0  0  0
  191.5460  174.9410  144.1200 C   0  0  0  0  0  3  0  0  0  0  0  0
  190.8070  177.7420  148.7810 F   0  0  0  0  0  0  0  0  0  0  0  0
  187.1450  176.0190  142.5470 C   0  0  0  0  0  3  0  0  0  0  0  0
  189.3530  175.5040  143.3770 C   0  0  0  0  0  0  0  0  0  0  0  0
  187.5400  177.8150  145.8770 C   0  0  0  0  0  2  0  0  0  0  0  0
  192.1680  176.4170  147.3990 N   0  0  0  0  0  0  0  0  0  0  0  0
  186.8710  176.7790  143.6770 C   0  0  0  0  0  0  0  0  0  0  0  0
  185.4840  177.3480  143.8030 C   0  0  0  0  0  2  0  0  0  0  0  0
  190.5510  174.8810  143.2020 N   0  0  0  0  0  0  0  0  0  0  0  0
  191.3590  175.6570  145.2940 C   0  0  0  0  0  0  0  0  0  0  0  0
  192.3680  175.7210  146.2510 C   0  0  0  0  0  3  0  0  0  0  0  0
  187.4410  172.6700  141.7070 O   0  0  0  0  0  0  0  0  0  0  0  0
  188.1910  173.2910  140.9060 C   0  0  0  0  0  0  0  0  0  0  0  0
  188.6600  174.6130  141.2010 N   0  0  0  0  0  2  0  0  0  0  0  0
  191.1220  172.8810  138.2220 C   0  0  0  0  0  0  0  0  0  0  0  0
  189.7700  171.7090  139.8630 C   0  0  0  0  0  3  0  0  0  0  0  0
  187.8160  174.5540  138.2020 O   0  0  0  0  0  1  0  0  0  0  0  0
  192.2260  173.0010  137.6290 O   0  0  0  0  0  0  0  0  0  0  0  0
  190.9320  171.8240  139.2170 C   0  0  0  0  0  3  0  0  0  0  0  0
  188.8460  173.6870  138.5460 C   0  0  0  0  0  0  0  0  0  0  0  0
  188.6090  172.6470  139.6240 C   0  0  2  0  0  3  0  0  0  0  0  0
  190.0150  173.7910  137.9100 C   0  0  0  0  0  3  0  0  0  0  0  0
  1  9  1  1  0  0  0
  2  5  1  0  0  0  0
  2  3  2  0  0  0  0
  3  7  1  0  0  0  0
  4 11  1  0  0  0  0
  5 14  1  0  0  0  0
  6  1  1  0  0  0  0
  7  4  2  0  0  0  0
  8 12  2  0  0  0  0
  8 13  1  0  0  0  0
 10 19  2  0  0  0  0
 12 16  1  0  0  0  0
 13  2  1  0  0  0  0
 14  1  1  0  0  0  0
 15  4  1  0  0  0  0
 16 17  1  0  0  0  0
 16  5  2  0  0  0  0
 17  6  1  0  0  0  0
 18 13  2  0  0  0  0
 18 10  1  0  0  0  0
 19  3  1  0  0  0  0
 19 20  1  0  0  0  0
 20 15  2  0  0  0  0
 22 23  1  0  0  0  0
 22 21  2  0  0  0  0
 23  8  1  0  0  0  0
 24 28  1  0  0  0  0
 26 29  1  0  0  0  0
 27 24  2  0  0  0  0
 28 25  2  0  0  0  0
 29 30  1  0  0  0  0
 30 25  1  0  0  0  0
 30 22  1  1  0  0  0
 31 24  1  0  0  0  0
 31 29  2  0  0  0  0
M  END
>  <MODEL>
8

>  <REMARK>
 VINA RESULT:      -7.9      4.046      6.316
  Name = 
  2 active torsions:
  status: ('A' for Active; 'I' for Inactive)
    1  A    between atoms: C_5  and  C_30
    2  A    between atoms: C_10  and  N_16
                            x       y       z     vdW  Elec       q    Type
                         _______ _______ _______ _____ _____    ______ ____

>  <TORSDO>
F 2

$$$$
=
 OpenBabel11112416583D

 31 35  0  0  1  0  0  0  0  0999 V2000
  187.5550  176.9500  146.7860 C   0  0  2  0  0  3  0  0  0  0  0  0
  187.3950  176.4640  142.9690 C   0  0  0  0  0  0  0  0  0  0  0  0
  186.2690  177.2100  142.5170 C   0  0  0  0  0  0  0  0  0  0  0  0
  184.3510  178.5500  142.9410 C   0  0  0  0  0  0  0  0  0  0  0  0
  187.7330  176.2900  144.3450 C   0  0  0  0  0  0  0  0  0  0  0  0
  188.2430  175.6410  147.1250 C   0  0  0  0  0  2  0  0  0  0  0  0
  185.4220  177.8380  143.3800 N   0  0  0  0  0  0  0  0  0  0  0  0
  189.3580  175.1210  142.3440 C   0  0  0  0  0  0  0  0  0  0  0  0
  186.6280  177.2600  147.7800 O   0  0  0  0  0  1  0  0  0  0  0  0
  186.8590  176.7080  140.2200 C   0  0  0  0  0  3  0  0  0  0  0  0
  183.5320  179.1570  143.8320 F   0  0  0  0  0  0  0  0  0  0  0  0
  189.6730  174.9710  143.6940 C   0  0  0  0  0  3  0  0  0  0  0  0
  188.2260  175.8640  141.9780 C   0  0  0  0  0  0  0  0  0  0  0  0
  186.8350  176.7970  145.4530 C   0  0  0  0  0  2  0  0  0  0  0  0
  184.1020  178.6530  141.6100 N   0  0  0  0  0  0  0  0  0  0  0  0
  188.8750  175.5260  144.6880 C   0  0  0  0  0  0  0  0  0  0  0  0
  189.3470  175.3790  146.1090 C   0  0  0  0  0  2  0  0  0  0  0  0
  187.9310  176.0040  140.6560 N   0  0  0  0  0  0  0  0  0  0  0  0
  186.0150  177.3190  141.1360 C   0  0  0  0  0  0  0  0  0  0  0  0
  184.9130  178.0530  140.7030 C   0  0  0  0  0  3  0  0  0  0  0  0
  189.3450  172.3400  141.3510 O   0  0  0  0  0  0  0  0  0  0  0  0
  190.1500  173.1780  140.8620 C   0  0  0  0  0  0  0  0  0  0  0  0
  190.1790  174.5360  141.3200 N   0  0  0  0  0  2  0  0  0  0  0  0
  192.5450  174.4130  137.9120 C   0  0  0  0  0  0  0  0  0  0  0  0
  192.4820  173.3000  140.0690 C   0  0  0  0  0  3  0  0  0  0  0  0
  189.3160  172.5990  138.0300 O   0  0  0  0  0  1  0  0  0  0  0  0
  193.1620  175.1550  137.1050 O   0  0  0  0  0  0  0  0  0  0  0  0
  193.1450  174.0680  139.2030 C   0  0  0  0  0  3  0  0  0  0  0  0
  190.5520  173.1040  138.4150 C   0  0  0  0  0  0  0  0  0  0  0  0
  191.0990  172.7590  139.7860 C   0  0  2  0  0  3  0  0  0  0  0  0
  191.2270  173.8770  137.5590 C   0  0  0  0  0  3  0  0  0  0  0  0
  1  6  1  0  0  0  0
  1  9  1  1  0  0  0
  2  5  1  0  0  0  0
  3  2  1  0  0  0  0
  3  7  1  0  0  0  0
  4  7  2  0  0  0  0
  4 11  1  0  0  0  0
  5 16  2  0  0  0  0
  5 14  1  0  0  0  0
  8 12  2  0  0  0  0
 10 18  2  0  0  0  0
 10 19  1  0  0  0  0
 12 16  1  0  0  0  0
 13  8  1  0  0  0  0
 13  2  2  0  0  0  0
 14  1  1  0  0  0  0
 15  4  1  0  0  0  0
 16 17  1  0  0  0  0
 17  6  1  0  0  0  0
 18 13  1  0  0  0  0
 19  3  2  0  0  0  0
 20 19  1  0  0  0  0
 20 15  2  0  0  0  0
 22 23  1  0  0  0  0
 22 21  2  0  0  0  0
 23  8  1  0  0  0  0
 24 28  1  0  0  0  0
 26 29  1  0  0  0  0
 27 24  2  0  0  0  0
 28 25  2  0  0  0  0
 29 30  1  0  0  0  0
 30 25  1  0  0  0  0
 30 22  1  1  0  0  0
 31 24  1  0  0  0  0
 31 29  2  0  0  0  0
M  END
>  <MODEL>
9

>  <REMARK>
 VINA RESULT:      -7.7      3.640      4.917
  Name = 
  2 active torsions:
  status: ('A' for Active; 'I' for Inactive)
    1  A    between atoms: C_5  and  C_30
    2  A    between atoms: C_10  and  N_16
                            x       y       z     vdW  Elec       q    Type
                         _______ _______ _______ _____ _____    ______ ____

>  <TORSDO>
F 2

$$$$
