=
 OpenBabel11112417063D

 31 35  0  0  1  0  0  0  0  0999 V2000
  184.5870  178.2260  146.5440 C   0  0  0  0  0  0  0  0  0  0  0  0
  187.3140  176.3730  144.7430 N   0  0  0  0  0  0  0  0  0  0  0  0
  187.1440  176.5700  143.3160 C   0  0  0  0  0  0  0  0  0  0  0  0
  185.9550  177.5240  141.4170 C   0  0  0  0  0  0  0  0  0  0  0  0
  186.6190  177.1890  145.7080 C   0  0  0  0  0  0  0  0  0  0  0  0
  185.3040  178.7940  147.5990 C   0  0  0  0  0  3  0  0  0  0  0  0
  186.0580  177.2900  142.7910 C   0  0  0  0  0  3  0  0  0  0  0  0
  189.4730  176.7430  145.8120 C   0  0  2  0  0  3  0  0  0  0  0  0
  183.2560  178.4530  146.4320 F   0  0  0  0  0  0  0  0  0  0  0  0
  189.2150  175.3780  142.9330 O   0  0  0  0  0  0  0  0  0  0  0  0
  184.7980  178.2840  140.8780 C   0  0  0  0  0  1  0  0  0  0  0  0
  188.8030  177.4610  146.9940 C   0  0  0  0  0  2  0  0  0  0  0  0
  188.5140  175.6930  145.2530 C   0  0  2  0  0  3  0  0  0  0  0  0
  185.2390  177.4250  145.6050 C   0  0  0  0  0  3  0  0  0  0  0  0
  186.9480  177.0560  140.5530 C   0  0  0  0  0  3  0  0  0  0  0  0
  187.3400  177.7590  146.7830 C   0  0  0  0  0  0  0  0  0  0  0  0
  186.6750  178.5560  147.7210 C   0  0  0  0  0  3  0  0  0  0  0  0
  189.1550  174.7640  144.2150 C   0  0  0  0  0  2  0  0  0  0  0  0
  188.1290  176.0920  142.4340 C   0  0  0  0  0  0  0  0  0  0  0  0
  188.0360  176.3430  141.0620 C   0  0  0  0  0  3  0  0  0  0  0  0
  192.0490  177.1500  144.6540 O   0  0  0  0  0  0  0  0  0  0  0  0
  191.9700  176.3740  145.6460 C   0  0  0  0  0  0  0  0  0  0  0  0
  190.7080  176.1190  146.2650 N   0  0  0  0  0  2  0  0  0  0  0  0
  195.5730  176.1560  144.4970 C   0  0  1  0  0  3  0  0  0  0  0  0
  194.2820  176.7080  146.5780 C   0  0  0  0  0  2  0  0  0  0  0  0
  192.7590  173.7300  144.8500 O   0  0  0  0  0  1  0  0  0  0  0  0
  196.2040  176.6990  143.3800 O   0  0  0  0  0  1  0  0  0  0  0  0
  194.9890  177.2800  145.3480 C   0  0  0  0  0  2  0  0  0  0  0  0
  193.7630  174.6090  145.2600 C   0  0  2  0  0  3  0  0  0  0  0  0
  193.1970  175.6980  146.1870 C   0  0  2  0  0  3  0  0  0  0  0  0
  194.4670  175.2070  144.0450 C   0  0  0  0  0  2  0  0  0  0  0  0
  1  6  1  0  0  0  0
  2 13  1  0  0  0  0
  2  5  1  0  0  0  0
  3  2  1  0  0  0  0
  4  7  2  0  0  0  0
  5 16  2  0  0  0  0
  6 17  2  0  0  0  0
  7  3  1  0  0  0  0
  8 23  1  1  0  0  0
  8 12  1  0  0  0  0
  9  1  1  0  0  0  0
 10 18  1  0  0  0  0
 11  4  1  0  0  0  0
 13 18  1  6  0  0  0
 13  8  1  0  0  0  0
 14  5  1  0  0  0  0
 14  1  2  0  0  0  0
 15 20  2  0  0  0  0
 15  4  1  0  0  0  0
 16 12  1  0  0  0  0
 16 17  1  0  0  0  0
 19 10  1  0  0  0  0
 19  3  2  0  0  0  0
 20 19  1  0  0  0  0
 21 22  2  0  0  0  0
 22 23  1  0  0  0  0
 24 27  1  6  0  0  0
 24 28  1  0  0  0  0
 28 25  1  0  0  0  0
 29 26  1  6  0  0  0
 29 30  1  0  0  0  0
 30 22  1  6  0  0  0
 30 25  1  0  0  0  0
 31 24  1  0  0  0  0
 31 29  1  0  0  0  0
M  END
>  <MODEL>
1

>  <REMARK>
 VINA RESULT:      -9.4      0.000      0.000
  Name = 
  2 active torsions:
  status: ('A' for Active; 'I' for Inactive)
    1  A    between atoms: C_5  and  C_30
    2  A    between atoms: C_10  and  N_16
                            x       y       z     vdW  Elec       q    Type
                         _______ _______ _______ _____ _____    ______ ____

>  <TORSDO>
F 2

$$$$
=
 OpenBabel11112417063D

 31 35  0  0  1  0  0  0  0  0999 V2000
  184.8410  177.7140  146.6340 C   0  0  0  0  0  0  0  0  0  0  0  0
  187.2840  176.4240  144.0880 N   0  0  0  0  0  0  0  0  0  0  0  0
  186.8080  176.7820  142.7650 C   0  0  0  0  0  0  0  0  0  0  0  0
  185.1780  177.8330  141.2930 C   0  0  0  0  0  0  0  0  0  0  0  0
  186.7370  177.0270  145.2790 C   0  0  0  0  0  0  0  0  0  0  0  0
  185.7100  178.2180  147.6040 C   0  0  0  0  0  3  0  0  0  0  0  0
  185.5800  177.4380  142.5710 C   0  0  0  0  0  3  0  0  0  0  0  0
  189.5780  176.8930  144.7640 C   0  0  2  0  0  3  0  0  0  0  0  0
  183.5020  177.8030  146.8150 F   0  0  0  0  0  0  0  0  0  0  0  0
  188.8480  175.8880  141.8190 O   0  0  0  0  0  0  0  0  0  0  0  0
  183.8750  178.5210  141.1050 C   0  0  0  0  0  1  0  0  0  0  0  0
  189.1090  177.3740  146.1460 C   0  0  0  0  0  2  0  0  0  0  0  0
  188.6160  175.8230  144.2510 C   0  0  2  0  0  3  0  0  0  0  0  0
  185.3510  177.1170  145.4790 C   0  0  0  0  0  3  0  0  0  0  0  0
  186.0070  177.5930  140.1950 C   0  0  0  0  0  3  0  0  0  0  0  0
  187.6130  177.5310  146.2670 C   0  0  0  0  0  0  0  0  0  0  0  0
  187.0920  178.1210  147.4230 C   0  0  0  0  0  3  0  0  0  0  0  0
  189.1050  175.1120  142.9830 C   0  0  0  0  0  2  0  0  0  0  0  0
  187.6270  176.5340  141.6490 C   0  0  0  0  0  0  0  0  0  0  0  0
  187.2320  176.9470  140.3740 C   0  0  0  0  0  3  0  0  0  0  0  0
  191.9300  178.1180  143.7110 O   0  0  0  0  0  0  0  0  0  0  0  0
  192.0670  177.0280  144.3310 C   0  0  0  0  0  0  0  0  0  0  0  0
  190.9280  176.3580  144.8740 N   0  0  0  0  0  2  0  0  0  0  0  0
  193.3020  173.4760  144.7830 C   0  0  1  0  0  3  0  0  0  0  0  0
  193.7810  175.4750  143.3420 C   0  0  0  0  0  2  0  0  0  0  0  0
  193.2310  176.5420  146.9100 O   0  0  0  0  0  1  0  0  0  0  0  0
  192.6030  172.2740  144.8530 O   0  0  0  0  0  1  0  0  0  0  0  0
  193.0290  174.1460  143.4400 C   0  0  0  0  0  2  0  0  0  0  0  0
  193.6200  175.7110  145.8580 C   0  0  2  0  0  3  0  0  0  0  0  0
  193.4250  176.4120  144.5030 C   0  0  2  0  0  3  0  0  0  0  0  0
  192.8650  174.3870  145.9260 C   0  0  0  0  0  2  0  0  0  0  0  0
  1  9  1  0  0  0  0
  1  6  1  0  0  0  0
  2 13  1  0  0  0  0
  2  5  1  0  0  0  0
  3  2  1  0  0  0  0
  4  7  2  0  0  0  0
  5 14  1  0  0  0  0
  5 16  2  0  0  0  0
  7  3  1  0  0  0  0
  8 23  1  1  0  0  0
  8 12  1  0  0  0  0
 10 18  1  0  0  0  0
 11  4  1  0  0  0  0
 12 16  1  0  0  0  0
 13 18  1  6  0  0  0
 13  8  1  0  0  0  0
 14  1  2  0  0  0  0
 15 20  2  0  0  0  0
 15  4  1  0  0  0  0
 16 17  1  0  0  0  0
 17  6  2  0  0  0  0
 19 10  1  0  0  0  0
 19  3  2  0  0  0  0
 20 19  1  0  0  0  0
 21 22  2  0  0  0  0
 22 23  1  0  0  0  0
 24 27  1  6  0  0  0
 24 31  1  0  0  0  0
 25 28  1  0  0  0  0
 25 30  1  0  0  0  0
 28 24  1  0  0  0  0
 29 31  1  0  0  0  0
 29 26  1  1  0  0  0
 30 22  1  6  0  0  0
 30 29  1  0  0  0  0
M  END
>  <MODEL>
2

>  <REMARK>
 VINA RESULT:      -9.0      1.321      1.988
  Name = 
  2 active torsions:
  status: ('A' for Active; 'I' for Inactive)
    1  A    between atoms: C_5  and  C_30
    2  A    between atoms: C_10  and  N_16
                            x       y       z     vdW  Elec       q    Type
                         _______ _______ _______ _____ _____    ______ ____

>  <TORSDO>
F 2

$$$$
=
 OpenBabel11112417063D

 31 35  0  0  1  0  0  0  0  0999 V2000
  185.9090  178.2470  140.9050 C   0  0  0  0  0  0  0  0  0  0  0  0
  188.1000  177.8130  143.9270 N   0  0  0  0  0  0  0  0  0  0  0  0
  187.2820  177.9480  145.1160 C   0  0  0  0  0  0  0  0  0  0  0  0
  185.1340  178.3230  146.2010 C   0  0  0  0  0  0  0  0  0  0  0  0
  187.5140  177.6280  142.6210 C   0  0  0  0  0  0  0  0  0  0  0  0
  186.3920  177.2300  140.0790 C   0  0  0  0  0  3  0  0  0  0  0  0
  185.9150  178.2670  145.0440 C   0  0  0  0  0  3  0  0  0  0  0  0
  189.6040  175.9160  143.6480 C   0  0  2  0  0  3  0  0  0  0  0  0
  184.8960  179.0390  140.4800 F   0  0  0  0  0  0  0  0  0  0  0  0
  189.2000  177.3630  146.4690 O   0  0  0  0  0  0  0  0  0  0  0  0
  183.6910  178.6660  146.1080 C   0  0  0  0  0  1  0  0  0  0  0  0
  189.1890  175.7590  142.1770 C   0  0  0  0  0  2  0  0  0  0  0  0
  189.5030  177.3880  144.0450 C   0  0  2  0  0  3  0  0  0  0  0  0
  186.4690  178.4490  142.1680 C   0  0  0  0  0  3  0  0  0  0  0  0
  185.7070  178.0430  147.4440 C   0  0  0  0  0  3  0  0  0  0  0  0
  188.0060  176.6050  141.7780 C   0  0  0  0  0  0  0  0  0  0  0  0
  187.4410  176.4160  140.5130 C   0  0  0  0  0  3  0  0  0  0  0  0
  190.1020  177.6980  145.4220 C   0  0  0  0  0  2  0  0  0  0  0  0
  187.8490  177.6830  146.3750 C   0  0  0  0  0  0  0  0  0  0  0  0
  187.0630  177.7200  147.5300 C   0  0  0  0  0  3  0  0  0  0  0  0
  190.3820  173.7100  145.2820 O   0  0  0  0  0  0  0  0  0  0  0  0
  191.2890  174.3130  144.6450 C   0  0  0  0  0  0  0  0  0  0  0  0
  190.9680  175.4330  143.8180 N   0  0  0  0  0  2  0  0  0  0  0  0
  194.5620  176.1340  145.2120 C   0  0  1  0  0  3  0  0  0  0  0  0
  193.3080  174.1650  146.1380 C   0  0  0  0  0  2  0  0  0  0  0  0
  193.0530  174.2250  142.3820 O   0  0  0  0  0  1  0  0  0  0  0  0
  194.8280  177.4890  145.3880 O   0  0  0  0  0  1  0  0  0  0  0  0
  193.6230  175.6520  146.3140 C   0  0  0  0  0  2  0  0  0  0  0  0
  193.6240  174.4310  143.6390 C   0  0  2  0  0  3  0  0  0  0  0  0
  192.7200  173.8730  144.7520 C   0  0  2  0  0  3  0  0  0  0  0  0
  193.9260  175.9140  143.8430 C   0  0  0  0  0  2  0  0  0  0  0  0
  1 14  1  0  0  0  0
  2 13  1  0  0  0  0
  2  3  1  0  0  0  0
  3 19  1  0  0  0  0
  4 15  2  0  0  0  0
  5  2  1  0  0  0  0
  6 17  1  0  0  0  0
  6  1  2  0  0  0  0
  7  3  2  0  0  0  0
  7  4  1  0  0  0  0
  8 23  1  6  0  0  0
  8 13  1  0  0  0  0
  9  1  1  0  0  0  0
 11  4  1  0  0  0  0
 12  8  1  0  0  0  0
 13 18  1  1  0  0  0
 14  5  2  0  0  0  0
 15 20  1  0  0  0  0
 16 12  1  0  0  0  0
 16  5  1  0  0  0  0
 17 16  2  0  0  0  0
 18 10  1  0  0  0  0
 19 10  1  0  0  0  0
 19 20  2  0  0  0  0
 22 21  2  0  0  0  0
 23 22  1  0  0  0  0
 24 27  1  1  0  0  0
 24 28  1  0  0  0  0
 25 28  1  0  0  0  0
 29 26  1  6  0  0  0
 29 31  1  0  0  0  0
 29 30  1  0  0  0  0
 30 22  1  1  0  0  0
 30 25  1  0  0  0  0
 31 24  1  0  0  0  0
M  END
>  <MODEL>
3

>  <REMARK>
 VINA RESULT:      -8.6      1.893      4.211
  Name = 
  2 active torsions:
  status: ('A' for Active; 'I' for Inactive)
    1  A    between atoms: C_5  and  C_30
    2  A    between atoms: C_10  and  N_16
                            x       y       z     vdW  Elec       q    Type
                         _______ _______ _______ _____ _____    ______ ____

>  <TORSDO>
F 2

$$$$
=
 OpenBabel11112417063D

 31 35  0  0  1  0  0  0  0  0999 V2000
  184.6280  178.2790  146.1220 C   0  0  0  0  0  0  0  0  0  0  0  0
  186.9160  176.4300  143.7840 N   0  0  0  0  0  0  0  0  0  0  0  0
  186.5600  176.7720  142.4200 C   0  0  0  0  0  0  0  0  0  0  0  0
  185.1900  177.9760  140.8070 C   0  0  0  0  0  0  0  0  0  0  0  0
  186.4320  177.1950  144.9070 C   0  0  0  0  0  0  0  0  0  0  0  0
  185.5310  178.6970  147.1020 C   0  0  0  0  0  3  0  0  0  0  0  0
  185.4690  177.6070  142.1250 C   0  0  0  0  0  3  0  0  0  0  0  0
  189.2270  176.5560  144.5450 C   0  0  2  0  0  3  0  0  0  0  0  0
  183.3170  178.6020  146.2300 F   0  0  0  0  0  0  0  0  0  0  0  0
  188.4540  175.4880  141.6340 O   0  0  0  0  0  0  0  0  0  0  0  0
  184.0300  178.8570  140.5120 C   0  0  0  0  0  1  0  0  0  0  0  0
  188.7930  177.2010  145.8700 C   0  0  0  0  0  2  0  0  0  0  0  0
  188.1190  175.6280  144.0500 C   0  0  2  0  0  3  0  0  0  0  0  0
  185.0740  177.5290  145.0320 C   0  0  0  0  0  3  0  0  0  0  0  0
  186.0090  177.5280  139.7680 C   0  0  0  0  0  3  0  0  0  0  0  0
  187.3420  177.6130  145.9060 C   0  0  0  0  0  0  0  0  0  0  0  0
  186.8830  178.3590  146.9960 C   0  0  0  0  0  3  0  0  0  0  0  0
  188.5300  174.7610  142.8540 C   0  0  0  0  0  2  0  0  0  0  0  0
  187.3680  176.3150  141.3640 C   0  0  0  0  0  0  0  0  0  0  0  0
  187.0990  176.7010  140.0480 C   0  0  0  0  0  3  0  0  0  0  0  0
  191.4810  176.5720  142.7960 O   0  0  0  0  0  0  0  0  0  0  0  0
  191.5600  175.8730  143.8420 C   0  0  0  0  0  0  0  0  0  0  0  0
  190.4620  175.8120  144.7550 N   0  0  0  0  0  2  0  0  0  0  0  0
  194.5760  176.4660  146.0540 C   0  0  1  0  0  3  0  0  0  0  0  0
  192.8750  174.6720  145.6190 C   0  0  0  0  0  2  0  0  0  0  0  0
  194.0030  176.2150  142.3750 O   0  0  0  0  0  1  0  0  0  0  0  0
  194.9000  177.5420  146.8780 O   0  0  0  0  0  1  0  0  0  0  0  0
  193.2580  175.8520  146.5140 C   0  0  0  0  0  2  0  0  0  0  0  0
  194.0990  175.7800  143.6980 C   0  0  2  0  0  3  0  0  0  0  0  0
  192.8020  175.0840  144.1430 C   0  0  2  0  0  3  0  0  0  0  0  0
  194.4590  176.9480  144.6120 C   0  0  0  0  0  2  0  0  0  0  0  0
  1  9  1  0  0  0  0
  1  6  1  0  0  0  0
  2 13  1  0  0  0  0
  2  5  1  0  0  0  0
  3  2  1  0  0  0  0
  4  7  2  0  0  0  0
  5 14  1  0  0  0  0
  5 16  2  0  0  0  0
  7  3  1  0  0  0  0
  8 23  1  1  0  0  0
  8 12  1  0  0  0  0
 10 18  1  0  0  0  0
 11  4  1  0  0  0  0
 12 16  1  0  0  0  0
 13 18  1  6  0  0  0
 13  8  1  0  0  0  0
 14  1  2  0  0  0  0
 15 20  2  0  0  0  0
 15  4  1  0  0  0  0
 16 17  1  0  0  0  0
 17  6  2  0  0  0  0
 19 10  1  0  0  0  0
 19  3  2  0  0  0  0
 20 19  1  0  0  0  0
 21 22  2  0  0  0  0
 22 23  1  0  0  0  0
 24 28  1  0  0  0  0
 24 27  1  1  0  0  0
 25 28  1  0  0  0  0
 29 26  1  6  0  0  0
 29 30  1  0  0  0  0
 29 31  1  0  0  0  0
 30 22  1  1  0  0  0
 30 25  1  0  0  0  0
 31 24  1  0  0  0  0
M  END
>  <MODEL>
4

>  <REMARK>
 VINA RESULT:      -8.3      1.304      1.711
  Name = 
  2 active torsions:
  status: ('A' for Active; 'I' for Inactive)
    1  A    between atoms: C_5  and  C_30
    2  A    between atoms: C_10  and  N_16
                            x       y       z     vdW  Elec       q    Type
                         _______ _______ _______ _____ _____    ______ ____

>  <TORSDO>
F 2

$$$$
=
 OpenBabel11112417063D

 31 35  0  0  1  0  0  0  0  0999 V2000
  194.3930  176.4250  145.0780 C   0  0  0  0  0  0  0  0  0  0  0  0
  190.9200  176.4460  143.6450 N   0  0  0  0  0  0  0  0  0  0  0  0
  190.8540  175.4700  142.5740 C   0  0  0  0  0  0  0  0  0  0  0  0
  191.8770  173.7580  141.1770 C   0  0  0  0  0  0  0  0  0  0  0  0
  192.0140  176.4670  144.5840 C   0  0  0  0  0  0  0  0  0  0  0  0
  194.1160  176.4970  146.4440 C   0  0  0  0  0  3  0  0  0  0  0  0
  191.9840  174.7410  142.1640 C   0  0  0  0  0  3  0  0  0  0  0  0
  189.2460  176.4790  145.4160 C   0  0  2  0  0  3  0  0  0  0  0  0
  195.6770  176.3670  144.6500 F   0  0  0  0  0  0  0  0  0  0  0  0
  188.4810  175.8980  142.3670 O   0  0  0  0  0  0  0  0  0  0  0  0
  193.0820  172.9990  140.7530 C   0  0  0  0  0  1  0  0  0  0  0  0
  190.3290  176.7030  146.4820 C   0  0  0  0  0  2  0  0  0  0  0  0
  189.6940  177.1180  144.1020 C   0  0  2  0  0  3  0  0  0  0  0  0
  193.3490  176.4140  144.1510 C   0  0  0  0  0  3  0  0  0  0  0  0
  190.6360  173.4790  140.6010 C   0  0  0  0  0  3  0  0  0  0  0  0
  191.7390  176.5480  145.9690 C   0  0  0  0  0  0  0  0  0  0  0  0
  192.7930  176.5640  146.8880 C   0  0  0  0  0  3  0  0  0  0  0  0
  188.6010  177.1510  143.0280 C   0  0  0  0  0  2  0  0  0  0  0  0
  189.6130  175.1890  141.9750 C   0  0  0  0  0  0  0  0  0  0  0  0
  189.5050  174.1920  141.0020 C   0  0  0  0  0  3  0  0  0  0  0  0
  187.6410  175.4950  147.5590 O   0  0  0  0  0  0  0  0  0  0  0  0
  187.2420  176.5310  146.9590 C   0  0  0  0  0  0  0  0  0  0  0  0
  187.9940  177.0690  145.8700 N   0  0  0  0  0  2  0  0  0  0  0  0
  185.0550  179.1910  145.3820 C   0  0  1  0  0  3  0  0  0  0  0  0
  184.8190  176.9090  146.4030 C   0  0  0  0  0  2  0  0  0  0  0  0
  187.2100  179.0000  148.4240 O   0  0  0  0  0  1  0  0  0  0  0  0
  185.1920  179.8840  144.1820 O   0  0  0  0  0  1  0  0  0  0  0  0
  184.9610  177.6950  145.0980 C   0  0  0  0  0  2  0  0  0  0  0  0
  186.1200  178.7250  147.5960 C   0  0  2  0  0  3  0  0  0  0  0  0
  185.9690  177.2110  147.3710 C   0  0  2  0  0  3  0  0  0  0  0  0
  186.2550  179.4830  146.2780 C   0  0  0  0  0  2  0  0  0  0  0  0
  1  6  1  0  0  0  0
  2 13  1  0  0  0  0
  2  5  1  0  0  0  0
  3  2  1  0  0  0  0
  4  7  2  0  0  0  0
  5 16  2  0  0  0  0
  6 17  2  0  0  0  0
  7  3  1  0  0  0  0
  8 23  1  1  0  0  0
  8 12  1  0  0  0  0
  9  1  1  0  0  0  0
 10 18  1  0  0  0  0
 11  4  1  0  0  0  0
 13 18  1  6  0  0  0
 13  8  1  0  0  0  0
 14  5  1  0  0  0  0
 14  1  2  0  0  0  0
 15 20  2  0  0  0  0
 15  4  1  0  0  0  0
 16 12  1  0  0  0  0
 16 17  1  0  0  0  0
 19 10  1  0  0  0  0
 19  3  2  0  0  0  0
 20 19  1  0  0  0  0
 22 21  2  0  0  0  0
 23 22  1  0  0  0  0
 24 27  1  6  0  0  0
 24 31  1  0  0  0  0
 25 30  1  0  0  0  0
 28 24  1  0  0  0  0
 28 25  1  0  0  0  0
 29 26  1  1  0  0  0
 30 22  1  6  0  0  0
 30 29  1  0  0  0  0
 31 29  1  0  0  0  0
M  END
>  <MODEL>
5

>  <REMARK>
 VINA RESULT:      -8.2      3.480      7.155
  Name = 
  2 active torsions:
  status: ('A' for Active; 'I' for Inactive)
    1  A    between atoms: C_5  and  C_30
    2  A    between atoms: C_10  and  N_16
                            x       y       z     vdW  Elec       q    Type
                         _______ _______ _______ _____ _____    ______ ____

>  <TORSDO>
F 2

$$$$
=
 OpenBabel11112417063D

 31 35  0  0  1  0  0  0  0  0999 V2000
  185.8580  178.2450  147.1920 C   0  0  0  0  0  0  0  0  0  0  0  0
  188.1000  176.1400  145.0320 N   0  0  0  0  0  0  0  0  0  0  0  0
  187.7230  176.3340  143.6450 C   0  0  0  0  0  0  0  0  0  0  0  0
  186.3310  177.3650  141.9330 C   0  0  0  0  0  0  0  0  0  0  0  0
  187.6380  177.0250  146.0740 C   0  0  0  0  0  0  0  0  0  0  0  0
  186.7790  178.7600  148.1070 C   0  0  0  0  0  3  0  0  0  0  0  0
  186.6310  177.1400  143.2790 C   0  0  0  0  0  3  0  0  0  0  0  0
  190.4240  176.3350  145.7390 C   0  0  2  0  0  3  0  0  0  0  0  0
  184.5500  178.5840  147.2850 F   0  0  0  0  0  0  0  0  0  0  0  0
  189.5990  174.9630  142.9720 O   0  0  0  0  0  0  0  0  0  0  0  0
  185.1710  178.2160  141.5630 C   0  0  0  0  0  1  0  0  0  0  0  0
  190.0140  177.1220  146.9920 C   0  0  0  0  0  2  0  0  0  0  0  0
  189.3050  175.3650  145.3640 C   0  0  2  0  0  3  0  0  0  0  0  0
  186.2840  177.3780  146.1830 C   0  0  0  0  0  3  0  0  0  0  0  0
  187.1320  176.8020  140.9360 C   0  0  0  0  0  3  0  0  0  0  0  0
  188.5650  177.5430  147.0070 C   0  0  0  0  0  0  0  0  0  0  0  0
  188.1270  178.4060  148.0170 C   0  0  0  0  0  3  0  0  0  0  0  0
  189.6920  174.3720  144.2620 C   0  0  0  0  0  2  0  0  0  0  0  0
  188.5120  175.7620  142.6320 C   0  0  0  0  0  0  0  0  0  0  0  0
  188.2230  176.0040  141.2860 C   0  0  0  0  0  3  0  0  0  0  0  0
  192.7840  176.4450  144.1390 O   0  0  0  0  0  0  0  0  0  0  0  0
  192.8110  175.7190  145.1700 C   0  0  0  0  0  0  0  0  0  0  0  0
  191.6590  175.6110  146.0080 N   0  0  0  0  0  2  0  0  0  0  0  0
  195.9890  174.8330  143.3090 C   0  0  1  0  0  3  0  0  0  0  0  0
  195.3010  175.8320  145.5070 C   0  0  0  0  0  2  0  0  0  0  0  0
  193.0880  172.9080  144.6540 O   0  0  0  0  0  1  0  0  0  0  0  0
  196.3930  175.1290  142.0090 O   0  0  0  0  0  1  0  0  0  0  0  0
  195.7540  176.1300  144.0760 C   0  0  0  0  0  2  0  0  0  0  0  0
  194.2530  173.6770  144.6880 C   0  0  2  0  0  3  0  0  0  0  0  0
  194.0490  174.9480  145.5300 C   0  0  2  0  0  3  0  0  0  0  0  0
  194.7100  174.0040  143.2680 C   0  0  0  0  0  2  0  0  0  0  0  0
  1  9  1  0  0  0  0
  1  6  1  0  0  0  0
  2 13  1  0  0  0  0
  2  5  1  0  0  0  0
  3  2  1  0  0  0  0
  4  7  2  0  0  0  0
  5 14  1  0  0  0  0
  5 16  2  0  0  0  0
  7  3  1  0  0  0  0
  8 23  1  1  0  0  0
  8 12  1  0  0  0  0
 10 18  1  0  0  0  0
 11  4  1  0  0  0  0
 12 16  1  0  0  0  0
 13 18  1  6  0  0  0
 13  8  1  0  0  0  0
 14  1  2  0  0  0  0
 15 20  2  0  0  0  0
 15  4  1  0  0  0  0
 16 17  1  0  0  0  0
 17  6  2  0  0  0  0
 19 10  1  0  0  0  0
 19  3  2  0  0  0  0
 20 19  1  0  0  0  0
 21 22  2  0  0  0  0
 22 23  1  0  0  0  0
 24 27  1  6  0  0  0
 24 28  1  0  0  0  0
 25 30  1  0  0  0  0
 28 25  1  0  0  0  0
 29 26  1  6  0  0  0
 29 30  1  0  0  0  0
 30 22  1  6  0  0  0
 31 24  1  0  0  0  0
 31 29  1  0  0  0  0
M  END
>  <MODEL>
6

>  <REMARK>
 VINA RESULT:      -8.0      1.027      1.209
  Name = 
  2 active torsions:
  status: ('A' for Active; 'I' for Inactive)
    1  A    between atoms: C_5  and  C_30
    2  A    between atoms: C_10  and  N_16
                            x       y       z     vdW  Elec       q    Type
                         _______ _______ _______ _____ _____    ______ ____

>  <TORSDO>
F 2

$$$$
=
 OpenBabel11112417063D

 31 35  0  0  1  0  0  0  0  0999 V2000
  191.9200  173.2500  141.2570 C   0  0  0  0  0  0  0  0  0  0  0  0
  191.2900  174.5610  144.7220 N   0  0  0  0  0  0  0  0  0  0  0  0
  192.5000  175.2000  145.2030 C   0  0  0  0  0  0  0  0  0  0  0  0
  194.8160  175.8890  144.9040 C   0  0  0  0  0  0  0  0  0  0  0  0
  191.1110  174.2280  143.3290 C   0  0  0  0  0  0  0  0  0  0  0  0
  190.7320  173.6090  140.6180 C   0  0  0  0  0  3  0  0  0  0  0  0
  193.6860  175.2060  144.4490 C   0  0  0  0  0  3  0  0  0  0  0  0
  189.1370  175.6960  144.8460 C   0  0  2  0  0  3  0  0  0  0  0  0
  192.8910  172.6050  140.5670 F   0  0  0  0  0  0  0  0  0  0  0  0
  191.3060  175.9060  147.1850 O   0  0  0  0  0  0  0  0  0  0  0  0
  196.0630  175.8820  144.0970 C   0  0  0  0  0  1  0  0  0  0  0  0
  188.7660  175.2220  143.4330 C   0  0  0  0  0  2  0  0  0  0  0  0
  190.0470  174.6590  145.5020 C   0  0  2  0  0  3  0  0  0  0  0  0
  192.1080  173.5540  142.6070 C   0  0  0  0  0  3  0  0  0  0  0  0
  194.7690  176.5890  146.1120 C   0  0  0  0  0  3  0  0  0  0  0  0
  189.9060  174.5820  142.6800 C   0  0  0  0  0  0  0  0  0  0  0  0
  189.7260  174.2680  141.3290 C   0  0  0  0  0  3  0  0  0  0  0  0
  190.3020  174.9170  146.9920 C   0  0  0  0  0  2  0  0  0  0  0  0
  192.4700  175.8970  146.4230 C   0  0  0  0  0  0  0  0  0  0  0  0
  193.5960  176.5950  146.8690 C   0  0  0  0  0  3  0  0  0  0  0  0
  188.6420  177.8460  146.6560 O   0  0  0  0  0  0  0  0  0  0  0  0
  187.7330  176.9840  146.5110 C   0  0  0  0  0  0  0  0  0  0  0  0
  187.9210  175.8770  145.6280 N   0  0  0  0  0  2  0  0  0  0  0  0
  184.4740  178.8090  145.8810 C   0  0  1  0  0  3  0  0  0  0  0  0
  185.2640  176.5040  146.4870 C   0  0  0  0  0  2  0  0  0  0  0  0
  187.2240  179.0960  148.3870 O   0  0  0  0  0  1  0  0  0  0  0  0
  184.0820  179.6290  144.8260 O   0  0  0  0  0  1  0  0  0  0  0  0
  184.8210  177.4230  145.3470 C   0  0  0  0  0  2  0  0  0  0  0  0
  186.1260  178.5310  147.7370 C   0  0  2  0  0  3  0  0  0  0  0  0
  186.4410  177.1010  147.2670 C   0  0  2  0  0  3  0  0  0  0  0  0
  185.6820  179.4230  146.5810 C   0  0  0  0  0  2  0  0  0  0  0  0
  1 14  1  0  0  0  0
  2  3  1  0  0  0  0
  2 13  1  0  0  0  0
  3 19  1  0  0  0  0
  4 15  2  0  0  0  0
  5  2  1  0  0  0  0
  6  1  2  0  0  0  0
  6 17  1  0  0  0  0
  7  4  1  0  0  0  0
  7  3  2  0  0  0  0
  8 13  1  0  0  0  0
  8 23  1  1  0  0  0
  9  1  1  0  0  0  0
 11  4  1  0  0  0  0
 12  8  1  0  0  0  0
 13 18  1  1  0  0  0
 14  5  2  0  0  0  0
 15 20  1  0  0  0  0
 16  5  1  0  0  0  0
 16 12  1  0  0  0  0
 17 16  2  0  0  0  0
 18 10  1  0  0  0  0
 19 20  2  0  0  0  0
 19 10  1  0  0  0  0
 22 21  2  0  0  0  0
 23 22  1  0  0  0  0
 24 27  1  6  0  0  0
 24 31  1  0  0  0  0
 25 30  1  0  0  0  0
 28 24  1  0  0  0  0
 28 25  1  0  0  0  0
 29 26  1  6  0  0  0
 30 22  1  6  0  0  0
 30 29  1  0  0  0  0
 31 29  1  0  0  0  0
M  END
>  <MODEL>
7

>  <REMARK>
 VINA RESULT:      -7.8      3.415      8.037
  Name = 
  2 active torsions:
  status: ('A' for Active; 'I' for Inactive)
    1  A    between atoms: C_5  and  C_30
    2  A    between atoms: C_10  and  N_16
                            x       y       z     vdW  Elec       q    Type
                         _______ _______ _______ _____ _____    ______ ____

>  <TORSDO>
F 2

$$$$
=
 OpenBabel11112417063D

 31 35  0  0  1  0  0  0  0  0999 V2000
  193.4160  172.3480  140.9270 C   0  0  0  0  0  0  0  0  0  0  0  0
  191.5080  173.7720  143.8340 N   0  0  0  0  0  0  0  0  0  0  0  0
  192.4470  174.4150  144.7340 C   0  0  0  0  0  0  0  0  0  0  0  0
  194.7090  175.0710  145.3500 C   0  0  0  0  0  0  0  0  0  0  0  0
  191.8820  173.3980  142.4920 C   0  0  0  0  0  0  0  0  0  0  0  0
  192.5810  172.6980  139.8640 C   0  0  0  0  0  3  0  0  0  0  0  0
  193.8330  174.3850  144.5050 C   0  0  0  0  0  3  0  0  0  0  0  0
  189.5030  174.9310  143.0770 C   0  0  2  0  0  3  0  0  0  0  0  0
  194.5660  171.6720  140.6890 F   0  0  0  0  0  0  0  0  0  0  0  0
  190.5870  175.1930  146.0720 O   0  0  0  0  0  0  0  0  0  0  0  0
  196.1720  175.0270  145.0970 C   0  0  0  0  0  1  0  0  0  0  0  0
  189.7050  174.4170  141.6430 C   0  0  0  0  0  2  0  0  0  0  0  0
  190.0620  173.9070  144.0620 C   0  0  2  0  0  3  0  0  0  0  0  0
  193.0680  172.6910  142.2350 C   0  0  0  0  0  3  0  0  0  0  0  0
  194.2080  175.8090  146.4250 C   0  0  0  0  0  3  0  0  0  0  0  0
  191.0350  173.7430  141.4130 C   0  0  0  0  0  0  0  0  0  0  0  0
  191.3910  173.3890  140.1080 C   0  0  0  0  0  3  0  0  0  0  0  0
  189.7190  174.2080  145.5260 C   0  0  0  0  0  2  0  0  0  0  0  0
  191.9570  175.1490  145.8280 C   0  0  0  0  0  0  0  0  0  0  0  0
  192.8330  175.8510  146.6610 C   0  0  0  0  0  3  0  0  0  0  0  0
  188.3200  177.4060  143.8630 O   0  0  0  0  0  0  0  0  0  0  0  0
  187.5530  176.4180  143.6980 C   0  0  0  0  0  0  0  0  0  0  0  0
  188.0820  175.1480  143.3150 N   0  0  0  0  0  2  0  0  0  0  0  0
  185.2270  179.3750  144.1430 C   0  0  1  0  0  3  0  0  0  0  0  0
  185.3950  177.2950  142.7470 C   0  0  0  0  0  2  0  0  0  0  0  0
  186.3680  176.5570  146.3090 O   0  0  0  0  0  1  0  0  0  0  0  0
  185.4920  180.7420  144.1720 O   0  0  0  0  0  1  0  0  0  0  0  0
  185.6680  178.7990  142.8010 C   0  0  0  0  0  2  0  0  0  0  0  0
  185.6960  177.1870  145.2600 C   0  0  2  0  0  3  0  0  0  0  0  0
  186.0730  176.5570  143.9080 C   0  0  2  0  0  3  0  0  0  0  0  0
  185.9730  178.6880  145.2830 C   0  0  0  0  0  2  0  0  0  0  0  0
  1 14  1  0  0  0  0
  2 13  1  0  0  0  0
  2  3  1  0  0  0  0
  3 19  1  0  0  0  0
  4 15  2  0  0  0  0
  5  2  1  0  0  0  0
  6 17  1  0  0  0  0
  6  1  2  0  0  0  0
  7  3  2  0  0  0  0
  7  4  1  0  0  0  0
  8 23  1  1  0  0  0
  8 13  1  0  0  0  0
  9  1  1  0  0  0  0
 11  4  1  0  0  0  0
 12  8  1  0  0  0  0
 13 18  1  1  0  0  0
 14  5  2  0  0  0  0
 15 20  1  0  0  0  0
 16 12  1  0  0  0  0
 16  5  1  0  0  0  0
 17 16  2  0  0  0  0
 18 10  1  0  0  0  0
 19 10  1  0  0  0  0
 19 20  2  0  0  0  0
 22 21  2  0  0  0  0
 23 22  1  0  0  0  0
 24 27  1  6  0  0  0
 24 31  1  0  0  0  0
 25 28  1  0  0  0  0
 25 30  1  0  0  0  0
 28 24  1  0  0  0  0
 29 31  1  0  0  0  0
 29 26  1  1  0  0  0
 30 22  1  6  0  0  0
 30 29  1  0  0  0  0
M  END
>  <MODEL>
8

>  <REMARK>
 VINA RESULT:      -7.7      3.761      8.426
  Name = 
  2 active torsions:
  status: ('A' for Active; 'I' for Inactive)
    1  A    between atoms: C_5  and  C_30
    2  A    between atoms: C_10  and  N_16
                            x       y       z     vdW  Elec       q    Type
                         _______ _______ _______ _____ _____    ______ ____

>  <TORSDO>
F 2

$$$$
=
 OpenBabel11112417063D

 31 35  0  0  1  0  0  0  0  0999 V2000
  185.9600  178.2090  140.9510 C   0  0  0  0  0  0  0  0  0  0  0  0
  188.1000  177.7240  144.0010 N   0  0  0  0  0  0  0  0  0  0  0  0
  187.2680  177.8740  145.1790 C   0  0  0  0  0  0  0  0  0  0  0  0
  185.1150  178.2930  146.2360 C   0  0  0  0  0  0  0  0  0  0  0  0
  187.5290  177.5540  142.6870 C   0  0  0  0  0  0  0  0  0  0  0  0
  186.4330  177.1830  140.1290 C   0  0  0  0  0  3  0  0  0  0  0  0
  185.9100  178.2220  145.0890 C   0  0  0  0  0  3  0  0  0  0  0  0
  189.5670  175.7950  143.7390 C   0  0  2  0  0  3  0  0  0  0  0  0
  184.9700  179.0240  140.5130 F   0  0  0  0  0  0  0  0  0  0  0  0
  189.1560  177.2460  146.5570 O   0  0  0  0  0  0  0  0  0  0  0  0
  183.6810  178.6660  146.1230 C   0  0  0  0  0  1  0  0  0  0  0  0
  189.1690  175.6490  142.2620 C   0  0  0  0  0  2  0  0  0  0  0  0
  189.4920  177.2680  144.1370 C   0  0  2  0  0  3  0  0  0  0  0  0
  186.5070  178.3970  142.2210 C   0  0  0  0  0  3  0  0  0  0  0  0
  185.6650  177.9980  147.4860 C   0  0  0  0  0  3  0  0  0  0  0  0
  188.0100  176.5220  141.8490 C   0  0  0  0  0  0  0  0  0  0  0  0
  187.4590  176.3460  140.5760 C   0  0  0  0  0  3  0  0  0  0  0  0
  190.0790  177.5630  145.5230 C   0  0  0  0  0  2  0  0  0  0  0  0
  187.8130  177.5940  146.4450 C   0  0  0  0  0  0  0  0  0  0  0  0
  187.0120  177.6460  147.5890 C   0  0  0  0  0  3  0  0  0  0  0  0
  191.9370  176.9480  142.6450 O   0  0  0  0  0  0  0  0  0  0  0  0
  192.0650  175.9150  143.3580 C   0  0  0  0  0  0  0  0  0  0  0  0
  190.9180  175.2830  143.9270 N   0  0  0  0  0  2  0  0  0  0  0  0
  193.2920  172.4770  144.3670 C   0  0  1  0  0  3  0  0  0  0  0  0
  193.7630  174.2140  142.6170 C   0  0  0  0  0  2  0  0  0  0  0  0
  193.2530  175.8470  145.9710 O   0  0  0  0  0  1  0  0  0  0  0  0
  192.5880  171.3050  144.6370 O   0  0  0  0  0  1  0  0  0  0  0  0
  193.0080  172.9230  142.9360 C   0  0  0  0  0  2  0  0  0  0  0  0
  193.6290  174.8550  145.0640 C   0  0  2  0  0  3  0  0  0  0  0  0
  193.4230  175.3280  143.6140 C   0  0  2  0  0  3  0  0  0  0  0  0
  192.8690  173.5620  145.3520 C   0  0  0  0  0  2  0  0  0  0  0  0
  1 14  1  0  0  0  0
  2 13  1  0  0  0  0
  2  3  1  0  0  0  0
  3 19  1  0  0  0  0
  4 15  2  0  0  0  0
  5  2  1  0  0  0  0
  6 17  1  0  0  0  0
  6  1  2  0  0  0  0
  7  3  2  0  0  0  0
  7  4  1  0  0  0  0
  8 23  1  6  0  0  0
  8 13  1  0  0  0  0
  9  1  1  0  0  0  0
 11  4  1  0  0  0  0
 12  8  1  0  0  0  0
 13 18  1  1  0  0  0
 14  5  2  0  0  0  0
 15 20  1  0  0  0  0
 16 12  1  0  0  0  0
 16  5  1  0  0  0  0
 17 16  2  0  0  0  0
 18 10  1  0  0  0  0
 19 10  1  0  0  0  0
 19 20  2  0  0  0  0
 21 22  2  0  0  0  0
 22 23  1  0  0  0  0
 24 27  1  1  0  0  0
 24 31  1  0  0  0  0
 25 28  1  0  0  0  0
 25 30  1  0  0  0  0
 28 24  1  0  0  0  0
 29 31  1  0  0  0  0
 29 26  1  1  0  0  0
 30 22  1  1  0  0  0
 30 29  1  0  0  0  0
M  END
>  <MODEL>
9

>  <REMARK>
 VINA RESULT:      -7.5      2.056      4.515
  Name = 
  2 active torsions:
  status: ('A' for Active; 'I' for Inactive)
    1  A    between atoms: C_5  and  C_30
    2  A    between atoms: C_10  and  N_16
                            x       y       z     vdW  Elec       q    Type
                         _______ _______ _______ _____ _____    ______ ____

>  <TORSDO>
F 2

$$$$
