=
 OpenBabel11112416243D

 30 35  0  0  1  0  0  0  0  0999 V2000
  189.1120  175.1550  144.5600 C   0  0  2  0  0  3  0  0  0  0  0  0
  190.5250  173.6740  143.0440 C   0  0  0  0  0  0  0  0  0  0  0  0
  187.1320  176.4980  141.5250 O   0  0  0  0  0  0  0  0  0  0  0  0
  188.1970  176.4010  144.5170 C   0  0  2  0  0  3  0  0  0  0  0  0
  190.2610  175.4200  145.3190 O   0  0  0  0  0  0  0  0  0  0  0  0
  190.0660  177.9160  146.6670 O   0  0  0  0  0  1  0  0  0  0  0  0
  185.8770  178.1740  145.8790 C   0  0  1  0  0  3  0  0  0  0  0  0
  189.1350  176.8850  146.8100 C   0  0  2  0  0  3  0  0  0  0  0  0
  186.0870  178.5270  144.4100 C   0  0  2  0  0  3  0  0  0  0  0  0
  186.4930  177.5880  142.0780 C   0  0  0  0  0  0  0  0  0  0  0  0
  189.8050  175.5250  146.6360 C   0  0  2  0  0  3  0  0  0  0  0  0
  188.0450  177.0800  145.8360 N   0  0  2  0  0  0  0  0  0  0  0  0
  190.2830  172.4830  142.2200 C   0  0  0  0  0  3  0  0  0  0  0  0
  184.8820  179.3970  144.1510 C   0  0  0  0  0  2  0  0  0  0  0  0
  184.4500  178.0060  146.0870 N   0  0  0  0  0  2  0  0  0  0  0  0
  191.6360  173.7970  143.6220 O   0  0  0  0  0  0  0  0  0  0  0  0
  187.0660  175.4170  142.4340 C   0  0  2  0  0  3  0  0  0  0  0  0
  189.1470  172.3500  141.5410 C   0  0  0  0  0  3  0  0  0  0  0  0
  189.4970  174.7870  143.1240 C   0  0  1  0  0  3  0  0  0  0  0  0
  186.8460  176.0580  143.8200 C   0  0  2  0  0  3  0  0  0  0  0  0
  186.3080  178.6660  141.4520 O   0  0  0  0  0  0  0  0  0  0  0  0
  186.0180  177.3120  143.4610 C   0  0  1  0  0  3  0  0  0  0  0  0
  183.8230  178.9190  145.1340 C   0  0  0  0  0  2  0  0  0  0  0  0
  186.6920  177.0250  147.8010 O   0  0  0  0  0  1  0  0  0  0  0  0
  188.0950  173.3750  141.6120 C   0  0  0  0  0  3  0  0  0  0  0  0
  188.2360  174.4870  142.3390 C   0  0  0  0  0  0  0  0  0  0  0  0
  186.6880  176.9900  146.4020 C   0  0  1  0  0  3  0  0  0  0  0  0
  190.9510  175.3450  147.6200 C   0  0  0  0  0  2  0  0  0  0  0  0
  193.1090  176.3100  146.8880 C   0  0  0  0  0  1  0  0  0  0  0  0
  192.2460  175.0670  146.8790 C   0  0  0  0  0  2  0  0  0  0  0  0
  1  5  1  1  0  0  0
  2 19  1  0  0  0  0
  2 16  2  0  0  0  0
  3 10  1  0  0  0  0
  3 17  1  0  0  0  0
  4  1  1  0  0  0  0
  4 12  1  0  0  0  0
  5 11  1  0  0  0  0
  6  8  1  0  0  0  0
  7 15  1  0  0  0  0
  7 27  1  0  0  0  0
  9  7  1  0  0  0  0
 10 22  1  0  0  0  0
 11  8  1  0  0  0  0
 11 28  1  0  0  0  0
 12 27  1  0  0  0  0
 12  8  1  0  0  0  0
 13  2  1  0  0  0  0
 14  9  1  0  0  0  0
 14 23  1  0  0  0  0
 17 20  1  0  0  0  0
 18 25  1  0  0  0  0
 18 13  2  0  0  0  0
 19  1  1  0  0  0  0
 20  4  1  0  0  0  0
 21 10  2  0  0  0  0
 22 20  1  0  0  0  0
 22  9  1  0  0  0  0
 23 15  1  0  0  0  0
 25 26  2  0  0  0  0
 26 17  1  0  0  0  0
 26 19  1  0  0  0  0
 27 24  1  0  0  0  0
 30 29  1  0  0  0  0
 30 28  1  0  0  0  0
M  END
>  <MODEL>
1

>  <REMARK>
 VINA RESULT:      -8.7      0.000      0.000
  Name = 
  2 active torsions:
  status: ('A' for Active; 'I' for Inactive)
    1  A    between atoms: C_11  and  C_28
    2  A    between atoms: C_28  and  C_30
                            x       y       z     vdW  Elec       q    Type
                         _______ _______ _______ _____ _____    ______ ____

>  <TORSDO>
F 2

$$$$
=
 OpenBabel11112416243D

 30 35  0  0  1  0  0  0  0  0999 V2000
  190.1190  175.2310  143.8820 C   0  0  2  0  0  3  0  0  0  0  0  0
  192.0060  174.1540  145.2100 C   0  0  0  0  0  0  0  0  0  0  0  0
  188.5050  176.5750  147.1260 O   0  0  0  0  0  0  0  0  0  0  0  0
  188.6850  175.7830  144.0550 C   0  0  2  0  0  3  0  0  0  0  0  0
  190.1120  174.1090  143.0420 O   0  0  0  0  0  0  0  0  0  0  0  0
  187.5700  173.7360  141.8220 O   0  0  0  0  0  1  0  0  0  0  0  0
  186.2910  177.6470  142.9680 C   0  0  1  0  0  3  0  0  0  0  0  0
  188.3150  174.9130  141.7140 C   0  0  2  0  0  3  0  0  0  0  0  0
  186.0970  177.2500  144.4270 C   0  0  2  0  0  3  0  0  0  0  0  0
  187.2540  176.9430  146.6760 C   0  0  0  0  0  0  0  0  0  0  0  0
  189.8110  174.6120  141.7740 C   0  0  2  0  0  3  0  0  0  0  0  0
  187.9070  175.8430  142.7830 N   0  0  2  0  0  0  0  0  0  0  0  0
  193.1440  174.6410  146.0000 C   0  0  0  0  0  3  0  0  0  0  0  0
  184.9640  178.1640  144.8240 C   0  0  0  0  0  2  0  0  0  0  0  0
  186.0730  179.0790  142.8730 N   0  0  0  0  0  2  0  0  0  0  0  0
  192.1380  173.0920  144.5470 O   0  0  0  0  0  0  0  0  0  0  0  0
  189.4730  176.9850  146.1810 C   0  0  2  0  0  3  0  0  0  0  0  0
  193.0220  175.7230  146.7650 C   0  0  0  0  0  3  0  0  0  0  0  0
  190.6630  174.8580  145.2640 C   0  0  1  0  0  3  0  0  0  0  0  0
  188.7110  177.1250  144.8470 C   0  0  2  0  0  3  0  0  0  0  0  0
  186.2070  176.7950  147.3600 O   0  0  0  0  0  0  0  0  0  0  0  0
  187.3110  177.5690  145.3270 C   0  0  1  0  0  3  0  0  0  0  0  0
  185.0900  179.3770  143.9130 C   0  0  0  0  0  2  0  0  0  0  0  0
  187.4880  177.2960  140.9370 O   0  0  0  0  0  1  0  0  0  0  0  0
  191.7590  176.4720  146.8260 C   0  0  0  0  0  3  0  0  0  0  0  0
  190.6770  176.0950  146.1380 C   0  0  0  0  0  0  0  0  0  0  0  0
  187.6090  177.2120  142.3290 C   0  0  1  0  0  3  0  0  0  0  0  0
  190.2170  173.6240  140.6900 C   0  0  0  0  0  2  0  0  0  0  0  0
  190.4870  171.1930  141.0640 C   0  0  0  0  0  1  0  0  0  0  0  0
  191.1230  172.5510  141.2660 C   0  0  0  0  0  2  0  0  0  0  0  0
  1  5  1  6  0  0  0
  1  4  1  0  0  0  0
  1 19  1  0  0  0  0
  2 19  1  0  0  0  0
  2 13  1  0  0  0  0
  4 20  1  0  0  0  0
  7  9  1  0  0  0  0
  8 11  1  0  0  0  0
  8  6  1  0  0  0  0
  8 12  1  0  0  0  0
  9 14  1  0  0  0  0
  9 22  1  0  0  0  0
 10  3  1  0  0  0  0
 10 21  2  0  0  0  0
 11  5  1  0  0  0  0
 12  4  1  0  0  0  0
 13 18  2  0  0  0  0
 15  7  1  0  0  0  0
 15 23  1  0  0  0  0
 16  2  2  0  0  0  0
 17  3  1  0  0  0  0
 18 25  1  0  0  0  0
 19 26  1  0  0  0  0
 20 22  1  0  0  0  0
 20 17  1  0  0  0  0
 22 10  1  0  0  0  0
 23 14  1  0  0  0  0
 24 27  1  0  0  0  0
 26 17  1  0  0  0  0
 26 25  2  0  0  0  0
 27 12  1  0  0  0  0
 27  7  1  0  0  0  0
 28 30  1  0  0  0  0
 28 11  1  0  0  0  0
 29 30  1  0  0  0  0
M  END
>  <MODEL>
2

>  <REMARK>
 VINA RESULT:      -8.6      1.588      4.729
  Name = 
  2 active torsions:
  status: ('A' for Active; 'I' for Inactive)
    1  A    between atoms: C_11  and  C_28
    2  A    between atoms: C_28  and  C_30
                            x       y       z     vdW  Elec       q    Type
                         _______ _______ _______ _____ _____    ______ ____

>  <TORSDO>
F 2

$$$$
=
 OpenBabel11112416243D

 30 35  0  0  1  0  0  0  0  0999 V2000
  186.6050  177.4180  144.0480 C   0  0  2  0  0  3  0  0  0  0  0  0
  185.2310  178.9920  145.5040 C   0  0  0  0  0  0  0  0  0  0  0  0
  189.2840  177.0820  146.8140 O   0  0  0  0  0  0  0  0  0  0  0  0
  188.0380  176.8540  143.9000 C   0  0  2  0  0  3  0  0  0  0  0  0
  186.2750  178.2070  142.9380 O   0  0  0  0  0  0  0  0  0  0  0  0
  188.2330  177.9920  140.8870 O   0  0  0  0  0  1  0  0  0  0  0  0
  190.0070  174.5790  142.7440 C   0  0  1  0  0  3  0  0  0  0  0  0
  187.5510  176.8970  141.4230 C   0  0  2  0  0  3  0  0  0  0  0  0
  190.6650  175.4110  143.8410 C   0  0  2  0  0  3  0  0  0  0  0  0
  190.3250  176.5030  146.1160 C   0  0  0  0  0  0  0  0  0  0  0  0
  186.1520  177.3030  141.8790 C   0  0  2  0  0  3  0  0  0  0  0  0
  188.3410  176.3340  142.5350 N   0  0  2  0  0  0  0  0  0  0  0  0
  184.4520  178.8640  146.7420 C   0  0  0  0  0  3  0  0  0  0  0  0
  191.9070  174.5970  144.1090 C   0  0  0  0  0  2  0  0  0  0  0  0
  190.2470  173.1820  143.0530 N   0  0  0  0  0  2  0  0  0  0  0  0
  184.8330  179.7910  144.6160 O   0  0  0  0  0  0  0  0  0  0  0  0
  188.0730  176.4570  146.4350 C   0  0  2  0  0  3  0  0  0  0  0  0
  184.8770  178.0800  147.7300 C   0  0  0  0  0  3  0  0  0  0  0  0
  186.5450  178.2520  145.3310 C   0  0  1  0  0  3  0  0  0  0  0  0
  188.3440  175.8430  145.0460 C   0  0  2  0  0  3  0  0  0  0  0  0
  191.5330  176.7910  146.3220 O   0  0  0  0  0  0  0  0  0  0  0  0
  189.8440  175.4820  145.1460 C   0  0  1  0  0  3  0  0  0  0  0  0
  191.5370  173.1670  143.7410 C   0  0  0  0  0  2  0  0  0  0  0  0
  188.1770  174.3400  141.2350 O   0  0  0  0  0  1  0  0  0  0  0  0
  186.1200  177.3050  147.6050 C   0  0  0  0  0  3  0  0  0  0  0  0
  186.8860  177.3660  146.5110 C   0  0  0  0  0  0  0  0  0  0  0  0
  188.5320  174.8750  142.4790 C   0  0  1  0  0  3  0  0  0  0  0  0
  185.3570  177.9160  140.7350 C   0  0  0  0  0  2  0  0  0  0  0  0
  182.9550  177.9150  140.1420 C   0  0  0  0  0  1  0  0  0  0  0  0
  183.9640  178.2940  141.2040 C   0  0  0  0  0  2  0  0  0  0  0  0
  1  5  1  6  0  0  0
  1 19  1  0  0  0  0
  2 13  1  0  0  0  0
  4  1  1  0  0  0  0
  4 20  1  0  0  0  0
  6  8  1  0  0  0  0
  7 15  1  0  0  0  0
  7  9  1  0  0  0  0
  8 11  1  0  0  0  0
  8 12  1  0  0  0  0
  9 14  1  0  0  0  0
  9 22  1  0  0  0  0
 10 21  2  0  0  0  0
 10  3  1  0  0  0  0
 11  5  1  0  0  0  0
 12  4  1  0  0  0  0
 13 18  2  0  0  0  0
 15 23  1  0  0  0  0
 16  2  2  0  0  0  0
 17 26  1  0  0  0  0
 17  3  1  0  0  0  0
 19  2  1  0  0  0  0
 19 26  1  0  0  0  0
 20 22  1  0  0  0  0
 20 17  1  0  0  0  0
 22 10  1  0  0  0  0
 23 14  1  0  0  0  0
 24 27  1  0  0  0  0
 25 18  1  0  0  0  0
 26 25  2  0  0  0  0
 27 12  1  0  0  0  0
 27  7  1  0  0  0  0
 28 30  1  0  0  0  0
 28 11  1  0  0  0  0
 29 30  1  0  0  0  0
M  END
>  <MODEL>
3

>  <REMARK>
 VINA RESULT:      -8.4      2.079      7.044
  Name = 
  2 active torsions:
  status: ('A' for Active; 'I' for Inactive)
    1  A    between atoms: C_11  and  C_28
    2  A    between atoms: C_28  and  C_30
                            x       y       z     vdW  Elec       q    Type
                         _______ _______ _______ _____ _____    ______ ____

>  <TORSDO>
F 2

$$$$
=
 OpenBabel11112416243D

 30 35  0  0  1  0  0  0  0  0999 V2000
  187.3360  176.9850  143.9850 C   0  0  2  0  0  3  0  0  0  0  0  0
  185.1930  177.6170  142.7630 C   0  0  0  0  0  0  0  0  0  0  0  0
  188.1770  174.3430  141.2930 O   0  0  0  0  0  0  0  0  0  0  0  0
  188.3750  175.8440  144.0860 C   0  0  2  0  0  3  0  0  0  0  0  0
  186.6480  177.1280  145.1980 O   0  0  0  0  0  0  0  0  0  0  0  0
  187.8160  175.5440  147.2510 O   0  0  0  0  0  1  0  0  0  0  0  0
  191.3290  174.8620  144.9180 C   0  0  1  0  0  3  0  0  0  0  0  0
  188.5200  176.5030  146.5190 C   0  0  2  0  0  3  0  0  0  0  0  0
  190.6290  173.8700  143.9960 C   0  0  2  0  0  3  0  0  0  0  0  0
  189.1730  173.6220  141.9200 C   0  0  0  0  0  0  0  0  0  0  0  0
  187.5950  177.6390  146.0900 C   0  0  2  0  0  3  0  0  0  0  0  0
  189.1560  175.8540  145.3570 N   0  0  2  0  0  0  0  0  0  0  0  0
  184.8660  178.2820  141.4950 C   0  0  0  0  0  3  0  0  0  0  0  0
  191.7740  172.9550  143.6390 C   0  0  0  0  0  2  0  0  0  0  0  0
  192.6640  175.0790  144.3920 N   0  0  0  0  0  2  0  0  0  0  0  0
  184.4410  177.8010  143.7550 O   0  0  0  0  0  0  0  0  0  0  0  0
  188.3920  175.7210  141.5230 C   0  0  2  0  0  3  0  0  0  0  0  0
  185.5980  178.0610  140.4060 C   0  0  0  0  0  3  0  0  0  0  0  0
  186.3570  176.6490  142.8550 C   0  0  1  0  0  3  0  0  0  0  0  0
  189.2540  175.7950  142.8000 C   0  0  2  0  0  3  0  0  0  0  0  0
  189.2940  172.3740  141.8050 O   0  0  0  0  0  0  0  0  0  0  0  0
  190.0920  174.5010  142.6930 C   0  0  1  0  0  3  0  0  0  0  0  0
  193.0250  173.8140  143.7550 C   0  0  0  0  0  2  0  0  0  0  0  0
  191.1350  176.7910  146.3050 O   0  0  0  0  0  1  0  0  0  0  0  0
  186.7640  177.1660  140.4440 C   0  0  0  0  0  3  0  0  0  0  0  0
  187.1290  176.5230  141.5580 C   0  0  0  0  0  0  0  0  0  0  0  0
  190.5830  176.1700  145.1780 C   0  0  1  0  0  3  0  0  0  0  0  0
  186.9160  178.2800  147.2910 C   0  0  0  0  0  2  0  0  0  0  0  0
  184.4410  178.2910  147.2630 C   0  0  0  0  0  1  0  0  0  0  0  0
  185.6840  179.0510  146.8520 C   0  0  0  0  0  2  0  0  0  0  0  0
  1  4  1  0  0  0  0
  1  5  1  1  0  0  0
  2 19  1  0  0  0  0
  2 16  2  0  0  0  0
  3 17  1  0  0  0  0
  3 10  1  0  0  0  0
  4 12  1  0  0  0  0
  5 11  1  0  0  0  0
  7 27  1  0  0  0  0
  8  6  1  0  0  0  0
  9  7  1  0  0  0  0
 10 22  1  0  0  0  0
 11  8  1  0  0  0  0
 11 28  1  0  0  0  0
 12  8  1  0  0  0  0
 13  2  1  0  0  0  0
 14 23  1  0  0  0  0
 14  9  1  0  0  0  0
 15  7  1  0  0  0  0
 17 26  1  0  0  0  0
 17 20  1  0  0  0  0
 18 25  1  0  0  0  0
 18 13  2  0  0  0  0
 19  1  1  0  0  0  0
 20  4  1  0  0  0  0
 21 10  2  0  0  0  0
 22 20  1  0  0  0  0
 22  9  1  0  0  0  0
 23 15  1  0  0  0  0
 25 26  2  0  0  0  0
 26 19  1  0  0  0  0
 27 12  1  0  0  0  0
 27 24  1  0  0  0  0
 30 29  1  0  0  0  0
 30 28  1  0  0  0  0
M  END
>  <MODEL>
4

>  <REMARK>
 VINA RESULT:      -8.3      2.036      5.732
  Name = 
  2 active torsions:
  status: ('A' for Active; 'I' for Inactive)
    1  A    between atoms: C_11  and  C_28
    2  A    between atoms: C_28  and  C_30
                            x       y       z     vdW  Elec       q    Type
                         _______ _______ _______ _____ _____    ______ ____

>  <TORSDO>
F 2

$$$$
=
 OpenBabel11112416243D

 30 35  0  0  1  0  0  0  0  0999 V2000
  189.9720  175.2840  143.9090 C   0  0  2  0  0  3  0  0  0  0  0  0
  191.3290  174.5280  141.8900 C   0  0  0  0  0  0  0  0  0  0  0  0
  187.5020  177.1880  141.6270 O   0  0  0  0  0  0  0  0  0  0  0  0
  188.9360  176.3510  144.3350 C   0  0  2  0  0  3  0  0  0  0  0  0
  191.1740  175.4650  144.6080 O   0  0  0  0  0  0  0  0  0  0  0  0
  190.8950  177.3960  146.6770 O   0  0  0  0  0  1  0  0  0  0  0  0
  186.6350  177.3070  146.3790 C   0  0  1  0  0  3  0  0  0  0  0  0
  190.1000  176.2530  146.5740 C   0  0  2  0  0  3  0  0  0  0  0  0
  186.6230  178.1060  145.0810 C   0  0  2  0  0  3  0  0  0  0  0  0
  186.8280  177.9680  142.5460 C   0  0  0  0  0  0  0  0  0  0  0  0
  190.8780  175.1100  145.9270 C   0  0  2  0  0  3  0  0  0  0  0  0
  188.8820  176.5800  145.8090 N   0  0  2  0  0  0  0  0  0  0  0  0
  191.1080  173.6150  140.7620 C   0  0  0  0  0  3  0  0  0  0  0  0
  185.3130  178.8420  145.2110 C   0  0  0  0  0  2  0  0  0  0  0  0
  185.2710  176.8920  146.6490 N   0  0  0  0  0  2  0  0  0  0  0  0
  192.4850  174.6230  142.3780 O   0  0  0  0  0  0  0  0  0  0  0  0
  187.6610  175.8870  142.1570 C   0  0  2  0  0  3  0  0  0  0  0  0
  189.9160  173.5370  140.1780 C   0  0  0  0  0  3  0  0  0  0  0  0
  190.2100  175.4170  142.4010 C   0  0  1  0  0  3  0  0  0  0  0  0
  187.5510  176.0500  143.6880 C   0  0  2  0  0  3  0  0  0  0  0  0
  186.4580  179.1470  142.3040 O   0  0  0  0  0  0  0  0  0  0  0  0
  186.5610  177.2310  143.8100 C   0  0  1  0  0  3  0  0  0  0  0  0
  184.4390  177.9540  146.0860 C   0  0  0  0  0  2  0  0  0  0  0  0
  187.7990  175.7590  147.7700 O   0  0  0  0  0  1  0  0  0  0  0  0
  188.7810  174.3420  140.6550 C   0  0  0  0  0  3  0  0  0  0  0  0
  188.8980  175.1960  141.6760 C   0  0  0  0  0  0  0  0  0  0  0  0
  187.6230  176.1420  146.4350 C   0  0  1  0  0  3  0  0  0  0  0  0
  192.1510  174.8030  146.7030 C   0  0  0  0  0  2  0  0  0  0  0  0
  194.2310  176.1080  146.4040 C   0  0  0  0  0  1  0  0  0  0  0  0
  193.3690  175.0090  145.8220 C   0  0  0  0  0  2  0  0  0  0  0  0
  1  4  1  0  0  0  0
  1  5  1  1  0  0  0
  2 16  2  0  0  0  0
  2 19  1  0  0  0  0
  3 17  1  0  0  0  0
  3 10  1  0  0  0  0
  4 12  1  0  0  0  0
  5 11  1  0  0  0  0
  7 27  1  0  0  0  0
  7 15  1  0  0  0  0
  8  6  1  0  0  0  0
  9 14  1  0  0  0  0
  9  7  1  0  0  0  0
 10 22  1  0  0  0  0
 11  8  1  0  0  0  0
 11 28  1  0  0  0  0
 12 27  1  0  0  0  0
 12  8  1  0  0  0  0
 13  2  1  0  0  0  0
 14 23  1  0  0  0  0
 17 20  1  0  0  0  0
 18 25  1  0  0  0  0
 18 13  2  0  0  0  0
 19  1  1  0  0  0  0
 20 22  1  0  0  0  0
 20  4  1  0  0  0  0
 21 10  2  0  0  0  0
 22  9  1  0  0  0  0
 23 15  1  0  0  0  0
 25 26  2  0  0  0  0
 26 17  1  0  0  0  0
 26 19  1  0  0  0  0
 27 24  1  0  0  0  0
 30 29  1  0  0  0  0
 30 28  1  0  0  0  0
M  END
>  <MODEL>
5

>  <REMARK>
 VINA RESULT:      -8.1      1.222      1.292
  Name = 
  2 active torsions:
  status: ('A' for Active; 'I' for Inactive)
    1  A    between atoms: C_11  and  C_28
    2  A    between atoms: C_28  and  C_30
                            x       y       z     vdW  Elec       q    Type
                         _______ _______ _______ _____ _____    ______ ____

>  <TORSDO>
F 2

$$$$
=
 OpenBabel11112416243D

 30 35  0  0  1  0  0  0  0  0999 V2000
  188.3530  177.3570  145.2890 C   0  0  2  0  0  3  0  0  0  0  0  0
  186.1300  178.5800  145.5080 C   0  0  0  0  0  0  0  0  0  0  0  0
  187.0070  175.2940  142.3100 O   0  0  0  0  0  0  0  0  0  0  0  0
  188.9690  176.0730  144.6850 C   0  0  2  0  0  3  0  0  0  0  0  0
  188.4380  177.3270  146.6880 O   0  0  0  0  0  0  0  0  0  0  0  0
  190.0370  175.1550  147.5890 O   0  0  0  0  0  1  0  0  0  0  0  0
  191.5730  174.4730  143.6630 C   0  0  1  0  0  3  0  0  0  0  0  0
  190.4900  176.1320  146.7000 C   0  0  2  0  0  3  0  0  0  0  0  0
  190.2750  173.8400  143.1720 C   0  0  2  0  0  3  0  0  0  0  0  0
  187.9620  174.3020  142.2130 C   0  0  0  0  0  0  0  0  0  0  0  0
  189.8000  177.4670  146.9680 C   0  0  2  0  0  3  0  0  0  0  0  0
  190.2590  175.6710  145.3180 N   0  0  2  0  0  0  0  0  0  0  0  0
  185.3880  179.5590  144.7020 C   0  0  0  0  0  3  0  0  0  0  0  0
  190.8040  172.8590  142.1530 C   0  0  0  0  0  2  0  0  0  0  0  0
  192.4610  174.5890  142.5200 N   0  0  0  0  0  2  0  0  0  0  0  0
  186.0620  178.6500  146.7620 O   0  0  0  0  0  0  0  0  0  0  0  0
  187.6530  176.5330  142.5310 C   0  0  2  0  0  3  0  0  0  0  0  0
  185.3830  179.4770  143.3740 C   0  0  0  0  0  3  0  0  0  0  0  0
  186.8890  177.4450  144.8470 C   0  0  1  0  0  3  0  0  0  0  0  0
  189.0290  176.1780  143.1310 C   0  0  2  0  0  3  0  0  0  0  0  0
  187.6840  173.1100  141.9180 O   0  0  0  0  0  0  0  0  0  0  0  0
  189.3340  174.8270  142.4480 C   0  0  1  0  0  3  0  0  0  0  0  0
  192.1120  173.4610  141.6590 C   0  0  0  0  0  2  0  0  0  0  0  0
  192.6080  176.0430  145.1270 O   0  0  0  0  0  1  0  0  0  0  0  0
  186.1330  178.4230  142.6750 C   0  0  0  0  0  3  0  0  0  0  0  0
  186.8340  177.4950  143.3340 C   0  0  0  0  0  0  0  0  0  0  0  0
  191.4240  175.7890  144.4250 C   0  0  1  0  0  3  0  0  0  0  0  0
  190.0140  177.9180  148.4050 C   0  0  0  0  0  2  0  0  0  0  0  0
  191.6350  178.1130  150.2640 C   0  0  0  0  0  1  0  0  0  0  0  0
  191.4550  177.6890  148.8220 C   0  0  0  0  0  2  0  0  0  0  0  0
  1  5  1  1  0  0  0
  2 16  2  0  0  0  0
  3 17  1  0  0  0  0
  4  1  1  0  0  0  0
  4 12  1  0  0  0  0
  5 11  1  0  0  0  0
  7 27  1  0  0  0  0
  8 11  1  0  0  0  0
  8  6  1  0  0  0  0
  9  7  1  0  0  0  0
 10  3  1  0  0  0  0
 10 22  1  0  0  0  0
 11 28  1  0  0  0  0
 12  8  1  0  0  0  0
 13  2  1  0  0  0  0
 14  9  1  0  0  0  0
 15  7  1  0  0  0  0
 17 20  1  0  0  0  0
 17 26  1  0  0  0  0
 18 13  2  0  0  0  0
 19  1  1  0  0  0  0
 19  2  1  0  0  0  0
 20  4  1  0  0  0  0
 21 10  2  0  0  0  0
 22 20  1  0  0  0  0
 22  9  1  0  0  0  0
 23 14  1  0  0  0  0
 23 15  1  0  0  0  0
 25 26  2  0  0  0  0
 25 18  1  0  0  0  0
 26 19  1  0  0  0  0
 27 24  1  0  0  0  0
 27 12  1  0  0  0  0
 28 30  1  0  0  0  0
 30 29  1  0  0  0  0
M  END
>  <MODEL>
6

>  <REMARK>
 VINA RESULT:      -7.8      2.080      5.515
  Name = 
  2 active torsions:
  status: ('A' for Active; 'I' for Inactive)
    1  A    between atoms: C_11  and  C_28
    2  A    between atoms: C_28  and  C_30
                            x       y       z     vdW  Elec       q    Type
                         _______ _______ _______ _____ _____    ______ ____

>  <TORSDO>
F 2

$$$$
=
 OpenBabel11112416243D

 30 35  0  0  1  0  0  0  0  0999 V2000
  189.1480  176.7100  145.2010 C   0  0  2  0  0  3  0  0  0  0  0  0
  187.0220  177.7340  146.1590 C   0  0  0  0  0  0  0  0  0  0  0  0
  187.1480  175.0570  142.3370 O   0  0  0  0  0  0  0  0  0  0  0  0
  189.6240  175.5810  144.2570 C   0  0  2  0  0  3  0  0  0  0  0  0
  189.5840  176.4670  146.5110 O   0  0  0  0  0  0  0  0  0  0  0  0
  191.4110  174.2910  146.6150 O   0  0  0  0  0  1  0  0  0  0  0  0
  191.9260  174.3380  142.3750 C   0  0  1  0  0  3  0  0  0  0  0  0
  191.6010  175.4230  145.8200 C   0  0  2  0  0  3  0  0  0  0  0  0
  190.5630  173.7050  142.1160 C   0  0  2  0  0  3  0  0  0  0  0  0
  188.0710  174.1580  141.8430 C   0  0  0  0  0  0  0  0  0  0  0  0
  190.9680  176.6510  146.4690 C   0  0  2  0  0  3  0  0  0  0  0  0
  191.0420  175.1710  144.4790 N   0  0  2  0  0  0  0  0  0  0  0  0
  186.0770  178.7750  145.7360 C   0  0  0  0  0  3  0  0  0  0  0  0
  190.8420  172.9340  140.8490 C   0  0  0  0  0  2  0  0  0  0  0  0
  192.4940  174.6910  141.0870 N   0  0  0  0  0  2  0  0  0  0  0  0
  187.2700  177.6010  147.3860 O   0  0  0  0  0  0  0  0  0  0  0  0
  187.7970  176.2860  142.5990 C   0  0  2  0  0  3  0  0  0  0  0  0
  185.7400  178.9030  144.4550 C   0  0  0  0  0  3  0  0  0  0  0  0
  187.6180  176.7690  145.1510 C   0  0  1  0  0  3  0  0  0  0  0  0
  189.2880  175.9330  142.7770 C   0  0  2  0  0  3  0  0  0  0  0  0
  187.7590  173.0110  141.4280 O   0  0  0  0  0  0  0  0  0  0  0  0
  189.4450  174.7290  141.8210 C   0  0  1  0  0  3  0  0  0  0  0  0
  191.9680  173.6920  140.1590 C   0  0  0  0  0  2  0  0  0  0  0  0
  193.2570  175.7240  143.7860 O   0  0  0  0  0  1  0  0  0  0  0  0
  186.3160  178.0250  143.4270 C   0  0  0  0  0  3  0  0  0  0  0  0
  187.1830  177.0530  143.7280 C   0  0  0  0  0  0  0  0  0  0  0  0
  191.9410  175.5050  143.3610 C   0  0  1  0  0  3  0  0  0  0  0  0
  191.5250  176.8840  147.8660 C   0  0  0  0  0  2  0  0  0  0  0  0
  191.4040  178.3050  149.8880 C   0  0  0  0  0  1  0  0  0  0  0  0
  190.7230  177.9540  148.5830 C   0  0  0  0  0  2  0  0  0  0  0  0
  1  5  1  1  0  0  0
  2 16  2  0  0  0  0
  3 17  1  0  0  0  0
  4 12  1  0  0  0  0
  4  1  1  0  0  0  0
  7 27  1  0  0  0  0
  8 11  1  0  0  0  0
  8  6  1  0  0  0  0
  9  7  1  0  0  0  0
 10  3  1  0  0  0  0
 11  5  1  0  0  0  0
 11 28  1  0  0  0  0
 12  8  1  0  0  0  0
 13  2  1  0  0  0  0
 14  9  1  0  0  0  0
 15  7  1  0  0  0  0
 17 20  1  0  0  0  0
 17 26  1  0  0  0  0
 18 13  2  0  0  0  0
 19  1  1  0  0  0  0
 19  2  1  0  0  0  0
 20  4  1  0  0  0  0
 21 10  2  0  0  0  0
 22 10  1  0  0  0  0
 22  9  1  0  0  0  0
 22 20  1  0  0  0  0
 23 14  1  0  0  0  0
 23 15  1  0  0  0  0
 25 26  2  0  0  0  0
 25 18  1  0  0  0  0
 26 19  1  0  0  0  0
 27 24  1  0  0  0  0
 27 12  1  0  0  0  0
 28 30  1  0  0  0  0
 30 29  1  0  0  0  0
M  END
>  <MODEL>
7

>  <REMARK>
 VINA RESULT:      -7.4      2.241      5.628
  Name = 
  2 active torsions:
  status: ('A' for Active; 'I' for Inactive)
    1  A    between atoms: C_11  and  C_28
    2  A    between atoms: C_28  and  C_30
                            x       y       z     vdW  Elec       q    Type
                         _______ _______ _______ _____ _____    ______ ____

>  <TORSDO>
F 2

$$$$
=
 OpenBabel11112416243D

 30 35  0  0  1  0  0  0  0  0999 V2000
  188.3920  176.6780  144.8090 C   0  0  2  0  0  3  0  0  0  0  0  0
  186.5850  176.8930  143.0270 C   0  0  0  0  0  0  0  0  0  0  0  0
  190.9440  175.4540  142.1780 O   0  0  0  0  0  0  0  0  0  0  0  0
  189.7490  175.9860  145.0730 C   0  0  2  0  0  3  0  0  0  0  0  0
  187.4170  176.1950  145.6930 O   0  0  0  0  0  0  0  0  0  0  0  0
  188.5630  174.5460  147.7070 O   0  0  0  0  0  1  0  0  0  0  0  0
  192.5100  175.8570  146.7310 C   0  0  1  0  0  3  0  0  0  0  0  0
  188.9590  175.8640  147.4680 C   0  0  2  0  0  3  0  0  0  0  0  0
  192.5630  175.0250  145.4540 C   0  0  2  0  0  3  0  0  0  0  0  0
  191.9480  174.9570  142.9830 C   0  0  0  0  0  0  0  0  0  0  0  0
  187.7890  176.6920  146.9450 C   0  0  2  0  0  3  0  0  0  0  0  0
  190.0900  175.8650  146.5210 N   0  0  2  0  0  0  0  0  0  0  0  0
  186.3530  177.7670  141.8700 C   0  0  0  0  0  3  0  0  0  0  0  0
  194.0370  174.7110  145.3790 C   0  0  0  0  0  2  0  0  0  0  0  0
  193.7140  176.6660  146.7750 N   0  0  0  0  0  2  0  0  0  0  0  0
  185.5960  176.4930  143.6930 O   0  0  0  0  0  0  0  0  0  0  0  0
  190.4880  176.6800  142.7150 C   0  0  2  0  0  3  0  0  0  0  0  0
  187.3670  178.1570  141.1020 C   0  0  0  0  0  3  0  0  0  0  0  0
  187.9810  176.3990  143.3600 C   0  0  1  0  0  3  0  0  0  0  0  0
  190.8700  176.6400  144.2100 C   0  0  2  0  0  3  0  0  0  0  0  0
  192.6110  173.9250  142.6960 O   0  0  0  0  0  0  0  0  0  0  0  0
  192.1720  175.8090  144.1830 C   0  0  1  0  0  3  0  0  0  0  0  0
  194.7290  175.8630  146.0960 C   0  0  0  0  0  2  0  0  0  0  0  0
  191.1620  177.0730  148.2770 O   0  0  0  0  0  1  0  0  0  0  0  0
  188.7470  177.7450  141.3980 C   0  0  0  0  0  3  0  0  0  0  0  0
  189.0430  176.9520  142.4330 C   0  0  0  0  0  0  0  0  0  0  0  0
  191.2410  176.6840  146.9340 C   0  0  1  0  0  3  0  0  0  0  0  0
  186.6140  176.6580  147.9110 C   0  0  0  0  0  2  0  0  0  0  0  0
  185.4980  178.7690  147.2620 C   0  0  0  0  0  1  0  0  0  0  0  0
  185.3800  177.2600  147.2640 C   0  0  0  0  0  2  0  0  0  0  0  0
  1  4  1  0  0  0  0
  1  5  1  1  0  0  0
  2 19  1  0  0  0  0
  2 16  2  0  0  0  0
  3 17  1  0  0  0  0
  3 10  1  0  0  0  0
  4 12  1  0  0  0  0
  5 11  1  0  0  0  0
  7 15  1  0  0  0  0
  7 27  1  0  0  0  0
  8  6  1  0  0  0  0
  9  7  1  0  0  0  0
 10 22  1  0  0  0  0
 11  8  1  0  0  0  0
 11 28  1  0  0  0  0
 12 27  1  0  0  0  0
 12  8  1  0  0  0  0
 13  2  1  0  0  0  0
 14  9  1  0  0  0  0
 14 23  1  0  0  0  0
 17 20  1  0  0  0  0
 18 25  1  0  0  0  0
 18 13  2  0  0  0  0
 19  1  1  0  0  0  0
 20  4  1  0  0  0  0
 21 10  2  0  0  0  0
 22 20  1  0  0  0  0
 22  9  1  0  0  0  0
 23 15  1  0  0  0  0
 25 26  2  0  0  0  0
 26 17  1  0  0  0  0
 26 19  1  0  0  0  0
 27 24  1  0  0  0  0
 29 30  1  0  0  0  0
 30 28  1  0  0  0  0
M  END
>  <MODEL>
8

>  <REMARK>
 VINA RESULT:      -7.4      2.392      5.831
  Name = 
  2 active torsions:
  status: ('A' for Active; 'I' for Inactive)
    1  A    between atoms: C_11  and  C_28
    2  A    between atoms: C_28  and  C_30
                            x       y       z     vdW  Elec       q    Type
                         _______ _______ _______ _____ _____    ______ ____

>  <TORSDO>
F 2

$$$$
=
 OpenBabel11112416243D

 30 35  0  0  1  0  0  0  0  0999 V2000
  190.5190  174.5900  144.4820 C   0  0  2  0  0  3  0  0  0  0  0  0
  188.6500  176.3050  144.7090 C   0  0  0  0  0  0  0  0  0  0  0  0
  193.1290  177.1660  145.7020 O   0  0  0  0  0  0  0  0  0  0  0  0
  192.0570  174.4920  144.3620 C   0  0  2  0  0  3  0  0  0  0  0  0
  189.9080  174.1260  143.3090 O   0  0  0  0  0  0  0  0  0  0  0  0
  191.7920  172.9040  141.5650 O   0  0  0  0  0  1  0  0  0  0  0  0
  194.7450  172.7360  144.6470 C   0  0  1  0  0  3  0  0  0  0  0  0
  191.5840  172.4990  142.8860 C   0  0  2  0  0  3  0  0  0  0  0  0
  195.0370  174.2310  144.5680 C   0  0  2  0  0  3  0  0  0  0  0  0
  194.3100  176.5410  145.3560 C   0  0  0  0  0  0  0  0  0  0  0  0
  190.1380  172.7480  143.3050 C   0  0  2  0  0  3  0  0  0  0  0  0
  192.5320  173.2100  143.7640 N   0  0  2  0  0  0  0  0  0  0  0  0
  187.9830  176.9880  145.8250 C   0  0  0  0  0  3  0  0  0  0  0  0
  196.4960  174.2570  144.9480 C   0  0  0  0  0  2  0  0  0  0  0  0
  195.5040  172.2020  145.7630 N   0  0  0  0  0  2  0  0  0  0  0  0
  187.9730  176.0010  143.6920 O   0  0  0  0  0  0  0  0  0  0  0  0
  192.2490  176.2090  146.2590 C   0  0  2  0  0  3  0  0  0  0  0  0
  188.6790  177.3840  146.8880 C   0  0  0  0  0  3  0  0  0  0  0  0
  190.1460  176.0550  144.7330 C   0  0  1  0  0  3  0  0  0  0  0  0
  192.7320  174.8450  145.7220 C   0  0  2  0  0  3  0  0  0  0  0  0
  195.3160  177.1650  144.9270 O   0  0  0  0  0  0  0  0  0  0  0  0
  194.2550  175.0740  145.5980 C   0  0  1  0  0  3  0  0  0  0  0  0
  196.7020  173.0360  145.8330 C   0  0  0  0  0  2  0  0  0  0  0  0
  193.1430  170.9900  144.3890 O   0  0  0  0  0  1  0  0  0  0  0  0
  190.1240  177.1330  146.9880 C   0  0  0  0  0  3  0  0  0  0  0  0
  190.8050  176.5170  146.0160 C   0  0  0  0  0  0  0  0  0  0  0  0
  193.2680  172.3480  144.7040 C   0  0  1  0  0  3  0  0  0  0  0  0
  189.1650  172.0400  142.3740 C   0  0  0  0  0  2  0  0  0  0  0  0
  188.4190  173.0480  140.2400 C   0  0  0  0  0  1  0  0  0  0  0  0
  188.2170  173.0410  141.7400 C   0  0  0  0  0  2  0  0  0  0  0  0
  1  5  1  6  0  0  0
  1 19  1  0  0  0  0
  2 19  1  0  0  0  0
  2 13  1  0  0  0  0
  3 17  1  0  0  0  0
  4  1  1  0  0  0  0
  4 20  1  0  0  0  0
  6  8  1  0  0  0  0
  7 27  1  0  0  0  0
  7 15  1  0  0  0  0
  8 11  1  0  0  0  0
  8 12  1  0  0  0  0
  9  7  1  0  0  0  0
  9 14  1  0  0  0  0
  9 22  1  0  0  0  0
 10 22  1  0  0  0  0
 10  3  1  0  0  0  0
 11  5  1  0  0  0  0
 12  4  1  0  0  0  0
 12 27  1  0  0  0  0
 13 18  2  0  0  0  0
 14 23  1  0  0  0  0
 15 23  1  0  0  0  0
 16  2  2  0  0  0  0
 18 25  1  0  0  0  0
 19 26  1  0  0  0  0
 20 17  1  0  0  0  0
 21 10  2  0  0  0  0
 22 20  1  0  0  0  0
 24 27  1  0  0  0  0
 26 17  1  0  0  0  0
 26 25  2  0  0  0  0
 28 11  1  0  0  0  0
 29 30  1  0  0  0  0
 30 28  1  0  0  0  0
M  END
>  <MODEL>
9

>  <REMARK>
 VINA RESULT:      -7.1      3.178      7.770
  Name = 
  2 active torsions:
  status: ('A' for Active; 'I' for Inactive)
    1  A    between atoms: C_11  and  C_28
    2  A    between atoms: C_28  and  C_30
                            x       y       z     vdW  Elec       q    Type
                         _______ _______ _______ _____ _____    ______ ____

>  <TORSDO>
F 2

$$$$
