=
 OpenBabel11112417023D

 31 35  0  0  1  0  0  0  0  0999 V2000
  184.9830  177.9620  146.7840 C   0  0  0  0  0  0  0  0  0  0  0  0
  187.1670  175.8850  144.4630 C   0  0  2  0  0  3  0  0  0  0  0  0
  187.0300  176.4770  143.0670 C   0  0  0  0  0  0  0  0  0  0  0  0
  185.9100  177.8880  141.4070 C   0  0  0  0  0  0  0  0  0  0  0  0
  186.7560  176.8300  145.5700 C   0  0  0  0  0  0  0  0  0  0  0  0
  185.9340  178.6440  147.5460 C   0  0  0  0  0  3  0  0  0  0  0  0
  186.1010  177.4040  142.7860 C   0  0  0  0  0  3  0  0  0  0  0  0
  189.5600  176.4970  144.9520 C   0  0  2  0  0  3  0  0  0  0  0  0
  183.6640  178.1800  146.9960 F   0  0  0  0  0  0  0  0  0  0  0  0
  188.7430  174.9590  142.1950 C   0  0  0  0  0  3  0  0  0  0  0  0
  185.0610  178.7840  141.1660 O   0  0  0  0  0  0  0  0  0  0  0  0
  189.1830  177.2110  146.2460 C   0  0  0  0  0  2  0  0  0  0  0  0
  188.5890  175.3350  144.6910 C   0  0  2  0  0  3  0  0  0  0  0  0
  185.3930  177.0580  145.8020 C   0  0  0  0  0  3  0  0  0  0  0  0
  186.7060  177.3080  140.3130 C   0  0  0  0  0  3  0  0  0  0  0  0
  187.7160  177.5200  146.3460 C   0  0  0  0  0  0  0  0  0  0  0  0
  187.2950  178.4150  147.3340 C   0  0  0  0  0  3  0  0  0  0  0  0
  189.0210  174.5450  143.5370 N   0  0  0  0  0  2  0  0  0  0  0  0
  187.8340  175.9010  141.9540 C   0  0  0  0  0  0  0  0  0  0  0  0
  187.6140  176.3640  140.5710 C   0  0  0  0  0  3  0  0  0  0  0  0
  191.8670  177.8540  144.0000 O   0  0  0  0  0  0  0  0  0  0  0  0
  192.0450  176.7250  144.5340 C   0  0  0  0  0  0  0  0  0  0  0  0
  190.9260  176.0090  145.0680 N   0  0  0  0  0  2  0  0  0  0  0  0
  195.9850  175.0350  144.6970 C   0  0  0  0  0  0  0  0  0  0  0  0
  194.1280  175.9330  143.4350 C   0  0  0  0  0  3  0  0  0  0  0  0
  193.3320  175.9640  147.0250 F   0  0  0  0  0  0  0  0  0  0  0  0
  197.3510  174.4500  144.7380 C   0  0  0  0  0  1  0  0  0  0  0  0
  195.4120  175.3830  143.4740 C   0  0  0  0  0  3  0  0  0  0  0  0
  193.9900  175.7840  145.8520 C   0  0  0  0  0  0  0  0  0  0  0  0
  193.4010  176.1400  144.6180 C   0  0  0  0  0  0  0  0  0  0  0  0
  195.2750  175.2350  145.8820 C   0  0  0  0  0  3  0  0  0  0  0  0
  1  9  1  0  0  0  0
  1  6  1  0  0  0  0
  2  3  1  6  0  0  0
  2 13  1  0  0  0  0
  2  5  1  0  0  0  0
  4  7  1  0  0  0  0
  5 14  1  0  0  0  0
  5 16  2  0  0  0  0
  7  3  2  0  0  0  0
  8 23  1  1  0  0  0
  8 12  1  0  0  0  0
 10 18  1  0  0  0  0
 11  4  2  0  0  0  0
 12 16  1  0  0  0  0
 13 18  1  6  0  0  0
 13  8  1  0  0  0  0
 14  1  2  0  0  0  0
 15 20  2  0  0  0  0
 15  4  1  0  0  0  0
 16 17  1  0  0  0  0
 17  6  2  0  0  0  0
 19 10  2  0  0  0  0
 19  3  1  0  0  0  0
 20 19  1  0  0  0  0
 21 22  2  0  0  0  0
 22 30  1  0  0  0  0
 22 23  1  0  0  0  0
 24 27  1  0  0  0  0
 24 31  1  0  0  0  0
 25 28  1  0  0  0  0
 25 30  2  0  0  0  0
 28 24  2  0  0  0  0
 29 31  2  0  0  0  0
 29 26  1  0  0  0  0
 30 29  1  0  0  0  0
M  END
>  <MODEL>
1

>  <REMARK>
 VINA RESULT:      -9.0      0.000      0.000
  Name = 
  2 active torsions:
  status: ('A' for Active; 'I' for Inactive)
    1  A    between atoms: C_5  and  C_30
    2  A    between atoms: C_10  and  N_16
                            x       y       z     vdW  Elec       q    Type
                         _______ _______ _______ _____ _____    ______ ____

>  <TORSDO>
F 2

$$$$
=
 OpenBabel11112417023D

 31 35  0  0  1  0  0  0  0  0999 V2000
  186.2810  177.9700  140.8060 C   0  0  0  0  0  0  0  0  0  0  0  0
  188.6210  177.8720  143.8040 C   0  0  2  0  0  3  0  0  0  0  0  0
  187.7730  177.5460  145.0260 C   0  0  0  0  0  0  0  0  0  0  0  0
  185.6260  177.3400  146.1860 C   0  0  0  0  0  0  0  0  0  0  0  0
  187.9670  177.5030  142.4910 C   0  0  0  0  0  0  0  0  0  0  0  0
  186.6520  176.8190  140.1090 C   0  0  0  0  0  3  0  0  0  0  0  0
  186.4320  177.5510  144.9720 C   0  0  0  0  0  3  0  0  0  0  0  0
  189.9560  175.7450  143.6330 C   0  0  2  0  0  3  0  0  0  0  0  0
  185.2830  178.7550  140.3350 F   0  0  0  0  0  0  0  0  0  0  0  0
  189.7680  177.3950  146.4380 C   0  0  0  0  0  3  0  0  0  0  0  0
  184.3700  177.3100  146.1130 O   0  0  0  0  0  0  0  0  0  0  0  0
  189.5310  175.5160  142.1860 C   0  0  0  0  0  2  0  0  0  0  0  0
  190.0260  177.2510  143.9280 C   0  0  2  0  0  3  0  0  0  0  0  0
  186.9370  178.3110  141.9910 C   0  0  0  0  0  3  0  0  0  0  0  0
  186.2950  177.1780  147.4880 C   0  0  0  0  0  3  0  0  0  0  0  0
  188.3420  176.3400  141.7810 C   0  0  0  0  0  0  0  0  0  0  0  0
  187.6860  176.0120  140.5900 C   0  0  0  0  0  3  0  0  0  0  0  0
  190.5760  177.4950  145.2620 N   0  0  0  0  0  2  0  0  0  0  0  0
  188.4400  177.3760  146.3460 C   0  0  0  0  0  0  0  0  0  0  0  0
  187.6280  177.2000  147.5640 C   0  0  0  0  0  3  0  0  0  0  0  0
  190.6000  174.0010  145.7810 O   0  0  0  0  0  0  0  0  0  0  0  0
  191.5260  174.2770  144.9690 C   0  0  0  0  0  0  0  0  0  0  0  0
  191.2530  175.1190  143.8440 N   0  0  0  0  0  2  0  0  0  0  0  0
  195.4450  172.6210  145.5220 C   0  0  0  0  0  0  0  0  0  0  0  0
  193.1070  172.3600  144.9640 C   0  0  0  0  0  3  0  0  0  0  0  0
  193.8160  175.8780  145.7600 F   0  0  0  0  0  0  0  0  0  0  0  0
  196.7970  172.0340  145.7100 C   0  0  0  0  0  1  0  0  0  0  0  0
  194.3770  171.8080  145.1410 C   0  0  0  0  0  3  0  0  0  0  0  0
  193.9730  174.5470  145.5530 C   0  0  0  0  0  0  0  0  0  0  0  0
  192.8860  173.7310  145.1670 C   0  0  0  0  0  0  0  0  0  0  0  0
  195.2420  173.9870  145.7270 C   0  0  0  0  0  3  0  0  0  0  0  0
  1 14  1  0  0  0  0
  2  5  1  6  0  0  0
  2 13  1  0  0  0  0
  2  3  1  0  0  0  0
  3 19  1  0  0  0  0
  4 15  1  0  0  0  0
  6 17  1  0  0  0  0
  6  1  2  0  0  0  0
  7  3  2  0  0  0  0
  7  4  1  0  0  0  0
  8 23  1  6  0  0  0
  8 13  1  0  0  0  0
  9  1  1  0  0  0  0
 11  4  2  0  0  0  0
 12  8  1  0  0  0  0
 13 18  1  1  0  0  0
 14  5  2  0  0  0  0
 15 20  2  0  0  0  0
 16 12  1  0  0  0  0
 16  5  1  0  0  0  0
 17 16  2  0  0  0  0
 18 10  1  0  0  0  0
 19 10  2  0  0  0  0
 19 20  1  0  0  0  0
 22 30  1  0  0  0  0
 22 21  2  0  0  0  0
 23 22  1  0  0  0  0
 24 27  1  0  0  0  0
 24 31  1  0  0  0  0
 25 28  1  0  0  0  0
 25 30  2  0  0  0  0
 28 24  2  0  0  0  0
 29 31  2  0  0  0  0
 29 26  1  0  0  0  0
 30 29  1  0  0  0  0
M  END
>  <MODEL>
2

>  <REMARK>
 VINA RESULT:      -8.6      2.402      4.370
  Name = 
  2 active torsions:
  status: ('A' for Active; 'I' for Inactive)
    1  A    between atoms: C_5  and  C_30
    2  A    between atoms: C_10  and  N_16
                            x       y       z     vdW  Elec       q    Type
                         _______ _______ _______ _____ _____    ______ ____

>  <TORSDO>
F 2

$$$$
=
 OpenBabel11112417023D

 31 35  0  0  1  0  0  0  0  0999 V2000
  186.3510  177.8230  147.1870 C   0  0  0  0  0  0  0  0  0  0  0  0
  189.3330  177.5380  144.8410 C   0  0  2  0  0  3  0  0  0  0  0  0
  190.3810  176.6880  145.5460 C   0  0  0  0  0  0  0  0  0  0  0  0
  191.3340  175.6260  147.5370 C   0  0  0  0  0  0  0  0  0  0  0  0
  187.9370  177.3770  145.4020 C   0  0  0  0  0  0  0  0  0  0  0  0
  185.3950  177.0380  146.5390 C   0  0  0  0  0  3  0  0  0  0  0  0
  190.2610  176.3570  146.8420 C   0  0  0  0  0  3  0  0  0  0  0  0
  188.6750  175.9590  142.9940 C   0  0  2  0  0  3  0  0  0  0  0  0
  186.0530  178.4170  148.3660 F   0  0  0  0  0  0  0  0  0  0  0  0
  191.8030  176.6890  143.5530 C   0  0  0  0  0  3  0  0  0  0  0  0
  191.1910  175.2910  148.7410 O   0  0  0  0  0  0  0  0  0  0  0  0
  187.2000  176.0230  143.3750 C   0  0  0  0  0  2  0  0  0  0  0  0
  189.3600  177.2950  143.3190 C   0  0  2  0  0  3  0  0  0  0  0  0
  187.6160  177.9930  146.6190 C   0  0  0  0  0  3  0  0  0  0  0  0
  192.5790  175.3020  146.8220 C   0  0  0  0  0  3  0  0  0  0  0  0
  186.9660  176.5860  144.7470 C   0  0  0  0  0  0  0  0  0  0  0  0
  185.6990  176.4300  145.3180 C   0  0  0  0  0  3  0  0  0  0  0  0
  190.7380  177.3080  142.8250 N   0  0  0  0  0  2  0  0  0  0  0  0
  191.6420  176.3500  144.8310 C   0  0  0  0  0  0  0  0  0  0  0  0
  192.7270  175.6490  145.5410 C   0  0  0  0  0  3  0  0  0  0  0  0
  188.7690  173.3500  141.8750 O   0  0  0  0  0  0  0  0  0  0  0  0
  188.8600  174.3210  141.0740 C   0  0  0  0  0  0  0  0  0  0  0  0
  188.7800  175.6600  141.5730 N   0  0  0  0  0  2  0  0  0  0  0  0
  189.3160  173.6770  136.8570 C   0  0  0  0  0  0  0  0  0  0  0  0
  188.0580  174.5410  138.7330 C   0  0  0  0  0  3  0  0  0  0  0  0
  191.1540  172.9570  139.9270 F   0  0  0  0  0  0  0  0  0  0  0  0
  189.4610  173.4600  135.3940 C   0  0  0  0  0  1  0  0  0  0  0  0
  188.1940  174.3380  137.3580 C   0  0  0  0  0  3  0  0  0  0  0  0
  190.1730  173.4170  139.1100 C   0  0  0  0  0  0  0  0  0  0  0  0
  189.0400  174.0850  139.6250 C   0  0  0  0  0  0  0  0  0  0  0  0
  190.3020  173.2180  137.7320 C   0  0  0  0  0  3  0  0  0  0  0  0
  1  9  1  0  0  0  0
  2  5  1  1  0  0  0
  2  3  1  0  0  0  0
  3  7  2  0  0  0  0
  4 11  2  0  0  0  0
  5 14  2  0  0  0  0
  6  1  2  0  0  0  0
  7  4  1  0  0  0  0
  8 23  1  6  0  0  0
  8 13  1  0  0  0  0
  8 12  1  0  0  0  0
 10 19  2  0  0  0  0
 12 16  1  0  0  0  0
 13 18  1  1  0  0  0
 13  2  1  0  0  0  0
 14  1  1  0  0  0  0
 15  4  1  0  0  0  0
 16 17  2  0  0  0  0
 16  5  1  0  0  0  0
 17  6  1  0  0  0  0
 18 10  1  0  0  0  0
 19 20  1  0  0  0  0
 19  3  1  0  0  0  0
 20 15  2  0  0  0  0
 22 23  1  0  0  0  0
 22 21  2  0  0  0  0
 24 28  2  0  0  0  0
 24 31  1  0  0  0  0
 25 30  2  0  0  0  0
 27 24  1  0  0  0  0
 28 25  1  0  0  0  0
 29 30  1  0  0  0  0
 29 26  1  0  0  0  0
 30 22  1  0  0  0  0
 31 29  2  0  0  0  0
M  END
>  <MODEL>
3

>  <REMARK>
 VINA RESULT:      -8.2      3.157      6.332
  Name = 
  2 active torsions:
  status: ('A' for Active; 'I' for Inactive)
    1  A    between atoms: C_5  and  C_30
    2  A    between atoms: C_10  and  N_16
                            x       y       z     vdW  Elec       q    Type
                         _______ _______ _______ _____ _____    ______ ____

>  <TORSDO>
F 2

$$$$
=
 OpenBabel11112417023D

 31 35  0  0  1  0  0  0  0  0999 V2000
  194.1030  170.5470  144.1580 C   0  0  0  0  0  0  0  0  0  0  0  0
  193.0440  173.7510  145.9150 C   0  0  2  0  0  3  0  0  0  0  0  0
  193.9370  174.8670  145.3930 C   0  0  0  0  0  0  0  0  0  0  0  0
  195.9300  175.6890  144.2300 C   0  0  0  0  0  0  0  0  0  0  0  0
  193.0000  172.5330  145.0190 C   0  0  0  0  0  0  0  0  0  0  0  0
  193.0210  170.3080  143.3090 C   0  0  0  0  0  3  0  0  0  0  0  0
  195.0150  174.6080  144.6370 C   0  0  0  0  0  3  0  0  0  0  0  0
  190.8470  174.4570  144.9080 C   0  0  2  0  0  3  0  0  0  0  0  0
  195.1650  169.7080  144.1520 F   0  0  0  0  0  0  0  0  0  0  0  0
  192.6580  176.5460  146.6340 C   0  0  0  0  0  3  0  0  0  0  0  0
  196.9160  175.4350  143.4910 O   0  0  0  0  0  0  0  0  0  0  0  0
  190.6470  173.1050  144.2290 C   0  0  0  0  0  2  0  0  0  0  0  0
  191.6260  174.2760  146.2190 C   0  0  2  0  0  3  0  0  0  0  0  0
  194.0920  171.6540  145.0100 C   0  0  0  0  0  3  0  0  0  0  0  0
  195.6930  177.0630  144.7020 C   0  0  0  0  0  3  0  0  0  0  0  0
  191.9050  172.2860  144.1610 C   0  0  0  0  0  0  0  0  0  0  0  0
  191.9210  171.1700  143.3180 C   0  0  0  0  0  3  0  0  0  0  0  0
  191.6980  175.5360  146.9600 N   0  0  0  0  0  2  0  0  0  0  0  0
  193.7030  176.2610  145.8600 C   0  0  0  0  0  0  0  0  0  0  0  0
  194.6410  177.3330  145.4780 C   0  0  0  0  0  3  0  0  0  0  0  0
  190.1020  177.1180  144.2480 O   0  0  0  0  0  0  0  0  0  0  0  0
  189.2400  176.4100  144.8390 C   0  0  0  0  0  0  0  0  0  0  0  0
  189.5420  175.0490  145.1630 N   0  0  0  0  0  2  0  0  0  0  0  0
  185.4090  178.0910  145.7930 C   0  0  0  0  0  0  0  0  0  0  0  0
  187.3200  177.9020  144.3250 C   0  0  0  0  0  3  0  0  0  0  0  0
  187.7710  175.7170  147.2470 F   0  0  0  0  0  0  0  0  0  0  0  0
  184.0830  178.6800  146.1120 C   0  0  0  0  0  1  0  0  0  0  0  0
  186.0740  178.4570  144.6230 C   0  0  0  0  0  3  0  0  0  0  0  0
  187.2390  176.6100  146.3750 C   0  0  0  0  0  0  0  0  0  0  0  0
  187.9190  176.9760  145.1920 C   0  0  0  0  0  0  0  0  0  0  0  0
  185.9910  177.1690  146.6660 C   0  0  0  0  0  3  0  0  0  0  0  0
  1 14  1  0  0  0  0
  2  5  1  6  0  0  0
  2 13  1  0  0  0  0
  3 19  1  0  0  0  0
  3  2  1  0  0  0  0
  4  7  1  0  0  0  0
  4 15  1  0  0  0  0
  6 17  1  0  0  0  0
  6  1  2  0  0  0  0
  7  3  2  0  0  0  0
  8 23  1  1  0  0  0
  8 13  1  0  0  0  0
  9  1  1  0  0  0  0
 10 18  1  0  0  0  0
 11  4  2  0  0  0  0
 12  8  1  0  0  0  0
 13 18  1  6  0  0  0
 14  5  2  0  0  0  0
 15 20  2  0  0  0  0
 16 12  1  0  0  0  0
 16  5  1  0  0  0  0
 17 16  2  0  0  0  0
 19 10  2  0  0  0  0
 20 19  1  0  0  0  0
 21 22  2  0  0  0  0
 22 23  1  0  0  0  0
 22 30  1  0  0  0  0
 24 27  1  0  0  0  0
 24 31  1  0  0  0  0
 25 28  1  0  0  0  0
 25 30  2  0  0  0  0
 28 24  2  0  0  0  0
 29 31  2  0  0  0  0
 29 26  1  0  0  0  0
 30 29  1  0  0  0  0
M  END
>  <MODEL>
4

>  <REMARK>
 VINA RESULT:      -8.2      3.095      8.539
  Name = 
  2 active torsions:
  status: ('A' for Active; 'I' for Inactive)
    1  A    between atoms: C_5  and  C_30
    2  A    between atoms: C_10  and  N_16
                            x       y       z     vdW  Elec       q    Type
                         _______ _______ _______ _____ _____    ______ ____

>  <TORSDO>
F 2

$$$$
=
 OpenBabel11112417023D

 31 35  0  0  1  0  0  0  0  0999 V2000
  193.7180  171.1970  142.4080 C   0  0  0  0  0  0  0  0  0  0  0  0
  192.5840  173.6660  145.0710 C   0  0  2  0  0  3  0  0  0  0  0  0
  193.5460  174.8450  145.0300 C   0  0  0  0  0  0  0  0  0  0  0  0
  195.6530  175.9060  144.3700 C   0  0  0  0  0  0  0  0  0  0  0  0
  192.5910  172.8280  143.8120 C   0  0  0  0  0  0  0  0  0  0  0  0
  192.7090  171.3160  141.4510 C   0  0  0  0  0  3  0  0  0  0  0  0
  194.6810  174.8010  144.3140 C   0  0  0  0  0  3  0  0  0  0  0  0
  190.5020  174.7850  144.2050 C   0  0  2  0  0  3  0  0  0  0  0  0
  194.7560  170.3540  142.1950 F   0  0  0  0  0  0  0  0  0  0  0  0
  192.2040  176.0680  146.6730 C   0  0  0  0  0  3  0  0  0  0  0  0
  196.6940  175.8680  143.6650 O   0  0  0  0  0  0  0  0  0  0  0  0
  190.3310  173.7560  143.0930 C   0  0  0  0  0  2  0  0  0  0  0  0
  191.1590  174.1310  145.4300 C   0  0  2  0  0  3  0  0  0  0  0  0
  193.6580  171.9480  143.5840 C   0  0  0  0  0  3  0  0  0  0  0  0
  195.4080  177.0500  145.2650 C   0  0  0  0  0  3  0  0  0  0  0  0
  191.5690  172.9440  142.8420 C   0  0  0  0  0  0  0  0  0  0  0  0
  191.6330  172.1800  141.6730 C   0  0  0  0  0  3  0  0  0  0  0  0
  191.1950  175.0600  146.5600 N   0  0  0  0  0  2  0  0  0  0  0  0
  193.3060  176.0090  145.9270 C   0  0  0  0  0  0  0  0  0  0  0  0
  194.2980  177.0960  146.0060 C   0  0  0  0  0  3  0  0  0  0  0  0
  189.8790  177.5470  144.4350 O   0  0  0  0  0  0  0  0  0  0  0  0
  188.9530  176.7280  144.6860 C   0  0  0  0  0  0  0  0  0  0  0  0
  189.1940  175.3240  144.5500 N   0  0  0  0  0  2  0  0  0  0  0  0
  185.0820  178.1650  145.8530 C   0  0  0  0  0  0  0  0  0  0  0  0
  186.9390  178.1320  144.3040 C   0  0  0  0  0  3  0  0  0  0  0  0
  187.6220  175.8710  147.1210 F   0  0  0  0  0  0  0  0  0  0  0  0
  183.7410  178.6710  146.2450 C   0  0  0  0  0  1  0  0  0  0  0  0
  185.6790  178.6090  144.6730 C   0  0  0  0  0  3  0  0  0  0  0  0
  187.0090  176.7640  146.3050 C   0  0  0  0  0  0  0  0  0  0  0  0
  187.6200  177.2080  145.1120 C   0  0  0  0  0  0  0  0  0  0  0  0
  185.7470  177.2450  146.6660 C   0  0  0  0  0  3  0  0  0  0  0  0
  1 14  1  0  0  0  0
  2  5  1  6  0  0  0
  2 13  1  0  0  0  0
  3  2  1  0  0  0  0
  3 19  1  0  0  0  0
  4 15  1  0  0  0  0
  6 17  1  0  0  0  0
  6  1  2  0  0  0  0
  7  4  1  0  0  0  0
  7  3  2  0  0  0  0
  8 23  1  1  0  0  0
  8 13  1  0  0  0  0
  9  1  1  0  0  0  0
 11  4  2  0  0  0  0
 12  8  1  0  0  0  0
 13 18  1  1  0  0  0
 14  5  2  0  0  0  0
 15 20  2  0  0  0  0
 16 12  1  0  0  0  0
 16  5  1  0  0  0  0
 17 16  2  0  0  0  0
 18 10  1  0  0  0  0
 19 20  1  0  0  0  0
 19 10  2  0  0  0  0
 21 22  2  0  0  0  0
 22 30  1  0  0  0  0
 23 22  1  0  0  0  0
 24 27  1  0  0  0  0
 24 31  1  0  0  0  0
 25 28  1  0  0  0  0
 25 30  2  0  0  0  0
 28 24  2  0  0  0  0
 29 31  2  0  0  0  0
 29 26  1  0  0  0  0
 30 29  1  0  0  0  0
M  END
>  <MODEL>
5

>  <REMARK>
 VINA RESULT:      -8.1      2.957      8.488
  Name = 
  2 active torsions:
  status: ('A' for Active; 'I' for Inactive)
    1  A    between atoms: C_5  and  C_30
    2  A    between atoms: C_10  and  N_16
                            x       y       z     vdW  Elec       q    Type
                         _______ _______ _______ _____ _____    ______ ____

>  <TORSDO>
F 2

$$$$
=
 OpenBabel11112417023D

 31 35  0  0  1  0  0  0  0  0999 V2000
  185.4030  179.3240  143.5830 C   0  0  0  0  0  0  0  0  0  0  0  0
  188.5940  177.2530  143.5480 C   0  0  2  0  0  3  0  0  0  0  0  0
  188.6070  176.4250  144.8250 C   0  0  0  0  0  0  0  0  0  0  0  0
  187.8190  175.9090  147.0870 C   0  0  0  0  0  0  0  0  0  0  0  0
  187.2240  177.7710  143.1690 C   0  0  0  0  0  0  0  0  0  0  0  0
  184.6500  178.7160  142.5770 C   0  0  0  0  0  3  0  0  0  0  0  0
  187.7260  176.6450  145.8140 C   0  0  0  0  0  3  0  0  0  0  0  0
  188.2690  175.4190  141.8540 C   0  0  2  0  0  3  0  0  0  0  0  0
  184.8900  180.3680  144.2760 F   0  0  0  0  0  0  0  0  0  0  0  0
  190.6240  175.2390  144.1020 C   0  0  0  0  0  3  0  0  0  0  0  0
  186.9640  176.0990  147.9900 O   0  0  0  0  0  0  0  0  0  0  0  0
  187.0360  176.0940  141.2610 C   0  0  0  0  0  2  0  0  0  0  0  0
  189.2450  176.4790  142.3840 C   0  0  2  0  0  3  0  0  0  0  0  0
  186.6860  178.8540  143.8760 C   0  0  0  0  0  3  0  0  0  0  0  0
  188.9240  174.9600  147.3020 C   0  0  0  0  0  3  0  0  0  0  0  0
  186.4600  177.1590  142.1500 C   0  0  0  0  0  0  0  0  0  0  0  0
  185.1810  177.6440  141.8570 C   0  0  0  0  0  3  0  0  0  0  0  0
  190.4980  175.8620  142.8200 N   0  0  0  0  0  2  0  0  0  0  0  0
  189.7170  175.4580  145.0520 C   0  0  0  0  0  0  0  0  0  0  0  0
  189.8260  174.7500  146.3410 C   0  0  0  0  0  3  0  0  0  0  0  0
  187.9550  172.6110  141.5620 O   0  0  0  0  0  0  0  0  0  0  0  0
  188.7300  173.1880  140.7510 C   0  0  0  0  0  0  0  0  0  0  0  0
  188.9000  174.6080  140.8230 N   0  0  0  0  0  2  0  0  0  0  0  0
  190.8940  170.9070  137.8310 C   0  0  0  0  0  0  0  0  0  0  0  0
  190.5910  171.6750  140.1040 C   0  0  0  0  0  3  0  0  0  0  0  0
  187.9610  173.0770  137.9520 F   0  0  0  0  0  0  0  0  0  0  0  0
  191.6530  170.1130  136.8310 C   0  0  0  0  0  1  0  0  0  0  0  0
  191.3050  170.9280  139.1640 C   0  0  0  0  0  3  0  0  0  0  0  0
  189.0490  172.3850  138.3730 C   0  0  0  0  0  0  0  0  0  0  0  0
  189.4590  172.4110  139.7250 C   0  0  0  0  0  0  0  0  0  0  0  0
  189.7680  171.6350  137.4380 C   0  0  0  0  0  3  0  0  0  0  0  0
  1 14  1  0  0  0  0
  1  9  1  0  0  0  0
  2  5  1  6  0  0  0
  2  3  1  0  0  0  0
  3 19  1  0  0  0  0
  3  7  2  0  0  0  0
  4 15  1  0  0  0  0
  4 11  2  0  0  0  0
  5 14  2  0  0  0  0
  6  1  2  0  0  0  0
  7  4  1  0  0  0  0
  8 23  1  6  0  0  0
  8 13  1  0  0  0  0
 10 19  2  0  0  0  0
 12  8  1  0  0  0  0
 12 16  1  0  0  0  0
 13 18  1  1  0  0  0
 13  2  1  0  0  0  0
 16  5  1  0  0  0  0
 17 16  2  0  0  0  0
 17  6  1  0  0  0  0
 18 10  1  0  0  0  0
 19 20  1  0  0  0  0
 20 15  2  0  0  0  0
 22 23  1  0  0  0  0
 22 21  2  0  0  0  0
 24 28  1  0  0  0  0
 26 29  1  0  0  0  0
 27 24  1  0  0  0  0
 28 25  2  0  0  0  0
 29 30  2  0  0  0  0
 30 25  1  0  0  0  0
 30 22  1  0  0  0  0
 31 24  2  0  0  0  0
 31 29  1  0  0  0  0
M  END
>  <MODEL>
6

>  <REMARK>
 VINA RESULT:      -8.0      4.029      6.243
  Name = 
  2 active torsions:
  status: ('A' for Active; 'I' for Inactive)
    1  A    between atoms: C_5  and  C_30
    2  A    between atoms: C_10  and  N_16
                            x       y       z     vdW  Elec       q    Type
                         _______ _______ _______ _____ _____    ______ ____

>  <TORSDO>
F 2

$$$$
=
 OpenBabel11112417023D

 31 35  0  0  1  0  0  0  0  0999 V2000
  185.6200  177.4410  146.5260 C   0  0  0  0  0  0  0  0  0  0  0  0
  187.5250  175.6060  143.7920 C   0  0  2  0  0  3  0  0  0  0  0  0
  187.1890  176.2880  142.4730 C   0  0  0  0  0  0  0  0  0  0  0  0
  185.8230  177.7720  141.0830 C   0  0  0  0  0  0  0  0  0  0  0  0
  187.2430  176.4580  145.0100 C   0  0  0  0  0  0  0  0  0  0  0  0
  186.6470  178.1000  147.2050 C   0  0  0  0  0  3  0  0  0  0  0  0
  186.2080  177.2010  142.3850 C   0  0  0  0  0  3  0  0  0  0  0  0
  189.9460  176.2650  144.0060 C   0  0  2  0  0  3  0  0  0  0  0  0
  184.3360  177.5980  146.9240 F   0  0  0  0  0  0  0  0  0  0  0  0
  188.8070  174.8950  141.2750 C   0  0  0  0  0  3  0  0  0  0  0  0
  184.9270  178.6540  141.0210 O   0  0  0  0  0  0  0  0  0  0  0  0
  189.7270  176.8740  145.3870 C   0  0  0  0  0  2  0  0  0  0  0  0
  188.9790  175.0910  143.7900 C   0  0  2  0  0  3  0  0  0  0  0  0
  185.9180  176.6220  145.4350 C   0  0  0  0  0  3  0  0  0  0  0  0
  186.4800  177.2980  139.8540 C   0  0  0  0  0  3  0  0  0  0  0  0
  188.2800  177.1240  145.7010 C   0  0  0  0  0  0  0  0  0  0  0  0
  187.9730  177.9340  146.7990 C   0  0  0  0  0  3  0  0  0  0  0  0
  189.2720  174.3990  142.5350 N   0  0  0  0  0  2  0  0  0  0  0  0
  187.8510  175.8200  141.2250 C   0  0  0  0  0  0  0  0  0  0  0  0
  187.4370  176.3690  139.9210 C   0  0  0  0  0  3  0  0  0  0  0  0
  192.1140  177.8480  143.0780 O   0  0  0  0  0  0  0  0  0  0  0  0
  192.3710  176.6530  143.3940 C   0  0  0  0  0  0  0  0  0  0  0  0
  191.3280  175.8170  143.9050 N   0  0  0  0  0  2  0  0  0  0  0  0
  196.3600  175.1130  143.0420 C   0  0  0  0  0  0  0  0  0  0  0  0
  194.6410  176.2400  144.3150 C   0  0  0  0  0  3  0  0  0  0  0  0
  193.3420  175.3250  141.0000 F   0  0  0  0  0  0  0  0  0  0  0  0
  197.7440  174.5850  142.9340 C   0  0  0  0  0  1  0  0  0  0  0  0
  195.9420  175.7440  144.2140 C   0  0  0  0  0  3  0  0  0  0  0  0
  194.1710  175.4750  142.0630 C   0  0  0  0  0  0  0  0  0  0  0  0
  193.7400  176.1150  143.2460 C   0  0  0  0  0  0  0  0  0  0  0  0
  195.4750  174.9800  141.9700 C   0  0  0  0  0  3  0  0  0  0  0  0
  1  9  1  0  0  0  0
  1  6  1  0  0  0  0
  2  3  1  6  0  0  0
  2  5  1  0  0  0  0
  4  7  1  0  0  0  0
  5 14  1  0  0  0  0
  5 16  2  0  0  0  0
  7  3  2  0  0  0  0
  8 23  1  1  0  0  0
  8 12  1  0  0  0  0
 10 18  1  0  0  0  0
 11  4  2  0  0  0  0
 12 16  1  0  0  0  0
 13 18  1  6  0  0  0
 13  2  1  0  0  0  0
 13  8  1  0  0  0  0
 14  1  2  0  0  0  0
 15 20  2  0  0  0  0
 15  4  1  0  0  0  0
 16 17  1  0  0  0  0
 17  6  2  0  0  0  0
 19 10  2  0  0  0  0
 19  3  1  0  0  0  0
 20 19  1  0  0  0  0
 21 22  2  0  0  0  0
 22 23  1  0  0  0  0
 24 28  1  0  0  0  0
 26 29  1  0  0  0  0
 27 24  1  0  0  0  0
 28 25  2  0  0  0  0
 29 30  2  0  0  0  0
 30 22  1  0  0  0  0
 30 25  1  0  0  0  0
 31 29  1  0  0  0  0
 31 24  2  0  0  0  0
M  END
>  <MODEL>
7

>  <REMARK>
 VINA RESULT:      -7.9      1.458      1.745
  Name = 
  2 active torsions:
  status: ('A' for Active; 'I' for Inactive)
    1  A    between atoms: C_5  and  C_30
    2  A    between atoms: C_10  and  N_16
                            x       y       z     vdW  Elec       q    Type
                         _______ _______ _______ _____ _____    ______ ____

>  <TORSDO>
F 2

$$$$
=
 OpenBabel11112417023D

 31 35  0  0  1  0  0  0  0  0999 V2000
  196.0090  174.3660  144.5230 C   0  0  0  0  0  0  0  0  0  0  0  0
  192.6240  174.3370  142.7880 C   0  0  2  0  0  3  0  0  0  0  0  0
  192.1840  172.8830  142.6840 C   0  0  0  0  0  0  0  0  0  0  0  0
  192.6160  170.4730  142.7600 C   0  0  0  0  0  0  0  0  0  0  0  0
  193.6900  174.5790  143.8340 C   0  0  0  0  0  0  0  0  0  0  0  0
  195.6940  174.9160  145.7670 C   0  0  0  0  0  3  0  0  0  0  0  0
  193.0220  171.8740  142.9690 C   0  0  0  0  0  3  0  0  0  0  0  0
  190.9310  175.1760  144.4530 C   0  0  2  0  0  3  0  0  0  0  0  0
  197.2810  173.9900  144.2510 F   0  0  0  0  0  0  0  0  0  0  0  0
  190.0060  173.5480  141.7820 C   0  0  0  0  0  3  0  0  0  0  0  0
  193.3990  169.5370  143.0660 O   0  0  0  0  0  0  0  0  0  0  0  0
  192.0140  175.6970  145.3920 C   0  0  0  0  0  2  0  0  0  0  0  0
  191.4100  175.2650  142.9960 C   0  0  2  0  0  3  0  0  0  0  0  0
  195.0110  174.2000  143.5600 C   0  0  0  0  0  3  0  0  0  0  0  0
  191.2970  170.1740  142.1790 C   0  0  0  0  0  3  0  0  0  0  0  0
  193.3750  175.1380  145.0930 C   0  0  0  0  0  0  0  0  0  0  0  0
  194.3840  175.3100  146.0470 C   0  0  0  0  0  3  0  0  0  0  0  0
  190.3340  174.9120  142.0700 N   0  0  0  0  0  2  0  0  0  0  0  0
  190.8500  172.5690  142.1020 C   0  0  0  0  0  0  0  0  0  0  0  0
  190.4620  171.1670  141.8630 C   0  0  0  0  0  3  0  0  0  0  0  0
  188.9520  174.6810  146.4290 O   0  0  0  0  0  0  0  0  0  0  0  0
  188.7440  175.6420  145.6390 C   0  0  0  0  0  0  0  0  0  0  0  0
  189.7230  175.9660  144.6460 N   0  0  0  0  0  2  0  0  0  0  0  0
  185.1530  177.9620  145.9990 C   0  0  0  0  0  0  0  0  0  0  0  0
  187.0620  176.8640  146.9980 C   0  0  0  0  0  3  0  0  0  0  0  0
  187.1270  176.4080  143.3510 F   0  0  0  0  0  0  0  0  0  0  0  0
  183.9110  178.7650  146.1380 C   0  0  0  0  0  1  0  0  0  0  0  0
  185.8940  177.6200  147.1300 C   0  0  0  0  0  3  0  0  0  0  0  0
  186.7460  176.7910  144.5950 C   0  0  0  0  0  0  0  0  0  0  0  0
  187.5020  176.4400  145.7350 C   0  0  0  0  0  0  0  0  0  0  0  0
  185.5790  177.5470  144.7350 C   0  0  0  0  0  3  0  0  0  0  0  0
  1  6  1  0  0  0  0
  2  3  1  1  0  0  0
  2 13  1  0  0  0  0
  2  5  1  0  0  0  0
  3  7  2  0  0  0  0
  4  7  1  0  0  0  0
  4 11  2  0  0  0  0
  5 16  2  0  0  0  0
  6 17  2  0  0  0  0
  8 23  1  6  0  0  0
  8 12  1  0  0  0  0
  9  1  1  0  0  0  0
 10 18  1  0  0  0  0
 10 19  2  0  0  0  0
 13 18  1  6  0  0  0
 13  8  1  0  0  0  0
 14  5  1  0  0  0  0
 14  1  2  0  0  0  0
 15  4  1  0  0  0  0
 16 12  1  0  0  0  0
 16 17  1  0  0  0  0
 19  3  1  0  0  0  0
 20 19  1  0  0  0  0
 20 15  2  0  0  0  0
 22 30  1  0  0  0  0
 22 21  2  0  0  0  0
 23 22  1  0  0  0  0
 24 27  1  0  0  0  0
 24 28  1  0  0  0  0
 25 28  2  0  0  0  0
 26 29  1  0  0  0  0
 29 31  1  0  0  0  0
 29 30  2  0  0  0  0
 30 25  1  0  0  0  0
 31 24  2  0  0  0  0
M  END
>  <MODEL>
8

>  <REMARK>
 VINA RESULT:      -7.7      3.182      8.210
  Name = 
  2 active torsions:
  status: ('A' for Active; 'I' for Inactive)
    1  A    between atoms: C_5  and  C_30
    2  A    between atoms: C_10  and  N_16
                            x       y       z     vdW  Elec       q    Type
                         _______ _______ _______ _____ _____    ______ ____

>  <TORSDO>
F 2

$$$$
=
 OpenBabel11112417023D

 31 35  0  0  1  0  0  0  0  0999 V2000
  196.3110  175.6610  142.9220 C   0  0  0  0  0  0  0  0  0  0  0  0
  192.6700  174.7990  142.2370 C   0  0  2  0  0  3  0  0  0  0  0  0
  192.4850  173.3260  142.5730 C   0  0  0  0  0  0  0  0  0  0  0  0
  193.3460  171.0820  143.0420 C   0  0  0  0  0  0  0  0  0  0  0  0
  193.8950  175.4210  142.8700 C   0  0  0  0  0  0  0  0  0  0  0  0
  196.2110  176.4690  144.0560 C   0  0  0  0  0  3  0  0  0  0  0  0
  193.5330  172.5270  142.8250 C   0  0  0  0  0  3  0  0  0  0  0  0
  191.3040  175.8320  144.0830 C   0  0  2  0  0  3  0  0  0  0  0  0
  197.5270  175.3790  142.3960 F   0  0  0  0  0  0  0  0  0  0  0  0
  190.0720  173.4830  142.1860 C   0  0  0  0  0  3  0  0  0  0  0  0
  194.3340  170.3510  143.3140 O   0  0  0  0  0  0  0  0  0  0  0  0
  192.4690  176.6970  144.5510 C   0  0  0  0  0  2  0  0  0  0  0  0
  191.3960  175.6030  142.5660 C   0  0  2  0  0  3  0  0  0  0  0  0
  195.1570  175.1410  142.3300 C   0  0  0  0  0  3  0  0  0  0  0  0
  192.0020  170.4930  142.9260 C   0  0  0  0  0  3  0  0  0  0  0  0
  193.7970  176.2420  144.0160 C   0  0  0  0  0  0  0  0  0  0  0  0
  194.9570  176.7660  144.5950 C   0  0  0  0  0  3  0  0  0  0  0  0
  190.2100  174.9030  142.0720 N   0  0  0  0  0  2  0  0  0  0  0  0
  191.1280  172.7220  142.4630 C   0  0  0  0  0  0  0  0  0  0  0  0
  190.9520  171.2700  142.6470 C   0  0  0  0  0  3  0  0  0  0  0  0
  189.2740  174.7470  145.7480 O   0  0  0  0  0  0  0  0  0  0  0  0
  189.0560  175.8830  145.2430 C   0  0  0  0  0  0  0  0  0  0  0  0
  190.0570  176.4990  144.4270 N   0  0  0  0  0  2  0  0  0  0  0  0
  185.3510  177.9450  145.8990 C   0  0  0  0  0  0  0  0  0  0  0  0
  187.2420  177.4060  144.4920 C   0  0  0  0  0  3  0  0  0  0  0  0
  187.5480  175.6660  147.7170 F   0  0  0  0  0  0  0  0  0  0  0  0
  184.0690  178.6660  146.1130 C   0  0  0  0  0  1  0  0  0  0  0  0
  186.0370  178.0830  144.6930 C   0  0  0  0  0  3  0  0  0  0  0  0
  187.0760  176.4490  146.7140 C   0  0  0  0  0  0  0  0  0  0  0  0
  187.7780  176.5840  145.4950 C   0  0  0  0  0  0  0  0  0  0  0  0
  185.8710  177.1300  146.9070 C   0  0  0  0  0  3  0  0  0  0  0  0
  1  6  1  0  0  0  0
  2 13  1  0  0  0  0
  2  3  1  1  0  0  0
  2  5  1  0  0  0  0
  3  7  2  0  0  0  0
  4 11  2  0  0  0  0
  5 16  2  0  0  0  0
  6 17  2  0  0  0  0
  7  4  1  0  0  0  0
  8 23  1  6  0  0  0
  8 12  1  0  0  0  0
  9  1  1  0  0  0  0
 10 19  2  0  0  0  0
 13 18  1  1  0  0  0
 13  8  1  0  0  0  0
 14  5  1  0  0  0  0
 14  1  2  0  0  0  0
 15  4  1  0  0  0  0
 16 12  1  0  0  0  0
 16 17  1  0  0  0  0
 18 10  1  0  0  0  0
 19  3  1  0  0  0  0
 19 20  1  0  0  0  0
 20 15  2  0  0  0  0
 22 30  1  0  0  0  0
 22 21  2  0  0  0  0
 23 22  1  0  0  0  0
 24 27  1  0  0  0  0
 24 31  1  0  0  0  0
 25 28  1  0  0  0  0
 25 30  2  0  0  0  0
 28 24  2  0  0  0  0
 29 31  2  0  0  0  0
 29 26  1  0  0  0  0
 30 29  1  0  0  0  0
M  END
>  <MODEL>
9

>  <REMARK>
 VINA RESULT:      -7.7      3.064      8.204
  Name = 
  2 active torsions:
  status: ('A' for Active; 'I' for Inactive)
    1  A    between atoms: C_5  and  C_30
    2  A    between atoms: C_10  and  N_16
                            x       y       z     vdW  Elec       q    Type
                         _______ _______ _______ _____ _____    ______ ____

>  <TORSDO>
F 2

$$$$
