=
 OpenBabel11112417543D

 34 41  0  0  1  0  0  0  0  0999 V2000
  192.3350  176.0610  145.5400 C   0  0  0  0  0  0  0  0  0  0  0  0
  190.2940  177.0570  146.7440 C   0  0  0  0  0  2  0  0  0  0  0  0
  195.0910  174.9190  139.8410 C   0  0  2  0  0  3  0  0  0  0  0  0
  194.1510  175.1900  144.1750 C   0  0  0  0  0  0  0  0  0  0  0  0
  193.5850  174.8600  141.7560 C   0  0  1  0  0  3  0  0  0  0  0  0
  193.1270  174.3200  139.2690 C   0  0  0  0  0  2  0  0  0  0  0  0
  194.3170  174.9310  138.5420 C   0  0  0  0  0  2  0  0  0  0  0  0
  196.9230  173.7110  141.5650 S   0  0  0  0  0  0  0  0  0  0  0  0
  190.0410  176.1370  144.5840 C   0  0  0  0  0  0  0  0  0  0  0  0
  187.3100  176.3870  142.8370 C   0  0  0  0  0  2  0  0  0  0  0  0
  192.2530  174.4310  142.1800 N   0  0  0  0  0  2  0  0  0  0  0  0
  196.0320  175.0250  142.4980 C   0  0  0  0  0  2  0  0  0  0  0  0
  190.4550  175.5740  143.4230 C   0  0  0  0  0  0  0  0  0  0  0  0
  188.8760  177.3640  146.2470 C   0  0  0  0  0  2  0  0  0  0  0  0
  194.6100  174.5690  142.8790 C   0  0  1  0  0  3  0  0  0  0  0  0
  196.3850  174.1320  139.8500 C   0  0  0  0  0  2  0  0  0  0  0  0
  187.9670  177.3330  143.8490 C   0  0  2  0  0  3  0  0  0  0  0  0
  192.7870  175.4830  144.3480 C   0  0  0  0  0  0  0  0  0  0  0  0
  193.9960  174.1180  140.4970 C   0  0  1  0  0  3  0  0  0  0  0  0
  191.8500  175.2180  143.2790 N   0  0  0  0  0  0  0  0  0  0  0  0
  194.5800  175.9700  146.4380 C   0  0  0  0  0  3  0  0  0  0  0  0
  188.1110  175.1150  142.5550 C   0  0  0  0  0  2  0  0  0  0  0  0
  195.0380  175.4120  145.2400 C   0  0  0  0  0  3  0  0  0  0  0  0
  189.5580  175.4370  142.2140 C   0  0  0  0  0  2  0  0  0  0  0  0
  188.6570  176.5430  144.9660 C   0  0  1  0  0  3  0  0  0  0  0  0
  193.2310  176.3020  146.5880 C   0  0  0  0  0  3  0  0  0  0  0  0
  190.9470  176.3860  145.6400 N   0  0  0  0  0  0  0  0  0  0  0  0
  186.9890  178.1870  144.3660 O   0  0  0  0  0  0  0  0  0  0  0  0
  185.7960  177.4660  144.2630 C   0  0  0  0  0  2  0  0  0  0  0  0
  185.7710  177.4150  147.5160 O   0  0  0  0  0  0  0  0  0  0  0  0
  185.3060  179.1590  145.9960 C   0  0  0  0  0  2  0  0  0  0  0  0
  184.8500  177.8680  145.3810 C   0  0  2  0  0  3  0  0  0  0  0  0
  185.5730  178.8000  147.4380 C   0  0  0  0  0  2  0  0  0  0  0  0
  184.9550  176.8710  146.5120 C   0  0  0  0  0  2  0  0  0  0  0  0
  1 27  1  0  0  0  0
  1 26  1  0  0  0  0
  3  7  1  6  0  0  0
  3 16  1  0  0  0  0
  3 19  1  0  0  0  0
  4 18  1  0  0  0  0
  4 23  2  0  0  0  0
  5 11  1  1  0  0  0
  5 15  1  0  0  0  0
  7  6  1  0  0  0  0
  8 12  1  0  0  0  0
  9 25  1  0  0  0  0
  9 27  1  0  0  0  0
 10 17  1  0  0  0  0
 11 20  1  0  0  0  0
 13  9  2  0  0  0  0
 14  2  1  0  0  0  0
 15 12  1  6  0  0  0
 15  4  1  0  0  0  0
 16  8  1  0  0  0  0
 17 28  1  1  0  0  0
 17 25  1  0  0  0  0
 18  1  2  0  0  0  0
 19  6  1  6  0  0  0
 19  5  1  0  0  0  0
 20 13  1  0  0  0  0
 20 18  1  0  0  0  0
 21 26  2  0  0  0  0
 22 10  1  0  0  0  0
 23 21  1  0  0  0  0
 24 22  1  0  0  0  0
 24 13  1  0  0  0  0
 25 14  1  1  0  0  0
 27  2  1  0  0  0  0
 29 28  1  0  0  0  0
 31 33  1  0  0  0  0
 32 29  1  6  0  0  0
 32 31  1  0  0  0  0
 32 34  1  0  0  0  0
 33 30  1  0  0  0  0
 34 30  1  0  0  0  0
M  END
>  <MODEL>
1

>  <REMARK>
 VINA RESULT:      -8.5      0.000      0.000
  Name = 
  3 active torsions:
  status: ('A' for Active; 'I' for Inactive)
    1  A    between atoms: C_17  and  O_28
    2  A    between atoms: O_28  and  C_29
    3  A    between atoms: C_29  and  C_32
                            x       y       z     vdW  Elec       q    Type
                         _______ _______ _______ _____ _____    ______ ____

>  <TORSDO>
F 3

$$$$
=
 OpenBabel11112417543D

 34 41  0  0  1  0  0  0  0  0999 V2000
  192.2510  176.0050  145.5420 C   0  0  0  0  0  0  0  0  0  0  0  0
  190.0160  176.5770  146.6760 C   0  0  0  0  0  2  0  0  0  0  0  0
  195.3570  175.4320  139.9400 C   0  0  2  0  0  3  0  0  0  0  0  0
  194.2450  175.5120  144.2400 C   0  0  0  0  0  0  0  0  0  0  0  0
  193.8330  175.0760  141.8060 C   0  0  1  0  0  3  0  0  0  0  0  0
  193.5710  174.4560  139.3100 C   0  0  0  0  0  2  0  0  0  0  0  0
  194.6380  175.2900  138.6160 C   0  0  0  0  0  2  0  0  0  0  0  0
  197.3370  174.6120  141.7270 S   0  0  0  0  0  0  0  0  0  0  0  0
  190.0180  175.6250  144.5150 C   0  0  0  0  0  0  0  0  0  0  0  0
  187.3490  175.3280  142.6830 C   0  0  0  0  0  2  0  0  0  0  0  0
  192.6000  174.3910  142.1920 N   0  0  0  0  0  2  0  0  0  0  0  0
  196.1740  175.7230  142.6230 C   0  0  0  0  0  2  0  0  0  0  0  0
  190.5730  175.1540  143.3710 C   0  0  0  0  0  0  0  0  0  0  0  0
  188.5820  176.5960  146.1340 C   0  0  0  0  0  2  0  0  0  0  0  0
  194.8600  174.9940  142.9630 C   0  0  1  0  0  3  0  0  0  0  0  0
  196.7810  174.9170  139.9930 C   0  0  0  0  0  2  0  0  0  0  0  0
  187.7730  176.3850  143.7090 C   0  0  2  0  0  3  0  0  0  0  0  0
  192.8470  175.5280  144.3690 C   0  0  0  0  0  0  0  0  0  0  0  0
  194.4230  174.4290  140.5660 C   0  0  1  0  0  3  0  0  0  0  0  0
  192.0150  175.0820  143.2730 N   0  0  0  0  0  0  0  0  0  0  0  0
  194.4400  176.3620  146.5100 C   0  0  0  0  0  3  0  0  0  0  0  0
  188.3950  174.2390  142.4340 C   0  0  0  0  0  2  0  0  0  0  0  0
  195.0370  175.9050  145.3300 C   0  0  0  0  0  3  0  0  0  0  0  0
  189.7600  174.8420  142.1360 C   0  0  0  0  0  2  0  0  0  0  0  0
  188.5700  175.7480  144.8520 C   0  0  1  0  0  3  0  0  0  0  0  0
  193.0470  176.4200  146.6160 C   0  0  0  0  0  3  0  0  0  0  0  0
  190.8240  176.0490  145.5970 N   0  0  0  0  0  0  0  0  0  0  0  0
  186.6290  177.0280  144.1900 O   0  0  0  0  0  0  0  0  0  0  0  0
  186.6560  178.2940  143.5990 C   0  0  0  0  0  2  0  0  0  0  0  0
  183.6940  178.6650  144.8920 O   0  0  0  0  0  0  0  0  0  0  0  0
  185.8330  178.7540  145.8840 C   0  0  0  0  0  2  0  0  0  0  0  0
  185.9420  179.2960  144.4890 C   0  0  2  0  0  3  0  0  0  0  0  0
  184.3460  178.6840  146.1330 C   0  0  0  0  0  2  0  0  0  0  0  0
  184.5040  179.4310  144.0410 C   0  0  0  0  0  2  0  0  0  0  0  0
  1 27  1  0  0  0  0
  1 26  1  0  0  0  0
  3  7  1  6  0  0  0
  3 16  1  0  0  0  0
  3 19  1  0  0  0  0
  4 18  1  0  0  0  0
  4 23  2  0  0  0  0
  5 11  1  1  0  0  0
  5 15  1  0  0  0  0
  7  6  1  0  0  0  0
  8 12  1  0  0  0  0
  9 25  1  0  0  0  0
  9 27  1  0  0  0  0
 10 17  1  0  0  0  0
 11 20  1  0  0  0  0
 13  9  2  0  0  0  0
 14  2  1  0  0  0  0
 15 12  1  6  0  0  0
 15  4  1  0  0  0  0
 16  8  1  0  0  0  0
 17 28  1  1  0  0  0
 17 25  1  0  0  0  0
 18  1  2  0  0  0  0
 19  6  1  6  0  0  0
 19  5  1  0  0  0  0
 20 13  1  0  0  0  0
 20 18  1  0  0  0  0
 21 26  2  0  0  0  0
 22 10  1  0  0  0  0
 23 21  1  0  0  0  0
 24 22  1  0  0  0  0
 24 13  1  0  0  0  0
 25 14  1  1  0  0  0
 27  2  1  0  0  0  0
 29 28  1  0  0  0  0
 30 33  1  0  0  0  0
 31 33  1  0  0  0  0
 32 29  1  6  0  0  0
 32 31  1  0  0  0  0
 34 32  1  0  0  0  0
 34 30  1  0  0  0  0
M  END
>  <MODEL>
2

>  <REMARK>
 VINA RESULT:      -8.1      0.990      1.174
  Name = 
  3 active torsions:
  status: ('A' for Active; 'I' for Inactive)
    1  A    between atoms: C_17  and  O_28
    2  A    between atoms: O_28  and  C_29
    3  A    between atoms: C_29  and  C_32
                            x       y       z     vdW  Elec       q    Type
                         _______ _______ _______ _____ _____    ______ ____

>  <TORSDO>
F 3

$$$$
=
 OpenBabel11112417543D

 34 41  0  0  1  0  0  0  0  0999 V2000
  189.1230  174.8240  141.7630 C   0  0  0  0  0  0  0  0  0  0  0  0
  186.8640  175.8550  142.4290 C   0  0  0  0  0  2  0  0  0  0  0  0
  194.5350  172.0860  143.9010 C   0  0  2  0  0  3  0  0  0  0  0  0
  191.3020  173.8100  141.3900 C   0  0  0  0  0  0  0  0  0  0  0  0
  192.7720  173.6950  143.4170 C   0  0  1  0  0  3  0  0  0  0  0  0
  194.4680  173.6320  145.3660 C   0  0  0  0  0  2  0  0  0  0  0  0
  195.0020  172.2070  145.3350 C   0  0  0  0  0  2  0  0  0  0  0  0
  195.0520  172.2080  141.1610 S   0  0  0  0  0  0  0  0  0  0  0  0
  188.7000  176.0130  143.9060 C   0  0  0  0  0  0  0  0  0  0  0  0
  188.4640  177.1390  146.9470 C   0  0  0  0  0  2  0  0  0  0  0  0
  192.2430  175.0010  143.8090 N   0  0  0  0  0  2  0  0  0  0  0  0
  193.2280  172.1760  141.4040 C   0  0  0  0  0  2  0  0  0  0  0  0
  189.9630  175.7800  144.3380 C   0  0  0  0  0  0  0  0  0  0  0  0
  186.3710  176.4400  143.7580 C   0  0  0  0  0  2  0  0  0  0  0  0
  192.7060  173.5460  141.8770 C   0  0  1  0  0  3  0  0  0  0  0  0
  195.5980  171.7690  142.8690 C   0  0  0  0  0  2  0  0  0  0  0  0
  187.4840  176.3530  146.0680 C   0  0  2  0  0  3  0  0  0  0  0  0
  190.4300  174.5670  142.1900 C   0  0  0  0  0  0  0  0  0  0  0  0
  194.2130  173.5580  143.8720 C   0  0  1  0  0  3  0  0  0  0  0  0
  190.8720  175.0550  143.4780 N   0  0  0  0  0  0  0  0  0  0  0  0
  189.5700  173.6610  139.6890 C   0  0  0  0  0  3  0  0  0  0  0  0
  189.8250  177.3950  146.2950 C   0  0  0  0  0  2  0  0  0  0  0  0
  190.8710  173.3840  140.1230 C   0  0  0  0  0  3  0  0  0  0  0  0
  190.4220  176.1120  145.7400 C   0  0  0  0  0  2  0  0  0  0  0  0
  187.6160  176.7680  144.5990 C   0  0  1  0  0  3  0  0  0  0  0  0
  188.6920  174.3740  140.5100 C   0  0  0  0  0  3  0  0  0  0  0  0
  188.2640  175.5530  142.6420 N   0  0  0  0  0  0  0  0  0  0  0  0
  186.1860  176.5720  146.5380 O   0  0  0  0  0  0  0  0  0  0  0  0
  186.3170  177.5870  147.4880 C   0  0  0  0  0  2  0  0  0  0  0  0
  185.3060  179.4750  145.0390 O   0  0  0  0  0  0  0  0  0  0  0  0
  184.1030  178.0660  146.5000 C   0  0  0  0  0  2  0  0  0  0  0  0
  185.2570  178.6510  147.2600 C   0  0  2  0  0  3  0  0  0  0  0  0
  184.0510  178.8830  145.2310 C   0  0  0  0  0  2  0  0  0  0  0  0
  185.8020  179.7110  146.3300 C   0  0  0  0  0  2  0  0  0  0  0  0
  1 18  1  0  0  0  0
  1 27  1  0  0  0  0
  2 27  1  0  0  0  0
  2 14  1  0  0  0  0
  3 16  1  6  0  0  0
  3  7  1  0  0  0  0
  4 15  1  0  0  0  0
  4 18  2  0  0  0  0
  5 11  1  6  0  0  0
  5 19  1  0  0  0  0
  7  6  1  0  0  0  0
  8 12  1  0  0  0  0
  8 16  1  0  0  0  0
  9 13  2  0  0  0  0
  9 25  1  0  0  0  0
 13 24  1  0  0  0  0
 15 12  1  1  0  0  0
 15  5  1  0  0  0  0
 17 28  1  1  0  0  0
 17 10  1  0  0  0  0
 18 20  1  0  0  0  0
 19  3  1  0  0  0  0
 19  6  1  1  0  0  0
 20 11  1  0  0  0  0
 20 13  1  0  0  0  0
 21 23  2  0  0  0  0
 21 26  1  0  0  0  0
 22 10  1  0  0  0  0
 23  4  1  0  0  0  0
 24 22  1  0  0  0  0
 25 14  1  6  0  0  0
 25 17  1  0  0  0  0
 26  1  2  0  0  0  0
 27  9  1  0  0  0  0
 28 29  1  0  0  0  0
 30 33  1  0  0  0  0
 30 34  1  0  0  0  0
 31 32  1  0  0  0  0
 32 29  1  6  0  0  0
 33 31  1  0  0  0  0
 34 32  1  0  0  0  0
M  END
>  <MODEL>
3

>  <REMARK>
 VINA RESULT:      -8.1      1.967      4.210
  Name = 
  3 active torsions:
  status: ('A' for Active; 'I' for Inactive)
    1  A    between atoms: C_17  and  O_28
    2  A    between atoms: O_28  and  C_29
    3  A    between atoms: C_29  and  C_32
                            x       y       z     vdW  Elec       q    Type
                         _______ _______ _______ _____ _____    ______ ____

>  <TORSDO>
F 3

$$$$
=
 OpenBabel11112417543D

 34 41  0  0  1  0  0  0  0  0999 V2000
  190.5750  172.7880  142.5290 C   0  0  0  0  0  0  0  0  0  0  0  0
  188.3340  174.0440  142.4210 C   0  0  0  0  0  2  0  0  0  0  0  0
  196.2730  172.3600  145.4800 C   0  0  2  0  0  3  0  0  0  0  0  0
  192.7600  171.7620  142.8280 C   0  0  0  0  0  0  0  0  0  0  0  0
  194.4000  173.1390  144.1310 C   0  0  1  0  0  3  0  0  0  0  0  0
  196.2580  174.4850  145.3230 C   0  0  0  0  0  2  0  0  0  0  0  0
  196.8540  173.4870  146.3050 C   0  0  0  0  0  2  0  0  0  0  0  0
  196.5490  170.4000  143.5130 S   0  0  0  0  0  0  0  0  0  0  0  0
  190.2800  175.1850  143.1200 C   0  0  0  0  0  0  0  0  0  0  0  0
  190.2500  178.1990  144.3410 C   0  0  0  0  0  2  0  0  0  0  0  0
  193.8450  174.3230  143.4780 N   0  0  0  0  0  2  0  0  0  0  0  0
  194.7560  170.6150  143.8670 C   0  0  0  0  0  2  0  0  0  0  0  0
  191.5850  175.3100  143.4650 C   0  0  0  0  0  0  0  0  0  0  0  0
  187.9290  175.4350  142.9220 C   0  0  0  0  0  2  0  0  0  0  0  0
  194.2110  171.9020  143.2180 C   0  0  1  0  0  3  0  0  0  0  0  0
  197.2590  171.3510  144.9280 C   0  0  0  0  0  2  0  0  0  0  0  0
  189.2370  177.0510  144.4250 C   0  0  2  0  0  3  0  0  0  0  0  0
  191.9250  172.8910  142.8840 C   0  0  0  0  0  0  0  0  0  0  0  0
  195.8800  173.3380  144.4030 C   0  0  1  0  0  3  0  0  0  0  0  0
  192.4510  174.1570  143.3430 N   0  0  0  0  0  0  0  0  0  0  0  0
  190.8990  170.4580  141.9620 C   0  0  0  0  0  3  0  0  0  0  0  0
  191.5360  177.8470  143.5920 C   0  0  0  0  0  2  0  0  0  0  0  0
  192.2440  170.5530  142.3370 C   0  0  0  0  0  3  0  0  0  0  0  0
  192.1450  176.5540  144.1140 C   0  0  0  0  0  2  0  0  0  0  0  0
  189.2240  176.2390  143.1250 C   0  0  1  0  0  3  0  0  0  0  0  0
  190.0610  171.5720  142.0640 C   0  0  0  0  0  3  0  0  0  0  0  0
  189.7600  173.9550  142.6570 N   0  0  0  0  0  0  0  0  0  0  0  0
  187.9740  177.5850  144.6970 O   0  0  0  0  0  0  0  0  0  0  0  0
  187.8250  177.4590  146.0810 C   0  0  0  0  0  2  0  0  0  0  0  0
  185.0450  178.4590  147.4430 O   0  0  0  0  0  0  0  0  0  0  0  0
  185.4510  177.3480  145.4020 C   0  0  0  0  0  2  0  0  0  0  0  0
  186.4620  176.8710  146.4030 C   0  0  2  0  0  3  0  0  0  0  0  0
  184.4360  178.0920  146.2360 C   0  0  0  0  0  2  0  0  0  0  0  0
  185.9680  177.4380  147.7150 C   0  0  0  0  0  2  0  0  0  0  0  0
  1 27  1  0  0  0  0
  1 18  1  0  0  0  0
  2 27  1  0  0  0  0
  2 14  1  0  0  0  0
  3 16  1  6  0  0  0
  3  7  1  0  0  0  0
  4 18  2  0  0  0  0
  4 15  1  0  0  0  0
  5 11  1  6  0  0  0
  5 19  1  0  0  0  0
  6  7  1  0  0  0  0
  8 12  1  0  0  0  0
  8 16  1  0  0  0  0
  9 25  1  0  0  0  0
  9 13  2  0  0  0  0
 10 17  1  0  0  0  0
 13 24  1  0  0  0  0
 15 12  1  1  0  0  0
 15  5  1  0  0  0  0
 17 28  1  6  0  0  0
 18 20  1  0  0  0  0
 19  6  1  1  0  0  0
 19  3  1  0  0  0  0
 20 13  1  0  0  0  0
 20 11  1  0  0  0  0
 21 26  1  0  0  0  0
 21 23  2  0  0  0  0
 22 24  1  0  0  0  0
 22 10  1  0  0  0  0
 23  4  1  0  0  0  0
 25 14  1  1  0  0  0
 25 17  1  0  0  0  0
 26  1  2  0  0  0  0
 27  9  1  0  0  0  0
 28 29  1  0  0  0  0
 30 34  1  0  0  0  0
 31 33  1  0  0  0  0
 31 32  1  0  0  0  0
 32 29  1  6  0  0  0
 32 34  1  0  0  0  0
 33 30  1  0  0  0  0
M  END
>  <MODEL>
4

>  <REMARK>
 VINA RESULT:      -7.8      2.527      4.264
  Name = 
  3 active torsions:
  status: ('A' for Active; 'I' for Inactive)
    1  A    between atoms: C_17  and  O_28
    2  A    between atoms: O_28  and  C_29
    3  A    between atoms: C_29  and  C_32
                            x       y       z     vdW  Elec       q    Type
                         _______ _______ _______ _____ _____    ______ ____

>  <TORSDO>
F 3

$$$$
=
 OpenBabel11112417543D

 34 41  0  0  1  0  0  0  0  0999 V2000
  189.6580  173.7690  143.2050 C   0  0  0  0  0  0  0  0  0  0  0  0
  190.8090  171.7050  142.1920 C   0  0  0  0  0  2  0  0  0  0  0  0
  184.7500  177.8910  142.6800 C   0  0  2  0  0  3  0  0  0  0  0  0
  188.3920  175.6990  143.9700 C   0  0  0  0  0  0  0  0  0  0  0  0
  186.8140  176.6620  142.2780 C   0  0  1  0  0  3  0  0  0  0  0  0
  185.2510  177.8690  140.6090 C   0  0  0  0  0  2  0  0  0  0  0  0
  183.9650  178.0710  141.3990 C   0  0  0  0  0  2  0  0  0  0  0  0
  186.1140  178.9700  144.8640 S   0  0  0  0  0  0  0  0  0  0  0  0
  189.6270  173.1910  140.7870 C   0  0  0  0  0  0  0  0  0  0  0  0
  189.0250  172.5940  137.6480 C   0  0  0  0  0  2  0  0  0  0  0  0
  187.8150  176.3660  141.2540 N   0  0  0  0  0  2  0  0  0  0  0  0
  186.5030  177.1730  144.7690 C   0  0  0  0  0  2  0  0  0  0  0  0
  188.8420  174.2560  140.4940 C   0  0  0  0  0  0  0  0  0  0  0  0
  190.7360  171.0930  140.7880 C   0  0  0  0  0  2  0  0  0  0  0  0
  187.5120  176.8810  143.6430 C   0  0  1  0  0  3  0  0  0  0  0  0
  184.7140  179.0450  143.6610 C   0  0  0  0  0  2  0  0  0  0  0  0
  189.1400  171.6650  138.8620 C   0  0  2  0  0  3  0  0  0  0  0  0
  188.8420  174.8720  142.9280 C   0  0  0  0  0  0  0  0  0  0  0  0
  186.0410  177.9140  141.9050 C   0  0  1  0  0  3  0  0  0  0  0  0
  188.4360  175.1380  141.5670 N   0  0  0  0  0  0  0  0  0  0  0  0
  189.6660  174.3610  145.5510 C   0  0  0  0  0  3  0  0  0  0  0  0
  189.1650  174.0810  137.9800 C   0  0  0  0  0  2  0  0  0  0  0  0
  188.8330  175.4520  145.2800 C   0  0  0  0  0  3  0  0  0  0  0  0
  188.2450  174.4810  139.1240 C   0  0  0  0  0  2  0  0  0  0  0  0
  190.1950  172.1820  139.8460 C   0  0  1  0  0  3  0  0  0  0  0  0
  190.0730  173.5140  144.5170 C   0  0  0  0  0  3  0  0  0  0  0  0
  190.0420  172.9310  142.1130 N   0  0  0  0  0  0  0  0  0  0  0  0
  189.4560  170.3790  138.4150 O   0  0  0  0  0  0  0  0  0  0  0  0
  189.9180  170.5590  137.1080 C   0  0  0  0  0  2  0  0  0  0  0  0
  192.8890  169.8470  138.2250 O   0  0  0  0  0  0  0  0  0  0  0  0
  191.0140  168.4680  137.8370 C   0  0  0  0  0  2  0  0  0  0  0  0
  191.0160  169.5560  136.8030 C   0  0  2  0  0  3  0  0  0  0  0  0
  192.3820  168.5630  138.4690 C   0  0  0  0  0  2  0  0  0  0  0  0
  192.3640  170.2180  136.9780 C   0  0  0  0  0  2  0  0  0  0  0  0
  1 26  1  0  0  0  0
  3  7  1  6  0  0  0
  3 16  1  0  0  0  0
  4 23  2  0  0  0  0
  5 11  1  6  0  0  0
  5 15  1  0  0  0  0
  6  7  1  0  0  0  0
  9 27  1  0  0  0  0
 10 22  1  0  0  0  0
 10 17  1  0  0  0  0
 11 20  1  0  0  0  0
 12  8  1  0  0  0  0
 13  9  2  0  0  0  0
 13 20  1  0  0  0  0
 14  2  1  0  0  0  0
 15  4  1  0  0  0  0
 15 12  1  1  0  0  0
 16  8  1  0  0  0  0
 17 28  1  6  0  0  0
 17 25  1  0  0  0  0
 18  1  2  0  0  0  0
 18  4  1  0  0  0  0
 19  6  1  6  0  0  0
 19  5  1  0  0  0  0
 19  3  1  0  0  0  0
 20 18  1  0  0  0  0
 22 24  1  0  0  0  0
 23 21  1  0  0  0  0
 24 13  1  0  0  0  0
 25  9  1  0  0  0  0
 25 14  1  1  0  0  0
 26 21  2  0  0  0  0
 27  2  1  0  0  0  0
 27  1  1  0  0  0  0
 29 28  1  0  0  0  0
 30 33  1  0  0  0  0
 31 33  1  0  0  0  0
 32 34  1  0  0  0  0
 32 29  1  1  0  0  0
 32 31  1  0  0  0  0
 34 30  1  0  0  0  0
M  END
>  <MODEL>
5

>  <REMARK>
 VINA RESULT:      -7.7      4.902      8.970
  Name = 
  3 active torsions:
  status: ('A' for Active; 'I' for Inactive)
    1  A    between atoms: C_17  and  O_28
    2  A    between atoms: O_28  and  C_29
    3  A    between atoms: C_29  and  C_32
                            x       y       z     vdW  Elec       q    Type
                         _______ _______ _______ _____ _____    ______ ____

>  <TORSDO>
F 3

$$$$
=
 OpenBabel11112417543D

 34 41  0  0  1  0  0  0  0  0999 V2000
  190.8920  173.7000  141.2410 C   0  0  0  0  0  0  0  0  0  0  0  0
  188.4470  174.4950  141.2400 C   0  0  0  0  0  2  0  0  0  0  0  0
  196.2390  173.0120  144.7480 C   0  0  2  0  0  3  0  0  0  0  0  0
  193.2140  173.0200  141.4960 C   0  0  0  0  0  0  0  0  0  0  0  0
  194.3740  173.9660  143.5050 C   0  0  1  0  0  3  0  0  0  0  0  0
  195.7630  174.9690  145.4410 C   0  0  0  0  0  2  0  0  0  0  0  0
  196.4730  173.7630  146.0400 C   0  0  0  0  0  2  0  0  0  0  0  0
  197.1300  172.1410  142.2500 S   0  0  0  0  0  0  0  0  0  0  0  0
  190.0130  175.5380  142.6670 C   0  0  0  0  0  0  0  0  0  0  0  0
  189.1950  177.7020  144.9510 C   0  0  0  0  0  2  0  0  0  0  0  0
  193.6320  175.2070  143.2840 N   0  0  0  0  0  2  0  0  0  0  0  0
  195.3090  171.8870  142.3350 C   0  0  0  0  0  2  0  0  0  0  0  0
  191.2190  175.7180  143.2590 C   0  0  0  0  0  0  0  0  0  0  0  0
  187.6950  175.4570  142.1680 C   0  0  0  0  0  2  0  0  0  0  0  0
  194.5530  173.2180  142.1610 C   0  0  1  0  0  3  0  0  0  0  0  0
  197.4730  172.5080  144.0270 C   0  0  0  0  0  2  0  0  0  0  0  0
  188.4610  176.4770  144.3930 C   0  0  2  0  0  3  0  0  0  0  0  0
  192.1450  173.8640  141.8420 C   0  0  0  0  0  0  0  0  0  0  0  0
  195.7400  174.2730  144.0920 C   0  0  1  0  0  3  0  0  0  0  0  0
  192.3290  174.8850  142.8490 N   0  0  0  0  0  0  0  0  0  0  0  0
  191.7810  171.9160  139.8690 C   0  0  0  0  0  3  0  0  0  0  0  0
  190.5920  177.9180  144.3660 C   0  0  0  0  0  2  0  0  0  0  0  0
  193.0290  172.0640  140.4840 C   0  0  0  0  0  3  0  0  0  0  0  0
  191.4230  176.6460  144.4350 C   0  0  0  0  0  2  0  0  0  0  0  0
  188.7520  176.3010  142.8990 C   0  0  1  0  0  3  0  0  0  0  0  0
  190.7090  172.7270  140.2510 C   0  0  0  0  0  3  0  0  0  0  0  0
  189.8280  174.5510  141.6710 N   0  0  0  0  0  0  0  0  0  0  0  0
  187.0920  176.6300  144.6250 O   0  0  0  0  0  0  0  0  0  0  0  0
  186.9490  177.9510  145.0570 C   0  0  0  0  0  2  0  0  0  0  0  0
  185.9590  178.5870  142.0240 O   0  0  0  0  0  0  0  0  0  0  0  0
  184.8540  177.5240  143.8170 C   0  0  0  0  0  2  0  0  0  0  0  0
  185.7460  178.5890  144.3830 C   0  0  2  0  0  3  0  0  0  0  0  0
  184.8290  177.8190  142.3370 C   0  0  0  0  0  2  0  0  0  0  0  0
  186.2030  179.3630  143.1670 C   0  0  0  0  0  2  0  0  0  0  0  0
  1 27  1  0  0  0  0
  1 18  1  0  0  0  0
  2 27  1  0  0  0  0
  2 14  1  0  0  0  0
  3 16  1  6  0  0  0
  3  7  1  0  0  0  0
  4 18  2  0  0  0  0
  4 15  1  0  0  0  0
  5 11  1  6  0  0  0
  5 19  1  0  0  0  0
  6  7  1  0  0  0  0
  8 12  1  0  0  0  0
  8 16  1  0  0  0  0
  9 25  1  0  0  0  0
  9 13  2  0  0  0  0
 13 24  1  0  0  0  0
 15 12  1  1  0  0  0
 15  5  1  0  0  0  0
 17 28  1  6  0  0  0
 17 10  1  0  0  0  0
 18 20  1  0  0  0  0
 19  3  1  0  0  0  0
 19  6  1  1  0  0  0
 20 13  1  0  0  0  0
 20 11  1  0  0  0  0
 21 26  1  0  0  0  0
 21 23  2  0  0  0  0
 22 24  1  0  0  0  0
 22 10  1  0  0  0  0
 23  4  1  0  0  0  0
 25 14  1  6  0  0  0
 25 17  1  0  0  0  0
 26  1  2  0  0  0  0
 27  9  1  0  0  0  0
 28 29  1  0  0  0  0
 30 33  1  0  0  0  0
 30 34  1  0  0  0  0
 31 32  1  0  0  0  0
 32 29  1  6  0  0  0
 33 31  1  0  0  0  0
 34 32  1  0  0  0  0
M  END
>  <MODEL>
6

>  <REMARK>
 VINA RESULT:      -7.5      1.977      4.316
  Name = 
  3 active torsions:
  status: ('A' for Active; 'I' for Inactive)
    1  A    between atoms: C_17  and  O_28
    2  A    between atoms: O_28  and  C_29
    3  A    between atoms: C_29  and  C_32
                            x       y       z     vdW  Elec       q    Type
                         _______ _______ _______ _____ _____    ______ ____

>  <TORSDO>
F 3

$$$$
=
 OpenBabel11112417543D

 34 41  0  0  1  0  0  0  0  0999 V2000
  188.9240  174.3530  140.9110 C   0  0  0  0  0  0  0  0  0  0  0  0
  187.5470  176.4300  141.5430 C   0  0  0  0  0  2  0  0  0  0  0  0
  192.5070  169.4950  143.1300 C   0  0  2  0  0  3  0  0  0  0  0  0
  190.2720  172.3570  140.5720 C   0  0  0  0  0  0  0  0  0  0  0  0
  191.7130  171.7160  142.5190 C   0  0  1  0  0  3  0  0  0  0  0  0
  193.3680  170.9980  144.3720 C   0  0  0  0  0  2  0  0  0  0  0  0
  193.1300  169.5010  144.5090 C   0  0  0  0  0  2  0  0  0  0  0  0
  192.7090  169.0850  140.3770 S   0  0  0  0  0  0  0  0  0  0  0  0
  189.3780  175.7900  142.8900 C   0  0  0  0  0  0  0  0  0  0  0  0
  190.0620  177.1630  145.7560 C   0  0  0  0  0  2  0  0  0  0  0  0
  191.9380  173.1410  142.7560 N   0  0  0  0  0  2  0  0  0  0  0  0
  191.1420  169.9900  140.7140 C   0  0  0  0  0  2  0  0  0  0  0  0
  190.4050  175.0000  143.2870 C   0  0  0  0  0  0  0  0  0  0  0  0
  187.5550  177.3050  142.8020 C   0  0  0  0  0  2  0  0  0  0  0  0
  191.4120  171.4760  141.0190 C   0  0  1  0  0  3  0  0  0  0  0  0
  193.1570  168.5940  142.1000 C   0  0  0  0  0  2  0  0  0  0  0  0
  188.7320  176.8920  145.0430 C   0  0  2  0  0  3  0  0  0  0  0  0
  189.9770  173.5190  141.3040 C   0  0  0  0  0  0  0  0  0  0  0  0
  192.9440  170.9210  142.9160 C   0  0  1  0  0  3  0  0  0  0  0  0
  190.7410  173.8400  142.4890 N   0  0  0  0  0  0  0  0  0  0  0  0
  188.5110  172.9330  138.9960 C   0  0  0  0  0  3  0  0  0  0  0  0
  191.2930  176.6440  145.0090 C   0  0  0  0  0  2  0  0  0  0  0  0
  189.5500  172.0860  139.3990 C   0  0  0  0  0  3  0  0  0  0  0  0
  191.1200  175.1870  144.6050 C   0  0  0  0  0  2  0  0  0  0  0  0
  188.8860  177.0460  143.5260 C   0  0  1  0  0  3  0  0  0  0  0  0
  188.1910  174.0620  139.7550 C   0  0  0  0  0  3  0  0  0  0  0  0
  188.6350  175.4920  141.7240 N   0  0  0  0  0  0  0  0  0  0  0  0
  187.7680  177.7720  145.5430 O   0  0  0  0  0  0  0  0  0  0  0  0
  187.6130  177.4070  146.8830 C   0  0  0  0  0  2  0  0  0  0  0  0
  185.0620  179.3550  146.3550 O   0  0  0  0  0  0  0  0  0  0  0  0
  185.2990  177.0210  146.1050 C   0  0  0  0  0  2  0  0  0  0  0  0
  186.1440  177.4550  147.2660 C   0  0  2  0  0  3  0  0  0  0  0  0
  184.4360  178.2240  145.8130 C   0  0  0  0  0  2  0  0  0  0  0  0
  185.7320  178.8910  147.4970 C   0  0  0  0  0  2  0  0  0  0  0  0
  1 18  1  0  0  0  0
  1 27  1  0  0  0  0
  2 27  1  0  0  0  0
  2 14  1  0  0  0  0
  3 16  1  6  0  0  0
  3  7  1  0  0  0  0
  4 15  1  0  0  0  0
  4 18  2  0  0  0  0
  5 11  1  6  0  0  0
  5 19  1  0  0  0  0
  6  7  1  0  0  0  0
  8 12  1  0  0  0  0
  8 16  1  0  0  0  0
  9 13  2  0  0  0  0
  9 25  1  0  0  0  0
 13 24  1  0  0  0  0
 15 12  1  1  0  0  0
 15  5  1  0  0  0  0
 17 28  1  1  0  0  0
 17 10  1  0  0  0  0
 18 20  1  0  0  0  0
 19  3  1  0  0  0  0
 19  6  1  1  0  0  0
 20 11  1  0  0  0  0
 20 13  1  0  0  0  0
 21 23  2  0  0  0  0
 21 26  1  0  0  0  0
 22 10  1  0  0  0  0
 23  4  1  0  0  0  0
 24 22  1  0  0  0  0
 25 14  1  6  0  0  0
 25 17  1  0  0  0  0
 26  1  2  0  0  0  0
 27  9  1  0  0  0  0
 28 29  1  0  0  0  0
 30 34  1  0  0  0  0
 31 32  1  0  0  0  0
 32 29  1  6  0  0  0
 32 34  1  0  0  0  0
 33 31  1  0  0  0  0
 33 30  1  0  0  0  0
M  END
>  <MODEL>
7

>  <REMARK>
 VINA RESULT:      -7.5      3.093      5.019
  Name = 
  3 active torsions:
  status: ('A' for Active; 'I' for Inactive)
    1  A    between atoms: C_17  and  O_28
    2  A    between atoms: O_28  and  C_29
    3  A    between atoms: C_29  and  C_32
                            x       y       z     vdW  Elec       q    Type
                         _______ _______ _______ _____ _____    ______ ____

>  <TORSDO>
F 3

$$$$
=
 OpenBabel11112417543D

 34 41  0  0  1  0  0  0  0  0999 V2000
  192.8870  176.1080  144.3880 C   0  0  0  0  0  0  0  0  0  0  0  0
  190.8090  176.6300  145.8090 C   0  0  0  0  0  2  0  0  0  0  0  0
  195.1610  175.2920  138.4270 C   0  0  2  0  0  3  0  0  0  0  0  0
  194.6960  175.6370  142.8320 C   0  0  0  0  0  0  0  0  0  0  0  0
  193.9600  174.9900  140.5250 C   0  0  1  0  0  3  0  0  0  0  0  0
  193.3760  174.1630  138.1460 C   0  0  0  0  0  2  0  0  0  0  0  0
  194.2660  175.0040  137.2420 C   0  0  0  0  0  2  0  0  0  0  0  0
  197.4380  174.7340  139.9420 S   0  0  0  0  0  0  0  0  0  0  0  0
  190.5600  175.5150  143.7420 C   0  0  0  0  0  0  0  0  0  0  0  0
  187.6760  174.9160  142.3640 C   0  0  0  0  0  2  0  0  0  0  0  0
  192.8500  174.2630  141.1400 N   0  0  0  0  0  2  0  0  0  0  0  0
  196.3440  175.8380  140.9280 C   0  0  0  0  0  2  0  0  0  0  0  0
  190.9700  174.9920  142.5610 C   0  0  0  0  0  0  0  0  0  0  0  0
  189.3130  176.5200  145.4930 C   0  0  0  0  0  2  0  0  0  0  0  0
  195.1500  175.0600  141.5140 C   0  0  1  0  0  3  0  0  0  0  0  0
  196.6110  174.8700  138.2970 C   0  0  0  0  0  2  0  0  0  0  0  0
  188.1710  176.0740  143.2390 C   0  0  2  0  0  3  0  0  0  0  0  0
  193.3340  175.5790  143.1720 C   0  0  0  0  0  0  0  0  0  0  0  0
  194.4050  174.2860  139.2560 C   0  0  1  0  0  3  0  0  0  0  0  0
  192.3830  175.0000  142.2490 N   0  0  0  0  0  0  0  0  0  0  0  0
  195.1640  176.6710  144.9830 C   0  0  0  0  0  3  0  0  0  0  0  0
  188.7490  173.8770  142.0320 C   0  0  0  0  0  2  0  0  0  0  0  0
  195.6110  176.1610  143.7590 C   0  0  0  0  0  3  0  0  0  0  0  0
  190.0080  174.5360  141.4890 C   0  0  0  0  0  2  0  0  0  0  0  0
  189.1720  175.5760  144.2870 C   0  0  1  0  0  3  0  0  0  0  0  0
  193.8020  176.6530  145.2960 C   0  0  0  0  0  3  0  0  0  0  0  0
  191.4840  176.0700  144.6570 N   0  0  0  0  0  0  0  0  0  0  0  0
  187.0680  176.6810  143.8450 O   0  0  0  0  0  0  0  0  0  0  0  0
  186.0950  176.7350  142.8440 C   0  0  0  0  0  2  0  0  0  0  0  0
  183.8850  178.7790  144.0760 O   0  0  0  0  0  0  0  0  0  0  0  0
  186.2020  179.0450  143.7160 C   0  0  0  0  0  2  0  0  0  0  0  0
  185.6560  178.1720  142.6240 C   0  0  2  0  0  3  0  0  0  0  0  0
  184.9700  179.6140  144.3770 C   0  0  0  0  0  2  0  0  0  0  0  0
  184.1570  178.2710  142.7970 C   0  0  0  0  0  2  0  0  0  0  0  0
  1 27  1  0  0  0  0
  1 26  1  0  0  0  0
  3  7  1  6  0  0  0
  3 19  1  0  0  0  0
  4 18  1  0  0  0  0
  4 23  2  0  0  0  0
  5 11  1  1  0  0  0
  5 15  1  0  0  0  0
  7  6  1  0  0  0  0
  8 12  1  0  0  0  0
  9 25  1  0  0  0  0
  9 27  1  0  0  0  0
 10 17  1  0  0  0  0
 11 20  1  0  0  0  0
 13  9  2  0  0  0  0
 14  2  1  0  0  0  0
 15 12  1  6  0  0  0
 15  4  1  0  0  0  0
 16  3  1  0  0  0  0
 16  8  1  0  0  0  0
 17 28  1  1  0  0  0
 17 25  1  0  0  0  0
 18  1  2  0  0  0  0
 19  6  1  6  0  0  0
 19  5  1  0  0  0  0
 20 13  1  0  0  0  0
 20 18  1  0  0  0  0
 21 26  2  0  0  0  0
 22 10  1  0  0  0  0
 23 21  1  0  0  0  0
 24 22  1  0  0  0  0
 24 13  1  0  0  0  0
 25 14  1  1  0  0  0
 27  2  1  0  0  0  0
 29 28  1  0  0  0  0
 30 33  1  0  0  0  0
 31 33  1  0  0  0  0
 32 34  1  0  0  0  0
 32 29  1  1  0  0  0
 32 31  1  0  0  0  0
 34 30  1  0  0  0  0
M  END
>  <MODEL>
8

>  <REMARK>
 VINA RESULT:      -7.5      1.616      1.864
  Name = 
  3 active torsions:
  status: ('A' for Active; 'I' for Inactive)
    1  A    between atoms: C_17  and  O_28
    2  A    between atoms: O_28  and  C_29
    3  A    between atoms: C_29  and  C_32
                            x       y       z     vdW  Elec       q    Type
                         _______ _______ _______ _____ _____    ______ ____

>  <TORSDO>
F 3

$$$$
=
 OpenBabel11112417543D

 34 41  0  0  1  0  0  0  0  0999 V2000
  188.6060  176.4650  146.5280 C   0  0  0  0  0  0  0  0  0  0  0  0
  190.6770  175.4220  147.6380 C   0  0  0  0  0  2  0  0  0  0  0  0
  185.4990  177.4560  140.9840 C   0  0  2  0  0  3  0  0  0  0  0  0
  186.7410  177.3600  145.2480 C   0  0  0  0  0  0  0  0  0  0  0  0
  187.1430  177.5320  142.7800 C   0  0  1  0  0  3  0  0  0  0  0  0
  187.4420  177.9160  140.2410 C   0  0  0  0  0  2  0  0  0  0  0  0
  186.1730  177.3340  139.6350 C   0  0  0  0  0  2  0  0  0  0  0  0
  183.8620  178.8500  142.7630 S   0  0  0  0  0  0  0  0  0  0  0  0
  190.8160  176.2130  145.4170 C   0  0  0  0  0  0  0  0  0  0  0  0
  193.3950  175.7230  143.4980 C   0  0  0  0  0  2  0  0  0  0  0  0
  188.5220  177.9100  143.0840 N   0  0  0  0  0  2  0  0  0  0  0  0
  184.7520  177.5410  143.7020 C   0  0  0  0  0  2  0  0  0  0  0  0
  190.3470  176.7370  144.2590 C   0  0  0  0  0  0  0  0  0  0  0  0
  192.0370  175.0140  147.0600 C   0  0  0  0  0  2  0  0  0  0  0  0
  186.2190  177.9380  143.9550 C   0  0  1  0  0  3  0  0  0  0  0  0
  184.2500  178.3120  141.0410 C   0  0  0  0  0  2  0  0  0  0  0  0
  192.7670  174.8690  144.6050 C   0  0  2  0  0  3  0  0  0  0  0  0
  188.0960  177.0030  145.3400 C   0  0  0  0  0  0  0  0  0  0  0  0
  186.6780  178.2290  141.5150 C   0  0  1  0  0  3  0  0  0  0  0  0
  188.9650  177.1610  144.1950 N   0  0  0  0  0  0  0  0  0  0  0  0
  186.4410  176.7250  147.5770 C   0  0  0  0  0  3  0  0  0  0  0  0
  192.6400  177.0210  143.2020 C   0  0  0  0  0  2  0  0  0  0  0  0
  185.9240  177.2440  146.3840 C   0  0  0  0  0  3  0  0  0  0  0  0
  191.1570  176.7610  142.9830 C   0  0  0  0  0  2  0  0  0  0  0  0
  192.2020  175.7530  145.7220 C   0  0  1  0  0  3  0  0  0  0  0  0
  187.7790  176.3270  147.6480 C   0  0  0  0  0  3  0  0  0  0  0  0
  189.9790  176.0700  146.5470 N   0  0  0  0  0  0  0  0  0  0  0  0
  193.7360  173.9910  145.0990 O   0  0  0  0  0  0  0  0  0  0  0  0
  194.2520  173.3560  143.9670 C   0  0  0  0  0  2  0  0  0  0  0  0
  197.2020  174.5450  144.6510 O   0  0  0  0  0  0  0  0  0  0  0  0
  195.9120  172.8940  145.7380 C   0  0  0  0  0  2  0  0  0  0  0  0
  195.6370  172.8090  144.2650 C   0  0  2  0  0  3  0  0  0  0  0  0
  197.1240  173.7910  145.8290 C   0  0  0  0  0  2  0  0  0  0  0  0
  196.6780  173.7140  143.6490 C   0  0  0  0  0  2  0  0  0  0  0  0
  1 27  1  0  0  0  0
  1 26  1  0  0  0  0
  3  7  1  6  0  0  0
  3 16  1  0  0  0  0
  3 19  1  0  0  0  0
  4 18  1  0  0  0  0
  4 23  2  0  0  0  0
  5 11  1  1  0  0  0
  5 15  1  0  0  0  0
  7  6  1  0  0  0  0
  8 12  1  0  0  0  0
  9 25  1  0  0  0  0
  9 27  1  0  0  0  0
 10 17  1  0  0  0  0
 11 20  1  0  0  0  0
 13  9  2  0  0  0  0
 14  2  1  0  0  0  0
 15 12  1  6  0  0  0
 15  4  1  0  0  0  0
 16  8  1  0  0  0  0
 17 28  1  1  0  0  0
 17 25  1  0  0  0  0
 18  1  2  0  0  0  0
 19  6  1  6  0  0  0
 19  5  1  0  0  0  0
 20 13  1  0  0  0  0
 20 18  1  0  0  0  0
 21 26  2  0  0  0  0
 22 10  1  0  0  0  0
 23 21  1  0  0  0  0
 24 22  1  0  0  0  0
 24 13  1  0  0  0  0
 25 14  1  1  0  0  0
 27  2  1  0  0  0  0
 29 28  1  0  0  0  0
 30 33  1  0  0  0  0
 31 33  1  0  0  0  0
 32 29  1  1  0  0  0
 32 31  1  0  0  0  0
 34 32  1  0  0  0  0
 34 30  1  0  0  0  0
M  END
>  <MODEL>
9

>  <REMARK>
 VINA RESULT:      -7.4      3.947      8.220
  Name = 
  3 active torsions:
  status: ('A' for Active; 'I' for Inactive)
    1  A    between atoms: C_17  and  O_28
    2  A    between atoms: O_28  and  C_29
    3  A    between atoms: C_29  and  C_32
                            x       y       z     vdW  Elec       q    Type
                         _______ _______ _______ _____ _____    ______ ____

>  <TORSDO>
F 3

$$$$
