=
 OpenBabel11112416193D

 30 35  0  0  1  0  0  0  0  0999 V2000
  186.4550  177.1710  143.7020 C   0  0  0  0  0  0  0  0  0  0  0  0
  184.8430  178.2840  145.2930 C   0  0  0  0  0  0  0  0  0  0  0  0
  188.8040  175.8970  146.8320 N   0  0  0  0  0  2  0  0  0  0  0  0
  187.6220  176.3780  143.5000 C   0  0  0  0  0  0  0  0  0  0  0  0
  185.7280  177.6230  142.5550 N   0  0  0  0  0  2  0  0  0  0  0  0
  187.5960  176.1460  139.8640 O   0  0  0  0  0  0  0  0  0  0  0  0
  190.2710  175.1870  142.2930 C   0  0  1  0  0  3  0  0  0  0  0  0
  187.2380  176.4450  141.0380 C   0  0  0  0  0  0  0  0  0  0  0  0
  190.6250  175.0750  143.7660 C   0  0  2  0  0  3  0  0  0  0  0  0
  189.7790  175.3300  146.0920 C   0  0  0  0  0  0  0  0  0  0  0  0
  186.1190  177.3060  141.2480 N   0  0  0  0  0  0  0  0  0  0  0  0
  187.9390  175.9100  142.1700 N   0  0  0  0  0  0  0  0  0  0  0  0
  184.4820  178.5660  146.6150 C   0  0  0  0  0  3  0  0  0  0  0  0
  191.2060  173.6860  143.9390 C   0  0  0  0  0  2  0  0  0  0  0  0
  191.2440  174.2650  141.5730 C   0  0  0  0  0  2  0  0  0  0  0  0
  183.7550  178.9340  144.0720 Cl  0  0  0  0  0  0  0  0  0  0  0  0
  187.9400  176.3310  145.8990 C   0  0  0  0  0  0  0  0  0  0  0  0
  185.2480  178.1120  147.6830 C   0  0  0  0  0  3  0  0  0  0  0  0
  186.0140  177.5150  145.0220 C   0  0  0  0  0  0  0  0  0  0  0  0
  188.3770  176.0190  144.6380 C   0  0  0  0  0  0  0  0  0  0  0  0
  190.8180  174.8460  146.6140 O   0  0  0  0  0  0  0  0  0  0  0  0
  189.5650  175.3680  144.7500 N   0  0  0  0  0  0  0  0  0  0  0  0
  191.9050  173.3920  142.6280 C   0  0  0  0  0  2  0  0  0  0  0  0
  188.3330  173.4980  142.5460 C   0  0  0  0  0  1  0  0  0  0  0  0
  186.3940  177.3640  147.4440 C   0  0  0  0  0  3  0  0  0  0  0  0
  186.7800  177.0610  146.1330 C   0  0  0  0  0  0  0  0  0  0  0  0
  188.8460  174.7980  141.9320 C   0  0  2  0  0  3  0  0  0  0  0  0
  185.3920  177.8850  140.1300 C   0  0  0  0  0  2  0  0  0  0  0  0
  183.0690  177.8840  140.2910 C   0  0  0  0  0  1  0  0  0  0  0  0
  184.2580  178.6440  140.6270 N   0  0  0  0  0  2  0  0  0  0  0  0
  1 19  1  0  0  0  0
  2 13  1  0  0  0  0
  4  1  2  0  0  0  0
  4 20  1  0  0  0  0
  5  1  1  0  0  0  0
  6  8  2  0  0  0  0
  7 15  1  6  0  0  0
  7  9  1  0  0  0  0
  8 11  1  0  0  0  0
  8 12  1  0  0  0  0
  9 14  1  6  0  0  0
  9 22  1  0  0  0  0
 10 21  2  0  0  0  0
 10  3  1  0  0  0  0
 11  5  1  0  0  0  0
 12  4  1  0  0  0  0
 13 18  2  0  0  0  0
 15 23  1  0  0  0  0
 16  2  1  0  0  0  0
 17 26  1  0  0  0  0
 17  3  1  0  0  0  0
 19  2  2  0  0  0  0
 19 26  1  0  0  0  0
 20 22  1  0  0  0  0
 20 17  2  0  0  0  0
 22 10  1  0  0  0  0
 23 14  1  0  0  0  0
 25 18  1  0  0  0  0
 26 25  2  0  0  0  0
 27 12  1  0  0  0  0
 27  7  1  0  0  0  0
 27 24  1  1  0  0  0
 28 30  1  0  0  0  0
 28 11  1  0  0  0  0
 29 30  1  0  0  0  0
M  END
>  <MODEL>
1

>  <REMARK>
 VINA RESULT:      -8.6      0.000      0.000
  Name = 
  2 active torsions:
  status: ('A' for Active; 'I' for Inactive)
    1  A    between atoms: N_11  and  C_28
    2  A    between atoms: C_28  and  N_30
                            x       y       z     vdW  Elec       q    Type
                         _______ _______ _______ _____ _____    ______ ____

>  <TORSDO>
F 2

$$$$
=
 OpenBabel11112416193D

 30 35  0  0  1  0  0  0  0  0999 V2000
  189.5600  175.5830  144.0040 C   0  0  0  0  0  0  0  0  0  0  0  0
  191.5770  174.8660  145.3400 C   0  0  0  0  0  0  0  0  0  0  0  0
  187.9820  177.5340  147.2670 N   0  0  0  0  0  2  0  0  0  0  0  0
  188.3340  176.3070  143.9350 C   0  0  0  0  0  0  0  0  0  0  0  0
  190.0070  174.8830  142.8400 N   0  0  0  0  0  2  0  0  0  0  0  0
  187.4500  175.7040  140.4530 O   0  0  0  0  0  0  0  0  0  0  0  0
  185.4030  177.1870  143.2060 C   0  0  1  0  0  3  0  0  0  0  0  0
  188.1030  175.6810  141.5330 C   0  0  0  0  0  0  0  0  0  0  0  0
  185.4170  177.6320  144.6590 C   0  0  2  0  0  3  0  0  0  0  0  0
  186.8230  177.9160  146.6920 C   0  0  0  0  0  0  0  0  0  0  0  0
  189.2890  174.8930  141.6370 N   0  0  0  0  0  0  0  0  0  0  0  0
  187.6720  176.4590  142.6590 N   0  0  0  0  0  0  0  0  0  0  0  0
  192.2680  174.8930  146.5560 C   0  0  0  0  0  3  0  0  0  0  0  0
  184.8140  179.0220  144.6630 C   0  0  0  0  0  2  0  0  0  0  0  0
  184.2300  177.9190  142.5710 C   0  0  0  0  0  2  0  0  0  0  0  0
  192.3680  173.9550  144.0580 Cl  0  0  0  0  0  0  0  0  0  0  0  0
  188.6140  176.9000  146.2650 C   0  0  0  0  0  0  0  0  0  0  0  0
  191.7630  175.5770  147.6560 C   0  0  0  0  0  3  0  0  0  0  0  0
  190.3310  175.5510  145.2120 C   0  0  0  0  0  0  0  0  0  0  0  0
  187.8620  176.9160  145.1190 C   0  0  0  0  0  0  0  0  0  0  0  0
  185.9170  178.5040  147.3400 O   0  0  0  0  0  0  0  0  0  0  0  0
  186.7010  177.5730  145.3810 N   0  0  0  0  0  0  0  0  0  0  0  0
  183.7980  179.0090  143.5400 C   0  0  0  0  0  2  0  0  0  0  0  0
  187.2400  178.8930  142.5820 C   0  0  0  0  0  1  0  0  0  0  0  0
  190.5500  176.2490  147.5560 C   0  0  0  0  0  3  0  0  0  0  0  0
  189.8370  176.2440  146.3530 C   0  0  0  0  0  0  0  0  0  0  0  0
  186.6700  177.4860  142.4200 C   0  0  2  0  0  3  0  0  0  0  0  0
  189.7510  174.0750  140.5280 C   0  0  0  0  0  2  0  0  0  0  0  0
  188.4340  172.5100  139.4140 C   0  0  0  0  0  1  0  0  0  0  0  0
  189.1830  172.7430  140.6350 N   0  0  0  0  0  2  0  0  0  0  0  0
  1 19  1  0  0  0  0
  2 13  1  0  0  0  0
  4  1  2  0  0  0  0
  4 20  1  0  0  0  0
  5  1  1  0  0  0  0
  6  8  2  0  0  0  0
  7 15  1  6  0  0  0
  7  9  1  0  0  0  0
  8 11  1  0  0  0  0
  8 12  1  0  0  0  0
  9 14  1  6  0  0  0
  9 22  1  0  0  0  0
 10  3  1  0  0  0  0
 10 21  2  0  0  0  0
 11  5  1  0  0  0  0
 12  4  1  0  0  0  0
 13 18  2  0  0  0  0
 15 23  1  0  0  0  0
 16  2  1  0  0  0  0
 17 26  1  0  0  0  0
 17  3  1  0  0  0  0
 19  2  2  0  0  0  0
 19 26  1  0  0  0  0
 20 22  1  0  0  0  0
 20 17  2  0  0  0  0
 22 10  1  0  0  0  0
 23 14  1  0  0  0  0
 25 18  1  0  0  0  0
 26 25  2  0  0  0  0
 27 24  1  1  0  0  0
 27 12  1  0  0  0  0
 27  7  1  0  0  0  0
 28 30  1  0  0  0  0
 28 11  1  0  0  0  0
 29 30  1  0  0  0  0
M  END
>  <MODEL>
2

>  <REMARK>
 VINA RESULT:      -8.3      2.805      5.624
  Name = 
  2 active torsions:
  status: ('A' for Active; 'I' for Inactive)
    1  A    between atoms: N_11  and  C_28
    2  A    between atoms: C_28  and  N_30
                            x       y       z     vdW  Elec       q    Type
                         _______ _______ _______ _____ _____    ______ ____

>  <TORSDO>
F 2

$$$$
=
 OpenBabel11112416193D

 30 35  0  0  1  0  0  0  0  0999 V2000
  187.5230  176.7200  143.7790 C   0  0  0  0  0  0  0  0  0  0  0  0
  185.3390  177.8940  144.2440 C   0  0  0  0  0  0  0  0  0  0  0  0
  188.9150  177.6240  147.5450 N   0  0  0  0  0  2  0  0  0  0  0  0
  188.8000  176.2840  144.2410 C   0  0  0  0  0  0  0  0  0  0  0  0
  187.1410  176.4130  142.4350 N   0  0  0  0  0  2  0  0  0  0  0  0
  189.9710  174.5300  141.2700 O   0  0  0  0  0  0  0  0  0  0  0  0
  191.8440  175.4990  144.3560 C   0  0  1  0  0  3  0  0  0  0  0  0
  189.2160  175.1840  142.0420 C   0  0  0  0  0  0  0  0  0  0  0  0
  191.7210  176.1300  145.7330 C   0  0  2  0  0  3  0  0  0  0  0  0
  190.1490  177.0990  147.4010 C   0  0  0  0  0  0  0  0  0  0  0  0
  187.9720  175.6950  141.5650 N   0  0  0  0  0  0  0  0  0  0  0  0
  189.5920  175.4050  143.4090 N   0  0  0  0  0  0  0  0  0  0  0  0
  184.5370  178.5970  145.1500 C   0  0  0  0  0  3  0  0  0  0  0  0
  192.4200  175.1760  146.6800 C   0  0  0  0  0  2  0  0  0  0  0  0
  193.1230  174.6770  144.4020 C   0  0  0  0  0  2  0  0  0  0  0  0
  184.6120  177.6240  142.6640 Cl  0  0  0  0  0  0  0  0  0  0  0  0
  188.3380  177.3550  146.3620 C   0  0  0  0  0  0  0  0  0  0  0  0
  184.9810  178.8790  146.4370 C   0  0  0  0  0  3  0  0  0  0  0  0
  186.6380  177.4510  144.6370 C   0  0  0  0  0  0  0  0  0  0  0  0
  189.1980  176.6740  145.5380 C   0  0  0  0  0  0  0  0  0  0  0  0
  191.0280  177.2000  148.2970 O   0  0  0  0  0  0  0  0  0  0  0  0
  190.3720  176.4990  146.2010 N   0  0  0  0  0  0  0  0  0  0  0  0
  193.5370  174.5640  145.8610 C   0  0  0  0  0  2  0  0  0  0  0  0
  190.2050  173.6050  144.9900 C   0  0  0  0  0  1  0  0  0  0  0  0
  186.2430  178.4600  146.8410 C   0  0  0  0  0  3  0  0  0  0  0  0
  187.0680  177.7520  145.9600 C   0  0  0  0  0  0  0  0  0  0  0  0
  190.6850  174.6070  143.9420 C   0  0  2  0  0  3  0  0  0  0  0  0
  187.5610  175.5110  140.1830 C   0  0  0  0  0  2  0  0  0  0  0  0
  186.5280  176.4650  138.3260 C   0  0  0  0  0  1  0  0  0  0  0  0
  186.9400  176.7280  139.6920 N   0  0  0  0  0  2  0  0  0  0  0  0
  1  4  2  0  0  0  0
  1 19  1  0  0  0  0
  2 19  2  0  0  0  0
  2 13  1  0  0  0  0
  4 20  1  0  0  0  0
  5  1  1  0  0  0  0
  6  8  2  0  0  0  0
  7 15  1  1  0  0  0
  7  9  1  0  0  0  0
  8 12  1  0  0  0  0
  9 22  1  0  0  0  0
  9 14  1  1  0  0  0
 10  3  1  0  0  0  0
 10 21  2  0  0  0  0
 11  8  1  0  0  0  0
 11  5  1  0  0  0  0
 12 27  1  0  0  0  0
 12  4  1  0  0  0  0
 13 18  2  0  0  0  0
 15 23  1  0  0  0  0
 16  2  1  0  0  0  0
 17  3  1  0  0  0  0
 18 25  1  0  0  0  0
 19 26  1  0  0  0  0
 20 22  1  0  0  0  0
 20 17  2  0  0  0  0
 22 10  1  0  0  0  0
 23 14  1  0  0  0  0
 26 17  1  0  0  0  0
 26 25  2  0  0  0  0
 27  7  1  0  0  0  0
 27 24  1  1  0  0  0
 28 11  1  0  0  0  0
 29 30  1  0  0  0  0
 30 28  1  0  0  0  0
M  END
>  <MODEL>
3

>  <REMARK>
 VINA RESULT:      -8.2      1.828      2.441
  Name = 
  2 active torsions:
  status: ('A' for Active; 'I' for Inactive)
    1  A    between atoms: N_11  and  C_28
    2  A    between atoms: C_28  and  N_30
                            x       y       z     vdW  Elec       q    Type
                         _______ _______ _______ _____ _____    ______ ____

>  <TORSDO>
F 2

$$$$
=
 OpenBabel11112416193D

 30 35  0  0  1  0  0  0  0  0999 V2000
  189.9590  175.8730  144.2560 C   0  0  0  0  0  0  0  0  0  0  0  0
  190.8800  174.5540  142.3110 C   0  0  0  0  0  0  0  0  0  0  0  0
  186.3220  176.2800  142.3730 N   0  0  0  0  0  2  0  0  0  0  0  0
  188.8590  176.5420  144.8680 C   0  0  0  0  0  0  0  0  0  0  0  0
  191.2070  175.8280  144.9540 N   0  0  0  0  0  2  0  0  0  0  0  0
  190.4050  177.5310  148.0150 O   0  0  0  0  0  0  0  0  0  0  0  0
  187.1310  178.5710  146.5390 C   0  0  1  0  0  3  0  0  0  0  0  0
  190.2630  177.0090  146.8740 C   0  0  0  0  0  0  0  0  0  0  0  0
  186.1720  178.3600  145.3800 C   0  0  2  0  0  3  0  0  0  0  0  0
  185.7350  177.0580  143.3050 C   0  0  0  0  0  0  0  0  0  0  0  0
  191.3800  176.4090  146.2170 N   0  0  0  0  0  0  0  0  0  0  0  0
  188.9790  176.9990  146.2340 N   0  0  0  0  0  0  0  0  0  0  0  0
  190.6600  173.9770  141.0560 C   0  0  0  0  0  3  0  0  0  0  0  0
  184.8110  178.1520  146.0120 C   0  0  0  0  0  2  0  0  0  0  0  0
  186.2910  179.1770  147.6530 C   0  0  0  0  0  2  0  0  0  0  0  0
  192.5000  174.3230  142.9600 Cl  0  0  0  0  0  0  0  0  0  0  0  0
  187.5340  176.0470  142.9030 C   0  0  0  0  0  0  0  0  0  0  0  0
  189.4250  174.0780  140.4240 C   0  0  0  0  0  3  0  0  0  0  0  0
  189.8260  175.2580  142.9680 C   0  0  0  0  0  0  0  0  0  0  0  0
  187.6630  176.6550  144.1250 C   0  0  0  0  0  0  0  0  0  0  0  0
  184.5820  177.5400  143.1440 O   0  0  0  0  0  0  0  0  0  0  0  0
  186.5040  177.3110  144.3980 N   0  0  0  0  0  0  0  0  0  0  0  0
  184.8300  179.0010  147.2650 C   0  0  0  0  0  2  0  0  0  0  0  0
  186.9200  176.1010  147.2670 C   0  0  0  0  0  1  0  0  0  0  0  0
  188.3850  174.7610  141.0420 C   0  0  0  0  0  3  0  0  0  0  0  0
  188.5720  175.3460  142.3000 C   0  0  0  0  0  0  0  0  0  0  0  0
  187.8190  177.3160  147.0530 C   0  0  2  0  0  3  0  0  0  0  0  0
  192.7020  176.4150  146.8200 C   0  0  0  0  0  2  0  0  0  0  0  0
  194.5670  177.1660  145.6450 C   0  0  0  0  0  1  0  0  0  0  0  0
  193.6910  176.0250  145.8310 N   0  0  0  0  0  2  0  0  0  0  0  0
  1  4  1  0  0  0  0
  1  5  1  0  0  0  0
  2 16  1  0  0  0  0
  2 19  1  0  0  0  0
  3 17  1  0  0  0  0
  3 10  1  0  0  0  0
  4 12  1  0  0  0  0
  5 11  1  0  0  0  0
  7 27  1  0  0  0  0
  7 15  1  1  0  0  0
  8  6  2  0  0  0  0
  9 14  1  1  0  0  0
  9  7  1  0  0  0  0
 10 22  1  0  0  0  0
 11 28  1  0  0  0  0
 11  8  1  0  0  0  0
 12  8  1  0  0  0  0
 12 27  1  0  0  0  0
 13  2  2  0  0  0  0
 14 23  1  0  0  0  0
 17 20  1  0  0  0  0
 18 25  2  0  0  0  0
 18 13  1  0  0  0  0
 19  1  2  0  0  0  0
 20 22  1  0  0  0  0
 20  4  2  0  0  0  0
 21 10  2  0  0  0  0
 22  9  1  0  0  0  0
 23 15  1  0  0  0  0
 25 26  1  0  0  0  0
 26 17  2  0  0  0  0
 26 19  1  0  0  0  0
 27 24  1  6  0  0  0
 29 30  1  0  0  0  0
 30 28  1  0  0  0  0
M  END
>  <MODEL>
4

>  <REMARK>
 VINA RESULT:      -7.8      2.736      7.281
  Name = 
  2 active torsions:
  status: ('A' for Active; 'I' for Inactive)
    1  A    between atoms: N_11  and  C_28
    2  A    between atoms: C_28  and  N_30
                            x       y       z     vdW  Elec       q    Type
                         _______ _______ _______ _____ _____    ______ ____

>  <TORSDO>
F 2

$$$$
=
 OpenBabel11112416193D

 30 35  0  0  1  0  0  0  0  0999 V2000
  189.5670  175.0760  143.7790 C   0  0  0  0  0  0  0  0  0  0  0  0
  190.8780  173.3390  142.5010 C   0  0  0  0  0  0  0  0  0  0  0  0
  187.4250  176.0680  140.4080 N   0  0  0  0  0  2  0  0  0  0  0  0
  188.5300  176.0550  143.7990 C   0  0  0  0  0  0  0  0  0  0  0  0
  190.3030  174.8340  144.9810 N   0  0  0  0  0  2  0  0  0  0  0  0
  188.6910  177.0560  147.2990 O   0  0  0  0  0  0  0  0  0  0  0  0
  186.8430  178.6270  144.4540 C   0  0  1  0  0  3  0  0  0  0  0  0
  188.9470  176.4390  146.2280 C   0  0  0  0  0  0  0  0  0  0  0  0
  186.4930  178.4970  142.9810 C   0  0  2  0  0  3  0  0  0  0  0  0
  186.7100  177.0750  140.9510 C   0  0  0  0  0  0  0  0  0  0  0  0
  190.0350  175.5170  146.1740 N   0  0  0  0  0  0  0  0  0  0  0  0
  188.1380  176.6440  145.0600 N   0  0  0  0  0  0  0  0  0  0  0  0
  191.1040  172.6720  141.2920 C   0  0  0  0  0  3  0  0  0  0  0  0
  184.9920  178.6930  142.9020 C   0  0  0  0  0  2  0  0  0  0  0  0
  185.7850  179.5500  145.0400 C   0  0  0  0  0  2  0  0  0  0  0  0
  191.9050  172.8250  143.8350 Cl  0  0  0  0  0  0  0  0  0  0  0  0
  188.1570  175.6310  141.4460 C   0  0  0  0  0  0  0  0  0  0  0  0
  190.3640  172.9740  140.1540 C   0  0  0  0  0  3  0  0  0  0  0  0
  189.8710  174.3480  142.5820 C   0  0  0  0  0  0  0  0  0  0  0  0
  187.8760  176.3450  142.5820 C   0  0  0  0  0  0  0  0  0  0  0  0
  185.9280  177.7860  140.2660 O   0  0  0  0  0  0  0  0  0  0  0  0
  186.9390  177.2810  142.2760 N   0  0  0  0  0  0  0  0  0  0  0  0
  184.6680  179.6690  144.0140 C   0  0  0  0  0  2  0  0  0  0  0  0
  185.6790  176.3880  145.0120 C   0  0  0  0  0  1  0  0  0  0  0  0
  189.3790  173.9540  140.2080 C   0  0  0  0  0  3  0  0  0  0  0  0
  189.1270  174.6360  141.4030 C   0  0  0  0  0  0  0  0  0  0  0  0
  186.8650  177.3240  145.2370 C   0  0  2  0  0  3  0  0  0  0  0  0
  190.8910  175.2930  147.3270 C   0  0  0  0  0  2  0  0  0  0  0  0
  192.8640  176.4240  146.8220 C   0  0  0  0  0  1  0  0  0  0  0  0
  192.2620  175.1060  146.8870 N   0  0  0  0  0  2  0  0  0  0  0  0
  1  4  1  0  0  0  0
  1  5  1  0  0  0  0
  2 19  1  0  0  0  0
  2 16  1  0  0  0  0
  3 10  1  0  0  0  0
  3 17  1  0  0  0  0
  4 12  1  0  0  0  0
  5 11  1  0  0  0  0
  7 15  1  1  0  0  0
  7 27  1  0  0  0  0
  8  6  2  0  0  0  0
  9 14  1  1  0  0  0
  9  7  1  0  0  0  0
 10 22  1  0  0  0  0
 11  8  1  0  0  0  0
 11 28  1  0  0  0  0
 12 27  1  0  0  0  0
 12  8  1  0  0  0  0
 13  2  2  0  0  0  0
 14 23  1  0  0  0  0
 17 20  1  0  0  0  0
 18 25  2  0  0  0  0
 18 13  1  0  0  0  0
 19  1  2  0  0  0  0
 20  4  2  0  0  0  0
 21 10  2  0  0  0  0
 22 20  1  0  0  0  0
 22  9  1  0  0  0  0
 23 15  1  0  0  0  0
 25 26  1  0  0  0  0
 26 17  2  0  0  0  0
 26 19  1  0  0  0  0
 27 24  1  6  0  0  0
 29 30  1  0  0  0  0
 30 28  1  0  0  0  0
M  END
>  <MODEL>
5

>  <REMARK>
 VINA RESULT:      -7.7      2.561      7.269
  Name = 
  2 active torsions:
  status: ('A' for Active; 'I' for Inactive)
    1  A    between atoms: N_11  and  C_28
    2  A    between atoms: C_28  and  N_30
                            x       y       z     vdW  Elec       q    Type
                         _______ _______ _______ _____ _____    ______ ____

>  <TORSDO>
F 2

$$$$
=
 OpenBabel11112416193D

 30 35  0  0  1  0  0  0  0  0999 V2000
  191.3220  175.0750  143.4290 C   0  0  0  0  0  0  0  0  0  0  0  0
  193.6570  174.6540  144.2900 C   0  0  0  0  0  0  0  0  0  0  0  0
  190.3480  177.1720  146.8330 N   0  0  0  0  0  2  0  0  0  0  0  0
  190.0450  175.6830  143.6050 C   0  0  0  0  0  0  0  0  0  0  0  0
  191.5590  174.3120  142.2410 N   0  0  0  0  0  2  0  0  0  0  0  0
  188.4490  174.6940  140.4830 O   0  0  0  0  0  0  0  0  0  0  0  0
  186.9500  176.2420  143.5380 C   0  0  1  0  0  3  0  0  0  0  0  0
  189.3320  174.8250  141.3750 C   0  0  0  0  0  0  0  0  0  0  0  0
  187.2540  176.8160  144.9120 C   0  0  2  0  0  3  0  0  0  0  0  0
  189.0550  177.4010  146.5270 C   0  0  0  0  0  0  0  0  0  0  0  0
  190.5850  174.1530  141.2470 N   0  0  0  0  0  0  0  0  0  0  0  0
  189.0950  175.6620  142.5160 N   0  0  0  0  0  0  0  0  0  0  0  0
  194.6040  174.8500  145.3010 C   0  0  0  0  0  3  0  0  0  0  0  0
  186.5280  178.1450  144.9650 C   0  0  0  0  0  2  0  0  0  0  0  0
  185.5930  176.8120  143.1540 C   0  0  0  0  0  2  0  0  0  0  0  0
  194.2200  173.7020  142.9210 Cl  0  0  0  0  0  0  0  0  0  0  0  0
  190.7940  176.5060  145.7550 C   0  0  0  0  0  0  0  0  0  0  0  0
  194.2990  175.5860  146.4400 C   0  0  0  0  0  3  0  0  0  0  0  0
  192.3510  175.2170  144.4160 C   0  0  0  0  0  0  0  0  0  0  0  0
  189.8000  176.3540  144.8230 C   0  0  0  0  0  0  0  0  0  0  0  0
  188.2670  177.9670  147.3300 O   0  0  0  0  0  0  0  0  0  0  0  0
  188.6690  176.9320  145.3090 N   0  0  0  0  0  0  0  0  0  0  0  0
  185.2870  177.9450  144.1210 C   0  0  0  0  0  2  0  0  0  0  0  0
  188.4070  178.0340  142.3790 C   0  0  0  0  0  1  0  0  0  0  0  0
  193.0330  176.1410  146.5870 C   0  0  0  0  0  3  0  0  0  0  0  0
  192.0650  175.9670  145.5920 C   0  0  0  0  0  0  0  0  0  0  0  0
  187.9630  176.5750  142.4540 C   0  0  2  0  0  3  0  0  0  0  0  0
  190.8600  173.2800  140.1180 C   0  0  0  0  0  2  0  0  0  0  0  0
  190.7500  170.9740  140.4300 C   0  0  0  0  0  1  0  0  0  0  0  0
  191.6210  172.1270  140.5670 N   0  0  0  0  0  2  0  0  0  0  0  0
  1  4  2  0  0  0  0
  1 19  1  0  0  0  0
  2 19  2  0  0  0  0
  2 13  1  0  0  0  0
  4 20  1  0  0  0  0
  5  1  1  0  0  0  0
  6  8  2  0  0  0  0
  7 15  1  6  0  0  0
  7  9  1  0  0  0  0
  8 12  1  0  0  0  0
  9 14  1  6  0  0  0
  9 22  1  0  0  0  0
 10  3  1  0  0  0  0
 10 21  2  0  0  0  0
 11  8  1  0  0  0  0
 11  5  1  0  0  0  0
 12  4  1  0  0  0  0
 13 18  2  0  0  0  0
 15 23  1  0  0  0  0
 16  2  1  0  0  0  0
 17  3  1  0  0  0  0
 18 25  1  0  0  0  0
 19 26  1  0  0  0  0
 20 22  1  0  0  0  0
 20 17  2  0  0  0  0
 22 10  1  0  0  0  0
 23 14  1  0  0  0  0
 26 17  1  0  0  0  0
 26 25  2  0  0  0  0
 27 24  1  1  0  0  0
 27 12  1  0  0  0  0
 27  7  1  0  0  0  0
 28 30  1  0  0  0  0
 28 11  1  0  0  0  0
 29 30  1  0  0  0  0
M  END
>  <MODEL>
6

>  <REMARK>
 VINA RESULT:      -7.7      3.255      6.271
  Name = 
  2 active torsions:
  status: ('A' for Active; 'I' for Inactive)
    1  A    between atoms: N_11  and  C_28
    2  A    between atoms: C_28  and  N_30
                            x       y       z     vdW  Elec       q    Type
                         _______ _______ _______ _____ _____    ______ ____

>  <TORSDO>
F 2

$$$$
=
 OpenBabel11112416193D

 30 35  0  0  1  0  0  0  0  0999 V2000
  188.6670  176.0510  143.9620 C   0  0  0  0  0  0  0  0  0  0  0  0
  186.3800  176.9000  144.6090 C   0  0  0  0  0  0  0  0  0  0  0  0
  190.2350  177.2640  147.5690 N   0  0  0  0  0  2  0  0  0  0  0  0
  190.0300  175.8250  144.3110 C   0  0  0  0  0  0  0  0  0  0  0  0
  188.2170  175.6520  142.6640 N   0  0  0  0  0  2  0  0  0  0  0  0
  191.1840  174.1780  141.2730 O   0  0  0  0  0  0  0  0  0  0  0  0
  193.1560  175.5070  144.1570 C   0  0  1  0  0  3  0  0  0  0  0  0
  190.4110  174.7350  142.1010 C   0  0  0  0  0  0  0  0  0  0  0  0
  193.0620  176.1530  145.5290 C   0  0  2  0  0  3  0  0  0  0  0  0
  191.5160  176.9250  147.3190 C   0  0  0  0  0  0  0  0  0  0  0  0
  189.0660  175.0400  141.7330 N   0  0  0  0  0  0  0  0  0  0  0  0
  190.8690  175.0500  143.4240 N   0  0  0  0  0  0  0  0  0  0  0  0
  185.5640  177.5020  145.5730 C   0  0  0  0  0  3  0  0  0  0  0  0
  193.9790  175.3420  146.4220 C   0  0  0  0  0  2  0  0  0  0  0  0
  194.5440  174.8870  144.0970 C   0  0  0  0  0  2  0  0  0  0  0  0
  185.5650  176.4790  143.1070 Cl  0  0  0  0  0  0  0  0  0  0  0  0
  189.6030  176.8770  146.4480 C   0  0  0  0  0  0  0  0  0  0  0  0
  186.0740  177.8850  146.8090 C   0  0  0  0  0  3  0  0  0  0  0  0
  187.7600  176.6680  144.8860 C   0  0  0  0  0  0  0  0  0  0  0  0
  190.4780  176.3080  145.5600 C   0  0  0  0  0  0  0  0  0  0  0  0
  192.4460  177.1830  148.1290 O   0  0  0  0  0  0  0  0  0  0  0  0
  191.7200  176.3300  146.1130 N   0  0  0  0  0  0  0  0  0  0  0  0
  195.0980  174.8790  145.5140 C   0  0  0  0  0  2  0  0  0  0  0  0
  191.8850  173.4090  144.9690 C   0  0  0  0  0  1  0  0  0  0  0  0
  187.4160  177.6710  147.1010 C   0  0  0  0  0  3  0  0  0  0  0  0
  188.2560  177.0680  146.1590 C   0  0  0  0  0  0  0  0  0  0  0  0
  192.1130  174.4400  143.8660 C   0  0  2  0  0  3  0  0  0  0  0  0
  188.5670  174.7560  140.3980 C   0  0  0  0  0  2  0  0  0  0  0  0
  188.2990  172.9800  138.9150 C   0  0  0  0  0  1  0  0  0  0  0  0
  188.1750  173.3610  140.3100 N   0  0  0  0  0  2  0  0  0  0  0  0
  1  4  2  0  0  0  0
  1 19  1  0  0  0  0
  2 19  2  0  0  0  0
  2 13  1  0  0  0  0
  4 20  1  0  0  0  0
  5  1  1  0  0  0  0
  6  8  2  0  0  0  0
  7 15  1  1  0  0  0
  7  9  1  0  0  0  0
  8 12  1  0  0  0  0
  9 22  1  0  0  0  0
  9 14  1  1  0  0  0
 10  3  1  0  0  0  0
 10 21  2  0  0  0  0
 11  8  1  0  0  0  0
 11  5  1  0  0  0  0
 12 27  1  0  0  0  0
 12  4  1  0  0  0  0
 13 18  2  0  0  0  0
 15 23  1  0  0  0  0
 16  2  1  0  0  0  0
 17  3  1  0  0  0  0
 18 25  1  0  0  0  0
 19 26  1  0  0  0  0
 20 22  1  0  0  0  0
 20 17  2  0  0  0  0
 22 10  1  0  0  0  0
 23 14  1  0  0  0  0
 26 17  1  0  0  0  0
 26 25  2  0  0  0  0
 27  7  1  0  0  0  0
 27 24  1  1  0  0  0
 28 11  1  0  0  0  0
 29 30  1  0  0  0  0
 30 28  1  0  0  0  0
M  END
>  <MODEL>
7

>  <REMARK>
 VINA RESULT:      -7.6      2.453      3.525
  Name = 
  2 active torsions:
  status: ('A' for Active; 'I' for Inactive)
    1  A    between atoms: N_11  and  C_28
    2  A    between atoms: C_28  and  N_30
                            x       y       z     vdW  Elec       q    Type
                         _______ _______ _______ _____ _____    ______ ____

>  <TORSDO>
F 2

$$$$
=
 OpenBabel11112416193D

 30 35  0  0  1  0  0  0  0  0999 V2000
  191.4710  175.1720  143.9040 C   0  0  0  0  0  0  0  0  0  0  0  0
  192.4140  173.9860  141.8860 C   0  0  0  0  0  0  0  0  0  0  0  0
  187.7220  175.2660  142.2090 N   0  0  0  0  0  2  0  0  0  0  0  0
  190.3450  175.7200  144.5850 C   0  0  0  0  0  0  0  0  0  0  0  0
  192.7510  175.2330  144.5410 N   0  0  0  0  0  2  0  0  0  0  0  0
  191.9460  176.7900  147.6770 O   0  0  0  0  0  0  0  0  0  0  0  0
  188.5190  177.5410  146.3870 C   0  0  1  0  0  3  0  0  0  0  0  0
  191.7970  176.2810  146.5320 C   0  0  0  0  0  0  0  0  0  0  0  0
  187.5270  177.2620  145.2690 C   0  0  2  0  0  3  0  0  0  0  0  0
  187.1110  175.9650  143.1870 C   0  0  0  0  0  0  0  0  0  0  0  0
  192.9310  175.8030  145.8070 N   0  0  0  0  0  0  0  0  0  0  0  0
  190.4900  176.1600  145.9540 N   0  0  0  0  0  0  0  0  0  0  0  0
  192.1870  173.4150  140.6290 C   0  0  0  0  0  3  0  0  0  0  0  0
  186.2250  176.9120  145.9610 C   0  0  0  0  0  2  0  0  0  0  0  0
  187.6810  178.0420  147.5540 C   0  0  0  0  0  2  0  0  0  0  0  0
  194.0790  173.8980  142.4510 Cl  0  0  0  0  0  0  0  0  0  0  0  0
  188.9760  175.1400  142.6740 C   0  0  0  0  0  0  0  0  0  0  0  0
  190.9180  173.4100  140.0600 C   0  0  0  0  0  3  0  0  0  0  0  0
  191.3320  174.5730  142.6090 C   0  0  0  0  0  0  0  0  0  0  0  0
  189.1080  175.7330  143.9040 C   0  0  0  0  0  0  0  0  0  0  0  0
  185.9120  176.3380  143.0940 O   0  0  0  0  0  0  0  0  0  0  0  0
  187.9060  176.2690  144.2480 N   0  0  0  0  0  0  0  0  0  0  0  0
  186.2270  177.7340  147.2330 C   0  0  0  0  0  2  0  0  0  0  0  0
  188.5790  175.0480  147.0630 C   0  0  0  0  0  1  0  0  0  0  0  0
  189.8500  173.9780  140.7440 C   0  0  0  0  0  3  0  0  0  0  0  0
  190.0440  174.5530  142.0050 C   0  0  0  0  0  0  0  0  0  0  0  0
  189.3480  176.3480  146.8350 C   0  0  2  0  0  3  0  0  0  0  0  0
  194.2760  175.9240  146.3460 C   0  0  0  0  0  2  0  0  0  0  0  0
  196.0510  174.5400  145.7500 C   0  0  0  0  0  1  0  0  0  0  0  0
  195.2460  175.6600  145.2990 N   0  0  0  0  0  2  0  0  0  0  0  0
  1  5  1  0  0  0  0
  1  4  1  0  0  0  0
  2 16  1  0  0  0  0
  2 19  1  0  0  0  0
  3 17  1  0  0  0  0
  3 10  1  0  0  0  0
  4 12  1  0  0  0  0
  5 11  1  0  0  0  0
  7 27  1  0  0  0  0
  7 15  1  1  0  0  0
  8  6  2  0  0  0  0
  9 14  1  1  0  0  0
  9  7  1  0  0  0  0
 10 22  1  0  0  0  0
 11 28  1  0  0  0  0
 11  8  1  0  0  0  0
 12  8  1  0  0  0  0
 12 27  1  0  0  0  0
 13  2  2  0  0  0  0
 14 23  1  0  0  0  0
 17 20  1  0  0  0  0
 18 13  1  0  0  0  0
 18 25  2  0  0  0  0
 19  1  2  0  0  0  0
 20 22  1  0  0  0  0
 20  4  2  0  0  0  0
 21 10  2  0  0  0  0
 22  9  1  0  0  0  0
 23 15  1  0  0  0  0
 25 26  1  0  0  0  0
 26 19  1  0  0  0  0
 26 17  2  0  0  0  0
 27 24  1  6  0  0  0
 30 29  1  0  0  0  0
 30 28  1  0  0  0  0
M  END
>  <MODEL>
8

>  <REMARK>
 VINA RESULT:      -7.6      3.138      7.668
  Name = 
  2 active torsions:
  status: ('A' for Active; 'I' for Inactive)
    1  A    between atoms: N_11  and  C_28
    2  A    between atoms: C_28  and  N_30
                            x       y       z     vdW  Elec       q    Type
                         _______ _______ _______ _____ _____    ______ ____

>  <TORSDO>
F 2

$$$$
=
 OpenBabel11112416193D

 30 35  0  0  1  0  0  0  0  0999 V2000
  187.7660  176.4920  142.7070 C   0  0  0  0  0  0  0  0  0  0  0  0
  185.7390  177.9920  142.8120 C   0  0  0  0  0  0  0  0  0  0  0  0
  188.9130  177.6300  146.4920 N   0  0  0  0  0  2  0  0  0  0  0  0
  188.9170  175.9460  143.3470 C   0  0  0  0  0  0  0  0  0  0  0  0
  187.4710  176.0870  141.3670 N   0  0  0  0  0  2  0  0  0  0  0  0
  190.0970  173.7230  140.7130 O   0  0  0  0  0  0  0  0  0  0  0  0
  191.7920  174.7830  143.8710 C   0  0  1  0  0  3  0  0  0  0  0  0
  189.3750  174.5560  141.3290 C   0  0  0  0  0  0  0  0  0  0  0  0
  191.6330  175.5790  145.1560 C   0  0  2  0  0  3  0  0  0  0  0  0
  190.0670  176.9330  146.5360 C   0  0  0  0  0  0  0  0  0  0  0  0
  188.2670  175.1700  140.6700 N   0  0  0  0  0  0  0  0  0  0  0  0
  189.6490  174.8810  142.6990 N   0  0  0  0  0  0  0  0  0  0  0  0
  184.9650  178.8940  143.5490 C   0  0  0  0  0  3  0  0  0  0  0  0
  192.0960  174.6550  146.2640 C   0  0  0  0  0  2  0  0  0  0  0  0
  192.9300  173.8090  144.1380 C   0  0  0  0  0  2  0  0  0  0  0  0
  185.1320  177.6410  141.1960 Cl  0  0  0  0  0  0  0  0  0  0  0  0
  188.4180  177.3060  145.2860 C   0  0  0  0  0  0  0  0  0  0  0  0
  185.3220  179.2610  144.8410 C   0  0  0  0  0  3  0  0  0  0  0  0
  186.9180  177.4280  143.3850 C   0  0  0  0  0  0  0  0  0  0  0  0
  189.2430  176.4260  144.6340 C   0  0  0  0  0  0  0  0  0  0  0  0
  190.8630  177.0180  147.5080 O   0  0  0  0  0  0  0  0  0  0  0  0
  190.3130  176.1750  145.4340 N   0  0  0  0  0  0  0  0  0  0  0  0
  193.1850  173.8100  145.6380 C   0  0  0  0  0  2  0  0  0  0  0  0
  189.8460  173.2090  144.5100 C   0  0  0  0  0  1  0  0  0  0  0  0
  186.4680  178.7270  145.4210 C   0  0  0  0  0  3  0  0  0  0  0  0
  187.2610  177.8190  144.7110 C   0  0  0  0  0  0  0  0  0  0  0  0
  190.5610  174.0110  143.4250 C   0  0  2  0  0  3  0  0  0  0  0  0
  187.9660  174.8840  139.2770 C   0  0  0  0  0  2  0  0  0  0  0  0
  187.0210  175.6920  137.3070 C   0  0  0  0  0  1  0  0  0  0  0  0
  187.1280  175.9380  138.7330 N   0  0  0  0  0  2  0  0  0  0  0  0
  1  4  2  0  0  0  0
  1 19  1  0  0  0  0
  2 19  2  0  0  0  0
  2 13  1  0  0  0  0
  3 10  1  0  0  0  0
  4 20  1  0  0  0  0
  5  1  1  0  0  0  0
  6  8  2  0  0  0  0
  7 15  1  1  0  0  0
  7  9  1  0  0  0  0
  8 12  1  0  0  0  0
  9 22  1  0  0  0  0
  9 14  1  1  0  0  0
 10 21  2  0  0  0  0
 11  8  1  0  0  0  0
 11  5  1  0  0  0  0
 12  4  1  0  0  0  0
 12 27  1  0  0  0  0
 13 18  2  0  0  0  0
 15 23  1  0  0  0  0
 16  2  1  0  0  0  0
 17  3  1  0  0  0  0
 18 25  1  0  0  0  0
 19 26  1  0  0  0  0
 20 17  2  0  0  0  0
 20 22  1  0  0  0  0
 22 10  1  0  0  0  0
 23 14  1  0  0  0  0
 26 17  1  0  0  0  0
 26 25  2  0  0  0  0
 27  7  1  0  0  0  0
 27 24  1  1  0  0  0
 28 11  1  0  0  0  0
 29 30  1  0  0  0  0
 30 28  1  0  0  0  0
M  END
>  <MODEL>
9

>  <REMARK>
 VINA RESULT:      -7.6      2.097      2.741
  Name = 
  2 active torsions:
  status: ('A' for Active; 'I' for Inactive)
    1  A    between atoms: N_11  and  C_28
    2  A    between atoms: C_28  and  N_30
                            x       y       z     vdW  Elec       q    Type
                         _______ _______ _______ _____ _____    ______ ____

>  <TORSDO>
F 2

$$$$
