=
 OpenBabel11112416453D

 32 38  0  0  1  0  0  0  0  0999 V2000
  187.1670  177.8730  146.9780 O   0  0  0  0  0  0  0  0  0  0  0  0
  191.3900  176.0170  144.6260 C   0  0  2  0  0  3  0  0  0  0  0  0
  190.0100  173.5940  140.6580 C   0  0  0  0  0  3  0  0  0  0  0  0
  191.3360  173.2510  140.3830 C   0  0  0  0  0  3  0  0  0  0  0  0
  193.7740  175.5800  145.3330 C   0  0  0  0  0  0  0  0  0  0  0  0
  195.2340  175.4040  145.0100 C   0  0  1  0  0  3  0  0  0  0  0  0
  189.7700  177.5850  145.7380 C   0  0  1  0  0  3  0  0  0  0  0  0
  189.1550  176.2870  143.7720 O   0  0  0  0  0  0  0  0  0  0  0  0
  196.7710  174.6740  143.4220 C   0  0  2  0  0  3  0  0  0  0  0  0
  187.5460  177.8940  144.5900 C   0  0  0  0  0  2  0  0  0  0  0  0
  189.7220  174.5380  141.6470 C   0  0  0  0  0  3  0  0  0  0  0  0
  190.5040  176.2090  143.3830 C   0  0  2  0  0  3  0  0  0  0  0  0
  190.7620  175.1290  142.3770 C   0  0  0  0  0  0  0  0  0  0  0  0
  193.1950  175.4960  142.8760 C   0  0  2  0  0  3  0  0  0  0  0  0
  197.0290  173.9010  144.7080 C   0  0  0  0  0  2  0  0  0  0  0  0
  187.6710  176.5600  146.8880 C   0  0  2  0  0  3  0  0  0  0  0  0
  189.0140  177.5410  144.4000 C   0  0  1  0  0  3  0  0  0  0  0  0
  195.8080  174.1230  145.5620 C   0  0  0  0  0  2  0  0  0  0  0  0
  189.2000  176.5630  146.7250 C   0  0  0  0  0  2  0  0  0  0  0  0
  186.8930  177.1810  145.7780 C   0  0  1  0  0  0  0  0  0  0  0  0
  192.3750  173.8510  141.0980 C   0  0  0  0  0  3  0  0  0  0  0  0
  192.0970  174.7850  142.1100 C   0  0  0  0  0  0  0  0  0  0  0  0
  194.5250  174.7440  142.8040 C   0  0  0  0  0  2  0  0  0  0  0  0
  191.2510  177.2810  145.4820 C   0  0  0  0  0  2  0  0  0  0  0  0
  193.4190  175.6080  146.5430 O   0  0  0  0  0  0  0  0  0  0  0  0
  197.9390  175.5990  143.1380 C   0  0  0  0  0  1  0  0  0  0  0  0
  192.7960  175.7210  144.2810 N   0  0  0  0  0  0  0  0  0  0  0  0
  195.5440  175.4540  143.5740 N   0  0  1  0  0  0  0  0  0  0  0  0
  185.4220  176.7910  145.6860 C   0  0  0  0  0  2  0  0  0  0  0  0
  184.5160  177.9750  145.8180 C   0  0  0  0  0  0  0  0  0  0  0  0
  184.1890  178.7920  144.6170 C   0  0  0  0  0  1  0  0  0  0  0  0
  184.0670  178.2910  146.9080 O   0  0  0  0  0  0  0  0  0  0  0  0
  2 24  1  1  0  0  0
  3 11  1  0  0  0  0
  4  3  2  0  0  0  0
  4 21  1  0  0  0  0
  5 25  2  0  0  0  0
  6  5  1  0  0  0  0
  6 18  1  6  0  0  0
  7 24  1  6  0  0  0
  7 19  1  0  0  0  0
  8 17  1  0  0  0  0
  9 26  1  1  0  0  0
  9 28  1  0  0  0  0
  9 15  1  0  0  0  0
 10 20  1  0  0  0  0
 11 13  2  0  0  0  0
 12 13  1  6  0  0  0
 12  8  1  0  0  0  0
 12  2  1  0  0  0  0
 14 23  1  1  0  0  0
 14 27  1  0  0  0  0
 15 18  1  0  0  0  0
 16 19  1  6  0  0  0
 16  1  1  0  0  0  0
 17 10  1  1  0  0  0
 17  7  1  0  0  0  0
 20 29  1  6  0  0  0
 20 16  1  0  0  0  0
 20  1  1  0  0  0  0
 21 22  2  0  0  0  0
 22 13  1  0  0  0  0
 22 14  1  0  0  0  0
 27  2  1  0  0  0  0
 27  5  1  0  0  0  0
 28 23  1  6  0  0  0
 28  6  1  0  0  0  0
 29 30  1  0  0  0  0
 30 32  2  0  0  0  0
 31 30  1  0  0  0  0
M  END
>  <MODEL>
1

>  <REMARK>
 VINA RESULT:      -8.6      0.000      0.000
  Name = 
  2 active torsions:
  status: ('A' for Active; 'I' for Inactive)
    1  A    between atoms: C_20  and  C_29
    2  A    between atoms: C_29  and  C_30
                            x       y       z     vdW  Elec       q    Type
                         _______ _______ _______ _____ _____    ______ ____

>  <TORSDO>
F 2

$$$$
=
 OpenBabel11112416453D

 32 38  0  0  1  0  0  0  0  0999 V2000
  186.2040  177.1460  141.2590 O   0  0  0  0  0  0  0  0  0  0  0  0
  190.5100  176.1660  143.9630 C   0  0  2  0  0  3  0  0  0  0  0  0
  190.0260  178.0880  148.3890 C   0  0  0  0  0  3  0  0  0  0  0  0
  191.3150  177.6710  148.7310 C   0  0  0  0  0  3  0  0  0  0  0  0
  192.8740  175.5100  143.3670 C   0  0  0  0  0  0  0  0  0  0  0  0
  194.1940  174.8760  143.7180 C   0  0  1  0  0  3  0  0  0  0  0  0
  188.4720  175.8600  142.5230 C   0  0  1  0  0  3  0  0  0  0  0  0
  188.3390  176.8610  144.7380 O   0  0  0  0  0  0  0  0  0  0  0  0
  195.7070  174.4170  145.4260 C   0  0  2  0  0  3  0  0  0  0  0  0
  186.2600  176.4550  143.5750 C   0  0  0  0  0  2  0  0  0  0  0  0
  189.4340  177.6300  147.2090 C   0  0  0  0  0  3  0  0  0  0  0  0
  189.5090  176.1850  145.1300 C   0  0  2  0  0  3  0  0  0  0  0  0
  190.1380  176.7680  146.3580 C   0  0  0  0  0  0  0  0  0  0  0  0
  192.1380  175.3650  145.7790 C   0  0  2  0  0  3  0  0  0  0  0  0
  196.4440  175.2070  144.3540 C   0  0  0  0  0  2  0  0  0  0  0  0
  187.2610  177.9920  141.6500 C   0  0  2  0  0  3  0  0  0  0  0  0
  187.6860  175.9950  143.8370 C   0  0  1  0  0  3  0  0  0  0  0  0
  195.3680  175.7920  143.4760 C   0  0  0  0  0  2  0  0  0  0  0  0
  188.5730  177.2060  141.8010 C   0  0  0  0  0  2  0  0  0  0  0  0
  186.1630  177.6220  142.5880 C   0  0  1  0  0  0  0  0  0  0  0  0
  192.0130  176.7980  147.8930 C   0  0  0  0  0  3  0  0  0  0  0  0
  191.4360  176.3500  146.6930 C   0  0  0  0  0  0  0  0  0  0  0  0
  193.6480  175.3340  146.0190 C   0  0  0  0  0  2  0  0  0  0  0  0
  189.8790  175.3380  142.8370 C   0  0  0  0  0  2  0  0  0  0  0  0
  192.6850  175.9070  142.1860 O   0  0  0  0  0  0  0  0  0  0  0  0
  196.2500  173.0030  145.4840 C   0  0  0  0  0  1  0  0  0  0  0  0
  191.8380  175.6560  144.3620 N   0  0  0  0  0  0  0  0  0  0  0  0
  194.2820  174.3900  145.1020 N   0  0  1  0  0  0  0  0  0  0  0  0
  185.0580  178.6560  142.7730 C   0  0  0  0  0  2  0  0  0  0  0  0
  185.0630  179.2440  144.1490 C   0  0  0  0  0  0  0  0  0  0  0  0
  184.0450  178.8040  145.1440 C   0  0  0  0  0  1  0  0  0  0  0  0
  185.8760  180.1020  144.4520 O   0  0  0  0  0  0  0  0  0  0  0  0
  1 16  1  0  0  0  0
  1 20  1  0  0  0  0
  2 24  1  6  0  0  0
  2 27  1  0  0  0  0
  2 12  1  0  0  0  0
  3  4  1  0  0  0  0
  5  6  1  0  0  0  0
  5 27  1  0  0  0  0
  6 18  1  1  0  0  0
  6 28  1  0  0  0  0
  7 19  1  1  0  0  0
  7 24  1  0  0  0  0
  7 17  1  0  0  0  0
  9 26  1  6  0  0  0
 11  3  2  0  0  0  0
 12  8  1  6  0  0  0
 12 13  1  0  0  0  0
 13 22  2  0  0  0  0
 13 11  1  0  0  0  0
 14 23  1  6  0  0  0
 14 22  1  0  0  0  0
 15  9  1  0  0  0  0
 16 19  1  1  0  0  0
 16 20  1  0  0  0  0
 17 10  1  6  0  0  0
 17  8  1  0  0  0  0
 18 15  1  0  0  0  0
 20 29  1  1  0  0  0
 20 10  1  0  0  0  0
 21  4  2  0  0  0  0
 22 21  1  0  0  0  0
 25  5  2  0  0  0  0
 27 14  1  0  0  0  0
 28  9  1  0  0  0  0
 28 23  1  1  0  0  0
 29 30  1  0  0  0  0
 30 32  2  0  0  0  0
 30 31  1  0  0  0  0
M  END
>  <MODEL>
2

>  <REMARK>
 VINA RESULT:      -8.6      2.027      4.203
  Name = 
  2 active torsions:
  status: ('A' for Active; 'I' for Inactive)
    1  A    between atoms: C_20  and  C_29
    2  A    between atoms: C_29  and  C_30
                            x       y       z     vdW  Elec       q    Type
                         _______ _______ _______ _____ _____    ______ ____

>  <TORSDO>
F 2

$$$$
=
 OpenBabel11112416453D

 32 38  0  0  1  0  0  0  0  0999 V2000
  187.3180  178.4840  145.9870 O   0  0  0  0  0  0  0  0  0  0  0  0
  191.4650  175.6940  144.6360 C   0  0  2  0  0  3  0  0  0  0  0  0
  189.9520  171.6210  142.4830 C   0  0  0  0  0  3  0  0  0  0  0  0
  191.2720  171.1840  142.3400 C   0  0  0  0  0  3  0  0  0  0  0  0
  193.8910  175.6620  145.3320 C   0  0  0  0  0  0  0  0  0  0  0  0
  195.3380  175.3450  145.0580 C   0  0  1  0  0  3  0  0  0  0  0  0
  189.8620  177.6110  144.9100 C   0  0  1  0  0  3  0  0  0  0  0  0
  189.1830  175.5080  143.8880 O   0  0  0  0  0  0  0  0  0  0  0  0
  196.8130  173.9180  143.9600 C   0  0  2  0  0  3  0  0  0  0  0  0
  187.5770  177.3130  143.8880 C   0  0  0  0  0  2  0  0  0  0  0  0
  189.6900  172.9330  142.8850 C   0  0  0  0  0  3  0  0  0  0  0  0
  190.5140  175.2440  143.5150 C   0  0  2  0  0  3  0  0  0  0  0  0
  190.7490  173.8070  143.1660 C   0  0  0  0  0  0  0  0  0  0  0  0
  193.1940  174.3680  143.2790 C   0  0  2  0  0  3  0  0  0  0  0  0
  197.1540  173.8870  145.4430 C   0  0  0  0  0  2  0  0  0  0  0  0
  187.8500  177.3000  146.5330 C   0  0  2  0  0  3  0  0  0  0  0  0
  189.0420  176.9090  143.8160 C   0  0  1  0  0  3  0  0  0  0  0  0
  195.9720  174.5080  146.1400 C   0  0  0  0  0  2  0  0  0  0  0  0
  189.3680  177.2180  146.3060 C   0  0  0  0  0  2  0  0  0  0  0  0
  187.0020  177.2870  145.3070 C   0  0  1  0  0  0  0  0  0  0  0  0
  192.3300  172.0570  142.6030 C   0  0  0  0  0  3  0  0  0  0  0  0
  192.0780  173.3720  143.0310 C   0  0  0  0  0  0  0  0  0  0  0  0
  194.5370  173.6760  143.5150 C   0  0  0  0  0  2  0  0  0  0  0  0
  191.3360  177.2180  144.7570 C   0  0  0  0  0  2  0  0  0  0  0  0
  193.5960  176.2890  146.3850 O   0  0  0  0  0  0  0  0  0  0  0  0
  197.9400  174.5760  143.1890 C   0  0  0  0  0  1  0  0  0  0  0  0
  192.8590  175.2630  144.4060 N   0  0  0  0  0  0  0  0  0  0  0  0
  195.5750  174.6730  143.7730 N   0  0  1  0  0  0  0  0  0  0  0  0
  185.5390  176.9060  145.5040 C   0  0  0  0  0  2  0  0  0  0  0  0
  184.6500  178.1080  145.5860 C   0  0  0  0  0  0  0  0  0  0  0  0
  184.4340  178.9490  144.3760 C   0  0  0  0  0  1  0  0  0  0  0  0
  184.1260  178.4180  146.6420 O   0  0  0  0  0  0  0  0  0  0  0  0
  1 16  1  0  0  0  0
  2 24  1  6  0  0  0
  3 11  1  0  0  0  0
  4  3  2  0  0  0  0
  4 21  1  0  0  0  0
  5 25  2  0  0  0  0
  6  5  1  0  0  0  0
  6 18  1  1  0  0  0
  7 24  1  1  0  0  0
  7 19  1  0  0  0  0
  9 26  1  6  0  0  0
  9 15  1  0  0  0  0
 10 20  1  0  0  0  0
 11 13  2  0  0  0  0
 12 13  1  1  0  0  0
 12  8  1  0  0  0  0
 12  2  1  0  0  0  0
 14 23  1  1  0  0  0
 14 27  1  0  0  0  0
 15 18  1  0  0  0  0
 16 19  1  6  0  0  0
 17 10  1  1  0  0  0
 17  8  1  0  0  0  0
 17  7  1  0  0  0  0
 20 29  1  1  0  0  0
 20  1  1  0  0  0  0
 20 16  1  0  0  0  0
 21 22  2  0  0  0  0
 22 13  1  0  0  0  0
 22 14  1  0  0  0  0
 27  2  1  0  0  0  0
 27  5  1  0  0  0  0
 28 23  1  1  0  0  0
 28  9  1  0  0  0  0
 28  6  1  0  0  0  0
 29 30  1  0  0  0  0
 30 32  2  0  0  0  0
 31 30  1  0  0  0  0
M  END
>  <MODEL>
3

>  <REMARK>
 VINA RESULT:      -8.2      1.188      1.192
  Name = 
  2 active torsions:
  status: ('A' for Active; 'I' for Inactive)
    1  A    between atoms: C_20  and  C_29
    2  A    between atoms: C_29  and  C_30
                            x       y       z     vdW  Elec       q    Type
                         _______ _______ _______ _____ _____    ______ ____

>  <TORSDO>
F 2

$$$$
=
 OpenBabel11112416453D

 32 38  0  0  1  0  0  0  0  0999 V2000
  196.3990  173.4950  142.0710 O   0  0  0  0  0  0  0  0  0  0  0  0
  191.9180  175.6780  143.4720 C   0  0  2  0  0  3  0  0  0  0  0  0
  192.0500  176.5550  148.2400 C   0  0  0  0  0  3  0  0  0  0  0  0
  190.7450  177.0520  148.2030 C   0  0  0  0  0  3  0  0  0  0  0  0
  189.6130  175.8200  142.4530 C   0  0  0  0  0  0  0  0  0  0  0  0
  188.2780  176.5000  142.3000 C   0  0  1  0  0  3  0  0  0  0  0  0
  194.0600  175.1960  142.2480 C   0  0  1  0  0  3  0  0  0  0  0  0
  194.0170  175.5990  144.6490 O   0  0  0  0  0  0  0  0  0  0  0  0
  186.6490  177.7840  143.3570 C   0  0  2  0  0  3  0  0  0  0  0  0
  196.1810  175.3540  143.6020 C   0  0  0  0  0  2  0  0  0  0  0  0
  192.7330  176.2990  147.0480 C   0  0  0  0  0  3  0  0  0  0  0  0
  192.8300  176.3420  144.5170 C   0  0  2  0  0  3  0  0  0  0  0  0
  192.1050  176.5200  145.8160 C   0  0  0  0  0  0  0  0  0  0  0  0
  190.1700  177.3030  144.4190 C   0  0  2  0  0  3  0  0  0  0  0  0
  185.9840  176.5090  142.8580 C   0  0  0  0  0  2  0  0  0  0  0  0
  195.3060  172.9760  142.7930 C   0  0  2  0  0  3  0  0  0  0  0  0
  194.7450  175.8380  143.4660 C   0  0  1  0  0  3  0  0  0  0  0  0
  187.1140  175.5690  142.5290 C   0  0  0  0  0  2  0  0  0  0  0  0
  193.9960  173.6730  142.3920 C   0  0  0  0  0  2  0  0  0  0  0  0
  196.3360  173.8390  143.4400 C   0  0  1  0  0  0  0  0  0  0  0  0
  190.1210  177.2900  146.9760 C   0  0  0  0  0  3  0  0  0  0  0  0
  190.7900  177.0140  145.7730 C   0  0  0  0  0  0  0  0  0  0  0  0
  188.6470  177.4150  144.4980 C   0  0  0  0  0  2  0  0  0  0  0  0
  192.6400  175.7610  142.1220 C   0  0  0  0  0  2  0  0  0  0  0  0
  189.8830  174.8400  141.7080 O   0  0  0  0  0  0  0  0  0  0  0  0
  186.1200  178.9750  142.5810 C   0  0  0  0  0  1  0  0  0  0  0  0
  190.5700  176.2830  143.4280 N   0  0  0  0  0  0  0  0  0  0  0  0
  188.0940  177.6710  143.1700 N   0  0  1  0  0  0  0  0  0  0  0  0
  197.4120  173.1170  144.2440 C   0  0  0  0  0  2  0  0  0  0  0  0
  196.9620  172.8110  145.6380 C   0  0  0  0  0  0  0  0  0  0  0  0
  196.5290  171.4300  145.9870 C   0  0  0  0  0  1  0  0  0  0  0  0
  196.9220  173.6910  146.4820 O   0  0  0  0  0  0  0  0  0  0  0  0
  1 16  1  0  0  0  0
  1 20  1  0  0  0  0
  2 24  1  6  0  0  0
  2 12  1  0  0  0  0
  4  3  1  0  0  0  0
  5 27  1  0  0  0  0
  6  5  1  0  0  0  0
  6 18  1  1  0  0  0
  6 28  1  0  0  0  0
  7 24  1  1  0  0  0
  7 19  1  0  0  0  0
  7 17  1  0  0  0  0
  9 26  1  6  0  0  0
 11  3  2  0  0  0  0
 12  8  1  1  0  0  0
 12 13  1  0  0  0  0
 13 11  1  0  0  0  0
 14 23  1  1  0  0  0
 14 22  1  0  0  0  0
 15  9  1  0  0  0  0
 16 19  1  6  0  0  0
 16 20  1  0  0  0  0
 17 10  1  1  0  0  0
 17  8  1  0  0  0  0
 18 15  1  0  0  0  0
 20 10  1  0  0  0  0
 20 29  1  1  0  0  0
 21  4  2  0  0  0  0
 22 13  2  0  0  0  0
 22 21  1  0  0  0  0
 25  5  2  0  0  0  0
 27  2  1  0  0  0  0
 27 14  1  0  0  0  0
 28  9  1  0  0  0  0
 28 23  1  1  0  0  0
 29 30  1  0  0  0  0
 30 31  1  0  0  0  0
 30 32  2  0  0  0  0
M  END
>  <MODEL>
4

>  <REMARK>
 VINA RESULT:      -7.7      2.792      8.504
  Name = 
  2 active torsions:
  status: ('A' for Active; 'I' for Inactive)
    1  A    between atoms: C_20  and  C_29
    2  A    between atoms: C_29  and  C_30
                            x       y       z     vdW  Elec       q    Type
                         _______ _______ _______ _____ _____    ______ ____

>  <TORSDO>
F 2

$$$$
=
 OpenBabel11112416453D

 32 38  0  0  1  0  0  0  0  0999 V2000
  185.6400  177.6020  141.5700 O   0  0  0  0  0  0  0  0  0  0  0  0
  189.9350  175.4130  143.4590 C   0  0  2  0  0  3  0  0  0  0  0  0
  190.7170  177.1430  147.9220 C   0  0  0  0  0  3  0  0  0  0  0  0
  191.8920  176.3950  148.0260 C   0  0  0  0  0  3  0  0  0  0  0  0
  191.9130  174.2140  142.4480 C   0  0  0  0  0  0  0  0  0  0  0  0
  193.0640  173.2480  142.5530 C   0  0  1  0  0  3  0  0  0  0  0  0
  187.6750  175.7140  142.4000 C   0  0  1  0  0  3  0  0  0  0  0  0
  188.1810  176.5910  144.6140 O   0  0  0  0  0  0  0  0  0  0  0  0
  194.6700  172.3250  143.9610 C   0  0  2  0  0  3  0  0  0  0  0  0
  185.9030  176.7910  143.8330 C   0  0  0  0  0  2  0  0  0  0  0  0
  189.8370  176.9180  146.8600 C   0  0  0  0  0  3  0  0  0  0  0  0
  189.1840  175.6200  144.7850 C   0  0  2  0  0  3  0  0  0  0  0  0
  190.1400  175.9550  145.8890 C   0  0  0  0  0  0  0  0  0  0  0  0
  191.5810  174.1250  144.9500 C   0  0  2  0  0  3  0  0  0  0  0  0
  195.3950  172.9610  142.7840 C   0  0  0  0  0  2  0  0  0  0  0  0
  186.9300  178.1300  141.7770 C   0  0  2  0  0  3  0  0  0  0  0  0
  187.1840  175.9710  143.8330 C   0  0  1  0  0  3  0  0  0  0  0  0
  194.3770  173.8480  142.1170 C   0  0  0  0  0  2  0  0  0  0  0  0
  188.0000  177.0300  141.6860 C   0  0  0  0  0  2  0  0  0  0  0  0
  185.9470  177.9980  142.8910 C   0  0  1  0  0  0  0  0  0  0  0  0
  192.1890  175.4220  147.0680 C   0  0  0  0  0  3  0  0  0  0  0  0
  191.3230  175.2030  145.9850 C   0  0  0  0  0  0  0  0  0  0  0  0
  193.0490  173.6990  144.9190 C   0  0  0  0  0  2  0  0  0  0  0  0
  188.9310  174.8360  142.4540 C   0  0  0  0  0  2  0  0  0  0  0  0
  191.6380  174.7110  141.3230 O   0  0  0  0  0  0  0  0  0  0  0  0
  194.8300  170.8180  143.9070 C   0  0  0  0  0  1  0  0  0  0  0  0
  191.1330  174.5620  143.6120 N   0  0  0  0  0  0  0  0  0  0  0  0
  193.2530  172.6780  143.8940 N   0  0  1  0  0  0  0  0  0  0  0  0
  185.1960  179.2660  143.2800 C   0  0  0  0  0  2  0  0  0  0  0  0
  185.0190  179.3840  144.7610 C   0  0  0  0  0  0  0  0  0  0  0  0
  183.7100  179.0320  145.3780 C   0  0  0  0  0  1  0  0  0  0  0  0
  185.9300  179.7910  145.4620 O   0  0  0  0  0  0  0  0  0  0  0  0
  1 16  1  0  0  0  0
  1 20  1  0  0  0  0
  2 24  1  6  0  0  0
  2 27  1  0  0  0  0
  2 12  1  0  0  0  0
  3  4  1  0  0  0  0
  5  6  1  0  0  0  0
  5 27  1  0  0  0  0
  6 18  1  1  0  0  0
  6 28  1  0  0  0  0
  7 19  1  1  0  0  0
  7 24  1  0  0  0  0
  7 17  1  0  0  0  0
  9 26  1  6  0  0  0
 11  3  2  0  0  0  0
 12  8  1  6  0  0  0
 12 13  1  0  0  0  0
 13 22  2  0  0  0  0
 13 11  1  0  0  0  0
 14 23  1  6  0  0  0
 14 22  1  0  0  0  0
 15  9  1  0  0  0  0
 16 19  1  1  0  0  0
 16 20  1  0  0  0  0
 17 10  1  6  0  0  0
 17  8  1  0  0  0  0
 18 15  1  0  0  0  0
 20 29  1  1  0  0  0
 20 10  1  0  0  0  0
 21  4  2  0  0  0  0
 22 21  1  0  0  0  0
 25  5  2  0  0  0  0
 27 14  1  0  0  0  0
 28  9  1  0  0  0  0
 28 23  1  1  0  0  0
 29 30  1  0  0  0  0
 30 31  1  0  0  0  0
 30 32  2  0  0  0  0
M  END
>  <MODEL>
5

>  <REMARK>
 VINA RESULT:      -7.7      2.281      4.240
  Name = 
  2 active torsions:
  status: ('A' for Active; 'I' for Inactive)
    1  A    between atoms: C_20  and  C_29
    2  A    between atoms: C_29  and  C_30
                            x       y       z     vdW  Elec       q    Type
                         _______ _______ _______ _____ _____    ______ ____

>  <TORSDO>
F 2

$$$$
=
 OpenBabel11112416453D

 32 38  0  0  1  0  0  0  0  0999 V2000
  184.9520  177.5790  143.4370 O   0  0  0  0  0  0  0  0  0  0  0  0
  189.2450  175.0630  142.0050 C   0  0  2  0  0  3  0  0  0  0  0  0
  192.9800  176.7960  144.5680 C   0  0  0  0  0  3  0  0  0  0  0  0
  193.8620  175.9510  143.8900 C   0  0  0  0  0  3  0  0  0  0  0  0
  189.9130  173.6820  140.0010 C   0  0  0  0  0  0  0  0  0  0  0  0
  190.7660  172.6220  139.3540 C   0  0  1  0  0  3  0  0  0  0  0  0
  186.8980  175.5380  142.7720 C   0  0  1  0  0  3  0  0  0  0  0  0
  188.8370  176.4060  143.9620 O   0  0  0  0  0  0  0  0  0  0  0  0
  192.8520  171.5900  139.3330 C   0  0  2  0  0  3  0  0  0  0  0  0
  186.6650  176.7870  144.9490 C   0  0  0  0  0  2  0  0  0  0  0  0
  191.6000  176.6280  144.4230 C   0  0  0  0  0  3  0  0  0  0  0  0
  189.6300  175.3560  143.4650 C   0  0  2  0  0  3  0  0  0  0  0  0
  191.0990  175.6260  143.5820 C   0  0  0  0  0  0  0  0  0  0  0  0
  191.3970  173.6640  142.0430 C   0  0  2  0  0  3  0  0  0  0  0  0
  192.5930  172.1410  137.9390 C   0  0  0  0  0  2  0  0  0  0  0  0
  186.0520  177.9970  142.6620 C   0  0  2  0  0  3  0  0  0  0  0  0
  187.5480  175.8600  144.1280 C   0  0  1  0  0  3  0  0  0  0  0  0
  191.4420  173.1000  138.0930 C   0  0  0  0  0  2  0  0  0  0  0  0
  186.7050  176.8080  141.9390 C   0  0  0  0  0  2  0  0  0  0  0  0
  186.1060  177.9690  144.1510 C   0  0  1  0  0  0  0  0  0  0  0  0
  193.3650  174.9410  143.0630 C   0  0  0  0  0  3  0  0  0  0  0  0
  191.9800  174.7780  142.8910 C   0  0  0  0  0  0  0  0  0  0  0  0
  192.4140  173.1140  141.0420 C   0  0  0  0  0  2  0  0  0  0  0  0
  187.7970  174.5570  142.0100 C   0  0  0  0  0  2  0  0  0  0  0  0
  188.9620  174.1810  139.3410 O   0  0  0  0  0  0  0  0  0  0  0  0
  192.8540  170.0740  139.2920 C   0  0  0  0  0  1  0  0  0  0  0  0
  190.1720  174.1150  141.3530 N   0  0  0  0  0  0  0  0  0  0  0  0
  191.8010  172.0610  140.2340 N   0  0  1  0  0  0  0  0  0  0  0  0
  185.8970  179.3030  144.8590 C   0  0  0  0  0  2  0  0  0  0  0  0
  185.2010  179.1400  146.1740 C   0  0  0  0  0  0  0  0  0  0  0  0
  185.9410  179.4090  147.4380 C   0  0  0  0  0  1  0  0  0  0  0  0
  184.0430  178.7610  146.2180 O   0  0  0  0  0  0  0  0  0  0  0  0
  1 20  1  0  0  0  0
  2 24  1  1  0  0  0
  2 12  1  0  0  0  0
  4  3  2  0  0  0  0
  5 27  1  0  0  0  0
  6 18  1  6  0  0  0
  6  5  1  0  0  0  0
  6 28  1  0  0  0  0
  7 19  1  6  0  0  0
  7 17  1  0  0  0  0
  8 17  1  0  0  0  0
  9 26  1  6  0  0  0
  9 28  1  0  0  0  0
 11  3  1  0  0  0  0
 12 13  1  6  0  0  0
 12  8  1  0  0  0  0
 13 11  2  0  0  0  0
 14 23  1  6  0  0  0
 14 22  1  0  0  0  0
 15 18  1  0  0  0  0
 15  9  1  0  0  0  0
 16 19  1  6  0  0  0
 16  1  1  0  0  0  0
 16 20  1  0  0  0  0
 17 10  1  6  0  0  0
 20 29  1  1  0  0  0
 20 10  1  0  0  0  0
 21  4  1  0  0  0  0
 22 21  2  0  0  0  0
 22 13  1  0  0  0  0
 24  7  1  0  0  0  0
 25  5  2  0  0  0  0
 27  2  1  0  0  0  0
 27 14  1  0  0  0  0
 28 23  1  1  0  0  0
 29 30  1  0  0  0  0
 30 32  2  0  0  0  0
 30 31  1  0  0  0  0
M  END
>  <MODEL>
6

>  <REMARK>
 VINA RESULT:      -7.7      2.489      4.882
  Name = 
  2 active torsions:
  status: ('A' for Active; 'I' for Inactive)
    1  A    between atoms: C_20  and  C_29
    2  A    between atoms: C_29  and  C_30
                            x       y       z     vdW  Elec       q    Type
                         _______ _______ _______ _____ _____    ______ ____

>  <TORSDO>
F 2

$$$$
=
 OpenBabel11112416453D

 32 38  0  0  1  0  0  0  0  0999 V2000
  192.9320  171.5880  140.9580 O   0  0  0  0  0  0  0  0  0  0  0  0
  190.0700  175.1170  143.4410 C   0  0  2  0  0  3  0  0  0  0  0  0
  192.0340  175.9100  147.8030 C   0  0  0  0  0  3  0  0  0  0  0  0
  191.0110  176.8060  148.1220 C   0  0  0  0  0  3  0  0  0  0  0  0
  187.7200  176.0030  143.1830 C   0  0  0  0  0  0  0  0  0  0  0  0
  186.6880  177.0820  143.3810 C   0  0  1  0  0  3  0  0  0  0  0  0
  191.4280  173.9610  141.6690 C   0  0  1  0  0  3  0  0  0  0  0  0
  192.3070  174.3590  143.9040 O   0  0  0  0  0  0  0  0  0  0  0  0
  185.9790  178.8290  144.7470 C   0  0  2  0  0  3  0  0  0  0  0  0
  193.8160  173.4190  142.2680 C   0  0  0  0  0  2  0  0  0  0  0  0
  192.1710  175.4430  146.4930 C   0  0  0  0  0  3  0  0  0  0  0  0
  191.4330  175.4480  144.0700 C   0  0  2  0  0  3  0  0  0  0  0  0
  191.2710  175.8550  145.5020 C   0  0  0  0  0  0  0  0  0  0  0  0
  189.3240  177.2250  144.7030 C   0  0  2  0  0  3  0  0  0  0  0  0
  184.8280  177.8400  144.6230 C   0  0  0  0  0  2  0  0  0  0  0  0
  192.0360  171.4560  142.0380 C   0  0  2  0  0  3  0  0  0  0  0  0
  192.6390  174.3450  142.5340 C   0  0  1  0  0  3  0  0  0  0  0  0
  185.4380  176.5820  144.0630 C   0  0  0  0  0  2  0  0  0  0  0  0
  190.9490  172.5420  141.9920 C   0  0  0  0  0  2  0  0  0  0  0  0
  193.4340  171.9360  142.2320 C   0  0  1  0  0  0  0  0  0  0  0  0
  190.1220  177.2330  147.1320 C   0  0  0  0  0  3  0  0  0  0  0  0
  190.2360  176.7510  145.8180 C   0  0  0  0  0  0  0  0  0  0  0  0
  188.0260  177.8290  145.2400 C   0  0  0  0  0  2  0  0  0  0  0  0
  190.2930  174.9580  141.9320 C   0  0  0  0  0  2  0  0  0  0  0  0
  187.4130  174.9870  142.5030 O   0  0  0  0  0  0  0  0  0  0  0  0
  185.6180  180.1260  144.0490 C   0  0  0  0  0  1  0  0  0  0  0  0
  189.0390  176.1290  143.7540 N   0  0  0  0  0  0  0  0  0  0  0  0
  187.1720  178.2490  144.1310 N   0  0  1  0  0  0  0  0  0  0  0  0
  194.4370  170.9030  142.7330 C   0  0  0  0  0  2  0  0  0  0  0  0
  195.0620  171.3100  144.0320 C   0  0  0  0  0  0  0  0  0  0  0  0
  194.2210  171.4060  145.2570 C   0  0  0  0  0  1  0  0  0  0  0  0
  196.2480  171.5890  144.0860 O   0  0  0  0  0  0  0  0  0  0  0  0
  1 16  1  0  0  0  0
  1 20  1  0  0  0  0
  2 24  1  6  0  0  0
  2 27  1  0  0  0  0
  2 12  1  0  0  0  0
  3  4  1  0  0  0  0
  5  6  1  0  0  0  0
  5 27  1  0  0  0  0
  6 18  1  1  0  0  0
  6 28  1  0  0  0  0
  7 24  1  1  0  0  0
  7 19  1  0  0  0  0
  7 17  1  0  0  0  0
  9 26  1  6  0  0  0
 11  3  2  0  0  0  0
 12  8  1  1  0  0  0
 12 13  1  0  0  0  0
 13 22  2  0  0  0  0
 13 11  1  0  0  0  0
 14 23  1  1  0  0  0
 14 22  1  0  0  0  0
 15  9  1  0  0  0  0
 16 19  1  6  0  0  0
 16 20  1  0  0  0  0
 17 10  1  1  0  0  0
 17  8  1  0  0  0  0
 18 15  1  0  0  0  0
 20 10  1  0  0  0  0
 20 29  1  1  0  0  0
 21  4  2  0  0  0  0
 22 21  1  0  0  0  0
 25  5  2  0  0  0  0
 27 14  1  0  0  0  0
 28  9  1  0  0  0  0
 28 23  1  1  0  0  0
 29 30  1  0  0  0  0
 30 32  2  0  0  0  0
 30 31  1  0  0  0  0
M  END
>  <MODEL>
7

>  <REMARK>
 VINA RESULT:      -7.4      2.769      8.453
  Name = 
  2 active torsions:
  status: ('A' for Active; 'I' for Inactive)
    1  A    between atoms: C_20  and  C_29
    2  A    between atoms: C_29  and  C_30
                            x       y       z     vdW  Elec       q    Type
                         _______ _______ _______ _____ _____    ______ ____

>  <TORSDO>
F 2

$$$$
=
 OpenBabel11112416453D

 32 38  0  0  1  0  0  0  0  0999 V2000
  187.0090  175.8700  142.1460 O   0  0  0  0  0  0  0  0  0  0  0  0
  191.3340  173.6650  143.9470 C   0  0  2  0  0  3  0  0  0  0  0  0
  194.3620  177.1630  145.4000 C   0  0  0  0  0  3  0  0  0  0  0  0
  195.3300  176.2130  145.7340 C   0  0  0  0  0  3  0  0  0  0  0  0
  192.4110  171.3960  143.6960 C   0  0  0  0  0  0  0  0  0  0  0  0
  193.3270  170.3090  144.1930 C   0  0  1  0  0  3  0  0  0  0  0  0
  188.9080  174.2120  143.5730 C   0  0  1  0  0  3  0  0  0  0  0  0
  190.5160  175.9090  144.2540 O   0  0  0  0  0  0  0  0  0  0  0  0
  195.2620  169.8340  145.3970 C   0  0  2  0  0  3  0  0  0  0  0  0
  188.1920  176.5620  144.1380 C   0  0  0  0  0  2  0  0  0  0  0  0
  193.0630  176.7570  145.0830 C   0  0  0  0  0  3  0  0  0  0  0  0
  191.3340  174.9230  144.8330 C   0  0  2  0  0  3  0  0  0  0  0  0
  192.7340  175.3950  145.0800 C   0  0  0  0  0  0  0  0  0  0  0  0
  193.2900  172.9760  145.4590 C   0  0  2  0  0  3  0  0  0  0  0  0
  195.4260  169.2460  144.0030 C   0  0  0  0  0  2  0  0  0  0  0  0
  188.3020  175.7920  141.5950 C   0  0  2  0  0  3  0  0  0  0  0  0
  189.1930  175.4550  144.4320 C   0  0  1  0  0  3  0  0  0  0  0  0
  194.3490  169.8860  143.1680 C   0  0  0  0  0  2  0  0  0  0  0  0
  189.0370  174.5320  142.0810 C   0  0  0  0  0  2  0  0  0  0  0  0
  187.9550  176.7940  142.6430 C   0  0  1  0  0  0  0  0  0  0  0  0
  195.0000  174.8550  145.7480 C   0  0  0  0  0  3  0  0  0  0  0  0
  193.7040  174.4340  145.4090 C   0  0  0  0  0  0  0  0  0  0  0  0
  194.4940  172.0350  145.4030 C   0  0  0  0  0  2  0  0  0  0  0  0
  189.9050  173.1090  143.9500 C   0  0  0  0  0  2  0  0  0  0  0  0
  191.7100  171.1780  142.6710 O   0  0  0  0  0  0  0  0  0  0  0  0
  195.1650  168.7160  146.4160 C   0  0  0  0  0  1  0  0  0  0  0  0
  192.3300  172.6640  144.3810 N   0  0  0  0  0  0  0  0  0  0  0  0
  194.0460  170.6450  145.4310 N   0  0  1  0  0  0  0  0  0  0  0  0
  187.6610  178.2070  142.1520 C   0  0  0  0  0  2  0  0  0  0  0  0
  186.2550  178.6250  142.4490 C   0  0  0  0  0  0  0  0  0  0  0  0
  185.9280  179.2300  143.7710 C   0  0  0  0  0  1  0  0  0  0  0  0
  185.3700  178.4480  141.6280 O   0  0  0  0  0  0  0  0  0  0  0  0
  1 20  1  0  0  0  0
  2 24  1  1  0  0  0
  2 27  1  0  0  0  0
  2 12  1  0  0  0  0
  3  4  1  0  0  0  0
  4 21  2  0  0  0  0
  5  6  1  0  0  0  0
  5 27  1  0  0  0  0
  6 18  1  6  0  0  0
  6 28  1  0  0  0  0
  7 19  1  6  0  0  0
  7 24  1  0  0  0  0
  7 17  1  0  0  0  0
  8 17  1  0  0  0  0
  9 28  1  0  0  0  0
  9 26  1  1  0  0  0
 11  3  2  0  0  0  0
 12  8  1  6  0  0  0
 12 13  1  0  0  0  0
 13 11  1  0  0  0  0
 13 22  2  0  0  0  0
 14 23  1  6  0  0  0
 15  9  1  0  0  0  0
 16 19  1  1  0  0  0
 16  1  1  0  0  0  0
 16 20  1  0  0  0  0
 17 10  1  6  0  0  0
 18 15  1  0  0  0  0
 20 29  1  6  0  0  0
 20 10  1  0  0  0  0
 22 14  1  0  0  0  0
 22 21  1  0  0  0  0
 25  5  2  0  0  0  0
 27 14  1  0  0  0  0
 28 23  1  6  0  0  0
 29 30  1  0  0  0  0
 30 31  1  0  0  0  0
 32 30  2  0  0  0  0
M  END
>  <MODEL>
8

>  <REMARK>
 VINA RESULT:      -7.4      3.111      4.710
  Name = 
  2 active torsions:
  status: ('A' for Active; 'I' for Inactive)
    1  A    between atoms: C_20  and  C_29
    2  A    between atoms: C_29  and  C_30
                            x       y       z     vdW  Elec       q    Type
                         _______ _______ _______ _____ _____    ______ ____

>  <TORSDO>
F 2

$$$$
=
 OpenBabel11112416453D

 32 38  0  0  1  0  0  0  0  0999 V2000
  186.3440  179.0630  144.2920 O   0  0  0  0  0  0  0  0  0  0  0  0
  190.7130  176.3420  143.7300 C   0  0  2  0  0  3  0  0  0  0  0  0
  189.7670  172.4480  140.9970 C   0  0  0  0  0  3  0  0  0  0  0  0
  191.0880  172.0110  141.1300 C   0  0  0  0  0  3  0  0  0  0  0  0
  192.9150  176.2380  144.9600 C   0  0  0  0  0  0  0  0  0  0  0  0
  194.3890  175.9290  145.0020 C   0  0  1  0  0  3  0  0  0  0  0  0
  189.0750  178.2480  143.7670 C   0  0  1  0  0  3  0  0  0  0  0  0
  188.6660  176.2310  142.4670 O   0  0  0  0  0  0  0  0  0  0  0  0
  196.0870  174.5720  144.1720 C   0  0  2  0  0  3  0  0  0  0  0  0
  187.0880  178.0450  142.2290 C   0  0  0  0  0  2  0  0  0  0  0  0
  189.4090  173.7300  141.4230 C   0  0  0  0  0  3  0  0  0  0  0  0
  190.0480  175.9830  142.3910 C   0  0  2  0  0  3  0  0  0  0  0  0
  190.3680  174.5720  142.0020 C   0  0  0  0  0  0  0  0  0  0  0  0
  192.7180  175.1020  142.7130 C   0  0  2  0  0  3  0  0  0  0  0  0
  196.0800  174.4310  145.6870 C   0  0  0  0  0  2  0  0  0  0  0  0
  186.7470  177.8380  144.8580 C   0  0  2  0  0  3  0  0  0  0  0  0
  188.5330  177.6340  142.4660 C   0  0  1  0  0  3  0  0  0  0  0  0
  194.7640  175.0100  146.1380 C   0  0  0  0  0  2  0  0  0  0  0  0
  188.2770  177.7600  144.9800 C   0  0  0  0  0  2  0  0  0  0  0  0
  186.2030  177.9220  143.4730 C   0  0  1  0  0  0  0  0  0  0  0  0
  192.0500  172.8540  141.6910 C   0  0  0  0  0  3  0  0  0  0  0  0
  191.6960  174.1360  142.1440 C   0  0  0  0  0  0  0  0  0  0  0  0
  193.9770  174.3830  143.2010 C   0  0  0  0  0  2  0  0  0  0  0  0
  190.5480  177.8540  143.9280 C   0  0  0  0  0  2  0  0  0  0  0  0
  192.3810  176.7900  145.9600 O   0  0  0  0  0  0  0  0  0  0  0  0
  197.3560  175.2740  143.7290 C   0  0  0  0  0  1  0  0  0  0  0  0
  192.1260  175.9160  143.7950 N   0  0  0  0  0  0  0  0  0  0  0  0
  194.9200  175.3490  143.7610 N   0  0  1  0  0  0  0  0  0  0  0  0
  184.7370  177.5410  143.3010 C   0  0  0  0  0  2  0  0  0  0  0  0
  184.1650  178.0650  142.0210 C   0  0  0  0  0  0  0  0  0  0  0  0
  182.7440  178.5070  141.9730 C   0  0  0  0  0  1  0  0  0  0  0  0
  184.8480  178.1070  141.0100 O   0  0  0  0  0  0  0  0  0  0  0  0
  1 16  1  0  0  0  0
  2 27  1  0  0  0  0
  2 24  1  6  0  0  0
  3  4  2  0  0  0  0
  3 11  1  0  0  0  0
  4 21  1  0  0  0  0
  5  6  1  0  0  0  0
  5 25  2  0  0  0  0
  6 18  1  1  0  0  0
  7 24  1  1  0  0  0
  7 19  1  0  0  0  0
  9 26  1  1  0  0  0
  9 15  1  0  0  0  0
 10 20  1  0  0  0  0
 11 13  2  0  0  0  0
 12 13  1  1  0  0  0
 12  8  1  0  0  0  0
 12  2  1  0  0  0  0
 13 22  1  0  0  0  0
 14 23  1  1  0  0  0
 14 27  1  0  0  0  0
 15 18  1  0  0  0  0
 16 19  1  6  0  0  0
 17 10  1  1  0  0  0
 17  8  1  0  0  0  0
 17  7  1  0  0  0  0
 20 29  1  6  0  0  0
 20  1  1  0  0  0  0
 20 16  1  0  0  0  0
 21 22  2  0  0  0  0
 22 14  1  0  0  0  0
 27  5  1  0  0  0  0
 28 23  1  1  0  0  0
 28  9  1  0  0  0  0
 28  6  1  0  0  0  0
 30 29  1  0  0  0  0
 31 30  1  0  0  0  0
 32 30  2  0  0  0  0
M  END
>  <MODEL>
9

>  <REMARK>
 VINA RESULT:      -7.1      1.746      2.064
  Name = 
  2 active torsions:
  status: ('A' for Active; 'I' for Inactive)
    1  A    between atoms: C_20  and  C_29
    2  A    between atoms: C_29  and  C_30
                            x       y       z     vdW  Elec       q    Type
                         _______ _______ _______ _____ _____    ______ ____

>  <TORSDO>
F 2

$$$$
