=
 OpenBabel11112417403D

 28 32  0  0  1  0  0  0  0  0999 V2000
  191.6020  174.1140  143.1470 C   0  0  0  0  0  0  0  0  0  0  0  0
  188.3430  178.0040  141.7950 C   0  0  0  0  0  1  0  0  0  0  0  0
  191.6910  176.4480  147.3620 O   0  0  0  0  0  0  0  0  0  0  0  0
  190.0730  172.3140  144.6530 C   0  0  0  0  0  3  0  0  0  0  0  0
  189.4370  176.8040  146.5740 C   0  0  1  0  0  3  0  0  0  0  0  0
  192.4640  175.0840  142.3980 C   0  0  0  0  0  2  0  0  0  0  0  0
  187.8460  175.8250  140.7550 C   0  0  0  0  0  1  0  0  0  0  0  0
  187.6610  176.6560  142.0100 C   0  0  0  0  0  0  0  0  0  0  0  0
  185.7900  177.3010  143.4400 C   0  0  0  0  0  0  0  0  0  0  0  0
  188.2420  175.8870  143.2180 C   0  0  2  0  0  3  0  0  0  0  0  0
  193.3680  174.9120  145.4600 O   0  0  0  0  0  1  0  0  0  0  0  0
  190.1730  176.9960  144.2140 C   0  0  1  0  0  3  0  0  0  0  0  0
  186.6180  177.2360  144.5600 O   0  0  0  0  0  0  0  0  0  0  0  0
  186.2680  176.8760  142.2040 O   0  0  0  0  0  0  0  0  0  0  0  0
  193.6370  175.9340  144.5470 C   0  0  2  0  0  3  0  0  0  0  0  0
  190.3230  174.4950  143.5970 C   0  0  0  0  0  0  0  0  0  0  0  0
  190.8920  176.6080  146.3990 C   0  0  0  0  0  0  0  0  0  0  0  0
  184.6200  177.7520  143.5440 O   0  0  0  0  0  0  0  0  0  0  0  0
  192.6660  177.1110  144.6840 C   0  0  0  0  0  2  0  0  0  0  0  0
  189.5750  173.5870  144.3680 C   0  0  0  0  0  3  0  0  0  0  0  0
  192.0880  172.8280  143.4230 C   0  0  0  0  0  3  0  0  0  0  0  0
  191.3250  171.9320  144.1720 C   0  0  0  0  0  3  0  0  0  0  0  0
  193.7790  175.3920  143.1200 C   0  0  0  0  0  2  0  0  0  0  0  0
  188.9830  177.2240  145.1560 C   0  0  1  0  0  3  0  0  0  0  0  0
  191.3200  176.6810  145.0500 N   0  0  0  0  0  0  0  0  0  0  0  0
  187.8050  176.4400  144.5840 C   0  0  2  0  0  3  0  0  0  0  0  0
  188.8070  175.5130  147.0840 C   0  0  0  0  0  1  0  0  0  0  0  0
  189.7710  175.8670  143.2520 C   0  0  1  0  0  3  0  0  0  0  0  0
  1 21  2  0  0  0  0
  1 16  1  0  0  0  0
  2  8  1  0  0  0  0
  5 27  1  6  0  0  0
  6 23  1  0  0  0  0
  6  1  1  0  0  0  0
  7  8  1  0  0  0  0
  8 14  1  0  0  0  0
  9 18  2  0  0  0  0
  9 13  1  0  0  0  0
 10  8  1  6  0  0  0
 10 28  1  0  0  0  0
 10 26  1  0  0  0  0
 12 25  1  1  0  0  0
 12 24  1  0  0  0  0
 13 26  1  0  0  0  0
 14  9  1  0  0  0  0
 15 19  1  0  0  0  0
 15 11  1  1  0  0  0
 16 20  2  0  0  0  0
 17  5  1  0  0  0  0
 17  3  2  0  0  0  0
 19 25  1  0  0  0  0
 20  4  1  0  0  0  0
 21 22  1  0  0  0  0
 22  4  2  0  0  0  0
 23 15  1  0  0  0  0
 24  5  1  0  0  0  0
 25 17  1  0  0  0  0
 26 24  1  0  0  0  0
 28 16  1  0  0  0  0
 28 12  1  0  0  0  0
M  END
>  <MODEL>
1

>  <REMARK>
 VINA RESULT:      -8.3      0.000      0.000
  Name = 
  0 active torsions:
  status: ('A' for Active; 'I' for Inactive)
                            x       y       z     vdW  Elec       q    Type
                         _______ _______ _______ _____ _____    ______ ____

>  <TORSDO>
F 0

$$$$
=
 OpenBabel11112417403D

 28 32  0  0  1  0  0  0  0  0999 V2000
  188.9990  177.0260  144.5440 C   0  0  0  0  0  0  0  0  0  0  0  0
  193.8970  175.5740  143.3290 C   0  0  0  0  0  1  0  0  0  0  0  0
  187.8670  172.8460  142.4290 O   0  0  0  0  0  0  0  0  0  0  0  0
  188.3090  175.5700  146.8370 C   0  0  0  0  0  3  0  0  0  0  0  0
  189.9900  172.3830  143.4800 C   0  0  1  0  0  3  0  0  0  0  0  0
  189.3110  177.7740  143.2850 C   0  0  0  0  0  2  0  0  0  0  0  0
  193.6830  176.8450  145.4300 C   0  0  0  0  0  1  0  0  0  0  0  0
  193.5580  175.4650  144.8120 C   0  0  0  0  0  0  0  0  0  0  0  0
  194.3810  173.2230  145.3180 C   0  0  0  0  0  0  0  0  0  0  0  0
  192.1270  174.9300  145.0520 C   0  0  2  0  0  3  0  0  0  0  0  0
  186.9740  175.6520  142.7780 O   0  0  0  0  0  1  0  0  0  0  0  0
  190.8550  174.6540  142.9900 C   0  0  1  0  0  3  0  0  0  0  0  0
  193.1890  172.6740  144.8470 O   0  0  0  0  0  0  0  0  0  0  0  0
  194.5040  174.6040  145.4350 O   0  0  0  0  0  0  0  0  0  0  0  0
  187.8010  176.2530  141.8270 C   0  0  2  0  0  3  0  0  0  0  0  0
  189.8140  175.9540  144.9600 C   0  0  0  0  0  0  0  0  0  0  0  0
  189.0020  173.2490  142.8010 C   0  0  0  0  0  0  0  0  0  0  0  0
  195.3430  172.4740  145.6280 O   0  0  0  0  0  0  0  0  0  0  0  0
  188.9800  175.3610  141.4290 C   0  0  0  0  0  2  0  0  0  0  0  0
  189.4440  175.2220  146.1020 C   0  0  0  0  0  3  0  0  0  0  0  0
  187.8700  177.3800  145.2970 C   0  0  0  0  0  3  0  0  0  0  0  0
  187.5280  176.6560  146.4390 C   0  0  0  0  0  3  0  0  0  0  0  0
  188.1940  177.6760  142.2420 C   0  0  0  0  0  2  0  0  0  0  0  0
  191.2690  173.2530  143.4580 C   0  0  1  0  0  3  0  0  0  0  0  0
  189.4730  174.5610  142.5460 N   0  0  0  0  0  0  0  0  0  0  0  0
  191.9710  173.4210  144.8030 C   0  0  2  0  0  3  0  0  0  0  0  0
  189.4850  172.0330  144.8760 C   0  0  0  0  0  1  0  0  0  0  0  0
  191.0680  175.6040  144.1790 C   0  0  1  0  0  3  0  0  0  0  0  0
  1 16  2  0  0  0  0
  1 21  1  0  0  0  0
  2  8  1  0  0  0  0
  3 17  2  0  0  0  0
  5 27  1  1  0  0  0
  6  1  1  0  0  0  0
  8  7  1  0  0  0  0
  8 14  1  0  0  0  0
  9 14  1  0  0  0  0
  9 18  2  0  0  0  0
 10  8  1  6  0  0  0
 12 25  1  1  0  0  0
 12 24  1  0  0  0  0
 12 28  1  0  0  0  0
 13  9  1  0  0  0  0
 15 23  1  0  0  0  0
 15 11  1  1  0  0  0
 16 20  1  0  0  0  0
 17  5  1  0  0  0  0
 19 15  1  0  0  0  0
 19 25  1  0  0  0  0
 20  4  2  0  0  0  0
 21 22  2  0  0  0  0
 22  4  1  0  0  0  0
 23  6  1  0  0  0  0
 24  5  1  0  0  0  0
 24 26  1  0  0  0  0
 25 17  1  0  0  0  0
 26 13  1  0  0  0  0
 26 10  1  0  0  0  0
 28 16  1  0  0  0  0
 28 10  1  0  0  0  0
M  END
>  <MODEL>
2

>  <REMARK>
 VINA RESULT:      -8.1      1.793      6.128
  Name = 
  0 active torsions:
  status: ('A' for Active; 'I' for Inactive)
                            x       y       z     vdW  Elec       q    Type
                         _______ _______ _______ _____ _____    ______ ____

>  <TORSDO>
F 0

$$$$
=
 OpenBabel11112417403D

 28 32  0  0  1  0  0  0  0  0999 V2000
  190.8020  174.1910  143.0230 C   0  0  0  0  0  0  0  0  0  0  0  0
  187.5210  178.2100  143.8420 C   0  0  0  0  0  1  0  0  0  0  0  0
  193.1230  176.0870  146.7960 O   0  0  0  0  0  0  0  0  0  0  0  0
  190.1420  172.2540  144.9370 C   0  0  0  0  0  3  0  0  0  0  0  0
  190.8020  176.5290  147.2900 C   0  0  1  0  0  3  0  0  0  0  0  0
  191.2220  175.2280  142.0270 C   0  0  0  0  0  2  0  0  0  0  0  0
  186.4520  176.1480  143.0150 C   0  0  0  0  0  1  0  0  0  0  0  0
  186.9680  176.8500  144.2570 C   0  0  0  0  0  0  0  0  0  0  0  0
  186.1080  177.3540  146.4860 C   0  0  0  0  0  0  0  0  0  0  0  0
  188.0350  175.9600  144.9350 C   0  0  2  0  0  3  0  0  0  0  0  0
  193.5310  174.7450  144.1840 O   0  0  0  0  0  1  0  0  0  0  0  0
  190.2610  176.9560  144.9080 C   0  0  1  0  0  3  0  0  0  0  0  0
  187.3810  177.1720  147.0230 O   0  0  0  0  0  0  0  0  0  0  0  0
  185.8760  177.0530  145.1470 O   0  0  0  0  0  0  0  0  0  0  0  0
  193.3600  175.8530  143.3520 C   0  0  2  0  0  3  0  0  0  0  0  0
  189.9450  174.5290  144.0890 C   0  0  0  0  0  0  0  0  0  0  0  0
  191.9590  176.3460  146.3870 C   0  0  0  0  0  0  0  0  0  0  0  0
  185.1750  177.7950  147.2050 O   0  0  0  0  0  0  0  0  0  0  0  0
  192.6550  177.0130  144.0610 C   0  0  0  0  0  2  0  0  0  0  0  0
  189.6380  173.5510  145.0520 C   0  0  0  0  0  3  0  0  0  0  0  0
  191.2900  172.8820  142.9050 C   0  0  0  0  0  3  0  0  0  0  0  0
  190.9590  171.9180  143.8580 C   0  0  0  0  0  3  0  0  0  0  0  0
  192.7360  175.4570  142.0090 C   0  0  0  0  0  2  0  0  0  0  0  0
  189.7210  177.0920  146.3370 C   0  0  1  0  0  3  0  0  0  0  0  0
  191.6540  176.5530  145.0190 N   0  0  0  0  0  0  0  0  0  0  0  0
  188.3740  176.3740  146.3750 C   0  0  2  0  0  3  0  0  0  0  0  0
  190.4450  175.1950  147.9360 C   0  0  0  0  0  1  0  0  0  0  0  0
  189.3700  175.9310  144.1890 C   0  0  1  0  0  3  0  0  0  0  0  0
  1 16  1  0  0  0  0
  2  8  1  0  0  0  0
  4 20  1  0  0  0  0
  5 27  1  6  0  0  0
  6  1  1  0  0  0  0
  7  8  1  0  0  0  0
  8 14  1  0  0  0  0
  9 13  1  0  0  0  0
  9 18  2  0  0  0  0
 10  8  1  6  0  0  0
 10 26  1  0  0  0  0
 12 25  1  1  0  0  0
 12 24  1  0  0  0  0
 14  9  1  0  0  0  0
 15 19  1  0  0  0  0
 15 11  1  1  0  0  0
 16 28  1  0  0  0  0
 16 20  2  0  0  0  0
 17  3  2  0  0  0  0
 17  5  1  0  0  0  0
 19 25  1  0  0  0  0
 21  1  2  0  0  0  0
 21 22  1  0  0  0  0
 22  4  2  0  0  0  0
 23  6  1  0  0  0  0
 23 15  1  0  0  0  0
 24 26  1  0  0  0  0
 24  5  1  0  0  0  0
 25 17  1  0  0  0  0
 26 13  1  0  0  0  0
 28 12  1  0  0  0  0
 28 10  1  0  0  0  0
M  END
>  <MODEL>
3

>  <REMARK>
 VINA RESULT:      -8.1      1.336      1.757
  Name = 
  0 active torsions:
  status: ('A' for Active; 'I' for Inactive)
                            x       y       z     vdW  Elec       q    Type
                         _______ _______ _______ _____ _____    ______ ____

>  <TORSDO>
F 0

$$$$
=
 OpenBabel11112417403D

 28 32  0  0  1  0  0  0  0  0999 V2000
  190.4950  175.9130  144.8190 C   0  0  0  0  0  0  0  0  0  0  0  0
  185.4370  176.4160  146.1400 C   0  0  0  0  0  1  0  0  0  0  0  0
  188.6510  174.9160  140.4800 O   0  0  0  0  0  0  0  0  0  0  0  0
  191.1910  178.2910  143.5130 C   0  0  0  0  0  3  0  0  0  0  0  0
  187.1120  176.5420  141.3800 C   0  0  1  0  0  3  0  0  0  0  0  0
  190.1420  174.6050  145.4580 C   0  0  0  0  0  2  0  0  0  0  0  0
  186.9760  177.9290  147.3310 C   0  0  0  0  0  1  0  0  0  0  0  0
  186.1970  177.7350  146.0440 C   0  0  0  0  0  0  0  0  0  0  0  0
  184.6580  179.0650  144.6940 C   0  0  0  0  0  0  0  0  0  0  0  0
  187.1780  177.7650  144.8490 C   0  0  2  0  0  3  0  0  0  0  0  0
  190.8250  174.1930  142.3630 O   0  0  0  0  0  1  0  0  0  0  0  0
  187.3170  175.6310  143.6770 C   0  0  1  0  0  3  0  0  0  0  0  0
  185.1810  178.5010  143.5320 O   0  0  0  0  0  0  0  0  0  0  0  0
  185.2570  178.7960  145.9210 O   0  0  0  0  0  0  0  0  0  0  0  0
  190.1010  173.3390  143.1980 C   0  0  2  0  0  3  0  0  0  0  0  0
  189.4850  176.8120  144.4260 C   0  0  0  0  0  0  0  0  0  0  0  0
  188.0680  175.4180  141.4790 C   0  0  0  0  0  0  0  0  0  0  0  0
  183.6440  179.8080  144.6350 O   0  0  0  0  0  0  0  0  0  0  0  0
  188.5880  173.5220  143.0520 C   0  0  0  0  0  2  0  0  0  0  0  0
  189.8490  177.9930  143.7540 C   0  0  0  0  0  3  0  0  0  0  0  0
  191.8420  176.2280  144.5890 C   0  0  0  0  0  3  0  0  0  0  0  0
  192.1880  177.4130  143.9390 C   0  0  0  0  0  3  0  0  0  0  0  0
  190.6120  173.3980  144.6420 C   0  0  0  0  0  2  0  0  0  0  0  0
  186.4910  176.5780  142.7970 C   0  0  1  0  0  3  0  0  0  0  0  0
  188.2200  174.9110  142.7930 N   0  0  0  0  0  0  0  0  0  0  0  0
  186.4960  177.9420  143.4820 C   0  0  2  0  0  3  0  0  0  0  0  0
  187.8580  177.8110  140.9840 C   0  0  0  0  0  1  0  0  0  0  0  0
  188.0290  176.5010  144.7240 C   0  0  1  0  0  3  0  0  0  0  0  0
  1  6  1  0  0  0  0
  3 17  2  0  0  0  0
  4 20  2  0  0  0  0
  4 22  1  0  0  0  0
  5 27  1  1  0  0  0
  5 17  1  0  0  0  0
  5 24  1  0  0  0  0
  8  2  1  0  0  0  0
  8  7  1  0  0  0  0
  9 14  1  0  0  0  0
 10  8  1  1  0  0  0
 12 25  1  6  0  0  0
 12 28  1  0  0  0  0
 13  9  1  0  0  0  0
 14  8  1  0  0  0  0
 15 11  1  6  0  0  0
 15 23  1  0  0  0  0
 16 28  1  0  0  0  0
 16  1  2  0  0  0  0
 17 25  1  0  0  0  0
 18  9  2  0  0  0  0
 19 15  1  0  0  0  0
 20 16  1  0  0  0  0
 21  1  1  0  0  0  0
 22 21  2  0  0  0  0
 23  6  1  0  0  0  0
 24 26  1  0  0  0  0
 24 12  1  0  0  0  0
 25 19  1  0  0  0  0
 26 13  1  0  0  0  0
 26 10  1  0  0  0  0
 28 10  1  0  0  0  0
M  END
>  <MODEL>
4

>  <REMARK>
 VINA RESULT:      -8.0      2.146      4.541
  Name = 
  0 active torsions:
  status: ('A' for Active; 'I' for Inactive)
                            x       y       z     vdW  Elec       q    Type
                         _______ _______ _______ _____ _____    ______ ____

>  <TORSDO>
F 0

$$$$
=
 OpenBabel11112417403D

 28 32  0  0  1  0  0  0  0  0999 V2000
  187.7060  176.5810  143.4570 C   0  0  0  0  0  0  0  0  0  0  0  0
  189.3720  171.7510  144.6730 C   0  0  0  0  0  1  0  0  0  0  0  0
  189.9070  177.7390  147.5850 O   0  0  0  0  0  0  0  0  0  0  0  0
  189.9250  177.9160  142.3880 C   0  0  0  0  0  3  0  0  0  0  0  0
  191.2800  175.9610  146.7000 C   0  0  1  0  0  3  0  0  0  0  0  0
  186.5150  175.9180  144.0800 C   0  0  0  0  0  2  0  0  0  0  0  0
  189.3120  172.2510  142.2600 C   0  0  0  0  0  1  0  0  0  0  0  0
  190.1320  172.4090  143.5260 C   0  0  0  0  0  0  0  0  0  0  0  0
  192.4430  171.9940  144.1960 C   0  0  0  0  0  0  0  0  0  0  0  0
  190.3920  173.9130  143.7770 C   0  0  2  0  0  3  0  0  0  0  0  0
  187.5370  178.3350  145.9060 O   0  0  0  0  0  1  0  0  0  0  0  0
  189.3170  174.7400  145.8030 C   0  0  1  0  0  3  0  0  0  0  0  0
  192.4100  173.1150  145.0230 O   0  0  0  0  0  0  0  0  0  0  0  0
  191.3700  171.7300  143.3490 O   0  0  0  0  0  0  0  0  0  0  0  0
  186.7350  177.2570  146.2880 C   0  0  2  0  0  3  0  0  0  0  0  0
  188.9880  176.0100  143.5820 C   0  0  0  0  0  0  0  0  0  0  0  0
  190.0000  176.6680  146.9250 C   0  0  0  0  0  0  0  0  0  0  0  0
  193.4340  171.2190  144.2210 O   0  0  0  0  0  0  0  0  0  0  0  0
  187.5390  176.1390  146.9580 C   0  0  0  0  0  2  0  0  0  0  0  0
  190.0940  176.7020  143.0560 C   0  0  0  0  0  3  0  0  0  0  0  0
  187.5420  177.7920  142.7700 C   0  0  0  0  0  3  0  0  0  0  0  0
  188.6470  178.4550  142.2360 C   0  0  0  0  0  3  0  0  0  0  0  0
  185.8340  176.7910  145.1380 C   0  0  0  0  0  2  0  0  0  0  0  0
  190.8150  174.6100  146.1060 C   0  0  1  0  0  3  0  0  0  0  0  0
  188.8750  175.9970  146.3870 N   0  0  0  0  0  0  0  0  0  0  0  0
  191.4990  174.1950  144.8060 C   0  0  2  0  0  3  0  0  0  0  0  0
  192.1620  176.7910  145.7730 C   0  0  0  0  0  1  0  0  0  0  0  0
  189.1620  174.6710  144.2760 C   0  0  1  0  0  3  0  0  0  0  0  0
  1 16  1  0  0  0  0
  1  6  1  0  0  0  0
  4 20  1  0  0  0  0
  5 27  1  6  0  0  0
  5 17  1  0  0  0  0
  6 23  1  0  0  0  0
  7  8  1  0  0  0  0
  8  2  1  0  0  0  0
  9 18  2  0  0  0  0
  9 13  1  0  0  0  0
 10  8  1  1  0  0  0
 10 28  1  0  0  0  0
 10 26  1  0  0  0  0
 12 24  1  0  0  0  0
 12 25  1  6  0  0  0
 14  8  1  0  0  0  0
 14  9  1  0  0  0  0
 15 11  1  6  0  0  0
 15 19  1  0  0  0  0
 16 28  1  0  0  0  0
 17  3  2  0  0  0  0
 20 16  2  0  0  0  0
 21  1  2  0  0  0  0
 22  4  2  0  0  0  0
 22 21  1  0  0  0  0
 23 15  1  0  0  0  0
 24  5  1  0  0  0  0
 25 17  1  0  0  0  0
 25 19  1  0  0  0  0
 26 13  1  0  0  0  0
 26 24  1  0  0  0  0
 28 12  1  0  0  0  0
M  END
>  <MODEL>
5

>  <REMARK>
 VINA RESULT:      -7.0      1.959      5.622
  Name = 
  0 active torsions:
  status: ('A' for Active; 'I' for Inactive)
                            x       y       z     vdW  Elec       q    Type
                         _______ _______ _______ _____ _____    ______ ____

>  <TORSDO>
F 0

$$$$
=
 OpenBabel11112417403D

 28 32  0  0  1  0  0  0  0  0999 V2000
  193.7560  174.3690  144.6260 C   0  0  0  0  0  0  0  0  0  0  0  0
  189.2750  174.7980  147.3310 C   0  0  0  0  0  1  0  0  0  0  0  0
  190.9580  171.9810  141.5130 O   0  0  0  0  0  0  0  0  0  0  0  0
  193.6280  176.3070  142.6080 C   0  0  0  0  0  3  0  0  0  0  0  0
  189.4790  173.6610  142.4180 C   0  0  1  0  0  3  0  0  0  0  0  0
  193.8320  173.2810  145.6540 C   0  0  0  0  0  2  0  0  0  0  0  0
  190.8020  176.7220  147.5390 C   0  0  0  0  0  1  0  0  0  0  0  0
  189.7350  176.0910  146.6650 C   0  0  0  0  0  0  0  0  0  0  0  0
  187.6690  176.8260  145.5910 C   0  0  0  0  0  0  0  0  0  0  0  0
  190.3150  175.8520  145.2510 C   0  0  2  0  0  3  0  0  0  0  0  0
  193.6680  172.0360  142.7140 O   0  0  0  0  0  1  0  0  0  0  0  0
  190.4840  173.4880  144.6780 C   0  0  1  0  0  3  0  0  0  0  0  0
  187.9300  175.9920  144.5060 O   0  0  0  0  0  0  0  0  0  0  0  0
  188.6290  176.9830  146.5870 O   0  0  0  0  0  0  0  0  0  0  0  0
  193.3710  171.4070  143.9250 C   0  0  2  0  0  3  0  0  0  0  0  0
  192.5350  175.0210  144.3640 C   0  0  0  0  0  0  0  0  0  0  0  0
  190.6040  172.7030  142.4840 C   0  0  0  0  0  0  0  0  0  0  0  0
  186.5670  177.4270  145.6760 O   0  0  0  0  0  0  0  0  0  0  0  0
  191.8710  171.4080  144.2330 C   0  0  0  0  0  2  0  0  0  0  0  0
  192.4830  175.9780  143.3350 C   0  0  0  0  0  3  0  0  0  0  0  0
  194.9060  174.7170  143.9030 C   0  0  0  0  0  3  0  0  0  0  0  0
  194.8410  175.6840  142.8990 C   0  0  0  0  0  3  0  0  0  0  0  0
  194.2530  171.9330  145.0630 C   0  0  0  0  0  2  0  0  0  0  0  0
  189.2900  174.0580  143.9010 C   0  0  1  0  0  3  0  0  0  0  0  0
  191.2090  172.6210  143.7630 N   0  0  0  0  0  0  0  0  0  0  0  0
  189.2530  175.5590  144.1790 C   0  0  2  0  0  3  0  0  0  0  0  0
  189.8500  174.8170  141.4950 C   0  0  0  0  0  1  0  0  0  0  0  0
  191.3020  174.6870  145.1840 C   0  0  1  0  0  3  0  0  0  0  0  0
  1  6  1  0  0  0  0
  3 17  2  0  0  0  0
  4 22  2  0  0  0  0
  4 20  1  0  0  0  0
  5 27  1  6  0  0  0
  5 17  1  0  0  0  0
  5 24  1  0  0  0  0
  8  2  1  0  0  0  0
  8  7  1  0  0  0  0
  9 18  2  0  0  0  0
  9 14  1  0  0  0  0
 10  8  1  1  0  0  0
 12 25  1  6  0  0  0
 12 28  1  0  0  0  0
 13  9  1  0  0  0  0
 14  8  1  0  0  0  0
 15 11  1  6  0  0  0
 15 19  1  0  0  0  0
 15 23  1  0  0  0  0
 16  1  1  0  0  0  0
 16 28  1  0  0  0  0
 17 25  1  0  0  0  0
 20 16  2  0  0  0  0
 21  1  2  0  0  0  0
 22 21  1  0  0  0  0
 23  6  1  0  0  0  0
 24 26  1  0  0  0  0
 24 12  1  0  0  0  0
 25 19  1  0  0  0  0
 26 13  1  0  0  0  0
 26 10  1  0  0  0  0
 28 10  1  0  0  0  0
M  END
>  <MODEL>
6

>  <REMARK>
 VINA RESULT:      -7.0      2.164      4.542
  Name = 
  0 active torsions:
  status: ('A' for Active; 'I' for Inactive)
                            x       y       z     vdW  Elec       q    Type
                         _______ _______ _______ _____ _____    ______ ____

>  <TORSDO>
F 0

$$$$
=
 OpenBabel11112417403D

 28 32  0  0  1  0  0  0  0  0999 V2000
  186.7760  176.7160  143.3940 C   0  0  0  0  0  0  0  0  0  0  0  0
  189.1810  172.0470  143.4220 C   0  0  0  0  0  1  0  0  0  0  0  0
  190.1910  177.8310  146.6060 O   0  0  0  0  0  0  0  0  0  0  0  0
  188.3430  178.3810  141.7770 C   0  0  0  0  0  3  0  0  0  0  0  0
  191.3090  176.3000  145.1120 C   0  0  1  0  0  3  0  0  0  0  0  0
  185.9470  175.8720  144.3140 C   0  0  0  0  0  2  0  0  0  0  0  0
  188.2220  172.7080  141.2490 C   0  0  0  0  0  1  0  0  0  0  0  0
  189.4220  172.8730  142.1620 C   0  0  0  0  0  0  0  0  0  0  0  0
  191.8470  172.6910  141.9410 C   0  0  0  0  0  0  0  0  0  0  0  0
  189.6220  174.3740  142.4710 C   0  0  2  0  0  3  0  0  0  0  0  0
  187.3360  178.2560  145.9270 O   0  0  0  0  0  1  0  0  0  0  0  0
  189.2700  174.9190  144.8220 C   0  0  1  0  0  3  0  0  0  0  0  0
  192.0130  173.7380  142.8460 O   0  0  0  0  0  0  0  0  0  0  0  0
  190.5710  172.3620  141.4950 O   0  0  0  0  0  0  0  0  0  0  0  0
  186.8200  177.0650  146.4420 C   0  0  2  0  0  3  0  0  0  0  0  0
  188.0630  176.2960  143.0040 C   0  0  0  0  0  0  0  0  0  0  0  0
  190.1360  176.8300  145.8420 C   0  0  0  0  0  0  0  0  0  0  0  0
  192.8460  172.0410  141.5370 O   0  0  0  0  0  0  0  0  0  0  0  0
  187.9040  176.0070  146.6660 C   0  0  0  0  0  2  0  0  0  0  0  0
  188.8450  177.1520  142.2080 C   0  0  0  0  0  3  0  0  0  0  0  0
  186.2730  177.9440  142.9430 C   0  0  0  0  0  3  0  0  0  0  0  0
  187.0540  178.7720  142.1360 C   0  0  0  0  0  3  0  0  0  0  0  0
  185.6140  176.5780  145.6310 C   0  0  0  0  0  2  0  0  0  0  0  0
  190.7830  174.9490  144.5710 C   0  0  1  0  0  3  0  0  0  0  0  0
  188.9560  176.0680  145.6560 N   0  0  0  0  0  0  0  0  0  0  0  0
  190.9930  174.7130  143.0780 C   0  0  2  0  0  3  0  0  0  0  0  0
  191.7280  177.2940  144.0340 C   0  0  0  0  0  1  0  0  0  0  0  0
  188.5890  174.9410  143.4440 C   0  0  1  0  0  3  0  0  0  0  0  0
  1  6  1  0  0  0  0
  4 22  2  0  0  0  0
  4 20  1  0  0  0  0
  5 27  1  6  0  0  0
  5 17  1  0  0  0  0
  6 23  1  0  0  0  0
  7  8  1  0  0  0  0
  8  2  1  0  0  0  0
  9 13  1  0  0  0  0
 10  8  1  1  0  0  0
 10 26  1  0  0  0  0
 10 28  1  0  0  0  0
 12 25  1  1  0  0  0
 13 26  1  0  0  0  0
 14  9  1  0  0  0  0
 14  8  1  0  0  0  0
 15 11  1  6  0  0  0
 15 19  1  0  0  0  0
 16  1  1  0  0  0  0
 16 28  1  0  0  0  0
 17  3  2  0  0  0  0
 18  9  2  0  0  0  0
 20 16  2  0  0  0  0
 21  1  2  0  0  0  0
 22 21  1  0  0  0  0
 23 15  1  0  0  0  0
 24 12  1  0  0  0  0
 24  5  1  0  0  0  0
 25 17  1  0  0  0  0
 25 19  1  0  0  0  0
 26 24  1  0  0  0  0
 28 12  1  0  0  0  0
M  END
>  <MODEL>
7

>  <REMARK>
 VINA RESULT:      -6.9      2.156      5.582
  Name = 
  0 active torsions:
  status: ('A' for Active; 'I' for Inactive)
                            x       y       z     vdW  Elec       q    Type
                         _______ _______ _______ _____ _____    ______ ____

>  <TORSDO>
F 0

$$$$
=
 OpenBabel11112417403D

 28 32  0  0  1  0  0  0  0  0999 V2000
  194.8850  176.0970  144.0560 C   0  0  0  0  0  0  0  0  0  0  0  0
  189.7040  176.1760  144.9150 C   0  0  0  0  0  1  0  0  0  0  0  0
  194.0200  171.5080  142.8650 O   0  0  0  0  0  0  0  0  0  0  0  0
  195.2100  176.3170  141.2830 C   0  0  0  0  0  3  0  0  0  0  0  0
  192.0260  172.6590  142.1380 C   0  0  1  0  0  3  0  0  0  0  0  0
  194.7460  175.9160  145.5370 C   0  0  0  0  0  2  0  0  0  0  0  0
  190.6490  178.2910  144.0710 C   0  0  0  0  0  1  0  0  0  0  0  0
  190.1460  176.9200  143.6590 C   0  0  0  0  0  0  0  0  0  0  0  0
  188.5720  176.0380  142.0140 C   0  0  0  0  0  0  0  0  0  0  0  0
  191.2670  176.1770  142.8970 C   0  0  2  0  0  3  0  0  0  0  0  0
  195.9800  173.2890  144.1980 O   0  0  0  0  0  1  0  0  0  0  0  0
  192.0740  174.2020  144.0780 C   0  0  1  0  0  3  0  0  0  0  0  0
  189.3860  174.9220  141.8260 O   0  0  0  0  0  0  0  0  0  0  0  0
  189.0180  177.0900  142.8080 O   0  0  0  0  0  0  0  0  0  0  0  0
  195.3510  173.3980  145.4400 C   0  0  2  0  0  3  0  0  0  0  0  0
  193.7690  175.9440  143.2100 C   0  0  0  0  0  0  0  0  0  0  0  0
  193.1880  172.4420  143.0280 C   0  0  0  0  0  0  0  0  0  0  0  0
  187.4360  176.0900  141.4750 O   0  0  0  0  0  0  0  0  0  0  0  0
  193.8780  172.9840  145.3880 C   0  0  0  0  0  2  0  0  0  0  0  0
  193.9520  176.0390  141.8190 C   0  0  0  0  0  3  0  0  0  0  0  0
  196.1420  176.3930  143.5110 C   0  0  0  0  0  3  0  0  0  0  0  0
  196.3030  176.5040  142.1300 C   0  0  0  0  0  3  0  0  0  0  0  0
  195.6030  174.7690  146.0800 C   0  0  0  0  0  2  0  0  0  0  0  0
  191.2010  173.7100  142.9170 C   0  0  1  0  0  3  0  0  0  0  0  0
  193.2450  173.3400  144.1220 N   0  0  0  0  0  0  0  0  0  0  0  0
  190.7850  174.9420  142.1180 C   0  0  2  0  0  3  0  0  0  0  0  0
  192.5130  173.1230  140.7700 C   0  0  0  0  0  1  0  0  0  0  0  0
  192.3950  175.6800  143.8010 C   0  0  1  0  0  3  0  0  0  0  0  0
  1  6  1  0  0  0  0
  3 17  2  0  0  0  0
  4 20  2  0  0  0  0
  4 22  1  0  0  0  0
  5 27  1  6  0  0  0
  5 24  1  0  0  0  0
  5 17  1  0  0  0  0
  6 23  1  0  0  0  0
  8  7  1  0  0  0  0
  8  2  1  0  0  0  0
  9 14  1  0  0  0  0
 10  8  1  1  0  0  0
 10 28  1  0  0  0  0
 12 25  1  6  0  0  0
 13  9  1  0  0  0  0
 13 26  1  0  0  0  0
 14  8  1  0  0  0  0
 15 11  1  6  0  0  0
 15 23  1  0  0  0  0
 16 28  1  0  0  0  0
 16  1  2  0  0  0  0
 17 25  1  0  0  0  0
 18  9  2  0  0  0  0
 19 15  1  0  0  0  0
 20 16  1  0  0  0  0
 21  1  1  0  0  0  0
 22 21  2  0  0  0  0
 24 12  1  0  0  0  0
 25 19  1  0  0  0  0
 26 10  1  0  0  0  0
 26 24  1  0  0  0  0
 28 12  1  0  0  0  0
M  END
>  <MODEL>
8

>  <REMARK>
 VINA RESULT:      -6.9      2.304      4.767
  Name = 
  0 active torsions:
  status: ('A' for Active; 'I' for Inactive)
                            x       y       z     vdW  Elec       q    Type
                         _______ _______ _______ _____ _____    ______ ____

>  <TORSDO>
F 0

$$$$
=
 OpenBabel11112417403D

 28 32  0  0  1  0  0  0  0  0999 V2000
  190.0050  175.7860  144.5340 C   0  0  0  0  0  0  0  0  0  0  0  0
  193.2130  171.6310  144.3870 C   0  0  0  0  0  1  0  0  0  0  0  0
  193.1850  177.3810  147.7850 O   0  0  0  0  0  0  0  0  0  0  0  0
  191.2340  177.7660  142.9800 C   0  0  0  0  0  3  0  0  0  0  0  0
  194.5500  176.1340  146.2340 C   0  0  1  0  0  3  0  0  0  0  0  0
  189.3490  174.7730  145.4220 C   0  0  0  0  0  2  0  0  0  0  0  0
  192.1360  172.1880  142.2400 C   0  0  0  0  0  1  0  0  0  0  0  0
  193.2930  172.5330  143.1590 C   0  0  0  0  0  0  0  0  0  0  0  0
  195.7090  172.8010  142.9300 C   0  0  0  0  0  0  0  0  0  0  0  0
  193.2210  174.0340  143.5230 C   0  0  2  0  0  3  0  0  0  0  0  0
  190.2950  177.3090  147.1230 O   0  0  0  0  0  1  0  0  0  0  0  0
  192.7920  174.4180  145.8930 C   0  0  1  0  0  3  0  0  0  0  0  0
  195.6890  173.8270  143.8740 O   0  0  0  0  0  0  0  0  0  0  0  0
  194.5100  172.2630  142.4720 O   0  0  0  0  0  0  0  0  0  0  0  0
  190.0060  176.0260  147.5930 C   0  0  2  0  0  3  0  0  0  0  0  0
  191.3440  175.6210  144.1280 C   0  0  0  0  0  0  0  0  0  0  0  0
  193.3070  176.4160  146.9840 C   0  0  0  0  0  0  0  0  0  0  0  0
  196.8060  172.3570  142.5020 O   0  0  0  0  0  0  0  0  0  0  0  0
  191.2650  175.1730  147.7760 C   0  0  0  0  0  2  0  0  0  0  0  0
  191.9520  176.6320  143.3640 C   0  0  0  0  0  3  0  0  0  0  0  0
  189.2850  176.9190  144.1300 C   0  0  0  0  0  3  0  0  0  0  0  0
  189.8970  177.9040  143.3540 C   0  0  0  0  0  3  0  0  0  0  0  0
  188.9020  175.3580  146.7650 C   0  0  0  0  0  2  0  0  0  0  0  0
  194.2740  174.7310  145.6430 C   0  0  1  0  0  3  0  0  0  0  0  0
  192.2820  175.4600  146.7700 N   0  0  0  0  0  0  0  0  0  0  0  0
  194.5120  174.5920  144.1420 C   0  0  2  0  0  3  0  0  0  0  0  0
  194.7750  177.2260  145.1940 C   0  0  0  0  0  1  0  0  0  0  0  0
  192.1080  174.3680  144.5170 C   0  0  1  0  0  3  0  0  0  0  0  0
  1  6  1  0  0  0  0
  4 22  1  0  0  0  0
  4 20  2  0  0  0  0
  5 27  1  6  0  0  0
  5 17  1  0  0  0  0
  6 23  1  0  0  0  0
  7  8  1  0  0  0  0
  8  2  1  0  0  0  0
  9 13  1  0  0  0  0
 10  8  1  1  0  0  0
 10 26  1  0  0  0  0
 10 28  1  0  0  0  0
 12 25  1  1  0  0  0
 13 26  1  0  0  0  0
 14  9  1  0  0  0  0
 14  8  1  0  0  0  0
 15 11  1  6  0  0  0
 15 19  1  0  0  0  0
 16 28  1  0  0  0  0
 16  1  2  0  0  0  0
 17  3  2  0  0  0  0
 18  9  2  0  0  0  0
 20 16  1  0  0  0  0
 21  1  1  0  0  0  0
 22 21  2  0  0  0  0
 23 15  1  0  0  0  0
 24 12  1  0  0  0  0
 24  5  1  0  0  0  0
 25 17  1  0  0  0  0
 25 19  1  0  0  0  0
 26 24  1  0  0  0  0
 28 12  1  0  0  0  0
M  END
>  <MODEL>
9

>  <REMARK>
 VINA RESULT:      -6.9      2.718      6.244
  Name = 
  0 active torsions:
  status: ('A' for Active; 'I' for Inactive)
                            x       y       z     vdW  Elec       q    Type
                         _______ _______ _______ _____ _____    ______ ____

>  <TORSDO>
F 0

$$$$
