=
 OpenBabel11112416173D

 30 35  0  0  1  0  0  0  0  0999 V2000
  187.5120  176.4770  145.3740 C   0  0  0  0  0  0  0  0  0  0  0  0
  185.6980  177.6830  146.6380 C   0  0  0  0  0  0  0  0  0  0  0  0
  185.8160  177.6750  141.7110 N   0  0  0  0  0  2  0  0  0  0  0  0
  188.0770  176.0820  144.1220 C   0  0  0  0  0  0  0  0  0  0  0  0
  188.1460  176.0680  146.5520 C   0  0  0  0  0  3  0  0  0  0  0  0
  191.0240  173.9490  145.3350 C   0  0  0  0  0  1  0  0  0  0  0  0
  188.6750  174.0190  141.9320 C   0  0  1  0  0  3  0  0  0  0  0  0
  189.8180  174.8380  145.3220 C   0  0  0  0  0  0  0  0  0  0  0  0
  188.0270  175.0350  141.1090 N   0  0  0  0  0  0  0  0  0  0  0  0
  186.7830  177.1350  140.8220 C   0  0  0  0  0  0  0  0  0  0  0  0
  189.2910  175.2710  146.5420 C   0  0  0  0  0  0  0  0  0  0  0  0
  189.2120  175.2150  144.1040 C   0  0  0  0  0  0  0  0  0  0  0  0
  184.5300  178.4490  146.6100 C   0  0  0  0  0  3  0  0  0  0  0  0
  188.1700  174.6590  139.7480 C   0  0  0  0  0  3  0  0  0  0  0  0
  189.2520  173.0070  140.9460 C   0  0  0  0  0  2  0  0  0  0  0  0
  186.2130  177.3470  147.8860 O   0  0  0  0  0  1  0  0  0  0  0  0
  186.2960  177.3010  142.9950 C   0  0  0  0  0  0  0  0  0  0  0  0
  183.9520  178.8250  145.4010 C   0  0  0  0  0  3  0  0  0  0  0  0
  186.3190  177.2700  145.4230 C   0  0  0  0  0  0  0  0  0  0  0  0
  187.4540  176.5530  142.9450 C   0  0  0  0  0  0  0  0  0  0  0  0
  186.7140  177.2910  139.5750 O   0  0  0  0  0  0  0  0  0  0  0  0
  187.9100  176.4340  141.5190 C   0  0  1  0  0  3  0  0  0  0  0  0
  188.8270  173.5240  139.6140 C   0  0  0  0  0  3  0  0  0  0  0  0
  190.7560  175.5320  142.1320 C   0  0  0  0  0  1  0  0  0  0  0  0
  184.5400  178.4370  144.2020 C   0  0  0  0  0  3  0  0  0  0  0  0
  185.7090  177.6680  144.2010 C   0  0  0  0  0  0  0  0  0  0  0  0
  189.7660  174.6100  142.8350 C   0  0  2  0  0  3  0  0  0  0  0  0
  189.9090  174.8910  147.7400 O   0  0  0  0  0  0  0  0  0  0  0  0
  191.2290  176.8600  148.0930 C   0  0  0  0  0  1  0  0  0  0  0  0
  191.2010  175.3470  148.1200 C   0  0  0  0  0  2  0  0  0  0  0  0
  1 19  1  0  0  0  0
  1  5  1  0  0  0  0
  2 16  1  0  0  0  0
  3 17  1  0  0  0  0
  4  1  2  0  0  0  0
  7 15  1  6  0  0  0
  7 27  1  0  0  0  0
  8  6  1  0  0  0  0
  8 11  1  0  0  0  0
  9 22  1  0  0  0  0
  9  7  1  0  0  0  0
 10  3  1  0  0  0  0
 11  5  2  0  0  0  0
 11 28  1  0  0  0  0
 12  4  1  0  0  0  0
 12  8  2  0  0  0  0
 13  2  1  0  0  0  0
 14  9  1  0  0  0  0
 17 26  1  0  0  0  0
 18 13  2  0  0  0  0
 19  2  2  0  0  0  0
 20 17  2  0  0  0  0
 20  4  1  0  0  0  0
 21 10  2  0  0  0  0
 22 10  1  6  0  0  0
 22 20  1  0  0  0  0
 23 14  2  0  0  0  0
 23 15  1  0  0  0  0
 25 18  1  0  0  0  0
 26 25  2  0  0  0  0
 26 19  1  0  0  0  0
 27 24  1  6  0  0  0
 27 12  1  0  0  0  0
 28 30  1  0  0  0  0
 29 30  1  0  0  0  0
M  END
>  <MODEL>
1

>  <REMARK>
 VINA RESULT:      -9.6      0.000      0.000
  Name = 
  2 active torsions:
  status: ('A' for Active; 'I' for Inactive)
    1  A    between atoms: C_11  and  O_28
    2  A    between atoms: O_28  and  C_30
                            x       y       z     vdW  Elec       q    Type
                         _______ _______ _______ _____ _____    ______ ____

>  <TORSDO>
F 2

$$$$
=
 OpenBabel11112416173D

 30 35  0  0  1  0  0  0  0  0999 V2000
  188.3970  177.3120  145.9410 C   0  0  0  0  0  0  0  0  0  0  0  0
  186.3280  178.3000  146.9820 C   0  0  0  0  0  0  0  0  0  0  0  0
  186.4160  176.9450  142.2430 N   0  0  0  0  0  2  0  0  0  0  0  0
  189.0430  176.7460  144.7980 C   0  0  0  0  0  0  0  0  0  0  0  0
  189.1260  177.4310  147.1290 C   0  0  0  0  0  3  0  0  0  0  0  0
  192.4710  175.8950  146.2910 C   0  0  0  0  0  1  0  0  0  0  0  0
  190.1750  174.3870  143.1980 C   0  0  1  0  0  3  0  0  0  0  0  0
  191.0670  176.3920  146.1400 C   0  0  0  0  0  0  0  0  0  0  0  0
  189.2680  174.9230  142.1900 N   0  0  0  0  0  0  0  0  0  0  0  0
  187.4900  176.4520  141.4550 C   0  0  0  0  0  0  0  0  0  0  0  0
  190.4470  176.9950  147.2380 C   0  0  0  0  0  0  0  0  0  0  0  0
  190.3730  176.2400  144.9190 C   0  0  0  0  0  0  0  0  0  0  0  0
  184.9930  178.6910  146.8460 C   0  0  0  0  0  3  0  0  0  0  0  0
  189.5010  174.2330  140.9720 C   0  0  0  0  0  3  0  0  0  0  0  0
  191.0050  173.3290  142.4750 C   0  0  0  0  0  2  0  0  0  0  0  0
  186.9220  178.4750  148.2270 O   0  0  0  0  0  1  0  0  0  0  0  0
  186.9880  177.0850  143.5370 C   0  0  0  0  0  0  0  0  0  0  0  0
  184.3270  178.5470  145.6330 C   0  0  0  0  0  3  0  0  0  0  0  0
  187.0320  177.7430  145.8740 C   0  0  0  0  0  0  0  0  0  0  0  0
  188.3080  176.6870  143.5940 C   0  0  0  0  0  0  0  0  0  0  0  0
  187.3740  176.2300  140.2220 O   0  0  0  0  0  0  0  0  0  0  0  0
  188.7710  176.2980  142.2190 C   0  0  1  0  0  3  0  0  0  0  0  0
  190.4460  173.3220  141.0920 C   0  0  0  0  0  3  0  0  0  0  0  0
  191.7590  176.3880  142.8140 C   0  0  0  0  0  1  0  0  0  0  0  0
  184.9930  178.0080  144.5360 C   0  0  0  0  0  3  0  0  0  0  0  0
  186.3290  177.6070  144.6450 C   0  0  0  0  0  0  0  0  0  0  0  0
  191.0660  175.4730  143.8170 C   0  0  2  0  0  3  0  0  0  0  0  0
  191.1530  177.1420  148.4390 O   0  0  0  0  0  0  0  0  0  0  0  0
  191.6160  178.0060  150.6260 C   0  0  0  0  0  1  0  0  0  0  0  0
  191.0610  178.3060  149.2500 C   0  0  0  0  0  2  0  0  0  0  0  0
  1  5  1  0  0  0  0
  2 16  1  0  0  0  0
  3 17  1  0  0  0  0
  4 12  1  0  0  0  0
  4  1  2  0  0  0  0
  5 11  2  0  0  0  0
  7 15  1  6  0  0  0
  7 27  1  0  0  0  0
  8  6  1  0  0  0  0
  8 11  1  0  0  0  0
  9 22  1  0  0  0  0
  9  7  1  0  0  0  0
 10  3  1  0  0  0  0
 11 28  1  0  0  0  0
 12  8  2  0  0  0  0
 13  2  1  0  0  0  0
 14 23  2  0  0  0  0
 14  9  1  0  0  0  0
 17 20  2  0  0  0  0
 17 26  1  0  0  0  0
 18 13  2  0  0  0  0
 19  1  1  0  0  0  0
 19  2  2  0  0  0  0
 20  4  1  0  0  0  0
 21 10  2  0  0  0  0
 22 10  1  6  0  0  0
 22 20  1  0  0  0  0
 23 15  1  0  0  0  0
 25 26  2  0  0  0  0
 25 18  1  0  0  0  0
 26 19  1  0  0  0  0
 27 24  1  6  0  0  0
 27 12  1  0  0  0  0
 28 30  1  0  0  0  0
 30 29  1  0  0  0  0
M  END
>  <MODEL>
2

>  <REMARK>
 VINA RESULT:      -9.0      1.466      1.736
  Name = 
  2 active torsions:
  status: ('A' for Active; 'I' for Inactive)
    1  A    between atoms: C_11  and  O_28
    2  A    between atoms: O_28  and  C_30
                            x       y       z     vdW  Elec       q    Type
                         _______ _______ _______ _____ _____    ______ ____

>  <TORSDO>
F 2

$$$$
=
 OpenBabel11112416173D

 30 35  0  0  1  0  0  0  0  0999 V2000
  188.4300  176.0310  143.6160 C   0  0  0  0  0  0  0  0  0  0  0  0
  186.1510  177.0780  143.8460 C   0  0  0  0  0  0  0  0  0  0  0  0
  189.4840  177.3720  147.4660 N   0  0  0  0  0  2  0  0  0  0  0  0
  189.7250  175.7820  144.1680 C   0  0  0  0  0  0  0  0  0  0  0  0
  188.1390  175.5300  142.3430 C   0  0  0  0  0  3  0  0  0  0  0  0
  191.3630  173.8890  141.2620 C   0  0  0  0  0  1  0  0  0  0  0  0
  192.7480  176.2670  144.3500 C   0  0  1  0  0  3  0  0  0  0  0  0
  190.3600  174.6180  142.1030 C   0  0  0  0  0  0  0  0  0  0  0  0
  192.4010  176.5020  145.7470 N   0  0  0  0  0  0  0  0  0  0  0  0
  190.7750  176.7890  147.5670 C   0  0  0  0  0  0  0  0  0  0  0  0
  189.0750  174.8200  141.5910 C   0  0  0  0  0  0  0  0  0  0  0  0
  190.7090  175.1110  143.3790 C   0  0  0  0  0  0  0  0  0  0  0  0
  185.2520  177.8240  144.6110 C   0  0  0  0  0  3  0  0  0  0  0  0
  193.6060  176.6380  146.4860 C   0  0  0  0  0  3  0  0  0  0  0  0
  194.2740  176.2390  144.3110 C   0  0  0  0  0  2  0  0  0  0  0  0
  185.7230  176.6480  142.5940 O   0  0  0  0  0  1  0  0  0  0  0  0
  189.0430  176.9870  146.1710 C   0  0  0  0  0  0  0  0  0  0  0  0
  185.6060  178.2920  145.8740 C   0  0  0  0  0  3  0  0  0  0  0  0
  187.4530  176.7830  144.3470 C   0  0  0  0  0  0  0  0  0  0  0  0
  189.9790  176.2480  145.4760 C   0  0  0  0  0  0  0  0  0  0  0  0
  191.4790  176.8880  148.6060 O   0  0  0  0  0  0  0  0  0  0  0  0
  191.1700  175.9980  146.3560 C   0  0  1  0  0  3  0  0  0  0  0  0
  194.6720  176.5190  145.7210 C   0  0  0  0  0  3  0  0  0  0  0  0
  192.3670  173.7380  144.6990 C   0  0  0  0  0  1  0  0  0  0  0  0
  186.8690  178.0150  146.3860 C   0  0  0  0  0  3  0  0  0  0  0  0
  187.7900  177.2710  145.6400 C   0  0  0  0  0  0  0  0  0  0  0  0
  192.1480  174.9600  143.8130 C   0  0  2  0  0  3  0  0  0  0  0  0
  188.7460  174.3190  140.3250 O   0  0  0  0  0  0  0  0  0  0  0  0
  188.6160  172.5100  138.7580 C   0  0  0  0  0  1  0  0  0  0  0  0
  188.2120  173.0170  140.1260 C   0  0  0  0  0  2  0  0  0  0  0  0
  1  4  1  0  0  0  0
  1 19  1  0  0  0  0
  2 19  2  0  0  0  0
  2 13  1  0  0  0  0
  3 10  1  0  0  0  0
  4 20  1  0  0  0  0
  5  1  2  0  0  0  0
  6  8  1  0  0  0  0
  7 15  1  1  0  0  0
  7  9  1  0  0  0  0
  8 12  1  0  0  0  0
  9 22  1  0  0  0  0
  9 14  1  0  0  0  0
 10 21  2  0  0  0  0
 11  8  2  0  0  0  0
 11  5  1  0  0  0  0
 12 27  1  0  0  0  0
 12  4  2  0  0  0  0
 13 18  2  0  0  0  0
 15 23  1  0  0  0  0
 16  2  1  0  0  0  0
 17  3  1  0  0  0  0
 18 25  1  0  0  0  0
 19 26  1  0  0  0  0
 20 17  2  0  0  0  0
 22 20  1  6  0  0  0
 22 10  1  0  0  0  0
 23 14  2  0  0  0  0
 26 17  1  0  0  0  0
 26 25  2  0  0  0  0
 27  7  1  0  0  0  0
 27 24  1  1  0  0  0
 28 11  1  0  0  0  0
 29 30  1  0  0  0  0
 30 28  1  0  0  0  0
M  END
>  <MODEL>
3

>  <REMARK>
 VINA RESULT:      -8.6      2.614      5.674
  Name = 
  2 active torsions:
  status: ('A' for Active; 'I' for Inactive)
    1  A    between atoms: C_11  and  O_28
    2  A    between atoms: O_28  and  C_30
                            x       y       z     vdW  Elec       q    Type
                         _______ _______ _______ _____ _____    ______ ____

>  <TORSDO>
F 2

$$$$
=
 OpenBabel11112416173D

 30 35  0  0  1  0  0  0  0  0999 V2000
  187.4950  176.4930  142.5630 C   0  0  0  0  0  0  0  0  0  0  0  0
  185.8740  178.3880  142.9160 C   0  0  0  0  0  0  0  0  0  0  0  0
  188.4990  176.5310  146.6520 N   0  0  0  0  0  2  0  0  0  0  0  0
  188.4730  175.6020  143.1020 C   0  0  0  0  0  0  0  0  0  0  0  0
  187.1900  176.4040  141.2010 C   0  0  0  0  0  3  0  0  0  0  0  0
  189.5150  173.7150  139.9300 C   0  0  0  0  0  1  0  0  0  0  0  0
  191.3600  174.6490  143.5120 C   0  0  1  0  0  3  0  0  0  0  0  0
  188.8190  174.6560  140.8650 C   0  0  0  0  0  0  0  0  0  0  0  0
  190.9650  174.7670  144.9110 N   0  0  0  0  0  0  0  0  0  0  0  0
  189.3920  175.4270  146.6800 C   0  0  0  0  0  0  0  0  0  0  0  0
  187.8230  175.4940  140.3540 C   0  0  0  0  0  0  0  0  0  0  0  0
  189.1720  174.7110  142.2310 C   0  0  0  0  0  0  0  0  0  0  0  0
  185.2870  179.3100  143.7860 C   0  0  0  0  0  3  0  0  0  0  0  0
  192.0030  174.2210  145.7120 C   0  0  0  0  0  3  0  0  0  0  0  0
  192.7190  173.9520  143.5320 C   0  0  0  0  0  2  0  0  0  0  0  0
  185.4740  178.4190  141.5850 O   0  0  0  0  0  1  0  0  0  0  0  0
  188.1130  176.6150  145.2870 C   0  0  0  0  0  0  0  0  0  0  0  0
  185.6360  179.3440  145.1330 C   0  0  0  0  0  3  0  0  0  0  0  0
  186.8450  177.4610  143.3970 C   0  0  0  0  0  0  0  0  0  0  0  0
  188.7270  175.6700  144.4900 C   0  0  0  0  0  0  0  0  0  0  0  0
  189.9260  175.0190  147.7440 O   0  0  0  0  0  0  0  0  0  0  0  0
  189.5690  174.7670  145.3460 C   0  0  1  0  0  3  0  0  0  0  0  0
  193.0070  173.7760  144.9850 C   0  0  0  0  0  3  0  0  0  0  0  0
  189.8930  172.5370  143.2930 C   0  0  0  0  0  1  0  0  0  0  0  0
  186.5790  178.4480  145.6270 C   0  0  0  0  0  3  0  0  0  0  0  0
  187.1840  177.5150  144.7770 C   0  0  0  0  0  0  0  0  0  0  0  0
  190.3370  173.8620  142.6820 C   0  0  2  0  0  3  0  0  0  0  0  0
  187.4830  175.4210  138.9980 O   0  0  0  0  0  0  0  0  0  0  0  0
  186.5690  176.0630  136.8770 C   0  0  0  0  0  1  0  0  0  0  0  0
  186.7030  176.4140  138.3430 C   0  0  0  0  0  2  0  0  0  0  0  0
  1  4  1  0  0  0  0
  1 19  1  0  0  0  0
  2 19  2  0  0  0  0
  2 13  1  0  0  0  0
  3 10  1  0  0  0  0
  4 20  1  0  0  0  0
  5  1  2  0  0  0  0
  6  8  1  0  0  0  0
  7 15  1  1  0  0  0
  7  9  1  0  0  0  0
  8 12  1  0  0  0  0
  9 22  1  0  0  0  0
  9 14  1  0  0  0  0
 10 21  2  0  0  0  0
 11  8  2  0  0  0  0
 11  5  1  0  0  0  0
 12 27  1  0  0  0  0
 12  4  2  0  0  0  0
 13 18  2  0  0  0  0
 15 23  1  0  0  0  0
 16  2  1  0  0  0  0
 17  3  1  0  0  0  0
 18 25  1  0  0  0  0
 19 26  1  0  0  0  0
 20 17  2  0  0  0  0
 22 20  1  6  0  0  0
 22 10  1  0  0  0  0
 23 14  2  0  0  0  0
 26 17  1  0  0  0  0
 26 25  2  0  0  0  0
 27 24  1  1  0  0  0
 27  7  1  0  0  0  0
 28 11  1  0  0  0  0
 29 30  1  0  0  0  0
 30 28  1  0  0  0  0
M  END
>  <MODEL>
4

>  <REMARK>
 VINA RESULT:      -8.3      2.025      5.537
  Name = 
  2 active torsions:
  status: ('A' for Active; 'I' for Inactive)
    1  A    between atoms: C_11  and  O_28
    2  A    between atoms: O_28  and  C_30
                            x       y       z     vdW  Elec       q    Type
                         _______ _______ _______ _____ _____    ______ ____

>  <TORSDO>
F 2

$$$$
=
 OpenBabel11112416173D

 30 35  0  0  1  0  0  0  0  0999 V2000
  186.9610  177.3010  144.0960 C   0  0  0  0  0  0  0  0  0  0  0  0
  185.5550  178.7340  145.6170 C   0  0  0  0  0  0  0  0  0  0  0  0
  189.5290  176.3480  147.2940 N   0  0  0  0  0  2  0  0  0  0  0  0
  188.1050  176.4640  143.9140 C   0  0  0  0  0  0  0  0  0  0  0  0
  186.1350  177.5510  142.9950 C   0  0  0  0  0  3  0  0  0  0  0  0
  187.8430  175.7390  140.1580 C   0  0  0  0  0  1  0  0  0  0  0  0
  190.9430  175.9110  142.8900 C   0  0  1  0  0  3  0  0  0  0  0  0
  187.5500  176.2540  141.5340 C   0  0  0  0  0  0  0  0  0  0  0  0
  191.1430  175.5660  144.2930 N   0  0  0  0  0  0  0  0  0  0  0  0
  190.3960  175.4390  146.6310 C   0  0  0  0  0  0  0  0  0  0  0  0
  186.4050  177.0310  141.7290 C   0  0  0  0  0  0  0  0  0  0  0  0
  188.4230  175.9790  142.6090 C   0  0  0  0  0  0  0  0  0  0  0  0
  185.3370  179.2680  146.8890 C   0  0  0  0  0  3  0  0  0  0  0  0
  192.4340  174.9910  144.4280 C   0  0  0  0  0  3  0  0  0  0  0  0
  192.2180  175.4650  142.1770 C   0  0  0  0  0  2  0  0  0  0  0  0
  184.6510  179.0730  144.6170 O   0  0  0  0  0  1  0  0  0  0  0  0
  188.6220  176.7500  146.2770 C   0  0  0  0  0  0  0  0  0  0  0  0
  186.1990  178.9760  147.9430 C   0  0  0  0  0  3  0  0  0  0  0  0
  186.6700  177.8780  145.3750 C   0  0  0  0  0  0  0  0  0  0  0  0
  188.8950  176.1790  145.0500 C   0  0  0  0  0  0  0  0  0  0  0  0
  191.3280  174.8400  147.2270 O   0  0  0  0  0  0  0  0  0  0  0  0
  190.0410  175.2190  145.1910 C   0  0  1  0  0  3  0  0  0  0  0  0
  193.0740  174.9350  143.2780 C   0  0  0  0  0  3  0  0  0  0  0  0
  189.5880  173.7390  142.5650 C   0  0  0  0  0  1  0  0  0  0  0  0
  187.2930  178.1420  147.7340 C   0  0  0  0  0  3  0  0  0  0  0  0
  187.5350  177.5950  146.4680 C   0  0  0  0  0  0  0  0  0  0  0  0
  189.7000  175.2350  142.2950 C   0  0  2  0  0  3  0  0  0  0  0  0
  185.5480  177.2880  140.6510 O   0  0  0  0  0  0  0  0  0  0  0  0
  183.3350  178.2030  140.5630 C   0  0  0  0  0  1  0  0  0  0  0  0
  184.8180  178.5010  140.5190 C   0  0  0  0  0  2  0  0  0  0  0  0
  1 19  1  0  0  0  0
  2 13  1  0  0  0  0
  4  1  1  0  0  0  0
  4 20  1  0  0  0  0
  5  1  2  0  0  0  0
  6  8  1  0  0  0  0
  7 15  1  6  0  0  0
  7  9  1  0  0  0  0
  8 11  2  0  0  0  0
  8 12  1  0  0  0  0
  9 14  1  0  0  0  0
  9 22  1  0  0  0  0
 10 21  2  0  0  0  0
 10  3  1  0  0  0  0
 11  5  1  0  0  0  0
 12  4  2  0  0  0  0
 13 18  2  0  0  0  0
 15 23  1  0  0  0  0
 16  2  1  0  0  0  0
 17 26  1  0  0  0  0
 17  3  1  0  0  0  0
 19  2  2  0  0  0  0
 19 26  1  0  0  0  0
 20 17  2  0  0  0  0
 22 20  1  6  0  0  0
 22 10  1  0  0  0  0
 23 14  2  0  0  0  0
 25 18  1  0  0  0  0
 26 25  2  0  0  0  0
 27 24  1  1  0  0  0
 27 12  1  0  0  0  0
 27  7  1  0  0  0  0
 28 11  1  0  0  0  0
 30 29  1  0  0  0  0
 30 28  1  0  0  0  0
M  END
>  <MODEL>
5

>  <REMARK>
 VINA RESULT:      -8.3      2.170      5.279
  Name = 
  2 active torsions:
  status: ('A' for Active; 'I' for Inactive)
    1  A    between atoms: C_11  and  O_28
    2  A    between atoms: O_28  and  C_30
                            x       y       z     vdW  Elec       q    Type
                         _______ _______ _______ _____ _____    ______ ____

>  <TORSDO>
F 2

$$$$
=
 OpenBabel11112416173D

 30 35  0  0  1  0  0  0  0  0999 V2000
  188.0590  175.8930  141.7180 C   0  0  0  0  0  0  0  0  0  0  0  0
  189.6980  174.0540  141.1930 C   0  0  0  0  0  0  0  0  0  0  0  0
  189.4090  176.0190  145.7040 N   0  0  0  0  0  2  0  0  0  0  0  0
  187.4850  176.7850  142.6750 C   0  0  0  0  0  0  0  0  0  0  0  0
  187.5820  175.9260  140.4030 C   0  0  0  0  0  3  0  0  0  0  0  0
  184.8230  178.5000  140.5130 C   0  0  0  0  0  1  0  0  0  0  0  0
  185.2310  177.6890  144.5480 C   0  0  1  0  0  3  0  0  0  0  0  0
  185.9520  177.6200  140.9510 C   0  0  0  0  0  0  0  0  0  0  0  0
  186.3200  177.6450  145.5180 N   0  0  0  0  0  0  0  0  0  0  0  0
  188.6240  177.1020  146.1790 C   0  0  0  0  0  0  0  0  0  0  0  0
  186.5540  176.7820  140.0070 C   0  0  0  0  0  0  0  0  0  0  0  0
  186.3900  177.6190  142.2930 C   0  0  0  0  0  0  0  0  0  0  0  0
  190.7000  173.1850  141.6340 C   0  0  0  0  0  3  0  0  0  0  0  0
  185.8520  178.2030  146.7360 C   0  0  0  0  0  3  0  0  0  0  0  0
  184.0660  178.3550  145.2770 C   0  0  0  0  0  2  0  0  0  0  0  0
  189.3220  173.9710  139.8570 O   0  0  0  0  0  1  0  0  0  0  0  0
  189.0060  175.8810  144.3490 C   0  0  0  0  0  0  0  0  0  0  0  0
  191.1300  173.2060  142.9580 C   0  0  0  0  0  3  0  0  0  0  0  0
  189.0970  174.9790  142.0960 C   0  0  0  0  0  0  0  0  0  0  0  0
  188.0200  176.7750  143.9820 C   0  0  0  0  0  0  0  0  0  0  0  0
  188.7270  177.5460  147.3520 O   0  0  0  0  0  0  0  0  0  0  0  0
  187.7300  177.6970  145.1320 C   0  0  1  0  0  3  0  0  0  0  0  0
  184.5950  178.5920  146.6520 C   0  0  0  0  0  3  0  0  0  0  0  0
  186.2570  179.8220  143.5190 C   0  0  0  0  0  1  0  0  0  0  0  0
  190.5610  174.1010  143.8580 C   0  0  0  0  0  3  0  0  0  0  0  0
  189.5550  174.9800  143.4430 C   0  0  0  0  0  0  0  0  0  0  0  0
  185.6130  178.4610  143.2780 C   0  0  2  0  0  3  0  0  0  0  0  0
  186.1090  176.8010  138.6790 O   0  0  0  0  0  0  0  0  0  0  0  0
  185.8390  176.0410  136.4220 C   0  0  0  0  0  1  0  0  0  0  0  0
  186.7260  176.0410  137.6480 C   0  0  0  0  0  2  0  0  0  0  0  0
  1 19  2  0  0  0  0
  1  4  1  0  0  0  0
  2 13  2  0  0  0  0
  2 19  1  0  0  0  0
  3 10  1  0  0  0  0
  4 20  2  0  0  0  0
  5  1  1  0  0  0  0
  6  8  1  0  0  0  0
  7 15  1  1  0  0  0
  7  9  1  0  0  0  0
  8 12  2  0  0  0  0
  9 14  1  0  0  0  0
 10 21  2  0  0  0  0
 11  5  2  0  0  0  0
 11  8  1  0  0  0  0
 12  4  1  0  0  0  0
 12 27  1  0  0  0  0
 13 18  1  0  0  0  0
 15 23  1  0  0  0  0
 16  2  1  0  0  0  0
 17  3  1  0  0  0  0
 18 25  2  0  0  0  0
 19 26  1  0  0  0  0
 20 17  1  0  0  0  0
 22 20  1  6  0  0  0
 22  9  1  0  0  0  0
 22 10  1  0  0  0  0
 23 14  2  0  0  0  0
 26 25  1  0  0  0  0
 26 17  2  0  0  0  0
 27 24  1  1  0  0  0
 27  7  1  0  0  0  0
 28 11  1  0  0  0  0
 29 30  1  0  0  0  0
 30 28  1  0  0  0  0
M  END
>  <MODEL>
6

>  <REMARK>
 VINA RESULT:      -8.2      2.042      7.291
  Name = 
  2 active torsions:
  status: ('A' for Active; 'I' for Inactive)
    1  A    between atoms: C_11  and  O_28
    2  A    between atoms: O_28  and  C_30
                            x       y       z     vdW  Elec       q    Type
                         _______ _______ _______ _____ _____    ______ ____

>  <TORSDO>
F 2

$$$$
=
 OpenBabel11112416173D

 30 35  0  0  1  0  0  0  0  0999 V2000
  188.0520  175.8000  141.0000 C   0  0  0  0  0  0  0  0  0  0  0  0
  188.0170  174.5560  138.8110 C   0  0  0  0  0  0  0  0  0  0  0  0
  190.9880  173.1770  142.4940 N   0  0  0  0  0  2  0  0  0  0  0  0
  188.5630  175.9260  142.3290 C   0  0  0  0  0  0  0  0  0  0  0  0
  187.1000  176.7250  140.5600 C   0  0  0  0  0  3  0  0  0  0  0  0
  186.5170  178.9210  143.5760 C   0  0  0  0  0  1  0  0  0  0  0  0
  188.3260  175.6660  145.3760 C   0  0  1  0  0  3  0  0  0  0  0  0
  187.0760  177.8430  142.6990 C   0  0  0  0  0  0  0  0  0  0  0  0
  189.5410  174.8830  145.1810 N   0  0  0  0  0  0  0  0  0  0  0  0
  191.2160  173.7830  143.7580 C   0  0  0  0  0  0  0  0  0  0  0  0
  186.6190  177.7460  141.3810 C   0  0  0  0  0  0  0  0  0  0  0  0
  188.0310  176.9290  143.1960 C   0  0  0  0  0  0  0  0  0  0  0  0
  188.4930  173.5000  138.0300 C   0  0  0  0  0  3  0  0  0  0  0  0
  190.0810  174.5760  146.4580 C   0  0  0  0  0  3  0  0  0  0  0  0
  188.1910  175.8350  146.8880 C   0  0  0  0  0  2  0  0  0  0  0  0
  187.0660  175.3960  138.2400 O   0  0  0  0  0  1  0  0  0  0  0  0
  189.9800  173.9910  141.9100 C   0  0  0  0  0  0  0  0  0  0  0  0
  189.4440  172.6150  138.5290 C   0  0  0  0  0  3  0  0  0  0  0  0
  188.4990  174.7450  140.1390 C   0  0  0  0  0  0  0  0  0  0  0  0
  189.5640  175.0160  142.7340 C   0  0  0  0  0  0  0  0  0  0  0  0
  192.0810  173.3530  144.5650 O   0  0  0  0  0  0  0  0  0  0  0  0
  190.3850  175.0090  143.9920 C   0  0  1  0  0  3  0  0  0  0  0  0
  189.3480  175.0690  147.4360 C   0  0  0  0  0  3  0  0  0  0  0  0
  189.6590  177.8240  144.9050 C   0  0  0  0  0  1  0  0  0  0  0  0
  189.9330  172.7800  139.8220 C   0  0  0  0  0  3  0  0  0  0  0  0
  189.4720  173.8280  140.6260 C   0  0  0  0  0  0  0  0  0  0  0  0
  188.3850  177.0230  144.6620 C   0  0  2  0  0  3  0  0  0  0  0  0
  185.6760  178.6650  140.9040 O   0  0  0  0  0  0  0  0  0  0  0  0
  183.4550  178.2910  141.7250 C   0  0  0  0  0  1  0  0  0  0  0  0
  184.3620  178.2890  140.5130 C   0  0  0  0  0  2  0  0  0  0  0  0
  1  4  1  0  0  0  0
  2 19  1  0  0  0  0
  3 10  1  0  0  0  0
  4 20  1  0  0  0  0
  4 12  2  0  0  0  0
  5  1  2  0  0  0  0
  5 11  1  0  0  0  0
  7 15  1  1  0  0  0
  8 12  1  0  0  0  0
  8  6  1  0  0  0  0
  9  7  1  0  0  0  0
  9 14  1  0  0  0  0
 10 22  1  0  0  0  0
 10 21  2  0  0  0  0
 11  8  2  0  0  0  0
 12 27  1  0  0  0  0
 13 18  1  0  0  0  0
 13  2  2  0  0  0  0
 14 23  2  0  0  0  0
 15 23  1  0  0  0  0
 16  2  1  0  0  0  0
 17  3  1  0  0  0  0
 17 20  2  0  0  0  0
 18 25  2  0  0  0  0
 19 26  2  0  0  0  0
 19  1  1  0  0  0  0
 22 20  1  6  0  0  0
 22  9  1  0  0  0  0
 25 26  1  0  0  0  0
 26 17  1  0  0  0  0
 27 24  1  6  0  0  0
 27  7  1  0  0  0  0
 28 11  1  0  0  0  0
 30 28  1  0  0  0  0
 30 29  1  0  0  0  0
M  END
>  <MODEL>
7

>  <REMARK>
 VINA RESULT:      -8.2      2.549      6.967
  Name = 
  2 active torsions:
  status: ('A' for Active; 'I' for Inactive)
    1  A    between atoms: C_11  and  O_28
    2  A    between atoms: O_28  and  C_30
                            x       y       z     vdW  Elec       q    Type
                         _______ _______ _______ _____ _____    ______ ____

>  <TORSDO>
F 2

$$$$
=
 OpenBabel11112416173D

 30 35  0  0  1  0  0  0  0  0999 V2000
  188.1570  175.8220  142.1080 C   0  0  0  0  0  0  0  0  0  0  0  0
  186.6250  176.9240  140.4410 C   0  0  0  0  0  0  0  0  0  0  0  0
  186.5470  178.1730  145.2090 N   0  0  0  0  0  2  0  0  0  0  0  0
  188.6340  175.7190  143.4520 C   0  0  0  0  0  0  0  0  0  0  0  0
  188.7170  174.9880  141.1350 C   0  0  0  0  0  3  0  0  0  0  0  0
  191.3660  173.0630  143.0140 C   0  0  0  0  0  1  0  0  0  0  0  0
  190.7270  176.1910  145.6430 C   0  0  1  0  0  3  0  0  0  0  0  0
  190.2440  174.0140  142.7300 C   0  0  0  0  0  0  0  0  0  0  0  0
  189.5800  176.8140  146.2950 N   0  0  0  0  0  0  0  0  0  0  0  0
  187.2600  177.6240  146.3080 C   0  0  0  0  0  0  0  0  0  0  0  0
  189.7360  174.0820  141.4290 C   0  0  0  0  0  0  0  0  0  0  0  0
  189.7200  174.8400  143.7480 C   0  0  0  0  0  0  0  0  0  0  0  0
  185.6300  177.8680  140.1770 C   0  0  0  0  0  3  0  0  0  0  0  0
  189.9470  177.1340  147.6280 C   0  0  0  0  0  3  0  0  0  0  0  0
  191.8160  176.1320  146.7120 C   0  0  0  0  0  2  0  0  0  0  0  0
  187.0890  176.1670  139.3710 O   0  0  0  0  0  1  0  0  0  0  0  0
  187.0430  177.4470  144.0920 C   0  0  0  0  0  0  0  0  0  0  0  0
  185.1140  178.6660  141.1940 C   0  0  0  0  0  3  0  0  0  0  0  0
  187.1320  176.7630  141.7640 C   0  0  0  0  0  0  0  0  0  0  0  0
  188.0170  176.5300  144.4300 C   0  0  0  0  0  0  0  0  0  0  0  0
  187.0640  177.9990  147.4930 O   0  0  0  0  0  0  0  0  0  0  0  0
  188.1970  176.5190  145.9210 C   0  0  1  0  0  3  0  0  0  0  0  0
  191.1910  176.7900  147.8950 C   0  0  0  0  0  3  0  0  0  0  0  0
  189.6920  173.8680  146.0780 C   0  0  0  0  0  1  0  0  0  0  0  0
  185.5900  178.5260  142.4940 C   0  0  0  0  0  3  0  0  0  0  0  0
  186.5880  177.5890  142.7860 C   0  0  0  0  0  0  0  0  0  0  0  0
  190.4000  174.7950  145.0970 C   0  0  2  0  0  3  0  0  0  0  0  0
  190.2650  173.2510  140.4330 O   0  0  0  0  0  0  0  0  0  0  0  0
  189.0570  172.2930  138.5970 C   0  0  0  0  0  1  0  0  0  0  0  0
  189.9670  173.4150  139.0530 C   0  0  0  0  0  2  0  0  0  0  0  0
  1  4  1  0  0  0  0
  2 19  1  0  0  0  0
  3 10  1  0  0  0  0
  4 12  1  0  0  0  0
  4 20  2  0  0  0  0
  5 11  2  0  0  0  0
  5  1  1  0  0  0  0
  7  9  1  0  0  0  0
  7 15  1  1  0  0  0
  8  6  1  0  0  0  0
  8 12  2  0  0  0  0
  9 14  1  0  0  0  0
 10 21  2  0  0  0  0
 11  8  1  0  0  0  0
 12 27  1  0  0  0  0
 13  2  2  0  0  0  0
 13 18  1  0  0  0  0
 14 23  2  0  0  0  0
 15 23  1  0  0  0  0
 16  2  1  0  0  0  0
 17 20  1  0  0  0  0
 17  3  1  0  0  0  0
 18 25  2  0  0  0  0
 19  1  2  0  0  0  0
 19 26  1  0  0  0  0
 22 20  1  6  0  0  0
 22  9  1  0  0  0  0
 22 10  1  0  0  0  0
 25 26  1  0  0  0  0
 26 17  2  0  0  0  0
 27  7  1  0  0  0  0
 27 24  1  1  0  0  0
 28 11  1  0  0  0  0
 29 30  1  0  0  0  0
 30 28  1  0  0  0  0
M  END
>  <MODEL>
8

>  <REMARK>
 VINA RESULT:      -8.1      1.982      5.654
  Name = 
  2 active torsions:
  status: ('A' for Active; 'I' for Inactive)
    1  A    between atoms: C_11  and  O_28
    2  A    between atoms: O_28  and  C_30
                            x       y       z     vdW  Elec       q    Type
                         _______ _______ _______ _____ _____    ______ ____

>  <TORSDO>
F 2

$$$$
=
 OpenBabel11112416173D

 30 35  0  0  1  0  0  0  0  0999 V2000
  188.8210  175.5540  143.4080 C   0  0  0  0  0  0  0  0  0  0  0  0
  186.5930  176.5240  144.0700 C   0  0  0  0  0  0  0  0  0  0  0  0
  190.5700  177.0480  146.9360 N   0  0  0  0  0  2  0  0  0  0  0  0
  190.2100  175.3700  143.6930 C   0  0  0  0  0  0  0  0  0  0  0  0
  188.3020  175.0040  142.2320 C   0  0  0  0  0  3  0  0  0  0  0  0
  191.3090  173.4510  140.5590 C   0  0  0  0  0  1  0  0  0  0  0  0
  193.1850  175.9700  143.2500 C   0  0  1  0  0  3  0  0  0  0  0  0
  190.4660  174.1680  141.5690 C   0  0  0  0  0  0  0  0  0  0  0  0
  193.1170  176.2350  144.6830 N   0  0  0  0  0  0  0  0  0  0  0  0
  191.8780  176.5170  146.7870 C   0  0  0  0  0  0  0  0  0  0  0  0
  189.0970  174.3070  141.3220 C   0  0  0  0  0  0  0  0  0  0  0  0
  191.0430  174.7120  142.7370 C   0  0  0  0  0  0  0  0  0  0  0  0
  185.8360  177.2590  144.9850 C   0  0  0  0  0  3  0  0  0  0  0  0
  194.4380  176.4370  145.1600 C   0  0  0  0  0  3  0  0  0  0  0  0
  194.6720  175.9980  142.9040 C   0  0  0  0  0  2  0  0  0  0  0  0
  185.9410  176.0410  142.9410 O   0  0  0  0  0  1  0  0  0  0  0  0
  189.8950  176.6090  145.7650 C   0  0  0  0  0  0  0  0  0  0  0  0
  186.4160  177.7770  146.1400 C   0  0  0  0  0  3  0  0  0  0  0  0
  187.9810  176.2910  144.3050 C   0  0  0  0  0  0  0  0  0  0  0  0
  190.7020  175.8840  144.9120 C   0  0  0  0  0  0  0  0  0  0  0  0
  192.7720  176.6720  147.6600 O   0  0  0  0  0  0  0  0  0  0  0  0
  192.0560  175.7050  145.5390 C   0  0  1  0  0  3  0  0  0  0  0  0
  195.3330  176.3350  144.1980 C   0  0  0  0  0  3  0  0  0  0  0  0
  192.9890  173.4410  143.7240 C   0  0  0  0  0  1  0  0  0  0  0  0
  187.7670  177.5620  146.3930 C   0  0  0  0  0  3  0  0  0  0  0  0
  188.5490  176.8310  145.4920 C   0  0  0  0  0  0  0  0  0  0  0  0
  192.5460  174.6270  142.8740 C   0  0  2  0  0  3  0  0  0  0  0  0
  188.5420  173.7560  140.1600 O   0  0  0  0  0  0  0  0  0  0  0  0
  188.7070  173.8680  137.7720 C   0  0  0  0  0  1  0  0  0  0  0  0
  188.1910  174.5390  139.0270 C   0  0  0  0  0  2  0  0  0  0  0  0
  1  4  1  0  0  0  0
  1 19  1  0  0  0  0
  2 19  2  0  0  0  0
  2 13  1  0  0  0  0
  4 20  1  0  0  0  0
  5  1  2  0  0  0  0
  6  8  1  0  0  0  0
  7 15  1  1  0  0  0
  7  9  1  0  0  0  0
  8 12  1  0  0  0  0
  9 14  1  0  0  0  0
  9 22  1  0  0  0  0
 10  3  1  0  0  0  0
 10 21  2  0  0  0  0
 11  8  2  0  0  0  0
 11  5  1  0  0  0  0
 12 27  1  0  0  0  0
 12  4  2  0  0  0  0
 13 18  2  0  0  0  0
 15 23  1  0  0  0  0
 16  2  1  0  0  0  0
 17  3  1  0  0  0  0
 18 25  1  0  0  0  0
 19 26  1  0  0  0  0
 20 17  2  0  0  0  0
 22 20  1  6  0  0  0
 22 10  1  0  0  0  0
 23 14  2  0  0  0  0
 26 17  1  0  0  0  0
 26 25  2  0  0  0  0
 27  7  1  0  0  0  0
 27 24  1  1  0  0  0
 28 11  1  0  0  0  0
 29 30  1  0  0  0  0
 30 28  1  0  0  0  0
M  END
>  <MODEL>
9

>  <REMARK>
 VINA RESULT:      -7.8      2.814      5.812
  Name = 
  2 active torsions:
  status: ('A' for Active; 'I' for Inactive)
    1  A    between atoms: C_11  and  O_28
    2  A    between atoms: O_28  and  C_30
                            x       y       z     vdW  Elec       q    Type
                         _______ _______ _______ _____ _____    ______ ____

>  <TORSDO>
F 2

$$$$
