=
 OpenBabel11112418003D

 34 40  0  0  0  0  0  0  0  0999 V2000
  187.0580  177.7290  145.3380 C   0  0  0  0  0  0  0  0  0  0  0  0
  184.5760  178.3910  145.1790 C   0  0  0  0  0  3  0  0  0  0  0  0
  190.9950  173.9380  144.3210 O   0  0  0  0  0  0  0  0  0  0  0  0
  189.4850  177.1170  145.3910 C   0  0  0  0  0  0  0  0  0  0  0  0
  190.5540  176.6450  143.2880 N   0  0  0  0  0  0  0  0  0  0  0  0
  191.3660  174.6790  142.0620 C   0  0  0  0  0  2  0  0  0  0  0  0
  191.7000  173.6550  143.1430 C   0  0  0  0  0  2  0  0  0  0  0  0
  192.7340  175.3990  145.1840 C   0  0  0  0  0  2  0  0  0  0  0  0
  185.8640  177.9120  143.2320 C   0  0  0  0  0  0  0  0  0  0  0  0
  184.6950  178.0320  140.3560 C   0  0  0  0  0  3  0  0  0  0  0  0
  189.3390  176.9370  142.5810 C   0  0  0  0  0  3  0  0  0  0  0  0
  191.9050  176.6420  145.4960 C   0  0  0  0  0  2  0  0  0  0  0  0
  187.0100  177.5620  142.4930 C   0  0  0  0  0  0  0  0  0  0  0  0
  183.7320  178.5400  144.0020 N   0  0  0  0  0  0  0  0  0  0  0  0
  190.6070  176.7760  144.7290 C   0  0  0  0  0  0  0  0  0  0  0  0
  191.9600  174.0840  145.3290 C   0  0  0  0  0  2  0  0  0  0  0  0
  183.9650  178.3150  141.6040 C   0  0  0  0  0  0  0  0  0  0  0  0
  188.2310  177.3870  144.6340 C   0  0  0  0  0  0  0  0  0  0  0  0
  191.6660  176.1120  142.5070 C   0  0  0  0  0  2  0  0  0  0  0  0
  188.2100  177.2930  143.2190 C   0  0  0  0  0  0  0  0  0  0  0  0
  188.1240  176.9980  147.4780 C   0  0  0  0  0  2  0  0  0  0  0  0
  185.9610  177.6810  140.1700 C   0  0  0  0  0  3  0  0  0  0  0  0
  189.4930  177.3120  146.8870 C   0  0  0  0  0  2  0  0  0  0  0  0
  187.0240  177.4670  141.1560 C   0  0  0  0  0  3  0  0  0  0  0  0
  184.5000  178.2540  142.8320 C   0  0  0  0  0  0  0  0  0  0  0  0
  187.0670  177.8870  146.8340 C   0  0  0  0  0  2  0  0  0  0  0  0
  185.8980  177.9940  144.6120 C   0  0  0  0  0  0  0  0  0  0  0  0
  182.5400  178.6910  141.4910 C   0  0  0  0  0  3  0  0  0  0  0  0
  181.7630  178.3180  140.4750 C   0  0  0  0  0  3  0  0  0  0  0  0
  178.0520  178.6500  140.0790 C   0  0  0  0  0  2  0  0  0  0  0  0
  179.9770  180.0810  140.5080 C   0  0  0  0  0  2  0  0  0  0  0  0
  180.3890  178.7010  140.4000 N   0  0  0  0  0  0  0  0  0  0  0  0
  178.4600  180.0540  140.5060 C   0  0  0  0  0  2  0  0  0  0  0  0
  179.2860  177.7810  140.2150 C   0  0  0  0  0  2  0  0  0  0  0  0
  1 26  1  0  0  0  0
  3 16  1  0  0  0  0
  4 23  1  0  0  0  0
  5 15  1  0  0  0  0
  6 19  1  0  0  0  0
  6  7  1  0  0  0  0
  7  3  1  0  0  0  0
  8 16  1  0  0  0  0
  8 12  1  0  0  0  0
  9 27  2  0  0  0  0
 10 17  1  0  0  0  0
 11 20  2  0  0  0  0
 11  5  1  0  0  0  0
 13 20  1  0  0  0  0
 13  9  1  0  0  0  0
 14  2  2  0  0  0  0
 15  4  2  0  0  0  0
 15 12  1  0  0  0  0
 17 25  2  0  0  0  0
 18  1  2  0  0  0  0
 18  4  1  0  0  0  0
 19  5  1  0  0  0  0
 20 18  1  0  0  0  0
 22 10  2  0  0  0  0
 22 24  1  0  0  0  0
 23 21  1  0  0  0  0
 24 13  2  0  0  0  0
 25  9  1  0  0  0  0
 25 14  1  0  0  0  0
 26 21  1  0  0  0  0
 27  2  1  0  0  0  0
 27  1  1  0  0  0  0
 28 17  1  0  0  0  0
 29 28  2  0  0  0  0
 30 34  1  0  0  0  0
 30 33  1  0  0  0  0
 32 29  1  0  0  0  0
 32 31  1  0  0  0  0
 33 31  1  0  0  0  0
 34 32  1  0  0  0  0
M  END
>  <MODEL>
1

>  <REMARK>
 VINA RESULT:      -9.6      0.000      0.000
  Name = 
  2 active torsions:
  status: ('A' for Active; 'I' for Inactive)
    1  A    between atoms: C_17  and  C_28
    2  A    between atoms: C_29  and  N_32
                            x       y       z     vdW  Elec       q    Type
                         _______ _______ _______ _____ _____    ______ ____

>  <TORSDO>
F 2

$$$$
=
 OpenBabel11112418003D

 34 40  0  0  0  0  0  0  0  0999 V2000
  189.2120  177.1680  145.7370 C   0  0  0  0  0  0  0  0  0  0  0  0
  186.7630  177.9430  145.8890 C   0  0  0  0  0  3  0  0  0  0  0  0
  192.8010  173.1260  144.4340 O   0  0  0  0  0  0  0  0  0  0  0  0
  191.5940  176.4390  145.4840 C   0  0  0  0  0  0  0  0  0  0  0  0
  192.3230  175.7820  143.2870 N   0  0  0  0  0  0  0  0  0  0  0  0
  192.8670  173.7040  142.0990 C   0  0  0  0  0  2  0  0  0  0  0  0
  193.3140  172.7350  143.1890 C   0  0  0  0  0  2  0  0  0  0  0  0
  194.7050  174.5500  144.9350 C   0  0  0  0  0  2  0  0  0  0  0  0
  187.7310  177.2770  143.8160 C   0  0  0  0  0  0  0  0  0  0  0  0
  186.1590  177.2730  141.1360 C   0  0  0  0  0  3  0  0  0  0  0  0
  191.0310  176.0890  142.7430 C   0  0  0  0  0  3  0  0  0  0  0  0
  193.9820  175.8500  145.2740 C   0  0  0  0  0  2  0  0  0  0  0  0
  188.7410  176.8240  142.9470 C   0  0  0  0  0  0  0  0  0  0  0  0
  185.7620  178.0590  144.8370 N   0  0  0  0  0  0  0  0  0  0  0  0
  192.5920  176.0010  144.6930 C   0  0  0  0  0  0  0  0  0  0  0  0
  193.9080  173.2880  145.2810 C   0  0  0  0  0  2  0  0  0  0  0  0
  185.6320  177.6710  142.4530 C   0  0  0  0  0  0  0  0  0  0  0  0
  190.2550  176.7240  144.8980 C   0  0  0  0  0  0  0  0  0  0  0  0
  193.2870  175.1450  142.3940 C   0  0  0  0  0  2  0  0  0  0  0  0
  190.0230  176.5410  143.5100 C   0  0  0  0  0  0  0  0  0  0  0  0
  190.5500  176.5210  147.7480 C   0  0  0  0  0  2  0  0  0  0  0  0
  187.3700  176.8480  140.7950 C   0  0  0  0  0  3  0  0  0  0  0  0
  191.8290  176.7280  146.9460 C   0  0  0  0  0  2  0  0  0  0  0  0
  188.5560  176.6440  141.6310 C   0  0  0  0  0  3  0  0  0  0  0  0
  186.3390  177.6610  143.5930 C   0  0  0  0  0  0  0  0  0  0  0  0
  189.4460  177.4200  147.2010 C   0  0  0  0  0  2  0  0  0  0  0  0
  187.9700  177.4440  145.1680 C   0  0  0  0  0  0  0  0  0  0  0  0
  184.2230  178.1100  142.5190 C   0  0  0  0  0  3  0  0  0  0  0  0
  183.3960  178.0780  141.4740 C   0  0  0  0  0  3  0  0  0  0  0  0
  179.9870  179.3040  142.4330 C   0  0  0  0  0  2  0  0  0  0  0  0
  181.1060  178.3570  140.4850 C   0  0  0  0  0  2  0  0  0  0  0  0
  182.0390  178.5110  141.5770 N   0  0  0  0  0  0  0  0  0  0  0  0
  179.8310  179.0430  140.9400 C   0  0  0  0  0  2  0  0  0  0  0  0
  181.4600  179.1370  142.7490 C   0  0  0  0  0  2  0  0  0  0  0  0
  1 26  1  0  0  0  0
  3 16  1  0  0  0  0
  4 23  1  0  0  0  0
  5 15  1  0  0  0  0
  6 19  1  0  0  0  0
  6  7  1  0  0  0  0
  7  3  1  0  0  0  0
  8 12  1  0  0  0  0
  8 16  1  0  0  0  0
  9 27  2  0  0  0  0
 10 17  1  0  0  0  0
 11  5  1  0  0  0  0
 11 20  2  0  0  0  0
 13 20  1  0  0  0  0
 13  9  1  0  0  0  0
 14  2  2  0  0  0  0
 15 12  1  0  0  0  0
 15  4  2  0  0  0  0
 17 28  1  0  0  0  0
 17 25  2  0  0  0  0
 18  4  1  0  0  0  0
 18  1  2  0  0  0  0
 19  5  1  0  0  0  0
 20 18  1  0  0  0  0
 22 10  2  0  0  0  0
 22 24  1  0  0  0  0
 23 21  1  0  0  0  0
 24 13  2  0  0  0  0
 25  9  1  0  0  0  0
 25 14  1  0  0  0  0
 26 21  1  0  0  0  0
 27  1  1  0  0  0  0
 27  2  1  0  0  0  0
 29 32  1  0  0  0  0
 29 28  2  0  0  0  0
 30 34  1  0  0  0  0
 31 33  1  0  0  0  0
 31 32  1  0  0  0  0
 32 34  1  0  0  0  0
 33 30  1  0  0  0  0
M  END
>  <MODEL>
2

>  <REMARK>
 VINA RESULT:      -8.6      1.336      2.171
  Name = 
  2 active torsions:
  status: ('A' for Active; 'I' for Inactive)
    1  A    between atoms: C_17  and  C_28
    2  A    between atoms: C_29  and  N_32
                            x       y       z     vdW  Elec       q    Type
                         _______ _______ _______ _____ _____    ______ ____

>  <TORSDO>
F 2

$$$$
=
 OpenBabel11112418003D

 34 40  0  0  0  0  0  0  0  0999 V2000
  194.5530  174.2790  145.0870 C   0  0  0  0  0  0  0  0  0  0  0  0
  193.1180  176.4070  144.9050 C   0  0  0  0  0  3  0  0  0  0  0  0
  195.4650  169.4150  147.6200 O   0  0  0  0  0  0  0  0  0  0  0  0
  195.8780  172.1570  145.2030 C   0  0  0  0  0  0  0  0  0  0  0  0
  194.6880  170.0910  144.8760 N   0  0  0  0  0  0  0  0  0  0  0  0
  193.9030  168.2100  146.2440 C   0  0  0  0  0  2  0  0  0  0  0  0
  194.8570  168.1660  147.4330 C   0  0  0  0  0  2  0  0  0  0  0  0
  197.3160  168.8980  146.1320 C   0  0  0  0  0  2  0  0  0  0  0  0
  192.1790  174.2410  144.5840 C   0  0  0  0  0  0  0  0  0  0  0  0
  189.1770  173.7760  143.9300 C   0  0  0  0  0  3  0  0  0  0  0  0
  193.4640  170.8070  144.6490 C   0  0  0  0  0  3  0  0  0  0  0  0
  197.2560  170.1090  145.2050 C   0  0  0  0  0  2  0  0  0  0  0  0
  192.1690  172.8360  144.4920 C   0  0  0  0  0  0  0  0  0  0  0  0
  191.6980  176.5430  144.6150 N   0  0  0  0  0  0  0  0  0  0  0  0
  195.9180  170.8130  145.1280 C   0  0  0  0  0  0  0  0  0  0  0  0
  196.8490  169.1880  147.5630 C   0  0  0  0  0  2  0  0  0  0  0  0
  189.8300  175.0800  144.1410 C   0  0  0  0  0  0  0  0  0  0  0  0
  194.5890  172.8720  144.9910 C   0  0  0  0  0  0  0  0  0  0  0  0
  194.6030  168.6350  144.9520 C   0  0  0  0  0  2  0  0  0  0  0  0
  193.4020  172.1480  144.7050 C   0  0  0  0  0  0  0  0  0  0  0  0
  196.8210  174.2670  146.1400 C   0  0  0  0  0  2  0  0  0  0  0  0
  189.6880  172.5520  143.9640 C   0  0  0  0  0  3  0  0  0  0  0  0
  197.1350  172.9630  145.4180 C   0  0  0  0  0  2  0  0  0  0  0  0
  191.0660  172.1230  144.2210 C   0  0  0  0  0  3  0  0  0  0  0  0
  191.1310  175.2460  144.4220 C   0  0  0  0  0  0  0  0  0  0  0  0
  195.8070  175.0720  145.3360 C   0  0  0  0  0  2  0  0  0  0  0  0
  193.3420  174.9320  144.8700 C   0  0  0  0  0  0  0  0  0  0  0  0
  188.9880  176.2900  144.0340 C   0  0  0  0  0  3  0  0  0  0  0  0
  187.7490  176.3640  144.5200 C   0  0  0  0  0  3  0  0  0  0  0  0
  185.9000  179.4670  143.5220 C   0  0  0  0  0  2  0  0  0  0  0  0
  186.4210  178.2260  145.5540 C   0  0  0  0  0  2  0  0  0  0  0  0
  186.9640  177.5510  144.3990 N   0  0  0  0  0  0  0  0  0  0  0  0
  185.5630  179.3490  145.0030 C   0  0  0  0  0  2  0  0  0  0  0  0
  186.6330  178.1950  143.1440 C   0  0  0  0  0  2  0  0  0  0  0  0
  1 26  1  0  0  0  0
  4 23  1  0  0  0  0
  5 19  1  0  0  0  0
  5 15  1  0  0  0  0
  6  7  1  0  0  0  0
  7  3  1  0  0  0  0
  8 16  1  0  0  0  0
  9 27  2  0  0  0  0
 10 22  2  0  0  0  0
 10 17  1  0  0  0  0
 11 20  2  0  0  0  0
 11  5  1  0  0  0  0
 12  8  1  0  0  0  0
 13  9  1  0  0  0  0
 13 20  1  0  0  0  0
 14  2  2  0  0  0  0
 15  4  2  0  0  0  0
 15 12  1  0  0  0  0
 16  3  1  0  0  0  0
 17 25  2  0  0  0  0
 18  1  2  0  0  0  0
 18  4  1  0  0  0  0
 19  6  1  0  0  0  0
 20 18  1  0  0  0  0
 22 24  1  0  0  0  0
 23 21  1  0  0  0  0
 24 13  2  0  0  0  0
 25  9  1  0  0  0  0
 25 14  1  0  0  0  0
 26 21  1  0  0  0  0
 27  2  1  0  0  0  0
 27  1  1  0  0  0  0
 28 17  1  0  0  0  0
 28 29  2  0  0  0  0
 30 33  1  0  0  0  0
 32 29  1  0  0  0  0
 32 31  1  0  0  0  0
 33 31  1  0  0  0  0
 34 30  1  0  0  0  0
 34 32  1  0  0  0  0
M  END
>  <MODEL>
3

>  <REMARK>
 VINA RESULT:      -8.3      4.112      7.960
  Name = 
  2 active torsions:
  status: ('A' for Active; 'I' for Inactive)
    1  A    between atoms: C_17  and  C_28
    2  A    between atoms: C_29  and  N_32
                            x       y       z     vdW  Elec       q    Type
                         _______ _______ _______ _____ _____    ______ ____

>  <TORSDO>
F 2

$$$$
=
 OpenBabel11112418003D

 34 40  0  0  0  0  0  0  0  0999 V2000
  187.3710  176.3640  141.1790 C   0  0  0  0  0  0  0  0  0  0  0  0
  188.1880  174.7580  139.3420 C   0  0  0  0  0  3  0  0  0  0  0  0
  184.8360  177.0110  146.0850 O   0  0  0  0  0  0  0  0  0  0  0  0
  186.6660  177.9060  143.0210 C   0  0  0  0  0  0  0  0  0  0  0  0
  187.5890  177.5120  145.2090 N   0  0  0  0  0  0  0  0  0  0  0  0
  186.8350  176.6090  147.3630 C   0  0  0  0  0  2  0  0  0  0  0  0
  185.3300  176.8610  147.3880 C   0  0  0  0  0  2  0  0  0  0  0  0
  185.2260  179.4090  146.0570 C   0  0  0  0  0  2  0  0  0  0  0  0
  188.9840  174.5950  141.5820 C   0  0  0  0  0  0  0  0  0  0  0  0
  191.0480  172.4600  142.4960 C   0  0  0  0  0  3  0  0  0  0  0  0
  188.3740  176.4200  144.7040 C   0  0  0  0  0  3  0  0  0  0  0  0
  186.0310  179.5310  144.7670 C   0  0  0  0  0  2  0  0  0  0  0  0
  189.1020  174.9420  142.9410 C   0  0  0  0  0  0  0  0  0  0  0  0
  189.1400  173.6590  139.4300 N   0  0  0  0  0  0  0  0  0  0  0  0
  186.7440  178.2750  144.3140 C   0  0  0  0  0  0  0  0  0  0  0  0
  184.2070  178.2650  146.0460 C   0  0  0  0  0  2  0  0  0  0  0  0
  190.5120  172.6240  141.1330 C   0  0  0  0  0  0  0  0  0  0  0  0
  187.4710  176.7530  142.5310 C   0  0  0  0  0  0  0  0  0  0  0  0
  187.5990  177.7260  146.6530 C   0  0  0  0  0  2  0  0  0  0  0  0
  188.3230  176.0420  143.4150 C   0  0  0  0  0  0  0  0  0  0  0  0
  185.3350  177.7900  140.9160 C   0  0  0  0  0  2  0  0  0  0  0  0
  190.7960  173.1510  143.6000 C   0  0  0  0  0  3  0  0  0  0  0  0
  185.8380  178.6920  142.0360 C   0  0  0  0  0  2  0  0  0  0  0  0
  189.9010  174.2940  143.8020 C   0  0  0  0  0  3  0  0  0  0  0  0
  189.6200  173.5580  140.7720 C   0  0  0  0  0  0  0  0  0  0  0  0
  186.5160  177.1340  140.2100 C   0  0  0  0  0  2  0  0  0  0  0  0
  188.1430  175.2930  140.7340 C   0  0  0  0  0  0  0  0  0  0  0  0
  190.9910  171.6900  140.0940 C   0  0  0  0  0  3  0  0  0  0  0  0
  190.5940  170.4200  140.0110 C   0  0  0  0  0  3  0  0  0  0  0  0
  192.4940  168.1970  137.6680 C   0  0  0  0  0  2  0  0  0  0  0  0
  190.2790  169.1990  137.8410 C   0  0  0  0  0  2  0  0  0  0  0  0
  191.0810  169.5460  138.9910 N   0  0  0  0  0  0  0  0  0  0  0  0
  191.0910  168.1720  137.0750 C   0  0  0  0  0  2  0  0  0  0  0  0
  192.3900  168.9260  138.9930 C   0  0  0  0  0  2  0  0  0  0  0  0
  1 18  2  0  0  0  0
  2 14  2  0  0  0  0
  2 27  1  0  0  0  0
  3  7  1  0  0  0  0
  4 15  2  0  0  0  0
  5 19  1  0  0  0  0
  6  7  1  0  0  0  0
  9 13  1  0  0  0  0
 10 22  2  0  0  0  0
 11  5  1  0  0  0  0
 12  8  1  0  0  0  0
 13 20  1  0  0  0  0
 13 24  2  0  0  0  0
 14 25  1  0  0  0  0
 15 12  1  0  0  0  0
 15  5  1  0  0  0  0
 16  8  1  0  0  0  0
 16  3  1  0  0  0  0
 17 10  1  0  0  0  0
 18  4  1  0  0  0  0
 18 20  1  0  0  0  0
 19  6  1  0  0  0  0
 20 11  2  0  0  0  0
 21 23  1  0  0  0  0
 22 24  1  0  0  0  0
 23  4  1  0  0  0  0
 25 17  2  0  0  0  0
 25  9  1  0  0  0  0
 26 21  1  0  0  0  0
 26  1  1  0  0  0  0
 27  1  1  0  0  0  0
 27  9  2  0  0  0  0
 28 17  1  0  0  0  0
 29 28  2  0  0  0  0
 30 34  1  0  0  0  0
 31 32  1  0  0  0  0
 32 34  1  0  0  0  0
 32 29  1  0  0  0  0
 33 30  1  0  0  0  0
 33 31  1  0  0  0  0
M  END
>  <MODEL>
4

>  <REMARK>
 VINA RESULT:      -8.2      3.754      8.876
  Name = 
  2 active torsions:
  status: ('A' for Active; 'I' for Inactive)
    1  A    between atoms: C_17  and  C_28
    2  A    between atoms: C_29  and  N_32
                            x       y       z     vdW  Elec       q    Type
                         _______ _______ _______ _____ _____    ______ ____

>  <TORSDO>
F 2

$$$$
=
 OpenBabel11112418003D

 34 40  0  0  0  0  0  0  0  0999 V2000
  189.9630  174.9320  142.1440 C   0  0  0  0  0  0  0  0  0  0  0  0
  187.8320  175.5460  140.8390 C   0  0  0  0  0  3  0  0  0  0  0  0
  194.5260  176.6750  144.8010 O   0  0  0  0  0  0  0  0  0  0  0  0
  191.9830  174.3530  143.5060 C   0  0  0  0  0  0  0  0  0  0  0  0
  192.1230  175.2720  145.7250 N   0  0  0  0  0  0  0  0  0  0  0  0
  193.3820  177.0300  146.8880 C   0  0  0  0  0  2  0  0  0  0  0  0
  194.6860  177.1590  146.1070 C   0  0  0  0  0  2  0  0  0  0  0  0
  195.1310  174.4030  145.4130 C   0  0  0  0  0  2  0  0  0  0  0  0
  188.1870  176.3030  143.0700 C   0  0  0  0  0  0  0  0  0  0  0  0
  186.1500  178.0830  144.5980 C   0  0  0  0  0  3  0  0  0  0  0  0
  190.8410  175.9000  145.5690 C   0  0  0  0  0  3  0  0  0  0  0  0
  193.9340  173.6470  144.8430 C   0  0  0  0  0  2  0  0  0  0  0  0
  188.8640  176.4440  144.2960 C   0  0  0  0  0  0  0  0  0  0  0  0
  186.6930  176.3520  141.2540 N   0  0  0  0  0  0  0  0  0  0  0  0
  192.6700  174.4590  144.6590 C   0  0  0  0  0  0  0  0  0  0  0  0
  195.4930  175.6710  144.6340 C   0  0  0  0  0  2  0  0  0  0  0  0
  186.0010  177.5760  143.2230 C   0  0  0  0  0  0  0  0  0  0  0  0
  190.6680  175.0360  143.3620 C   0  0  0  0  0  0  0  0  0  0  0  0
  192.8740  175.5880  146.9360 C   0  0  0  0  0  2  0  0  0  0  0  0
  190.1310  175.7960  144.4320 C   0  0  0  0  0  0  0  0  0  0  0  0
  192.0090  174.0180  141.0350 C   0  0  0  0  0  2  0  0  0  0  0  0
  187.1350  177.9080  145.4700 C   0  0  0  0  0  3  0  0  0  0  0  0
  192.4830  173.4820  142.3800 C   0  0  0  0  0  2  0  0  0  0  0  0
  188.3830  177.1520  145.3280 C   0  0  0  0  0  3  0  0  0  0  0  0
  186.9020  176.8080  142.5910 C   0  0  0  0  0  0  0  0  0  0  0  0
  190.4870  174.0890  141.0140 C   0  0  0  0  0  2  0  0  0  0  0  0
  188.7270  175.5650  142.0320 C   0  0  0  0  0  0  0  0  0  0  0  0
  184.7720  177.9410  142.4900 C   0  0  0  0  0  3  0  0  0  0  0  0
  183.6430  178.3120  143.0930 C   0  0  0  0  0  3  0  0  0  0  0  0
  180.3130  179.4160  141.7750 C   0  0  0  0  0  2  0  0  0  0  0  0
  182.3160  178.2910  140.9620 C   0  0  0  0  0  2  0  0  0  0  0  0
  182.4730  178.6590  142.3500 N   0  0  0  0  0  0  0  0  0  0  0  0
  181.0210  178.9410  140.5130 C   0  0  0  0  0  2  0  0  0  0  0  0
  181.3470  179.3970  142.8830 C   0  0  0  0  0  2  0  0  0  0  0  0
  1 18  2  0  0  0  0
  2 14  2  0  0  0  0
  2 27  1  0  0  0  0
  3  7  1  0  0  0  0
  4 15  2  0  0  0  0
  5 19  1  0  0  0  0
  6 19  1  0  0  0  0
  7  6  1  0  0  0  0
  9 13  1  0  0  0  0
 10 22  2  0  0  0  0
 11  5  1  0  0  0  0
 12  8  1  0  0  0  0
 13 20  1  0  0  0  0
 13 24  2  0  0  0  0
 14 25  1  0  0  0  0
 15 12  1  0  0  0  0
 15  5  1  0  0  0  0
 16  3  1  0  0  0  0
 16  8  1  0  0  0  0
 17 10  1  0  0  0  0
 18  4  1  0  0  0  0
 18 20  1  0  0  0  0
 20 11  2  0  0  0  0
 21 23  1  0  0  0  0
 23  4  1  0  0  0  0
 24 22  1  0  0  0  0
 25  9  1  0  0  0  0
 25 17  2  0  0  0  0
 26 21  1  0  0  0  0
 26  1  1  0  0  0  0
 27  1  1  0  0  0  0
 27  9  2  0  0  0  0
 28 29  2  0  0  0  0
 28 17  1  0  0  0  0
 30 34  1  0  0  0  0
 31 32  1  0  0  0  0
 32 34  1  0  0  0  0
 32 29  1  0  0  0  0
 33 31  1  0  0  0  0
 33 30  1  0  0  0  0
M  END
>  <MODEL>
5

>  <REMARK>
 VINA RESULT:      -8.1      1.893      4.372
  Name = 
  2 active torsions:
  status: ('A' for Active; 'I' for Inactive)
    1  A    between atoms: C_17  and  C_28
    2  A    between atoms: C_29  and  N_32
                            x       y       z     vdW  Elec       q    Type
                         _______ _______ _______ _____ _____    ______ ____

>  <TORSDO>
F 2

$$$$
=
 OpenBabel11112418003D

 34 40  0  0  0  0  0  0  0  0999 V2000
  188.0870  175.8850  142.6370 C   0  0  0  0  0  0  0  0  0  0  0  0
  186.1230  176.9200  141.3360 C   0  0  0  0  0  3  0  0  0  0  0  0
  192.4580  176.6730  145.9800 O   0  0  0  0  0  0  0  0  0  0  0  0
  189.9370  174.8790  143.9910 C   0  0  0  0  0  0  0  0  0  0  0  0
  189.9120  175.2730  146.3650 N   0  0  0  0  0  0  0  0  0  0  0  0
  191.1420  176.6370  147.9940 C   0  0  0  0  0  2  0  0  0  0  0  0
  192.5190  176.8440  147.3710 C   0  0  0  0  0  2  0  0  0  0  0  0
  192.8890  174.2860  146.1090 C   0  0  0  0  0  2  0  0  0  0  0  0
  186.3020  177.1390  143.7020 C   0  0  0  0  0  0  0  0  0  0  0  0
  184.2210  178.6750  145.4230 C   0  0  0  0  0  3  0  0  0  0  0  0
  188.6830  176.0080  146.2510 C   0  0  0  0  0  3  0  0  0  0  0  0
  191.7150  173.7600  145.2870 C   0  0  0  0  0  2  0  0  0  0  0  0
  186.8660  176.9570  144.9790 C   0  0  0  0  0  0  0  0  0  0  0  0
  184.9910  177.6920  141.8290 N   0  0  0  0  0  0  0  0  0  0  0  0
  190.5160  174.6790  145.1910 C   0  0  0  0  0  0  0  0  0  0  0  0
  193.3850  175.6670  145.6690 C   0  0  0  0  0  2  0  0  0  0  0  0
  184.1780  178.4960  143.9610 C   0  0  0  0  0  0  0  0  0  0  0  0
  188.6770  175.6680  143.8990 C   0  0  0  0  0  0  0  0  0  0  0  0
  190.5600  175.2590  147.6730 C   0  0  0  0  0  2  0  0  0  0  0  0
  188.0800  176.2080  145.0670 C   0  0  0  0  0  0  0  0  0  0  0  0
  190.1810  175.0990  141.5190 C   0  0  0  0  0  2  0  0  0  0  0  0
  185.1090  178.2430  146.3100 C   0  0  0  0  0  3  0  0  0  0  0  0
  190.4970  174.2470  142.7410 C   0  0  0  0  0  2  0  0  0  0  0  0
  186.3250  177.4510  146.1020 C   0  0  0  0  0  3  0  0  0  0  0  0
  185.0940  177.8260  143.2470 C   0  0  0  0  0  0  0  0  0  0  0  0
  188.6720  175.2790  141.3910 C   0  0  0  0  0  2  0  0  0  0  0  0
  186.9000  176.6120  142.5720 C   0  0  0  0  0  0  0  0  0  0  0  0
  183.0430  179.1000  143.2330 C   0  0  0  0  0  3  0  0  0  0  0  0
  182.1190  178.3830  142.5940 C   0  0  0  0  0  3  0  0  0  0  0  0
  179.7850  180.2740  140.3530 C   0  0  0  0  0  2  0  0  0  0  0  0
  179.6910  178.9980  142.4270 C   0  0  0  0  0  2  0  0  0  0  0  0
  181.0350  179.0030  141.8990 N   0  0  0  0  0  0  0  0  0  0  0  0
  178.8300  179.6350  141.3530 C   0  0  0  0  0  2  0  0  0  0  0  0
  181.1540  179.6840  140.6270 C   0  0  0  0  0  2  0  0  0  0  0  0
  1 18  2  0  0  0  0
  2 14  2  0  0  0  0
  2 27  1  0  0  0  0
  3  7  1  0  0  0  0
  4 15  2  0  0  0  0
  5 19  1  0  0  0  0
  7  6  1  0  0  0  0
  9 13  1  0  0  0  0
 10 22  2  0  0  0  0
 11  5  1  0  0  0  0
 12  8  1  0  0  0  0
 13 20  1  0  0  0  0
 13 24  2  0  0  0  0
 14 25  1  0  0  0  0
 15 12  1  0  0  0  0
 15  5  1  0  0  0  0
 16  3  1  0  0  0  0
 16  8  1  0  0  0  0
 17 10  1  0  0  0  0
 18  4  1  0  0  0  0
 18 20  1  0  0  0  0
 19  6  1  0  0  0  0
 20 11  2  0  0  0  0
 21 23  1  0  0  0  0
 23  4  1  0  0  0  0
 24 22  1  0  0  0  0
 25  9  1  0  0  0  0
 25 17  2  0  0  0  0
 26 21  1  0  0  0  0
 26  1  1  0  0  0  0
 27  1  1  0  0  0  0
 27  9  2  0  0  0  0
 28 17  1  0  0  0  0
 29 28  2  0  0  0  0
 30 34  1  0  0  0  0
 30 33  1  0  0  0  0
 32 31  1  0  0  0  0
 32 29  1  0  0  0  0
 33 31  1  0  0  0  0
 34 32  1  0  0  0  0
M  END
>  <MODEL>
6

>  <REMARK>
 VINA RESULT:      -8.0      1.684      3.676
  Name = 
  2 active torsions:
  status: ('A' for Active; 'I' for Inactive)
    1  A    between atoms: C_17  and  C_28
    2  A    between atoms: C_29  and  N_32
                            x       y       z     vdW  Elec       q    Type
                         _______ _______ _______ _____ _____    ______ ____

>  <TORSDO>
F 2

$$$$
=
 OpenBabel11112418003D

 34 40  0  0  0  0  0  0  0  0999 V2000
  191.7130  173.1870  142.6690 C   0  0  0  0  0  0  0  0  0  0  0  0
  189.3790  174.2640  142.5520 C   0  0  0  0  0  3  0  0  0  0  0  0
  197.1860  173.8700  143.3670 O   0  0  0  0  0  0  0  0  0  0  0  0
  193.9760  172.1380  142.8880 C   0  0  0  0  0  0  0  0  0  0  0  0
  195.1560  172.4760  144.9580 N   0  0  0  0  0  0  0  0  0  0  0  0
  197.0620  173.7940  145.7690 C   0  0  0  0  0  2  0  0  0  0  0  0
  197.9410  174.0080  144.5400 C   0  0  0  0  0  2  0  0  0  0  0  0
  197.5820  171.4780  143.2200 C   0  0  0  0  0  2  0  0  0  0  0  0
  190.7290  174.4250  144.5090 C   0  0  0  0  0  0  0  0  0  0  0  0
  189.8240  175.9330  147.0710 C   0  0  0  0  0  3  0  0  0  0  0  0
  194.0500  173.2210  145.4910 C   0  0  0  0  0  3  0  0  0  0  0  0
  196.1460  170.9790  143.0930 C   0  0  0  0  0  2  0  0  0  0  0  0
  191.8560  174.2100  145.3240 C   0  0  0  0  0  0  0  0  0  0  0  0
  188.6630  175.0300  143.5620 N   0  0  0  0  0  0  0  0  0  0  0  0
  195.0770  171.9070  143.6290 C   0  0  0  0  0  0  0  0  0  0  0  0
  197.8130  172.8650  142.6140 C   0  0  0  0  0  2  0  0  0  0  0  0
  189.0480  175.7880  145.8270 C   0  0  0  0  0  0  0  0  0  0  0  0
  192.8550  172.9370  143.4570 C   0  0  0  0  0  0  0  0  0  0  0  0
  196.3750  172.4280  145.7610 C   0  0  0  0  0  2  0  0  0  0  0  0
  192.9360  173.4530  144.7760 C   0  0  0  0  0  0  0  0  0  0  0  0
  192.9450  172.4150  140.6340 C   0  0  0  0  0  2  0  0  0  0  0  0
  191.0300  175.4750  147.3820 C   0  0  0  0  0  3  0  0  0  0  0  0
  193.8200  171.5320  141.5160 C   0  0  0  0  0  2  0  0  0  0  0  0
  191.9620  174.6810  146.5760 C   0  0  0  0  0  3  0  0  0  0  0  0
  189.4680  175.1300  144.7370 C   0  0  0  0  0  0  0  0  0  0  0  0
  191.5810  172.6070  141.2870 C   0  0  0  0  0  2  0  0  0  0  0  0
  190.6680  173.9220  143.2220 C   0  0  0  0  0  0  0  0  0  0  0  0
  187.7110  176.4160  145.7800 C   0  0  0  0  0  3  0  0  0  0  0  0
  187.4840  177.6150  145.2440 C   0  0  0  0  0  3  0  0  0  0  0  0
  184.2910  179.4660  144.5950 C   0  0  0  0  0  2  0  0  0  0  0  0
  185.2480  178.0230  146.3100 C   0  0  0  0  0  2  0  0  0  0  0  0
  186.1770  178.1900  145.2160 N   0  0  0  0  0  0  0  0  0  0  0  0
  183.9550  178.6660  145.8470 C   0  0  0  0  0  2  0  0  0  0  0  0
  185.6470  178.9800  144.1240 C   0  0  0  0  0  2  0  0  0  0  0  0
  1 27  1  0  0  0  0
  1 18  2  0  0  0  0
  2 27  2  0  0  0  0
  2 14  1  0  0  0  0
  3  7  1  0  0  0  0
  4 18  1  0  0  0  0
  4 15  2  0  0  0  0
  5 11  1  0  0  0  0
  5 19  1  0  0  0  0
  7  6  1  0  0  0  0
  9 25  1  0  0  0  0
  9 13  2  0  0  0  0
 10 22  1  0  0  0  0
 12  8  1  0  0  0  0
 12 15  1  0  0  0  0
 13 24  1  0  0  0  0
 14 25  2  0  0  0  0
 15  5  1  0  0  0  0
 16  8  1  0  0  0  0
 16  3  1  0  0  0  0
 17 10  2  0  0  0  0
 18 20  1  0  0  0  0
 19  6  1  0  0  0  0
 20 13  1  0  0  0  0
 20 11  2  0  0  0  0
 21 26  1  0  0  0  0
 21 23  1  0  0  0  0
 23  4  1  0  0  0  0
 24 22  2  0  0  0  0
 25 17  1  0  0  0  0
 26  1  1  0  0  0  0
 27  9  1  0  0  0  0
 28 17  1  0  0  0  0
 29 28  2  0  0  0  0
 30 33  1  0  0  0  0
 32 29  1  0  0  0  0
 32 31  1  0  0  0  0
 33 31  1  0  0  0  0
 34 30  1  0  0  0  0
 34 32  1  0  0  0  0
M  END
>  <MODEL>
7

>  <REMARK>
 VINA RESULT:      -7.9      3.662      7.276
  Name = 
  2 active torsions:
  status: ('A' for Active; 'I' for Inactive)
    1  A    between atoms: C_17  and  C_28
    2  A    between atoms: C_29  and  N_32
                            x       y       z     vdW  Elec       q    Type
                         _______ _______ _______ _____ _____    ______ ____

>  <TORSDO>
F 2

$$$$
=
 OpenBabel11112418003D

 34 40  0  0  0  0  0  0  0  0999 V2000
  191.4480  172.1290  143.3010 C   0  0  0  0  0  0  0  0  0  0  0  0
  189.3200  173.5330  142.9470 C   0  0  0  0  0  3  0  0  0  0  0  0
  197.0020  171.8920  143.2240 O   0  0  0  0  0  0  0  0  0  0  0  0
  193.5260  170.8050  143.7440 C   0  0  0  0  0  0  0  0  0  0  0  0
  195.0500  171.6580  145.3990 N   0  0  0  0  0  0  0  0  0  0  0  0
  197.2410  172.7660  145.4530 C   0  0  0  0  0  2  0  0  0  0  0  0
  197.9410  172.3100  144.1770 C   0  0  0  0  0  2  0  0  0  0  0  0
  196.9920  169.5980  144.0250 C   0  0  0  0  0  2  0  0  0  0  0  0
  190.9660  174.1500  144.5570 C   0  0  0  0  0  0  0  0  0  0  0  0
  190.7140  176.6710  146.3550 C   0  0  0  0  0  3  0  0  0  0  0  0
  194.1700  172.7590  145.6730 C   0  0  0  0  0  3  0  0  0  0  0  0
  195.4930  169.3940  144.2250 C   0  0  0  0  0  2  0  0  0  0  0  0
  192.1580  174.0360  145.2960 C   0  0  0  0  0  0  0  0  0  0  0  0
  188.8980  174.7560  143.6140 N   0  0  0  0  0  0  0  0  0  0  0  0
  194.6780  170.6540  144.4250 C   0  0  0  0  0  0  0  0  0  0  0  0
  197.3400  170.5710  142.8930 C   0  0  0  0  0  2  0  0  0  0  0  0
  189.7420  176.2250  145.3410 C   0  0  0  0  0  0  0  0  0  0  0  0
  192.6450  171.9710  144.0300 C   0  0  0  0  0  0  0  0  0  0  0  0
  196.3550  171.6720  146.0530 C   0  0  0  0  0  2  0  0  0  0  0  0
  193.0080  172.9230  145.0170 C   0  0  0  0  0  0  0  0  0  0  0  0
  192.2150  170.4050  141.6610 C   0  0  0  0  0  2  0  0  0  0  0  0
  191.8680  176.1300  146.7260 C   0  0  0  0  0  3  0  0  0  0  0  0
  193.0670  169.7670  142.7500 C   0  0  0  0  0  2  0  0  0  0  0  0
  192.5280  174.9170  146.2380 C   0  0  0  0  0  3  0  0  0  0  0  0
  189.8810  175.1300  144.5800 C   0  0  0  0  0  0  0  0  0  0  0  0
  191.0140  171.1060  142.2870 C   0  0  0  0  0  2  0  0  0  0  0  0
  190.6280  173.2180  143.5920 C   0  0  0  0  0  0  0  0  0  0  0  0
  188.5290  177.0470  145.1520 C   0  0  0  0  0  3  0  0  0  0  0  0
  187.4690  176.9840  145.9580 C   0  0  0  0  0  3  0  0  0  0  0  0
  184.1430  178.7110  145.9020 C   0  0  0  0  0  2  0  0  0  0  0  0
  186.2210  178.7100  144.6290 C   0  0  0  0  0  2  0  0  0  0  0  0
  186.3130  177.7950  145.7430 N   0  0  0  0  0  0  0  0  0  0  0  0
  184.9160  179.4590  144.8240 C   0  0  0  0  0  2  0  0  0  0  0  0
  185.1370  177.7940  146.5890 C   0  0  0  0  0  2  0  0  0  0  0  0
  1 27  1  0  0  0  0
  1 18  2  0  0  0  0
  2 27  2  0  0  0  0
  2 14  1  0  0  0  0
  3  7  1  0  0  0  0
  4 18  1  0  0  0  0
  4 15  2  0  0  0  0
  5 11  1  0  0  0  0
  5 19  1  0  0  0  0
  6 19  1  0  0  0  0
  7  6  1  0  0  0  0
  8 12  1  0  0  0  0
  9 25  1  0  0  0  0
  9 13  2  0  0  0  0
 10 22  1  0  0  0  0
 12 15  1  0  0  0  0
 13 24  1  0  0  0  0
 14 25  2  0  0  0  0
 15  5  1  0  0  0  0
 16  3  1  0  0  0  0
 16  8  1  0  0  0  0
 17 10  2  0  0  0  0
 18 20  1  0  0  0  0
 20 13  1  0  0  0  0
 20 11  2  0  0  0  0
 21 26  1  0  0  0  0
 21 23  1  0  0  0  0
 23  4  1  0  0  0  0
 24 22  2  0  0  0  0
 25 17  1  0  0  0  0
 26  1  1  0  0  0  0
 27  9  1  0  0  0  0
 28 17  1  0  0  0  0
 28 29  2  0  0  0  0
 30 34  1  0  0  0  0
 31 33  1  0  0  0  0
 31 32  1  0  0  0  0
 32 29  1  0  0  0  0
 32 34  1  0  0  0  0
 33 30  1  0  0  0  0
M  END
>  <MODEL>
8

>  <REMARK>
 VINA RESULT:      -7.9      3.931      7.598
  Name = 
  2 active torsions:
  status: ('A' for Active; 'I' for Inactive)
    1  A    between atoms: C_17  and  C_28
    2  A    between atoms: C_29  and  N_32
                            x       y       z     vdW  Elec       q    Type
                         _______ _______ _______ _____ _____    ______ ____

>  <TORSDO>
F 2

$$$$
=
 OpenBabel11112418003D

 34 40  0  0  0  0  0  0  0  0999 V2000
  190.4630  173.5360  142.7010 C   0  0  0  0  0  0  0  0  0  0  0  0
  188.0350  173.9000  141.9310 C   0  0  0  0  0  3  0  0  0  0  0  0
  195.6570  175.4970  142.9930 O   0  0  0  0  0  0  0  0  0  0  0  0
  192.8040  173.2390  143.5370 C   0  0  0  0  0  0  0  0  0  0  0  0
  193.6570  174.9030  145.0520 N   0  0  0  0  0  0  0  0  0  0  0  0
  195.2450  176.7740  144.9900 C   0  0  0  0  0  2  0  0  0  0  0  0
  196.2320  176.4130  143.8850 C   0  0  0  0  0  2  0  0  0  0  0  0
  196.3970  173.5670  144.2700 C   0  0  0  0  0  2  0  0  0  0  0  0
  189.0930  175.3900  143.4600 C   0  0  0  0  0  0  0  0  0  0  0  0
  187.6740  177.8840  144.6520 C   0  0  0  0  0  3  0  0  0  0  0  0
  192.4000  175.5970  145.0310 C   0  0  0  0  0  3  0  0  0  0  0  0
  195.0710  172.8270  144.4240 C   0  0  0  0  0  2  0  0  0  0  0  0
  190.1280  175.8890  144.2730 C   0  0  0  0  0  0  0  0  0  0  0  0
  187.0990  174.9550  142.2920 N   0  0  0  0  0  0  0  0  0  0  0  0
  193.8240  173.6780  144.2990 C   0  0  0  0  0  0  0  0  0  0  0  0
  196.5070  174.3800  142.9760 C   0  0  0  0  0  2  0  0  0  0  0  0
  187.0870  176.9190  143.7050 C   0  0  0  0  0  0  0  0  0  0  0  0
  191.5210  173.9940  143.5130 C   0  0  0  0  0  0  0  0  0  0  0  0
  194.7600  175.5450  145.7610 C   0  0  0  0  0  2  0  0  0  0  0  0
  191.3630  175.1710  144.2900 C   0  0  0  0  0  0  0  0  0  0  0  0
  192.0360  171.9920  141.5190 C   0  0  0  0  0  2  0  0  0  0  0  0
  188.8840  177.9160  145.1970 C   0  0  0  0  0  3  0  0  0  0  0  0
  192.9070  171.9450  142.7680 C   0  0  0  0  0  2  0  0  0  0  0  0
  190.0100  176.9960  145.0210 C   0  0  0  0  0  3  0  0  0  0  0  0
  187.7290  175.8510  143.2090 C   0  0  0  0  0  0  0  0  0  0  0  0
  190.5870  172.2620  141.9100 C   0  0  0  0  0  2  0  0  0  0  0  0
  189.2640  174.2460  142.7020 C   0  0  0  0  0  0  0  0  0  0  0  0
  185.6930  177.1480  143.2740 C   0  0  0  0  0  3  0  0  0  0  0  0
  185.3590  177.9890  142.2950 C   0  0  0  0  0  3  0  0  0  0  0  0
  181.6740  178.5890  141.9670 C   0  0  0  0  0  2  0  0  0  0  0  0
  183.5460  177.9140  140.5600 C   0  0  0  0  0  2  0  0  0  0  0  0
  183.9980  178.1840  141.9050 N   0  0  0  0  0  0  0  0  0  0  0  0
  182.0960  178.3590  140.5210 C   0  0  0  0  0  2  0  0  0  0  0  0
  182.9500  178.6600  142.7830 C   0  0  0  0  0  2  0  0  0  0  0  0
  1 27  1  0  0  0  0
  1 18  2  0  0  0  0
  2 14  2  0  0  0  0
  2 27  1  0  0  0  0
  3  7  1  0  0  0  0
  4 15  2  0  0  0  0
  5 19  1  0  0  0  0
  6 19  1  0  0  0  0
  7  6  1  0  0  0  0
  8 12  1  0  0  0  0
  9 13  1  0  0  0  0
 10 22  2  0  0  0  0
 11  5  1  0  0  0  0
 13 20  1  0  0  0  0
 13 24  2  0  0  0  0
 14 25  1  0  0  0  0
 15 12  1  0  0  0  0
 15  5  1  0  0  0  0
 16  3  1  0  0  0  0
 16  8  1  0  0  0  0
 17 10  1  0  0  0  0
 18  4  1  0  0  0  0
 18 20  1  0  0  0  0
 20 11  2  0  0  0  0
 21 26  1  0  0  0  0
 21 23  1  0  0  0  0
 23  4  1  0  0  0  0
 24 22  1  0  0  0  0
 25  9  1  0  0  0  0
 25 17  2  0  0  0  0
 26  1  1  0  0  0  0
 27  9  2  0  0  0  0
 28 17  1  0  0  0  0
 29 28  2  0  0  0  0
 30 34  1  0  0  0  0
 31 32  1  0  0  0  0
 32 29  1  0  0  0  0
 32 34  1  0  0  0  0
 33 31  1  0  0  0  0
 33 30  1  0  0  0  0
M  END
>  <MODEL>
9

>  <REMARK>
 VINA RESULT:      -7.8      2.414      5.144
  Name = 
  2 active torsions:
  status: ('A' for Active; 'I' for Inactive)
    1  A    between atoms: C_17  and  C_28
    2  A    between atoms: C_29  and  N_32
                            x       y       z     vdW  Elec       q    Type
                         _______ _______ _______ _____ _____    ______ ____

>  <TORSDO>
F 2

$$$$
