=
 OpenBabel11112417383D

 28 32  0  0  1  0  0  0  0  0999 V2000
  186.1030  178.4880  144.3660 C   0  0  0  0  0  0  0  0  0  0  0  0
  189.4940  178.2910  145.8600 O   0  0  0  0  0  0  0  0  0  0  0  0
  188.5370  174.8700  139.7660 O   0  0  0  0  0  0  0  0  0  0  0  0
  184.9550  177.1010  146.5150 C   0  0  0  0  0  3  0  0  0  0  0  0
  188.3390  173.6850  141.8720 C   0  0  2  0  0  3  0  0  0  0  0  0
  186.6300  179.2330  143.1810 C   0  0  0  0  0  2  0  0  0  0  0  0
  190.3860  176.2960  146.9940 O   0  0  0  0  0  0  0  0  0  0  0  0
  189.9920  176.8860  145.6700 S   0  0  0  0  0  0  0  0  0  0  0  0
  191.3060  176.1440  143.3890 C   0  0  0  0  0  0  0  0  0  0  0  0
  188.7400  175.8720  144.9220 C   0  0  2  0  0  3  0  0  0  0  0  0
  185.4810  177.5630  140.1320 O   0  0  0  0  0  0  0  0  0  0  0  0
  187.2850  175.5940  143.0070 C   0  0  2  0  0  3  0  0  0  0  0  0
  190.3760  175.2660  143.1430 N   0  0  0  0  0  0  0  0  0  0  0  0
  191.3460  176.8790  144.6090 N   0  0  0  0  0  2  0  0  0  0  0  0
  186.2710  177.9160  141.0450 C   0  0  0  0  0  0  0  0  0  0  0  0
  186.6340  177.2420  144.7580 C   0  0  0  0  0  0  0  0  0  0  0  0
  188.1910  174.8550  140.9780 C   0  0  0  0  0  0  0  0  0  0  0  0
  192.2790  176.4170  142.3880 N   0  0  0  0  0  1  0  0  0  0  0  0
  187.6400  177.3210  141.1010 C   0  0  0  0  0  2  0  0  0  0  0  0
  186.0390  176.5520  145.8280 C   0  0  0  0  0  3  0  0  0  0  0  0
  185.0120  179.0290  145.0570 C   0  0  0  0  0  3  0  0  0  0  0  0
  184.4440  178.3410  146.1310 C   0  0  0  0  0  3  0  0  0  0  0  0
  185.8490  178.8910  142.0010 N   0  0  0  0  0  2  0  0  0  0  0  0
  188.0920  174.3080  143.2650 C   0  0  2  0  0  3  0  0  0  0  0  0
  187.5910  175.9610  141.6270 N   0  0  0  0  0  0  0  0  0  0  0  0
  189.3310  174.7700  144.0580 C   0  0  2  0  0  3  0  0  0  0  0  0
  189.6000  173.0950  141.7530 O   0  0  0  0  0  1  0  0  0  0  0  0
  187.7900  176.6320  144.0080 C   0  0  1  0  0  3  0  0  0  0  0  0
  1 16  2  0  0  0  0
  1 21  1  0  0  0  0
  3 17  2  0  0  0  0
  5 27  1  1  0  0  0
  5 24  1  0  0  0  0
  6  1  1  0  0  0  0
  8  2  2  0  0  0  0
  8  7  2  0  0  0  0
  9 14  1  0  0  0  0
 10  8  1  6  0  0  0
 11 15  2  0  0  0  0
 12 25  1  6  0  0  0
 12 24  1  0  0  0  0
 12 28  1  0  0  0  0
 13  9  2  0  0  0  0
 13 26  1  0  0  0  0
 14  8  1  0  0  0  0
 15 19  1  0  0  0  0
 15 23  1  0  0  0  0
 16 20  1  0  0  0  0
 17 25  1  0  0  0  0
 17  5  1  0  0  0  0
 18  9  1  0  0  0  0
 19 25  1  0  0  0  0
 20  4  2  0  0  0  0
 21 22  2  0  0  0  0
 22  4  1  0  0  0  0
 23  6  1  0  0  0  0
 24 26  1  0  0  0  0
 26 10  1  0  0  0  0
 28 16  1  0  0  0  0
 28 10  1  0  0  0  0
M  END
>  <MODEL>
1

>  <REMARK>
 VINA RESULT:      -8.1      0.000      0.000
  Name = 
  0 active torsions:
  status: ('A' for Active; 'I' for Inactive)
                            x       y       z     vdW  Elec       q    Type
                         _______ _______ _______ _____ _____    ______ ____

>  <TORSDO>
F 0

$$$$
=
 OpenBabel11112417383D

 28 32  0  0  1  0  0  0  0  0999 V2000
  186.8070  177.4100  144.6910 C   0  0  0  0  0  0  0  0  0  0  0  0
  187.1420  174.3420  142.6300 O   0  0  0  0  0  0  0  0  0  0  0  0
  192.8580  176.3420  146.2460 O   0  0  0  0  0  0  0  0  0  0  0  0
  186.4060  179.0180  142.4300 C   0  0  0  0  0  3  0  0  0  0  0  0
  192.5970  176.9910  143.9250 C   0  0  2  0  0  3  0  0  0  0  0  0
  187.0130  176.6290  145.9490 C   0  0  0  0  0  2  0  0  0  0  0  0
  188.3620  174.2430  140.4940 O   0  0  0  0  0  0  0  0  0  0  0  0
  188.4990  174.3750  141.9850 S   0  0  0  0  0  0  0  0  0  0  0  0
  190.7000  173.3710  143.2590 C   0  0  0  0  0  0  0  0  0  0  0  0
  189.3390  175.8930  142.3680 C   0  0  2  0  0  3  0  0  0  0  0  0
  189.6450  178.2420  147.9190 O   0  0  0  0  0  0  0  0  0  0  0  0
  190.1700  177.3140  144.1430 C   0  0  2  0  0  3  0  0  0  0  0  0
  191.2550  174.5470  143.2210 N   0  0  0  0  0  0  0  0  0  0  0  0
  189.4710  173.0930  142.5920 N   0  0  0  0  0  2  0  0  0  0  0  0
  189.1030  177.3950  147.1630 C   0  0  0  0  0  0  0  0  0  0  0  0
  187.7330  177.3660  143.6290 C   0  0  0  0  0  0  0  0  0  0  0  0
  192.1140  176.6940  145.2910 C   0  0  0  0  0  0  0  0  0  0  0  0
  191.3080  172.3460  144.0350 N   0  0  0  0  0  1  0  0  0  0  0  0
  189.9400  176.3300  146.5340 C   0  0  0  0  0  2  0  0  0  0  0  0
  187.5260  178.1890  142.5070 C   0  0  0  0  0  3  0  0  0  0  0  0
  185.6890  178.2490  144.6070 C   0  0  0  0  0  3  0  0  0  0  0  0
  185.4850  179.0450  143.4780 C   0  0  0  0  0  3  0  0  0  0  0  0
  187.6940  177.4590  146.9340 N   0  0  0  0  0  2  0  0  0  0  0  0
  191.2810  177.0250  143.1150 C   0  0  2  0  0  3  0  0  0  0  0  0
  190.7150  176.8720  145.4230 N   0  0  0  0  0  0  0  0  0  0  0  0
  190.8470  175.7190  142.4220 C   0  0  2  0  0  3  0  0  0  0  0  0
  193.4940  176.0220  143.4680 O   0  0  0  0  0  1  0  0  0  0  0  0
  188.9570  176.4910  143.7140 C   0  0  1  0  0  3  0  0  0  0  0  0
  1  6  1  0  0  0  0
  4 20  2  0  0  0  0
  4 22  1  0  0  0  0
  5 27  1  6  0  0  0
  5 17  1  0  0  0  0
  6 23  1  0  0  0  0
  7  8  2  0  0  0  0
  8 14  1  0  0  0  0
  8  2  2  0  0  0  0
  9 18  1  0  0  0  0
 10  8  1  1  0  0  0
 10 26  1  0  0  0  0
 10 28  1  0  0  0  0
 12 25  1  1  0  0  0
 13  9  2  0  0  0  0
 14  9  1  0  0  0  0
 15 11  2  0  0  0  0
 16 28  1  0  0  0  0
 16  1  2  0  0  0  0
 17 25  1  0  0  0  0
 17  3  2  0  0  0  0
 19 15  1  0  0  0  0
 20 16  1  0  0  0  0
 21  1  1  0  0  0  0
 22 21  2  0  0  0  0
 23 15  1  0  0  0  0
 24  5  1  0  0  0  0
 24 12  1  0  0  0  0
 25 19  1  0  0  0  0
 26 24  1  0  0  0  0
 26 13  1  0  0  0  0
 28 12  1  0  0  0  0
M  END
>  <MODEL>
2

>  <REMARK>
 VINA RESULT:      -7.9      2.314      4.789
  Name = 
  0 active torsions:
  status: ('A' for Active; 'I' for Inactive)
                            x       y       z     vdW  Elec       q    Type
                         _______ _______ _______ _____ _____    ______ ____

>  <TORSDO>
F 0

$$$$
=
 OpenBabel11112417383D

 28 32  0  0  1  0  0  0  0  0999 V2000
  191.8860  173.6580  144.7100 C   0  0  0  0  0  0  0  0  0  0  0  0
  190.0600  175.3470  147.4650 O   0  0  0  0  0  0  0  0  0  0  0  0
  187.3050  175.9930  141.0040 O   0  0  0  0  0  0  0  0  0  0  0  0
  194.1300  175.3060  145.0400 C   0  0  0  0  0  3  0  0  0  0  0  0
  188.7550  177.7230  141.8870 C   0  0  2  0  0  3  0  0  0  0  0  0
  190.7340  172.7380  144.4640 C   0  0  0  0  0  2  0  0  0  0  0  0
  190.0810  177.7790  147.8450 O   0  0  0  0  0  0  0  0  0  0  0  0
  189.5900  176.6770  146.9480 S   0  0  0  0  0  0  0  0  0  0  0  0
  187.2000  176.9290  145.6430 C   0  0  0  0  0  0  0  0  0  0  0  0
  190.1820  176.9540  145.2960 C   0  0  2  0  0  3  0  0  0  0  0  0
  189.8930  172.8280  140.9020 O   0  0  0  0  0  0  0  0  0  0  0  0
  190.2170  176.1090  143.0280 C   0  0  2  0  0  3  0  0  0  0  0  0
  187.8280  177.3530  144.5840 N   0  0  0  0  0  0  0  0  0  0  0  0
  187.8720  176.7100  146.8810 N   0  0  0  0  0  2  0  0  0  0  0  0
  189.7910  173.0620  142.1330 C   0  0  0  0  0  0  0  0  0  0  0  0
  191.7310  175.0600  144.7050 C   0  0  0  0  0  0  0  0  0  0  0  0
  188.3040  176.3270  141.6940 C   0  0  0  0  0  0  0  0  0  0  0  0
  185.8150  176.6220  145.5480 N   0  0  0  0  0  1  0  0  0  0  0  0
  188.7440  174.0120  142.6150 C   0  0  0  0  0  2  0  0  0  0  0  0
  192.8680  175.8730  144.8570 C   0  0  0  0  0  3  0  0  0  0  0  0
  193.1570  173.0980  144.8890 C   0  0  0  0  0  3  0  0  0  0  0  0
  194.2740  173.9180  145.0590 C   0  0  0  0  0  3  0  0  0  0  0  0
  190.6690  172.4030  143.0480 N   0  0  0  0  0  2  0  0  0  0  0  0
  189.7630  177.5810  143.0510 C   0  0  2  0  0  3  0  0  0  0  0  0
  189.1390  175.3910  142.3540 N   0  0  0  0  0  0  0  0  0  0  0  0
  189.2270  177.8070  144.4780 C   0  0  2  0  0  3  0  0  0  0  0  0
  187.6900  178.5760  142.1890 O   0  0  0  0  0  1  0  0  0  0  0  0
  190.3760  175.6810  144.4850 C   0  0  1  0  0  3  0  0  0  0  0  0
  1 21  1  0  0  0  0
  3 17  2  0  0  0  0
  4 22  1  0  0  0  0
  5 27  1  1  0  0  0
  5 24  1  0  0  0  0
  6  1  1  0  0  0  0
  8  2  2  0  0  0  0
  8  7  2  0  0  0  0
  9 14  1  0  0  0  0
 10  8  1  1  0  0  0
 11 15  2  0  0  0  0
 12 25  1  1  0  0  0
 12 24  1  0  0  0  0
 12 28  1  0  0  0  0
 13  9  2  0  0  0  0
 14  8  1  0  0  0  0
 15 19  1  0  0  0  0
 15 23  1  0  0  0  0
 16  1  2  0  0  0  0
 16 20  1  0  0  0  0
 17  5  1  0  0  0  0
 17 25  1  0  0  0  0
 18  9  1  0  0  0  0
 20  4  2  0  0  0  0
 21 22  2  0  0  0  0
 23  6  1  0  0  0  0
 24 26  1  0  0  0  0
 25 19  1  0  0  0  0
 26 13  1  0  0  0  0
 26 10  1  0  0  0  0
 28 16  1  0  0  0  0
 28 10  1  0  0  0  0
M  END
>  <MODEL>
3

>  <REMARK>
 VINA RESULT:      -7.7      2.436      5.638
  Name = 
  0 active torsions:
  status: ('A' for Active; 'I' for Inactive)
                            x       y       z     vdW  Elec       q    Type
                         _______ _______ _______ _____ _____    ______ ____

>  <TORSDO>
F 0

$$$$
=
 OpenBabel11112417383D

 28 32  0  0  1  0  0  0  0  0999 V2000
  188.6180  176.2300  145.2010 C   0  0  0  0  0  0  0  0  0  0  0  0
  189.1710  173.3290  142.9530 O   0  0  0  0  0  0  0  0  0  0  0  0
  194.7930  175.6660  146.5130 O   0  0  0  0  0  0  0  0  0  0  0  0
  187.9890  177.9160  143.0510 C   0  0  0  0  0  3  0  0  0  0  0  0
  194.3920  176.4160  144.2430 C   0  0  2  0  0  3  0  0  0  0  0  0
  188.9410  175.4030  146.4040 C   0  0  0  0  0  2  0  0  0  0  0  0
  190.3200  173.4680  140.7810 O   0  0  0  0  0  0  0  0  0  0  0  0
  190.4950  173.5290  142.2720 S   0  0  0  0  0  0  0  0  0  0  0  0
  192.8250  172.6720  143.4200 C   0  0  0  0  0  0  0  0  0  0  0  0
  191.2000  175.0970  142.7190 C   0  0  2  0  0  3  0  0  0  0  0  0
  191.4750  177.1490  148.3880 O   0  0  0  0  0  0  0  0  0  0  0  0
  191.9540  176.4900  144.5500 C   0  0  2  0  0  3  0  0  0  0  0  0
  193.2640  173.8970  143.4350 N   0  0  0  0  0  0  0  0  0  0  0  0
  191.6060  172.3150  142.7740 N   0  0  0  0  0  2  0  0  0  0  0  0
  190.9900  176.2980  147.5990 C   0  0  0  0  0  0  0  0  0  0  0  0
  189.5070  176.3350  144.1110 C   0  0  0  0  0  0  0  0  0  0  0  0
  193.9870  175.9970  145.6030 C   0  0  0  0  0  0  0  0  0  0  0  0
  193.5540  171.6690  144.1160 N   0  0  0  0  0  1  0  0  0  0  0  0
  191.9020  175.3560  146.8850 C   0  0  0  0  0  2  0  0  0  0  0  0
  189.1850  177.1950  143.0470 C   0  0  0  0  0  3  0  0  0  0  0  0
  187.4230  176.9600  145.1990 C   0  0  0  0  0  3  0  0  0  0  0  0
  187.1060  177.7950  144.1260 C   0  0  0  0  0  3  0  0  0  0  0  0
  189.5730  176.2380  147.4160 N   0  0  0  0  0  2  0  0  0  0  0  0
  193.0510  176.3670  143.4760 C   0  0  2  0  0  3  0  0  0  0  0  0
  192.5830  176.0310  145.7860 N   0  0  0  0  0  0  0  0  0  0  0  0
  192.7200  175.0660  142.7190 C   0  0  2  0  0  3  0  0  0  0  0  0
  195.3610  175.5650  143.7030 O   0  0  0  0  0  1  0  0  0  0  0  0
  190.8110  175.5790  144.1090 C   0  0  1  0  0  3  0  0  0  0  0  0
  1  6  1  0  0  0  0
  4 22  1  0  0  0  0
  5 27  1  6  0  0  0
  5 17  1  0  0  0  0
  6 23  1  0  0  0  0
  7  8  2  0  0  0  0
  8 14  1  0  0  0  0
  8  2  2  0  0  0  0
  9 13  2  0  0  0  0
  9 18  1  0  0  0  0
 10  8  1  1  0  0  0
 10 28  1  0  0  0  0
 12 25  1  1  0  0  0
 14  9  1  0  0  0  0
 15 11  2  0  0  0  0
 16  1  2  0  0  0  0
 17 25  1  0  0  0  0
 17  3  2  0  0  0  0
 19 15  1  0  0  0  0
 20  4  2  0  0  0  0
 20 16  1  0  0  0  0
 21  1  1  0  0  0  0
 22 21  2  0  0  0  0
 23 15  1  0  0  0  0
 24  5  1  0  0  0  0
 24 12  1  0  0  0  0
 25 19  1  0  0  0  0
 26 10  1  0  0  0  0
 26 13  1  0  0  0  0
 26 24  1  0  0  0  0
 28 16  1  0  0  0  0
 28 12  1  0  0  0  0
M  END
>  <MODEL>
4

>  <REMARK>
 VINA RESULT:      -7.5      3.130      5.781
  Name = 
  0 active torsions:
  status: ('A' for Active; 'I' for Inactive)
                            x       y       z     vdW  Elec       q    Type
                         _______ _______ _______ _____ _____    ______ ____

>  <TORSDO>
F 0

$$$$
=
 OpenBabel11112417383D

 28 32  0  0  1  0  0  0  0  0999 V2000
  188.3980  176.1760  144.0940 C   0  0  0  0  0  0  0  0  0  0  0  0
  191.8450  177.5410  144.2630 O   0  0  0  0  0  0  0  0  0  0  0  0
  191.1360  171.1300  141.4090 O   0  0  0  0  0  0  0  0  0  0  0  0
  188.1780  176.0880  146.8880 C   0  0  0  0  0  3  0  0  0  0  0  0
  191.7150  171.3630  143.7520 C   0  0  2  0  0  3  0  0  0  0  0  0
  188.4290  176.1880  142.6000 C   0  0  0  0  0  2  0  0  0  0  0  0
  193.5490  176.7850  145.8690 O   0  0  0  0  0  0  0  0  0  0  0  0
  192.7610  176.4130  144.6460 S   0  0  0  0  0  0  0  0  0  0  0  0
  193.8510  174.7670  142.7540 C   0  0  0  0  0  0  0  0  0  0  0  0
  191.8330  174.9330  144.9690 C   0  0  2  0  0  3  0  0  0  0  0  0
  187.4410  172.8820  141.3740 O   0  0  0  0  0  0  0  0  0  0  0  0
  190.2690  173.3260  144.0570 C   0  0  2  0  0  3  0  0  0  0  0  0
  193.2580  173.7480  143.3040 N   0  0  0  0  0  0  0  0  0  0  0  0
  193.8360  176.0610  143.3500 N   0  0  0  0  0  2  0  0  0  0  0  0
  188.1990  173.8420  141.6660 C   0  0  0  0  0  0  0  0  0  0  0  0
  189.3860  175.5160  144.8530 C   0  0  0  0  0  0  0  0  0  0  0  0
  191.0240  171.7480  142.5010 C   0  0  0  0  0  0  0  0  0  0  0  0
  194.4870  174.5980  141.4930 N   0  0  0  0  0  1  0  0  0  0  0  0
  189.6780  173.6690  141.5530 C   0  0  0  0  0  2  0  0  0  0  0  0
  189.2550  175.4680  146.2520 C   0  0  0  0  0  3  0  0  0  0  0  0
  187.3180  176.7910  144.7400 C   0  0  0  0  0  3  0  0  0  0  0  0
  187.2120  176.7520  146.1320 C   0  0  0  0  0  3  0  0  0  0  0  0
  187.6300  175.0840  142.0850 N   0  0  0  0  0  2  0  0  0  0  0  0
  191.5030  172.6110  144.6380 C   0  0  2  0  0  3  0  0  0  0  0  0
  190.1930  172.8830  142.6680 N   0  0  0  0  0  0  0  0  0  0  0  0
  192.6170  173.6760  144.6300 C   0  0  2  0  0  3  0  0  0  0  0  0
  193.0640  171.0720  143.5320 O   0  0  0  0  0  1  0  0  0  0  0  0
  190.5400  174.8250  144.1730 C   0  0  1  0  0  3  0  0  0  0  0  0
  1 21  2  0  0  0  0
  1 16  1  0  0  0  0
  2  8  2  0  0  0  0
  3 17  2  0  0  0  0
  5 27  1  6  0  0  0
  5 24  1  0  0  0  0
  6  1  1  0  0  0  0
  8  7  2  0  0  0  0
  9 13  2  0  0  0  0
  9 14  1  0  0  0  0
 10  8  1  6  0  0  0
 11 15  2  0  0  0  0
 12 25  1  6  0  0  0
 12 28  1  0  0  0  0
 12 24  1  0  0  0  0
 13 26  1  0  0  0  0
 14  8  1  0  0  0  0
 15 23  1  0  0  0  0
 16 20  2  0  0  0  0
 17 25  1  0  0  0  0
 17  5  1  0  0  0  0
 18  9  1  0  0  0  0
 19 15  1  0  0  0  0
 19 25  1  0  0  0  0
 20  4  1  0  0  0  0
 21 22  1  0  0  0  0
 22  4  2  0  0  0  0
 23  6  1  0  0  0  0
 26 24  1  0  0  0  0
 26 10  1  0  0  0  0
 28 16  1  0  0  0  0
 28 10  1  0  0  0  0
M  END
>  <MODEL>
5

>  <REMARK>
 VINA RESULT:      -7.2      2.481      3.745
  Name = 
  0 active torsions:
  status: ('A' for Active; 'I' for Inactive)
                            x       y       z     vdW  Elec       q    Type
                         _______ _______ _______ _____ _____    ______ ____

>  <TORSDO>
F 0

$$$$
=
 OpenBabel11112417383D

 28 32  0  0  1  0  0  0  0  0999 V2000
  187.6070  177.5490  144.4810 C   0  0  0  0  0  0  0  0  0  0  0  0
  190.6320  177.9160  146.6000 O   0  0  0  0  0  0  0  0  0  0  0  0
  190.8300  172.8630  141.6830 O   0  0  0  0  0  0  0  0  0  0  0  0
  186.0300  176.7910  146.6710 C   0  0  0  0  0  3  0  0  0  0  0  0
  190.1960  172.3220  143.9590 C   0  0  2  0  0  3  0  0  0  0  0  0
  188.3740  177.9430  143.2590 C   0  0  0  0  0  2  0  0  0  0  0  0
  191.2420  176.3640  148.4110 O   0  0  0  0  0  0  0  0  0  0  0  0
  191.1300  176.5350  146.9220 S   0  0  0  0  0  0  0  0  0  0  0  0
  192.8530  175.2230  145.2530 C   0  0  0  0  0  0  0  0  0  0  0  0
  190.0300  175.3030  146.2690 C   0  0  2  0  0  3  0  0  0  0  0  0
  187.8160  175.4300  140.6560 O   0  0  0  0  0  0  0  0  0  0  0  0
  188.9770  174.4340  144.2690 C   0  0  2  0  0  3  0  0  0  0  0  0
  191.9730  174.2770  145.0940 N   0  0  0  0  0  0  0  0  0  0  0  0
  192.6660  176.2770  146.1930 N   0  0  0  0  0  2  0  0  0  0  0  0
  188.4170  176.0580  141.5640 C   0  0  0  0  0  0  0  0  0  0  0  0
  188.0260  176.4880  145.3100 C   0  0  0  0  0  0  0  0  0  0  0  0
  190.2520  173.1810  142.7550 C   0  0  0  0  0  0  0  0  0  0  0  0
  194.0100  175.2360  144.4250 N   0  0  0  0  0  1  0  0  0  0  0  0
  189.7360  175.5570  142.0540 C   0  0  0  0  0  2  0  0  0  0  0  0
  187.2180  176.1100  146.3960 C   0  0  0  0  0  3  0  0  0  0  0  0
  186.4130  178.2230  144.7610 C   0  0  0  0  0  3  0  0  0  0  0  0
  185.6300  177.8500  145.8550 C   0  0  0  0  0  3  0  0  0  0  0  0
  187.8340  177.2500  142.0980 N   0  0  0  0  0  2  0  0  0  0  0  0
  189.6910  173.3070  145.0380 C   0  0  2  0  0  3  0  0  0  0  0  0
  189.5570  174.4030  142.9290 N   0  0  0  0  0  0  0  0  0  0  0  0
  190.7580  174.0240  145.8900 C   0  0  2  0  0  3  0  0  0  0  0  0
  191.4440  171.7710  144.2630 O   0  0  0  0  0  1  0  0  0  0  0  0
  189.2950  175.7330  145.0080 C   0  0  1  0  0  3  0  0  0  0  0  0
  1 21  2  0  0  0  0
  1 16  1  0  0  0  0
  2  8  2  0  0  0  0
  3 17  2  0  0  0  0
  5 27  1  1  0  0  0
  5 24  1  0  0  0  0
  6  1  1  0  0  0  0
  8  7  2  0  0  0  0
  9 14  1  0  0  0  0
 10  8  1  6  0  0  0
 11 15  2  0  0  0  0
 12 25  1  6  0  0  0
 12 28  1  0  0  0  0
 12 24  1  0  0  0  0
 13  9  2  0  0  0  0
 13 26  1  0  0  0  0
 14  8  1  0  0  0  0
 15 19  1  0  0  0  0
 15 23  1  0  0  0  0
 16 20  2  0  0  0  0
 17 25  1  0  0  0  0
 17  5  1  0  0  0  0
 18  9  1  0  0  0  0
 19 25  1  0  0  0  0
 20  4  1  0  0  0  0
 21 22  1  0  0  0  0
 22  4  2  0  0  0  0
 23  6  1  0  0  0  0
 24 26  1  0  0  0  0
 26 10  1  0  0  0  0
 28 16  1  0  0  0  0
 28 10  1  0  0  0  0
M  END
>  <MODEL>
6

>  <REMARK>
 VINA RESULT:      -7.1      1.824      2.431
  Name = 
  0 active torsions:
  status: ('A' for Active; 'I' for Inactive)
                            x       y       z     vdW  Elec       q    Type
                         _______ _______ _______ _____ _____    ______ ____

>  <TORSDO>
F 0

$$$$
=
 OpenBabel11112417383D

 28 32  0  0  1  0  0  0  0  0999 V2000
  188.9890  175.5270  146.0830 C   0  0  0  0  0  0  0  0  0  0  0  0
  188.9570  172.3800  144.1150 O   0  0  0  0  0  0  0  0  0  0  0  0
  195.1700  175.6710  144.6840 O   0  0  0  0  0  0  0  0  0  0  0  0
  187.3060  176.8190  144.2510 C   0  0  0  0  0  3  0  0  0  0  0  0
  193.7700  176.0410  142.7400 C   0  0  2  0  0  3  0  0  0  0  0  0
  189.8900  174.9160  147.1090 C   0  0  0  0  0  2  0  0  0  0  0  0
  189.0780  172.2910  141.6580 O   0  0  0  0  0  0  0  0  0  0  0  0
  189.8420  172.5850  142.9170 S   0  0  0  0  0  0  0  0  0  0  0  0
  192.5310  172.1010  143.0410 C   0  0  0  0  0  0  0  0  0  0  0  0
  190.4470  174.2540  142.8630 C   0  0  2  0  0  3  0  0  0  0  0  0
  192.7510  177.1380  147.6380 O   0  0  0  0  0  0  0  0  0  0  0  0
  191.6910  175.9600  144.0490 C   0  0  2  0  0  3  0  0  0  0  0  0
  192.7650  173.3470  142.7460 N   0  0  0  0  0  0  0  0  0  0  0  0
  191.2150  171.5540  143.0160 N   0  0  0  0  0  2  0  0  0  0  0  0
  192.1050  176.1430  147.2210 C   0  0  0  0  0  0  0  0  0  0  0  0
  189.3260  175.5420  144.7140 C   0  0  0  0  0  0  0  0  0  0  0  0
  194.0230  175.7960  144.1770 C   0  0  0  0  0  0  0  0  0  0  0  0
  193.6110  171.2750  143.4560 N   0  0  0  0  0  1  0  0  0  0  0  0
  192.7610  175.1830  146.2830 C   0  0  0  0  0  2  0  0  0  0  0  0
  188.4790  176.2060  143.8090 C   0  0  0  0  0  3  0  0  0  0  0  0
  187.8120  176.1480  146.5180 C   0  0  0  0  0  3  0  0  0  0  0  0
  186.9700  176.7860  145.6060 C   0  0  0  0  0  3  0  0  0  0  0  0
  190.7620  175.9410  147.6660 N   0  0  0  0  0  2  0  0  0  0  0  0
  192.2520  175.7700  142.6270 C   0  0  2  0  0  3  0  0  0  0  0  0
  192.8290  175.7420  144.9370 N   0  0  0  0  0  0  0  0  0  0  0  0
  191.8200  174.3490  142.2180 C   0  0  2  0  0  3  0  0  0  0  0  0
  194.5360  175.2020  141.9270 O   0  0  0  0  0  1  0  0  0  0  0  0
  190.6030  174.9030  144.2310 C   0  0  1  0  0  3  0  0  0  0  0  0
  1 21  1  0  0  0  0
  1  6  1  0  0  0  0
  4 22  1  0  0  0  0
  5 27  1  6  0  0  0
  5 17  1  0  0  0  0
  6 23  1  0  0  0  0
  7  8  2  0  0  0  0
  8 14  1  0  0  0  0
  8  2  2  0  0  0  0
  9 18  1  0  0  0  0
 10  8  1  1  0  0  0
 10 28  1  0  0  0  0
 12 28  1  0  0  0  0
 12 25  1  1  0  0  0
 13  9  2  0  0  0  0
 14  9  1  0  0  0  0
 15 11  2  0  0  0  0
 15 23  1  0  0  0  0
 16  1  2  0  0  0  0
 17  3  2  0  0  0  0
 17 25  1  0  0  0  0
 19 15  1  0  0  0  0
 20  4  2  0  0  0  0
 20 16  1  0  0  0  0
 22 21  2  0  0  0  0
 24  5  1  0  0  0  0
 24 12  1  0  0  0  0
 25 19  1  0  0  0  0
 26 24  1  0  0  0  0
 26 13  1  0  0  0  0
 26 10  1  0  0  0  0
 28 16  1  0  0  0  0
M  END
>  <MODEL>
7

>  <REMARK>
 VINA RESULT:      -7.1      3.298      5.722
  Name = 
  0 active torsions:
  status: ('A' for Active; 'I' for Inactive)
                            x       y       z     vdW  Elec       q    Type
                         _______ _______ _______ _____ _____    ______ ____

>  <TORSDO>
F 0

$$$$
=
 OpenBabel11112417383D

 28 32  0  0  1  0  0  0  0  0999 V2000
  190.0760  176.8820  145.2180 C   0  0  0  0  0  0  0  0  0  0  0  0
  193.4570  176.3900  143.7670 O   0  0  0  0  0  0  0  0  0  0  0  0
  188.1620  172.9270  140.6500 O   0  0  0  0  0  0  0  0  0  0  0  0
  190.8160  175.6690  147.6340 C   0  0  0  0  0  3  0  0  0  0  0  0
  189.5200  171.8210  142.3250 C   0  0  2  0  0  3  0  0  0  0  0  0
  189.5960  177.5410  143.9640 C   0  0  0  0  0  2  0  0  0  0  0  0
  194.7980  174.3480  144.0610 O   0  0  0  0  0  0  0  0  0  0  0  0
  193.5860  174.9390  143.4000 S   0  0  0  0  0  0  0  0  0  0  0  0
  192.7580  174.0140  140.9620 C   0  0  0  0  0  0  0  0  0  0  0  0
  192.1410  174.0340  143.9000 C   0  0  2  0  0  3  0  0  0  0  0  0
  186.4960  175.9150  142.8910 O   0  0  0  0  0  0  0  0  0  0  0  0
  189.7360  173.8530  143.6920 C   0  0  2  0  0  3  0  0  0  0  0  0
  191.9080  173.2260  141.5540 N   0  0  0  0  0  0  0  0  0  0  0  0
  193.7190  174.7730  141.6930 N   0  0  0  0  0  2  0  0  0  0  0  0
  187.7180  176.2120  142.8990 C   0  0  0  0  0  0  0  0  0  0  0  0
  190.6640  175.6000  145.2050 C   0  0  0  0  0  0  0  0  0  0  0  0
  188.8190  172.9770  141.7230 C   0  0  0  0  0  0  0  0  0  0  0  0
  192.6910  174.1660  139.5500 N   0  0  0  0  0  1  0  0  0  0  0  0
  188.6550  175.4880  141.9900 C   0  0  0  0  0  2  0  0  0  0  0  0
  191.0170  174.9990  146.4260 C   0  0  0  0  0  3  0  0  0  0  0  0
  189.8740  177.5450  146.4340 C   0  0  0  0  0  3  0  0  0  0  0  0
  190.2480  176.9440  147.6380 C   0  0  0  0  0  3  0  0  0  0  0  0
  188.1830  177.2480  143.7680 N   0  0  0  0  0  2  0  0  0  0  0  0
  190.4090  172.5000  143.3920 C   0  0  2  0  0  3  0  0  0  0  0  0
  188.9440  174.1530  142.5030 N   0  0  0  0  0  0  0  0  0  0  0  0
  191.8510  172.8590  142.9820 C   0  0  2  0  0  3  0  0  0  0  0  0
  190.2560  171.1070  141.3750 O   0  0  0  0  0  1  0  0  0  0  0  0
  190.8630  174.8610  143.9080 C   0  0  1  0  0  3  0  0  0  0  0  0
  1 21  1  0  0  0  0
  3 17  2  0  0  0  0
  4 22  1  0  0  0  0
  5 27  1  6  0  0  0
  5 24  1  0  0  0  0
  6  1  1  0  0  0  0
  8  2  2  0  0  0  0
  8  7  2  0  0  0  0
  9 13  2  0  0  0  0
  9 14  1  0  0  0  0
 10  8  1  6  0  0  0
 10 28  1  0  0  0  0
 11 15  2  0  0  0  0
 12 25  1  6  0  0  0
 12 28  1  0  0  0  0
 13 26  1  0  0  0  0
 14  8  1  0  0  0  0
 15 23  1  0  0  0  0
 16  1  2  0  0  0  0
 16 20  1  0  0  0  0
 17  5  1  0  0  0  0
 17 25  1  0  0  0  0
 18  9  1  0  0  0  0
 19 25  1  0  0  0  0
 19 15  1  0  0  0  0
 20  4  2  0  0  0  0
 21 22  2  0  0  0  0
 23  6  1  0  0  0  0
 24 12  1  0  0  0  0
 26 24  1  0  0  0  0
 26 10  1  0  0  0  0
 28 16  1  0  0  0  0
M  END
>  <MODEL>
8

>  <REMARK>
 VINA RESULT:      -6.9      3.004      3.923
  Name = 
  0 active torsions:
  status: ('A' for Active; 'I' for Inactive)
                            x       y       z     vdW  Elec       q    Type
                         _______ _______ _______ _____ _____    ______ ____

>  <TORSDO>
F 0

$$$$
=
 OpenBabel11112417383D

 28 32  0  0  1  0  0  0  0  0999 V2000
  192.7060  174.1110  142.0730 C   0  0  0  0  0  0  0  0  0  0  0  0
  193.0830  174.5070  145.7440 O   0  0  0  0  0  0  0  0  0  0  0  0
  186.6880  175.8280  143.0770 O   0  0  0  0  0  0  0  0  0  0  0  0
  194.4900  176.2090  141.5520 C   0  0  0  0  0  3  0  0  0  0  0  0
  188.2470  177.6440  143.4590 C   0  0  2  0  0  3  0  0  0  0  0  0
  191.7430  172.9820  142.2590 C   0  0  0  0  0  2  0  0  0  0  0  0
  193.2020  176.6820  146.8900 O   0  0  0  0  0  0  0  0  0  0  0  0
  192.3070  175.7280  146.1500 S   0  0  0  0  0  0  0  0  0  0  0  0
  189.6460  175.5790  146.7640 C   0  0  0  0  0  0  0  0  0  0  0  0
  191.6270  176.5420  144.7250 C   0  0  2  0  0  3  0  0  0  0  0  0
  188.7370  173.6580  140.2810 O   0  0  0  0  0  0  0  0  0  0  0  0
  190.1930  176.3000  142.7900 C   0  0  2  0  0  3  0  0  0  0  0  0
  189.3800  176.4020  145.7920 N   0  0  0  0  0  0  0  0  0  0  0  0
  190.9840  175.2790  147.1530 N   0  0  0  0  0  2  0  0  0  0  0  0
  189.4690  173.5580  141.2990 C   0  0  0  0  0  0  0  0  0  0  0  0
  192.5010  175.3690  142.6760 C   0  0  0  0  0  0  0  0  0  0  0  0
  187.8700  176.2640  143.0830 C   0  0  0  0  0  0  0  0  0  0  0  0
  188.5730  174.9170  147.4220 N   0  0  0  0  0  1  0  0  0  0  0  0
  188.9540  174.0250  142.6210 C   0  0  0  0  0  2  0  0  0  0  0  0
  193.3960  176.4160  142.3940 C   0  0  0  0  0  3  0  0  0  0  0  0
  193.8030  173.9140  141.2260 C   0  0  0  0  0  3  0  0  0  0  0  0
  194.6960  174.9580  140.9710 C   0  0  0  0  0  3  0  0  0  0  0  0
  190.7720  172.9840  141.1740 N   0  0  0  0  0  2  0  0  0  0  0  0
  189.7800  177.5300  143.6200 C   0  0  2  0  0  3  0  0  0  0  0  0
  188.9870  175.4810  142.7030 N   0  0  0  0  0  0  0  0  0  0  0  0
  190.3200  177.2510  145.0360 C   0  0  2  0  0  3  0  0  0  0  0  0
  187.6050  178.0590  144.6290 O   0  0  0  0  0  1  0  0  0  0  0  0
  191.3100  175.6060  143.5680 C   0  0  1  0  0  3  0  0  0  0  0  0
  1  6  1  0  0  0  0
  1 16  1  0  0  0  0
  2  8  2  0  0  0  0
  3 17  2  0  0  0  0
  4 20  1  0  0  0  0
  5 24  1  0  0  0  0
  5 27  1  1  0  0  0
  8  7  2  0  0  0  0
  8 14  1  0  0  0  0
  9 14  1  0  0  0  0
  9 18  1  0  0  0  0
 10 26  1  0  0  0  0
 10  8  1  1  0  0  0
 11 15  2  0  0  0  0
 12 25  1  1  0  0  0
 12 28  1  0  0  0  0
 12 24  1  0  0  0  0
 13  9  2  0  0  0  0
 15 19  1  0  0  0  0
 16 28  1  0  0  0  0
 17  5  1  0  0  0  0
 19 25  1  0  0  0  0
 20 16  2  0  0  0  0
 21  1  2  0  0  0  0
 22 21  1  0  0  0  0
 22  4  2  0  0  0  0
 23 15  1  0  0  0  0
 23  6  1  0  0  0  0
 24 26  1  0  0  0  0
 25 17  1  0  0  0  0
 26 13  1  0  0  0  0
 28 10  1  0  0  0  0
M  END
>  <MODEL>
9

>  <REMARK>
 VINA RESULT:      -6.9      2.651      5.974
  Name = 
  0 active torsions:
  status: ('A' for Active; 'I' for Inactive)
                            x       y       z     vdW  Elec       q    Type
                         _______ _______ _______ _____ _____    ______ ____

>  <TORSDO>
F 0

$$$$
