=
 OpenBabel11112417123D

 37 43  0  0  1  0  0  0  0  0999 V2000
  190.6560  175.8970  145.2890 C   0  0  0  0  0  2  0  0  0  0  0  0
  187.2850  177.4410  143.2230 C   0  0  0  0  0  0  0  0  0  0  0  0
  190.1200  174.5690  142.2440 C   0  0  0  0  0  0  0  0  0  0  0  0
  190.6620  176.2840  146.7700 C   0  0  2  0  0  3  0  0  0  0  0  0
  193.6800  175.4190  142.9920 C   0  0  0  0  0  2  0  0  0  0  0  0
  187.7790  175.1550  142.2380 C   0  0  0  0  0  0  0  0  0  0  0  0
  191.4470  175.2790  142.3740 C   0  0  2  0  0  3  0  0  0  0  0  0
  193.2080  175.8010  146.6110 C   0  0  2  0  0  3  0  0  0  0  0  0
  189.1210  175.4900  142.2950 C   0  0  0  0  0  0  0  0  0  0  0  0
  192.4750  174.6130  143.2080 N   0  0  1  0  0  0  0  0  0  0  0  0
  187.4410  173.8100  142.0230 C   0  0  0  0  0  3  0  0  0  0  0  0
  192.0670  176.4970  147.3650 C   0  0  0  0  0  2  0  0  0  0  0  0
  189.5860  176.7830  142.5710 N   0  0  0  0  0  0  0  0  0  0  0  0
  187.3470  177.0530  144.6910 C   0  0  0  0  0  1  0  0  0  0  0  0
  190.9020  172.2120  141.9700 C   0  0  0  0  0  2  0  0  0  0  0  0
  188.4640  172.8430  141.9130 C   0  0  0  0  0  3  0  0  0  0  0  0
  188.6780  177.9160  142.7530 C   0  0  0  0  0  2  0  0  0  0  0  0
  193.5900  176.5170  145.3020 C   0  0  1  0  0  3  0  0  0  0  0  0
  194.4040  175.6880  144.3060 C   0  0  0  0  0  2  0  0  0  0  0  0
  189.8160  173.2220  142.0250 C   0  0  0  0  0  0  0  0  0  0  0  0
  191.0140  176.7150  142.8720 C   0  0  1  0  0  3  0  0  0  0  0  0
  186.7580  176.2480  142.3880 C   0  0  0  0  0  2  0  0  0  0  0  0
  192.7360  173.2410  142.7000 C   0  0  2  0  0  3  0  0  0  0  0  0
  186.3140  178.5930  143.0800 C   0  0  0  0  0  1  0  0  0  0  0  0
  192.6020  177.5410  144.7170 C   0  0  0  0  0  2  0  0  0  0  0  0
  192.9210  174.4480  146.4080 O   0  0  0  0  0  1  0  0  0  0  0  0
  191.2090  176.9950  144.3740 C   0  0  2  0  0  3  0  0  0  0  0  0
  191.7110  172.3720  143.0970 O   0  0  0  0  0  0  0  0  0  0  0  0
  195.1810  172.6730  142.3500 C   0  0  0  0  0  3  0  0  0  0  0  0
  194.0450  172.6590  143.1730 C   0  0  0  0  0  0  0  0  0  0  0  0
  194.1220  172.0920  144.4490 C   0  0  0  0  0  3  0  0  0  0  0  0
  195.3930  170.9910  146.1380 F   0  0  0  0  0  0  0  0  0  0  0  0
  196.4530  171.5530  144.0780 C   0  0  0  0  0  3  0  0  0  0  0  0
  195.3240  171.5390  144.9020 C   0  0  0  0  0  0  0  0  0  0  0  0
  196.3820  172.1200  142.8020 C   0  0  0  0  0  3  0  0  0  0  0  0
  189.3160  174.5410  146.5480 C   0  0  0  0  0  1  0  0  0  0  0  0
  189.9940  175.3010  147.5020 O   0  0  0  0  0  0  0  0  0  0  0  0
  1  4  1  0  0  0  0
  2 14  1  0  0  0  0
  3  9  1  0  0  0  0
  4 12  1  0  0  0  0
  4 37  1  1  0  0  0
  5 19  1  0  0  0  0
  6  9  2  0  0  0  0
  6 22  1  0  0  0  0
  7  3  1  1  0  0  0
  7 21  1  0  0  0  0
  7 10  1  0  0  0  0
  8 26  1  6  0  0  0
  8 12  1  0  0  0  0
  9 13  1  0  0  0  0
 10  5  1  6  0  0  0
 11  6  1  0  0  0  0
 13 17  1  0  0  0  0
 15 20  1  0  0  0  0
 15 28  1  0  0  0  0
 16 11  2  0  0  0  0
 16 20  1  0  0  0  0
 17  2  1  0  0  0  0
 18 19  1  6  0  0  0
 18  8  1  0  0  0  0
 20  3  2  0  0  0  0
 21 13  1  1  0  0  0
 21 27  1  0  0  0  0
 22  2  1  0  0  0  0
 23 28  1  0  0  0  0
 23 30  1  1  0  0  0
 23 10  1  0  0  0  0
 24  2  1  0  0  0  0
 25 18  1  0  0  0  0
 27 25  1  6  0  0  0
 27  1  1  0  0  0  0
 29 35  2  0  0  0  0
 29 30  1  0  0  0  0
 30 31  2  0  0  0  0
 31 34  1  0  0  0  0
 33 34  2  0  0  0  0
 34 32  1  0  0  0  0
 35 33  1  0  0  0  0
 36 37  1  0  0  0  0
M  END
>  <MODEL>
1

>  <REMARK>
 VINA RESULT:      -8.3      0.000      0.000
  Name = 
  2 active torsions:
  status: ('A' for Active; 'I' for Inactive)
    1  A    between atoms: C_4  and  O_37
    2  A    between atoms: C_23  and  C_30
                            x       y       z     vdW  Elec       q    Type
                         _______ _______ _______ _____ _____    ______ ____

>  <TORSDO>
F 2

$$$$
=
 OpenBabel11112417123D

 37 43  0  0  1  0  0  0  0  0999 V2000
  192.6950  172.7340  142.6330 C   0  0  0  0  0  2  0  0  0  0  0  0
  196.1920  173.6040  140.3910 C   0  0  0  0  0  0  0  0  0  0  0  0
  193.9680  175.8110  143.1150 C   0  0  0  0  0  0  0  0  0  0  0  0
  192.3550  171.2420  142.6310 C   0  0  2  0  0  3  0  0  0  0  0  0
  190.2550  175.6810  142.7280 C   0  0  0  0  0  2  0  0  0  0  0  0
  196.1770  175.1730  142.3860 C   0  0  0  0  0  0  0  0  0  0  0  0
  192.5650  175.8130  142.5550 C   0  0  2  0  0  3  0  0  0  0  0  0
  189.9650  172.0580  143.2340 C   0  0  2  0  0  3  0  0  0  0  0  0
  194.8200  175.3340  142.1690 C   0  0  0  0  0  0  0  0  0  0  0  0
  191.4820  175.4010  143.4770 N   0  0  1  0  0  0  0  0  0  0  0  0
  196.7100  175.6140  143.6070 C   0  0  0  0  0  3  0  0  0  0  0  0
  190.8460  170.9350  142.6720 C   0  0  0  0  0  2  0  0  0  0  0  0
  194.1580  174.8750  141.0220 N   0  0  0  0  0  0  0  0  0  0  0  0
  195.8930  172.3140  141.1380 C   0  0  0  0  0  1  0  0  0  0  0  0
  193.5430  176.7850  145.3770 C   0  0  0  0  0  2  0  0  0  0  0  0
  195.8520  176.1630  144.5840 C   0  0  0  0  0  3  0  0  0  0  0  0
  194.8700  174.2430  139.9110 C   0  0  0  0  0  2  0  0  0  0  0  0
  189.7610  173.2180  142.2410 C   0  0  1  0  0  3  0  0  0  0  0  0
  189.2620  174.5310  142.8480 C   0  0  0  0  0  2  0  0  0  0  0  0
  194.4680  176.2640  144.3400 C   0  0  0  0  0  0  0  0  0  0  0  0
  192.7170  174.9160  141.2630 C   0  0  1  0  0  3  0  0  0  0  0  0
  197.0110  174.5560  141.2970 C   0  0  0  0  0  2  0  0  0  0  0  0
  191.4920  176.2550  144.6930 C   0  0  2  0  0  3  0  0  0  0  0  0
  197.0270  173.2620  139.1750 C   0  0  0  0  0  1  0  0  0  0  0  0
  190.7140  173.3220  141.0380 C   0  0  0  0  0  2  0  0  0  0  0  0
  190.4460  172.5010  144.4700 O   0  0  0  0  0  1  0  0  0  0  0  0
  192.2020  173.4700  141.3820 C   0  0  2  0  0  3  0  0  0  0  0  0
  192.5180  175.8560  145.5610 O   0  0  0  0  0  0  0  0  0  0  0  0
  189.2200  177.2140  145.2730 C   0  0  0  0  0  3  0  0  0  0  0  0
  190.1970  176.2260  145.4640 C   0  0  0  0  0  0  0  0  0  0  0  0
  189.9710  175.2000  146.3880 C   0  0  0  0  0  3  0  0  0  0  0  0
  188.5670  174.1660  148.0120 F   0  0  0  0  0  0  0  0  0  0  0  0
  187.8100  176.1490  146.9280 C   0  0  0  0  0  3  0  0  0  0  0  0
  188.7800  175.1610  147.1190 C   0  0  0  0  0  0  0  0  0  0  0  0
  188.0300  177.1750  146.0040 C   0  0  0  0  0  3  0  0  0  0  0  0
  193.8250  171.6080  144.2450 C   0  0  0  0  0  1  0  0  0  0  0  0
  192.9810  170.6290  143.7180 O   0  0  0  0  0  0  0  0  0  0  0  0
  2 14  1  0  0  0  0
  2 22  1  0  0  0  0
  3 20  1  0  0  0  0
  4  1  1  0  0  0  0
  4 12  1  0  0  0  0
  4 37  1  1  0  0  0
  5 19  1  0  0  0  0
  6 11  2  0  0  0  0
  7  3  1  1  0  0  0
  7 10  1  0  0  0  0
  8 26  1  1  0  0  0
  9  6  1  0  0  0  0
  9  3  2  0  0  0  0
 10  5  1  6  0  0  0
 10 23  1  0  0  0  0
 11 16  1  0  0  0  0
 12  8  1  0  0  0  0
 13  9  1  0  0  0  0
 15 28  1  0  0  0  0
 17  2  1  0  0  0  0
 17 13  1  0  0  0  0
 18 25  1  1  0  0  0
 18 19  1  0  0  0  0
 18  8  1  0  0  0  0
 20 16  2  0  0  0  0
 20 15  1  0  0  0  0
 21 13  1  1  0  0  0
 21 27  1  0  0  0  0
 21  7  1  0  0  0  0
 22  6  1  0  0  0  0
 23 30  1  1  0  0  0
 23 28  1  0  0  0  0
 24  2  1  0  0  0  0
 27 25  1  1  0  0  0
 27  1  1  0  0  0  0
 29 30  2  0  0  0  0
 29 35  1  0  0  0  0
 30 31  1  0  0  0  0
 31 34  2  0  0  0  0
 33 34  1  0  0  0  0
 34 32  1  0  0  0  0
 35 33  2  0  0  0  0
 37 36  1  0  0  0  0
M  END
>  <MODEL>
2

>  <REMARK>
 VINA RESULT:      -7.9      2.176      7.000
  Name = 
  2 active torsions:
  status: ('A' for Active; 'I' for Inactive)
    1  A    between atoms: C_4  and  O_37
    2  A    between atoms: C_23  and  C_30
                            x       y       z     vdW  Elec       q    Type
                         _______ _______ _______ _____ _____    ______ ____

>  <TORSDO>
F 2

$$$$
=
 OpenBabel11112417123D

 37 43  0  0  1  0  0  0  0  0999 V2000
  192.4110  174.7310  143.5160 C   0  0  0  0  0  2  0  0  0  0  0  0
  193.6790  170.6810  143.4440 C   0  0  0  0  0  0  0  0  0  0  0  0
  190.1150  172.5390  142.3990 C   0  0  0  0  0  0  0  0  0  0  0  0
  193.5750  175.7040  143.7110 C   0  0  2  0  0  3  0  0  0  0  0  0
  188.8170  175.1100  144.7780 C   0  0  0  0  0  2  0  0  0  0  0  0
  191.7700  170.8930  141.7860 C   0  0  0  0  0  0  0  0  0  0  0  0
  189.6910  173.2840  143.6430 C   0  0  2  0  0  3  0  0  0  0  0  0
  191.7270  177.3330  144.5300 C   0  0  2  0  0  3  0  0  0  0  0  0
  191.1330  171.6950  142.7170 C   0  0  0  0  0  0  0  0  0  0  0  0
  189.3630  174.7190  143.4760 N   0  0  1  0  0  0  0  0  0  0  0  0
  191.2750  170.8830  140.4730 C   0  0  0  0  0  3  0  0  0  0  0  0
  193.2170  176.9690  144.5140 C   0  0  0  0  0  2  0  0  0  0  0  0
  191.5700  171.8430  144.0400 N   0  0  0  0  0  0  0  0  0  0  0  0
  194.4820  171.8890  142.9920 C   0  0  0  0  0  1  0  0  0  0  0  0
  188.4870  173.4680  140.7480 C   0  0  0  0  0  2  0  0  0  0  0  0
  190.1840  171.7120  140.1320 C   0  0  0  0  0  3  0  0  0  0  0  0
  192.7100  171.0960  144.5730 C   0  0  0  0  0  2  0  0  0  0  0  0
  190.8970  176.4340  145.4660 C   0  0  1  0  0  3  0  0  0  0  0  0
  189.3840  176.4500  145.2320 C   0  0  0  0  0  2  0  0  0  0  0  0
  189.5970  172.5490  141.1010 C   0  0  0  0  0  0  0  0  0  0  0  0
  190.8830  172.9860  144.6380 C   0  0  1  0  0  3  0  0  0  0  0  0
  192.9390  170.0600  142.2330 C   0  0  0  0  0  2  0  0  0  0  0  0
  188.2960  174.8850  142.4550 C   0  0  2  0  0  3  0  0  0  0  0  0
  194.6430  169.6520  143.9950 C   0  0  0  0  0  1  0  0  0  0  0  0
  191.5170  175.1090  145.9400 C   0  0  0  0  0  2  0  0  0  0  0  0
  191.2060  177.3670  143.2330 O   0  0  0  0  0  1  0  0  0  0  0  0
  191.9020  174.1230  144.8280 C   0  0  2  0  0  3  0  0  0  0  0  0
  188.8300  174.7550  141.1660 O   0  0  0  0  0  0  0  0  0  0  0  0
  188.1710  177.3750  142.0060 C   0  0  0  0  0  3  0  0  0  0  0  0
  187.5860  176.2130  142.5300 C   0  0  0  0  0  0  0  0  0  0  0  0
  186.3280  176.2850  143.1380 C   0  0  0  0  0  3  0  0  0  0  0  0
  184.4410  177.5740  143.8150 F   0  0  0  0  0  0  0  0  0  0  0  0
  186.2460  178.6660  142.7040 C   0  0  0  0  0  3  0  0  0  0  0  0
  185.6580  177.5090  143.2260 C   0  0  0  0  0  0  0  0  0  0  0  0
  187.5020  178.5990  142.0940 C   0  0  0  0  0  3  0  0  0  0  0  0
  195.4630  176.0410  142.6070 C   0  0  0  0  0  1  0  0  0  0  0  0
  194.0750  176.0760  142.4620 O   0  0  0  0  0  0  0  0  0  0  0  0
  1  4  1  0  0  0  0
  2 24  1  0  0  0  0
  2 17  1  0  0  0  0
  3  9  1  0  0  0  0
  4 37  1  6  0  0  0
  4 12  1  0  0  0  0
  5 19  1  0  0  0  0
  6 22  1  0  0  0  0
  6  9  2  0  0  0  0
  7  3  1  6  0  0  0
  7 21  1  0  0  0  0
  8 26  1  6  0  0  0
  8 18  1  0  0  0  0
  9 13  1  0  0  0  0
 10  7  1  0  0  0  0
 10  5  1  1  0  0  0
 11  6  1  0  0  0  0
 12  8  1  0  0  0  0
 13 17  1  0  0  0  0
 14  2  1  0  0  0  0
 15 20  1  0  0  0  0
 15 28  1  0  0  0  0
 16 11  2  0  0  0  0
 16 20  1  0  0  0  0
 18 19  1  6  0  0  0
 18 25  1  0  0  0  0
 20  3  2  0  0  0  0
 21 13  1  6  0  0  0
 21 27  1  0  0  0  0
 22  2  1  0  0  0  0
 23 30  1  6  0  0  0
 23 10  1  0  0  0  0
 27  1  1  6  0  0  0
 27 25  1  0  0  0  0
 28 23  1  0  0  0  0
 29 35  2  0  0  0  0
 29 30  1  0  0  0  0
 30 31  2  0  0  0  0
 31 34  1  0  0  0  0
 33 34  2  0  0  0  0
 34 32  1  0  0  0  0
 35 33  1  0  0  0  0
 37 36  1  0  0  0  0
M  END
>  <MODEL>
3

>  <REMARK>
 VINA RESULT:      -7.8      2.920      6.766
  Name = 
  2 active torsions:
  status: ('A' for Active; 'I' for Inactive)
    1  A    between atoms: C_4  and  O_37
    2  A    between atoms: C_23  and  C_30
                            x       y       z     vdW  Elec       q    Type
                         _______ _______ _______ _____ _____    ______ ____

>  <TORSDO>
F 2

$$$$
=
 OpenBabel11112417123D

 37 43  0  0  1  0  0  0  0  0999 V2000
  191.9550  173.1270  143.2110 C   0  0  0  0  0  2  0  0  0  0  0  0
  196.0900  173.5230  142.3400 C   0  0  0  0  0  0  0  0  0  0  0  0
  193.4090  175.9030  144.4350 C   0  0  0  0  0  0  0  0  0  0  0  0
  191.4290  171.7190  142.9250 C   0  0  2  0  0  3  0  0  0  0  0  0
  190.0670  176.4380  142.8540 C   0  0  0  0  0  2  0  0  0  0  0  0
  195.6220  174.9420  144.3910 C   0  0  0  0  0  0  0  0  0  0  0  0
  192.2940  176.1810  143.4550 C   0  0  2  0  0  3  0  0  0  0  0  0
  189.1160  172.8930  142.8120 C   0  0  2  0  0  3  0  0  0  0  0  0
  194.4550  175.3470  143.7670 C   0  0  0  0  0  0  0  0  0  0  0  0
  190.9160  175.9030  143.9220 N   0  0  1  0  0  0  0  0  0  0  0  0
  195.7660  175.2070  145.7610 C   0  0  0  0  0  3  0  0  0  0  0  0
  189.9680  171.6730  142.4380 C   0  0  0  0  0  2  0  0  0  0  0  0
  194.1630  175.0820  142.4220 N   0  0  0  0  0  0  0  0  0  0  0  0
  195.3770  172.2590  142.7940 C   0  0  0  0  0  1  0  0  0  0  0  0
  192.3860  176.7910  146.5350 C   0  0  0  0  0  2  0  0  0  0  0  0
  194.7150  175.8320  146.4660 C   0  0  0  0  0  3  0  0  0  0  0  0
  195.1120  174.4090  141.5360 C   0  0  0  0  0  2  0  0  0  0  0  0
  189.4260  174.1310  141.9490 C   0  0  1  0  0  3  0  0  0  0  0  0
  188.9410  175.4700  142.5110 C   0  0  0  0  0  2  0  0  0  0  0  0
  193.5240  176.1840  145.8000 C   0  0  0  0  0  0  0  0  0  0  0  0
  192.7470  175.3550  142.1860 C   0  0  1  0  0  3  0  0  0  0  0  0
  196.6800  174.2610  143.5660 C   0  0  0  0  0  2  0  0  0  0  0  0
  190.6340  176.6650  145.1670 C   0  0  2  0  0  3  0  0  0  0  0  0
  197.2300  173.1210  141.4290 C   0  0  0  0  0  1  0  0  0  0  0  0
  190.7340  174.1460  141.1400 C   0  0  0  0  0  2  0  0  0  0  0  0
  189.2080  173.1680  144.1800 O   0  0  0  0  0  1  0  0  0  0  0  0
  192.0230  174.0140  141.9630 C   0  0  2  0  0  3  0  0  0  0  0  0
  191.2390  176.0420  146.2670 O   0  0  0  0  0  0  0  0  0  0  0  0
  188.5040  175.8970  146.3040 C   0  0  0  0  0  3  0  0  0  0  0  0
  189.1640  176.8100  145.4680 C   0  0  0  0  0  0  0  0  0  0  0  0
  188.4480  177.8690  144.8990 C   0  0  0  0  0  3  0  0  0  0  0  0
  186.3940  179.0410  144.6050 F   0  0  0  0  0  0  0  0  0  0  0  0
  186.4280  177.1020  145.9900 C   0  0  0  0  0  3  0  0  0  0  0  0
  187.0820  178.0150  145.1580 C   0  0  0  0  0  0  0  0  0  0  0  0
  187.1390  176.0430  146.5630 C   0  0  0  0  0  3  0  0  0  0  0  0
  192.5810  170.0360  143.7850 C   0  0  0  0  0  1  0  0  0  0  0  0
  191.5570  170.9390  144.0760 O   0  0  0  0  0  0  0  0  0  0  0  0
  2 14  1  0  0  0  0
  2 22  1  0  0  0  0
  3 20  1  0  0  0  0
  4  1  1  0  0  0  0
  4 37  1  1  0  0  0
  6 11  2  0  0  0  0
  7 10  1  0  0  0  0
  7  3  1  1  0  0  0
  8 26  1  1  0  0  0
  9  6  1  0  0  0  0
  9  3  2  0  0  0  0
 10  5  1  6  0  0  0
 10 23  1  0  0  0  0
 11 16  1  0  0  0  0
 12  8  1  0  0  0  0
 12  4  1  0  0  0  0
 13  9  1  0  0  0  0
 17  2  1  0  0  0  0
 17 13  1  0  0  0  0
 18 25  1  1  0  0  0
 18 19  1  0  0  0  0
 18  8  1  0  0  0  0
 19  5  1  0  0  0  0
 20 16  2  0  0  0  0
 20 15  1  0  0  0  0
 21 13  1  1  0  0  0
 21  7  1  0  0  0  0
 22  6  1  0  0  0  0
 23 30  1  1  0  0  0
 23 28  1  0  0  0  0
 24  2  1  0  0  0  0
 27 25  1  1  0  0  0
 27 21  1  0  0  0  0
 27  1  1  0  0  0  0
 28 15  1  0  0  0  0
 29 35  1  0  0  0  0
 30 29  2  0  0  0  0
 31 34  2  0  0  0  0
 31 30  1  0  0  0  0
 32 34  1  0  0  0  0
 33 35  2  0  0  0  0
 34 33  1  0  0  0  0
 36 37  1  0  0  0  0
M  END
>  <MODEL>
4

>  <REMARK>
 VINA RESULT:      -7.7      2.516      7.308
  Name = 
  2 active torsions:
  status: ('A' for Active; 'I' for Inactive)
    1  A    between atoms: C_4  and  O_37
    2  A    between atoms: C_23  and  C_30
                            x       y       z     vdW  Elec       q    Type
                         _______ _______ _______ _____ _____    ______ ____

>  <TORSDO>
F 2

$$$$
=
 OpenBabel11112417123D

 37 43  0  0  1  0  0  0  0  0999 V2000
  194.1820  174.9380  144.6650 C   0  0  0  0  0  2  0  0  0  0  0  0
  196.2910  171.2550  144.6450 C   0  0  0  0  0  0  0  0  0  0  0  0
  192.7490  172.4860  142.8620 C   0  0  0  0  0  0  0  0  0  0  0  0
  195.0260  176.0920  145.2110 C   0  0  2  0  0  3  0  0  0  0  0  0
  190.4010  174.4510  145.0020 C   0  0  0  0  0  2  0  0  0  0  0  0
  194.8210  171.2820  142.5770 C   0  0  0  0  0  0  0  0  0  0  0  0
  191.8940  172.9810  144.0050 C   0  0  2  0  0  3  0  0  0  0  0  0
  192.7260  177.2170  145.6440 C   0  0  2  0  0  3  0  0  0  0  0  0
  193.8250  171.8270  143.3690 C   0  0  0  0  0  0  0  0  0  0  0  0
  191.3070  174.3320  143.8560 N   0  0  1  0  0  0  0  0  0  0  0  0
  194.6590  171.3310  141.1840 C   0  0  0  0  0  3  0  0  0  0  0  0
  194.2220  177.1580  145.9800 C   0  0  0  0  0  2  0  0  0  0  0  0
  193.8990  171.9000  144.7660 N   0  0  0  0  0  0  0  0  0  0  0  0
  196.8920  172.6420  144.4920 C   0  0  0  0  0  1  0  0  0  0  0  0
  191.3850  173.2650  140.9190 C   0  0  0  0  0  2  0  0  0  0  0  0
  193.5230  171.9630  140.6350 C   0  0  0  0  0  3  0  0  0  0  0  0
  195.0190  171.3340  145.5190 C   0  0  0  0  0  2  0  0  0  0  0  0
  191.9200  176.0680  146.2780 C   0  0  1  0  0  3  0  0  0  0  0  0
  190.5380  175.8130  145.6720 C   0  0  0  0  0  2  0  0  0  0  0  0
  192.5570  172.5470  141.4780 C   0  0  0  0  0  0  0  0  0  0  0  0
  192.8580  172.8060  145.2460 C   0  0  1  0  0  3  0  0  0  0  0  0
  196.0080  170.6490  143.2480 C   0  0  0  0  0  2  0  0  0  0  0  0
  190.4960  174.4040  142.6130 C   0  0  2  0  0  3  0  0  0  0  0  0
  197.3020  170.3780  145.3520 C   0  0  0  0  0  1  0  0  0  0  0  0
  192.6890  174.8430  146.8040 C   0  0  0  0  0  2  0  0  0  0  0  0
  192.5270  177.3010  144.2630 O   0  0  0  0  0  1  0  0  0  0  0  0
  193.5290  174.0920  145.7630 C   0  0  2  0  0  3  0  0  0  0  0  0
  191.3300  174.5360  141.4940 O   0  0  0  0  0  0  0  0  0  0  0  0
  189.9460  176.8680  142.3910 C   0  0  0  0  0  3  0  0  0  0  0  0
  189.5140  175.5490  142.5950 C   0  0  0  0  0  0  0  0  0  0  0  0
  188.1540  175.2880  142.7900 C   0  0  0  0  0  3  0  0  0  0  0  0
  185.9140  176.0800  142.9760 F   0  0  0  0  0  0  0  0  0  0  0  0
  187.6630  177.6500  142.5860 C   0  0  0  0  0  3  0  0  0  0  0  0
  187.2290  176.3370  142.7860 C   0  0  0  0  0  0  0  0  0  0  0  0
  189.0220  177.9160  142.3880 C   0  0  0  0  0  3  0  0  0  0  0  0
  195.5300  175.8400  143.0710 C   0  0  0  0  0  1  0  0  0  0  0  0
  195.7090  176.7000  144.1560 O   0  0  0  0  0  0  0  0  0  0  0  0
  1  4  1  0  0  0  0
  2 24  1  0  0  0  0
  2 17  1  0  0  0  0
  3  9  1  0  0  0  0
  4 37  1  6  0  0  0
  4 12  1  0  0  0  0
  5 19  1  0  0  0  0
  6 22  1  0  0  0  0
  6  9  2  0  0  0  0
  7  3  1  6  0  0  0
  7 21  1  0  0  0  0
  8 26  1  6  0  0  0
  8 12  1  0  0  0  0
  8 18  1  0  0  0  0
  9 13  1  0  0  0  0
 10  7  1  0  0  0  0
 10  5  1  1  0  0  0
 11  6  1  0  0  0  0
 13 17  1  0  0  0  0
 14  2  1  0  0  0  0
 15 20  1  0  0  0  0
 15 28  1  0  0  0  0
 16 11  2  0  0  0  0
 16 20  1  0  0  0  0
 18 19  1  6  0  0  0
 18 25  1  0  0  0  0
 20  3  2  0  0  0  0
 21 13  1  6  0  0  0
 21 27  1  0  0  0  0
 22  2  1  0  0  0  0
 23 30  1  1  0  0  0
 23 10  1  0  0  0  0
 27  1  1  6  0  0  0
 27 25  1  0  0  0  0
 28 23  1  0  0  0  0
 29 30  1  0  0  0  0
 30 31  2  0  0  0  0
 33 34  2  0  0  0  0
 34 31  1  0  0  0  0
 34 32  1  0  0  0  0
 35 29  2  0  0  0  0
 35 33  1  0  0  0  0
 36 37  1  0  0  0  0
M  END
>  <MODEL>
5

>  <REMARK>
 VINA RESULT:      -7.4      2.507      6.792
  Name = 
  2 active torsions:
  status: ('A' for Active; 'I' for Inactive)
    1  A    between atoms: C_4  and  O_37
    2  A    between atoms: C_23  and  C_30
                            x       y       z     vdW  Elec       q    Type
                         _______ _______ _______ _____ _____    ______ ____

>  <TORSDO>
F 2

$$$$
=
 OpenBabel11112417123D

 37 43  0  0  1  0  0  0  0  0999 V2000
  190.0590  173.9540  143.1850 C   0  0  0  0  0  2  0  0  0  0  0  0
  194.2900  173.8500  143.5130 C   0  0  0  0  0  0  0  0  0  0  0  0
  191.4030  176.4020  145.0620 C   0  0  0  0  0  0  0  0  0  0  0  0
  189.4860  172.6570  142.6100 C   0  0  2  0  0  3  0  0  0  0  0  0
  188.7210  177.5080  142.7090 C   0  0  0  0  0  2  0  0  0  0  0  0
  193.4200  175.1540  145.5080 C   0  0  0  0  0  0  0  0  0  0  0  0
  190.6470  176.9050  143.8550 C   0  0  2  0  0  3  0  0  0  0  0  0
  187.4410  174.1410  142.0110 C   0  0  2  0  0  3  0  0  0  0  0  0
  192.5280  175.7620  144.6430 C   0  0  0  0  0  0  0  0  0  0  0  0
  189.1720  176.7810  143.8990 N   0  0  1  0  0  0  0  0  0  0  0  0
  193.2000  175.2890  146.8880 C   0  0  0  0  0  3  0  0  0  0  0  0
  188.2250  172.8490  141.7450 C   0  0  0  0  0  2  0  0  0  0  0  0
  192.6000  175.6460  143.2480 N   0  0  0  0  0  0  0  0  0  0  0  0
  193.3450  172.6640  143.6120 C   0  0  0  0  0  1  0  0  0  0  0  0
  189.9330  177.2530  146.8940 C   0  0  0  0  0  2  0  0  0  0  0  0
  192.0670  175.9950  147.3480 C   0  0  0  0  0  3  0  0  0  0  0  0
  193.6810  174.9210  142.5800 C   0  0  0  0  0  2  0  0  0  0  0  0
  188.1140  175.3890  141.4090 C   0  0  1  0  0  3  0  0  0  0  0  0
  187.6390  176.7320  141.9670 C   0  0  0  0  0  2  0  0  0  0  0  0
  191.1590  176.5570  146.4300 C   0  0  0  0  0  0  0  0  0  0  0  0
  191.3460  176.1260  142.6710 C   0  0  1  0  0  3  0  0  0  0  0  0
  194.5860  174.4030  144.9290 C   0  0  0  0  0  2  0  0  0  0  0  0
  188.6350  177.4740  145.0990 C   0  0  2  0  0  3  0  0  0  0  0  0
  195.5890  173.3690  142.9040 C   0  0  0  0  0  1  0  0  0  0  0  0
  189.5910  175.2880  140.9900 C   0  0  0  0  0  2  0  0  0  0  0  0
  187.1730  174.2920  143.3750 O   0  0  0  0  0  1  0  0  0  0  0  0
  190.5730  174.9180  142.1100 C   0  0  2  0  0  3  0  0  0  0  0  0
  188.8330  176.6910  146.2440 O   0  0  0  0  0  0  0  0  0  0  0  0
  186.1960  176.8690  145.4230 C   0  0  0  0  0  3  0  0  0  0  0  0
  187.1640  177.7940  145.0060 C   0  0  0  0  0  0  0  0  0  0  0  0
  186.7620  179.0310  144.4900 C   0  0  0  0  0  3  0  0  0  0  0  0
  185.0190  180.5410  143.8880 F   0  0  0  0  0  0  0  0  0  0  0  0
  184.4410  178.4170  144.8030 C   0  0  0  0  0  3  0  0  0  0  0  0
  185.4030  179.3430  144.3880 C   0  0  0  0  0  0  0  0  0  0  0  0
  184.8380  177.1800  145.3210 C   0  0  0  0  0  3  0  0  0  0  0  0
  189.7680  172.3710  144.7860 C   0  0  0  0  0  1  0  0  0  0  0  0
  189.1980  171.7800  143.6570 O   0  0  0  0  0  0  0  0  0  0  0  0
  2 14  1  0  0  0  0
  2 22  1  0  0  0  0
  3 20  1  0  0  0  0
  4  1  1  0  0  0  0
  4 37  1  1  0  0  0
  6 11  2  0  0  0  0
  7 10  1  0  0  0  0
  7  3  1  1  0  0  0
  8 26  1  1  0  0  0
  9  3  2  0  0  0  0
  9  6  1  0  0  0  0
 10  5  1  6  0  0  0
 10 23  1  0  0  0  0
 11 16  1  0  0  0  0
 12  8  1  0  0  0  0
 12  4  1  0  0  0  0
 13  9  1  0  0  0  0
 17 13  1  0  0  0  0
 17  2  1  0  0  0  0
 18 25  1  1  0  0  0
 18 19  1  0  0  0  0
 18  8  1  0  0  0  0
 19  5  1  0  0  0  0
 20 15  1  0  0  0  0
 20 16  2  0  0  0  0
 21 13  1  1  0  0  0
 21  7  1  0  0  0  0
 22  6  1  0  0  0  0
 23 30  1  6  0  0  0
 23 28  1  0  0  0  0
 24  2  1  0  0  0  0
 27 25  1  1  0  0  0
 27 21  1  0  0  0  0
 27  1  1  0  0  0  0
 28 15  1  0  0  0  0
 30 29  2  0  0  0  0
 31 30  1  0  0  0  0
 32 34  1  0  0  0  0
 33 35  2  0  0  0  0
 34 31  2  0  0  0  0
 34 33  1  0  0  0  0
 35 29  1  0  0  0  0
 37 36  1  0  0  0  0
M  END
>  <MODEL>
6

>  <REMARK>
 VINA RESULT:      -7.4      2.824      7.575
  Name = 
  2 active torsions:
  status: ('A' for Active; 'I' for Inactive)
    1  A    between atoms: C_4  and  O_37
    2  A    between atoms: C_23  and  C_30
                            x       y       z     vdW  Elec       q    Type
                         _______ _______ _______ _____ _____    ______ ____

>  <TORSDO>
F 2

$$$$
=
 OpenBabel11112417123D

 37 43  0  0  1  0  0  0  0  0999 V2000
  193.4810  174.6560  144.0210 C   0  0  0  0  0  2  0  0  0  0  0  0
  195.3340  170.8420  144.1980 C   0  0  0  0  0  0  0  0  0  0  0  0
  191.6810  172.1350  142.7080 C   0  0  0  0  0  0  0  0  0  0  0  0
  194.4580  175.7950  144.3220 C   0  0  2  0  0  3  0  0  0  0  0  0
  189.7490  174.5040  144.8560 C   0  0  0  0  0  2  0  0  0  0  0  0
  193.6200  170.7510  142.3290 C   0  0  0  0  0  0  0  0  0  0  0  0
  191.0100  172.8200  143.8750 C   0  0  2  0  0  3  0  0  0  0  0  0
  192.3060  177.1360  144.8830 C   0  0  2  0  0  3  0  0  0  0  0  0
  192.7680  171.4560  143.1610 C   0  0  0  0  0  0  0  0  0  0  0  0
  190.4940  174.1870  143.6350 N   0  0  1  0  0  0  0  0  0  0  0  0
  193.2880  170.6560  140.9690 C   0  0  0  0  0  3  0  0  0  0  0  0
  193.8260  176.9990  145.0460 C   0  0  0  0  0  2  0  0  0  0  0  0
  193.0220  171.6800  144.5200 N   0  0  0  0  0  0  0  0  0  0  0  0
  195.9970  172.1530  143.8090 C   0  0  0  0  0  1  0  0  0  0  0  0
  190.1360  172.7960  140.8590 C   0  0  0  0  0  2  0  0  0  0  0  0
  192.1340  171.3080  140.4850 C   0  0  0  0  0  3  0  0  0  0  0  0
  194.1900  171.1170  145.1990 C   0  0  0  0  0  2  0  0  0  0  0  0
  191.5160  176.1300  145.7410 C   0  0  1  0  0  3  0  0  0  0  0  0
  190.0550  175.9170  145.3370 C   0  0  0  0  0  2  0  0  0  0  0  0
  191.3210  172.0560  141.3590 C   0  0  0  0  0  0  0  0  0  0  0  0
  192.1080  172.7110  145.0060 C   0  0  1  0  0  3  0  0  0  0  0  0
  194.8400  170.1070  142.9270 C   0  0  0  0  0  2  0  0  0  0  0  0
  189.5400  174.1820  142.4960 C   0  0  2  0  0  3  0  0  0  0  0  0
  196.3690  169.9740  144.8810 C   0  0  0  0  0  1  0  0  0  0  0  0
  192.2660  174.9170  146.3170 C   0  0  0  0  0  2  0  0  0  0  0  0
  191.9410  177.0800  143.5340 O   0  0  0  0  0  1  0  0  0  0  0  0
  192.9190  173.9910  145.2820 C   0  0  2  0  0  3  0  0  0  0  0  0
  190.2340  174.1230  141.2790 O   0  0  0  0  0  0  0  0  0  0  0  0
  187.2810  175.2890  142.7960 C   0  0  0  0  0  3  0  0  0  0  0  0
  188.6380  175.3900  142.4550 C   0  0  0  0  0  0  0  0  0  0  0  0
  189.1640  176.6260  142.0670 C   0  0  0  0  0  3  0  0  0  0  0  0
  188.8550  178.9500  141.6370 F   0  0  0  0  0  0  0  0  0  0  0  0
  186.9890  177.6510  142.3520 C   0  0  0  0  0  3  0  0  0  0  0  0
  188.3410  177.7560  142.0140 C   0  0  0  0  0  0  0  0  0  0  0  0
  186.4590  176.4180  142.7430 C   0  0  0  0  0  3  0  0  0  0  0  0
  196.3800  176.4530  143.4440 C   0  0  0  0  0  1  0  0  0  0  0  0
  195.0390  176.2270  143.1280 O   0  0  0  0  0  0  0  0  0  0  0  0
  1  4  1  0  0  0  0
  2 24  1  0  0  0  0
  2 17  1  0  0  0  0
  3  9  1  0  0  0  0
  4 37  1  6  0  0  0
  4 12  1  0  0  0  0
  5 19  1  0  0  0  0
  6 22  1  0  0  0  0
  6  9  2  0  0  0  0
  7  3  1  6  0  0  0
  7 21  1  0  0  0  0
  8 26  1  6  0  0  0
  8 12  1  0  0  0  0
  8 18  1  0  0  0  0
  9 13  1  0  0  0  0
 10  7  1  0  0  0  0
 10  5  1  1  0  0  0
 11  6  1  0  0  0  0
 13 17  1  0  0  0  0
 14  2  1  0  0  0  0
 15 28  1  0  0  0  0
 15 20  1  0  0  0  0
 16 11  2  0  0  0  0
 16 20  1  0  0  0  0
 18 19  1  6  0  0  0
 18 25  1  0  0  0  0
 20  3  2  0  0  0  0
 21 13  1  6  0  0  0
 21 27  1  0  0  0  0
 22  2  1  0  0  0  0
 23 30  1  6  0  0  0
 23 10  1  0  0  0  0
 27  1  1  6  0  0  0
 27 25  1  0  0  0  0
 28 23  1  0  0  0  0
 30 29  2  0  0  0  0
 31 30  1  0  0  0  0
 32 34  1  0  0  0  0
 33 35  2  0  0  0  0
 34 31  2  0  0  0  0
 34 33  1  0  0  0  0
 35 29  1  0  0  0  0
 37 36  1  0  0  0  0
M  END
>  <MODEL>
7

>  <REMARK>
 VINA RESULT:      -7.2      2.617      6.768
  Name = 
  2 active torsions:
  status: ('A' for Active; 'I' for Inactive)
    1  A    between atoms: C_4  and  O_37
    2  A    between atoms: C_23  and  C_30
                            x       y       z     vdW  Elec       q    Type
                         _______ _______ _______ _____ _____    ______ ____

>  <TORSDO>
F 2

$$$$
=
 OpenBabel11112417123D

 37 43  0  0  1  0  0  0  0  0999 V2000
  194.8540  174.3160  143.6100 C   0  0  0  0  0  2  0  0  0  0  0  0
  196.5010  170.4200  143.2460 C   0  0  0  0  0  0  0  0  0  0  0  0
  192.6310  171.8010  143.8450 C   0  0  0  0  0  0  0  0  0  0  0  0
  195.8330  175.4070  143.1730 C   0  0  2  0  0  3  0  0  0  0  0  0
  192.2050  174.5260  146.3640 C   0  0  0  0  0  2  0  0  0  0  0  0
  194.0400  170.2470  142.6530 C   0  0  0  0  0  0  0  0  0  0  0  0
  192.7160  172.6570  145.0860 C   0  0  2  0  0  3  0  0  0  0  0  0
  194.3480  176.9530  144.6370 C   0  0  2  0  0  3  0  0  0  0  0  0
  193.7880  171.1000  143.7130 C   0  0  0  0  0  0  0  0  0  0  0  0
  192.1520  174.0230  144.9890 N   0  0  1  0  0  0  0  0  0  0  0  0
  193.0120  170.0250  141.7230 C   0  0  0  0  0  3  0  0  0  0  0  0
  195.7050  176.7270  143.9580 C   0  0  0  0  0  2  0  0  0  0  0  0
  194.7510  171.4540  144.6680 N   0  0  0  0  0  0  0  0  0  0  0  0
  196.8370  171.6290  142.3880 C   0  0  0  0  0  1  0  0  0  0  0  0
  190.3210  172.3620  143.0760 C   0  0  0  0  0  2  0  0  0  0  0  0
  191.7820  170.7020  141.8690 C   0  0  0  0  0  3  0  0  0  0  0  0
  196.1000  170.8870  144.6630 C   0  0  0  0  0  2  0  0  0  0  0  0
  194.1640  176.1090  145.9120 C   0  0  1  0  0  3  0  0  0  0  0  0
  192.7240  175.9590  146.4060 C   0  0  0  0  0  2  0  0  0  0  0  0
  191.5860  171.5990  142.9380 C   0  0  0  0  0  0  0  0  0  0  0  0
  194.2560  172.5960  145.4330 C   0  0  1  0  0  3  0  0  0  0  0  0
  195.3880  169.5870  142.5640 C   0  0  0  0  0  2  0  0  0  0  0  0
  190.7270  173.9610  144.5710 C   0  0  2  0  0  3  0  0  0  0  0  0
  197.7420  169.5620  143.3590 C   0  0  0  0  0  1  0  0  0  0  0  0
  195.1090  174.9160  146.1380 C   0  0  0  0  0  2  0  0  0  0  0  0
  193.2990  176.7750  143.7310 O   0  0  0  0  0  1  0  0  0  0  0  0
  195.0830  173.8370  145.0480 C   0  0  2  0  0  3  0  0  0  0  0  0
  190.6330  173.7170  143.1940 O   0  0  0  0  0  0  0  0  0  0  0  0
  190.1340  176.3810  144.1080 C   0  0  0  0  0  3  0  0  0  0  0  0
  189.9510  175.2180  144.8720 C   0  0  0  0  0  0  0  0  0  0  0  0
  189.0400  175.2250  145.9330 C   0  0  0  0  0  3  0  0  0  0  0  0
  187.4380  176.3850  147.2630 F   0  0  0  0  0  0  0  0  0  0  0  0
  188.5050  177.5410  145.4720 C   0  0  0  0  0  3  0  0  0  0  0  0
  188.3190  176.3840  146.2340 C   0  0  0  0  0  0  0  0  0  0  0  0
  189.4130  177.5390  144.4080 C   0  0  0  0  0  3  0  0  0  0  0  0
  196.4380  176.7900  141.5540 C   0  0  0  0  0  1  0  0  0  0  0  0
  195.6580  175.6610  141.8110 O   0  0  0  0  0  0  0  0  0  0  0  0
  2 24  1  0  0  0  0
  2 17  1  0  0  0  0
  4 37  1  6  0  0  0
  4  1  1  0  0  0  0
  4 12  1  0  0  0  0
  5 19  1  0  0  0  0
  6  9  2  0  0  0  0
  7  3  1  6  0  0  0
  7 21  1  0  0  0  0
  8 26  1  6  0  0  0
  8 18  1  0  0  0  0
  9  3  1  0  0  0  0
  9 13  1  0  0  0  0
 10  7  1  0  0  0  0
 10  5  1  1  0  0  0
 11 16  2  0  0  0  0
 11  6  1  0  0  0  0
 12  8  1  0  0  0  0
 14  2  1  0  0  0  0
 15 28  1  0  0  0  0
 16 20  1  0  0  0  0
 17 13  1  0  0  0  0
 18 25  1  6  0  0  0
 18 19  1  0  0  0  0
 20 15  1  0  0  0  0
 20  3  2  0  0  0  0
 21 13  1  6  0  0  0
 22  6  1  0  0  0  0
 22  2  1  0  0  0  0
 23 30  1  6  0  0  0
 23 10  1  0  0  0  0
 27  1  1  6  0  0  0
 27 21  1  0  0  0  0
 27 25  1  0  0  0  0
 28 23  1  0  0  0  0
 29 35  2  0  0  0  0
 29 30  1  0  0  0  0
 30 31  2  0  0  0  0
 31 34  1  0  0  0  0
 33 34  2  0  0  0  0
 34 32  1  0  0  0  0
 35 33  1  0  0  0  0
 36 37  1  0  0  0  0
M  END
>  <MODEL>
8

>  <REMARK>
 VINA RESULT:      -7.2      2.717      6.948
  Name = 
  2 active torsions:
  status: ('A' for Active; 'I' for Inactive)
    1  A    between atoms: C_4  and  O_37
    2  A    between atoms: C_23  and  C_30
                            x       y       z     vdW  Elec       q    Type
                         _______ _______ _______ _____ _____    ______ ____

>  <TORSDO>
F 2

$$$$
=
 OpenBabel11112417123D

 37 43  0  0  1  0  0  0  0  0999 V2000
  192.4510  172.9350  141.5730 C   0  0  0  0  0  2  0  0  0  0  0  0
  191.3420  170.1530  138.5640 C   0  0  0  0  0  0  0  0  0  0  0  0
  189.2030  173.0030  140.6960 C   0  0  0  0  0  0  0  0  0  0  0  0
  193.9680  173.0900  141.6950 C   0  0  2  0  0  3  0  0  0  0  0  0
  189.8500  173.1670  144.3720 C   0  0  0  0  0  2  0  0  0  0  0  0
  189.6130  172.0100  138.5360 C   0  0  0  0  0  0  0  0  0  0  0  0
  189.4350  172.6520  142.1470 C   0  0  2  0  0  3  0  0  0  0  0  0
  193.4190  173.9710  144.0750 C   0  0  2  0  0  3  0  0  0  0  0  0
  189.6500  171.9810  139.9190 C   0  0  0  0  0  0  0  0  0  0  0  0
  189.8990  173.7490  143.0280 N   0  0  1  0  0  0  0  0  0  0  0  0
  188.9960  173.1060  137.9130 C   0  0  0  0  0  3  0  0  0  0  0  0
  194.4650  173.3700  143.1260 C   0  0  0  0  0  2  0  0  0  0  0  0
  190.2940  170.9780  140.6560 N   0  0  0  0  0  0  0  0  0  0  0  0
  192.5860  171.0270  138.5750 C   0  0  0  0  0  1  0  0  0  0  0  0
  188.0890  175.2250  140.9500 C   0  0  0  0  0  2  0  0  0  0  0  0
  188.4760  174.1550  138.7020 C   0  0  0  0  0  3  0  0  0  0  0  0
  190.9270  169.8240  140.0160 C   0  0  0  0  0  2  0  0  0  0  0  0
  192.3910  172.9360  144.5710 C   0  0  1  0  0  3  0  0  0  0  0  0
  191.1040  173.5120  145.1670 C   0  0  0  0  0  2  0  0  0  0  0  0
  188.5790  174.1060  140.1070 C   0  0  0  0  0  0  0  0  0  0  0  0
  190.4200  171.4200  142.0430 C   0  0  1  0  0  3  0  0  0  0  0  0
  190.2120  170.8590  137.7750 C   0  0  0  0  0  2  0  0  0  0  0  0
  188.9430  174.8860  142.9780 C   0  0  2  0  0  3  0  0  0  0  0  0
  191.6820  168.8580  137.8590 C   0  0  0  0  0  1  0  0  0  0  0  0
  192.2750  171.6040  143.8120 C   0  0  0  0  0  2  0  0  0  0  0  0
  192.8060  175.0890  143.5010 O   0  0  0  0  0  1  0  0  0  0  0  0
  191.9030  171.7180  142.3280 C   0  0  2  0  0  3  0  0  0  0  0  0
  189.1230  175.6220  141.7990 O   0  0  0  0  0  0  0  0  0  0  0  0
  190.0980  176.7880  144.1880 C   0  0  0  0  0  3  0  0  0  0  0  0
  189.0700  175.8360  144.1420 C   0  0  0  0  0  0  0  0  0  0  0  0
  188.1490  175.7600  145.1920 C   0  0  0  0  0  3  0  0  0  0  0  0
  187.3620  176.5490  147.2990 F   0  0  0  0  0  0  0  0  0  0  0  0
  189.2830  177.5720  146.3280 C   0  0  0  0  0  3  0  0  0  0  0  0
  188.2550  176.6260  146.2850 C   0  0  0  0  0  0  0  0  0  0  0  0
  190.2050  177.6530  145.2800 C   0  0  0  0  0  3  0  0  0  0  0  0
  193.2810  174.4110  140.0570 C   0  0  0  0  0  1  0  0  0  0  0  0
  194.3930  174.1160  140.8490 O   0  0  0  0  0  0  0  0  0  0  0  0
  1  4  1  0  0  0  0
  2 14  1  0  0  0  0
  2 17  1  0  0  0  0
  4 37  1  6  0  0  0
  4 12  1  0  0  0  0
  5 19  1  0  0  0  0
  6  9  1  0  0  0  0
  7  3  1  6  0  0  0
  7 10  1  0  0  0  0
  8 26  1  6  0  0  0
  8 18  1  0  0  0  0
  9 13  1  0  0  0  0
  9  3  2  0  0  0  0
 10  5  1  1  0  0  0
 11  6  2  0  0  0  0
 11 16  1  0  0  0  0
 12  8  1  0  0  0  0
 15 28  1  0  0  0  0
 16 20  2  0  0  0  0
 17 13  1  0  0  0  0
 18 25  1  6  0  0  0
 18 19  1  0  0  0  0
 20  3  1  0  0  0  0
 20 15  1  0  0  0  0
 21 13  1  6  0  0  0
 21  7  1  0  0  0  0
 21 27  1  0  0  0  0
 22  6  1  0  0  0  0
 22  2  1  0  0  0  0
 23 10  1  0  0  0  0
 23 30  1  1  0  0  0
 24  2  1  0  0  0  0
 27  1  1  1  0  0  0
 27 25  1  0  0  0  0
 28 23  1  0  0  0  0
 29 35  1  0  0  0  0
 30 29  2  0  0  0  0
 30 31  1  0  0  0  0
 31 34  2  0  0  0  0
 34 33  1  0  0  0  0
 34 32  1  0  0  0  0
 35 33  2  0  0  0  0
 36 37  1  0  0  0  0
M  END
>  <MODEL>
9

>  <REMARK>
 VINA RESULT:      -7.1      3.177      6.482
  Name = 
  2 active torsions:
  status: ('A' for Active; 'I' for Inactive)
    1  A    between atoms: C_4  and  O_37
    2  A    between atoms: C_23  and  C_30
                            x       y       z     vdW  Elec       q    Type
                         _______ _______ _______ _____ _____    ______ ____

>  <TORSDO>
F 2

$$$$
