=
 OpenBabel11112417413D

 28 32  0  0  1  0  0  0  0  0999 V2000
  186.8390  178.2690  144.5080 C   0  0  0  0  0  0  0  0  0  0  0  0
  190.2170  177.9720  145.0880 F   0  0  0  0  0  0  0  0  0  0  0  0
  188.0950  173.4870  141.1050 O   0  0  0  0  0  0  0  0  0  0  0  0
  185.4040  177.6160  146.8310 C   0  0  0  0  0  3  0  0  0  0  0  0
  189.9420  174.0910  142.5520 C   0  0  2  0  0  3  0  0  0  0  0  0
  187.5050  178.6660  143.2270 C   0  0  0  0  0  2  0  0  0  0  0  0
  189.3160  177.8260  147.2640 C   0  0  0  0  0  1  0  0  0  0  0  0
  190.0790  177.1120  146.1650 C   0  0  1  0  0  0  0  0  0  0  0  0
  192.1800  175.7290  146.1220 C   0  0  0  0  0  0  0  0  0  0  0  0
  189.3370  175.8130  145.7510 C   0  0  2  0  0  3  0  0  0  0  0  0
  186.2480  177.3070  139.9910 O   0  0  0  0  0  1  0  0  0  0  0  0
  188.7680  176.1070  143.3920 C   0  0  1  0  0  3  0  0  0  0  0  0
  191.6360  174.8550  145.3330 N   0  0  0  0  0  0  0  0  0  0  0  0
  191.4040  176.7910  146.6740 N   0  0  0  0  0  2  0  0  0  0  0  0
  186.9700  177.2700  141.1840 C   0  0  2  0  0  3  0  0  0  0  0  0
  187.1190  177.0550  145.1940 C   0  0  0  0  0  0  0  0  0  0  0  0
  188.6000  174.2710  141.9530 C   0  0  0  0  0  0  0  0  0  0  0  0
  193.6050  175.5790  146.5130 C   0  0  0  0  0  1  0  0  0  0  0  0
  186.6910  175.9520  141.8930 C   0  0  0  0  0  2  0  0  0  0  0  0
  186.3790  176.7450  146.3440 C   0  0  0  0  0  3  0  0  0  0  0  0
  185.8600  179.1360  145.0130 C   0  0  0  0  0  3  0  0  0  0  0  0
  185.1490  178.8150  146.1680 C   0  0  0  0  0  3  0  0  0  0  0  0
  186.5580  178.4560  142.0500 C   0  0  0  0  0  2  0  0  0  0  0  0
  190.0850  175.3150  143.4660 C   0  0  1  0  0  3  0  0  0  0  0  0
  187.9260  175.4090  142.4440 N   0  0  0  0  0  0  0  0  0  0  0  0
  190.2310  174.8840  144.9190 C   0  0  2  0  0  3  0  0  0  0  0  0
  191.0060  174.1460  141.4720 C   0  0  0  0  0  1  0  0  0  0  0  0
  188.1710  176.0410  144.7890 C   0  0  2  0  0  3  0  0  0  0  0  0
  1 21  2  0  0  0  0
  1 16  1  0  0  0  0
  2  8  1  0  0  0  0
  3 17  2  0  0  0  0
  5 27  1  6  0  0  0
  5 24  1  0  0  0  0
  6  1  1  0  0  0  0
  8 14  1  0  0  0  0
  8  7  1  1  0  0  0
  9 18  1  0  0  0  0
  9 14  1  0  0  0  0
 10  8  1  0  0  0  0
 11 15  1  0  0  0  0
 12 24  1  0  0  0  0
 12 28  1  0  0  0  0
 13  9  2  0  0  0  0
 15 19  1  0  0  0  0
 15 23  1  0  0  0  0
 16 20  2  0  0  0  0
 17 25  1  0  0  0  0
 17  5  1  0  0  0  0
 19 25  1  0  0  0  0
 20  4  1  0  0  0  0
 21 22  1  0  0  0  0
 22  4  2  0  0  0  0
 23  6  1  0  0  0  0
 24 26  1  0  0  0  0
 25 12  1  0  0  0  0
 26 13  1  0  0  0  0
 26 10  1  0  0  0  0
 28 16  1  0  0  0  0
 28 10  1  0  0  0  0
M  END
>  <MODEL>
1

>  <REMARK>
 VINA RESULT:      -9.2      0.000      0.000
  Name = 
  0 active torsions:
  status: ('A' for Active; 'I' for Inactive)
                            x       y       z     vdW  Elec       q    Type
                         _______ _______ _______ _____ _____    ______ ____

>  <TORSDO>
F 0

$$$$
=
 OpenBabel11112417413D

 28 32  0  0  1  0  0  0  0  0999 V2000
  190.3290  175.5560  143.6560 C   0  0  0  0  0  0  0  0  0  0  0  0
  188.2310  177.6860  141.9540 F   0  0  0  0  0  0  0  0  0  0  0  0
  186.2920  176.7350  147.9390 O   0  0  0  0  0  0  0  0  0  0  0  0
  190.1040  172.9560  142.6230 C   0  0  0  0  0  3  0  0  0  0  0  0
  185.5820  177.5390  145.7660 C   0  0  2  0  0  3  0  0  0  0  0  0
  190.5480  176.9080  144.2600 C   0  0  0  0  0  2  0  0  0  0  0  0
  188.1810  175.7470  140.6100 C   0  0  0  0  0  1  0  0  0  0  0  0
  187.3880  176.6860  141.4980 C   0  0  1  0  0  0  0  0  0  0  0  0
  185.1530  177.8190  141.2740 C   0  0  0  0  0  0  0  0  0  0  0  0
  186.7580  175.9040  142.6820 C   0  0  2  0  0  3  0  0  0  0  0  0
  190.6440  177.2820  147.9690 O   0  0  0  0  0  1  0  0  0  0  0  0
  187.7240  176.8840  144.7020 C   0  0  1  0  0  3  0  0  0  0  0  0
  184.8440  177.5420  142.5030 N   0  0  0  0  0  0  0  0  0  0  0  0
  186.3430  177.2940  140.6890 N   0  0  0  0  0  2  0  0  0  0  0  0
  190.0260  177.1530  146.7260 C   0  0  2  0  0  3  0  0  0  0  0  0
  189.0440  174.9660  143.5010 C   0  0  0  0  0  0  0  0  0  0  0  0
  186.5340  176.9190  146.7160 C   0  0  0  0  0  0  0  0  0  0  0  0
  184.2210  178.6280  140.4480 C   0  0  0  0  0  1  0  0  0  0  0  0
  188.9380  176.0920  146.8200 C   0  0  0  0  0  2  0  0  0  0  0  0
  188.9590  173.6610  142.9950 C   0  0  0  0  0  3  0  0  0  0  0  0
  191.4690  174.8370  143.2720 C   0  0  0  0  0  3  0  0  0  0  0  0
  191.3580  173.5460  142.7560 C   0  0  0  0  0  3  0  0  0  0  0  0
  191.0740  176.7720  145.6860 C   0  0  0  0  0  2  0  0  0  0  0  0
  186.3670  177.5640  144.4480 C   0  0  1  0  0  3  0  0  0  0  0  0
  187.7470  176.5310  146.1060 N   0  0  0  0  0  0  0  0  0  0  0  0
  185.6690  176.7190  143.3920 C   0  0  2  0  0  3  0  0  0  0  0  0
  185.2740  178.9620  146.1920 C   0  0  0  0  0  1  0  0  0  0  0  0
  187.7250  175.6350  143.8360 C   0  0  2  0  0  3  0  0  0  0  0  0
  1  6  1  0  0  0  0
  4 22  2  0  0  0  0
  4 20  1  0  0  0  0
  5 27  1  1  0  0  0
  5 17  1  0  0  0  0
  6 23  1  0  0  0  0
  8  7  1  6  0  0  0
  8  2  1  0  0  0  0
  8 10  1  0  0  0  0
  9 13  2  0  0  0  0
 10 26  1  0  0  0  0
 10 28  1  0  0  0  0
 12 25  1  0  0  0  0
 13 26  1  0  0  0  0
 14  9  1  0  0  0  0
 14  8  1  0  0  0  0
 15 19  1  0  0  0  0
 15 11  1  0  0  0  0
 16  1  1  0  0  0  0
 16 28  1  0  0  0  0
 17  3  2  0  0  0  0
 18  9  1  0  0  0  0
 20 16  2  0  0  0  0
 21  1  2  0  0  0  0
 22 21  1  0  0  0  0
 23 15  1  0  0  0  0
 24 12  1  0  0  0  0
 24  5  1  0  0  0  0
 25 17  1  0  0  0  0
 25 19  1  0  0  0  0
 26 24  1  0  0  0  0
 28 12  1  0  0  0  0
M  END
>  <MODEL>
2

>  <REMARK>
 VINA RESULT:      -8.9      2.791      6.482
  Name = 
  0 active torsions:
  status: ('A' for Active; 'I' for Inactive)
                            x       y       z     vdW  Elec       q    Type
                         _______ _______ _______ _____ _____    ______ ____

>  <TORSDO>
F 0

$$$$
=
 OpenBabel11112417413D

 28 32  0  0  1  0  0  0  0  0999 V2000
  190.7360  174.6580  141.9820 C   0  0  0  0  0  0  0  0  0  0  0  0
  189.0240  177.6220  142.3300 F   0  0  0  0  0  0  0  0  0  0  0  0
  190.5930  175.1180  147.9650 O   0  0  0  0  0  0  0  0  0  0  0  0
  189.0200  172.6670  140.9940 C   0  0  0  0  0  3  0  0  0  0  0  0
  189.1500  176.7390  146.8880 C   0  0  2  0  0  3  0  0  0  0  0  0
  191.7410  175.6490  142.4810 C   0  0  0  0  0  2  0  0  0  0  0  0
  187.5110  176.3080  141.0850 C   0  0  0  0  0  1  0  0  0  0  0  0
  187.7730  177.0310  142.3910 C   0  0  1  0  0  0  0  0  0  0  0  0
  186.4170  178.6070  143.8080 C   0  0  0  0  0  0  0  0  0  0  0  0
  187.6790  176.0420  143.5830 C   0  0  2  0  0  3  0  0  0  0  0  0
  194.0310  174.7150  145.2710 O   0  0  0  0  0  1  0  0  0  0  0  0
  189.8920  176.0580  144.6220 C   0  0  1  0  0  3  0  0  0  0  0  0
  186.7750  178.0000  144.8970 N   0  0  0  0  0  0  0  0  0  0  0  0
  186.7730  178.0790  142.5320 N   0  0  0  0  0  2  0  0  0  0  0  0
  192.8290  175.1450  144.7110 C   0  0  2  0  0  3  0  0  0  0  0  0
  189.4790  174.4330  142.6090 C   0  0  0  0  0  0  0  0  0  0  0  0
  190.1550  175.6520  146.9110 C   0  0  0  0  0  0  0  0  0  0  0  0
  185.5660  179.8220  143.8910 C   0  0  0  0  0  1  0  0  0  0  0  0
  191.6810  174.3630  145.3360 C   0  0  0  0  0  2  0  0  0  0  0  0
  188.6460  173.4240  142.1050 C   0  0  0  0  0  3  0  0  0  0  0  0
  191.0950  173.8930  140.8640 C   0  0  0  0  0  3  0  0  0  0  0  0
  190.2420  172.9060  140.3700 C   0  0  0  0  0  3  0  0  0  0  0  0
  192.8790  174.9330  143.2020 C   0  0  0  0  0  2  0  0  0  0  0  0
  189.0000  177.0480  145.3920 C   0  0  1  0  0  3  0  0  0  0  0  0
  190.5650  175.2540  145.6200 N   0  0  0  0  0  0  0  0  0  0  0  0
  187.5760  176.7740  144.9280 C   0  0  2  0  0  3  0  0  0  0  0  0
  189.6910  177.9650  147.5990 C   0  0  0  0  0  1  0  0  0  0  0  0
  188.9410  175.2040  143.7980 C   0  0  2  0  0  3  0  0  0  0  0  0
  1  6  1  0  0  0  0
  1 16  1  0  0  0  0
  2  8  1  0  0  0  0
  4 20  1  0  0  0  0
  5 17  1  0  0  0  0
  5 27  1  1  0  0  0
  6 23  1  0  0  0  0
  8  7  1  6  0  0  0
  8 14  1  0  0  0  0
  8 10  1  0  0  0  0
  9 18  1  0  0  0  0
  9 13  2  0  0  0  0
 10 28  1  0  0  0  0
 10 26  1  0  0  0  0
 12 24  1  0  0  0  0
 12 25  1  0  0  0  0
 13 26  1  0  0  0  0
 14  9  1  0  0  0  0
 15 11  1  0  0  0  0
 15 19  1  0  0  0  0
 16 28  1  0  0  0  0
 17  3  2  0  0  0  0
 19 25  1  0  0  0  0
 20 16  2  0  0  0  0
 21  1  2  0  0  0  0
 22 21  1  0  0  0  0
 22  4  2  0  0  0  0
 23 15  1  0  0  0  0
 24  5  1  0  0  0  0
 25 17  1  0  0  0  0
 26 24  1  0  0  0  0
 28 12  1  0  0  0  0
M  END
>  <MODEL>
3

>  <REMARK>
 VINA RESULT:      -8.1      2.741      6.237
  Name = 
  0 active torsions:
  status: ('A' for Active; 'I' for Inactive)
                            x       y       z     vdW  Elec       q    Type
                         _______ _______ _______ _____ _____    ______ ____

>  <TORSDO>
F 0

$$$$
=
 OpenBabel11112417413D

 28 32  0  0  1  0  0  0  0  0999 V2000
  186.2960  176.8900  143.7270 C   0  0  0  0  0  0  0  0  0  0  0  0
  188.4440  174.2150  143.4650 F   0  0  0  0  0  0  0  0  0  0  0  0
  190.1570  178.1790  148.1380 O   0  0  0  0  0  0  0  0  0  0  0  0
  186.5770  178.5710  141.4970 C   0  0  0  0  0  3  0  0  0  0  0  0
  190.9440  176.3690  146.7320 C   0  0  2  0  0  3  0  0  0  0  0  0
  186.0450  176.0490  144.9400 C   0  0  0  0  0  2  0  0  0  0  0  0
  188.5580  175.1680  141.3090 C   0  0  0  0  0  1  0  0  0  0  0  0
  189.3100  174.8430  142.5850 C   0  0  1  0  0  0  0  0  0  0  0  0
  191.5450  173.7920  143.0670 C   0  0  0  0  0  0  0  0  0  0  0  0
  189.8990  176.1370  143.2080 C   0  0  2  0  0  3  0  0  0  0  0  0
  185.8030  177.6660  148.2910 O   0  0  0  0  0  1  0  0  0  0  0  0
  188.8500  176.3420  145.4070 C   0  0  1  0  0  3  0  0  0  0  0  0
  191.8070  174.6740  143.9810 N   0  0  0  0  0  0  0  0  0  0  0  0
  190.3820  173.9170  142.2510 N   0  0  0  0  0  2  0  0  0  0  0  0
  186.4700  177.1360  147.1870 C   0  0  2  0  0  3  0  0  0  0  0  0
  187.5890  177.3310  143.3330 C   0  0  0  0  0  0  0  0  0  0  0  0
  189.9610  177.3810  147.1830 C   0  0  0  0  0  0  0  0  0  0  0  0
  192.5020  172.6840  142.8190 C   0  0  0  0  0  1  0  0  0  0  0  0
  187.5610  178.1050  146.7530 C   0  0  0  0  0  2  0  0  0  0  0  0
  187.7020  178.1810  142.2240 C   0  0  0  0  0  3  0  0  0  0  0  0
  185.1760  177.2870  142.9830 C   0  0  0  0  0  3  0  0  0  0  0  0
  185.3150  178.1190  141.8730 C   0  0  0  0  0  3  0  0  0  0  0  0
  185.4650  176.9020  146.0650 C   0  0  0  0  0  2  0  0  0  0  0  0
  190.2110  175.6480  145.5940 C   0  0  1  0  0  3  0  0  0  0  0  0
  188.7750  177.3750  146.4170 N   0  0  0  0  0  0  0  0  0  0  0  0
  190.9550  175.8280  144.2780 C   0  0  2  0  0  3  0  0  0  0  0  0
  191.2270  175.3830  147.8500 C   0  0  0  0  0  1  0  0  0  0  0  0
  188.8900  176.9550  144.0160 C   0  0  2  0  0  3  0  0  0  0  0  0
  1  6  1  0  0  0  0
  4 22  2  0  0  0  0
  4 20  1  0  0  0  0
  5 17  1  0  0  0  0
  5 27  1  1  0  0  0
  6 23  1  0  0  0  0
  8  7  1  6  0  0  0
  8 10  1  0  0  0  0
  8  2  1  0  0  0  0
  9 13  2  0  0  0  0
 10 28  1  0  0  0  0
 10 26  1  0  0  0  0
 12 24  1  0  0  0  0
 12 25  1  0  0  0  0
 13 26  1  0  0  0  0
 14  8  1  0  0  0  0
 14  9  1  0  0  0  0
 15 11  1  0  0  0  0
 16  1  1  0  0  0  0
 16 28  1  0  0  0  0
 17  3  2  0  0  0  0
 18  9  1  0  0  0  0
 19 15  1  0  0  0  0
 20 16  2  0  0  0  0
 21  1  2  0  0  0  0
 22 21  1  0  0  0  0
 23 15  1  0  0  0  0
 24  5  1  0  0  0  0
 25 19  1  0  0  0  0
 25 17  1  0  0  0  0
 26 24  1  0  0  0  0
 28 12  1  0  0  0  0
M  END
>  <MODEL>
4

>  <REMARK>
 VINA RESULT:      -8.1      2.848      4.708
  Name = 
  0 active torsions:
  status: ('A' for Active; 'I' for Inactive)
                            x       y       z     vdW  Elec       q    Type
                         _______ _______ _______ _____ _____    ______ ____

>  <TORSDO>
F 0

$$$$
=
 OpenBabel11112417413D

 28 32  0  0  1  0  0  0  0  0999 V2000
  190.4730  173.9680  143.8790 C   0  0  0  0  0  0  0  0  0  0  0  0
  188.1310  175.2710  146.0360 F   0  0  0  0  0  0  0  0  0  0  0  0
  187.0490  177.0360  140.0200 O   0  0  0  0  0  0  0  0  0  0  0  0
  192.9690  175.1720  144.3270 C   0  0  0  0  0  3  0  0  0  0  0  0
  186.5130  177.5480  142.3270 C   0  0  2  0  0  3  0  0  0  0  0  0
  189.1980  173.2420  143.5780 C   0  0  0  0  0  2  0  0  0  0  0  0
  190.1550  176.0950  146.9280 C   0  0  0  0  0  1  0  0  0  0  0  0
  188.8300  176.4420  146.2780 C   0  0  1  0  0  0  0  0  0  0  0  0
  187.0370  178.1350  146.7780 C   0  0  0  0  0  0  0  0  0  0  0  0
  189.0660  177.2330  144.9630 C   0  0  2  0  0  3  0  0  0  0  0  0
  188.1230  172.7830  140.0380 O   0  0  0  0  0  1  0  0  0  0  0  0
  188.1050  175.8540  143.1880 C   0  0  1  0  0  3  0  0  0  0  0  0
  186.9210  178.4430  145.5240 N   0  0  0  0  0  0  0  0  0  0  0  0
  188.0670  177.2510  147.2170 N   0  0  0  0  0  2  0  0  0  0  0  0
  188.2740  173.4840  141.2330 C   0  0  2  0  0  3  0  0  0  0  0  0
  190.5760  175.3850  143.9230 C   0  0  0  0  0  0  0  0  0  0  0  0
  187.2240  176.8220  141.2490 C   0  0  0  0  0  0  0  0  0  0  0  0
  186.1360  178.7670  147.7760 C   0  0  0  0  0  1  0  0  0  0  0  0
  188.8240  174.8710  140.9290 C   0  0  0  0  0  2  0  0  0  0  0  0
  191.8360  175.9630  144.1350 C   0  0  0  0  0  3  0  0  0  0  0  0
  191.6190  173.1860  144.0780 C   0  0  0  0  0  3  0  0  0  0  0  0
  192.8600  173.7830  144.3040 C   0  0  0  0  0  3  0  0  0  0  0  0
  189.2160  172.7090  142.1480 C   0  0  0  0  0  2  0  0  0  0  0  0
  187.0480  176.8920  143.6060 C   0  0  1  0  0  3  0  0  0  0  0  0
  188.1420  175.8690  141.7410 N   0  0  0  0  0  0  0  0  0  0  0  0
  187.7830  177.9120  144.4650 C   0  0  2  0  0  3  0  0  0  0  0  0
  185.0200  177.3000  142.2250 C   0  0  0  0  0  1  0  0  0  0  0  0
  189.4210  176.3540  143.7630 C   0  0  2  0  0  3  0  0  0  0  0  0
  1 16  2  0  0  0  0
  1 21  1  0  0  0  0
  2  8  1  0  0  0  0
  3 17  2  0  0  0  0
  5 27  1  6  0  0  0
  5 24  1  0  0  0  0
  6  1  1  0  0  0  0
  8  7  1  1  0  0  0
  8 14  1  0  0  0  0
  9 14  1  0  0  0  0
  9 18  1  0  0  0  0
 10  8  1  0  0  0  0
 11 15  1  0  0  0  0
 12 24  1  0  0  0  0
 12 28  1  0  0  0  0
 13  9  2  0  0  0  0
 15 23  1  0  0  0  0
 16 20  1  0  0  0  0
 17 25  1  0  0  0  0
 17  5  1  0  0  0  0
 19 15  1  0  0  0  0
 19 25  1  0  0  0  0
 20  4  2  0  0  0  0
 21 22  2  0  0  0  0
 22  4  1  0  0  0  0
 23  6  1  0  0  0  0
 24 26  1  0  0  0  0
 25 12  1  0  0  0  0
 26 10  1  0  0  0  0
 26 13  1  0  0  0  0
 28 16  1  0  0  0  0
 28 10  1  0  0  0  0
M  END
>  <MODEL>
5

>  <REMARK>
 VINA RESULT:      -7.9      1.889      5.082
  Name = 
  0 active torsions:
  status: ('A' for Active; 'I' for Inactive)
                            x       y       z     vdW  Elec       q    Type
                         _______ _______ _______ _____ _____    ______ ____

>  <TORSDO>
F 0

$$$$
=
 OpenBabel11112417413D

 28 32  0  0  1  0  0  0  0  0999 V2000
  189.0910  176.6440  144.8560 C   0  0  0  0  0  0  0  0  0  0  0  0
  192.4880  176.9790  144.4280 F   0  0  0  0  0  0  0  0  0  0  0  0
  189.9390  173.0280  140.1410 O   0  0  0  0  0  0  0  0  0  0  0  0
  188.5540  175.2440  147.2300 C   0  0  0  0  0  3  0  0  0  0  0  0
  192.0300  173.7180  141.1530 C   0  0  2  0  0  3  0  0  0  0  0  0
  189.2640  177.4240  143.5900 C   0  0  0  0  0  2  0  0  0  0  0  0
  192.3320  176.2080  146.6530 C   0  0  0  0  0  1  0  0  0  0  0  0
  192.8180  175.9120  145.2480 C   0  0  1  0  0  0  0  0  0  0  0  0
  194.9860  175.0550  144.3010 C   0  0  0  0  0  0  0  0  0  0  0  0
  192.1880  174.5920  144.7280 C   0  0  2  0  0  3  0  0  0  0  0  0
  187.2910  176.4990  140.5650 O   0  0  0  0  0  1  0  0  0  0  0  0
  190.8840  175.2200  142.7580 C   0  0  1  0  0  3  0  0  0  0  0  0
  194.3630  174.2600  143.4880 N   0  0  0  0  0  0  0  0  0  0  0  0
  194.2670  175.7910  145.2900 N   0  0  0  0  0  2  0  0  0  0  0  0
  188.3410  176.3820  141.4750 C   0  0  2  0  0  3  0  0  0  0  0  0
  189.7460  175.4080  145.1110 C   0  0  0  0  0  0  0  0  0  0  0  0
  190.5570  173.7170  140.9960 C   0  0  0  0  0  0  0  0  0  0  0  0
  196.4680  175.1450  144.2510 C   0  0  0  0  0  1  0  0  0  0  0  0
  188.4940  174.9200  141.8720 C   0  0  0  0  0  2  0  0  0  0  0  0
  189.4510  174.7210  146.2980 C   0  0  0  0  0  3  0  0  0  0  0  0
  188.1970  177.1590  145.8050 C   0  0  0  0  0  3  0  0  0  0  0  0
  187.9320  176.4660  146.9860 C   0  0  0  0  0  3  0  0  0  0  0  0
  188.0430  177.2520  142.6910 C   0  0  0  0  0  2  0  0  0  0  0  0
  192.2630  174.7350  142.2780 C   0  0  1  0  0  3  0  0  0  0  0  0
  189.9050  174.5600  141.9210 N   0  0  0  0  0  0  0  0  0  0  0  0
  192.9110  174.0650  143.4810 C   0  0  2  0  0  3  0  0  0  0  0  0
  192.6900  174.2180  139.8820 C   0  0  0  0  0  1  0  0  0  0  0  0
  190.7610  174.7490  144.1990 C   0  0  2  0  0  3  0  0  0  0  0  0
  1 16  2  0  0  0  0
  1 21  1  0  0  0  0
  2  8  1  0  0  0  0
  3 17  2  0  0  0  0
  5 27  1  6  0  0  0
  5 24  1  0  0  0  0
  6  1  1  0  0  0  0
  8 14  1  0  0  0  0
  8  7  1  1  0  0  0
  9 14  1  0  0  0  0
 10  8  1  0  0  0  0
 11 15  1  0  0  0  0
 12 28  1  0  0  0  0
 13  9  2  0  0  0  0
 15 19  1  0  0  0  0
 15 23  1  0  0  0  0
 16 20  1  0  0  0  0
 17  5  1  0  0  0  0
 17 25  1  0  0  0  0
 18  9  1  0  0  0  0
 19 25  1  0  0  0  0
 20  4  2  0  0  0  0
 21 22  2  0  0  0  0
 22  4  1  0  0  0  0
 23  6  1  0  0  0  0
 24 12  1  0  0  0  0
 24 26  1  0  0  0  0
 25 12  1  0  0  0  0
 26 13  1  0  0  0  0
 26 10  1  0  0  0  0
 28 10  1  0  0  0  0
 28 16  1  0  0  0  0
M  END
>  <MODEL>
6

>  <REMARK>
 VINA RESULT:      -7.9      1.953      2.880
  Name = 
  0 active torsions:
  status: ('A' for Active; 'I' for Inactive)
                            x       y       z     vdW  Elec       q    Type
                         _______ _______ _______ _____ _____    ______ ____

>  <TORSDO>
F 0

$$$$
=
 OpenBabel11112417413D

 28 32  0  0  1  0  0  0  0  0999 V2000
  188.7770  176.1930  144.7690 C   0  0  0  0  0  0  0  0  0  0  0  0
  189.0690  172.8550  143.9880 F   0  0  0  0  0  0  0  0  0  0  0  0
  194.6210  175.3450  145.8470 O   0  0  0  0  0  0  0  0  0  0  0  0
  188.2970  177.6870  142.4420 C   0  0  0  0  0  3  0  0  0  0  0  0
  193.6170  173.4570  144.7080 C   0  0  2  0  0  3  0  0  0  0  0  0
  189.0000  175.4910  146.0730 C   0  0  0  0  0  2  0  0  0  0  0  0
  188.2310  173.7730  141.9820 C   0  0  0  0  0  1  0  0  0  0  0  0
  189.3920  173.0710  142.6580 C   0  0  1  0  0  0  0  0  0  0  0  0
  190.8270  171.0980  142.0460 C   0  0  0  0  0  0  0  0  0  0  0  0
  190.6840  173.9220  142.5280 C   0  0  2  0  0  3  0  0  0  0  0  0
  191.4750  176.8500  148.5070 O   0  0  0  0  0  1  0  0  0  0  0  0
  191.3500  174.4550  144.8190 C   0  0  1  0  0  3  0  0  0  0  0  0
  191.9040  171.7120  142.4250 N   0  0  0  0  0  0  0  0  0  0  0  0
  189.5760  171.7810  142.0110 N   0  0  0  0  0  2  0  0  0  0  0  0
  191.0700  176.1390  147.3790 C   0  0  2  0  0  3  0  0  0  0  0  0
  189.6170  176.0220  143.6340 C   0  0  0  0  0  0  0  0  0  0  0  0
  193.5980  174.7770  145.3790 C   0  0  0  0  0  0  0  0  0  0  0  0
  190.9110  169.6920  141.5730 C   0  0  0  0  0  1  0  0  0  0  0  0
  191.9510  176.5320  146.2010 C   0  0  0  0  0  2  0  0  0  0  0  0
  189.3640  176.7900  142.4880 C   0  0  0  0  0  3  0  0  0  0  0  0
  187.7060  177.0950  144.7060 C   0  0  0  0  0  3  0  0  0  0  0  0
  187.4640  177.8350  143.5490 C   0  0  0  0  0  3  0  0  0  0  0  0
  189.6040  176.4490  147.0950 C   0  0  0  0  0  2  0  0  0  0  0  0
  192.1400  173.2120  144.3740 C   0  0  1  0  0  3  0  0  0  0  0  0
  192.3100  175.3520  145.4280 N   0  0  0  0  0  0  0  0  0  0  0  0
  191.9410  173.1090  142.8680 C   0  0  2  0  0  3  0  0  0  0  0  0
  194.0970  172.3890  145.6720 C   0  0  0  0  0  1  0  0  0  0  0  0
  190.7850  175.0610  143.5440 C   0  0  2  0  0  3  0  0  0  0  0  0
  1  6  1  0  0  0  0
  4 20  2  0  0  0  0
  4 22  1  0  0  0  0
  5 17  1  0  0  0  0
  5 27  1  1  0  0  0
  6 23  1  0  0  0  0
  8  7  1  6  0  0  0
  8  2  1  0  0  0  0
  9 13  2  0  0  0  0
 10  8  1  0  0  0  0
 10 26  1  0  0  0  0
 10 28  1  0  0  0  0
 12 25  1  0  0  0  0
 13 26  1  0  0  0  0
 14  9  1  0  0  0  0
 14  8  1  0  0  0  0
 15 11  1  0  0  0  0
 16  1  2  0  0  0  0
 17 25  1  0  0  0  0
 17  3  2  0  0  0  0
 18  9  1  0  0  0  0
 19 15  1  0  0  0  0
 20 16  1  0  0  0  0
 21  1  1  0  0  0  0
 22 21  2  0  0  0  0
 23 15  1  0  0  0  0
 24  5  1  0  0  0  0
 24 12  1  0  0  0  0
 25 19  1  0  0  0  0
 26 24  1  0  0  0  0
 28 16  1  0  0  0  0
 28 12  1  0  0  0  0
M  END
>  <MODEL>
7

>  <REMARK>
 VINA RESULT:      -7.6      3.202      5.572
  Name = 
  0 active torsions:
  status: ('A' for Active; 'I' for Inactive)
                            x       y       z     vdW  Elec       q    Type
                         _______ _______ _______ _____ _____    ______ ____

>  <TORSDO>
F 0

$$$$
=
 OpenBabel11112417413D

 28 32  0  0  1  0  0  0  0  0999 V2000
  189.3780  176.2310  144.6120 C   0  0  0  0  0  0  0  0  0  0  0  0
  192.8180  176.1970  144.6750 F   0  0  0  0  0  0  0  0  0  0  0  0
  190.4590  171.2170  141.4930 O   0  0  0  0  0  0  0  0  0  0  0  0
  188.3640  175.7270  147.1800 C   0  0  0  0  0  3  0  0  0  0  0  0
  192.4530  172.0730  142.5710 C   0  0  2  0  0  3  0  0  0  0  0  0
  189.8120  176.5370  143.2120 C   0  0  0  0  0  2  0  0  0  0  0  0
  192.2700  176.2140  146.9710 C   0  0  0  0  0  1  0  0  0  0  0  0
  192.9090  175.4420  145.8330 C   0  0  1  0  0  0  0  0  0  0  0  0
  195.0770  174.1900  145.5830 C   0  0  0  0  0  0  0  0  0  0  0  0
  192.2120  174.0650  145.6590 C   0  0  2  0  0  3  0  0  0  0  0  0
  188.1850  174.7900  140.3480 O   0  0  0  0  0  1  0  0  0  0  0  0
  191.2730  174.0880  143.4030 C   0  0  1  0  0  3  0  0  0  0  0  0
  194.4870  173.2100  144.9710 N   0  0  0  0  0  0  0  0  0  0  0  0
  194.3160  175.2520  146.1530 N   0  0  0  0  0  2  0  0  0  0  0  0
  189.0790  174.9160  141.4110 C   0  0  2  0  0  3  0  0  0  0  0  0
  189.8490  175.1100  145.3500 C   0  0  0  0  0  0  0  0  0  0  0  0
  191.0260  172.1110  142.1770 C   0  0  0  0  0  0  0  0  0  0  0  0
  196.5520  174.1660  145.7560 C   0  0  0  0  0  1  0  0  0  0  0  0
  189.0100  173.6600  142.2690 C   0  0  0  0  0  2  0  0  0  0  0  0
  189.3160  174.8720  146.6260 C   0  0  0  0  0  3  0  0  0  0  0  0
  188.4250  177.0840  145.1850 C   0  0  0  0  0  3  0  0  0  0  0  0
  187.9230  176.8370  146.4630 C   0  0  0  0  0  3  0  0  0  0  0  0
  188.7160  176.1540  142.2220 C   0  0  0  0  0  2  0  0  0  0  0  0
  192.6410  173.3880  143.3380 C   0  0  1  0  0  3  0  0  0  0  0  0
  190.3510  173.2500  142.6650 N   0  0  0  0  0  0  0  0  0  0  0  0
  193.0370  173.1130  144.7830 C   0  0  2  0  0  3  0  0  0  0  0  0
  193.3350  172.0840  141.3360 C   0  0  0  0  0  1  0  0  0  0  0  0
  190.9000  174.1260  144.8760 C   0  0  2  0  0  3  0  0  0  0  0  0
  1 21  2  0  0  0  0
  1 16  1  0  0  0  0
  2  8  1  0  0  0  0
  3 17  2  0  0  0  0
  5 27  1  6  0  0  0
  5 24  1  0  0  0  0
  6  1  1  0  0  0  0
  8 14  1  0  0  0  0
  8  7  1  1  0  0  0
  9 18  1  0  0  0  0
  9 14  1  0  0  0  0
 10  8  1  0  0  0  0
 11 15  1  0  0  0  0
 12 28  1  0  0  0  0
 13  9  2  0  0  0  0
 15 23  1  0  0  0  0
 15 19  1  0  0  0  0
 16 20  2  0  0  0  0
 17  5  1  0  0  0  0
 17 25  1  0  0  0  0
 19 25  1  0  0  0  0
 20  4  1  0  0  0  0
 21 22  1  0  0  0  0
 22  4  2  0  0  0  0
 23  6  1  0  0  0  0
 24 12  1  0  0  0  0
 24 26  1  0  0  0  0
 25 12  1  0  0  0  0
 26 13  1  0  0  0  0
 26 10  1  0  0  0  0
 28 16  1  0  0  0  0
 28 10  1  0  0  0  0
M  END
>  <MODEL>
8

>  <REMARK>
 VINA RESULT:      -7.6      2.214      3.289
  Name = 
  0 active torsions:
  status: ('A' for Active; 'I' for Inactive)
                            x       y       z     vdW  Elec       q    Type
                         _______ _______ _______ _____ _____    ______ ____

>  <TORSDO>
F 0

$$$$
=
 OpenBabel11112417413D

 28 32  0  0  1  0  0  0  0  0999 V2000
  193.0530  174.4120  145.3310 C   0  0  0  0  0  0  0  0  0  0  0  0
  189.7890  174.7210  146.3740 F   0  0  0  0  0  0  0  0  0  0  0  0
  190.1910  173.7910  140.0920 O   0  0  0  0  0  0  0  0  0  0  0  0
  194.3770  176.8760  145.5720 C   0  0  0  0  0  3  0  0  0  0  0  0
  188.7120  174.5400  141.8590 C   0  0  2  0  0  3  0  0  0  0  0  0
  192.4530  173.0480  145.1910 C   0  0  0  0  0  2  0  0  0  0  0  0
  190.7470  176.7500  147.1050 C   0  0  0  0  0  1  0  0  0  0  0  0
  189.7330  176.0930  146.1890 C   0  0  1  0  0  0  0  0  0  0  0  0
  187.3150  176.5460  145.6620 C   0  0  0  0  0  0  0  0  0  0  0  0
  190.0200  176.4700  144.7110 C   0  0  2  0  0  3  0  0  0  0  0  0
  193.0230  171.0880  142.0710 O   0  0  0  0  0  1  0  0  0  0  0  0
  190.4920  174.3570  143.5760 C   0  0  1  0  0  3  0  0  0  0  0  0
  187.5160  176.3670  144.3940 N   0  0  0  0  0  0  0  0  0  0  0  0
  188.4100  176.5590  146.5760 N   0  0  0  0  0  2  0  0  0  0  0  0
  192.4060  172.0570  142.8620 C   0  0  2  0  0  3  0  0  0  0  0  0
  192.4670  175.5860  144.7820 C   0  0  0  0  0  0  0  0  0  0  0  0
  190.0030  174.0700  141.3060 C   0  0  0  0  0  0  0  0  0  0  0  0
  185.9410  176.8140  146.1570 C   0  0  0  0  0  1  0  0  0  0  0  0
  192.3210  173.3590  142.0770 C   0  0  0  0  0  2  0  0  0  0  0  0
  193.1540  176.8020  144.9040 C   0  0  0  0  0  3  0  0  0  0  0  0
  194.2790  174.5040  146.0050 C   0  0  0  0  0  3  0  0  0  0  0  0
  194.9360  175.7280  146.1280 C   0  0  0  0  0  3  0  0  0  0  0  0
  193.2120  172.2400  144.1430 C   0  0  0  0  0  2  0  0  0  0  0  0
  189.0050  174.6900  143.3580 C   0  0  1  0  0  3  0  0  0  0  0  0
  191.0200  173.9820  142.2810 N   0  0  0  0  0  0  0  0  0  0  0  0
  188.8340  176.1380  143.7950 C   0  0  2  0  0  3  0  0  0  0  0  0
  187.6440  173.4800  141.6630 C   0  0  0  0  0  1  0  0  0  0  0  0
  191.1340  175.6470  144.0630 C   0  0  2  0  0  3  0  0  0  0  0  0
  1 21  1  0  0  0  0
  3 17  2  0  0  0  0
  4 22  1  0  0  0  0
  5 27  1  1  0  0  0
  5 24  1  0  0  0  0
  6  1  1  0  0  0  0
  8  2  1  0  0  0  0
  8 14  1  0  0  0  0
  8  7  1  1  0  0  0
  9 18  1  0  0  0  0
  9 14  1  0  0  0  0
 10  8  1  0  0  0  0
 11 15  1  0  0  0  0
 12 28  1  0  0  0  0
 13  9  2  0  0  0  0
 15 23  1  0  0  0  0
 16 20  1  0  0  0  0
 16  1  2  0  0  0  0
 17  5  1  0  0  0  0
 17 25  1  0  0  0  0
 19 25  1  0  0  0  0
 19 15  1  0  0  0  0
 20  4  2  0  0  0  0
 21 22  2  0  0  0  0
 23  6  1  0  0  0  0
 24 12  1  0  0  0  0
 24 26  1  0  0  0  0
 25 12  1  0  0  0  0
 26 13  1  0  0  0  0
 26 10  1  0  0  0  0
 28 10  1  0  0  0  0
 28 16  1  0  0  0  0
M  END
>  <MODEL>
9

>  <REMARK>
 VINA RESULT:      -7.6      2.262      5.784
  Name = 
  0 active torsions:
  status: ('A' for Active; 'I' for Inactive)
                            x       y       z     vdW  Elec       q    Type
                         _______ _______ _______ _____ _____    ______ ____

>  <TORSDO>
F 0

$$$$
