=
 OpenBabel11112417103D

 37 43  0  0  1  0  0  0  0  0999 V2000
  192.1340  175.2980  145.3130 C   0  0  0  0  0  2  0  0  0  0  0  0
  191.6800  171.1760  142.3940 C   0  0  0  0  0  0  0  0  0  0  0  0
  189.3420  174.6610  142.3490 C   0  0  0  0  0  0  0  0  0  0  0  0
  192.8350  175.8210  146.5670 C   0  0  2  0  0  3  0  0  0  0  0  0
  187.9610  175.3380  145.5560 O   0  0  0  0  0  0  0  0  0  0  0  0
  190.0680  172.7130  141.1400 C   0  0  0  0  0  0  0  0  0  0  0  0
  189.5630  175.2410  143.7180 C   0  0  1  0  0  3  0  0  0  0  0  0
  190.5750  177.1000  146.8650 C   0  0  2  0  0  3  0  0  0  0  0  0
  190.0680  173.5090  142.2730 C   0  0  0  0  0  0  0  0  0  0  0  0
  188.4230  176.0060  144.4140 C   0  0  1  0  0  3  0  0  0  0  0  0
  189.3390  173.1190  140.0630 N   0  0  0  0  0  0  0  0  0  0  0  0
  192.0260  176.8850  147.3290 C   0  0  0  0  0  2  0  0  0  0  0  0
  190.6600  173.1320  143.4930 N   0  0  0  0  0  0  0  0  0  0  0  0
  193.0120  171.8440  142.0940 C   0  0  0  0  0  1  0  0  0  0  0  0
  187.6120  176.2340  141.2960 C   0  0  0  0  0  2  0  0  0  0  0  0
  188.6080  174.2770  140.0910 C   0  0  0  0  0  3  0  0  0  0  0  0
  191.0930  171.7540  143.7000 C   0  0  0  0  0  2  0  0  0  0  0  0
  189.6860  175.9510  147.1200 N   0  0  1  0  0  0  0  0  0  0  0  0
  188.3100  176.1660  146.6380 C   0  0  0  0  0  2  0  0  0  0  0  0
  188.5850  175.0890  141.2430 C   0  0  0  0  0  0  0  0  0  0  0  0
  190.0730  174.0060  144.5010 C   0  0  1  0  0  3  0  0  0  0  0  0
  190.7260  171.3600  141.1890 C   0  0  0  0  0  2  0  0  0  0  0  0
  187.2970  176.4730  143.4910 C   0  0  2  0  0  3  0  0  0  0  0  0
  191.9260  169.6960  142.5910 C   0  0  0  0  0  1  0  0  0  0  0  0
  190.2310  174.5890  146.9610 C   0  0  0  0  0  2  0  0  0  0  0  0
  190.5190  177.5450  145.5550 F   0  0  0  0  0  0  0  0  0  0  0  0
  191.0130  174.3140  145.6600 C   0  0  2  0  0  3  0  0  0  0  0  0
  187.8570  177.0980  142.3690 O   0  0  0  0  0  0  0  0  0  0  0  0
  185.4940  176.9610  145.1900 C   0  0  0  0  0  3  0  0  0  0  0  0
  186.3730  177.4170  144.1970 C   0  0  0  0  0  0  0  0  0  0  0  0
  186.3710  178.7700  143.8380 C   0  0  0  0  0  3  0  0  0  0  0  0
  185.5050  180.9710  144.1230 F   0  0  0  0  0  0  0  0  0  0  0  0
  184.6300  179.2060  145.4640 C   0  0  0  0  0  3  0  0  0  0  0  0
  185.5020  179.6630  144.4710 C   0  0  0  0  0  0  0  0  0  0  0  0
  184.6260  177.8540  145.8220 C   0  0  0  0  0  3  0  0  0  0  0  0
  195.1770  175.3360  146.1110 N   0  0  0  0  0  1  0  0  0  0  0  0
  194.1910  176.3980  146.2040 C   0  0  0  0  0  2  0  0  0  0  0  0
  1  4  1  0  0  0  0
  2 24  1  0  0  0  0
  2 17  1  0  0  0  0
  4 37  1  6  0  0  0
  4 12  1  0  0  0  0
  5 19  1  0  0  0  0
  6 22  1  0  0  0  0
  6  9  2  0  0  0  0
  7  3  1  6  0  0  0
  7 10  1  0  0  0  0
  7 21  1  0  0  0  0
  8 26  1  6  0  0  0
  8 18  1  0  0  0  0
  8 12  1  0  0  0  0
  9  3  1  0  0  0  0
  9 13  1  0  0  0  0
 10  5  1  1  0  0  0
 11 16  2  0  0  0  0
 11  6  1  0  0  0  0
 13 17  1  0  0  0  0
 14  2  1  0  0  0  0
 15 28  1  0  0  0  0
 16 20  1  0  0  0  0
 18 19  1  6  0  0  0
 20 15  1  0  0  0  0
 20  3  2  0  0  0  0
 21 13  1  6  0  0  0
 21 27  1  0  0  0  0
 22  2  1  0  0  0  0
 23 30  1  1  0  0  0
 23 10  1  0  0  0  0
 25 18  1  0  0  0  0
 27  1  1  6  0  0  0
 27 25  1  0  0  0  0
 28 23  1  0  0  0  0
 29 35  1  0  0  0  0
 30 29  2  0  0  0  0
 31 30  1  0  0  0  0
 31 34  2  0  0  0  0
 32 34  1  0  0  0  0
 33 35  2  0  0  0  0
 34 33  1  0  0  0  0
 36 37  1  0  0  0  0
M  END
>  <MODEL>
1

>  <REMARK>
 VINA RESULT:      -9.6      0.000      0.000
  Name = 
  2 active torsions:
  status: ('A' for Active; 'I' for Inactive)
    1  A    between atoms: C_4  and  C_37
    2  A    between atoms: C_23  and  C_30
                            x       y       z     vdW  Elec       q    Type
                         _______ _______ _______ _____ _____    ______ ____

>  <TORSDO>
F 2

$$$$
=
 OpenBabel11112417103D

 37 43  0  0  1  0  0  0  0  0999 V2000
  192.0080  175.3600  145.4520 C   0  0  0  0  0  2  0  0  0  0  0  0
  191.5940  171.2030  142.5770 C   0  0  0  0  0  0  0  0  0  0  0  0
  189.3130  174.7210  142.4010 C   0  0  0  0  0  0  0  0  0  0  0  0
  192.6730  175.8910  146.7220 C   0  0  2  0  0  3  0  0  0  0  0  0
  187.8310  175.4650  145.5470 O   0  0  0  0  0  0  0  0  0  0  0  0
  190.0510  172.7460  141.2450 C   0  0  0  0  0  0  0  0  0  0  0  0
  189.4950  175.3180  143.7690 C   0  0  1  0  0  3  0  0  0  0  0  0
  190.4240  177.2070  146.9230 C   0  0  2  0  0  3  0  0  0  0  0  0
  190.0230  173.5580  142.3660 C   0  0  0  0  0  0  0  0  0  0  0  0
  188.3430  176.1090  144.4130 C   0  0  1  0  0  3  0  0  0  0  0  0
  189.3660  173.1470  140.1380 N   0  0  0  0  0  0  0  0  0  0  0  0
  191.8540  176.9770  147.4410 C   0  0  0  0  0  2  0  0  0  0  0  0
  190.5660  173.1900  143.6120 N   0  0  0  0  0  0  0  0  0  0  0  0
  192.9460  171.8470  142.3140 C   0  0  0  0  0  1  0  0  0  0  0  0
  187.6450  176.3050  141.2650 C   0  0  0  0  0  2  0  0  0  0  0  0
  188.6520  174.3160  140.1240 C   0  0  0  0  0  3  0  0  0  0  0  0
  190.9710  171.8080  143.8530 C   0  0  0  0  0  2  0  0  0  0  0  0
  189.5100  176.0740  147.1620 N   0  0  1  0  0  0  0  0  0  0  0  0
  188.1540  176.3030  146.6300 C   0  0  0  0  0  2  0  0  0  0  0  0
  188.6020  175.1450  141.2620 C   0  0  0  0  0  0  0  0  0  0  0  0
  189.9580  174.0870  144.5860 C   0  0  1  0  0  3  0  0  0  0  0  0
  190.6860  171.3840  141.3360 C   0  0  0  0  0  2  0  0  0  0  0  0
  187.2570  176.5800  143.4450 C   0  0  2  0  0  3  0  0  0  0  0  0
  191.8100  169.7230  142.8020 C   0  0  0  0  0  1  0  0  0  0  0  0
  190.0390  174.7020  147.0410 C   0  0  0  0  0  2  0  0  0  0  0  0
  190.4210  177.6330  145.6060 F   0  0  0  0  0  0  0  0  0  0  0  0
  190.8610  174.3980  145.7730 C   0  0  2  0  0  3  0  0  0  0  0  0
  187.8660  177.1800  142.3350 O   0  0  0  0  0  0  0  0  0  0  0  0
  186.3240  178.9060  143.7530 C   0  0  0  0  0  3  0  0  0  0  0  0
  186.3230  177.5470  144.1040 C   0  0  0  0  0  0  0  0  0  0  0  0
  185.4570  177.0910  145.1040 C   0  0  0  0  0  3  0  0  0  0  0  0
  183.7540  177.5360  146.7100 F   0  0  0  0  0  0  0  0  0  0  0  0
  184.5930  179.3350  145.3910 C   0  0  0  0  0  3  0  0  0  0  0  0
  184.5920  177.9820  145.7450 C   0  0  0  0  0  0  0  0  0  0  0  0
  185.4600  179.7960  144.3950 C   0  0  0  0  0  3  0  0  0  0  0  0
  194.9800  175.3530  146.1610 N   0  0  0  0  0  1  0  0  0  0  0  0
  194.0500  176.4420  146.4000 C   0  0  0  0  0  2  0  0  0  0  0  0
  1  4  1  0  0  0  0
  2 24  1  0  0  0  0
  2 17  1  0  0  0  0
  4 37  1  6  0  0  0
  4 12  1  0  0  0  0
  5 19  1  0  0  0  0
  6 22  1  0  0  0  0
  6  9  2  0  0  0  0
  7  3  1  6  0  0  0
  7 10  1  0  0  0  0
  7 21  1  0  0  0  0
  8 26  1  6  0  0  0
  8 18  1  0  0  0  0
  8 12  1  0  0  0  0
  9  3  1  0  0  0  0
  9 13  1  0  0  0  0
 10  5  1  1  0  0  0
 11  6  1  0  0  0  0
 13 17  1  0  0  0  0
 14  2  1  0  0  0  0
 15 28  1  0  0  0  0
 16 11  2  0  0  0  0
 16 20  1  0  0  0  0
 18 19  1  6  0  0  0
 20 15  1  0  0  0  0
 20  3  2  0  0  0  0
 21 13  1  6  0  0  0
 21 27  1  0  0  0  0
 22  2  1  0  0  0  0
 23 30  1  1  0  0  0
 23 10  1  0  0  0  0
 25 18  1  0  0  0  0
 27  1  1  6  0  0  0
 27 25  1  0  0  0  0
 28 23  1  0  0  0  0
 29 30  2  0  0  0  0
 29 35  1  0  0  0  0
 30 31  1  0  0  0  0
 31 34  2  0  0  0  0
 33 34  1  0  0  0  0
 34 32  1  0  0  0  0
 35 33  2  0  0  0  0
 36 37  1  0  0  0  0
M  END
>  <MODEL>
2

>  <REMARK>
 VINA RESULT:      -9.6      0.782      1.116
  Name = 
  2 active torsions:
  status: ('A' for Active; 'I' for Inactive)
    1  A    between atoms: C_4  and  C_37
    2  A    between atoms: C_23  and  C_30
                            x       y       z     vdW  Elec       q    Type
                         _______ _______ _______ _____ _____    ______ ____

>  <TORSDO>
F 2

$$$$
=
 OpenBabel11112417103D

 37 43  0  0  1  0  0  0  0  0999 V2000
  192.1770  175.4640  144.5610 C   0  0  0  0  0  2  0  0  0  0  0  0
  190.9780  172.4250  140.6830 C   0  0  0  0  0  0  0  0  0  0  0  0
  188.7510  175.6060  142.2740 C   0  0  0  0  0  0  0  0  0  0  0  0
  193.1640  175.6170  145.7190 C   0  0  2  0  0  3  0  0  0  0  0  0
  188.1820  175.1770  145.7590 O   0  0  0  0  0  0  0  0  0  0  0  0
  189.1390  174.1740  140.3820 C   0  0  0  0  0  0  0  0  0  0  0  0
  189.3000  175.7480  143.6670 C   0  0  1  0  0  3  0  0  0  0  0  0
  191.0600  176.6030  146.9160 C   0  0  2  0  0  3  0  0  0  0  0  0
  189.4200  174.5800  141.6750 C   0  0  0  0  0  0  0  0  0  0  0  0
  188.3710  176.1900  144.8100 C   0  0  1  0  0  3  0  0  0  0  0  0
  188.1810  174.8480  139.6850 N   0  0  0  0  0  0  0  0  0  0  0  0
  192.5760  176.3430  146.9410 C   0  0  0  0  0  2  0  0  0  0  0  0
  190.2790  173.8810  142.5440 N   0  0  0  0  0  0  0  0  0  0  0  0
  192.2110  173.2310  140.3090 C   0  0  0  0  0  1  0  0  0  0  0  0
  186.8450  177.3210  142.1970 C   0  0  0  0  0  2  0  0  0  0  0  0
  187.4960  175.8950  140.2430 C   0  0  0  0  0  3  0  0  0  0  0  0
  190.7270  172.5350  142.2020 C   0  0  0  0  0  2  0  0  0  0  0  0
  190.2390  175.3790  146.9940 N   0  0  1  0  0  0  0  0  0  0  0  0
  188.7910  175.6490  146.9350 C   0  0  0  0  0  2  0  0  0  0  0  0
  187.7600  176.3090  141.5640 C   0  0  0  0  0  0  0  0  0  0  0  0
  189.9620  174.3640  143.8830 C   0  0  1  0  0  3  0  0  0  0  0  0
  189.7680  172.9140  139.8510 C   0  0  0  0  0  2  0  0  0  0  0  0
  187.0650  176.8510  144.3660 C   0  0  2  0  0  3  0  0  0  0  0  0
  191.2400  170.9740  140.3430 C   0  0  0  0  0  1  0  0  0  0  0  0
  190.7100  174.1680  146.2940 C   0  0  0  0  0  2  0  0  0  0  0  0
  190.7010  177.4250  145.8610 F   0  0  0  0  0  0  0  0  0  0  0  0
  191.1560  174.3560  144.8300 C   0  0  2  0  0  3  0  0  0  0  0  0
  187.3520  177.8250  143.4000 O   0  0  0  0  0  0  0  0  0  0  0  0
  184.9500  177.4430  145.6120 C   0  0  0  0  0  3  0  0  0  0  0  0
  186.3500  177.4740  145.5250 C   0  0  0  0  0  0  0  0  0  0  0  0
  187.0920  178.1190  146.5210 C   0  0  0  0  0  3  0  0  0  0  0  0
  187.1640  179.3440  148.5640 F   0  0  0  0  0  0  0  0  0  0  0  0
  185.0470  178.6880  147.6870 C   0  0  0  0  0  3  0  0  0  0  0  0
  186.4420  178.7230  147.6010 C   0  0  0  0  0  0  0  0  0  0  0  0
  184.3010  178.0490  146.6910 C   0  0  0  0  0  3  0  0  0  0  0  0
  194.6850  177.4690  146.1450 N   0  0  0  0  0  1  0  0  0  0  0  0
  194.4040  176.3570  145.2540 C   0  0  0  0  0  2  0  0  0  0  0  0
  1  4  1  0  0  0  0
  2 17  1  0  0  0  0
  4 37  1  6  0  0  0
  4 12  1  0  0  0  0
  5 19  1  0  0  0  0
  6  9  2  0  0  0  0
  7  3  1  6  0  0  0
  7 21  1  0  0  0  0
  7 10  1  0  0  0  0
  8 26  1  6  0  0  0
  8 12  1  0  0  0  0
  8 18  1  0  0  0  0
  9  3  1  0  0  0  0
  9 13  1  0  0  0  0
 10  5  1  6  0  0  0
 11 16  2  0  0  0  0
 11  6  1  0  0  0  0
 14  2  1  0  0  0  0
 15 28  1  0  0  0  0
 16 20  1  0  0  0  0
 17 13  1  0  0  0  0
 18 25  1  6  0  0  0
 19 18  1  0  0  0  0
 20 15  1  0  0  0  0
 20  3  2  0  0  0  0
 21 13  1  6  0  0  0
 21 27  1  0  0  0  0
 22  6  1  0  0  0  0
 22  2  1  0  0  0  0
 23 10  1  0  0  0  0
 23 30  1  1  0  0  0
 24  2  1  0  0  0  0
 27  1  1  1  0  0  0
 27 25  1  0  0  0  0
 28 23  1  0  0  0  0
 29 35  1  0  0  0  0
 30 29  2  0  0  0  0
 30 31  1  0  0  0  0
 31 34  2  0  0  0  0
 34 33  1  0  0  0  0
 34 32  1  0  0  0  0
 35 33  2  0  0  0  0
 37 36  1  0  0  0  0
M  END
>  <MODEL>
3

>  <REMARK>
 VINA RESULT:      -9.5      1.525      1.774
  Name = 
  2 active torsions:
  status: ('A' for Active; 'I' for Inactive)
    1  A    between atoms: C_4  and  C_37
    2  A    between atoms: C_23  and  C_30
                            x       y       z     vdW  Elec       q    Type
                         _______ _______ _______ _____ _____    ______ ____

>  <TORSDO>
F 2

$$$$
=
 OpenBabel11112417103D

 37 43  0  0  1  0  0  0  0  0999 V2000
  191.2890  172.7510  142.5320 C   0  0  0  0  0  2  0  0  0  0  0  0
  195.7440  175.1270  142.9990 C   0  0  0  0  0  0  0  0  0  0  0  0
  192.2070  175.7930  145.1570 C   0  0  0  0  0  0  0  0  0  0  0  0
  190.5180  171.7930  141.6240 C   0  0  2  0  0  3  0  0  0  0  0  0
  189.4760  176.4900  142.9890 O   0  0  0  0  0  0  0  0  0  0  0  0
  194.5970  176.0500  145.0890 C   0  0  0  0  0  0  0  0  0  0  0  0
  191.1430  175.2360  144.2530 C   0  0  1  0  0  3  0  0  0  0  0  0
  188.4990  173.2790  142.3640 C   0  0  2  0  0  3  0  0  0  0  0  0
  193.4050  175.6230  144.5280 C   0  0  0  0  0  0  0  0  0  0  0  0
  189.7500  175.8890  144.2240 C   0  0  1  0  0  3  0  0  0  0  0  0
  194.5620  176.6320  146.3200 N   0  0  0  0  0  0  0  0  0  0  0  0
  188.9950  172.0170  141.6390 C   0  0  0  0  0  2  0  0  0  0  0  0
  193.2890  175.1420  143.2110 N   0  0  0  0  0  0  0  0  0  0  0  0
  195.9250  173.6690  143.3860 C   0  0  0  0  0  1  0  0  0  0  0  0
  190.8810  176.7910  147.1120 C   0  0  0  0  0  2  0  0  0  0  0  0
  193.3830  176.8070  146.9940 C   0  0  0  0  0  3  0  0  0  0  0  0
  194.3940  175.3080  142.2720 C   0  0  0  0  0  2  0  0  0  0  0  0
  188.8820  174.5410  141.7040 N   0  0  1  0  0  0  0  0  0  0  0  0
  188.4250  175.7380  142.4330 C   0  0  0  0  0  2  0  0  0  0  0  0
  192.1600  176.3920  146.4300 C   0  0  0  0  0  0  0  0  0  0  0  0
  191.8700  175.2230  142.8860 C   0  0  1  0  0  3  0  0  0  0  0  0
  195.8550  176.0160  144.2620 C   0  0  0  0  0  2  0  0  0  0  0  0
  189.4310  176.7910  145.4180 C   0  0  2  0  0  3  0  0  0  0  0  0
  196.8570  175.5060  142.0460 C   0  0  0  0  0  1  0  0  0  0  0  0
  190.2110  174.6300  141.0670 C   0  0  0  0  0  2  0  0  0  0  0  0
  188.8240  173.2550  143.7100 F   0  0  0  0  0  0  0  0  0  0  0  0
  191.4060  174.1470  141.9130 C   0  0  2  0  0  3  0  0  0  0  0  0
  189.7660  176.1180  146.6000 O   0  0  0  0  0  0  0  0  0  0  0  0
  187.0460  176.4160  146.1540 C   0  0  0  0  0  3  0  0  0  0  0  0
  187.9840  177.1740  145.4370 C   0  0  0  0  0  0  0  0  0  0  0  0
  187.5600  178.2900  144.7070 C   0  0  0  0  0  3  0  0  0  0  0  0
  185.8040  179.7330  143.9910 F   0  0  0  0  0  0  0  0  0  0  0  0
  185.2780  177.8960  145.4150 C   0  0  0  0  0  3  0  0  0  0  0  0
  186.2100  178.6520  144.6970 C   0  0  0  0  0  0  0  0  0  0  0  0
  185.6960  176.7780  146.1430 C   0  0  0  0  0  3  0  0  0  0  0  0
  190.8170  169.5100  140.8340 N   0  0  0  0  0  1  0  0  0  0  0  0
  190.8090  170.3560  142.0140 C   0  0  0  0  0  2  0  0  0  0  0  0
  2 14  1  0  0  0  0
  2 22  1  0  0  0  0
  3 20  1  0  0  0  0
  4 12  1  0  0  0  0
  4 37  1  1  0  0  0
  4  1  1  0  0  0  0
  6 11  2  0  0  0  0
  7  3  1  1  0  0  0
  8 26  1  1  0  0  0
  9  6  1  0  0  0  0
  9  3  2  0  0  0  0
 10  5  1  6  0  0  0
 10  7  1  0  0  0  0
 10 23  1  0  0  0  0
 11 16  1  0  0  0  0
 12  8  1  0  0  0  0
 13  9  1  0  0  0  0
 17  2  1  0  0  0  0
 17 13  1  0  0  0  0
 18 25  1  1  0  0  0
 18  8  1  0  0  0  0
 18 19  1  0  0  0  0
 19  5  1  0  0  0  0
 20 16  2  0  0  0  0
 20 15  1  0  0  0  0
 21 13  1  1  0  0  0
 21  7  1  0  0  0  0
 22  6  1  0  0  0  0
 23 30  1  1  0  0  0
 23 28  1  0  0  0  0
 24  2  1  0  0  0  0
 27 25  1  1  0  0  0
 27  1  1  0  0  0  0
 27 21  1  0  0  0  0
 28 15  1  0  0  0  0
 30 29  2  0  0  0  0
 31 30  1  0  0  0  0
 32 34  1  0  0  0  0
 33 35  2  0  0  0  0
 34 31  2  0  0  0  0
 34 33  1  0  0  0  0
 35 29  1  0  0  0  0
 36 37  1  0  0  0  0
M  END
>  <MODEL>
4

>  <REMARK>
 VINA RESULT:      -9.1      2.233      5.280
  Name = 
  2 active torsions:
  status: ('A' for Active; 'I' for Inactive)
    1  A    between atoms: C_4  and  C_37
    2  A    between atoms: C_23  and  C_30
                            x       y       z     vdW  Elec       q    Type
                         _______ _______ _______ _____ _____    ______ ____

>  <TORSDO>
F 2

$$$$
=
 OpenBabel11112417103D

 37 43  0  0  1  0  0  0  0  0999 V2000
  192.7200  171.8490  141.4460 C   0  0  0  0  0  2  0  0  0  0  0  0
  196.2850  174.8770  139.4870 C   0  0  0  0  0  0  0  0  0  0  0  0
  194.2030  175.3190  143.1030 C   0  0  0  0  0  0  0  0  0  0  0  0
  191.8030  170.6760  141.0970 C   0  0  2  0  0  3  0  0  0  0  0  0
  190.6840  175.3190  142.5830 O   0  0  0  0  0  0  0  0  0  0  0  0
  196.1540  175.9020  141.8240 C   0  0  0  0  0  0  0  0  0  0  0  0
  192.9610  174.4980  142.8880 C   0  0  1  0  0  3  0  0  0  0  0  0
  190.1620  171.9470  142.6860 C   0  0  2  0  0  3  0  0  0  0  0  0
  194.9470  175.2380  141.9630 C   0  0  0  0  0  0  0  0  0  0  0  0
  191.6360  174.9370  143.5360 C   0  0  1  0  0  3  0  0  0  0  0  0
  196.6150  176.6350  142.8760 N   0  0  0  0  0  0  0  0  0  0  0  0
  190.4720  170.6810  141.8680 C   0  0  0  0  0  2  0  0  0  0  0  0
  194.2960  174.5700  140.9090 N   0  0  0  0  0  0  0  0  0  0  0  0
  196.9070  173.5250  139.7960 C   0  0  0  0  0  1  0  0  0  0  0  0
  193.8390  176.3740  145.4120 C   0  0  0  0  0  2  0  0  0  0  0  0
  195.9060  176.7310  144.0450 C   0  0  0  0  0  3  0  0  0  0  0  0
  194.7460  174.7620  139.5340 C   0  0  0  0  0  2  0  0  0  0  0  0
  189.9240  173.1490  141.8660 N   0  0  1  0  0  0  0  0  0  0  0  0
  189.6620  174.3560  142.6700 C   0  0  0  0  0  2  0  0  0  0  0  0
  194.6700  176.0730  144.1960 C   0  0  0  0  0  0  0  0  0  0  0  0
  192.9140  174.4040  141.3430 C   0  0  1  0  0  3  0  0  0  0  0  0
  196.8270  175.9350  140.4780 C   0  0  0  0  0  2  0  0  0  0  0  0
  191.7760  175.9380  144.6840 C   0  0  2  0  0  3  0  0  0  0  0  0
  196.6940  175.2770  138.0860 C   0  0  0  0  0  1  0  0  0  0  0  0
  190.7260  173.3380  140.6420 C   0  0  0  0  0  2  0  0  0  0  0  0
  191.1020  172.1520  143.6830 F   0  0  0  0  0  0  0  0  0  0  0  0
  192.2500  173.1500  140.7880 C   0  0  2  0  0  3  0  0  0  0  0  0
  192.7680  175.4860  145.5650 O   0  0  0  0  0  0  0  0  0  0  0  0
  189.6690  177.2320  145.1930 C   0  0  0  0  0  3  0  0  0  0  0  0
  190.4800  176.1090  145.4150 C   0  0  0  0  0  0  0  0  0  0  0  0
  190.0900  175.1460  146.3530 C   0  0  0  0  0  3  0  0  0  0  0  0
  188.5180  174.3640  147.9640 F   0  0  0  0  0  0  0  0  0  0  0  0
  188.0850  176.4170  146.8330 C   0  0  0  0  0  3  0  0  0  0  0  0
  188.8930  175.2990  147.0590 C   0  0  0  0  0  0  0  0  0  0  0  0
  188.4730  177.3840  145.9010 C   0  0  0  0  0  3  0  0  0  0  0  0
  192.4770  169.0380  142.7670 N   0  0  0  0  0  1  0  0  0  0  0  0
  192.5170  169.3620  141.3520 C   0  0  0  0  0  2  0  0  0  0  0  0
  2 17  1  0  0  0  0
  2 14  1  0  0  0  0
  2 22  1  0  0  0  0
  3 20  1  0  0  0  0
  4 37  1  1  0  0  0
  4  1  1  0  0  0  0
  4 12  1  0  0  0  0
  5 19  1  0  0  0  0
  6  9  1  0  0  0  0
  6 11  2  0  0  0  0
  7  3  1  6  0  0  0
  7 10  1  0  0  0  0
  8 26  1  1  0  0  0
  9  3  2  0  0  0  0
 10  5  1  6  0  0  0
 10 23  1  0  0  0  0
 11 16  1  0  0  0  0
 12  8  1  0  0  0  0
 13  9  1  0  0  0  0
 15 28  1  0  0  0  0
 16 20  2  0  0  0  0
 17 13  1  0  0  0  0
 18 25  1  1  0  0  0
 18 19  1  0  0  0  0
 18  8  1  0  0  0  0
 20 15  1  0  0  0  0
 21 13  1  1  0  0  0
 21  7  1  0  0  0  0
 22  6  1  0  0  0  0
 23 30  1  1  0  0  0
 23 28  1  0  0  0  0
 24  2  1  0  0  0  0
 27 25  1  1  0  0  0
 27 21  1  0  0  0  0
 27  1  1  0  0  0  0
 29 30  2  0  0  0  0
 29 35  1  0  0  0  0
 30 31  1  0  0  0  0
 31 34  2  0  0  0  0
 33 34  1  0  0  0  0
 34 32  1  0  0  0  0
 35 33  2  0  0  0  0
 37 36  1  0  0  0  0
M  END
>  <MODEL>
5

>  <REMARK>
 VINA RESULT:      -8.6      3.260      6.222
  Name = 
  2 active torsions:
  status: ('A' for Active; 'I' for Inactive)
    1  A    between atoms: C_4  and  C_37
    2  A    between atoms: C_23  and  C_30
                            x       y       z     vdW  Elec       q    Type
                         _______ _______ _______ _____ _____    ______ ____

>  <TORSDO>
F 2

$$$$
=
 OpenBabel11112417103D

 37 43  0  0  1  0  0  0  0  0999 V2000
  191.0700  175.7410  145.5450 C   0  0  0  0  0  2  0  0  0  0  0  0
  187.2970  177.3040  142.5390 C   0  0  0  0  0  0  0  0  0  0  0  0
  190.3910  174.6160  141.6390 C   0  0  0  0  0  0  0  0  0  0  0  0
  191.7590  176.0390  146.8770 C   0  0  2  0  0  3  0  0  0  0  0  0
  193.5840  176.0700  142.2220 O   0  0  0  0  0  0  0  0  0  0  0  0
  188.1910  175.4080  141.0770 C   0  0  0  0  0  0  0  0  0  0  0  0
  191.4520  174.9630  142.6460 C   0  0  1  0  0  3  0  0  0  0  0  0
  193.8820  175.3130  145.5370 C   0  0  2  0  0  3  0  0  0  0  0  0
  189.3360  175.4520  141.8540 C   0  0  0  0  0  0  0  0  0  0  0  0
  192.9370  174.8290  142.2650 C   0  0  1  0  0  3  0  0  0  0  0  0
  188.1170  174.4760  140.0860 N   0  0  0  0  0  0  0  0  0  0  0  0
  193.2570  175.6880  146.8910 C   0  0  0  0  0  2  0  0  0  0  0  0
  189.5950  176.4540  142.8080 N   0  0  0  0  0  0  0  0  0  0  0  0
  186.7060  176.5220  143.7000 C   0  0  0  0  0  1  0  0  0  0  0  0
  191.5000  172.8170  140.1850 C   0  0  0  0  0  2  0  0  0  0  0  0
  189.1470  173.6060  139.8450 C   0  0  0  0  0  3  0  0  0  0  0  0
  188.7680  177.6570  142.8480 C   0  0  0  0  0  2  0  0  0  0  0  0
  193.9450  176.4300  144.5750 N   0  0  1  0  0  0  0  0  0  0  0  0
  194.5170  176.0410  143.2740 C   0  0  0  0  0  2  0  0  0  0  0  0
  190.3250  173.6490  140.6180 C   0  0  0  0  0  0  0  0  0  0  0  0
  191.0290  176.3920  143.0650 C   0  0  1  0  0  3  0  0  0  0  0  0
  187.1500  176.4840  141.2350 C   0  0  0  0  0  2  0  0  0  0  0  0
  193.2160  173.9600  141.0370 C   0  0  2  0  0  3  0  0  0  0  0  0
  186.5160  178.5910  142.3880 C   0  0  0  0  0  1  0  0  0  0  0  0
  192.8290  177.3940  144.5380 C   0  0  0  0  0  2  0  0  0  0  0  0
  193.3000  174.1750  145.0040 F   0  0  0  0  0  0  0  0  0  0  0  0
  191.4100  176.7920  144.4850 C   0  0  2  0  0  3  0  0  0  0  0  0
  192.5050  172.7590  141.1580 O   0  0  0  0  0  0  0  0  0  0  0  0
  195.3270  172.7700  141.7450 C   0  0  0  0  0  3  0  0  0  0  0  0
  194.6790  173.6770  140.8930 C   0  0  0  0  0  0  0  0  0  0  0  0
  195.4140  174.3500  139.9100 C   0  0  0  0  0  3  0  0  0  0  0  0
  197.4910  174.7650  138.8190 F   0  0  0  0  0  0  0  0  0  0  0  0
  197.4270  173.2070  140.6210 C   0  0  0  0  0  3  0  0  0  0  0  0
  196.7850  174.1140  139.7730 C   0  0  0  0  0  0  0  0  0  0  0  0
  196.6980  172.5350  141.6080 C   0  0  0  0  0  3  0  0  0  0  0  0
  189.7220  174.9160  147.5980 N   0  0  0  0  0  1  0  0  0  0  0  0
  191.0660  175.2910  148.0020 C   0  0  0  0  0  2  0  0  0  0  0  0
  1  4  1  0  0  0  0
  2 17  1  0  0  0  0
  2 14  1  0  0  0  0
  3  9  1  0  0  0  0
  4 12  1  0  0  0  0
  4 37  1  1  0  0  0
  5 19  1  0  0  0  0
  6 22  1  0  0  0  0
  6  9  2  0  0  0  0
  7  3  1  6  0  0  0
  7 21  1  0  0  0  0
  8 26  1  6  0  0  0
  8 12  1  0  0  0  0
  9 13  1  0  0  0  0
 10  5  1  6  0  0  0
 10  7  1  0  0  0  0
 11  6  1  0  0  0  0
 13 17  1  0  0  0  0
 15 20  1  0  0  0  0
 15 28  1  0  0  0  0
 16 11  2  0  0  0  0
 16 20  1  0  0  0  0
 18 19  1  6  0  0  0
 18  8  1  0  0  0  0
 20  3  2  0  0  0  0
 21 13  1  1  0  0  0
 21 27  1  0  0  0  0
 22  2  1  0  0  0  0
 23 30  1  1  0  0  0
 23 28  1  0  0  0  0
 23 10  1  0  0  0  0
 24  2  1  0  0  0  0
 25 18  1  0  0  0  0
 27 25  1  6  0  0  0
 27  1  1  0  0  0  0
 30 29  2  0  0  0  0
 31 30  1  0  0  0  0
 32 34  1  0  0  0  0
 33 35  2  0  0  0  0
 34 31  2  0  0  0  0
 34 33  1  0  0  0  0
 35 29  1  0  0  0  0
 36 37  1  0  0  0  0
M  END
>  <MODEL>
6

>  <REMARK>
 VINA RESULT:      -8.2      3.187      7.131
  Name = 
  2 active torsions:
  status: ('A' for Active; 'I' for Inactive)
    1  A    between atoms: C_4  and  C_37
    2  A    between atoms: C_23  and  C_30
                            x       y       z     vdW  Elec       q    Type
                         _______ _______ _______ _____ _____    ______ ____

>  <TORSDO>
F 2

$$$$
=
 OpenBabel11112417103D

 37 43  0  0  1  0  0  0  0  0999 V2000
  193.2800  174.7220  142.9740 C   0  0  0  0  0  2  0  0  0  0  0  0
  191.4560  171.5240  139.4870 C   0  0  0  0  0  0  0  0  0  0  0  0
  189.4850  174.7170  141.3650 C   0  0  0  0  0  0  0  0  0  0  0  0
  194.4610  174.9340  143.9210 C   0  0  2  0  0  3  0  0  0  0  0  0
  189.5870  174.4010  144.9070 O   0  0  0  0  0  0  0  0  0  0  0  0
  189.5490  173.2260  139.4800 C   0  0  0  0  0  0  0  0  0  0  0  0
  190.2810  174.9180  142.6260 C   0  0  1  0  0  3  0  0  0  0  0  0
  192.5930  175.9220  145.4600 C   0  0  2  0  0  3  0  0  0  0  0  0
  190.0570  173.6830  140.6840 C   0  0  0  0  0  0  0  0  0  0  0  0
  189.5690  175.3840  143.9090 C   0  0  1  0  0  3  0  0  0  0  0  0
  188.4620  173.8560  138.9540 N   0  0  0  0  0  0  0  0  0  0  0  0
  194.0930  175.6920  145.2090 C   0  0  0  0  0  2  0  0  0  0  0  0
  191.0800  173.0320  141.3990 N   0  0  0  0  0  0  0  0  0  0  0  0
  192.5770  172.3400  138.8630 C   0  0  0  0  0  1  0  0  0  0  0  0
  187.5550  176.3910  141.5920 C   0  0  0  0  0  2  0  0  0  0  0  0
  187.8660  174.9090  139.5970 C   0  0  0  0  0  3  0  0  0  0  0  0
  191.4910  171.6840  141.0220 C   0  0  0  0  0  2  0  0  0  0  0  0
  191.8320  174.6870  145.7280 N   0  0  1  0  0  0  0  0  0  0  0  0
  190.3930  174.9270  145.9330 C   0  0  0  0  0  2  0  0  0  0  0  0
  188.3620  175.3750  140.8320 C   0  0  0  0  0  0  0  0  0  0  0  0
  191.0060  173.5570  142.7570 C   0  0  1  0  0  3  0  0  0  0  0  0
  190.1000  171.9600  138.8800 C   0  0  0  0  0  2  0  0  0  0  0  0
  188.1870  176.0030  143.6960 C   0  0  2  0  0  3  0  0  0  0  0  0
  191.6870  170.0670  139.1490 C   0  0  0  0  0  1  0  0  0  0  0  0
  192.1950  173.4610  144.9910 C   0  0  0  0  0  2  0  0  0  0  0  0
  192.0230  176.7000  144.4650 F   0  0  0  0  0  0  0  0  0  0  0  0
  192.3550  173.6050  143.4640 C   0  0  2  0  0  3  0  0  0  0  0  0
  188.2650  176.9470  142.6630 O   0  0  0  0  0  0  0  0  0  0  0  0
  188.5620  177.3190  145.8180 C   0  0  0  0  0  3  0  0  0  0  0  0
  187.6850  176.6530  144.9480 C   0  0  0  0  0  0  0  0  0  0  0  0
  186.3250  176.5700  145.2660 C   0  0  0  0  0  3  0  0  0  0  0  0
  184.5240  177.0730  146.7430 F   0  0  0  0  0  0  0  0  0  0  0  0
  186.7160  177.8200  147.3030 C   0  0  0  0  0  3  0  0  0  0  0  0
  185.8410  177.1530  146.4400 C   0  0  0  0  0  0  0  0  0  0  0  0
  188.0770  177.9020  146.9920 C   0  0  0  0  0  3  0  0  0  0  0  0
  196.5930  174.7500  142.7610 N   0  0  0  0  0  1  0  0  0  0  0  0
  195.5730  175.6820  143.2090 C   0  0  0  0  0  2  0  0  0  0  0  0
  1  4  1  0  0  0  0
  2 17  1  0  0  0  0
  4 37  1  6  0  0  0
  4 12  1  0  0  0  0
  5 19  1  0  0  0  0
  6  9  1  0  0  0  0
  7  3  1  6  0  0  0
  7 21  1  0  0  0  0
  7 10  1  0  0  0  0
  8 26  1  6  0  0  0
  8 18  1  0  0  0  0
  9  3  2  0  0  0  0
  9 13  1  0  0  0  0
 10  5  1  1  0  0  0
 11  6  2  0  0  0  0
 11 16  1  0  0  0  0
 12  8  1  0  0  0  0
 14  2  1  0  0  0  0
 15 28  1  0  0  0  0
 16 20  2  0  0  0  0
 17 13  1  0  0  0  0
 18 25  1  6  0  0  0
 18 19  1  0  0  0  0
 20  3  1  0  0  0  0
 20 15  1  0  0  0  0
 21 13  1  6  0  0  0
 21 27  1  0  0  0  0
 22  6  1  0  0  0  0
 22  2  1  0  0  0  0
 23 10  1  0  0  0  0
 23 30  1  1  0  0  0
 24  2  1  0  0  0  0
 27  1  1  1  0  0  0
 27 25  1  0  0  0  0
 28 23  1  0  0  0  0
 29 35  1  0  0  0  0
 30 31  1  0  0  0  0
 30 29  2  0  0  0  0
 31 34  2  0  0  0  0
 34 32  1  0  0  0  0
 34 33  1  0  0  0  0
 35 33  2  0  0  0  0
 36 37  1  0  0  0  0
M  END
>  <MODEL>
7

>  <REMARK>
 VINA RESULT:      -8.2      1.992      2.571
  Name = 
  2 active torsions:
  status: ('A' for Active; 'I' for Inactive)
    1  A    between atoms: C_4  and  C_37
    2  A    between atoms: C_23  and  C_30
                            x       y       z     vdW  Elec       q    Type
                         _______ _______ _______ _____ _____    ______ ____

>  <TORSDO>
F 2

$$$$
=
 OpenBabel11112417103D

 37 43  0  0  1  0  0  0  0  0999 V2000
  189.4800  174.9130  141.6280 C   0  0  0  0  0  2  0  0  0  0  0  0
  194.3360  175.4080  143.0040 C   0  0  0  0  0  0  0  0  0  0  0  0
  190.9230  175.5070  145.4430 C   0  0  0  0  0  0  0  0  0  0  0  0
  188.5660  174.8890  140.4030 C   0  0  2  0  0  3  0  0  0  0  0  0
  188.6100  177.9740  144.3390 O   0  0  0  0  0  0  0  0  0  0  0  0
  193.3010  175.1730  145.3290 C   0  0  0  0  0  0  0  0  0  0  0  0
  189.8220  175.8620  144.4810 C   0  0  1  0  0  3  0  0  0  0  0  0
  186.9250  176.0900  142.0450 C   0  0  2  0  0  3  0  0  0  0  0  0
  192.0850  175.4570  144.7320 C   0  0  0  0  0  0  0  0  0  0  0  0
  188.6380  176.7190  144.9610 C   0  0  1  0  0  3  0  0  0  0  0  0
  193.3200  174.9090  146.6660 N   0  0  0  0  0  0  0  0  0  0  0  0
  187.1480  175.4200  140.6790 C   0  0  0  0  0  2  0  0  0  0  0  0
  191.9500  175.8850  143.3970 N   0  0  0  0  0  0  0  0  0  0  0  0
  194.1250  174.0090  142.4480 C   0  0  0  0  0  1  0  0  0  0  0  0
  189.7430  175.4520  147.7190 C   0  0  0  0  0  2  0  0  0  0  0  0
  192.1740  174.9340  147.4150 C   0  0  0  0  0  3  0  0  0  0  0  0
  193.1280  176.2980  142.6400 C   0  0  0  0  0  2  0  0  0  0  0  0
  187.6520  177.3610  142.2160 N   0  0  1  0  0  0  0  0  0  0  0  0
  187.4500  177.9700  143.5430 C   0  0  0  0  0  2  0  0  0  0  0  0
  190.9310  175.2360  146.8240 C   0  0  0  0  0  0  0  0  0  0  0  0
  190.6220  176.4790  143.3070 C   0  0  1  0  0  3  0  0  0  0  0  0
  194.5690  175.3290  144.5320 C   0  0  0  0  0  2  0  0  0  0  0  0
  188.4640  176.7940  146.4790 C   0  0  2  0  0  3  0  0  0  0  0  0
  195.5740  175.9920  142.3590 C   0  0  0  0  0  1  0  0  0  0  0  0
  189.0040  177.4840  141.6380 C   0  0  0  0  0  2  0  0  0  0  0  0
  187.1350  175.2040  143.0880 F   0  0  0  0  0  0  0  0  0  0  0  0
  189.9800  176.3270  141.9330 C   0  0  2  0  0  3  0  0  0  0  0  0
  188.5370  175.4990  147.0100 O   0  0  0  0  0  0  0  0  0  0  0  0
  185.9410  176.7900  146.5540 C   0  0  0  0  0  3  0  0  0  0  0  0
  187.1570  177.4260  146.8450 C   0  0  0  0  0  0  0  0  0  0  0  0
  187.1520  178.6820  147.4610 C   0  0  0  0  0  3  0  0  0  0  0  0
  185.9410  180.5110  148.3920 F   0  0  0  0  0  0  0  0  0  0  0  0
  184.7310  178.6600  147.5060 C   0  0  0  0  0  3  0  0  0  0  0  0
  185.9420  179.2970  147.7930 C   0  0  0  0  0  0  0  0  0  0  0  0
  184.7310  177.4060  146.8850 C   0  0  0  0  0  3  0  0  0  0  0  0
  188.2300  173.5160  138.4210 N   0  0  0  0  0  1  0  0  0  0  0  0
  188.4670  173.4780  139.8530 C   0  0  0  0  0  2  0  0  0  0  0  0
  2 22  1  0  0  0  0
  3 20  1  0  0  0  0
  4 37  1  1  0  0  0
  4 12  1  0  0  0  0
  4  1  1  0  0  0  0
  6 11  2  0  0  0  0
  7 10  1  0  0  0  0
  7  3  1  1  0  0  0
  8 18  1  0  0  0  0
  8 26  1  1  0  0  0
  9  6  1  0  0  0  0
  9  3  2  0  0  0  0
 10  5  1  1  0  0  0
 10 23  1  0  0  0  0
 11 16  1  0  0  0  0
 12  8  1  0  0  0  0
 13  9  1  0  0  0  0
 14  2  1  0  0  0  0
 17  2  1  0  0  0  0
 17 13  1  0  0  0  0
 18 25  1  1  0  0  0
 18 19  1  0  0  0  0
 19  5  1  0  0  0  0
 20 16  2  0  0  0  0
 20 15  1  0  0  0  0
 21 13  1  6  0  0  0
 21  7  1  0  0  0  0
 22  6  1  0  0  0  0
 23 30  1  6  0  0  0
 23 28  1  0  0  0  0
 24  2  1  0  0  0  0
 25 27  1  0  0  0  0
 27  1  1  1  0  0  0
 27 21  1  0  0  0  0
 28 15  1  0  0  0  0
 29 30  2  0  0  0  0
 29 35  1  0  0  0  0
 30 31  1  0  0  0  0
 31 34  2  0  0  0  0
 33 34  1  0  0  0  0
 34 32  1  0  0  0  0
 35 33  2  0  0  0  0
 36 37  1  0  0  0  0
M  END
>  <MODEL>
8

>  <REMARK>
 VINA RESULT:      -8.1      2.352      5.325
  Name = 
  2 active torsions:
  status: ('A' for Active; 'I' for Inactive)
    1  A    between atoms: C_4  and  C_37
    2  A    between atoms: C_23  and  C_30
                            x       y       z     vdW  Elec       q    Type
                         _______ _______ _______ _____ _____    ______ ____

>  <TORSDO>
F 2

$$$$
=
 OpenBabel11112417103D

 37 43  0  0  1  0  0  0  0  0999 V2000
  190.9010  173.5700  142.1300 C   0  0  0  0  0  2  0  0  0  0  0  0
  189.1570  176.1660  146.1210 C   0  0  0  0  0  0  0  0  0  0  0  0
  193.0840  174.8940  145.3650 C   0  0  0  0  0  0  0  0  0  0  0  0
  190.4400  172.7680  140.9130 C   0  0  2  0  0  3  0  0  0  0  0  0
  193.2290  171.3820  144.8260 O   0  0  0  0  0  0  0  0  0  0  0  0
  191.6610  176.4160  146.5670 C   0  0  0  0  0  0  0  0  0  0  0  0
  192.8970  173.7600  144.3950 C   0  0  1  0  0  3  0  0  0  0  0  0
  192.5700  171.3610  141.4760 C   0  0  2  0  0  3  0  0  0  0  0  0
  191.8450  175.3730  145.6750 C   0  0  0  0  0  0  0  0  0  0  0  0
  193.8650  172.5640  144.4280 C   0  0  1  0  0  3  0  0  0  0  0  0
  192.7620  176.9940  147.1230 N   0  0  0  0  0  0  0  0  0  0  0  0
  191.4160  171.6520  140.5010 C   0  0  0  0  0  2  0  0  0  0  0  0
  190.7930  174.6020  145.1460 N   0  0  0  0  0  0  0  0  0  0  0  0
  188.9960  177.0200  144.8740 C   0  0  0  0  0  1  0  0  0  0  0  0
  195.6110  174.9090  145.8020 C   0  0  0  0  0  2  0  0  0  0  0  0
  194.0260  176.5550  146.8270 C   0  0  0  0  0  3  0  0  0  0  0  0
  189.4530  174.7060  145.7150 C   0  0  0  0  0  2  0  0  0  0  0  0
  192.1370  170.7860  142.7640 N   0  0  1  0  0  0  0  0  0  0  0  0
  193.2540  170.5460  143.6950 C   0  0  0  0  0  2  0  0  0  0  0  0
  194.2280  175.4840  145.9340 C   0  0  0  0  0  0  0  0  0  0  0  0
  191.4140  173.3860  144.6350 C   0  0  1  0  0  3  0  0  0  0  0  0
  190.2680  176.7640  147.0180 C   0  0  0  0  0  2  0  0  0  0  0  0
  195.1840  172.8160  145.1610 C   0  0  2  0  0  3  0  0  0  0  0  0
  187.8530  176.1970  146.8880 C   0  0  0  0  0  1  0  0  0  0  0  0
  190.8760  171.2640  143.3620 C   0  0  0  0  0  2  0  0  0  0  0  0
  193.3980  172.4610  141.6290 F   0  0  0  0  0  0  0  0  0  0  0  0
  190.6910  172.7930  143.4320 C   0  0  2  0  0  3  0  0  0  0  0  0
  195.7260  174.0300  144.7190 O   0  0  0  0  0  0  0  0  0  0  0  0
  196.7360  171.5060  143.6620 C   0  0  0  0  0  3  0  0  0  0  0  0
  196.1580  171.7030  144.9240 C   0  0  0  0  0  0  0  0  0  0  0  0
  196.4710  170.8330  145.9740 C   0  0  0  0  0  3  0  0  0  0  0  0
  197.6660  168.9380  146.7870 F   0  0  0  0  0  0  0  0  0  0  0  0
  197.9410  169.5840  144.5090 C   0  0  0  0  0  3  0  0  0  0  0  0
  197.3630  169.7760  145.7680 C   0  0  0  0  0  0  0  0  0  0  0  0
  197.6270  170.4490  143.4560 C   0  0  0  0  0  3  0  0  0  0  0  0
  188.8030  173.9610  139.5620 N   0  0  0  0  0  1  0  0  0  0  0  0
  190.2200  173.6930  139.7300 C   0  0  0  0  0  2  0  0  0  0  0  0
  2 24  1  0  0  0  0
  2 22  1  0  0  0  0
  3  9  2  0  0  0  0
  3 20  1  0  0  0  0
  4 37  1  6  0  0  0
  4  1  1  0  0  0  0
  6 22  1  0  0  0  0
  6 11  2  0  0  0  0
  7 10  1  0  0  0  0
  7 21  1  0  0  0  0
  7  3  1  1  0  0  0
  8 26  1  1  0  0  0
  8 18  1  0  0  0  0
  9  6  1  0  0  0  0
 10  5  1  1  0  0  0
 10 23  1  0  0  0  0
 12  4  1  0  0  0  0
 12  8  1  0  0  0  0
 13  9  1  0  0  0  0
 13 17  1  0  0  0  0
 14  2  1  0  0  0  0
 15 20  1  0  0  0  0
 16 11  1  0  0  0  0
 17  2  1  0  0  0  0
 18 25  1  1  0  0  0
 18 19  1  0  0  0  0
 19  5  1  0  0  0  0
 20 16  2  0  0  0  0
 21 13  1  6  0  0  0
 23 30  1  6  0  0  0
 25 27  1  0  0  0  0
 27  1  1  6  0  0  0
 27 21  1  0  0  0  0
 28 23  1  0  0  0  0
 28 15  1  0  0  0  0
 29 30  1  0  0  0  0
 30 31  2  0  0  0  0
 33 34  2  0  0  0  0
 34 31  1  0  0  0  0
 34 32  1  0  0  0  0
 35 29  2  0  0  0  0
 35 33  1  0  0  0  0
 36 37  1  0  0  0  0
M  END
>  <MODEL>
9

>  <REMARK>
 VINA RESULT:      -8.1      3.742      8.920
  Name = 
  2 active torsions:
  status: ('A' for Active; 'I' for Inactive)
    1  A    between atoms: C_4  and  C_37
    2  A    between atoms: C_23  and  C_30
                            x       y       z     vdW  Elec       q    Type
                         _______ _______ _______ _____ _____    ______ ____

>  <TORSDO>
F 2

$$$$
