=
 OpenBabel11112417263D

 37 43  0  0  1  0  0  0  0  0999 V2000
  193.3110  172.0530  143.0900 C   0  0  0  0  0  0  0  0  0  0  0  0
  190.5580  174.1100  141.2130 C   0  0  1  0  0  3  0  0  0  0  0  0
  189.7760  177.1700  142.2560 O   0  0  0  0  0  0  0  0  0  0  0  0
  192.4910  172.3940  140.8350 C   0  0  2  0  0  3  0  0  0  0  0  0
  190.4130  174.8820  142.5250 C   0  0  2  0  0  3  0  0  0  0  0  0
  192.0640  173.8360  141.1500 C   0  0  2  0  0  3  0  0  0  0  0  0
  189.2690  175.8980  142.5610 C   0  0  2  0  0  3  0  0  0  0  0  0
  191.5800  171.8330  139.7560 C   0  0  0  0  0  2  0  0  0  0  0  0
  192.6580  174.4420  142.4200 C   0  0  2  0  0  3  0  0  0  0  0  0
  194.7680  172.1730  142.6570 C   0  0  0  0  0  1  0  0  0  0  0  0
  188.2180  173.1770  140.9260 C   0  0  0  0  0  2  0  0  0  0  0  0
  190.1120  171.7790  140.1980 C   0  0  0  0  0  2  0  0  0  0  0  0
  192.7610  173.3950  143.5540 C   0  0  0  0  0  2  0  0  0  0  0  0
  189.8050  177.2530  144.6580 O   0  0  0  0  0  0  0  0  0  0  0  0
  189.9970  177.9360  143.4350 C   0  0  1  0  0  3  0  0  0  0  0  0
  189.6800  172.8430  141.2220 C   0  0  1  0  0  3  0  0  0  0  0  0
  191.7120  175.5190  142.7600 N   0  0  2  0  0  0  0  0  0  0  0  0
  192.4720  171.5210  142.0130 N   0  0  0  0  0  2  0  0  0  0  0  0
  188.0520  175.5500  141.6960 C   0  0  1  0  0  3  0  0  0  0  0  0
  193.2500  171.0960  144.2600 C   0  0  0  0  0  1  0  0  0  0  0  0
  191.1490  177.4560  144.2820 C   0  0  2  0  0  3  0  0  0  0  0  0
  191.8020  176.0590  144.1320 C   0  0  2  0  0  3  0  0  0  0  0  0
  187.5880  174.1180  141.9440 C   0  0  0  0  0  2  0  0  0  0  0  0
  186.4410  177.2740  140.8750 C   0  0  0  0  0  3  0  0  0  0  0  0
  186.9290  176.5090  141.9410 C   0  0  0  0  0  0  0  0  0  0  0  0
  186.3650  176.6610  143.2180 C   0  0  0  0  0  3  0  0  0  0  0  0
  184.7690  177.7170  144.6850 O   0  0  0  0  0  1  0  0  0  0  0  0
  184.8390  178.3300  142.3540 C   0  0  0  0  0  3  0  0  0  0  0  0
  185.3220  177.5700  143.4220 C   0  0  0  0  0  0  0  0  0  0  0  0
  185.3970  178.1820  141.0810 C   0  0  0  0  0  3  0  0  0  0  0  0
  193.2570  176.2080  144.5880 C   0  0  0  0  0  2  0  0  0  0  0  0
  193.3530  176.1310  146.0400 N   0  0  0  0  0  0  0  0  0  0  0  0
  194.8930  177.8920  146.1760 O   0  0  0  0  0  0  0  0  0  0  0  0
  194.1720  177.0470  146.7720 C   0  0  0  0  0  3  0  0  0  0  0  0
  192.5010  175.1950  146.7610 C   0  0  0  0  0  2  0  0  0  0  0  0
  191.5420  175.9360  147.6790 C   0  0  0  0  0  2  0  0  0  0  0  0
  190.2630  175.3870  147.5820 O   0  0  0  0  0  1  0  0  0  0  0  0
  1 13  1  0  0  0  0
  1 20  1  0  0  0  0
  2 16  1  0  0  0  0
  2  5  1  0  0  0  0
  3  7  1  0  0  0  0
  3 15  1  0  0  0  0
  4  6  1  0  0  0  0
  4 18  1  0  0  0  0
  5  7  1  0  0  0  0
  5 17  1  0  0  0  0
  6  2  1  0  0  0  0
  6  9  1  0  0  0  0
  8 12  1  0  0  0  0
  8  4  1  0  0  0  0
  9 17  1  0  0  0  0
  9 13  1  0  0  0  0
 10  1  1  0  0  0  0
 11 16  1  0  0  0  0
 11 23  1  0  0  0  0
 12 16  1  0  0  0  0
 15 21  1  0  0  0  0
 15 14  1  0  0  0  0
 17 22  1  0  0  0  0
 18  1  1  0  0  0  0
 19 25  1  0  0  0  0
 19 23  1  0  0  0  0
 19  7  1  0  0  0  0
 21 14  1  0  0  0  0
 22 21  1  0  0  0  0
 22 31  1  0  0  0  0
 24 30  2  0  0  0  0
 24 25  1  0  0  0  0
 25 26  2  0  0  0  0
 26 29  1  0  0  0  0
 28 29  2  0  0  0  0
 29 27  1  0  0  0  0
 30 28  1  0  0  0  0
 31 32  1  0  0  0  0
 32 35  1  0  0  0  0
 32 34  1  0  0  0  0
 33 34  2  0  0  0  0
 35 36  1  0  0  0  0
 37 36  1  0  0  0  0
M  END
>  <MODEL>
1

>  <REMARK>
 VINA RESULT:      -7.6      0.000      0.000
  Name = 
  5 active torsions:
  status: ('A' for Active; 'I' for Inactive)
    1  A    between atoms: C_1  and  N_4
    2  A    between atoms: C_1  and  C_27
    3  A    between atoms: N_4  and  C_12
    4  A    between atoms: C_8  and  C_12
    5  A    between atoms: C_23  and  C_30
                            x       y       z     vdW  Elec       q    Type
                         _______ _______ _______ _____ _____    ______ ____

>  <TORSDO>
F 5

$$$$
=
 OpenBabel11112417263D

 37 43  0  0  1  0  0  0  0  0999 V2000
  194.4740  173.5730  141.4120 C   0  0  0  0  0  0  0  0  0  0  0  0
  191.7980  175.1690  143.7830 C   0  0  1  0  0  3  0  0  0  0  0  0
  188.5610  174.8330  143.0920 O   0  0  0  0  0  0  0  0  0  0  0  0
  194.1330  173.9980  143.7730 C   0  0  2  0  0  3  0  0  0  0  0  0
  190.8740  175.1300  142.5650 C   0  0  2  0  0  3  0  0  0  0  0  0
  192.6080  173.8770  143.6300 C   0  0  2  0  0  3  0  0  0  0  0  0
  189.5140  175.8060  142.7560 C   0  0  2  0  0  3  0  0  0  0  0  0
  194.4490  174.9520  144.9140 C   0  0  0  0  0  2  0  0  0  0  0  0
  192.1120  173.2160  142.3460 C   0  0  2  0  0  3  0  0  0  0  0  0
  194.9470  172.1450  141.6620 C   0  0  0  0  0  1  0  0  0  0  0  0
  191.8400  177.6510  144.2940 C   0  0  0  0  0  2  0  0  0  0  0  0
  193.9090  176.3650  144.6610 C   0  0  0  0  0  2  0  0  0  0  0  0
  192.9790  173.6170  141.1290 C   0  0  0  0  0  2  0  0  0  0  0  0
  188.2050  174.9910  140.7210 O   0  0  0  0  0  0  0  0  0  0  0  0
  187.7920  174.4460  141.9590 C   0  0  1  0  0  3  0  0  0  0  0  0
  192.6460  176.4560  143.7880 C   0  0  1  0  0  3  0  0  0  0  0  0
  190.7310  173.7140  142.2160 N   0  0  2  0  0  0  0  0  0  0  0  0
  194.7890  174.4490  142.5420 N   0  0  0  0  0  2  0  0  0  0  0  0
  189.4960  176.9810  143.7410 C   0  0  1  0  0  3  0  0  0  0  0  0
  195.1940  174.0940  140.1880 C   0  0  0  0  0  1  0  0  0  0  0  0
  188.5540  173.6410  140.9360 C   0  0  2  0  0  3  0  0  0  0  0  0
  190.0990  173.5510  140.8900 C   0  0  2  0  0  3  0  0  0  0  0  0
  190.6190  177.9700  143.4420 C   0  0  0  0  0  2  0  0  0  0  0  0
  187.6480  178.1080  142.4940 C   0  0  0  0  0  3  0  0  0  0  0  0
  188.1700  177.6780  143.7180 C   0  0  0  0  0  0  0  0  0  0  0  0
  187.4510  177.9150  144.9000 C   0  0  0  0  0  3  0  0  0  0  0  0
  185.5120  178.8070  146.0240 O   0  0  0  0  0  1  0  0  0  0  0  0
  185.7020  179.0020  143.6270 C   0  0  0  0  0  3  0  0  0  0  0  0
  186.2190  178.5750  144.8530 C   0  0  0  0  0  0  0  0  0  0  0  0
  186.4150  178.7680  142.4470 C   0  0  0  0  0  3  0  0  0  0  0  0
  190.4370  172.1940  140.2640 C   0  0  0  0  0  2  0  0  0  0  0  0
  190.4310  172.2820  138.8090 N   0  0  0  0  0  0  0  0  0  0  0  0
  189.7170  170.0670  138.5350 O   0  0  0  0  0  0  0  0  0  0  0  0
  190.0140  171.1720  138.0090 C   0  0  0  0  0  3  0  0  0  0  0  0
  190.7260  173.5580  138.1710 C   0  0  0  0  0  2  0  0  0  0  0  0
  189.7900  173.8040  136.9990 C   0  0  0  0  0  2  0  0  0  0  0  0
  188.5820  174.3350  137.4530 O   0  0  0  0  0  1  0  0  0  0  0  0
  1 10  1  0  0  0  0
  1 18  1  0  0  0  0
  2 16  1  0  0  0  0
  4  8  1  0  0  0  0
  5  7  1  0  0  0  0
  5  2  1  0  0  0  0
  6  4  1  0  0  0  0
  6  2  1  0  0  0  0
  7  3  1  0  0  0  0
  7 19  1  0  0  0  0
  9  6  1  0  0  0  0
 12  8  1  0  0  0  0
 13  1  1  0  0  0  0
 13  9  1  0  0  0  0
 14 21  1  0  0  0  0
 14 15  1  0  0  0  0
 15  3  1  0  0  0  0
 16 11  1  0  0  0  0
 16 12  1  0  0  0  0
 17  9  1  0  0  0  0
 17  5  1  0  0  0  0
 18  4  1  0  0  0  0
 20  1  1  0  0  0  0
 21 15  1  0  0  0  0
 22 21  1  0  0  0  0
 22 17  1  0  0  0  0
 23 19  1  0  0  0  0
 23 11  1  0  0  0  0
 24 25  1  0  0  0  0
 25 19  1  0  0  0  0
 25 26  2  0  0  0  0
 28 29  2  0  0  0  0
 29 26  1  0  0  0  0
 29 27  1  0  0  0  0
 30 24  2  0  0  0  0
 30 28  1  0  0  0  0
 31 22  1  0  0  0  0
 32 31  1  0  0  0  0
 34 33  2  0  0  0  0
 34 32  1  0  0  0  0
 35 32  1  0  0  0  0
 36 37  1  0  0  0  0
 36 35  1  0  0  0  0
M  END
>  <MODEL>
2

>  <REMARK>
 VINA RESULT:      -7.4      2.461      5.536
  Name = 
  5 active torsions:
  status: ('A' for Active; 'I' for Inactive)
    1  A    between atoms: C_1  and  N_4
    2  A    between atoms: C_1  and  C_27
    3  A    between atoms: N_4  and  C_12
    4  A    between atoms: C_8  and  C_12
    5  A    between atoms: C_23  and  C_30
                            x       y       z     vdW  Elec       q    Type
                         _______ _______ _______ _____ _____    ______ ____

>  <TORSDO>
F 5

$$$$
=
 OpenBabel11112417263D

 37 43  0  0  1  0  0  0  0  0999 V2000
  193.9070  174.7670  142.8550 C   0  0  0  0  0  0  0  0  0  0  0  0
  190.7410  175.0670  145.1380 C   0  0  1  0  0  3  0  0  0  0  0  0
  187.7120  175.1650  143.7660 O   0  0  0  0  0  0  0  0  0  0  0  0
  193.1240  174.0040  145.0180 C   0  0  2  0  0  3  0  0  0  0  0  0
  190.0510  175.6390  143.8990 C   0  0  2  0  0  3  0  0  0  0  0  0
  191.6620  173.9960  144.5450 C   0  0  2  0  0  3  0  0  0  0  0  0
  188.6310  176.1620  144.1250 C   0  0  2  0  0  3  0  0  0  0  0  0
  193.1590  174.2830  146.5120 C   0  0  0  0  0  2  0  0  0  0  0  0
  191.4520  174.0470  143.0340 C   0  0  2  0  0  3  0  0  0  0  0  0
  194.4370  173.3880  142.4790 C   0  0  0  0  0  1  0  0  0  0  0  0
  190.5010  176.9930  146.7700 C   0  0  0  0  0  2  0  0  0  0  0  0
  192.5660  175.6520  146.8660 C   0  0  0  0  0  2  0  0  0  0  0  0
  192.4860  174.9700  142.3480 C   0  0  0  0  0  2  0  0  0  0  0  0
  187.7680  176.4560  141.7400 O   0  0  0  0  0  0  0  0  0  0  0  0
  187.1870  175.3880  142.4620 C   0  0  1  0  0  3  0  0  0  0  0  0
  191.4730  176.1760  145.9190 C   0  0  1  0  0  3  0  0  0  0  0  0
  190.0820  174.5700  142.8960 N   0  0  2  0  0  0  0  0  0  0  0  0
  193.9500  174.9820  144.3030 N   0  0  0  0  0  2  0  0  0  0  0  0
  188.3500  176.7160  145.5260 C   0  0  1  0  0  3  0  0  0  0  0  0
  194.7900  175.8020  142.1920 C   0  0  0  0  0  1  0  0  0  0  0  0
  188.1760  175.1640  141.3460 C   0  0  2  0  0  3  0  0  0  0  0  0
  189.7080  175.0800  141.5600 C   0  0  2  0  0  3  0  0  0  0  0  0
  189.4280  177.7060  145.9570 C   0  0  0  0  0  2  0  0  0  0  0  0
  186.0290  176.8320  146.4440 C   0  0  0  0  0  3  0  0  0  0  0  0
  186.9990  177.3610  145.5860 C   0  0  0  0  0  0  0  0  0  0  0  0
  186.6890  178.4770  144.7930 C   0  0  0  0  0  3  0  0  0  0  0  0
  185.1160  180.1590  144.0760 O   0  0  0  0  0  1  0  0  0  0  0  0
  184.4530  178.5240  145.7200 C   0  0  0  0  0  3  0  0  0  0  0  0
  185.4180  179.0560  144.8620 C   0  0  0  0  0  0  0  0  0  0  0  0
  184.7580  177.4120  146.5120 C   0  0  0  0  0  3  0  0  0  0  0  0
  190.2540  174.1880  140.4400 C   0  0  0  0  0  2  0  0  0  0  0  0
  189.2960  173.1430  140.0990 N   0  0  0  0  0  0  0  0  0  0  0  0
  188.6800  174.1670  138.0840 O   0  0  0  0  0  0  0  0  0  0  0  0
  188.5700  173.1870  138.8680 C   0  0  0  0  0  3  0  0  0  0  0  0
  189.1790  171.9760  140.9630 C   0  0  0  0  0  2  0  0  0  0  0  0
  190.4420  171.1320  140.9030 C   0  0  0  0  0  2  0  0  0  0  0  0
  190.5250  170.3120  142.0290 O   0  0  0  0  0  1  0  0  0  0  0  0
  1 18  1  0  0  0  0
  2 16  1  0  0  0  0
  3  7  1  0  0  0  0
  4  8  1  0  0  0  0
  5  7  1  0  0  0  0
  5  2  1  0  0  0  0
  6  4  1  0  0  0  0
  6  2  1  0  0  0  0
  7 19  1  0  0  0  0
  8 12  1  0  0  0  0
  9  6  1  0  0  0  0
 10  1  1  0  0  0  0
 13  1  1  0  0  0  0
 13  9  1  0  0  0  0
 14 15  1  0  0  0  0
 15  3  1  0  0  0  0
 16 11  1  0  0  0  0
 16 12  1  0  0  0  0
 17  9  1  0  0  0  0
 17  5  1  0  0  0  0
 18  4  1  0  0  0  0
 19 25  1  0  0  0  0
 19 23  1  0  0  0  0
 20  1  1  0  0  0  0
 21 22  1  0  0  0  0
 21 14  1  0  0  0  0
 21 15  1  0  0  0  0
 22 17  1  0  0  0  0
 23 11  1  0  0  0  0
 24 30  1  0  0  0  0
 25 24  2  0  0  0  0
 26 29  2  0  0  0  0
 26 25  1  0  0  0  0
 27 29  1  0  0  0  0
 28 30  2  0  0  0  0
 29 28  1  0  0  0  0
 31 22  1  0  0  0  0
 32 31  1  0  0  0  0
 32 35  1  0  0  0  0
 33 34  2  0  0  0  0
 34 32  1  0  0  0  0
 36 35  1  0  0  0  0
 36 37  1  0  0  0  0
M  END
>  <MODEL>
3

>  <REMARK>
 VINA RESULT:      -7.4      2.493      5.345
  Name = 
  5 active torsions:
  status: ('A' for Active; 'I' for Inactive)
    1  A    between atoms: C_1  and  N_4
    2  A    between atoms: C_1  and  C_27
    3  A    between atoms: N_4  and  C_12
    4  A    between atoms: C_8  and  C_12
    5  A    between atoms: C_23  and  C_30
                            x       y       z     vdW  Elec       q    Type
                         _______ _______ _______ _____ _____    ______ ____

>  <TORSDO>
F 5

$$$$
=
 OpenBabel11112417263D

 37 43  0  0  1  0  0  0  0  0999 V2000
  194.5620  173.8800  141.9540 C   0  0  0  0  0  0  0  0  0  0  0  0
  191.6140  175.4340  144.0090 C   0  0  1  0  0  3  0  0  0  0  0  0
  188.4690  174.8470  143.0990 O   0  0  0  0  0  0  0  0  0  0  0  0
  194.0090  174.4200  144.2510 C   0  0  2  0  0  3  0  0  0  0  0  0
  190.7940  175.2640  142.7300 C   0  0  2  0  0  3  0  0  0  0  0  0
  192.5110  174.1920  144.0000 C   0  0  2  0  0  3  0  0  0  0  0  0
  189.3850  175.8590  142.7750 C   0  0  2  0  0  3  0  0  0  0  0  0
  194.1750  175.4580  145.3490 C   0  0  0  0  0  2  0  0  0  0  0  0
  192.1590  173.4250  142.7270 C   0  0  2  0  0  3  0  0  0  0  0  0
  195.1000  172.5040  142.3300 C   0  0  0  0  0  1  0  0  0  0  0  0
  191.4650  177.9400  144.3640 C   0  0  0  0  0  2  0  0  0  0  0  0
  193.5730  176.8160  144.9670 C   0  0  0  0  0  2  0  0  0  0  0  0
  193.0940  173.8100  141.5570 C   0  0  0  0  0  2  0  0  0  0  0  0
  188.2940  174.8430  140.7020 O   0  0  0  0  0  0  0  0  0  0  0  0
  187.8170  174.3450  141.9380 C   0  0  1  0  0  3  0  0  0  0  0  0
  192.3800  176.7720  143.9960 C   0  0  1  0  0  3  0  0  0  0  0  0
  190.7660  173.8230  142.4620 N   0  0  2  0  0  0  0  0  0  0  0  0
  194.7330  174.8400  143.0470 N   0  0  0  0  0  2  0  0  0  0  0  0
  189.2170  177.0870  143.6780 C   0  0  1  0  0  3  0  0  0  0  0  0
  195.3450  174.3750  140.7570 C   0  0  0  0  0  1  0  0  0  0  0  0
  188.7050  173.5330  141.0280 C   0  0  2  0  0  3  0  0  0  0  0  0
  190.2520  173.5420  141.1050 C   0  0  2  0  0  3  0  0  0  0  0  0
  190.2980  178.1280  143.4030 C   0  0  0  0  0  2  0  0  0  0  0  0
  187.1250  178.0470  144.6500 C   0  0  0  0  0  3  0  0  0  0  0  0
  187.8580  177.6930  143.5110 C   0  0  0  0  0  0  0  0  0  0  0  0
  187.3050  177.9040  142.2380 C   0  0  0  0  0  3  0  0  0  0  0  0
  185.4880  178.6700  140.8500 O   0  0  0  0  0  1  0  0  0  0  0  0
  185.3040  178.8150  143.2500 C   0  0  0  0  0  3  0  0  0  0  0  0
  186.0310  178.4640  142.1100 C   0  0  0  0  0  0  0  0  0  0  0  0
  185.8510  178.6080  144.5200 C   0  0  0  0  0  3  0  0  0  0  0  0
  190.7210  172.1760  140.5940 C   0  0  0  0  0  2  0  0  0  0  0  0
  190.7900  172.1660  139.1380 N   0  0  0  0  0  0  0  0  0  0  0  0
  190.0960  169.9340  138.9770 O   0  0  0  0  0  0  0  0  0  0  0  0
  190.4170  171.0030  138.3930 C   0  0  0  0  0  3  0  0  0  0  0  0
  191.1150  173.3980  138.4330 C   0  0  0  0  0  2  0  0  0  0  0  0
  190.2510  173.5520  137.1910 C   0  0  0  0  0  2  0  0  0  0  0  0
  189.0390  174.1580  137.5230 O   0  0  0  0  0  1  0  0  0  0  0  0
  1 10  1  0  0  0  0
  1 18  1  0  0  0  0
  4  8  1  0  0  0  0
  5  7  1  0  0  0  0
  5  2  1  0  0  0  0
  6  2  1  0  0  0  0
  6  4  1  0  0  0  0
  7  3  1  0  0  0  0
  7 19  1  0  0  0  0
  9  6  1  0  0  0  0
 12  8  1  0  0  0  0
 13  1  1  0  0  0  0
 13  9  1  0  0  0  0
 14 21  1  0  0  0  0
 14 15  1  0  0  0  0
 15  3  1  0  0  0  0
 16  2  1  0  0  0  0
 16 11  1  0  0  0  0
 16 12  1  0  0  0  0
 17  9  1  0  0  0  0
 17  5  1  0  0  0  0
 18  4  1  0  0  0  0
 20  1  1  0  0  0  0
 21 22  1  0  0  0  0
 21 15  1  0  0  0  0
 22 17  1  0  0  0  0
 23 19  1  0  0  0  0
 23 11  1  0  0  0  0
 25 19  1  0  0  0  0
 25 24  2  0  0  0  0
 26 25  1  0  0  0  0
 27 29  1  0  0  0  0
 28 30  2  0  0  0  0
 29 26  2  0  0  0  0
 29 28  1  0  0  0  0
 30 24  1  0  0  0  0
 31 22  1  0  0  0  0
 32 31  1  0  0  0  0
 34 33  2  0  0  0  0
 34 32  1  0  0  0  0
 35 32  1  0  0  0  0
 36 37  1  0  0  0  0
 36 35  1  0  0  0  0
M  END
>  <MODEL>
4

>  <REMARK>
 VINA RESULT:      -7.4      2.415      5.549
  Name = 
  5 active torsions:
  status: ('A' for Active; 'I' for Inactive)
    1  A    between atoms: C_1  and  N_4
    2  A    between atoms: C_1  and  C_27
    3  A    between atoms: N_4  and  C_12
    4  A    between atoms: C_8  and  C_12
    5  A    between atoms: C_23  and  C_30
                            x       y       z     vdW  Elec       q    Type
                         _______ _______ _______ _____ _____    ______ ____

>  <TORSDO>
F 5

$$$$
=
 OpenBabel11112417263D

 37 43  0  0  1  0  0  0  0  0999 V2000
  193.9480  174.4880  144.9300 C   0  0  0  0  0  0  0  0  0  0  0  0
  190.1470  175.3260  145.3510 C   0  0  1  0  0  3  0  0  0  0  0  0
  188.0000  174.5490  142.9310 O   0  0  0  0  0  0  0  0  0  0  0  0
  192.2670  174.5630  146.6730 C   0  0  2  0  0  3  0  0  0  0  0  0
  190.0930  175.2840  143.8240 C   0  0  2  0  0  3  0  0  0  0  0  0
  191.1460  174.2130  145.6820 C   0  0  2  0  0  3  0  0  0  0  0  0
  188.7560  175.6990  143.2060 C   0  0  2  0  0  3  0  0  0  0  0  0
  191.6890  175.4110  147.7940 C   0  0  0  0  0  2  0  0  0  0  0  0
  191.6000  173.6390  144.3420 C   0  0  2  0  0  3  0  0  0  0  0  0
  194.4790  173.1370  145.3980 C   0  0  0  0  0  1  0  0  0  0  0  0
  189.3890  177.7020  145.8080 C   0  0  0  0  0  2  0  0  0  0  0  0
  191.1090  176.7370  147.2860 C   0  0  0  0  0  2  0  0  0  0  0  0
  192.8960  174.3200  143.8420 C   0  0  0  0  0  2  0  0  0  0  0  0
  189.0080  174.9320  140.7840 O   0  0  0  0  0  0  0  0  0  0  0  0
  188.0950  174.1820  141.5600 C   0  0  1  0  0  3  0  0  0  0  0  0
  190.5640  176.7240  145.8470 C   0  0  1  0  0  3  0  0  0  0  0  0
  190.4620  173.9150  143.4480 N   0  0  2  0  0  0  0  0  0  0  0  0
  193.3910  175.2610  146.0420 N   0  0  0  0  0  2  0  0  0  0  0  0
  187.9520  176.7280  144.0090 C   0  0  1  0  0  3  0  0  0  0  0  0
  195.1050  175.2640  144.3410 C   0  0  0  0  0  1  0  0  0  0  0  0
  189.4430  173.6420  141.1520 C   0  0  2  0  0  3  0  0  0  0  0  0
  190.7290  173.8130  141.9980 C   0  0  2  0  0  3  0  0  0  0  0  0
  188.8200  177.9160  144.4120 C   0  0  0  0  0  2  0  0  0  0  0  0
  185.5730  177.4860  143.9220 C   0  0  0  0  0  3  0  0  0  0  0  0
  186.7570  177.1960  143.2360 C   0  0  0  0  0  0  0  0  0  0  0  0
  186.8030  177.3400  141.8410 C   0  0  0  0  0  3  0  0  0  0  0  0
  185.7210  177.9110  139.7620 O   0  0  0  0  0  1  0  0  0  0  0  0
  184.4920  178.0590  141.8320 C   0  0  0  0  0  3  0  0  0  0  0  0
  185.6720  177.7710  141.1410 C   0  0  0  0  0  0  0  0  0  0  0  0
  184.4420  177.9170  143.2220 C   0  0  0  0  0  3  0  0  0  0  0  0
  191.6270  172.6150  141.6710 C   0  0  0  0  0  2  0  0  0  0  0  0
  192.2680  172.7900  140.3740 N   0  0  0  0  0  0  0  0  0  0  0  0
  191.4530  170.7600  139.5360 O   0  0  0  0  0  0  0  0  0  0  0  0
  192.0960  171.8250  139.3330 C   0  0  0  0  0  3  0  0  0  0  0  0
  192.9820  174.0300  140.0950 C   0  0  0  0  0  2  0  0  0  0  0  0
  193.2570  174.1690  138.6060 C   0  0  0  0  0  2  0  0  0  0  0  0
  194.2030  175.1700  138.3850 O   0  0  0  0  0  1  0  0  0  0  0  0
  1 10  1  0  0  0  0
  1 18  1  0  0  0  0
  2  6  1  0  0  0  0
  2 16  1  0  0  0  0
  3  7  1  0  0  0  0
  4  8  1  0  0  0  0
  5  2  1  0  0  0  0
  6  4  1  0  0  0  0
  7  5  1  0  0  0  0
  7 19  1  0  0  0  0
  9  6  1  0  0  0  0
 11 16  1  0  0  0  0
 12  8  1  0  0  0  0
 13  9  1  0  0  0  0
 13  1  1  0  0  0  0
 14 21  1  0  0  0  0
 14 15  1  0  0  0  0
 15  3  1  0  0  0  0
 16 12  1  0  0  0  0
 17  5  1  0  0  0  0
 17  9  1  0  0  0  0
 18  4  1  0  0  0  0
 19 23  1  0  0  0  0
 20  1  1  0  0  0  0
 21 15  1  0  0  0  0
 21 22  1  0  0  0  0
 22 17  1  0  0  0  0
 23 11  1  0  0  0  0
 25 24  1  0  0  0  0
 25 19  1  0  0  0  0
 26 25  2  0  0  0  0
 27 29  1  0  0  0  0
 28 30  1  0  0  0  0
 29 28  2  0  0  0  0
 29 26  1  0  0  0  0
 30 24  2  0  0  0  0
 31 22  1  0  0  0  0
 32 31  1  0  0  0  0
 34 33  2  0  0  0  0
 34 32  1  0  0  0  0
 35 32  1  0  0  0  0
 36 35  1  0  0  0  0
 37 36  1  0  0  0  0
M  END
>  <MODEL>
5

>  <REMARK>
 VINA RESULT:      -7.0      2.420      5.370
  Name = 
  5 active torsions:
  status: ('A' for Active; 'I' for Inactive)
    1  A    between atoms: C_1  and  N_4
    2  A    between atoms: C_1  and  C_27
    3  A    between atoms: N_4  and  C_12
    4  A    between atoms: C_8  and  C_12
    5  A    between atoms: C_23  and  C_30
                            x       y       z     vdW  Elec       q    Type
                         _______ _______ _______ _____ _____    ______ ____

>  <TORSDO>
F 5

$$$$
=
 OpenBabel11112417263D

 37 43  0  0  1  0  0  0  0  0999 V2000
  195.4060  173.9560  142.0030 C   0  0  0  0  0  0  0  0  0  0  0  0
  192.6010  174.5770  144.6620 C   0  0  1  0  0  3  0  0  0  0  0  0
  189.4040  174.2330  143.8100 O   0  0  0  0  0  0  0  0  0  0  0  0
  195.0180  173.6310  144.3720 C   0  0  2  0  0  3  0  0  0  0  0  0
  191.6900  174.8380  143.4620 C   0  0  2  0  0  3  0  0  0  0  0  0
  193.5080  173.4510  144.1560 C   0  0  2  0  0  3  0  0  0  0  0  0
  190.2820  175.3280  143.8070 C   0  0  2  0  0  3  0  0  0  0  0  0
  195.2530  174.2210  145.7530 C   0  0  0  0  0  2  0  0  0  0  0  0
  193.0720  173.1700  142.7190 C   0  0  2  0  0  3  0  0  0  0  0  0
  195.9850  172.5560  141.8300 C   0  0  0  0  0  1  0  0  0  0  0  0
  192.4500  176.7900  145.8900 C   0  0  0  0  0  2  0  0  0  0  0  0
  194.6090  175.6030  145.9170 C   0  0  0  0  0  2  0  0  0  0  0  0
  193.9140  173.9760  141.7030 C   0  0  0  0  0  2  0  0  0  0  0  0
  189.0520  175.0670  141.5840 O   0  0  0  0  0  0  0  0  0  0  0  0
  188.6740  174.1490  142.5920 C   0  0  1  0  0  3  0  0  0  0  0  0
  193.3480  175.8610  145.0740 C   0  0  1  0  0  3  0  0  0  0  0  0
  191.6580  173.5840  142.7040 N   0  0  2  0  0  0  0  0  0  0  0  0
  195.6470  174.4750  143.3510 N   0  0  0  0  0  2  0  0  0  0  0  0
  190.1680  176.1510  145.0950 C   0  0  1  0  0  3  0  0  0  0  0  0
  196.0920  174.8690  141.0100 C   0  0  0  0  0  1  0  0  0  0  0  0
  189.5010  173.7430  141.3980 C   0  0  2  0  0  3  0  0  0  0  0  0
  191.0490  173.7810  141.3720 C   0  0  2  0  0  3  0  0  0  0  0  0
  191.2140  177.2610  145.1360 C   0  0  0  0  0  2  0  0  0  0  0  0
  188.2780  177.5320  144.2200 C   0  0  0  0  0  3  0  0  0  0  0  0
  188.7930  176.7270  145.2420 C   0  0  0  0  0  0  0  0  0  0  0  0
  188.0190  176.4820  146.3870 C   0  0  0  0  0  3  0  0  0  0  0  0
  185.9810  176.7930  147.6380 O   0  0  0  0  0  1  0  0  0  0  0  0
  186.2330  177.8410  145.4810 C   0  0  0  0  0  3  0  0  0  0  0  0
  186.7420  177.0380  146.5050 C   0  0  0  0  0  0  0  0  0  0  0  0
  187.0000  178.0880  144.3380 C   0  0  0  0  0  3  0  0  0  0  0  0
  191.4940  172.7000  140.3810 C   0  0  0  0  0  2  0  0  0  0  0  0
  190.9990  172.9940  139.0410 N   0  0  0  0  0  0  0  0  0  0  0  0
  192.8480  174.3260  138.4950 O   0  0  0  0  0  0  0  0  0  0  0  0
  191.7650  173.7910  138.1340 C   0  0  0  0  0  3  0  0  0  0  0  0
  189.7740  172.3560  138.5790 C   0  0  0  0  0  2  0  0  0  0  0  0
  189.0700  173.2240  137.5490 C   0  0  0  0  0  2  0  0  0  0  0  0
  188.1760  174.0890  138.1800 O   0  0  0  0  0  1  0  0  0  0  0  0
  1 18  1  0  0  0  0
  2 16  1  0  0  0  0
  4  8  1  0  0  0  0
  5  7  1  0  0  0  0
  5  2  1  0  0  0  0
  6  4  1  0  0  0  0
  6  2  1  0  0  0  0
  7  3  1  0  0  0  0
  7 19  1  0  0  0  0
  8 12  1  0  0  0  0
  9  6  1  0  0  0  0
 10  1  1  0  0  0  0
 13  1  1  0  0  0  0
 13  9  1  0  0  0  0
 14 15  1  0  0  0  0
 15  3  1  0  0  0  0
 16 11  1  0  0  0  0
 16 12  1  0  0  0  0
 17  9  1  0  0  0  0
 17  5  1  0  0  0  0
 18  4  1  0  0  0  0
 19 23  1  0  0  0  0
 19 25  1  0  0  0  0
 20  1  1  0  0  0  0
 21 14  1  0  0  0  0
 21 15  1  0  0  0  0
 22 21  1  0  0  0  0
 22 17  1  0  0  0  0
 23 11  1  0  0  0  0
 24 30  2  0  0  0  0
 24 25  1  0  0  0  0
 25 26  2  0  0  0  0
 26 29  1  0  0  0  0
 28 29  2  0  0  0  0
 29 27  1  0  0  0  0
 30 28  1  0  0  0  0
 31 22  1  0  0  0  0
 32 31  1  0  0  0  0
 34 33  2  0  0  0  0
 34 32  1  0  0  0  0
 35 32  1  0  0  0  0
 36 37  1  0  0  0  0
 36 35  1  0  0  0  0
M  END
>  <MODEL>
6

>  <REMARK>
 VINA RESULT:      -6.8      2.539      5.508
  Name = 
  5 active torsions:
  status: ('A' for Active; 'I' for Inactive)
    1  A    between atoms: C_1  and  N_4
    2  A    between atoms: C_1  and  C_27
    3  A    between atoms: N_4  and  C_12
    4  A    between atoms: C_8  and  C_12
    5  A    between atoms: C_23  and  C_30
                            x       y       z     vdW  Elec       q    Type
                         _______ _______ _______ _____ _____    ______ ____

>  <TORSDO>
F 5

$$$$
=
 OpenBabel11112417263D

 37 43  0  0  1  0  0  0  0  0999 V2000
  194.1690  173.2300  144.3020 C   0  0  0  0  0  0  0  0  0  0  0  0
  190.9110  175.3560  144.7410 C   0  0  1  0  0  3  0  0  0  0  0  0
  188.1390  174.4960  143.1150 O   0  0  0  0  0  0  0  0  0  0  0  0
  193.0120  174.4820  146.0230 C   0  0  2  0  0  3  0  0  0  0  0  0
  190.4970  174.7780  143.3870 C   0  0  2  0  0  3  0  0  0  0  0  0
  191.6420  174.1800  145.3970 C   0  0  2  0  0  3  0  0  0  0  0  0
  189.2050  175.3510  142.8000 C   0  0  2  0  0  3  0  0  0  0  0  0
  192.9450  175.8200  146.7410 C   0  0  0  0  0  2  0  0  0  0  0  0
  191.6120  173.0420  144.3800 C   0  0  2  0  0  3  0  0  0  0  0  0
  194.4310  172.0500  145.2320 C   0  0  0  0  0  1  0  0  0  0  0  0
  190.9120  177.8410  144.2390 C   0  0  0  0  0  2  0  0  0  0  0  0
  192.6210  176.9790  145.7900 C   0  0  0  0  0  2  0  0  0  0  0  0
  192.8880  173.0300  143.5050 C   0  0  0  0  0  2  0  0  0  0  0  0
  188.6880  173.7150  140.9100 O   0  0  0  0  0  0  0  0  0  0  0  0
  187.8180  173.6430  142.0220 C   0  0  1  0  0  3  0  0  0  0  0  0
  191.7740  176.6200  144.5570 C   0  0  1  0  0  3  0  0  0  0  0  0
  190.4080  173.3280  143.5810 N   0  0  2  0  0  0  0  0  0  0  0  0
  194.1000  174.4920  145.0400 N   0  0  0  0  0  2  0  0  0  0  0  0
  188.8980  176.8040  143.1800 C   0  0  1  0  0  3  0  0  0  0  0  0
  195.3180  173.3130  143.3200 C   0  0  0  0  0  1  0  0  0  0  0  0
  188.8520  172.5830  141.7360 C   0  0  2  0  0  3  0  0  0  0  0  0
  190.2980  172.6210  142.2880 C   0  0  2  0  0  3  0  0  0  0  0  0
  190.1090  177.7040  142.9520 C   0  0  0  0  0  2  0  0  0  0  0  0
  186.7460  178.0700  143.0880 C   0  0  0  0  0  3  0  0  0  0  0  0
  187.7180  177.3200  142.4160 C   0  0  0  0  0  0  0  0  0  0  0  0
  187.5660  177.0570  141.0450 C   0  0  0  0  0  3  0  0  0  0  0  0
  186.3040  177.2810  139.0020 O   0  0  0  0  0  1  0  0  0  0  0  0
  185.4830  178.2910  141.0330 C   0  0  0  0  0  3  0  0  0  0  0  0
  186.4500  177.5430  140.3560 C   0  0  0  0  0  0  0  0  0  0  0  0
  185.6310  178.5560  142.3980 C   0  0  0  0  0  3  0  0  0  0  0  0
  190.7600  171.1640  142.3980 C   0  0  0  0  0  2  0  0  0  0  0  0
  191.7810  170.8700  141.4000 N   0  0  0  0  0  0  0  0  0  0  0  0
  193.0160  169.5100  142.8540 O   0  0  0  0  0  0  0  0  0  0  0  0
  192.8680  169.9900  141.6980 C   0  0  0  0  0  3  0  0  0  0  0  0
  191.6150  171.3740  140.0430 C   0  0  0  0  0  2  0  0  0  0  0  0
  190.7340  170.4430  139.2260 C   0  0  0  0  0  2  0  0  0  0  0  0
  189.6450  171.1440  138.7070 O   0  0  0  0  0  1  0  0  0  0  0  0
  1 18  1  0  0  0  0
  1 10  1  0  0  0  0
  2  6  1  0  0  0  0
  4  8  1  0  0  0  0
  5 17  1  0  0  0  0
  5  2  1  0  0  0  0
  6  4  1  0  0  0  0
  7  3  1  0  0  0  0
  7 19  1  0  0  0  0
  7  5  1  0  0  0  0
  9  6  1  0  0  0  0
 11 16  1  0  0  0  0
 12  8  1  0  0  0  0
 13  1  1  0  0  0  0
 13  9  1  0  0  0  0
 14 21  1  0  0  0  0
 14 15  1  0  0  0  0
 15  3  1  0  0  0  0
 16  2  1  0  0  0  0
 16 12  1  0  0  0  0
 17  9  1  0  0  0  0
 18  4  1  0  0  0  0
 20  1  1  0  0  0  0
 21 15  1  0  0  0  0
 21 22  1  0  0  0  0
 22 31  1  0  0  0  0
 22 17  1  0  0  0  0
 23 19  1  0  0  0  0
 23 11  1  0  0  0  0
 25 24  1  0  0  0  0
 25 19  1  0  0  0  0
 26 25  2  0  0  0  0
 27 29  1  0  0  0  0
 28 30  1  0  0  0  0
 29 28  2  0  0  0  0
 29 26  1  0  0  0  0
 30 24  2  0  0  0  0
 32 34  1  0  0  0  0
 32 31  1  0  0  0  0
 34 33  2  0  0  0  0
 35 32  1  0  0  0  0
 36 35  1  0  0  0  0
 37 36  1  0  0  0  0
M  END
>  <MODEL>
7

>  <REMARK>
 VINA RESULT:      -6.8      2.446      5.291
  Name = 
  5 active torsions:
  status: ('A' for Active; 'I' for Inactive)
    1  A    between atoms: C_1  and  N_4
    2  A    between atoms: C_1  and  C_27
    3  A    between atoms: N_4  and  C_12
    4  A    between atoms: C_8  and  C_12
    5  A    between atoms: C_23  and  C_30
                            x       y       z     vdW  Elec       q    Type
                         _______ _______ _______ _____ _____    ______ ____

>  <TORSDO>
F 5

$$$$
=
 OpenBabel11112417263D

 37 43  0  0  1  0  0  0  0  0999 V2000
  193.4460  172.0570  142.0910 C   0  0  0  0  0  0  0  0  0  0  0  0
  190.3350  174.1670  140.9960 C   0  0  1  0  0  3  0  0  0  0  0  0
  189.7520  177.1190  142.4140 O   0  0  0  0  0  0  0  0  0  0  0  0
  192.1670  172.5390  140.0910 C   0  0  2  0  0  3  0  0  0  0  0  0
  190.4590  174.8350  142.3650 C   0  0  2  0  0  3  0  0  0  0  0  0
  191.7980  173.9410  140.5990 C   0  0  2  0  0  3  0  0  0  0  0  0
  189.3360  175.8130  142.7170 C   0  0  2  0  0  3  0  0  0  0  0  0
  191.0560  172.0330  139.1850 C   0  0  0  0  0  2  0  0  0  0  0  0
  192.6370  174.4690  141.7600 C   0  0  2  0  0  3  0  0  0  0  0  0
  194.7780  172.2500  141.3750 C   0  0  0  0  0  1  0  0  0  0  0  0
  187.9990  173.1910  141.1310 C   0  0  0  0  0  2  0  0  0  0  0  0
  189.7140  171.9050  139.9170 C   0  0  0  0  0  2  0  0  0  0  0  0
  192.9890  173.3440  142.7630 C   0  0  0  0  0  2  0  0  0  0  0  0
  190.2840  177.0260  144.7550 O   0  0  0  0  0  0  0  0  0  0  0  0
  190.2060  177.8020  143.5760 C   0  0  1  0  0  3  0  0  0  0  0  0
  189.4940  172.8780  141.0890 C   0  0  1  0  0  3  0  0  0  0  0  0
  191.7710  175.4910  142.3720 N   0  0  2  0  0  0  0  0  0  0  0  0
  192.4070  171.5820  141.1750 N   0  0  0  0  0  2  0  0  0  0  0  0
  187.9690  175.4950  142.1010 C   0  0  1  0  0  3  0  0  0  0  0  0
  193.6440  171.0150  143.1710 C   0  0  0  0  0  1  0  0  0  0  0  0
  191.5160  177.2940  144.1240 C   0  0  2  0  0  3  0  0  0  0  0  0
  192.1400  175.9310  143.7340 C   0  0  2  0  0  3  0  0  0  0  0  0
  187.5850  174.0360  142.3280 C   0  0  0  0  0  2  0  0  0  0  0  0
  186.2260  177.2560  141.7760 C   0  0  0  0  0  3  0  0  0  0  0  0
  186.9100  176.4020  142.6490 C   0  0  0  0  0  0  0  0  0  0  0  0
  186.6000  176.4170  144.0170 C   0  0  0  0  0  3  0  0  0  0  0  0
  185.3090  177.2900  145.8580 O   0  0  0  0  0  1  0  0  0  0  0  0
  184.9330  178.1280  143.6290 C   0  0  0  0  0  3  0  0  0  0  0  0
  185.6130  177.2780  144.5050 C   0  0  0  0  0  0  0  0  0  0  0  0
  185.2390  178.1170  142.2650 C   0  0  0  0  0  3  0  0  0  0  0  0
  193.6570  176.0880  143.8860 C   0  0  0  0  0  2  0  0  0  0  0  0
  194.0790  175.7280  145.2340 N   0  0  0  0  0  0  0  0  0  0  0  0
  194.7190  177.9170  145.7720 O   0  0  0  0  0  0  0  0  0  0  0  0
  194.5670  176.7220  146.1400 C   0  0  0  0  0  3  0  0  0  0  0  0
  193.8750  174.3650  145.7040 C   0  0  0  0  0  2  0  0  0  0  0  0
  195.1950  173.6110  145.7620 C   0  0  0  0  0  2  0  0  0  0  0  0
  195.8880  173.7650  144.5610 O   0  0  0  0  0  1  0  0  0  0  0  0
  1 13  1  0  0  0  0
  1 20  1  0  0  0  0
  2 16  1  0  0  0  0
  2  5  1  0  0  0  0
  3  7  1  0  0  0  0
  3 15  1  0  0  0  0
  4  6  1  0  0  0  0
  4 18  1  0  0  0  0
  5 17  1  0  0  0  0
  5  7  1  0  0  0  0
  6  2  1  0  0  0  0
  6  9  1  0  0  0  0
  8 12  1  0  0  0  0
  8  4  1  0  0  0  0
  9 17  1  0  0  0  0
  9 13  1  0  0  0  0
 10  1  1  0  0  0  0
 11 23  1  0  0  0  0
 12 16  1  0  0  0  0
 15 21  1  0  0  0  0
 15 14  1  0  0  0  0
 16 11  1  0  0  0  0
 17 22  1  0  0  0  0
 18  1  1  0  0  0  0
 19 23  1  0  0  0  0
 19 25  1  0  0  0  0
 19  7  1  0  0  0  0
 21 14  1  0  0  0  0
 22 31  1  0  0  0  0
 22 21  1  0  0  0  0
 24 30  2  0  0  0  0
 24 25  1  0  0  0  0
 25 26  2  0  0  0  0
 26 29  1  0  0  0  0
 28 29  2  0  0  0  0
 29 27  1  0  0  0  0
 30 28  1  0  0  0  0
 31 32  1  0  0  0  0
 32 35  1  0  0  0  0
 32 34  1  0  0  0  0
 33 34  2  0  0  0  0
 35 36  1  0  0  0  0
 37 36  1  0  0  0  0
M  END
>  <MODEL>
8

>  <REMARK>
 VINA RESULT:      -6.7      1.200      1.562
  Name = 
  5 active torsions:
  status: ('A' for Active; 'I' for Inactive)
    1  A    between atoms: C_1  and  N_4
    2  A    between atoms: C_1  and  C_27
    3  A    between atoms: N_4  and  C_12
    4  A    between atoms: C_8  and  C_12
    5  A    between atoms: C_23  and  C_30
                            x       y       z     vdW  Elec       q    Type
                         _______ _______ _______ _____ _____    ______ ____

>  <TORSDO>
F 5

$$$$
=
 OpenBabel11112417263D

 37 43  0  0  1  0  0  0  0  0999 V2000
  195.6600  174.4870  142.0150 C   0  0  0  0  0  0  0  0  0  0  0  0
  192.8230  174.5610  144.7120 C   0  0  1  0  0  3  0  0  0  0  0  0
  189.6480  174.2050  143.7870 O   0  0  0  0  0  0  0  0  0  0  0  0
  195.2830  173.7830  144.3030 C   0  0  2  0  0  3  0  0  0  0  0  0
  191.9040  174.9610  143.5570 C   0  0  2  0  0  3  0  0  0  0  0  0
  193.7830  173.5690  144.0470 C   0  0  2  0  0  3  0  0  0  0  0  0
  190.4730  175.3260  143.9590 C   0  0  2  0  0  3  0  0  0  0  0  0
  195.4870  174.1640  145.7600 C   0  0  0  0  0  2  0  0  0  0  0  0
  193.3640  173.4930  142.5800 C   0  0  2  0  0  3  0  0  0  0  0  0
  196.3050  173.1580  141.6350 C   0  0  0  0  0  1  0  0  0  0  0  0
  192.5660  176.5490  146.2630 C   0  0  0  0  0  2  0  0  0  0  0  0
  194.7780  175.4740  146.1280 C   0  0  0  0  0  2  0  0  0  0  0  0
  194.1700  174.4840  141.7070 C   0  0  0  0  0  2  0  0  0  0  0  0
  189.2620  175.3540  141.7120 O   0  0  0  0  0  0  0  0  0  0  0  0
  188.9250  174.2760  142.5630 C   0  0  1  0  0  3  0  0  0  0  0  0
  193.5080  175.7990  145.3230 C   0  0  1  0  0  3  0  0  0  0  0  0
  191.9330  173.8390  142.6150 N   0  0  2  0  0  0  0  0  0  0  0  0
  195.8730  174.8020  143.4290 N   0  0  0  0  0  2  0  0  0  0  0  0
  190.3180  175.9360  145.3570 C   0  0  1  0  0  3  0  0  0  0  0  0
  196.3050  175.5720  141.1800 C   0  0  0  0  0  1  0  0  0  0  0  0
  189.7730  174.0970  141.3290 C   0  0  2  0  0  3  0  0  0  0  0  0
  191.3180  174.2090  141.3230 C   0  0  2  0  0  3  0  0  0  0  0  0
  191.3100  177.0730  145.5790 C   0  0  0  0  0  2  0  0  0  0  0  0
  188.2110  175.9690  146.7000 C   0  0  0  0  0  3  0  0  0  0  0  0
  188.9170  176.4180  145.5790 C   0  0  0  0  0  0  0  0  0  0  0  0
  188.3000  177.3020  144.6800 C   0  0  0  0  0  3  0  0  0  0  0  0
  186.3830  178.6050  144.0140 O   0  0  0  0  0  1  0  0  0  0  0  0
  186.2890  177.2790  146.0270 C   0  0  0  0  0  3  0  0  0  0  0  0
  186.9890  177.7320  144.9050 C   0  0  0  0  0  0  0  0  0  0  0  0
  186.8990  176.3990  146.9250 C   0  0  0  0  0  3  0  0  0  0  0  0
  191.8150  173.3160  140.1830 C   0  0  0  0  0  2  0  0  0  0  0  0
  191.1050  172.0420  140.1780 N   0  0  0  0  0  0  0  0  0  0  0  0
  189.6270  172.7080  138.4870 O   0  0  0  0  0  0  0  0  0  0  0  0
  190.0360  171.8010  139.2600 C   0  0  0  0  0  3  0  0  0  0  0  0
  191.5810  170.9590  141.0280 C   0  0  0  0  0  2  0  0  0  0  0  0
  190.4390  170.3700  141.8410 C   0  0  0  0  0  2  0  0  0  0  0  0
  190.6240  168.9970  142.0020 O   0  0  0  0  0  1  0  0  0  0  0  0
  1 18  1  0  0  0  0
  2 16  1  0  0  0  0
  3  7  1  0  0  0  0
  4  8  1  0  0  0  0
  5  7  1  0  0  0  0
  5  2  1  0  0  0  0
  6  4  1  0  0  0  0
  6  2  1  0  0  0  0
  7 19  1  0  0  0  0
  8 12  1  0  0  0  0
  9 17  1  0  0  0  0
  9  6  1  0  0  0  0
 10  1  1  0  0  0  0
 13  1  1  0  0  0  0
 13  9  1  0  0  0  0
 14 15  1  0  0  0  0
 15  3  1  0  0  0  0
 16 12  1  0  0  0  0
 16 11  1  0  0  0  0
 17  5  1  0  0  0  0
 18  4  1  0  0  0  0
 19 25  1  0  0  0  0
 19 23  1  0  0  0  0
 20  1  1  0  0  0  0
 21 14  1  0  0  0  0
 21 15  1  0  0  0  0
 22 21  1  0  0  0  0
 22 17  1  0  0  0  0
 23 11  1  0  0  0  0
 24 30  1  0  0  0  0
 25 24  2  0  0  0  0
 26 29  2  0  0  0  0
 26 25  1  0  0  0  0
 27 29  1  0  0  0  0
 28 30  2  0  0  0  0
 29 28  1  0  0  0  0
 31 22  1  0  0  0  0
 32 31  1  0  0  0  0
 32 35  1  0  0  0  0
 33 34  2  0  0  0  0
 34 32  1  0  0  0  0
 35 36  1  0  0  0  0
 36 37  1  0  0  0  0
M  END
>  <MODEL>
9

>  <REMARK>
 VINA RESULT:      -6.7      2.718      5.503
  Name = 
  5 active torsions:
  status: ('A' for Active; 'I' for Inactive)
    1  A    between atoms: C_1  and  N_4
    2  A    between atoms: C_1  and  C_27
    3  A    between atoms: N_4  and  C_12
    4  A    between atoms: C_8  and  C_12
    5  A    between atoms: C_23  and  C_30
                            x       y       z     vdW  Elec       q    Type
                         _______ _______ _______ _____ _____    ______ ____

>  <TORSDO>
F 5

$$$$
