=
 OpenBabel11112416153D

 30 35  0  0  1  0  0  0  0  0999 V2000
  187.8230  176.2470  141.7480 C   0  0  1  0  0  3  0  0  0  0  0  0
  185.9530  177.4720  140.4070 C   0  0  0  0  0  0  0  0  0  0  0  0
  185.7750  177.1900  145.4400 C   0  0  0  0  0  2  0  0  0  0  0  0
  188.2990  175.7670  143.1390 C   0  0  1  0  0  3  0  0  0  0  0  0
  187.9210  175.0690  140.7900 C   0  0  0  0  0  2  0  0  0  0  0  0
  191.3690  174.2550  141.7980 O   0  0  0  0  0  0  0  0  0  0  0  0
  190.6020  176.2210  145.3500 C   0  0  1  0  0  3  0  0  0  0  0  0
  190.2010  174.7270  141.8660 C   0  0  0  0  0  0  0  0  0  0  0  0
  189.4040  176.4900  146.2550 C   0  0  2  0  0  3  0  0  0  0  0  0
  186.9060  176.7900  146.3110 C   0  0  0  0  0  0  0  0  0  0  0  0
  189.2800  174.5240  140.7720 N   0  0  0  0  0  0  0  0  0  0  0  0
  189.8180  175.5900  143.0500 C   0  0  2  0  0  3  0  0  0  0  0  0
  184.5620  178.0310  140.3020 C   0  0  0  0  0  2  0  0  0  0  0  0
  189.4920  175.5310  147.4270 C   0  0  0  0  0  2  0  0  0  0  0  0
  191.8020  175.9770  146.2470 C   0  0  0  0  0  2  0  0  0  0  0  0
  186.6700  177.4260  139.3720 O   0  0  0  0  0  0  0  0  0  0  0  0
  186.3010  176.6790  144.1180 C   0  0  2  0  0  3  0  0  0  0  0  0
  183.9670  178.3760  141.6400 C   0  0  0  0  0  3  0  0  0  0  0  0
  186.4620  176.9460  141.6960 C   0  0  0  0  0  0  0  0  0  0  0  0
  187.8150  176.7550  144.2010 C   0  0  1  0  0  3  0  0  0  0  0  0
  186.8420  176.8250  147.5690 O   0  0  0  0  0  0  0  0  0  0  0  0
  188.0910  176.4220  145.5980 N   0  0  0  0  0  0  0  0  0  0  0  0
  191.2450  175.3310  147.8570 S   0  0  0  0  0  0  0  0  0  0  0  0
  189.8160  173.7990  144.8790 C   0  0  0  0  0  1  0  0  0  0  0  0
  184.5180  177.9880  142.7920 C   0  0  0  0  0  3  0  0  0  0  0  0
  185.7850  177.2320  142.8290 C   0  0  0  0  0  0  0  0  0  0  0  0
  190.4510  175.0810  144.3410 C   0  0  2  0  0  3  0  0  0  0  0  0
  189.6680  173.7360  139.6100 C   0  0  0  0  0  2  0  0  0  0  0  0
  188.2600  173.3190  137.7400 O   0  0  0  0  0  1  0  0  0  0  0  0
  188.4750  172.9680  139.0720 C   0  0  0  0  0  2  0  0  0  0  0  0
  1  5  1  6  0  0  0
  1  4  1  0  0  0  0
  2 19  1  0  0  0  0
  3 10  1  0  0  0  0
  4 20  1  0  0  0  0
  6  8  2  0  0  0  0
  7 15  1  0  0  0  0
  7  9  1  0  0  0  0
  8 12  1  0  0  0  0
  9 14  1  0  0  0  0
 10 21  2  0  0  0  0
 11  5  1  0  0  0  0
 11  8  1  0  0  0  0
 12  4  1  0  0  0  0
 12 27  1  0  0  0  0
 13  2  1  0  0  0  0
 13 18  1  0  0  0  0
 14 23  1  0  0  0  0
 15 23  1  0  0  0  0
 16  2  2  0  0  0  0
 17 20  1  0  0  0  0
 17  3  1  0  0  0  0
 18 25  2  0  0  0  0
 19  1  1  0  0  0  0
 19 26  2  0  0  0  0
 20 22  1  0  0  0  0
 22  9  1  0  0  0  0
 22 10  1  0  0  0  0
 25 26  1  0  0  0  0
 26 17  1  0  0  0  0
 27 24  1  0  0  0  0
 27  7  1  0  0  0  0
 28 11  1  0  0  0  0
 29 30  1  0  0  0  0
 30 28  1  0  0  0  0
M  END
>  <MODEL>
1

>  <REMARK>
 VINA RESULT:      -8.5      0.000      0.000
  Name = 
  2 active torsions:
  status: ('A' for Active; 'I' for Inactive)
    1  A    between atoms: N_11  and  C_28
    2  A    between atoms: C_28  and  C_30
                            x       y       z     vdW  Elec       q    Type
                         _______ _______ _______ _____ _____    ______ ____

>  <TORSDO>
F 2

$$$$
=
 OpenBabel11112416153D

 30 35  0  0  1  0  0  0  0  0999 V2000
  188.2560  176.1310  142.7660 C   0  0  1  0  0  3  0  0  0  0  0  0
  185.9700  177.3750  142.6290 C   0  0  0  0  0  0  0  0  0  0  0  0
  188.7080  177.4390  146.8640 C   0  0  0  0  0  2  0  0  0  0  0  0
  189.4390  175.7160  143.6730 C   0  0  1  0  0  3  0  0  0  0  0  0
  187.7730  174.8870  142.0340 C   0  0  0  0  0  2  0  0  0  0  0  0
  191.1670  173.9340  140.9610 O   0  0  0  0  0  0  0  0  0  0  0  0
  192.5980  176.1750  144.1240 C   0  0  1  0  0  3  0  0  0  0  0  0
  190.2540  174.4800  141.6410 C   0  0  0  0  0  0  0  0  0  0  0  0
  192.1400  176.5760  145.5220 C   0  0  2  0  0  3  0  0  0  0  0  0
  190.1290  177.0300  146.9660 C   0  0  0  0  0  0  0  0  0  0  0  0
  188.8690  174.2620  141.2920 N   0  0  0  0  0  0  0  0  0  0  0  0
  190.6290  175.4410  142.7500 C   0  0  2  0  0  3  0  0  0  0  0  0
  184.7770  178.0090  143.2870 C   0  0  0  0  0  2  0  0  0  0  0  0
  192.8730  175.6940  146.5140 C   0  0  0  0  0  2  0  0  0  0  0  0
  194.0930  175.9190  144.1930 C   0  0  0  0  0  2  0  0  0  0  0  0
  185.9620  177.2170  141.3790 O   0  0  0  0  0  0  0  0  0  0  0  0
  188.3750  176.8110  145.5300 C   0  0  2  0  0  3  0  0  0  0  0  0
  185.0610  178.4780  144.6880 C   0  0  0  0  0  3  0  0  0  0  0  0
  187.1200  176.9060  143.4380 C   0  0  0  0  0  0  0  0  0  0  0  0
  189.6630  176.8000  144.7280 C   0  0  1  0  0  3  0  0  0  0  0  0
  190.7990  177.1530  148.0260 O   0  0  0  0  0  0  0  0  0  0  0  0
  190.6870  176.5440  145.7400 N   0  0  0  0  0  0  0  0  0  0  0  0
  194.5530  175.4160  145.8830 S   0  0  0  0  0  0  0  0  0  0  0  0
  191.6570  173.7790  144.4030 C   0  0  0  0  0  1  0  0  0  0  0  0
  186.1690  178.1350  145.3490 C   0  0  0  0  0  3  0  0  0  0  0  0
  187.2190  177.3070  144.7240 C   0  0  0  0  0  0  0  0  0  0  0  0
  191.8830  174.9820  143.4880 C   0  0  2  0  0  3  0  0  0  0  0  0
  188.5110  173.3760  140.1920 C   0  0  0  0  0  2  0  0  0  0  0  0
  189.3980  173.8770  138.0430 O   0  0  0  0  0  1  0  0  0  0  0  0
  188.3460  174.1700  138.9090 C   0  0  0  0  0  2  0  0  0  0  0  0
  1  5  1  1  0  0  0
  1 19  1  0  0  0  0
  1  4  1  0  0  0  0
  2 13  1  0  0  0  0
  2 19  1  0  0  0  0
  3 10  1  0  0  0  0
  4 20  1  0  0  0  0
  6  8  2  0  0  0  0
  7 15  1  0  0  0  0
  7  9  1  0  0  0  0
  8 12  1  0  0  0  0
  9 22  1  0  0  0  0
  9 14  1  0  0  0  0
 10 21  2  0  0  0  0
 11  8  1  0  0  0  0
 11  5  1  0  0  0  0
 12 27  1  0  0  0  0
 12  4  1  0  0  0  0
 13 18  1  0  0  0  0
 15 23  1  0  0  0  0
 16  2  2  0  0  0  0
 17  3  1  0  0  0  0
 18 25  2  0  0  0  0
 19 26  2  0  0  0  0
 20 17  1  0  0  0  0
 20 22  1  0  0  0  0
 22 10  1  0  0  0  0
 23 14  1  0  0  0  0
 26 25  1  0  0  0  0
 26 17  1  0  0  0  0
 27  7  1  0  0  0  0
 27 24  1  0  0  0  0
 28 11  1  0  0  0  0
 29 30  1  0  0  0  0
 30 28  1  0  0  0  0
M  END
>  <MODEL>
2

>  <REMARK>
 VINA RESULT:      -8.4      1.717      2.380
  Name = 
  2 active torsions:
  status: ('A' for Active; 'I' for Inactive)
    1  A    between atoms: N_11  and  C_28
    2  A    between atoms: C_28  and  C_30
                            x       y       z     vdW  Elec       q    Type
                         _______ _______ _______ _____ _____    ______ ____

>  <TORSDO>
F 2

$$$$
=
 OpenBabel11112416153D

 30 35  0  0  1  0  0  0  0  0999 V2000
  188.0080  176.3440  145.4730 C   0  0  1  0  0  3  0  0  0  0  0  0
  186.2790  177.9060  146.6400 C   0  0  0  0  0  0  0  0  0  0  0  0
  186.5260  177.6110  141.6110 C   0  0  0  0  0  2  0  0  0  0  0  0
  188.6160  175.8810  144.1270 C   0  0  1  0  0  3  0  0  0  0  0  0
  189.1570  176.7010  146.4040 C   0  0  0  0  0  2  0  0  0  0  0  0
  190.9560  173.5540  145.7440 O   0  0  0  0  0  0  0  0  0  0  0  0
  188.8720  173.3200  142.1840 C   0  0  1  0  0  3  0  0  0  0  0  0
  190.1610  174.5170  145.5660 C   0  0  0  0  0  0  0  0  0  0  0  0
  188.2680  174.2800  141.1650 C   0  0  2  0  0  3  0  0  0  0  0  0
  187.2460  176.5600  140.8540 C   0  0  0  0  0  0  0  0  0  0  0  0
  190.0770  175.5710  146.5510 N   0  0  0  0  0  0  0  0  0  0  0  0
  189.2310  174.5000  144.3710 C   0  0  2  0  0  3  0  0  0  0  0  0
  185.3350  179.0750  146.6120 C   0  0  0  0  0  2  0  0  0  0  0  0
  189.2170  174.3510  139.9840 C   0  0  0  0  0  2  0  0  0  0  0  0
  189.4640  172.1550  141.4130 C   0  0  0  0  0  2  0  0  0  0  0  0
  186.5270  177.3510  147.7440 O   0  0  0  0  0  0  0  0  0  0  0  0
  187.1610  177.4050  142.9670 C   0  0  2  0  0  3  0  0  0  0  0  0
  184.8380  179.3940  145.2290 C   0  0  0  0  0  3  0  0  0  0  0  0
  186.9390  177.4370  145.3990 C   0  0  0  0  0  0  0  0  0  0  0  0
  187.5340  175.9360  143.0460 C   0  0  1  0  0  3  0  0  0  0  0  0
  187.2010  176.4740  139.5980 O   0  0  0  0  0  0  0  0  0  0  0  0
  187.9430  175.6190  141.6780 N   0  0  0  0  0  0  0  0  0  0  0  0
  189.9270  172.6980  139.7370 S   0  0  0  0  0  0  0  0  0  0  0  0
  190.9530  174.8280  142.5060 C   0  0  0  0  0  1  0  0  0  0  0  0
  185.3770  178.8590  144.1310 C   0  0  0  0  0  3  0  0  0  0  0  0
  186.4740  177.8730  144.2080 C   0  0  0  0  0  0  0  0  0  0  0  0
  189.9110  173.9070  143.1410 C   0  0  2  0  0  3  0  0  0  0  0  0
  190.9380  175.5600  147.7260 C   0  0  0  0  0  2  0  0  0  0  0  0
  191.5110  177.5240  148.9380 O   0  0  0  0  0  1  0  0  0  0  0  0
  191.7870  176.8160  147.7690 C   0  0  0  0  0  2  0  0  0  0  0  0
  1  5  1  1  0  0  0
  2 16  2  0  0  0  0
  3 17  1  0  0  0  0
  4 12  1  0  0  0  0
  4  1  1  0  0  0  0
  5 11  1  0  0  0  0
  7 27  1  0  0  0  0
  8  6  2  0  0  0  0
  8 11  1  0  0  0  0
  9 22  1  0  0  0  0
  9  7  1  0  0  0  0
 10  3  1  0  0  0  0
 10 22  1  0  0  0  0
 11 28  1  0  0  0  0
 12  8  1  0  0  0  0
 13  2  1  0  0  0  0
 14  9  1  0  0  0  0
 15  7  1  0  0  0  0
 17 20  1  0  0  0  0
 17 26  1  0  0  0  0
 18 13  1  0  0  0  0
 19  1  1  0  0  0  0
 19  2  1  0  0  0  0
 20  4  1  0  0  0  0
 21 10  2  0  0  0  0
 22 20  1  0  0  0  0
 23 14  1  0  0  0  0
 23 15  1  0  0  0  0
 24 27  1  0  0  0  0
 25 26  1  0  0  0  0
 25 18  2  0  0  0  0
 26 19  2  0  0  0  0
 27 12  1  0  0  0  0
 28 30  1  0  0  0  0
 30 29  1  0  0  0  0
M  END
>  <MODEL>
3

>  <REMARK>
 VINA RESULT:      -8.2      2.408      5.774
  Name = 
  2 active torsions:
  status: ('A' for Active; 'I' for Inactive)
    1  A    between atoms: N_11  and  C_28
    2  A    between atoms: C_28  and  C_30
                            x       y       z     vdW  Elec       q    Type
                         _______ _______ _______ _____ _____    ______ ____

>  <TORSDO>
F 2

$$$$
=
 OpenBabel11112416153D

 30 35  0  0  1  0  0  0  0  0999 V2000
  186.7470  177.7200  143.7650 C   0  0  1  0  0  3  0  0  0  0  0  0
  185.8890  179.3350  145.6220 C   0  0  0  0  0  0  0  0  0  0  0  0
  188.7010  175.3110  146.7810 C   0  0  0  0  0  2  0  0  0  0  0  0
  187.4970  176.4020  143.4560 C   0  0  1  0  0  3  0  0  0  0  0  0
  185.4370  177.7010  142.9920 C   0  0  0  0  0  2  0  0  0  0  0  0
  187.0670  176.7620  139.8240 O   0  0  0  0  0  0  0  0  0  0  0  0
  190.1770  175.2470  142.0840 C   0  0  1  0  0  3  0  0  0  0  0  0
  186.8940  176.8960  141.0670 C   0  0  0  0  0  0  0  0  0  0  0  0
  190.3680  174.6100  143.4560 C   0  0  2  0  0  3  0  0  0  0  0  0
  189.4780  174.5070  145.8090 C   0  0  0  0  0  0  0  0  0  0  0  0
  185.6800  177.5030  141.5620 N   0  0  0  0  0  0  0  0  0  0  0  0
  188.0080  176.5100  142.0170 C   0  0  2  0  0  3  0  0  0  0  0  0
  185.5660  179.6320  147.0590 C   0  0  0  0  0  2  0  0  0  0  0  0
  190.4990  173.1130  143.2520 C   0  0  0  0  0  2  0  0  0  0  0  0
  191.1030  174.5310  141.1190 C   0  0  0  0  0  2  0  0  0  0  0  0
  185.5480  180.1650  144.7380 O   0  0  0  0  0  0  0  0  0  0  0  0
  187.7950  176.0410  145.8150 C   0  0  2  0  0  3  0  0  0  0  0  0
  186.3420  178.7770  148.0230 C   0  0  0  0  0  3  0  0  0  0  0  0
  186.5620  178.0700  145.2430 C   0  0  0  0  0  0  0  0  0  0  0  0
  188.5740  176.1800  144.5200 C   0  0  1  0  0  3  0  0  0  0  0  0
  190.2410  173.5670  146.1580 O   0  0  0  0  0  0  0  0  0  0  0  0
  189.3340  174.9330  144.4500 N   0  0  0  0  0  0  0  0  0  0  0  0
  191.4160  172.8360  141.7100 S   0  0  0  0  0  0  0  0  0  0  0  0
  187.9570  173.9710  141.7020 C   0  0  0  0  0  1  0  0  0  0  0  0
  187.0400  177.7080  147.6330 C   0  0  0  0  0  3  0  0  0  0  0  0
  187.1370  177.3230  146.2110 C   0  0  0  0  0  0  0  0  0  0  0  0
  188.7490  175.2670  141.5360 C   0  0  2  0  0  3  0  0  0  0  0  0
  184.6290  177.9200  140.6420 C   0  0  0  0  0  2  0  0  0  0  0  0
  182.2530  177.8640  140.6990 O   0  0  0  0  0  1  0  0  0  0  0  0
  183.3740  178.2910  141.4100 C   0  0  0  0  0  2  0  0  0  0  0  0
  1  5  1  1  0  0  0
  1 19  1  0  0  0  0
  2 13  1  0  0  0  0
  4  1  1  0  0  0  0
  4 20  1  0  0  0  0
  6  8  2  0  0  0  0
  7  9  1  0  0  0  0
  8 11  1  0  0  0  0
  8 12  1  0  0  0  0
  9 22  1  0  0  0  0
 10 21  2  0  0  0  0
 10  3  1  0  0  0  0
 11  5  1  0  0  0  0
 12  4  1  0  0  0  0
 13 18  1  0  0  0  0
 14  9  1  0  0  0  0
 15 23  1  0  0  0  0
 15  7  1  0  0  0  0
 16  2  2  0  0  0  0
 17 26  1  0  0  0  0
 17  3  1  0  0  0  0
 19  2  1  0  0  0  0
 19 26  2  0  0  0  0
 20 17  1  0  0  0  0
 22 20  1  0  0  0  0
 22 10  1  0  0  0  0
 23 14  1  0  0  0  0
 25 18  2  0  0  0  0
 26 25  1  0  0  0  0
 27 24  1  0  0  0  0
 27 12  1  0  0  0  0
 27  7  1  0  0  0  0
 28 30  1  0  0  0  0
 28 11  1  0  0  0  0
 29 30  1  0  0  0  0
M  END
>  <MODEL>
4

>  <REMARK>
 VINA RESULT:      -7.9      2.443      4.819
  Name = 
  2 active torsions:
  status: ('A' for Active; 'I' for Inactive)
    1  A    between atoms: N_11  and  C_28
    2  A    between atoms: C_28  and  C_30
                            x       y       z     vdW  Elec       q    Type
                         _______ _______ _______ _____ _____    ______ ____

>  <TORSDO>
F 2

$$$$
=
 OpenBabel11112416153D

 30 35  0  0  1  0  0  0  0  0999 V2000
  188.7430  176.5610  144.6160 C   0  0  1  0  0  3  0  0  0  0  0  0
  186.9920  178.2070  145.6240 C   0  0  0  0  0  0  0  0  0  0  0  0
  186.8480  176.9360  140.7450 C   0  0  0  0  0  2  0  0  0  0  0  0
  189.2750  175.8810  143.3320 C   0  0  1  0  0  3  0  0  0  0  0  0
  189.9320  177.1710  145.3450 C   0  0  0  0  0  2  0  0  0  0  0  0
  191.9270  174.0810  145.1300 O   0  0  0  0  0  0  0  0  0  0  0  0
  189.5840  173.0080  141.9000 C   0  0  1  0  0  3  0  0  0  0  0  0
  191.0420  174.9360  144.8480 C   0  0  0  0  0  0  0  0  0  0  0  0
  188.8200  173.7050  140.7800 C   0  0  2  0  0  3  0  0  0  0  0  0
  187.5890  175.8050  140.1370 C   0  0  0  0  0  0  0  0  0  0  0  0
  190.9520  176.1560  145.6160 N   0  0  0  0  0  0  0  0  0  0  0  0
  190.0220  174.6200  143.7750 C   0  0  2  0  0  3  0  0  0  0  0  0
  185.9550  179.2820  145.4640 C   0  0  0  0  0  2  0  0  0  0  0  0
  189.6590  173.6020  139.5200 C   0  0  0  0  0  2  0  0  0  0  0  0
  190.2060  171.7550  141.3140 C   0  0  0  0  0  2  0  0  0  0  0  0
  187.3760  177.9000  146.7840 O   0  0  0  0  0  0  0  0  0  0  0  0
  187.6080  177.0450  142.0480 C   0  0  2  0  0  3  0  0  0  0  0  0
  185.3210  179.2860  144.1010 C   0  0  0  0  0  3  0  0  0  0  0  0
  187.5850  177.5450  144.4380 C   0  0  0  0  0  0  0  0  0  0  0  0
  188.1080  175.6490  142.3700 C   0  0  1  0  0  3  0  0  0  0  0  0
  187.4480  175.4680  138.9320 O   0  0  0  0  0  0  0  0  0  0  0  0
  188.4270  175.0940  141.0560 N   0  0  0  0  0  0  0  0  0  0  0  0
  190.4820  171.9830  139.5270 S   0  0  0  0  0  0  0  0  0  0  0  0
  191.5510  174.6830  141.7230 C   0  0  0  0  0  1  0  0  0  0  0  0
  185.8100  178.5810  143.0790 C   0  0  0  0  0  3  0  0  0  0  0  0
  186.9880  177.7040  143.2370 C   0  0  0  0  0  0  0  0  0  0  0  0
  190.6450  173.8410  142.6220 C   0  0  2  0  0  3  0  0  0  0  0  0
  191.9040  176.4350  146.6830 C   0  0  0  0  0  2  0  0  0  0  0  0
  191.1020  175.1320  148.5030 O   0  0  0  0  0  1  0  0  0  0  0  0
  191.2020  176.4390  148.0280 C   0  0  0  0  0  2  0  0  0  0  0  0
  1  5  1  6  0  0  0
  2 16  2  0  0  0  0
  3 17  1  0  0  0  0
  4 12  1  0  0  0  0
  4  1  1  0  0  0  0
  5 11  1  0  0  0  0
  7 27  1  0  0  0  0
  8  6  2  0  0  0  0
  8 11  1  0  0  0  0
  9 22  1  0  0  0  0
  9  7  1  0  0  0  0
 10  3  1  0  0  0  0
 10 22  1  0  0  0  0
 11 28  1  0  0  0  0
 12  8  1  0  0  0  0
 13  2  1  0  0  0  0
 14 23  1  0  0  0  0
 14  9  1  0  0  0  0
 15  7  1  0  0  0  0
 17 20  1  0  0  0  0
 17 26  1  0  0  0  0
 18 13  1  0  0  0  0
 19  1  1  0  0  0  0
 19  2  1  0  0  0  0
 20  4  1  0  0  0  0
 21 10  2  0  0  0  0
 22 20  1  0  0  0  0
 23 15  1  0  0  0  0
 24 27  1  0  0  0  0
 25 26  1  0  0  0  0
 25 18  2  0  0  0  0
 26 19  2  0  0  0  0
 27 12  1  0  0  0  0
 28 30  1  0  0  0  0
 30 29  1  0  0  0  0
M  END
>  <MODEL>
5

>  <REMARK>
 VINA RESULT:      -7.7      2.407      5.661
  Name = 
  2 active torsions:
  status: ('A' for Active; 'I' for Inactive)
    1  A    between atoms: N_11  and  C_28
    2  A    between atoms: C_28  and  C_30
                            x       y       z     vdW  Elec       q    Type
                         _______ _______ _______ _____ _____    ______ ____

>  <TORSDO>
F 2

$$$$
=
 OpenBabel11112416153D

 30 35  0  0  1  0  0  0  0  0999 V2000
  187.9730  175.6090  141.9370 C   0  0  1  0  0  3  0  0  0  0  0  0
  189.6270  173.9440  140.8020 C   0  0  0  0  0  0  0  0  0  0  0  0
  190.5060  175.7140  145.4420 C   0  0  0  0  0  2  0  0  0  0  0  0
  187.7000  176.5080  143.1660 C   0  0  1  0  0  3  0  0  0  0  0  0
  187.7540  176.4490  140.6880 C   0  0  0  0  0  2  0  0  0  0  0  0
  184.4870  177.7040  141.8400 O   0  0  0  0  0  0  0  0  0  0  0  0
  185.7240  176.8570  145.6900 C   0  0  1  0  0  3  0  0  0  0  0  0
  185.6490  177.2140  141.8960 C   0  0  0  0  0  0  0  0  0  0  0  0
  187.0330  176.8110  146.4700 C   0  0  2  0  0  3  0  0  0  0  0  0
  189.5120  176.4140  146.2900 C   0  0  0  0  0  0  0  0  0  0  0  0
  186.4110  177.0320  140.6820 N   0  0  0  0  0  0  0  0  0  0  0  0
  186.1860  176.7280  143.2260 C   0  0  2  0  0  3  0  0  0  0  0  0
  190.9840  173.3090  140.6920 C   0  0  0  0  0  2  0  0  0  0  0  0
  187.1190  178.0800  147.2970 C   0  0  0  0  0  2  0  0  0  0  0  0
  184.6630  177.4200  146.6180 C   0  0  0  0  0  2  0  0  0  0  0  0
  188.7730  173.7140  139.9040 O   0  0  0  0  0  0  0  0  0  0  0  0
  189.8060  175.8310  144.1080 C   0  0  2  0  0  3  0  0  0  0  0  0
  191.7560  173.3510  141.9820 C   0  0  0  0  0  3  0  0  0  0  0  0
  189.3070  174.8580  141.9240 C   0  0  0  0  0  0  0  0  0  0  0  0
  188.3180  175.8610  144.4060 C   0  0  1  0  0  3  0  0  0  0  0  0
  189.7510  176.7550  147.4790 O   0  0  0  0  0  0  0  0  0  0  0  0
  188.2420  176.6110  145.6590 N   0  0  0  0  0  0  0  0  0  0  0  0
  185.4450  178.4900  147.8690 S   0  0  0  0  0  0  0  0  0  0  0  0
  186.4580  178.9830  144.4070 C   0  0  0  0  0  1  0  0  0  0  0  0
  191.3750  174.0940  143.0230 C   0  0  0  0  0  3  0  0  0  0  0  0
  190.1320  174.8910  142.9930 C   0  0  0  0  0  0  0  0  0  0  0  0
  185.7430  177.6320  144.3720 C   0  0  2  0  0  3  0  0  0  0  0  0
  185.8720  177.4540  139.3960 C   0  0  0  0  0  2  0  0  0  0  0  0
  185.7000  176.1620  137.4060 O   0  0  0  0  0  1  0  0  0  0  0  0
  186.6160  176.7710  138.2630 C   0  0  0  0  0  2  0  0  0  0  0  0
  1  5  1  6  0  0  0
  1  4  1  0  0  0  0
  2 19  1  0  0  0  0
  3 10  1  0  0  0  0
  4 12  1  0  0  0  0
  4 20  1  0  0  0  0
  6  8  2  0  0  0  0
  7  9  1  0  0  0  0
  7 15  1  0  0  0  0
  8 12  1  0  0  0  0
  9 14  1  0  0  0  0
 10 21  2  0  0  0  0
 11  5  1  0  0  0  0
 11  8  1  0  0  0  0
 12 27  1  0  0  0  0
 13  2  1  0  0  0  0
 13 18  1  0  0  0  0
 14 23  1  0  0  0  0
 15 23  1  0  0  0  0
 16  2  2  0  0  0  0
 17 20  1  0  0  0  0
 17  3  1  0  0  0  0
 18 25  2  0  0  0  0
 19  1  1  0  0  0  0
 19 26  2  0  0  0  0
 20 22  1  0  0  0  0
 22 10  1  0  0  0  0
 22  9  1  0  0  0  0
 26 25  1  0  0  0  0
 26 17  1  0  0  0  0
 27 24  1  0  0  0  0
 27  7  1  0  0  0  0
 28 11  1  0  0  0  0
 29 30  1  0  0  0  0
 30 28  1  0  0  0  0
M  END
>  <MODEL>
6

>  <REMARK>
 VINA RESULT:      -7.5      2.058      4.946
  Name = 
  2 active torsions:
  status: ('A' for Active; 'I' for Inactive)
    1  A    between atoms: N_11  and  C_28
    2  A    between atoms: C_28  and  C_30
                            x       y       z     vdW  Elec       q    Type
                         _______ _______ _______ _____ _____    ______ ____

>  <TORSDO>
F 2

$$$$
=
 OpenBabel11112416153D

 30 35  0  0  1  0  0  0  0  0999 V2000
  189.9180  175.3210  142.8780 C   0  0  1  0  0  3  0  0  0  0  0  0
  187.6020  176.2490  143.6320 C   0  0  0  0  0  0  0  0  0  0  0  0
  191.6410  176.6090  146.6310 C   0  0  0  0  0  2  0  0  0  0  0  0
  191.3870  175.0540  143.2830 C   0  0  1  0  0  3  0  0  0  0  0  0
  189.3580  174.0370  142.2840 C   0  0  0  0  0  2  0  0  0  0  0  0
  192.2350  173.5670  140.0310 O   0  0  0  0  0  0  0  0  0  0  0  0
  194.4200  175.9260  142.6250 C   0  0  1  0  0  3  0  0  0  0  0  0
  191.5660  173.9740  141.0210 C   0  0  0  0  0  0  0  0  0  0  0  0
  194.4460  176.2380  144.1170 C   0  0  2  0  0  3  0  0  0  0  0  0
  193.0430  176.3930  146.2020 C   0  0  0  0  0  0  0  0  0  0  0  0
  190.1840  173.5770  141.1670 N   0  0  0  0  0  0  0  0  0  0  0  0
  192.1940  174.9570  141.9860 C   0  0  2  0  0  3  0  0  0  0  0  0
  186.6550  176.7060  144.7060 C   0  0  0  0  0  2  0  0  0  0  0  0
  195.5840  175.4460  144.7310 C   0  0  0  0  0  2  0  0  0  0  0  0
  195.8600  175.8720  142.1490 C   0  0  0  0  0  2  0  0  0  0  0  0
  187.1680  176.1130  142.4570 O   0  0  0  0  0  0  0  0  0  0  0  0
  190.9320  175.9640  145.4620 C   0  0  2  0  0  3  0  0  0  0  0  0
  187.3610  177.1840  145.9440 C   0  0  0  0  0  3  0  0  0  0  0  0
  189.0120  175.9250  143.9530 C   0  0  0  0  0  0  0  0  0  0  0  0
  191.8410  176.1400  144.2600 C   0  0  1  0  0  3  0  0  0  0  0  0
  194.0260  176.5860  146.9650 O   0  0  0  0  0  0  0  0  0  0  0  0
  193.1810  176.0080  144.8300 N   0  0  0  0  0  0  0  0  0  0  0  0
  196.9490  175.4070  143.5340 S   0  0  0  0  0  0  0  0  0  0  0  0
  193.9340  173.4210  143.0640 C   0  0  0  0  0  1  0  0  0  0  0  0
  188.6640  176.9830  146.1510 C   0  0  0  0  0  3  0  0  0  0  0  0
  189.5140  176.3140  145.1460 C   0  0  0  0  0  0  0  0  0  0  0  0
  193.6730  174.6590  142.2060 C   0  0  2  0  0  3  0  0  0  0  0  0
  189.5670  172.6700  140.2080 C   0  0  0  0  0  2  0  0  0  0  0  0
  188.2640  173.0170  138.2500 O   0  0  0  0  0  1  0  0  0  0  0  0
  188.3220  173.3010  139.6140 C   0  0  0  0  0  2  0  0  0  0  0  0
  1  5  1  1  0  0  0
  1  4  1  0  0  0  0
  1 19  1  0  0  0  0
  2 19  1  0  0  0  0
  2 13  1  0  0  0  0
  4 20  1  0  0  0  0
  6  8  2  0  0  0  0
  7  9  1  0  0  0  0
  8 11  1  0  0  0  0
  8 12  1  0  0  0  0
  9 14  1  0  0  0  0
  9 22  1  0  0  0  0
 10  3  1  0  0  0  0
 10 21  2  0  0  0  0
 11  5  1  0  0  0  0
 12 27  1  0  0  0  0
 12  4  1  0  0  0  0
 13 18  1  0  0  0  0
 15  7  1  0  0  0  0
 15 23  1  0  0  0  0
 16  2  2  0  0  0  0
 17  3  1  0  0  0  0
 18 25  2  0  0  0  0
 19 26  2  0  0  0  0
 20 22  1  0  0  0  0
 20 17  1  0  0  0  0
 22 10  1  0  0  0  0
 23 14  1  0  0  0  0
 26 17  1  0  0  0  0
 26 25  1  0  0  0  0
 27  7  1  0  0  0  0
 27 24  1  0  0  0  0
 28 11  1  0  0  0  0
 29 30  1  0  0  0  0
 30 28  1  0  0  0  0
M  END
>  <MODEL>
7

>  <REMARK>
 VINA RESULT:      -7.2      2.987      4.456
  Name = 
  2 active torsions:
  status: ('A' for Active; 'I' for Inactive)
    1  A    between atoms: N_11  and  C_28
    2  A    between atoms: C_28  and  C_30
                            x       y       z     vdW  Elec       q    Type
                         _______ _______ _______ _____ _____    ______ ____

>  <TORSDO>
F 2

$$$$
=
 OpenBabel11112416153D

 30 35  0  0  1  0  0  0  0  0999 V2000
  192.9040  171.7850  144.4060 C   0  0  1  0  0  3  0  0  0  0  0  0
  195.1290  170.4390  144.5790 C   0  0  0  0  0  0  0  0  0  0  0  0
  194.8590  175.2180  146.1670 C   0  0  0  0  0  2  0  0  0  0  0  0
  192.2150  173.1560  144.6030 C   0  0  1  0  0  3  0  0  0  0  0  0
  192.5570  171.2860  143.0110 C   0  0  0  0  0  2  0  0  0  0  0  0
  188.9540  171.9210  143.4430 O   0  0  0  0  0  0  0  0  0  0  0  0
  189.9710  174.6600  146.3640 C   0  0  1  0  0  3  0  0  0  0  0  0
  190.1990  172.0170  143.6270 C   0  0  0  0  0  0  0  0  0  0  0  0
  191.1280  175.6050  146.6710 C   0  0  2  0  0  3  0  0  0  0  0  0
  193.6030  175.9720  146.3920 C   0  0  0  0  0  0  0  0  0  0  0  0
  191.1060  171.2290  142.8250 N   0  0  0  0  0  0  0  0  0  0  0  0
  190.7170  172.8810  144.7570 C   0  0  2  0  0  3  0  0  0  0  0  0
  196.6240  170.3830  144.7250 C   0  0  0  0  0  2  0  0  0  0  0  0
  190.6970  177.0020  146.2680 C   0  0  0  0  0  2  0  0  0  0  0  0
  188.6890  175.3720  146.7530 C   0  0  0  0  0  2  0  0  0  0  0  0
  194.5040  169.3770  144.3150 O   0  0  0  0  0  0  0  0  0  0  0  0
  194.3100  174.0830  145.3340 C   0  0  2  0  0  3  0  0  0  0  0  0
  197.1920  171.6010  145.4000 C   0  0  0  0  0  3  0  0  0  0  0  0
  194.4040  171.7250  144.7050 C   0  0  0  0  0  0  0  0  0  0  0  0
  192.8740  173.8810  145.7790 C   0  0  1  0  0  3  0  0  0  0  0  0
  193.5830  177.1330  146.8790 O   0  0  0  0  0  0  0  0  0  0  0  0
  192.4160  175.2400  146.0650 N   0  0  0  0  0  0  0  0  0  0  0  0
  188.9300  177.1750  146.6480 S   0  0  0  0  0  0  0  0  0  0  0  0
  190.0960  175.1850  143.8310 C   0  0  0  0  0  1  0  0  0  0  0  0
  196.4750  172.7070  145.6080 C   0  0  0  0  0  3  0  0  0  0  0  0
  195.0490  172.7890  145.2310 C   0  0  0  0  0  0  0  0  0  0  0  0
  189.8770  174.1430  144.9280 C   0  0  2  0  0  3  0  0  0  0  0  0
  190.6020  170.3590  141.7700 C   0  0  0  0  0  2  0  0  0  0  0  0
  189.8090  171.9250  140.1670 O   0  0  0  0  0  1  0  0  0  0  0  0
  190.8210  170.9980  140.4110 C   0  0  0  0  0  2  0  0  0  0  0  0
  1  5  1  6  0  0  0
  1  4  1  0  0  0  0
  1 19  1  0  0  0  0
  2 19  1  0  0  0  0
  2 13  1  0  0  0  0
  3 10  1  0  0  0  0
  4 12  1  0  0  0  0
  4 20  1  0  0  0  0
  6  8  2  0  0  0  0
  7  9  1  0  0  0  0
  7 15  1  0  0  0  0
  8 12  1  0  0  0  0
 10 21  2  0  0  0  0
 11  5  1  0  0  0  0
 11  8  1  0  0  0  0
 12 27  1  0  0  0  0
 13 18  1  0  0  0  0
 14 23  1  0  0  0  0
 14  9  1  0  0  0  0
 16  2  2  0  0  0  0
 17 20  1  0  0  0  0
 17  3  1  0  0  0  0
 18 25  2  0  0  0  0
 19 26  2  0  0  0  0
 20 22  1  0  0  0  0
 22 10  1  0  0  0  0
 22  9  1  0  0  0  0
 23 15  1  0  0  0  0
 24 27  1  0  0  0  0
 26 17  1  0  0  0  0
 26 25  1  0  0  0  0
 27  7  1  0  0  0  0
 28 11  1  0  0  0  0
 29 30  1  0  0  0  0
 30 28  1  0  0  0  0
M  END
>  <MODEL>
8

>  <REMARK>
 VINA RESULT:      -7.1      4.015      7.539
  Name = 
  2 active torsions:
  status: ('A' for Active; 'I' for Inactive)
    1  A    between atoms: N_11  and  C_28
    2  A    between atoms: C_28  and  C_30
                            x       y       z     vdW  Elec       q    Type
                         _______ _______ _______ _____ _____    ______ ____

>  <TORSDO>
F 2

$$$$
=
 OpenBabel11112416153D

 30 35  0  0  1  0  0  0  0  0999 V2000
  190.2650  174.9230  144.7540 C   0  0  1  0  0  3  0  0  0  0  0  0
  188.5100  175.9200  146.4020 C   0  0  0  0  0  0  0  0  0  0  0  0
  187.5950  175.7220  141.4460 C   0  0  0  0  0  2  0  0  0  0  0  0
  190.6300  174.6570  143.2740 C   0  0  1  0  0  3  0  0  0  0  0  0
  191.4610  175.5920  145.4150 C   0  0  0  0  0  2  0  0  0  0  0  0
  193.8460  173.0950  144.1280 O   0  0  0  0  0  0  0  0  0  0  0  0
  191.1050  172.2830  141.1440 C   0  0  1  0  0  3  0  0  0  0  0  0
  192.7960  173.7910  144.2100 C   0  0  0  0  0  0  0  0  0  0  0  0
  190.0290  173.0320  140.3670 C   0  0  2  0  0  3  0  0  0  0  0  0
  188.3710  174.9240  140.4680 C   0  0  0  0  0  0  0  0  0  0  0  0
  192.6660  174.7730  145.2620 N   0  0  0  0  0  0  0  0  0  0  0  0
  191.6450  173.5110  143.2670 C   0  0  2  0  0  3  0  0  0  0  0  0
  187.3010  176.7690  146.6800 C   0  0  0  0  0  2  0  0  0  0  0  0
  190.6020  173.3760  139.0050 C   0  0  0  0  0  2  0  0  0  0  0  0
  191.7910  171.3390  140.1740 C   0  0  0  0  0  2  0  0  0  0  0  0
  189.1640  175.4570  147.3740 O   0  0  0  0  0  0  0  0  0  0  0  0
  188.5730  175.7030  142.5990 C   0  0  2  0  0  3  0  0  0  0  0  0
  186.4140  176.9350  145.4770 C   0  0  0  0  0  3  0  0  0  0  0  0
  188.9510  175.6630  145.0110 C   0  0  0  0  0  0  0  0  0  0  0  0
  189.3470  174.4030  142.4820 C   0  0  1  0  0  3  0  0  0  0  0  0
  188.0460  174.8320  139.2540 O   0  0  0  0  0  0  0  0  0  0  0  0
  189.4800  174.2200  141.0370 N   0  0  0  0  0  0  0  0  0  0  0  0
  191.6610  171.9960  138.4800 S   0  0  0  0  0  0  0  0  0  0  0  0
  192.6990  174.3230  141.0810 C   0  0  0  0  0  1  0  0  0  0  0  0
  186.7950  176.5810  144.2490 C   0  0  0  0  0  3  0  0  0  0  0  0
  188.1070  175.9510  143.9960 C   0  0  0  0  0  0  0  0  0  0  0  0
  192.1410  173.1410  141.8730 C   0  0  2  0  0  3  0  0  0  0  0  0
  193.7550  175.0060  146.2000 C   0  0  0  0  0  2  0  0  0  0  0  0
  194.3330  177.2280  146.8180 O   0  0  0  0  0  1  0  0  0  0  0  0
  194.5130  176.2660  145.8250 C   0  0  0  0  0  2  0  0  0  0  0  0
  1 19  1  0  0  0  0
  1  5  1  6  0  0  0
  2 13  1  0  0  0  0
  2 16  2  0  0  0  0
  3 17  1  0  0  0  0
  4  1  1  0  0  0  0
  6  8  2  0  0  0  0
  7 27  1  0  0  0  0
  8 11  1  0  0  0  0
  9 22  1  0  0  0  0
  9  7  1  0  0  0  0
 10 22  1  0  0  0  0
 10  3  1  0  0  0  0
 11  5  1  0  0  0  0
 11 28  1  0  0  0  0
 12  4  1  0  0  0  0
 12  8  1  0  0  0  0
 14  9  1  0  0  0  0
 15  7  1  0  0  0  0
 17 26  1  0  0  0  0
 18 13  1  0  0  0  0
 19  2  1  0  0  0  0
 20 17  1  0  0  0  0
 20  4  1  0  0  0  0
 21 10  2  0  0  0  0
 22 20  1  0  0  0  0
 23 14  1  0  0  0  0
 23 15  1  0  0  0  0
 24 27  1  0  0  0  0
 25 18  2  0  0  0  0
 26 25  1  0  0  0  0
 26 19  2  0  0  0  0
 27 12  1  0  0  0  0
 30 28  1  0  0  0  0
 30 29  1  0  0  0  0
M  END
>  <MODEL>
9

>  <REMARK>
 VINA RESULT:      -7.1      2.936      6.255
  Name = 
  2 active torsions:
  status: ('A' for Active; 'I' for Inactive)
    1  A    between atoms: N_11  and  C_28
    2  A    between atoms: C_28  and  C_30
                            x       y       z     vdW  Elec       q    Type
                         _______ _______ _______ _____ _____    ______ ____

>  <TORSDO>
F 2

$$$$
