=
 OpenBabel11112417393D

 28 32  0  0  1  0  0  0  0  0999 V2000
  191.1810  174.2180  143.0160 C   0  0  0  0  0  0  0  0  0  0  0  0
  188.0080  178.1110  144.1040 F   0  0  0  0  0  0  0  0  0  0  0  0
  193.2120  175.5670  146.8650 O   0  0  0  0  0  0  0  0  0  0  0  0
  190.3320  172.1330  144.6170 N   0  0  0  0  0  0  0  0  0  0  0  0
  190.9150  176.1680  147.3070 C   0  0  2  0  0  3  0  0  0  0  0  0
  191.6760  175.3200  142.2530 N   0  0  0  0  0  2  0  0  0  0  0  0
  186.7040  176.4290  143.1060 C   0  0  0  0  0  1  0  0  0  0  0  0
  187.3320  176.9300  144.3930 C   0  0  1  0  0  0  0  0  0  0  0  0
  186.8740  177.6940  146.4830 C   0  0  1  0  0  3  0  0  0  0  0  0
  188.2950  175.8320  144.9250 C   0  0  2  0  0  3  0  0  0  0  0  0
  194.0010  174.7760  144.1980 O   0  0  0  0  0  1  0  0  0  0  0  0
  190.4990  176.7890  144.9570 C   0  0  1  0  0  3  0  0  0  0  0  0
  187.6350  176.5850  147.1940 C   0  0  0  0  0  2  0  0  0  0  0  0
  186.2940  177.1790  145.3140 O   0  0  0  0  0  0  0  0  0  0  0  0
  193.7360  175.9350  143.4660 C   0  0  2  0  0  3  0  0  0  0  0  0
  190.1690  174.4360  143.9630 C   0  0  0  0  0  0  0  0  0  0  0  0
  192.1020  175.9890  146.4420 C   0  0  0  0  0  0  0  0  0  0  0  0
  185.7890  178.2250  147.3960 C   0  0  0  0  0  1  0  0  0  0  0  0
  192.9480  176.9640  144.2900 C   0  0  0  0  0  2  0  0  0  0  0  0
  189.7660  173.3590  144.7680 C   0  0  0  0  0  3  0  0  0  0  0  0
  191.7600  172.9510  142.8900 C   0  0  0  0  0  3  0  0  0  0  0  0
  191.3120  171.9100  143.7010 C   0  0  0  0  0  3  0  0  0  0  0  0
  193.0970  175.5980  142.1160 C   0  0  0  0  0  2  0  0  0  0  0  0
  189.8910  176.8080  146.3680 C   0  0  1  0  0  3  0  0  0  0  0  0
  191.8840  176.3550  145.0920 N   0  0  0  0  0  0  0  0  0  0  0  0
  188.6740  175.9990  146.3390 N   0  0  2  0  0  0  0  0  0  0  0  0
  191.2270  177.1290  148.4370 C   0  0  0  0  0  1  0  0  0  0  0  0
  189.6060  175.8330  144.1480 C   0  0  1  0  0  3  0  0  0  0  0  0
  1 16  1  0  0  0  0
  2  8  1  0  0  0  0
  4 20  1  0  0  0  0
  5 27  1  1  0  0  0
  6  1  1  0  0  0  0
  8  7  1  6  0  0  0
  8 10  1  0  0  0  0
  8 14  1  0  0  0  0
  9 13  1  0  0  0  0
  9 18  1  1  0  0  0
 10 26  1  0  0  0  0
 12 25  1  0  0  0  0
 12 24  1  0  0  0  0
 14  9  1  0  0  0  0
 15 11  1  0  0  0  0
 15 19  1  0  0  0  0
 16 28  1  0  0  0  0
 16 20  2  0  0  0  0
 17  3  2  0  0  0  0
 17  5  1  0  0  0  0
 19 25  1  0  0  0  0
 21  1  2  0  0  0  0
 21 22  1  0  0  0  0
 22  4  2  0  0  0  0
 23  6  1  0  0  0  0
 23 15  1  0  0  0  0
 24  5  1  0  0  0  0
 25 17  1  0  0  0  0
 26 24  1  0  0  0  0
 26 13  1  0  0  0  0
 28 10  1  0  0  0  0
 28 12  1  0  0  0  0
M  END
>  <MODEL>
1

>  <REMARK>
 VINA RESULT:      -7.9      0.000      0.000
  Name = 
  0 active torsions:
  status: ('A' for Active; 'I' for Inactive)
                            x       y       z     vdW  Elec       q    Type
                         _______ _______ _______ _____ _____    ______ ____

>  <TORSDO>
F 0

$$$$
=
 OpenBabel11112417393D

 28 32  0  0  1  0  0  0  0  0999 V2000
  190.5420  174.2720  143.7550 C   0  0  0  0  0  0  0  0  0  0  0  0
  186.1220  176.3910  145.2960 F   0  0  0  0  0  0  0  0  0  0  0  0
  188.6340  174.6960  139.6390 O   0  0  0  0  0  0  0  0  0  0  0  0
  192.0790  176.3890  142.8650 N   0  0  0  0  0  0  0  0  0  0  0  0
  187.6520  176.5660  140.8110 C   0  0  2  0  0  3  0  0  0  0  0  0
  189.7170  173.1680  144.1320 N   0  0  0  0  0  2  0  0  0  0  0  0
  187.7990  177.2000  146.7290 C   0  0  0  0  0  1  0  0  0  0  0  0
  187.1060  177.3690  145.3900 C   0  0  1  0  0  0  0  0  0  0  0  0
  185.8350  178.7820  144.1460 C   0  0  1  0  0  3  0  0  0  0  0  0
  188.1720  177.2210  144.2680 C   0  0  2  0  0  3  0  0  0  0  0  0
  190.1070  172.6920  141.1140 O   0  0  0  0  0  1  0  0  0  0  0  0
  187.5310  175.3250  142.9390 C   0  0  1  0  0  3  0  0  0  0  0  0
  186.8430  178.8980  143.0140 C   0  0  0  0  0  2  0  0  0  0  0  0
  186.5210  178.6500  145.3630 O   0  0  0  0  0  0  0  0  0  0  0  0
  189.1190  172.1720  141.9530 C   0  0  2  0  0  3  0  0  0  0  0  0
  189.9840  175.5580  143.6890 C   0  0  0  0  0  0  0  0  0  0  0  0
  188.1770  175.1870  140.7070 C   0  0  0  0  0  0  0  0  0  0  0  0
  184.9730  180.0260  144.1820 C   0  0  0  0  0  1  0  0  0  0  0  0
  187.8360  173.0150  141.9170 C   0  0  0  0  0  2  0  0  0  0  0  0
  190.7870  176.6110  143.2230 C   0  0  0  0  0  3  0  0  0  0  0  0
  191.8690  174.0650  143.3650 C   0  0  0  0  0  3  0  0  0  0  0  0
  192.6310  175.1480  142.9280 C   0  0  0  0  0  3  0  0  0  0  0  0
  189.6670  171.9340  143.3640 C   0  0  0  0  0  2  0  0  0  0  0  0
  187.1120  176.6290  142.2410 C   0  0  1  0  0  3  0  0  0  0  0  0
  188.1010  174.4550  141.9170 N   0  0  0  0  0  0  0  0  0  0  0  0
  187.7400  177.7370  142.9570 N   0  0  2  0  0  0  0  0  0  0  0  0
  186.5090  176.7690  139.8360 C   0  0  0  0  0  1  0  0  0  0  0  0
  188.5190  175.7560  144.0350 C   0  0  1  0  0  3  0  0  0  0  0  0
  1  6  1  0  0  0  0
  2  8  1  0  0  0  0
  3 17  2  0  0  0  0
  4 22  2  0  0  0  0
  4 20  1  0  0  0  0
  5 27  1  6  0  0  0
  5 24  1  0  0  0  0
  8  7  1  1  0  0  0
  9 18  1  1  0  0  0
  9 14  1  0  0  0  0
 10  8  1  0  0  0  0
 11 15  1  0  0  0  0
 12 28  1  0  0  0  0
 13  9  1  0  0  0  0
 14  8  1  0  0  0  0
 15 23  1  0  0  0  0
 16  1  1  0  0  0  0
 16 28  1  0  0  0  0
 17  5  1  0  0  0  0
 17 25  1  0  0  0  0
 19 25  1  0  0  0  0
 19 15  1  0  0  0  0
 20 16  2  0  0  0  0
 21  1  2  0  0  0  0
 22 21  1  0  0  0  0
 23  6  1  0  0  0  0
 24 12  1  0  0  0  0
 24 26  1  0  0  0  0
 25 12  1  0  0  0  0
 26 13  1  0  0  0  0
 26 10  1  0  0  0  0
 28 10  1  0  0  0  0
M  END
>  <MODEL>
2

>  <REMARK>
 VINA RESULT:      -7.6      2.685      4.775
  Name = 
  0 active torsions:
  status: ('A' for Active; 'I' for Inactive)
                            x       y       z     vdW  Elec       q    Type
                         _______ _______ _______ _____ _____    ______ ____

>  <TORSDO>
F 0

$$$$
=
 OpenBabel11112417393D

 28 32  0  0  1  0  0  0  0  0999 V2000
  190.6040  174.8940  142.4570 C   0  0  0  0  0  0  0  0  0  0  0  0
  187.4230  178.9060  142.0130 F   0  0  0  0  0  0  0  0  0  0  0  0
  189.7240  175.4340  146.8950 O   0  0  0  0  0  0  0  0  0  0  0  0
  188.9520  172.7010  142.7630 N   0  0  0  0  0  0  0  0  0  0  0  0
  187.6610  176.2080  145.9060 C   0  0  2  0  0  3  0  0  0  0  0  0
  191.4600  176.0360  142.3880 N   0  0  0  0  0  2  0  0  0  0  0  0
  187.0630  177.5410  140.1350 C   0  0  0  0  0  1  0  0  0  0  0  0
  186.7280  177.7760  141.5960 C   0  0  1  0  0  0  0  0  0  0  0  0
  185.0430  178.2690  143.0370 C   0  0  1  0  0  3  0  0  0  0  0  0
  187.1470  176.5130  142.4000 C   0  0  2  0  0  3  0  0  0  0  0  0
  192.0320  174.9620  145.2180 O   0  0  0  0  0  1  0  0  0  0  0  0
  188.8230  177.2100  143.9750 C   0  0  1  0  0  3  0  0  0  0  0  0
  185.1910  176.9910  143.8490 C   0  0  0  0  0  2  0  0  0  0  0  0
  185.3400  177.9970  141.6920 O   0  0  0  0  0  0  0  0  0  0  0  0
  192.2790  176.2390  144.7080 C   0  0  2  0  0  3  0  0  0  0  0  0
  189.2190  175.0790  142.5840 C   0  0  0  0  0  0  0  0  0  0  0  0
  189.1290  176.0300  145.9580 C   0  0  0  0  0  0  0  0  0  0  0  0
  183.6200  178.7740  143.1490 C   0  0  0  0  0  1  0  0  0  0  0  0
  191.1380  177.2140  145.0290 C   0  0  0  0  0  2  0  0  0  0  0  0
  188.4070  173.9450  142.7480 C   0  0  0  0  0  3  0  0  0  0  0  0
  191.1440  173.6040  142.4920 C   0  0  0  0  0  3  0  0  0  0  0  0
  190.2930  172.5100  142.6380 C   0  0  0  0  0  3  0  0  0  0  0  0
  192.6440  176.1750  143.2220 C   0  0  0  0  0  2  0  0  0  0  0  0
  187.4580  177.0870  144.6710 C   0  0  1  0  0  3  0  0  0  0  0  0
  189.8130  176.6130  144.8630 N   0  0  0  0  0  0  0  0  0  0  0  0
  186.5430  176.4280  143.7420 N   0  0  2  0  0  0  0  0  0  0  0  0
  187.1780  176.9530  147.1350 C   0  0  0  0  0  1  0  0  0  0  0  0
  188.6530  176.4860  142.6290 C   0  0  1  0  0  3  0  0  0  0  0  0
  1 21  2  0  0  0  0
  1 16  1  0  0  0  0
  5 17  1  0  0  0  0
  5 27  1  1  0  0  0
  6  1  1  0  0  0  0
  6 23  1  0  0  0  0
  8  7  1  6  0  0  0
  8 14  1  0  0  0  0
  8  2  1  0  0  0  0
  8 10  1  0  0  0  0
  9 18  1  6  0  0  0
  9 13  1  0  0  0  0
 10 28  1  0  0  0  0
 10 26  1  0  0  0  0
 12 24  1  0  0  0  0
 12 25  1  0  0  0  0
 14  9  1  0  0  0  0
 15 19  1  0  0  0  0
 15 11  1  0  0  0  0
 16 28  1  0  0  0  0
 16 20  2  0  0  0  0
 17  3  2  0  0  0  0
 20  4  1  0  0  0  0
 21 22  1  0  0  0  0
 22  4  2  0  0  0  0
 23 15  1  0  0  0  0
 24  5  1  0  0  0  0
 25 19  1  0  0  0  0
 25 17  1  0  0  0  0
 26 13  1  0  0  0  0
 26 24  1  0  0  0  0
 28 12  1  0  0  0  0
M  END
>  <MODEL>
3

>  <REMARK>
 VINA RESULT:      -7.6      2.089      2.817
  Name = 
  0 active torsions:
  status: ('A' for Active; 'I' for Inactive)
                            x       y       z     vdW  Elec       q    Type
                         _______ _______ _______ _____ _____    ______ ____

>  <TORSDO>
F 0

$$$$
=
 OpenBabel11112417393D

 28 32  0  0  1  0  0  0  0  0999 V2000
  189.3610  176.8480  145.2140 C   0  0  0  0  0  0  0  0  0  0  0  0
  194.3760  176.1690  144.3220 F   0  0  0  0  0  0  0  0  0  0  0  0
  189.0160  172.9440  142.8890 O   0  0  0  0  0  0  0  0  0  0  0  0
  188.7860  175.2040  147.3590 N   0  0  0  0  0  0  0  0  0  0  0  0
  191.1820  172.6870  143.9280 C   0  0  2  0  0  3  0  0  0  0  0  0
  189.6370  177.6300  144.0510 N   0  0  0  0  0  2  0  0  0  0  0  0
  194.1910  177.1660  146.4420 C   0  0  0  0  0  1  0  0  0  0  0  0
  194.1470  175.8660  145.6600 C   0  0  1  0  0  0  0  0  0  0  0  0
  195.1620  173.8520  145.3880 C   0  0  1  0  0  3  0  0  0  0  0  0
  192.7500  175.2180  145.8720 C   0  0  2  0  0  3  0  0  0  0  0  0
  187.6850  175.5100  142.9640 O   0  0  0  0  0  1  0  0  0  0  0  0
  191.7040  175.0870  143.7130 C   0  0  1  0  0  3  0  0  0  0  0  0
  193.9270  173.0380  145.7410 C   0  0  0  0  0  2  0  0  0  0  0  0
  195.1700  175.0310  146.1500 O   0  0  0  0  0  0  0  0  0  0  0  0
  188.5760  176.3140  142.2510 C   0  0  2  0  0  3  0  0  0  0  0  0
  190.3470  175.9820  145.7110 C   0  0  0  0  0  0  0  0  0  0  0  0
  190.0950  173.4600  143.2880 C   0  0  0  0  0  0  0  0  0  0  0  0
  196.4030  173.0420  145.6950 C   0  0  0  0  0  1  0  0  0  0  0  0
  189.9080  175.5970  141.9860 C   0  0  0  0  0  2  0  0  0  0  0  0
  190.0220  175.1530  146.7960 C   0  0  0  0  0  3  0  0  0  0  0  0
  188.0910  176.8710  145.8000 C   0  0  0  0  0  3  0  0  0  0  0  0
  187.8240  176.0410  146.8880 C   0  0  0  0  0  3  0  0  0  0  0  0
  188.7290  177.6860  142.9150 C   0  0  0  0  0  2  0  0  0  0  0  0
  192.2940  173.7220  144.1010 C   0  0  1  0  0  3  0  0  0  0  0  0
  190.3860  174.8390  143.1440 N   0  0  0  0  0  0  0  0  0  0  0  0
  192.6890  173.7920  145.5060 N   0  0  2  0  0  0  0  0  0  0  0  0
  191.6610  171.5880  143.0000 C   0  0  0  0  0  1  0  0  0  0  0  0
  191.6940  175.9050  145.0150 C   0  0  1  0  0  3  0  0  0  0  0  0
  1 16  2  0  0  0  0
  1 21  1  0  0  0  0
  2  8  1  0  0  0  0
  3 17  2  0  0  0  0
  5 27  1  6  0  0  0
  5 24  1  0  0  0  0
  6  1  1  0  0  0  0
  8 10  1  0  0  0  0
  8 14  1  0  0  0  0
  8  7  1  1  0  0  0
  9 18  1  1  0  0  0
  9 13  1  0  0  0  0
  9 14  1  0  0  0  0
 12 24  1  0  0  0  0
 12 28  1  0  0  0  0
 15 23  1  0  0  0  0
 15 11  1  0  0  0  0
 16 20  1  0  0  0  0
 17  5  1  0  0  0  0
 19 15  1  0  0  0  0
 19 25  1  0  0  0  0
 20  4  2  0  0  0  0
 21 22  2  0  0  0  0
 22  4  1  0  0  0  0
 23  6  1  0  0  0  0
 24 26  1  0  0  0  0
 25 17  1  0  0  0  0
 25 12  1  0  0  0  0
 26 13  1  0  0  0  0
 26 10  1  0  0  0  0
 28 16  1  0  0  0  0
 28 10  1  0  0  0  0
M  END
>  <MODEL>
4

>  <REMARK>
 VINA RESULT:      -7.5      2.622      5.980
  Name = 
  0 active torsions:
  status: ('A' for Active; 'I' for Inactive)
                            x       y       z     vdW  Elec       q    Type
                         _______ _______ _______ _____ _____    ______ ____

>  <TORSDO>
F 0

$$$$
=
 OpenBabel11112417393D

 28 32  0  0  1  0  0  0  0  0999 V2000
  190.2630  176.3910  145.1480 C   0  0  0  0  0  0  0  0  0  0  0  0
  185.2950  176.8200  143.9050 F   0  0  0  0  0  0  0  0  0  0  0  0
  190.3760  173.8090  141.3950 O   0  0  0  0  0  0  0  0  0  0  0  0
  191.5690  178.1950  143.5130 N   0  0  0  0  0  0  0  0  0  0  0  0
  188.6140  175.3660  140.8460 C   0  0  2  0  0  3  0  0  0  0  0  0
  189.6010  175.3960  145.9310 N   0  0  0  0  0  2  0  0  0  0  0  0
  185.9410  178.8750  144.8440 C   0  0  0  0  0  1  0  0  0  0  0  0
  185.9090  178.0270  143.5870 C   0  0  1  0  0  0  0  0  0  0  0  0
  185.0780  177.9030  141.4760 C   0  0  1  0  0  3  0  0  0  0  0  0
  187.3720  177.8170  143.1030 C   0  0  2  0  0  3  0  0  0  0  0  0
  191.3980  173.6940  144.0980 O   0  0  0  0  0  1  0  0  0  0  0  0
  187.8010  175.4550  143.1720 C   0  0  1  0  0  3  0  0  0  0  0  0
  186.4420  177.8610  140.8040 C   0  0  0  0  0  2  0  0  0  0  0  0
  185.1520  178.7150  142.6180 O   0  0  0  0  0  0  0  0  0  0  0  0
  190.2670  173.2980  144.8140 C   0  0  2  0  0  3  0  0  0  0  0  0
  189.5460  177.0740  144.1540 C   0  0  0  0  0  0  0  0  0  0  0  0
  189.3980  174.5130  141.7650 C   0  0  0  0  0  0  0  0  0  0  0  0
  184.0600  178.4750  140.5130 C   0  0  0  0  0  1  0  0  0  0  0  0
  188.9970  173.3490  143.9520 C   0  0  0  0  0  2  0  0  0  0  0  0
  190.2400  177.9770  143.3330 C   0  0  0  0  0  3  0  0  0  0  0  0
  191.6340  176.6190  145.3030 C   0  0  0  0  0  3  0  0  0  0  0  0
  192.2730  177.5400  144.4740 C   0  0  0  0  0  3  0  0  0  0  0  0
  190.1550  174.0660  146.1340 C   0  0  0  0  0  2  0  0  0  0  0  0
  187.4870  175.8960  141.7340 C   0  0  1  0  0  3  0  0  0  0  0  0
  188.9340  174.5410  143.1030 N   0  0  0  0  0  0  0  0  0  0  0  0
  187.4830  177.3560  141.7080 N   0  0  2  0  0  0  0  0  0  0  0  0
  188.0200  174.5300  139.7290 C   0  0  0  0  0  1  0  0  0  0  0  0
  188.0770  176.7580  143.9400 C   0  0  1  0  0  3  0  0  0  0  0  0
  1 21  1  0  0  0  0
  1  6  1  0  0  0  0
  3 17  2  0  0  0  0
  4 22  1  0  0  0  0
  5 27  1  6  0  0  0
  5 24  1  0  0  0  0
  5 17  1  0  0  0  0
  6 23  1  0  0  0  0
  8  2  1  0  0  0  0
  8  7  1  1  0  0  0
  9 18  1  6  0  0  0
  9 14  1  0  0  0  0
 10  8  1  0  0  0  0
 10 28  1  0  0  0  0
 11 15  1  0  0  0  0
 12 28  1  0  0  0  0
 13  9  1  0  0  0  0
 13 26  1  0  0  0  0
 14  8  1  0  0  0  0
 15 23  1  0  0  0  0
 16  1  2  0  0  0  0
 17 25  1  0  0  0  0
 19 15  1  0  0  0  0
 20  4  2  0  0  0  0
 20 16  1  0  0  0  0
 22 21  2  0  0  0  0
 24 12  1  0  0  0  0
 25 12  1  0  0  0  0
 25 19  1  0  0  0  0
 26 24  1  0  0  0  0
 26 10  1  0  0  0  0
 28 16  1  0  0  0  0
M  END
>  <MODEL>
5

>  <REMARK>
 VINA RESULT:      -7.4      2.543      4.989
  Name = 
  0 active torsions:
  status: ('A' for Active; 'I' for Inactive)
                            x       y       z     vdW  Elec       q    Type
                         _______ _______ _______ _____ _____    ______ ____

>  <TORSDO>
F 0

$$$$
=
 OpenBabel11112417393D

 28 32  0  0  1  0  0  0  0  0999 V2000
  192.6140  174.8810  142.0350 C   0  0  0  0  0  0  0  0  0  0  0  0
  189.6400  178.6130  143.9410 F   0  0  0  0  0  0  0  0  0  0  0  0
  193.4410  174.0890  146.4460 O   0  0  0  0  0  0  0  0  0  0  0  0
  191.1100  172.5750  142.2720 N   0  0  0  0  0  0  0  0  0  0  0  0
  191.1890  174.9580  146.5340 C   0  0  2  0  0  3  0  0  0  0  0  0
  193.4260  176.0550  141.9930 N   0  0  0  0  0  2  0  0  0  0  0  0
  188.5670  177.8060  142.0130 C   0  0  0  0  0  1  0  0  0  0  0  0
  188.8000  177.5980  143.4970 C   0  0  1  0  0  0  0  0  0  0  0  0
  187.7790  177.5430  145.5260 C   0  0  1  0  0  3  0  0  0  0  0  0
  189.4380  176.1940  143.6970 C   0  0  2  0  0  3  0  0  0  0  0  0
  194.9550  174.2760  143.9890 O   0  0  0  0  0  1  0  0  0  0  0  0
  191.5980  176.5420  144.6900 C   0  0  1  0  0  3  0  0  0  0  0  0
  188.1680  176.1040  145.8260 C   0  0  0  0  0  2  0  0  0  0  0  0
  187.5530  177.6820  144.1470 O   0  0  0  0  0  0  0  0  0  0  0  0
  195.0450  175.6590  143.8140 C   0  0  2  0  0  3  0  0  0  0  0  0
  191.3800  174.9210  142.7010 C   0  0  0  0  0  0  0  0  0  0  0  0
  192.5660  174.8800  146.0000 C   0  0  0  0  0  0  0  0  0  0  0  0
  186.5150  177.8910  146.2840 C   0  0  0  0  0  1  0  0  0  0  0  0
  194.1370  176.4190  144.7910 C   0  0  0  0  0  2  0  0  0  0  0  0
  190.6430  173.7310  142.8140 C   0  0  0  0  0  3  0  0  0  0  0  0
  193.0820  173.6750  141.5010 C   0  0  0  0  0  3  0  0  0  0  0  0
  192.3030  172.5250  141.6230 C   0  0  0  0  0  3  0  0  0  0  0  0
  194.8370  176.0410  142.3450 C   0  0  0  0  0  2  0  0  0  0  0  0
  190.5790  176.1300  145.7650 C   0  0  1  0  0  3  0  0  0  0  0  0
  192.8220  175.7940  144.9490 N   0  0  0  0  0  0  0  0  0  0  0  0
  189.3640  175.6930  145.0810 N   0  0  2  0  0  0  0  0  0  0  0  0
  191.2170  175.2910  148.0130 C   0  0  0  0  0  1  0  0  0  0  0  0
  190.9210  176.2140  143.3490 C   0  0  1  0  0  3  0  0  0  0  0  0
  1 16  1  0  0  0  0
  4 20  1  0  0  0  0
  5 27  1  1  0  0  0
  6  1  1  0  0  0  0
  6 23  1  0  0  0  0
  8  7  1  6  0  0  0
  8 10  1  0  0  0  0
  8  2  1  0  0  0  0
  8 14  1  0  0  0  0
  9 13  1  0  0  0  0
  9 18  1  1  0  0  0
 10 26  1  0  0  0  0
 12 25  1  0  0  0  0
 12 24  1  0  0  0  0
 14  9  1  0  0  0  0
 15 11  1  0  0  0  0
 15 19  1  0  0  0  0
 16 20  2  0  0  0  0
 16 28  1  0  0  0  0
 17  3  2  0  0  0  0
 17  5  1  0  0  0  0
 19 25  1  0  0  0  0
 21 22  1  0  0  0  0
 21  1  2  0  0  0  0
 22  4  2  0  0  0  0
 23 15  1  0  0  0  0
 24  5  1  0  0  0  0
 25 17  1  0  0  0  0
 26 24  1  0  0  0  0
 26 13  1  0  0  0  0
 28 10  1  0  0  0  0
 28 12  1  0  0  0  0
M  END
>  <MODEL>
6

>  <REMARK>
 VINA RESULT:      -7.2      1.511      1.722
  Name = 
  0 active torsions:
  status: ('A' for Active; 'I' for Inactive)
                            x       y       z     vdW  Elec       q    Type
                         _______ _______ _______ _____ _____    ______ ____

>  <TORSDO>
F 0

$$$$
=
 OpenBabel11112417393D

 28 32  0  0  1  0  0  0  0  0999 V2000
  193.7560  174.1000  144.6300 C   0  0  0  0  0  0  0  0  0  0  0  0
  189.5490  175.0930  147.4080 F   0  0  0  0  0  0  0  0  0  0  0  0
  190.6860  172.8340  141.5110 O   0  0  0  0  0  0  0  0  0  0  0  0
  194.0360  176.2760  142.9500 N   0  0  0  0  0  0  0  0  0  0  0  0
  189.4730  174.5520  142.6980 C   0  0  2  0  0  3  0  0  0  0  0  0
  193.5640  172.9350  145.4350 N   0  0  0  0  0  2  0  0  0  0  0  0
  191.1440  176.7190  147.9850 C   0  0  0  0  0  1  0  0  0  0  0  0
  190.0710  176.3130  146.9930 C   0  0  1  0  0  0  0  0  0  0  0  0
  188.0490  176.8960  146.1350 C   0  0  1  0  0  3  0  0  0  0  0  0
  190.7220  176.2110  145.5850 C   0  0  2  0  0  3  0  0  0  0  0  0
  193.1760  171.8310  142.5850 O   0  0  0  0  0  1  0  0  0  0  0  0
  190.4760  173.9330  144.8640 C   0  0  1  0  0  3  0  0  0  0  0  0
  188.5480  177.0150  144.7030 C   0  0  0  0  0  2  0  0  0  0  0  0
  189.0660  177.3020  147.0130 O   0  0  0  0  0  0  0  0  0  0  0  0
  192.7600  171.2730  143.7960 C   0  0  2  0  0  3  0  0  0  0  0  0
  192.7620  175.0900  144.6030 C   0  0  0  0  0  0  0  0  0  0  0  0
  190.4220  173.4220  142.5940 C   0  0  0  0  0  0  0  0  0  0  0  0
  186.8360  177.7820  146.3210 C   0  0  0  0  0  1  0  0  0  0  0  0
  191.3070  171.6440  144.1280 C   0  0  0  0  0  2  0  0  0  0  0  0
  192.9280  176.1780  143.7320 C   0  0  0  0  0  3  0  0  0  0  0  0
  194.8790  174.2140  143.8040 C   0  0  0  0  0  3  0  0  0  0  0  0
  195.0060  175.3240  142.9700 C   0  0  0  0  0  3  0  0  0  0  0  0
  193.7540  171.5890  144.9170 C   0  0  0  0  0  2  0  0  0  0  0  0
  189.4070  174.8170  144.2030 C   0  0  1  0  0  3  0  0  0  0  0  0
  190.9960  173.0440  143.8320 N   0  0  0  0  0  0  0  0  0  0  0  0
  189.7540  176.2100  144.4740 N   0  0  2  0  0  0  0  0  0  0  0  0
  188.1020  174.1350  142.2030 C   0  0  0  0  0  1  0  0  0  0  0  0
  191.5090  174.9140  145.4410 C   0  0  1  0  0  3  0  0  0  0  0  0
  1  6  1  0  0  0  0
  3 17  2  0  0  0  0
  4 22  2  0  0  0  0
  4 20  1  0  0  0  0
  5 27  1  1  0  0  0
  5 24  1  0  0  0  0
  8 14  1  0  0  0  0
  8  2  1  0  0  0  0
  8  7  1  1  0  0  0
  9 18  1  6  0  0  0
  9 14  1  0  0  0  0
 10  8  1  0  0  0  0
 11 15  1  0  0  0  0
 12 28  1  0  0  0  0
 13  9  1  0  0  0  0
 15 19  1  0  0  0  0
 15 23  1  0  0  0  0
 16  1  1  0  0  0  0
 16 28  1  0  0  0  0
 17  5  1  0  0  0  0
 17 25  1  0  0  0  0
 20 16  2  0  0  0  0
 21  1  2  0  0  0  0
 22 21  1  0  0  0  0
 23  6  1  0  0  0  0
 24 26  1  0  0  0  0
 24 12  1  0  0  0  0
 25 19  1  0  0  0  0
 25 12  1  0  0  0  0
 26 13  1  0  0  0  0
 26 10  1  0  0  0  0
 28 10  1  0  0  0  0
M  END
>  <MODEL>
7

>  <REMARK>
 VINA RESULT:      -7.2      2.216      4.301
  Name = 
  0 active torsions:
  status: ('A' for Active; 'I' for Inactive)
                            x       y       z     vdW  Elec       q    Type
                         _______ _______ _______ _____ _____    ______ ____

>  <TORSDO>
F 0

$$$$
=
 OpenBabel11112417393D

 28 32  0  0  1  0  0  0  0  0999 V2000
  187.0510  176.7670  143.7260 C   0  0  0  0  0  0  0  0  0  0  0  0
  189.3170  172.3030  144.8860 F   0  0  0  0  0  0  0  0  0  0  0  0
  189.6090  178.2910  147.1760 O   0  0  0  0  0  0  0  0  0  0  0  0
  188.9100  178.1420  142.2130 N   0  0  0  0  0  0  0  0  0  0  0  0
  190.9880  176.5040  146.3170 C   0  0  2  0  0  3  0  0  0  0  0  0
  186.1240  176.0960  144.5810 N   0  0  0  0  0  2  0  0  0  0  0  0
  189.0210  172.3300  142.5550 C   0  0  0  0  0  1  0  0  0  0  0  0
  189.8970  172.7720  143.7130 C   0  0  1  0  0  0  0  0  0  0  0  0
  191.9610  172.5590  144.6380 C   0  0  1  0  0  3  0  0  0  0  0  0
  189.9840  174.3240  143.6930 C   0  0  2  0  0  3  0  0  0  0  0  0
  186.8820  178.5690  146.2540 O   0  0  0  0  0  1  0  0  0  0  0  0
  189.0360  175.1030  145.7590 C   0  0  1  0  0  3  0  0  0  0  0  0
  192.2980  174.0390  144.5420 C   0  0  0  0  0  2  0  0  0  0  0  0
  191.1700  172.1930  143.5370 O   0  0  0  0  0  0  0  0  0  0  0  0
  186.3110  177.3710  146.6880 C   0  0  2  0  0  3  0  0  0  0  0  0
  188.3380  176.2350  143.5530 C   0  0  0  0  0  0  0  0  0  0  0  0
  189.6990  177.1480  146.6540 C   0  0  0  0  0  0  0  0  0  0  0  0
  193.2410  171.7500  144.6320 C   0  0  0  0  0  1  0  0  0  0  0  0
  187.3710  176.3820  147.1950 C   0  0  0  0  0  2  0  0  0  0  0  0
  189.2630  176.9620  142.7870 C   0  0  0  0  0  3  0  0  0  0  0  0
  186.7160  177.9920  143.1400 C   0  0  0  0  0  3  0  0  0  0  0  0
  187.6650  178.6660  142.3720 C   0  0  0  0  0  3  0  0  0  0  0  0
  185.3780  176.7890  145.6210 C   0  0  0  0  0  2  0  0  0  0  0  0
  190.5710  175.1110  145.8420 C   0  0  1  0  0  3  0  0  0  0  0  0
  188.5680  176.3500  146.3520 N   0  0  0  0  0  0  0  0  0  0  0  0
  191.0900  174.8730  144.4970 N   0  0  2  0  0  0  0  0  0  0  0  0
  191.8490  176.3710  147.5590 C   0  0  0  0  0  1  0  0  0  0  0  0
  188.7170  174.9480  144.2630 C   0  0  1  0  0  3  0  0  0  0  0  0
  1  6  1  0  0  0  0
  4 22  2  0  0  0  0
  4 20  1  0  0  0  0
  5 17  1  0  0  0  0
  5 27  1  1  0  0  0
  6 23  1  0  0  0  0
  8  7  1  6  0  0  0
  8  2  1  0  0  0  0
  9 18  1  6  0  0  0
 10  8  1  0  0  0  0
 10 28  1  0  0  0  0
 10 26  1  0  0  0  0
 11 15  1  0  0  0  0
 12 24  1  0  0  0  0
 12 25  1  0  0  0  0
 13  9  1  0  0  0  0
 14  8  1  0  0  0  0
 14  9  1  0  0  0  0
 15 19  1  0  0  0  0
 16  1  1  0  0  0  0
 16 28  1  0  0  0  0
 17  3  2  0  0  0  0
 20 16  2  0  0  0  0
 21  1  2  0  0  0  0
 22 21  1  0  0  0  0
 23 15  1  0  0  0  0
 24  5  1  0  0  0  0
 25 17  1  0  0  0  0
 25 19  1  0  0  0  0
 26 13  1  0  0  0  0
 26 24  1  0  0  0  0
 28 12  1  0  0  0  0
M  END
>  <MODEL>
8

>  <REMARK>
 VINA RESULT:      -7.0      2.272      5.644
  Name = 
  0 active torsions:
  status: ('A' for Active; 'I' for Inactive)
                            x       y       z     vdW  Elec       q    Type
                         _______ _______ _______ _____ _____    ______ ____

>  <TORSDO>
F 0

$$$$
=
 OpenBabel11112417393D

 28 32  0  0  1  0  0  0  0  0999 V2000
  186.3000  176.9150  143.8720 C   0  0  0  0  0  0  0  0  0  0  0  0
  188.9870  172.5620  143.3820 F   0  0  0  0  0  0  0  0  0  0  0  0
  189.8770  178.1480  146.4120 O   0  0  0  0  0  0  0  0  0  0  0  0
  187.4370  178.6660  142.0620 N   0  0  0  0  0  0  0  0  0  0  0  0
  190.9140  176.6450  144.8320 C   0  0  2  0  0  3  0  0  0  0  0  0
  185.7690  176.0410  144.8700 N   0  0  0  0  0  2  0  0  0  0  0  0
  187.8680  172.9040  141.3440 C   0  0  0  0  0  1  0  0  0  0  0  0
  189.0870  173.2500  142.1780 C   0  0  1  0  0  0  0  0  0  0  0  0
  191.3520  173.0990  142.2690 C   0  0  1  0  0  3  0  0  0  0  0  0
  189.1070  174.7890  142.3950 C   0  0  2  0  0  3  0  0  0  0  0  0
  186.9930  178.3010  146.5670 O   0  0  0  0  0  1  0  0  0  0  0  0
  188.9430  175.1640  144.7620 C   0  0  1  0  0  3  0  0  0  0  0  0
  191.5790  174.6020  142.3160 C   0  0  0  0  0  2  0  0  0  0  0  0
  190.2300  172.8270  141.4710 O   0  0  0  0  0  0  0  0  0  0  0  0
  186.6600  177.0040  146.9610 C   0  0  2  0  0  3  0  0  0  0  0  0
  187.4550  176.5370  143.1710 C   0  0  0  0  0  0  0  0  0  0  0  0
  189.8120  177.1080  145.7030 C   0  0  0  0  0  0  0  0  0  0  0  0
  192.5710  172.4240  141.6770 C   0  0  0  0  0  1  0  0  0  0  0  0
  187.8660  176.0550  146.8880 C   0  0  0  0  0  2  0  0  0  0  0  0
  188.0150  177.4530  142.2650 C   0  0  0  0  0  3  0  0  0  0  0  0
  185.7330  178.1760  143.6590 C   0  0  0  0  0  3  0  0  0  0  0  0
  186.3160  179.0410  142.7340 C   0  0  0  0  0  3  0  0  0  0  0  0
  185.4260  176.5000  146.2070 C   0  0  0  0  0  2  0  0  0  0  0  0
  190.4030  175.3040  144.3020 C   0  0  1  0  0  3  0  0  0  0  0  0
  188.6770  176.2600  145.6860 N   0  0  0  0  0  0  0  0  0  0  0  0
  190.4090  175.3160  142.8410 N   0  0  2  0  0  0  0  0  0  0  0  0
  192.1690  176.4130  145.6500 C   0  0  0  0  0  1  0  0  0  0  0  0
  188.1100  175.2010  143.4710 C   0  0  1  0  0  3  0  0  0  0  0  0
  1  6  1  0  0  0  0
  4 20  2  0  0  0  0
  4 22  1  0  0  0  0
  5 27  1  1  0  0  0
  5 17  1  0  0  0  0
  6 23  1  0  0  0  0
  8  7  1  6  0  0  0
  8 10  1  0  0  0  0
  8  2  1  0  0  0  0
  9 18  1  6  0  0  0
  9 13  1  0  0  0  0
 10 26  1  0  0  0  0
 10 28  1  0  0  0  0
 11 15  1  0  0  0  0
 12 25  1  0  0  0  0
 13 26  1  0  0  0  0
 14  8  1  0  0  0  0
 14  9  1  0  0  0  0
 16 28  1  0  0  0  0
 16  1  2  0  0  0  0
 17  3  2  0  0  0  0
 19 15  1  0  0  0  0
 20 16  1  0  0  0  0
 21  1  1  0  0  0  0
 22 21  2  0  0  0  0
 23 15  1  0  0  0  0
 24 12  1  0  0  0  0
 24  5  1  0  0  0  0
 25 17  1  0  0  0  0
 25 19  1  0  0  0  0
 26 24  1  0  0  0  0
 28 12  1  0  0  0  0
M  END
>  <MODEL>
9

>  <REMARK>
 VINA RESULT:      -6.7      2.471      5.904
  Name = 
  0 active torsions:
  status: ('A' for Active; 'I' for Inactive)
                            x       y       z     vdW  Elec       q    Type
                         _______ _______ _______ _____ _____    ______ ____

>  <TORSDO>
F 0

$$$$
