=
 OpenBabel11112417013D

 31 35  0  0  1  0  0  0  0  0999 V2000
  190.0490  172.3300  142.4860 C   0  0  0  0  0  0  0  0  0  0  0  0
  191.6850  174.1250  145.4450 C   0  0  2  0  0  3  0  0  0  0  0  0
  193.1620  174.4190  145.2260 C   0  0  0  0  0  0  0  0  0  0  0  0
  195.3000  173.8790  144.1840 C   0  0  0  0  0  0  0  0  0  0  0  0
  190.9650  173.8430  144.1540 C   0  0  0  0  0  0  0  0  0  0  0  0
  189.7250  173.4570  141.5410 C   0  0  0  0  0  2  0  0  0  0  0  0
  193.8530  173.6880  144.3370 C   0  0  0  0  0  3  0  0  0  0  0  0
  190.2180  176.3240  145.4210 C   0  0  2  0  0  3  0  0  0  0  0  0
  189.7630  171.1480  142.1630 O   0  0  0  0  0  0  0  0  0  0  0  0
  193.0620  176.4270  146.7590 C   0  0  0  0  0  2  0  0  0  0  0  0
  195.9660  173.1120  143.4430 O   0  0  0  0  0  0  0  0  0  0  0  0
  190.6350  176.3520  143.9420 C   0  0  0  0  0  2  0  0  0  0  0  0
  190.9410  175.2330  146.2450 C   0  0  2  0  0  3  0  0  0  0  0  0
  190.7410  172.5900  143.7560 C   0  0  0  0  0  3  0  0  0  0  0  0
  195.9330  174.9040  144.8890 O   0  0  0  0  0  0  0  0  0  0  0  0
  190.4960  174.9880  143.3510 C   0  0  0  0  0  0  0  0  0  0  0  0
  189.9010  174.8170  142.1680 C   0  0  0  0  0  3  0  0  0  0  0  0
  191.7900  175.8490  147.3510 C   0  0  0  0  0  2  0  0  0  0  0  0
  193.9250  175.3080  146.1970 C   0  0  2  0  0  3  0  0  0  0  0  0
  195.1660  175.9150  145.5380 C   0  0  0  0  0  2  0  0  0  0  0  0
  188.1660  178.2030  144.6860 O   0  0  0  0  0  0  0  0  0  0  0  0
  187.8140  177.0480  145.0470 C   0  0  0  0  0  0  0  0  0  0  0  0
  188.7820  176.1100  145.5230 N   0  0  0  0  0  2  0  0  0  0  0  0
  184.6460  179.0590  144.6840 C   0  0  1  0  0  3  0  0  0  0  0  0
  185.8200  177.0990  143.5630 C   0  0  0  0  0  2  0  0  0  0  0  0
  186.1040  176.7590  147.4600 C   0  0  0  0  0  1  0  0  0  0  0  0
  185.4350  180.2140  144.0960 C   0  0  0  0  0  1  0  0  0  0  0  0
  184.5250  177.9120  143.6710 C   0  0  0  0  0  2  0  0  0  0  0  0
  185.5190  177.1360  146.1090 C   0  0  2  0  0  3  0  0  0  0  0  0
  186.3750  176.6430  144.9250 C   0  0  2  0  0  3  0  0  0  0  0  0
  185.2620  178.6400  146.0270 C   0  0  0  0  0  2  0  0  0  0  0  0
  1 14  1  0  0  0  0
  2  5  1  6  0  0  0
  2 13  1  0  0  0  0
  3  2  1  0  0  0  0
  3 19  1  0  0  0  0
  4  7  1  0  0  0  0
  4 15  1  0  0  0  0
  6 17  1  0  0  0  0
  6  1  1  0  0  0  0
  7  3  2  0  0  0  0
  8 23  1  6  0  0  0
  8 13  1  0  0  0  0
  9  1  2  0  0  0  0
 10 18  1  0  0  0  0
 11  4  2  0  0  0  0
 12  8  1  0  0  0  0
 13 18  1  1  0  0  0
 14  5  2  0  0  0  0
 15 20  1  0  0  0  0
 16 12  1  0  0  0  0
 16  5  1  0  0  0  0
 17 16  2  0  0  0  0
 19 20  1  6  0  0  0
 19 10  1  0  0  0  0
 21 22  2  0  0  0  0
 22 23  1  0  0  0  0
 24 27  1  6  0  0  0
 24 31  1  0  0  0  0
 25 28  1  0  0  0  0
 25 30  1  0  0  0  0
 28 24  1  0  0  0  0
 29 26  1  1  0  0  0
 30 22  1  1  0  0  0
 30 29  1  0  0  0  0
 31 29  1  0  0  0  0
M  END
>  <MODEL>
1

>  <REMARK>
 VINA RESULT:      -9.0      0.000      0.000
  Name = 
  2 active torsions:
  status: ('A' for Active; 'I' for Inactive)
    1  A    between atoms: C_5  and  C_30
    2  A    between atoms: C_10  and  N_16
                            x       y       z     vdW  Elec       q    Type
                         _______ _______ _______ _____ _____    ______ ____

>  <TORSDO>
F 2

$$$$
=
 OpenBabel11112417013D

 31 35  0  0  1  0  0  0  0  0999 V2000
  189.2060  175.1380  147.2640 C   0  0  0  0  0  0  0  0  0  0  0  0
  187.4710  176.4260  144.1040 C   0  0  2  0  0  3  0  0  0  0  0  0
  186.5280  177.5910  144.3700 C   0  0  0  0  0  0  0  0  0  0  0  0
  185.0370  178.8140  145.8620 C   0  0  0  0  0  0  0  0  0  0  0  0
  188.4560  176.2280  145.2230 C   0  0  0  0  0  0  0  0  0  0  0  0
  190.3620  176.0880  147.4280 C   0  0  0  0  0  2  0  0  0  0  0  0
  186.0300  177.7650  145.6040 C   0  0  0  0  0  3  0  0  0  0  0  0
  189.6210  177.1730  142.7600 C   0  0  2  0  0  3  0  0  0  0  0  0
  189.0390  174.2110  148.0990 O   0  0  0  0  0  0  0  0  0  0  0  0
  186.8590  178.4860  142.0280 C   0  0  0  0  0  2  0  0  0  0  0  0
  184.4800  178.8970  146.9870 O   0  0  0  0  0  0  0  0  0  0  0  0
  189.9270  177.9390  144.0570 C   0  0  0  0  0  2  0  0  0  0  0  0
  188.2170  176.5270  142.7420 C   0  0  2  0  0  3  0  0  0  0  0  0
  188.2410  175.3110  146.1680 C   0  0  0  0  0  3  0  0  0  0  0  0
  184.6990  179.7020  144.8410 O   0  0  0  0  0  0  0  0  0  0  0  0
  189.6760  177.0560  145.2350 C   0  0  0  0  0  0  0  0  0  0  0  0
  190.5670  176.9760  146.2270 C   0  0  0  0  0  3  0  0  0  0  0  0
  187.3560  177.1090  141.6270 C   0  0  0  0  0  2  0  0  0  0  0  0
  185.9140  178.3680  143.2140 C   0  0  2  0  0  3  0  0  0  0  0  0
  185.4830  179.7700  143.6520 C   0  0  0  0  0  2  0  0  0  0  0  0
  192.4760  177.5360  142.7340 O   0  0  0  0  0  0  0  0  0  0  0  0
  192.0250  176.3620  142.6550 C   0  0  0  0  0  0  0  0  0  0  0  0
  190.6170  176.1310  142.5580 N   0  0  0  0  0  2  0  0  0  0  0  0
  191.7010  172.9170  144.1530 C   0  0  1  0  0  3  0  0  0  0  0  0
  192.3780  174.0040  141.9530 C   0  0  0  0  0  2  0  0  0  0  0  0
  193.8830  176.0360  144.9500 C   0  0  0  0  0  1  0  0  0  0  0  0
  190.1910  172.9980  144.0360 C   0  0  0  0  0  1  0  0  0  0  0  0
  192.3420  172.7090  142.7740 C   0  0  0  0  0  2  0  0  0  0  0  0
  193.3720  174.8410  144.1630 C   0  0  2  0  0  3  0  0  0  0  0  0
  192.9720  175.2000  142.7180 C   0  0  2  0  0  3  0  0  0  0  0  0
  192.2300  174.1480  144.9050 C   0  0  0  0  0  2  0  0  0  0  0  0
  1  6  1  0  0  0  0
  1  9  2  0  0  0  0
  2  3  1  1  0  0  0
  2  5  1  0  0  0  0
  3  7  2  0  0  0  0
  4 11  2  0  0  0  0
  5 16  1  0  0  0  0
  5 14  2  0  0  0  0
  7  4  1  0  0  0  0
  8 23  1  1  0  0  0
  8 12  1  0  0  0  0
 12 16  1  0  0  0  0
 13 18  1  6  0  0  0
 13  8  1  0  0  0  0
 13  2  1  0  0  0  0
 14  1  1  0  0  0  0
 15  4  1  0  0  0  0
 16 17  2  0  0  0  0
 17  6  1  0  0  0  0
 18 10  1  0  0  0  0
 19 10  1  6  0  0  0
 19 20  1  0  0  0  0
 19  3  1  0  0  0  0
 20 15  1  0  0  0  0
 22 21  2  0  0  0  0
 23 22  1  0  0  0  0
 24 27  1  6  0  0  0
 24 31  1  0  0  0  0
 25 30  1  0  0  0  0
 25 28  1  0  0  0  0
 28 24  1  0  0  0  0
 29 31  1  0  0  0  0
 29 26  1  1  0  0  0
 30 22  1  1  0  0  0
 30 29  1  0  0  0  0
M  END
>  <MODEL>
2

>  <REMARK>
 VINA RESULT:      -8.7      2.458      7.557
  Name = 
  2 active torsions:
  status: ('A' for Active; 'I' for Inactive)
    1  A    between atoms: C_5  and  C_30
    2  A    between atoms: C_10  and  N_16
                            x       y       z     vdW  Elec       q    Type
                         _______ _______ _______ _____ _____    ______ ____

>  <TORSDO>
F 2

$$$$
=
 OpenBabel11112417013D

 31 35  0  0  1  0  0  0  0  0999 V2000
  190.6360  175.6300  147.2590 C   0  0  0  0  0  0  0  0  0  0  0  0
  187.7700  176.0010  144.7500 C   0  0  2  0  0  3  0  0  0  0  0  0
  186.9290  177.2480  144.9800 C   0  0  0  0  0  0  0  0  0  0  0  0
  186.0380  178.9590  146.4710 C   0  0  0  0  0  0  0  0  0  0  0  0
  189.1130  176.0910  145.4210 C   0  0  0  0  0  0  0  0  0  0  0  0
  191.7120  176.5100  146.6800 C   0  0  0  0  0  2  0  0  0  0  0  0
  186.9210  177.8210  146.1930 C   0  0  0  0  0  3  0  0  0  0  0  0
  189.2110  176.1660  142.5400 C   0  0  2  0  0  3  0  0  0  0  0  0
  190.8500  175.0140  148.3360 O   0  0  0  0  0  0  0  0  0  0  0  0
  186.3030  177.3650  142.5330 C   0  0  0  0  0  2  0  0  0  0  0  0
  185.9390  179.4160  147.6390 O   0  0  0  0  0  0  0  0  0  0  0  0
  189.9350  177.2690  143.3270 C   0  0  0  0  0  2  0  0  0  0  0  0
  187.9430  175.6350  143.2470 C   0  0  2  0  0  3  0  0  0  0  0  0
  189.3230  175.5220  146.6090 C   0  0  0  0  0  3  0  0  0  0  0  0
  185.2890  179.5130  145.4330 O   0  0  0  0  0  0  0  0  0  0  0  0
  190.1980  176.8060  144.7220 C   0  0  0  0  0  0  0  0  0  0  0  0
  191.3990  176.9750  145.2810 C   0  0  0  0  0  3  0  0  0  0  0  0
  186.6940  175.9020  142.4150 C   0  0  0  0  0  2  0  0  0  0  0  0
  185.8810  177.6730  143.9600 C   0  0  2  0  0  3  0  0  0  0  0  0
  185.5640  179.1660  144.0780 C   0  0  0  0  0  2  0  0  0  0  0  0
  189.1240  174.3420  140.3150 O   0  0  0  0  0  0  0  0  0  0  0  0
  190.0810  174.2420  141.1300 C   0  0  0  0  0  0  0  0  0  0  0  0
  190.1180  175.0510  142.3080 N   0  0  0  0  0  2  0  0  0  0  0  0
  190.5920  171.6940  138.3990 C   0  0  1  0  0  3  0  0  0  0  0  0
  191.8250  173.6510  139.4610 C   0  0  0  0  0  2  0  0  0  0  0  0
  190.1160  171.4920  142.2530 C   0  0  0  0  0  1  0  0  0  0  0  0
  189.6230  172.4450  137.5050 C   0  0  0  0  0  1  0  0  0  0  0  0
  191.9230  172.4510  138.5120 C   0  0  0  0  0  2  0  0  0  0  0  0
  190.7970  171.8230  140.9350 C   0  0  2  0  0  3  0  0  0  0  0  0
  191.2120  173.3040  140.8300 C   0  0  2  0  0  3  0  0  0  0  0  0
  189.9280  171.3990  139.7520 C   0  0  0  0  0  2  0  0  0  0  0  0
  1  9  2  0  0  0  0
  2  3  1  6  0  0  0
  2  5  1  0  0  0  0
  3  7  2  0  0  0  0
  4 11  2  0  0  0  0
  5 14  2  0  0  0  0
  6  1  1  0  0  0  0
  7  4  1  0  0  0  0
  8 23  1  1  0  0  0
  8 13  1  0  0  0  0
  8 12  1  0  0  0  0
 12 16  1  0  0  0  0
 13 18  1  6  0  0  0
 13  2  1  0  0  0  0
 14  1  1  0  0  0  0
 15  4  1  0  0  0  0
 16 17  2  0  0  0  0
 16  5  1  0  0  0  0
 17  6  1  0  0  0  0
 18 10  1  0  0  0  0
 19 10  1  6  0  0  0
 19 20  1  0  0  0  0
 19  3  1  0  0  0  0
 20 15  1  0  0  0  0
 21 22  2  0  0  0  0
 22 23  1  0  0  0  0
 24 27  1  6  0  0  0
 24 28  1  0  0  0  0
 24 31  1  0  0  0  0
 25 30  1  0  0  0  0
 28 25  1  0  0  0  0
 29 26  1  1  0  0  0
 30 29  1  0  0  0  0
 30 22  1  6  0  0  0
 31 29  1  0  0  0  0
M  END
>  <MODEL>
3

>  <REMARK>
 VINA RESULT:      -8.1      2.826      7.764
  Name = 
  2 active torsions:
  status: ('A' for Active; 'I' for Inactive)
    1  A    between atoms: C_5  and  C_30
    2  A    between atoms: C_10  and  N_16
                            x       y       z     vdW  Elec       q    Type
                         _______ _______ _______ _____ _____    ______ ____

>  <TORSDO>
F 2

$$$$
=
 OpenBabel11112417013D

 31 35  0  0  1  0  0  0  0  0999 V2000
  186.3650  177.0400  147.3720 C   0  0  0  0  0  0  0  0  0  0  0  0
  186.7780  176.0520  143.6970 C   0  0  2  0  0  3  0  0  0  0  0  0
  185.9850  176.9370  142.7460 C   0  0  0  0  0  0  0  0  0  0  0  0
  184.0790  178.3890  142.2920 C   0  0  0  0  0  0  0  0  0  0  0  0
  186.9710  176.6970  145.0430 C   0  0  0  0  0  0  0  0  0  0  0  0
  187.3510  178.1660  147.5350 C   0  0  0  0  0  2  0  0  0  0  0  0
  184.9240  177.6140  143.2090 C   0  0  0  0  0  3  0  0  0  0  0  0
  189.3840  176.4450  143.4820 C   0  0  2  0  0  3  0  0  0  0  0  0
  185.6670  176.6790  148.3550 O   0  0  0  0  0  0  0  0  0  0  0  0
  187.6310  176.5200  140.8720 C   0  0  0  0  0  2  0  0  0  0  0  0
  183.0170  178.9210  142.7040 O   0  0  0  0  0  0  0  0  0  0  0  0
  189.0270  177.8220  144.0630 C   0  0  0  0  0  2  0  0  0  0  0  0
  188.1480  175.5900  143.1210 C   0  0  2  0  0  3  0  0  0  0  0  0
  186.1740  176.3910  146.0670 C   0  0  0  0  0  3  0  0  0  0  0  0
  184.4530  178.5070  140.9530 O   0  0  0  0  0  0  0  0  0  0  0  0
  188.0780  177.6590  145.2050 C   0  0  0  0  0  0  0  0  0  0  0  0
  188.2750  178.3130  146.3530 C   0  0  0  0  0  3  0  0  0  0  0  0
  188.1020  175.2900  141.6270 C   0  0  0  0  0  2  0  0  0  0  0  0
  186.1890  176.8310  141.2410 C   0  0  2  0  0  3  0  0  0  0  0  0
  185.7570  178.1160  140.5300 C   0  0  0  0  0  2  0  0  0  0  0  0
  192.2570  176.4800  143.6380 O   0  0  0  0  0  0  0  0  0  0  0  0
  191.6210  175.8450  144.5220 C   0  0  0  0  0  0  0  0  0  0  0  0
  190.2000  175.7070  144.4340 N   0  0  0  0  0  2  0  0  0  0  0  0
  195.2890  175.2530  145.1580 C   0  0  1  0  0  3  0  0  0  0  0  0
  193.2910  176.3490  146.2920 C   0  0  0  0  0  2  0  0  0  0  0  0
  192.1990  172.9370  144.6980 C   0  0  0  0  0  1  0  0  0  0  0  0
  195.6470  176.3300  144.1510 C   0  0  0  0  0  1  0  0  0  0  0  0
  194.7420  175.8780  146.4500 C   0  0  0  0  0  2  0  0  0  0  0  0
  193.0970  173.9700  145.3590 C   0  0  2  0  0  3  0  0  0  0  0  0
  192.3580  175.2790  145.6990 C   0  0  2  0  0  3  0  0  0  0  0  0
  194.3410  174.2320  144.5110 C   0  0  0  0  0  2  0  0  0  0  0  0
  1  6  1  0  0  0  0
  1  9  2  0  0  0  0
  2  3  1  6  0  0  0
  2  5  1  0  0  0  0
  3  7  2  0  0  0  0
  4 11  2  0  0  0  0
  4  7  1  0  0  0  0
  5 16  1  0  0  0  0
  5 14  2  0  0  0  0
  8 12  1  0  0  0  0
  8 23  1  1  0  0  0
 10 19  1  0  0  0  0
 10 18  1  0  0  0  0
 12 16  1  0  0  0  0
 13 18  1  6  0  0  0
 13  8  1  0  0  0  0
 13  2  1  0  0  0  0
 14  1  1  0  0  0  0
 15  4  1  0  0  0  0
 16 17  2  0  0  0  0
 17  6  1  0  0  0  0
 19 20  1  6  0  0  0
 19  3  1  0  0  0  0
 20 15  1  0  0  0  0
 21 22  2  0  0  0  0
 23 22  1  0  0  0  0
 24 27  1  6  0  0  0
 24 28  1  0  0  0  0
 25 28  1  0  0  0  0
 29 26  1  6  0  0  0
 29 30  1  0  0  0  0
 30 22  1  6  0  0  0
 30 25  1  0  0  0  0
 31 24  1  0  0  0  0
 31 29  1  0  0  0  0
M  END
>  <MODEL>
4

>  <REMARK>
 VINA RESULT:      -8.0      2.337      8.245
  Name = 
  2 active torsions:
  status: ('A' for Active; 'I' for Inactive)
    1  A    between atoms: C_5  and  C_30
    2  A    between atoms: C_10  and  N_16
                            x       y       z     vdW  Elec       q    Type
                         _______ _______ _______ _____ _____    ______ ____

>  <TORSDO>
F 2

$$$$
=
 OpenBabel11112417013D

 31 35  0  0  1  0  0  0  0  0999 V2000
  188.5970  174.1530  140.7740 C   0  0  0  0  0  0  0  0  0  0  0  0
  189.6360  176.2260  143.8200 C   0  0  2  0  0  3  0  0  0  0  0  0
  188.4550  176.7020  144.6540 C   0  0  0  0  0  0  0  0  0  0  0  0
  186.1100  177.3450  144.8340 C   0  0  0  0  0  0  0  0  0  0  0  0
  189.2690  175.0780  142.9210 C   0  0  0  0  0  0  0  0  0  0  0  0
  188.3990  172.7770  141.3510 C   0  0  0  0  0  2  0  0  0  0  0  0
  187.2420  176.7890  144.0850 C   0  0  0  0  0  3  0  0  0  0  0  0
  191.0610  174.3850  145.0720 C   0  0  2  0  0  3  0  0  0  0  0  0
  188.4010  174.3460  139.5470 O   0  0  0  0  0  0  0  0  0  0  0  0
  189.8670  176.7620  146.7500 C   0  0  0  0  0  2  0  0  0  0  0  0
  185.0060  177.5410  144.2640 O   0  0  0  0  0  0  0  0  0  0  0  0
  189.7860  173.5480  144.8810 C   0  0  0  0  0  2  0  0  0  0  0  0
  190.8910  175.8680  144.6670 C   0  0  2  0  0  3  0  0  0  0  0  0
  188.9670  175.2840  141.6380 C   0  0  0  0  0  3  0  0  0  0  0  0
  186.2760  177.6780  146.1790 O   0  0  0  0  0  0  0  0  0  0  0  0
  189.2750  173.7160  143.4880 C   0  0  0  0  0  0  0  0  0  0  0  0
  188.9060  172.6550  142.7660 C   0  0  0  0  0  3  0  0  0  0  0  0
  191.0960  176.7930  145.8610 C   0  0  0  0  0  2  0  0  0  0  0  0
  188.6790  177.3560  146.0100 C   0  0  2  0  0  3  0  0  0  0  0  0
  187.4330  177.2470  146.8920 C   0  0  0  0  0  2  0  0  0  0  0  0
  193.8110  174.1820  145.8930 O   0  0  0  0  0  0  0  0  0  0  0  0
  193.4750  173.6500  144.8010 C   0  0  0  0  0  0  0  0  0  0  0  0
  192.1480  173.8100  144.2940 N   0  0  0  0  0  2  0  0  0  0  0  0
  197.2190  173.3030  145.0770 C   0  0  1  0  0  3  0  0  0  0  0  0
  195.1470  171.8250  145.0340 C   0  0  0  0  0  2  0  0  0  0  0  0
  194.8070  174.6590  142.3440 C   0  0  0  0  0  1  0  0  0  0  0  0
  197.1670  173.7910  146.5130 C   0  0  0  0  0  1  0  0  0  0  0  0
  196.6780  171.8700  144.9710 C   0  0  0  0  0  2  0  0  0  0  0  0
  195.4750  173.6380  143.2510 C   0  0  2  0  0  3  0  0  0  0  0  0
  194.4630  172.8000  144.0580 C   0  0  2  0  0  3  0  0  0  0  0  0
  196.5030  174.3070  144.1620 C   0  0  0  0  0  2  0  0  0  0  0  0
  1  6  1  0  0  0  0
  1 14  1  0  0  0  0
  2  5  1  1  0  0  0
  2  3  1  0  0  0  0
  2 13  1  0  0  0  0
  3 19  1  0  0  0  0
  4 15  1  0  0  0  0
  5 16  1  0  0  0  0
  6 17  1  0  0  0  0
  7  3  2  0  0  0  0
  7  4  1  0  0  0  0
  8 23  1  6  0  0  0
  9  1  2  0  0  0  0
 11  4  2  0  0  0  0
 12  8  1  0  0  0  0
 13  8  1  0  0  0  0
 13 18  1  1  0  0  0
 14  5  2  0  0  0  0
 15 20  1  0  0  0  0
 16 12  1  0  0  0  0
 17 16  2  0  0  0  0
 18 10  1  0  0  0  0
 19 10  1  1  0  0  0
 19 20  1  0  0  0  0
 22 21  2  0  0  0  0
 23 22  1  0  0  0  0
 24 27  1  1  0  0  0
 28 25  1  0  0  0  0
 28 24  1  0  0  0  0
 29 26  1  1  0  0  0
 29 30  1  0  0  0  0
 29 31  1  0  0  0  0
 30 22  1  1  0  0  0
 30 25  1  0  0  0  0
 31 24  1  0  0  0  0
M  END
>  <MODEL>
5

>  <REMARK>
 VINA RESULT:      -8.0      2.031      7.753
  Name = 
  2 active torsions:
  status: ('A' for Active; 'I' for Inactive)
    1  A    between atoms: C_5  and  C_30
    2  A    between atoms: C_10  and  N_16
                            x       y       z     vdW  Elec       q    Type
                         _______ _______ _______ _____ _____    ______ ____

>  <TORSDO>
F 2

$$$$
=
 OpenBabel11112417013D

 31 35  0  0  1  0  0  0  0  0999 V2000
  191.1860  175.6160  147.3580 C   0  0  0  0  0  0  0  0  0  0  0  0
  189.3330  174.8410  144.0990 C   0  0  2  0  0  3  0  0  0  0  0  0
  188.1510  175.7660  143.8470 C   0  0  0  0  0  0  0  0  0  0  0  0
  186.3760  177.2140  144.6820 C   0  0  0  0  0  0  0  0  0  0  0  0
  190.2960  175.4130  145.1040 C   0  0  0  0  0  0  0  0  0  0  0  0
  192.1020  176.7450  146.9680 C   0  0  0  0  0  2  0  0  0  0  0  0
  187.5810  176.4020  144.8820 C   0  0  0  0  0  3  0  0  0  0  0  0
  191.3200  175.2820  142.4120 C   0  0  2  0  0  3  0  0  0  0  0  0
  191.1930  175.1910  148.5420 O   0  0  0  0  0  0  0  0  0  0  0  0
  188.3680  175.4770  141.3440 C   0  0  0  0  0  2  0  0  0  0  0  0
  185.7720  177.7080  145.6680 O   0  0  0  0  0  0  0  0  0  0  0  0
  191.4040  176.6190  143.1640 C   0  0  0  0  0  2  0  0  0  0  0  0
  190.0900  174.4300  142.8030 C   0  0  2  0  0  3  0  0  0  0  0  0
  190.2490  175.0390  146.3840 C   0  0  0  0  0  3  0  0  0  0  0  0
  185.8920  177.4130  143.3880 O   0  0  0  0  0  0  0  0  0  0  0  0
  191.3060  176.3790  144.6340 C   0  0  0  0  0  0  0  0  0  0  0  0
  192.1550  176.9700  145.4780 C   0  0  0  0  0  3  0  0  0  0  0  0
  189.1660  174.2140  141.6100 C   0  0  0  0  0  2  0  0  0  0  0  0
  187.4280  175.7480  142.5080 C   0  0  2  0  0  3  0  0  0  0  0  0
  186.6870  177.0640  142.2580 C   0  0  0  0  0  2  0  0  0  0  0  0
  193.7020  175.2840  140.7970 O   0  0  0  0  0  0  0  0  0  0  0  0
  193.7120  174.6240  141.8710 C   0  0  0  0  0  0  0  0  0  0  0  0
  192.5240  174.5030  142.6580 N   0  0  0  0  0  2  0  0  0  0  0  0
  194.8900  173.5840  145.2980 C   0  0  1  0  0  3  0  0  0  0  0  0
  194.7120  172.6200  142.9490 C   0  0  0  0  0  2  0  0  0  0  0  0
  195.9750  176.3280  142.7650 C   0  0  0  0  0  1  0  0  0  0  0  0
  193.4510  173.4330  145.7570 C   0  0  0  0  0  1  0  0  0  0  0  0
  195.2840  172.4340  144.3590 C   0  0  0  0  0  2  0  0  0  0  0  0
  195.7640  174.9280  143.3180 C   0  0  2  0  0  3  0  0  0  0  0  0
  194.9940  174.0100  142.3490 C   0  0  2  0  0  3  0  0  0  0  0  0
  195.0980  174.9800  144.6920 C   0  0  0  0  0  2  0  0  0  0  0  0
  1  9  2  0  0  0  0
  2  3  1  6  0  0  0
  2  5  1  0  0  0  0
  3  7  2  0  0  0  0
  4  7  1  0  0  0  0
  4 11  2  0  0  0  0
  5 14  2  0  0  0  0
  6  1  1  0  0  0  0
  8 23  1  1  0  0  0
  8 13  1  0  0  0  0
  8 12  1  0  0  0  0
 10 18  1  0  0  0  0
 12 16  1  0  0  0  0
 13 18  1  6  0  0  0
 13  2  1  0  0  0  0
 14  1  1  0  0  0  0
 15  4  1  0  0  0  0
 16  5  1  0  0  0  0
 16 17  2  0  0  0  0
 17  6  1  0  0  0  0
 19 10  1  6  0  0  0
 19  3  1  0  0  0  0
 20 19  1  0  0  0  0
 20 15  1  0  0  0  0
 21 22  2  0  0  0  0
 22 23  1  0  0  0  0
 24 27  1  6  0  0  0
 25 28  1  0  0  0  0
 28 24  1  0  0  0  0
 29 26  1  6  0  0  0
 29 31  1  0  0  0  0
 30 22  1  1  0  0  0
 30 25  1  0  0  0  0
 30 29  1  0  0  0  0
 31 24  1  0  0  0  0
M  END
>  <MODEL>
6

>  <REMARK>
 VINA RESULT:      -8.0      2.390      7.866
  Name = 
  2 active torsions:
  status: ('A' for Active; 'I' for Inactive)
    1  A    between atoms: C_5  and  C_30
    2  A    between atoms: C_10  and  N_16
                            x       y       z     vdW  Elec       q    Type
                         _______ _______ _______ _____ _____    ______ ____

>  <TORSDO>
F 2

$$$$
=
 OpenBabel11112417013D

 31 35  0  0  1  0  0  0  0  0999 V2000
  188.3060  176.2230  146.8810 C   0  0  0  0  0  0  0  0  0  0  0  0
  187.3460  175.9630  143.1840 C   0  0  2  0  0  3  0  0  0  0  0  0
  186.3020  176.9870  142.7620 C   0  0  0  0  0  0  0  0  0  0  0  0
  184.4180  178.4380  143.2990 C   0  0  0  0  0  0  0  0  0  0  0  0
  188.0300  176.3470  144.4690 C   0  0  0  0  0  0  0  0  0  0  0  0
  189.3280  177.3280  146.8910 C   0  0  0  0  0  2  0  0  0  0  0  0
  185.5020  177.5310  143.6920 C   0  0  0  0  0  3  0  0  0  0  0  0
  189.7190  176.4710  142.1340 C   0  0  2  0  0  3  0  0  0  0  0  0
  187.9890  175.6610  147.9610 O   0  0  0  0  0  0  0  0  0  0  0  0
  187.1570  176.9830  140.3830 C   0  0  0  0  0  2  0  0  0  0  0  0
  183.5930  178.8490  144.1550 O   0  0  0  0  0  0  0  0  0  0  0  0
  189.6450  177.7010  143.0520 C   0  0  0  0  0  2  0  0  0  0  0  0
  188.4020  175.6610  142.0820 C   0  0  2  0  0  3  0  0  0  0  0  0
  187.6380  175.8280  145.6330 C   0  0  0  0  0  3  0  0  0  0  0  0
  184.2950  178.8190  141.9630 O   0  0  0  0  0  0  0  0  0  0  0  0
  189.1590  177.2950  144.4030 C   0  0  0  0  0  0  0  0  0  0  0  0
  189.7760  177.7250  145.5070 C   0  0  0  0  0  3  0  0  0  0  0  0
  187.8170  175.6480  140.6750 C   0  0  0  0  0  2  0  0  0  0  0  0
  185.9540  177.1750  141.2930 C   0  0  2  0  0  3  0  0  0  0  0  0
  185.3470  178.5570  141.0370 C   0  0  0  0  0  2  0  0  0  0  0  0
  192.4990  177.1720  142.3690 O   0  0  0  0  0  0  0  0  0  0  0  0
  192.1380  176.0310  142.7640 C   0  0  0  0  0  0  0  0  0  0  0  0
  190.7910  175.5910  142.5750 N   0  0  0  0  0  2  0  0  0  0  0  0
  191.6930  173.4170  145.4450 C   0  0  1  0  0  3  0  0  0  0  0  0
  192.8180  173.6760  143.1760 C   0  0  0  0  0  2  0  0  0  0  0  0
  193.3850  176.9170  145.3110 C   0  0  0  0  0  1  0  0  0  0  0  0
  190.2570  173.1980  145.0060 C   0  0  0  0  0  1  0  0  0  0  0  0
  192.6700  172.8060  144.4300 C   0  0  0  0  0  2  0  0  0  0  0  0
  193.1700  175.4450  144.9980 C   0  0  2  0  0  3  0  0  0  0  0  0
  193.1180  175.1540  143.4850 C   0  0  2  0  0  3  0  0  0  0  0  0
  191.9310  174.9110  145.7150 C   0  0  0  0  0  2  0  0  0  0  0  0
  1  6  1  0  0  0  0
  1  9  2  0  0  0  0
  2  3  1  6  0  0  0
  2  5  1  0  0  0  0
  3  7  2  0  0  0  0
  4  7  1  0  0  0  0
  4 11  2  0  0  0  0
  5 14  2  0  0  0  0
  8 23  1  1  0  0  0
  8 12  1  0  0  0  0
 10 18  1  0  0  0  0
 12 16  1  0  0  0  0
 13 18  1  6  0  0  0
 13  8  1  0  0  0  0
 13  2  1  0  0  0  0
 14  1  1  0  0  0  0
 15  4  1  0  0  0  0
 16  5  1  0  0  0  0
 16 17  2  0  0  0  0
 17  6  1  0  0  0  0
 19 10  1  6  0  0  0
 19  3  1  0  0  0  0
 20 19  1  0  0  0  0
 20 15  1  0  0  0  0
 21 22  2  0  0  0  0
 23 22  1  0  0  0  0
 24 27  1  6  0  0  0
 24 31  1  0  0  0  0
 25 30  1  0  0  0  0
 25 28  1  0  0  0  0
 28 24  1  0  0  0  0
 29 26  1  6  0  0  0
 29 31  1  0  0  0  0
 30 22  1  6  0  0  0
 30 29  1  0  0  0  0
M  END
>  <MODEL>
7

>  <REMARK>
 VINA RESULT:      -7.9      2.610      7.732
  Name = 
  2 active torsions:
  status: ('A' for Active; 'I' for Inactive)
    1  A    between atoms: C_5  and  C_30
    2  A    between atoms: C_10  and  N_16
                            x       y       z     vdW  Elec       q    Type
                         _______ _______ _______ _____ _____    ______ ____

>  <TORSDO>
F 2

$$$$
=
 OpenBabel11112417013D

 31 35  0  0  1  0  0  0  0  0999 V2000
  188.4530  174.3640  140.7480 C   0  0  0  0  0  0  0  0  0  0  0  0
  189.4960  176.5060  143.7440 C   0  0  2  0  0  3  0  0  0  0  0  0
  188.3260  176.9110  144.6290 C   0  0  0  0  0  0  0  0  0  0  0  0
  185.9560  177.4100  144.9120 C   0  0  0  0  0  0  0  0  0  0  0  0
  189.1610  175.3340  142.8620 C   0  0  0  0  0  0  0  0  0  0  0  0
  188.3650  172.9800  141.3330 C   0  0  0  0  0  2  0  0  0  0  0  0
  187.0860  176.9220  144.1140 C   0  0  0  0  0  3  0  0  0  0  0  0
  191.0840  174.7580  144.9340 C   0  0  2  0  0  3  0  0  0  0  0  0
  188.1920  174.5410  139.5300 O   0  0  0  0  0  0  0  0  0  0  0  0
  189.8220  177.0630  146.6610 C   0  0  0  0  0  2  0  0  0  0  0  0
  184.8190  177.5370  144.3900 O   0  0  0  0  0  0  0  0  0  0  0  0
  189.8560  173.8440  144.7990 C   0  0  0  0  0  2  0  0  0  0  0  0
  190.8070  176.2260  144.5360 C   0  0  2  0  0  3  0  0  0  0  0  0
  188.7910  175.5170  141.5940 C   0  0  0  0  0  3  0  0  0  0  0  0
  186.1610  177.7570  146.2480 O   0  0  0  0  0  0  0  0  0  0  0  0
  189.2750  173.9770  143.4290 C   0  0  0  0  0  0  0  0  0  0  0  0
  188.9400  172.8930  142.7240 C   0  0  0  0  0  3  0  0  0  0  0  0
  191.0070  177.1660  145.7190 C   0  0  0  0  0  2  0  0  0  0  0  0
  188.5690  177.5810  145.9730 C   0  0  2  0  0  3  0  0  0  0  0  0
  187.3720  177.3990  146.9100 C   0  0  0  0  0  2  0  0  0  0  0  0
  193.4410  173.4050  145.8790 O   0  0  0  0  0  0  0  0  0  0  0  0
  193.2660  173.4960  144.6340 C   0  0  0  0  0  0  0  0  0  0  0  0
  192.1690  174.2480  144.1090 N   0  0  0  0  0  2  0  0  0  0  0  0
  193.0310  172.7020  140.9560 C   0  0  1  0  0  3  0  0  0  0  0  0
  194.6810  173.7230  142.6030 C   0  0  0  0  0  2  0  0  0  0  0  0
  192.9920  170.5690  144.2080 C   0  0  0  0  0  1  0  0  0  0  0  0
  192.0960  173.8790  140.7520 C   0  0  0  0  0  1  0  0  0  0  0  0
  194.4710  173.1850  141.1830 C   0  0  0  0  0  2  0  0  0  0  0  0
  193.5550  171.4820  143.1300 C   0  0  2  0  0  3  0  0  0  0  0  0
  194.1880  172.7660  143.7030 C   0  0  2  0  0  3  0  0  0  0  0  0
  192.4940  171.8000  142.0780 C   0  0  0  0  0  2  0  0  0  0  0  0
  1  6  1  0  0  0  0
  1 14  1  0  0  0  0
  2  5  1  1  0  0  0
  2 13  1  0  0  0  0
  2  3  1  0  0  0  0
  3 19  1  0  0  0  0
  4 15  1  0  0  0  0
  5 16  1  0  0  0  0
  6 17  1  0  0  0  0
  7  3  2  0  0  0  0
  7  4  1  0  0  0  0
  8 23  1  6  0  0  0
  9  1  2  0  0  0  0
 11  4  2  0  0  0  0
 12  8  1  0  0  0  0
 13  8  1  0  0  0  0
 13 18  1  1  0  0  0
 14  5  2  0  0  0  0
 15 20  1  0  0  0  0
 16 12  1  0  0  0  0
 17 16  2  0  0  0  0
 18 10  1  0  0  0  0
 19 10  1  1  0  0  0
 19 20  1  0  0  0  0
 22 21  2  0  0  0  0
 23 22  1  0  0  0  0
 24 27  1  1  0  0  0
 24 28  1  0  0  0  0
 24 31  1  0  0  0  0
 25 30  1  0  0  0  0
 28 25  1  0  0  0  0
 29 30  1  0  0  0  0
 29 26  1  1  0  0  0
 30 22  1  6  0  0  0
 31 29  1  0  0  0  0
M  END
>  <MODEL>
8

>  <REMARK>
 VINA RESULT:      -7.9      2.184      7.158
  Name = 
  2 active torsions:
  status: ('A' for Active; 'I' for Inactive)
    1  A    between atoms: C_5  and  C_30
    2  A    between atoms: C_10  and  N_16
                            x       y       z     vdW  Elec       q    Type
                         _______ _______ _______ _____ _____    ______ ____

>  <TORSDO>
F 2

$$$$
=
 OpenBabel11112417013D

 31 35  0  0  1  0  0  0  0  0999 V2000
  190.9450  175.6820  147.2490 C   0  0  0  0  0  0  0  0  0  0  0  0
  188.1690  175.7000  144.6140 C   0  0  2  0  0  3  0  0  0  0  0  0
  187.2420  176.9020  144.7260 C   0  0  0  0  0  0  0  0  0  0  0  0
  186.1840  178.6450  146.0630 C   0  0  0  0  0  0  0  0  0  0  0  0
  189.4740  175.9220  145.3270 C   0  0  0  0  0  0  0  0  0  0  0  0
  191.9870  176.5910  146.6520 C   0  0  0  0  0  2  0  0  0  0  0  0
  187.1480  177.5510  145.8970 C   0  0  0  0  0  3  0  0  0  0  0  0
  189.6880  175.8140  142.4530 C   0  0  2  0  0  3  0  0  0  0  0  0
  191.1520  175.1540  148.3720 O   0  0  0  0  0  0  0  0  0  0  0  0
  186.7140  176.8170  142.2550 C   0  0  0  0  0  2  0  0  0  0  0  0
  186.0080  179.1700  147.1930 O   0  0  0  0  0  0  0  0  0  0  0  0
  190.3080  177.0110  143.1900 C   0  0  0  0  0  2  0  0  0  0  0  0
  188.4270  175.2490  143.1470 C   0  0  2  0  0  3  0  0  0  0  0  0
  189.6690  175.4460  146.5580 C   0  0  0  0  0  3  0  0  0  0  0  0
  185.4460  179.0800  144.9620 O   0  0  0  0  0  0  0  0  0  0  0  0
  190.5400  176.6580  144.6220 C   0  0  0  0  0  0  0  0  0  0  0  0
  191.7040  176.9420  145.2130 C   0  0  0  0  0  3  0  0  0  0  0  0
  187.2000  175.3790  142.2530 C   0  0  0  0  0  2  0  0  0  0  0  0
  186.2140  177.1900  143.6420 C   0  0  2  0  0  3  0  0  0  0  0  0
  185.7990  178.6630  143.6450 C   0  0  0  0  0  2  0  0  0  0  0  0
  189.8030  173.8400  140.3620 O   0  0  0  0  0  0  0  0  0  0  0  0
  190.7320  173.8590  141.2140 C   0  0  0  0  0  0  0  0  0  0  0  0
  190.6720  174.7480  142.3330 N   0  0  0  0  0  2  0  0  0  0  0  0
  194.4110  174.4410  141.7930 C   0  0  1  0  0  3  0  0  0  0  0  0
  192.6180  172.7310  142.3750 C   0  0  0  0  0  2  0  0  0  0  0  0
  192.2130  173.8520  138.6390 C   0  0  0  0  0  1  0  0  0  0  0  0
  194.0900  175.5200  142.8100 C   0  0  0  0  0  1  0  0  0  0  0  0
  194.1180  173.0480  142.3680 C   0  0  0  0  0  2  0  0  0  0  0  0
  192.9010  173.5280  139.9550 C   0  0  2  0  0  3  0  0  0  0  0  0
  191.9310  172.9790  141.0200 C   0  0  2  0  0  3  0  0  0  0  0  0
  193.6800  174.7360  140.4750 C   0  0  0  0  0  2  0  0  0  0  0  0
  1  9  2  0  0  0  0
  2  3  1  6  0  0  0
  2  5  1  0  0  0  0
  3  7  2  0  0  0  0
  4 11  2  0  0  0  0
  5 14  2  0  0  0  0
  6  1  1  0  0  0  0
  7  4  1  0  0  0  0
  8 23  1  1  0  0  0
  8 13  1  0  0  0  0
  8 12  1  0  0  0  0
 12 16  1  0  0  0  0
 13 18  1  6  0  0  0
 13  2  1  0  0  0  0
 14  1  1  0  0  0  0
 15  4  1  0  0  0  0
 16 17  2  0  0  0  0
 16  5  1  0  0  0  0
 17  6  1  0  0  0  0
 18 10  1  0  0  0  0
 19 10  1  6  0  0  0
 19 20  1  0  0  0  0
 19  3  1  0  0  0  0
 20 15  1  0  0  0  0
 21 22  2  0  0  0  0
 22 23  1  0  0  0  0
 24 28  1  0  0  0  0
 24 27  1  1  0  0  0
 28 25  1  0  0  0  0
 29 26  1  6  0  0  0
 29 31  1  0  0  0  0
 29 30  1  0  0  0  0
 30 22  1  1  0  0  0
 30 25  1  0  0  0  0
 31 24  1  0  0  0  0
M  END
>  <MODEL>
9

>  <REMARK>
 VINA RESULT:      -7.7      2.529      7.809
  Name = 
  2 active torsions:
  status: ('A' for Active; 'I' for Inactive)
    1  A    between atoms: C_5  and  C_30
    2  A    between atoms: C_10  and  N_16
                            x       y       z     vdW  Elec       q    Type
                         _______ _______ _______ _____ _____    ______ ____

>  <TORSDO>
F 2

$$$$
