=
 OpenBabel11112417413D

 28 33  0  0  1  0  0  0  0  0999 V2000
  187.6360  177.5200  144.4660 C   0  0  0  0  0  0  0  0  0  0  0  0
  190.6030  177.2290  147.2320 O   0  0  0  0  0  0  0  0  0  0  0  0
  191.6700  174.4320  141.4250 C   0  0  0  0  0  1  0  0  0  0  0  0
  186.5380  177.1930  147.0200 C   0  0  0  0  0  3  0  0  0  0  0  0
  190.3680  172.8980  142.8810 C   0  0  1  0  0  3  0  0  0  0  0  0
  188.1700  177.6170  143.0670 C   0  0  1  0  0  3  0  0  0  0  0  0
  191.0700  175.1640  148.4670 O   0  0  0  0  0  0  0  0  0  0  0  0
  191.0740  175.8070  147.1090 S   0  0  0  0  0  0  0  0  0  0  0  0
  193.0450  174.4040  145.9420 C   0  0  2  0  0  3  0  0  0  0  0  0
  189.9990  174.8720  146.0170 C   0  0  2  0  0  3  0  0  0  0  0  0
  186.4290  175.8330  142.8120 O   0  0  0  0  0  1  0  0  0  0  0  0
  189.0490  174.7140  143.7820 C   0  0  2  0  0  3  0  0  0  0  0  0
  192.0990  174.0660  144.8020 C   0  0  0  0  0  2  0  0  0  0  0  0
  192.7290  175.7910  146.4640 C   0  0  0  0  0  2  0  0  0  0  0  0
  187.5190  176.5030  142.2410 C   0  0  2  0  0  0  0  0  0  0  0  0
  188.1710  176.5400  145.3360 C   0  0  0  0  0  0  0  0  0  0  0  0
  190.2780  174.0400  141.8830 C   0  0  1  0  0  3  0  0  0  0  0  0
  194.4680  174.3800  145.4300 C   0  0  0  0  0  1  0  0  0  0  0  0
  188.5800  175.6340  141.5710 C   0  0  0  0  0  2  0  0  0  0  0  0
  187.5970  176.3820  146.6090 C   0  0  0  0  0  3  0  0  0  0  0  0
  186.5800  178.3390  144.8900 C   0  0  0  0  0  3  0  0  0  0  0  0
  186.0360  178.1760  146.1650 C   0  0  0  0  0  3  0  0  0  0  0  0
  187.2310  177.9460  141.9090 C   0  0  0  0  0  2  0  0  0  0  0  0
  189.7210  173.4050  144.1510 C   0  0  2  0  0  3  0  0  0  0  0  0
  189.6240  175.1850  142.5120 N   0  0  1  0  0  0  0  0  0  0  0  0
  190.6870  173.7060  145.3080 C   0  0  2  0  0  3  0  0  0  0  0  0
  189.6480  171.8060  142.3980 O   0  0  0  0  0  1  0  0  0  0  0  0
  189.3730  175.7060  144.9080 C   0  0  1  0  0  3  0  0  0  0  0  0
  1 21  2  0  0  0  0
  1 16  1  0  0  0  0
  3 17  1  0  0  0  0
  5 27  1  6  0  0  0
  5 24  1  0  0  0  0
  6 23  1  6  0  0  0
  6  1  1  0  0  0  0
  8  2  2  0  0  0  0
  8  7  2  0  0  0  0
  9 18  1  6  0  0  0
  9 14  1  0  0  0  0
 10  8  1  6  0  0  0
 12 24  1  0  0  0  0
 12 28  1  0  0  0  0
 13 26  1  0  0  0  0
 13  9  1  0  0  0  0
 14  8  1  0  0  0  0
 15 11  1  0  0  0  0
 15  6  1  0  0  0  0
 16 20  2  0  0  0  0
 17 25  1  0  0  0  0
 17  5  1  0  0  0  0
 19 15  1  0  0  0  0
 19 25  1  0  0  0  0
 20  4  1  0  0  0  0
 21 22  1  0  0  0  0
 22  4  2  0  0  0  0
 23 15  1  0  0  0  0
 24 26  1  0  0  0  0
 25 12  1  0  0  0  0
 26 10  1  0  0  0  0
 28 16  1  0  0  0  0
 28 10  1  0  0  0  0
M  END
>  <MODEL>
1

>  <REMARK>
 VINA RESULT:      -9.2      0.000      0.000
  Name = 
  0 active torsions:
  status: ('A' for Active; 'I' for Inactive)
                            x       y       z     vdW  Elec       q    Type
                         _______ _______ _______ _____ _____    ______ ____

>  <TORSDO>
F 0

$$$$
=
 OpenBabel11112417413D

 28 33  0  0  1  0  0  0  0  0999 V2000
  185.7320  177.0750  143.4410 C   0  0  0  0  0  0  0  0  0  0  0  0
  187.4040  174.0600  141.2840 O   0  0  0  0  0  0  0  0  0  0  0  0
  189.2340  174.6110  147.5310 C   0  0  0  0  0  1  0  0  0  0  0  0
  186.2010  177.9200  140.8150 C   0  0  0  0  0  3  0  0  0  0  0  0
  190.5650  176.1590  146.1160 C   0  0  1  0  0  3  0  0  0  0  0  0
  185.5330  176.7010  144.8810 C   0  0  1  0  0  3  0  0  0  0  0  0
  189.7100  174.1380  140.4580 O   0  0  0  0  0  0  0  0  0  0  0  0
  188.8510  174.0840  141.6890 S   0  0  0  0  0  0  0  0  0  0  0  0
  190.5240  172.8100  143.3610 C   0  0  2  0  0  3  0  0  0  0  0  0
  189.2040  175.5180  142.7090 C   0  0  2  0  0  3  0  0  0  0  0  0
  186.6430  178.9380  145.0970 O   0  0  0  0  0  1  0  0  0  0  0  0
  188.6470  176.7170  144.7530 C   0  0  2  0  0  3  0  0  0  0  0  0
  190.3450  173.9380  144.3630 C   0  0  0  0  0  2  0  0  0  0  0  0
  189.2310  172.6060  142.5980 C   0  0  0  0  0  2  0  0  0  0  0  0
  186.2280  177.7640  145.7390 C   0  0  2  0  0  0  0  0  0  0  0  0
  186.9740  176.7850  142.8260 C   0  0  0  0  0  0  0  0  0  0  0  0
  189.2790  175.9930  146.9080 C   0  0  1  0  0  3  0  0  0  0  0  0
  190.8670  171.5370  144.1030 C   0  0  0  0  0  1  0  0  0  0  0  0
  187.2270  177.1180  146.6960 C   0  0  0  0  0  2  0  0  0  0  0  0
  187.1950  177.2300  141.5110 C   0  0  0  0  0  3  0  0  0  0  0  0
  184.7360  177.7600  142.7320 C   0  0  0  0  0  3  0  0  0  0  0  0
  184.9700  178.1780  141.4210 C   0  0  0  0  0  3  0  0  0  0  0  0
  184.7280  177.6130  145.8050 C   0  0  0  0  0  2  0  0  0  0  0  0
  190.1400  176.4610  144.6960 C   0  0  2  0  0  3  0  0  0  0  0  0
  188.1330  176.1720  146.0190 N   0  0  1  0  0  0  0  0  0  0  0  0
  190.3630  175.3230  143.6860 C   0  0  2  0  0  3  0  0  0  0  0  0
  191.2840  177.2400  146.6250 O   0  0  0  0  0  1  0  0  0  0  0  0
  188.0270  175.9680  143.5650 C   0  0  1  0  0  3  0  0  0  0  0  0
  1  6  1  0  0  0  0
  2  8  2  0  0  0  0
  4 22  2  0  0  0  0
  4 20  1  0  0  0  0
  5 27  1  1  0  0  0
  5 17  1  0  0  0  0
  6 15  1  0  0  0  0
  6 23  1  1  0  0  0
  7  8  2  0  0  0  0
  8 14  1  0  0  0  0
  9 18  1  1  0  0  0
  9 13  1  0  0  0  0
 10  8  1  1  0  0  0
 10 28  1  0  0  0  0
 10 26  1  0  0  0  0
 11 15  1  0  0  0  0
 12 25  1  0  0  0  0
 14  9  1  0  0  0  0
 15 23  1  0  0  0  0
 15 19  1  0  0  0  0
 16  1  1  0  0  0  0
 16 28  1  0  0  0  0
 17  3  1  0  0  0  0
 20 16  2  0  0  0  0
 21  1  2  0  0  0  0
 22 21  1  0  0  0  0
 24 12  1  0  0  0  0
 24  5  1  0  0  0  0
 25 19  1  0  0  0  0
 25 17  1  0  0  0  0
 26 13  1  0  0  0  0
 26 24  1  0  0  0  0
 28 12  1  0  0  0  0
M  END
>  <MODEL>
2

>  <REMARK>
 VINA RESULT:      -8.4      2.249      4.777
  Name = 
  0 active torsions:
  status: ('A' for Active; 'I' for Inactive)
                            x       y       z     vdW  Elec       q    Type
                         _______ _______ _______ _____ _____    ______ ____

>  <TORSDO>
F 0

$$$$
=
 OpenBabel11112417413D

 28 33  0  0  1  0  0  0  0  0999 V2000
  190.1770  172.8340  143.1770 C   0  0  0  0  0  0  0  0  0  0  0  0
  189.3360  174.1640  146.9270 O   0  0  0  0  0  0  0  0  0  0  0  0
  186.1090  176.9690  141.9880 C   0  0  0  0  0  1  0  0  0  0  0  0
  192.5070  172.8670  144.7280 C   0  0  0  0  0  3  0  0  0  0  0  0
  188.3320  178.0410  142.2690 C   0  0  1  0  0  3  0  0  0  0  0  0
  188.9760  172.8720  142.2780 C   0  0  1  0  0  3  0  0  0  0  0  0
  190.1540  176.3060  147.7910 O   0  0  0  0  0  0  0  0  0  0  0  0
  189.2610  175.6570  146.7740 S   0  0  0  0  0  0  0  0  0  0  0  0
  187.4160  177.5880  146.4830 C   0  0  2  0  0  3  0  0  0  0  0  0
  189.7870  176.1560  145.1320 C   0  0  2  0  0  3  0  0  0  0  0  0
  190.7060  173.9820  140.8440 O   0  0  0  0  0  1  0  0  0  0  0  0
  189.4020  175.9240  142.7400 C   0  0  2  0  0  3  0  0  0  0  0  0
  187.6580  177.5620  144.9830 C   0  0  0  0  0  2  0  0  0  0  0  0
  187.5880  176.1900  147.0440 C   0  0  0  0  0  2  0  0  0  0  0  0
  189.3500  173.6860  141.0350 C   0  0  2  0  0  0  0  0  0  0  0  0
  190.4640  173.9620  143.9820 C   0  0  0  0  0  0  0  0  0  0  0  0
  187.5760  176.9010  141.6080 C   0  0  1  0  0  3  0  0  0  0  0  0
  186.0020  178.0570  146.7500 C   0  0  0  0  0  1  0  0  0  0  0  0
  188.3640  174.8310  140.8210 C   0  0  0  0  0  2  0  0  0  0  0  0
  191.6450  173.9660  144.7430 C   0  0  0  0  0  3  0  0  0  0  0  0
  191.0410  171.7300  143.1750 C   0  0  0  0  0  3  0  0  0  0  0  0
  192.2010  171.7470  143.9520 C   0  0  0  0  0  3  0  0  0  0  0  0
  189.0300  172.2180  140.8990 C   0  0  0  0  0  2  0  0  0  0  0  0
  189.3970  177.3910  143.1230 C   0  0  2  0  0  3  0  0  0  0  0  0
  188.1400  175.6260  142.0440 N   0  0  1  0  0  0  0  0  0  0  0  0
  189.1570  177.4590  144.6400 C   0  0  2  0  0  3  0  0  0  0  0  0
  188.9380  178.8230  141.2860 O   0  0  0  0  0  1  0  0  0  0  0  0
  189.4840  175.1280  144.0500 C   0  0  1  0  0  3  0  0  0  0  0  0
  1 16  1  0  0  0  0
  4 20  1  0  0  0  0
  5 27  1  6  0  0  0
  5 24  1  0  0  0  0
  6 23  1  6  0  0  0
  6  1  1  0  0  0  0
  8  2  2  0  0  0  0
  8 14  1  0  0  0  0
  8  7  2  0  0  0  0
  9 18  1  6  0  0  0
  9 14  1  0  0  0  0
 10  8  1  1  0  0  0
 11 15  1  0  0  0  0
 12 24  1  0  0  0  0
 12 28  1  0  0  0  0
 13  9  1  0  0  0  0
 15  6  1  0  0  0  0
 16 28  1  0  0  0  0
 16 20  2  0  0  0  0
 17  3  1  0  0  0  0
 17 25  1  0  0  0  0
 17  5  1  0  0  0  0
 19 15  1  0  0  0  0
 19 25  1  0  0  0  0
 21  1  2  0  0  0  0
 21 22  1  0  0  0  0
 22  4  2  0  0  0  0
 23 15  1  0  0  0  0
 24 26  1  0  0  0  0
 25 12  1  0  0  0  0
 26 13  1  0  0  0  0
 26 10  1  0  0  0  0
 28 10  1  0  0  0  0
M  END
>  <MODEL>
3

>  <REMARK>
 VINA RESULT:      -7.9      1.651      5.221
  Name = 
  0 active torsions:
  status: ('A' for Active; 'I' for Inactive)
                            x       y       z     vdW  Elec       q    Type
                         _______ _______ _______ _____ _____    ______ ____

>  <TORSDO>
F 0

$$$$
=
 OpenBabel11112417413D

 28 33  0  0  1  0  0  0  0  0999 V2000
  185.7520  177.6660  145.6110 C   0  0  0  0  0  0  0  0  0  0  0  0
  185.8580  176.7910  141.6410 O   0  0  0  0  0  0  0  0  0  0  0  0
  190.2220  173.7850  145.4620 C   0  0  0  0  0  1  0  0  0  0  0  0
  185.1910  179.9590  144.1080 C   0  0  0  0  0  3  0  0  0  0  0  0
  191.0530  176.0400  144.8340 C   0  0  1  0  0  3  0  0  0  0  0  0
  186.1260  176.4880  146.4620 C   0  0  1  0  0  3  0  0  0  0  0  0
  187.5780  177.6690  140.1320 O   0  0  0  0  0  0  0  0  0  0  0  0
  187.3250  176.7750  141.3120 S   0  0  0  0  0  0  0  0  0  0  0  0
  189.3260  175.0110  140.9910 C   0  0  2  0  0  3  0  0  0  0  0  0
  188.2960  177.3570  142.7050 C   0  0  2  0  0  3  0  0  0  0  0  0
  187.5580  178.2910  147.4520 O   0  0  0  0  0  1  0  0  0  0  0  0
  188.8520  177.0180  145.0500 C   0  0  2  0  0  3  0  0  0  0  0  0
  189.7670  175.2870  142.4190 C   0  0  0  0  0  2  0  0  0  0  0  0
  187.8160  175.1180  140.9020 C   0  0  0  0  0  2  0  0  0  0  0  0
  187.2760  176.9200  147.3790 C   0  0  2  0  0  0  0  0  0  0  0  0
  186.5540  177.9770  144.4860 C   0  0  0  0  0  0  0  0  0  0  0  0
  190.2150  175.2560  145.8300 C   0  0  1  0  0  3  0  0  0  0  0  0
  189.7460  173.6110  140.6020 C   0  0  0  0  0  1  0  0  0  0  0  0
  188.4710  175.9830  147.2260 C   0  0  0  0  0  2  0  0  0  0  0  0
  186.2650  179.1400  143.7520 C   0  0  0  0  0  3  0  0  0  0  0  0
  184.6700  178.4880  145.9550 C   0  0  0  0  0  3  0  0  0  0  0  0
  184.3900  179.6290  145.2020 C   0  0  0  0  0  3  0  0  0  0  0  0
  185.9410  176.5490  147.9780 C   0  0  0  0  0  2  0  0  0  0  0  0
  190.1200  177.0600  144.2200 C   0  0  2  0  0  3  0  0  0  0  0  0
  188.8440  175.7620  145.8170 N   0  0  1  0  0  0  0  0  0  0  0  0
  189.7130  176.7880  142.7630 C   0  0  2  0  0  3  0  0  0  0  0  0
  192.0790  176.6970  145.5110 O   0  0  0  0  0  1  0  0  0  0  0  0
  187.6790  177.0400  144.0600 C   0  0  1  0  0  3  0  0  0  0  0  0
  1 21  1  0  0  0  0
  1  6  1  0  0  0  0
  3 17  1  0  0  0  0
  4 22  1  0  0  0  0
  5 27  1  1  0  0  0
  5 17  1  0  0  0  0
  6 15  1  0  0  0  0
  6 23  1  1  0  0  0
  7  8  2  0  0  0  0
  8  2  2  0  0  0  0
  9 18  1  1  0  0  0
  9 13  1  0  0  0  0
 10  8  1  6  0  0  0
 10 26  1  0  0  0  0
 10 28  1  0  0  0  0
 12 25  1  0  0  0  0
 13 26  1  0  0  0  0
 14  9  1  0  0  0  0
 14  8  1  0  0  0  0
 15 11  1  0  0  0  0
 15 23  1  0  0  0  0
 16  1  2  0  0  0  0
 19 15  1  0  0  0  0
 20  4  2  0  0  0  0
 20 16  1  0  0  0  0
 22 21  2  0  0  0  0
 24  5  1  0  0  0  0
 24 12  1  0  0  0  0
 25 17  1  0  0  0  0
 25 19  1  0  0  0  0
 26 24  1  0  0  0  0
 28 16  1  0  0  0  0
 28 12  1  0  0  0  0
M  END
>  <MODEL>
4

>  <REMARK>
 VINA RESULT:      -7.9      2.547      5.032
  Name = 
  0 active torsions:
  status: ('A' for Active; 'I' for Inactive)
                            x       y       z     vdW  Elec       q    Type
                         _______ _______ _______ _____ _____    ______ ____

>  <TORSDO>
F 0

$$$$
=
 OpenBabel11112417413D

 28 33  0  0  1  0  0  0  0  0999 V2000
  192.7740  174.5780  144.5080 C   0  0  0  0  0  0  0  0  0  0  0  0
  190.6530  175.7580  147.7720 O   0  0  0  0  0  0  0  0  0  0  0  0
  187.3770  175.1830  142.1480 C   0  0  0  0  0  1  0  0  0  0  0  0
  194.3350  176.2610  146.1100 C   0  0  0  0  0  3  0  0  0  0  0  0
  188.4930  177.3990  142.2590 C   0  0  1  0  0  3  0  0  0  0  0  0
  191.9560  173.7360  143.5730 C   0  0  1  0  0  3  0  0  0  0  0  0
  189.9270  178.0730  148.1180 O   0  0  0  0  0  0  0  0  0  0  0  0
  189.7680  176.8560  147.2510 S   0  0  0  0  0  0  0  0  0  0  0  0
  187.2440  177.2170  146.4080 C   0  0  2  0  0  3  0  0  0  0  0  0
  190.2070  177.2810  145.5630 C   0  0  2  0  0  3  0  0  0  0  0  0
  192.9700  175.3950  141.9920 O   0  0  0  0  0  1  0  0  0  0  0  0
  190.4710  176.4610  143.2870 C   0  0  2  0  0  3  0  0  0  0  0  0
  187.7280  177.0850  144.9740 C   0  0  0  0  0  2  0  0  0  0  0  0
  188.0760  176.3210  147.3040 C   0  0  0  0  0  2  0  0  0  0  0  0
  192.0190  174.3850  142.1860 C   0  0  2  0  0  0  0  0  0  0  0  0
  192.2110  175.7710  145.0220 C   0  0  0  0  0  0  0  0  0  0  0  0
  188.6590  175.9420  141.8660 C   0  0  1  0  0  3  0  0  0  0  0  0
  185.7960  176.7860  146.4850 C   0  0  0  0  0  1  0  0  0  0  0  0
  190.6150  174.6570  141.6510 C   0  0  0  0  0  2  0  0  0  0  0  0
  193.0150  176.6090  145.8130 C   0  0  0  0  0  3  0  0  0  0  0  0
  194.0950  174.2290  144.8190 C   0  0  0  0  0  3  0  0  0  0  0  0
  194.8710  175.0680  145.6210 C   0  0  0  0  0  3  0  0  0  0  0  0
  192.6250  173.0210  142.4010 C   0  0  0  0  0  2  0  0  0  0  0  0
  189.5590  177.6730  143.2960 C   0  0  2  0  0  3  0  0  0  0  0  0
  189.7590  175.3540  142.6280 N   0  0  1  0  0  0  0  0  0  0  0  0
  189.0500  177.8420  144.7370 C   0  0  2  0  0  3  0  0  0  0  0  0
  188.7120  178.2060  141.1440 O   0  0  0  0  0  1  0  0  0  0  0  0
  190.7490  176.1100  144.7550 C   0  0  1  0  0  3  0  0  0  0  0  0
  1 21  2  0  0  0  0
  1 16  1  0  0  0  0
  5 27  1  6  0  0  0
  5 24  1  0  0  0  0
  6 23  1  6  0  0  0
  6  1  1  0  0  0  0
  8 14  1  0  0  0  0
  8  2  2  0  0  0  0
  8  7  2  0  0  0  0
  9 18  1  6  0  0  0
  9 14  1  0  0  0  0
 10  8  1  1  0  0  0
 11 15  1  0  0  0  0
 12 24  1  0  0  0  0
 12 28  1  0  0  0  0
 13  9  1  0  0  0  0
 15 23  1  0  0  0  0
 15  6  1  0  0  0  0
 16 20  2  0  0  0  0
 17  3  1  0  0  0  0
 17  5  1  0  0  0  0
 17 25  1  0  0  0  0
 19 15  1  0  0  0  0
 19 25  1  0  0  0  0
 20  4  1  0  0  0  0
 21 22  1  0  0  0  0
 22  4  2  0  0  0  0
 24 26  1  0  0  0  0
 25 12  1  0  0  0  0
 26 13  1  0  0  0  0
 26 10  1  0  0  0  0
 28 16  1  0  0  0  0
 28 10  1  0  0  0  0
M  END
>  <MODEL>
5

>  <REMARK>
 VINA RESULT:      -7.9      1.760      5.341
  Name = 
  0 active torsions:
  status: ('A' for Active; 'I' for Inactive)
                            x       y       z     vdW  Elec       q    Type
                         _______ _______ _______ _____ _____    ______ ____

>  <TORSDO>
F 0

$$$$
=
 OpenBabel11112417413D

 28 33  0  0  1  0  0  0  0  0999 V2000
  187.9300  176.2170  144.2880 C   0  0  0  0  0  0  0  0  0  0  0  0
  187.8140  172.7840  142.1120 O   0  0  0  0  0  0  0  0  0  0  0  0
  193.2170  173.9010  145.6110 C   0  0  0  0  0  1  0  0  0  0  0  0
  186.6200  176.6670  141.8560 C   0  0  0  0  0  3  0  0  0  0  0  0
  193.3490  175.0960  143.4370 C   0  0  1  0  0  3  0  0  0  0  0  0
  188.6940  176.0520  145.5700 C   0  0  1  0  0  3  0  0  0  0  0  0
  189.0610  172.4930  140.0220 O   0  0  0  0  0  0  0  0  0  0  0  0
  189.1860  172.6920  141.5060 S   0  0  0  0  0  0  0  0  0  0  0  0
  191.5310  171.4550  141.9400 C   0  0  2  0  0  3  0  0  0  0  0  0
  190.1210  174.1930  141.8160 C   0  0  2  0  0  3  0  0  0  0  0  0
  189.7040  178.1560  144.6560 O   0  0  0  0  0  1  0  0  0  0  0  0
  191.0070  175.6950  143.5130 C   0  0  2  0  0  3  0  0  0  0  0  0
  192.0420  172.7130  142.6220 C   0  0  0  0  0  2  0  0  0  0  0  0
  190.0460  171.3060  142.2080 C   0  0  0  0  0  2  0  0  0  0  0  0
  189.7850  177.1270  145.6040 C   0  0  2  0  0  0  0  0  0  0  0  0
  188.4900  175.7120  143.0900 C   0  0  0  0  0  0  0  0  0  0  0  0
  192.8650  175.1790  144.8750 C   0  0  1  0  0  3  0  0  0  0  0  0
  192.2580  170.2540  142.5030 C   0  0  0  0  0  1  0  0  0  0  0  0
  191.1600  176.4970  145.8120 C   0  0  0  0  0  2  0  0  0  0  0  0
  187.8240  175.9600  141.8770 C   0  0  0  0  0  3  0  0  0  0  0  0
  186.7160  176.9170  144.2600 C   0  0  0  0  0  3  0  0  0  0  0  0
  186.0620  177.1380  143.0460 C   0  0  0  0  0  3  0  0  0  0  0  0
  188.6720  177.1590  146.6220 C   0  0  0  0  0  2  0  0  0  0  0  0
  192.1180  175.2640  142.5750 C   0  0  2  0  0  3  0  0  0  0  0  0
  191.4170  175.3750  144.8900 N   0  0  1  0  0  0  0  0  0  0  0  0
  191.6350  173.9910  141.8610 C   0  0  2  0  0  3  0  0  0  0  0  0
  194.2360  176.1420  143.1880 O   0  0  0  0  0  1  0  0  0  0  0  0
  189.7660  174.8790  143.1280 C   0  0  1  0  0  3  0  0  0  0  0  0
  1  6  1  0  0  0  0
  4 20  2  0  0  0  0
  4 22  1  0  0  0  0
  5 27  1  6  0  0  0
  5 17  1  0  0  0  0
  6 15  1  0  0  0  0
  6 23  1  1  0  0  0
  7  8  2  0  0  0  0
  8  2  2  0  0  0  0
  8 14  1  0  0  0  0
  9 14  1  0  0  0  0
  9 18  1  1  0  0  0
  9 13  1  0  0  0  0
 10  8  1  1  0  0  0
 10 26  1  0  0  0  0
 10 28  1  0  0  0  0
 11 15  1  0  0  0  0
 12 25  1  0  0  0  0
 15 19  1  0  0  0  0
 15 23  1  0  0  0  0
 16 28  1  0  0  0  0
 16  1  2  0  0  0  0
 17 25  1  0  0  0  0
 17  3  1  0  0  0  0
 20 16  1  0  0  0  0
 21  1  1  0  0  0  0
 22 21  2  0  0  0  0
 24  5  1  0  0  0  0
 24 12  1  0  0  0  0
 25 19  1  0  0  0  0
 26 24  1  0  0  0  0
 26 13  1  0  0  0  0
 28 12  1  0  0  0  0
M  END
>  <MODEL>
6

>  <REMARK>
 VINA RESULT:      -7.7      2.366      4.662
  Name = 
  0 active torsions:
  status: ('A' for Active; 'I' for Inactive)
                            x       y       z     vdW  Elec       q    Type
                         _______ _______ _______ _____ _____    ______ ____

>  <TORSDO>
F 0

$$$$
=
 OpenBabel11112417413D

 28 33  0  0  1  0  0  0  0  0999 V2000
  188.8480  175.6480  145.4800 C   0  0  0  0  0  0  0  0  0  0  0  0
  187.6430  173.8390  142.0420 O   0  0  0  0  0  0  0  0  0  0  0  0
  193.5800  172.2930  144.2890 C   0  0  0  0  0  1  0  0  0  0  0  0
  187.3620  177.4380  143.9240 C   0  0  0  0  0  3  0  0  0  0  0  0
  193.6910  174.3930  142.9680 C   0  0  1  0  0  3  0  0  0  0  0  0
  189.7180  174.7560  146.3160 C   0  0  1  0  0  3  0  0  0  0  0  0
  188.4940  174.4800  139.8350 O   0  0  0  0  0  0  0  0  0  0  0  0
  188.8620  173.8830  141.1630 S   0  0  0  0  0  0  0  0  0  0  0  0
  190.8910  172.2930  140.4080 C   0  0  2  0  0  3  0  0  0  0  0  0
  190.1530  174.8790  141.9140 C   0  0  2  0  0  3  0  0  0  0  0  0
  191.0560  176.8740  146.2900 O   0  0  0  0  0  1  0  0  0  0  0  0
  191.5850  175.1810  143.8580 C   0  0  2  0  0  3  0  0  0  0  0  0
  191.7680  172.9520  141.4590 C   0  0  0  0  0  2  0  0  0  0  0  0
  189.4630  172.2310  140.9120 C   0  0  0  0  0  2  0  0  0  0  0  0
  191.0240  175.5080  146.5960 C   0  0  2  0  0  0  0  0  0  0  0  0
  189.1070  175.7480  144.0920 C   0  0  0  0  0  0  0  0  0  0  0  0
  193.4380  173.8020  144.3440 C   0  0  1  0  0  3  0  0  0  0  0  0
  191.3880  170.8870  140.1550 C   0  0  0  0  0  1  0  0  0  0  0  0
  192.2290  174.6800  146.1580 C   0  0  0  0  0  2  0  0  0  0  0  0
  188.3590  176.6620  143.3300 C   0  0  0  0  0  3  0  0  0  0  0  0
  187.8370  176.4220  146.0660 C   0  0  0  0  0  3  0  0  0  0  0  0
  187.0950  177.3120  145.2880 C   0  0  0  0  0  3  0  0  0  0  0  0
  190.0970  175.1690  147.7370 C   0  0  0  0  0  2  0  0  0  0  0  0
  192.4280  175.1380  142.5980 C   0  0  2  0  0  3  0  0  0  0  0  0
  192.0910  174.1570  144.7860 N   0  0  1  0  0  0  0  0  0  0  0  0
  191.5700  174.4800  141.5060 C   0  0  2  0  0  3  0  0  0  0  0  0
  194.7550  175.2910  143.0400 O   0  0  0  0  0  1  0  0  0  0  0  0
  190.1470  174.8470  143.4360 C   0  0  1  0  0  3  0  0  0  0  0  0
  1 21  1  0  0  0  0
  1  6  1  0  0  0  0
  3 17  1  0  0  0  0
  4 22  1  0  0  0  0
  5 27  1  1  0  0  0
  5 17  1  0  0  0  0
  6 15  1  0  0  0  0
  6 23  1  1  0  0  0
  7  8  2  0  0  0  0
  8  2  2  0  0  0  0
  9 18  1  1  0  0  0
  9 14  1  0  0  0  0
  9 13  1  0  0  0  0
 10  8  1  6  0  0  0
 10 28  1  0  0  0  0
 11 15  1  0  0  0  0
 12 25  1  0  0  0  0
 13 26  1  0  0  0  0
 14  8  1  0  0  0  0
 15 23  1  0  0  0  0
 16  1  2  0  0  0  0
 17 25  1  0  0  0  0
 19 15  1  0  0  0  0
 20  4  2  0  0  0  0
 20 16  1  0  0  0  0
 22 21  2  0  0  0  0
 24  5  1  0  0  0  0
 24 12  1  0  0  0  0
 25 19  1  0  0  0  0
 26 10  1  0  0  0  0
 26 24  1  0  0  0  0
 28 12  1  0  0  0  0
 28 16  1  0  0  0  0
M  END
>  <MODEL>
7

>  <REMARK>
 VINA RESULT:      -7.4      2.484      4.979
  Name = 
  0 active torsions:
  status: ('A' for Active; 'I' for Inactive)
                            x       y       z     vdW  Elec       q    Type
                         _______ _______ _______ _____ _____    ______ ____

>  <TORSDO>
F 0

$$$$
=
 OpenBabel11112417413D

 28 33  0  0  1  0  0  0  0  0999 V2000
  188.5350  177.0420  143.6580 C   0  0  0  0  0  0  0  0  0  0  0  0
  192.2690  177.1740  145.2660 O   0  0  0  0  0  0  0  0  0  0  0  0
  191.4770  173.5550  139.8840 C   0  0  0  0  0  1  0  0  0  0  0  0
  188.3760  177.0910  146.4520 C   0  0  0  0  0  3  0  0  0  0  0  0
  190.8230  172.2470  141.8920 C   0  0  1  0  0  3  0  0  0  0  0  0
  188.5640  176.9330  142.1620 C   0  0  1  0  0  3  0  0  0  0  0  0
  193.2320  175.3160  146.5410 O   0  0  0  0  0  0  0  0  0  0  0  0
  192.7470  175.7510  145.1870 S   0  0  0  0  0  0  0  0  0  0  0  0
  194.2850  174.1990  143.6250 C   0  0  2  0  0  3  0  0  0  0  0  0
  191.4210  174.6610  144.6640 C   0  0  2  0  0  3  0  0  0  0  0  0
  186.9360  175.1250  142.7610 O   0  0  0  0  0  1  0  0  0  0  0  0
  189.7870  174.1710  142.9280 C   0  0  2  0  0  3  0  0  0  0  0  0
  193.0320  173.6930  142.9320 C   0  0  0  0  0  2  0  0  0  0  0  0
  194.0880  175.6470  144.0280 C   0  0  0  0  0  2  0  0  0  0  0  0
  187.7340  175.7070  141.7670 C   0  0  2  0  0  0  0  0  0  0  0  0
  189.3820  176.2030  144.4210 C   0  0  0  0  0  0  0  0  0  0  0  0
  190.3430  173.2290  140.8370 C   0  0  1  0  0  3  0  0  0  0  0  0
  195.4540  174.1060  142.6690 C   0  0  0  0  0  1  0  0  0  0  0  0
  188.5550  174.7530  140.9030 C   0  0  0  0  0  2  0  0  0  0  0  0
  189.2780  176.2320  145.8220 C   0  0  0  0  0  3  0  0  0  0  0  0
  187.6400  177.9100  144.2990 C   0  0  0  0  0  3  0  0  0  0  0  0
  187.5640  177.9350  145.6920 C   0  0  0  0  0  3  0  0  0  0  0  0
  187.2750  177.0840  141.3570 C   0  0  0  0  0  2  0  0  0  0  0  0
  190.6120  172.9340  143.2230 C   0  0  2  0  0  3  0  0  0  0  0  0
  189.8760  174.4520  141.4860 N   0  0  1  0  0  0  0  0  0  0  0  0
  191.8930  173.4060  143.9310 C   0  0  2  0  0  3  0  0  0  0  0  0
  190.0420  171.0930  141.8370 O   0  0  0  0  0  1  0  0  0  0  0  0
  190.4150  175.3200  143.7300 C   0  0  1  0  0  3  0  0  0  0  0  0
  1 21  2  0  0  0  0
  1 16  1  0  0  0  0
  3 17  1  0  0  0  0
  5 27  1  1  0  0  0
  5 24  1  0  0  0  0
  6 23  1  6  0  0  0
  6  1  1  0  0  0  0
  8  2  2  0  0  0  0
  8  7  2  0  0  0  0
  9 18  1  6  0  0  0
  9 14  1  0  0  0  0
 10  8  1  6  0  0  0
 12 24  1  0  0  0  0
 12 28  1  0  0  0  0
 13  9  1  0  0  0  0
 13 26  1  0  0  0  0
 14  8  1  0  0  0  0
 15  6  1  0  0  0  0
 15 11  1  0  0  0  0
 16 20  2  0  0  0  0
 17 25  1  0  0  0  0
 17  5  1  0  0  0  0
 19 25  1  0  0  0  0
 19 15  1  0  0  0  0
 20  4  1  0  0  0  0
 21 22  1  0  0  0  0
 22  4  2  0  0  0  0
 23 15  1  0  0  0  0
 24 26  1  0  0  0  0
 25 12  1  0  0  0  0
 26 10  1  0  0  0  0
 28 16  1  0  0  0  0
 28 10  1  0  0  0  0
M  END
>  <MODEL>
8

>  <REMARK>
 VINA RESULT:      -7.2      1.550      1.822
  Name = 
  0 active torsions:
  status: ('A' for Active; 'I' for Inactive)
                            x       y       z     vdW  Elec       q    Type
                         _______ _______ _______ _____ _____    ______ ____

>  <TORSDO>
F 0

$$$$
=
 OpenBabel11112417413D

 28 33  0  0  1  0  0  0  0  0999 V2000
  194.6990  174.7630  144.9770 C   0  0  0  0  0  0  0  0  0  0  0  0
  193.2440  171.9560  142.4180 O   0  0  0  0  0  0  0  0  0  0  0  0
  189.3410  177.0040  143.8240 C   0  0  0  0  0  1  0  0  0  0  0  0
  195.5520  172.2150  145.7610 C   0  0  0  0  0  3  0  0  0  0  0  0
  189.1570  175.2690  145.5920 C   0  0  1  0  0  3  0  0  0  0  0  0
  194.2050  176.1410  144.6490 C   0  0  1  0  0  3  0  0  0  0  0  0
  191.5660  170.2970  143.0800 O   0  0  0  0  0  0  0  0  0  0  0  0
  191.8220  171.7610  142.8650 S   0  0  0  0  0  0  0  0  0  0  0  0
  189.3460  172.5680  142.2050 C   0  0  2  0  0  3  0  0  0  0  0  0
  191.5100  172.6400  144.3990 C   0  0  2  0  0  3  0  0  0  0  0  0
  193.7670  176.0290  147.1140 O   0  0  0  0  0  1  0  0  0  0  0  0
  191.5290  174.8020  145.5170 C   0  0  2  0  0  3  0  0  0  0  0  0
  189.4220  173.6220  143.2970 C   0  0  0  0  0  2  0  0  0  0  0  0
  190.7230  172.3640  141.6060 C   0  0  0  0  0  2  0  0  0  0  0  0
  193.5540  176.7160  145.9110 C   0  0  2  0  0  0  0  0  0  0  0  0
  193.7710  173.6940  145.0050 C   0  0  0  0  0  0  0  0  0  0  0  0
  189.9290  176.4910  145.1250 C   0  0  1  0  0  3  0  0  0  0  0  0
  188.4010  173.0420  141.1220 C   0  0  0  0  0  1  0  0  0  0  0  0
  192.1240  177.1660  145.6250 C   0  0  0  0  0  2  0  0  0  0  0  0
  194.2160  172.4250  145.4140 C   0  0  0  0  0  3  0  0  0  0  0  0
  196.0410  174.5410  145.3160 C   0  0  0  0  0  3  0  0  0  0  0  0
  196.4650  173.2690  145.7030 C   0  0  0  0  0  3  0  0  0  0  0  0
  194.8010  177.3570  145.3560 C   0  0  0  0  0  2  0  0  0  0  0  0
  190.1700  174.1490  145.6800 C   0  0  2  0  0  3  0  0  0  0  0  0
  191.3320  176.1360  144.9270 N   0  0  1  0  0  0  0  0  0  0  0  0
  190.0560  173.0710  144.5900 C   0  0  2  0  0  3  0  0  0  0  0  0
  188.6270  175.5140  146.8580 O   0  0  0  0  0  1  0  0  0  0  0  0
  192.3310  173.9130  144.5560 C   0  0  1  0  0  3  0  0  0  0  0  0
  1 16  2  0  0  0  0
  1 21  1  0  0  0  0
  2  8  2  0  0  0  0
  3 17  1  0  0  0  0
  5 24  1  0  0  0  0
  5 27  1  1  0  0  0
  6  1  1  0  0  0  0
  6 23  1  1  0  0  0
  6 15  1  0  0  0  0
  8  7  2  0  0  0  0
  9 18  1  6  0  0  0
  9 13  1  0  0  0  0
 10  8  1  6  0  0  0
 10 28  1  0  0  0  0
 10 26  1  0  0  0  0
 12 24  1  0  0  0  0
 13 26  1  0  0  0  0
 14  9  1  0  0  0  0
 14  8  1  0  0  0  0
 15 11  1  0  0  0  0
 16 20  1  0  0  0  0
 17  5  1  0  0  0  0
 19 15  1  0  0  0  0
 20  4  2  0  0  0  0
 21 22  2  0  0  0  0
 22  4  1  0  0  0  0
 23 15  1  0  0  0  0
 25 17  1  0  0  0  0
 25 12  1  0  0  0  0
 25 19  1  0  0  0  0
 26 24  1  0  0  0  0
 28 16  1  0  0  0  0
 28 12  1  0  0  0  0
M  END
>  <MODEL>
9

>  <REMARK>
 VINA RESULT:      -7.1      2.551      6.489
  Name = 
  0 active torsions:
  status: ('A' for Active; 'I' for Inactive)
                            x       y       z     vdW  Elec       q    Type
                         _______ _______ _______ _____ _____    ______ ____

>  <TORSDO>
F 0

$$$$
